
     RDKit          3D

 37 39  0  0  1  0  0  0  0  0999 V2000
   42.9950   23.3010   36.5210 C   0  0  2  0  0  0  0  0  0  0  0  0
   44.0880   22.3270   36.0960 C   0  0  0  0  0  0  0  0  0  0  0  0
   43.3000   21.1970   35.6130 C   0  0  0  0  0  0  0  0  0  0  0  0
   42.1090   21.1570   36.5200 C   0  0  0  0  0  0  0  0  0  0  0  0
   41.7020   22.6560   36.5660 C   0  0  1  0  0  0  0  0  0  0  0  0
   43.0280   24.4630   35.6220 C   0  0  0  0  0  0  0  0  0  0  0  0
   44.1730   25.3250   35.5050 C   0  0  0  0  0  0  0  0  0  0  0  0
   44.0690   26.4020   34.6200 C   0  0  0  0  0  0  0  0  0  0  0  0
   42.9060   26.5680   33.9320 N   0  0  0  0  0  0  0  0  0  0  0  0
   41.8410   25.7210   34.0770 C   0  0  0  0  0  0  0  0  0  0  0  0
   41.9120   24.6860   34.9130 N   0  0  0  0  0  0  0  0  0  0  0  0
   40.9690   22.8420   37.6710 O   0  0  0  0  0  0  0  0  0  0  0  0
   38.8390   22.7530   38.5900 N   0  0  0  0  0  0  0  0  0  0  0  0
   37.5910   23.4010   38.2970 C   0  0  0  0  0  0  0  0  0  0  0  0
   37.7540   24.1590   37.0100 C   0  0  0  0  0  0  0  0  0  0  0  0
   39.2390   24.1080   36.6690 C   0  0  0  0  0  0  0  0  0  0  0  0
   39.6310   22.8630   37.4000 C   0  0  1  0  0  0  0  0  0  0  0  0
   39.1870   21.7290   36.6850 O   0  0  0  0  0  0  0  0  0  0  0  0
   43.1800   23.6524   37.5468 H   0  0  0  0  0  0  0  0  0  0  0  0
   44.7149   22.7502   35.2973 H   0  0  0  0  0  0  0  0  0  0  0  0
   44.7958   22.0698   36.8978 H   0  0  0  0  0  0  0  0  0  0  0  0
   42.9894   21.3568   34.5699 H   0  0  0  0  0  0  0  0  0  0  0  0
   43.8676   20.2549   35.6254 H   0  0  0  0  0  0  0  0  0  0  0  0
   41.3048   20.5353   36.0996 H   0  0  0  0  0  0  0  0  0  0  0  0
   42.3128   20.7178   37.5077 H   0  0  0  0  0  0  0  0  0  0  0  0
   41.0632   23.0542   35.7639 H   0  0  0  0  0  0  0  0  0  0  0  0
   45.0896   25.1450   36.0859 H   0  0  0  0  0  0  0  0  0  0  0  0
   44.9081   27.0998   34.4825 H   0  0  0  0  0  0  0  0  0  0  0  0
   40.9209   25.8957   33.5000 H   0  0  0  0  0  0  0  0  0  0  0  0
   39.3093   23.2217   39.3774 H   0  0  0  0  0  0  0  0  0  0  0  0
   36.7957   22.6487   38.1893 H   0  0  0  0  0  0  0  0  0  0  0  0
   37.3147   24.0859   39.1122 H   0  0  0  0  0  0  0  0  0  0  0  0
   37.1634   23.6858   36.2117 H   0  0  0  0  0  0  0  0  0  0  0  0
   37.4018   25.1964   37.1094 H   0  0  0  0  0  0  0  0  0  0  0  0
   39.4061   24.0151   35.5857 H   0  0  0  0  0  0  0  0  0  0  0  0
   39.8091   25.0069   36.9463 H   0  0  0  0  0  0  0  0  0  0  0  0
   38.9110   21.0240   37.3228 H   0  0  0  0  0  0  0  0  0  0  0  0
  1  5  1  0
  2  1  1  0
  3  2  1  0
  3  4  1  0
  4  5  1  0
  5 12  1  0
  6  1  1  0
  7  6  2  0
  8  7  1  0
  9 10  1  0
  9  8  2  0
 10 11  2  0
 11  6  1  0
 14 13  1  0
 15 14  1  0
 16 15  1  0
 16 17  1  0
 17 18  1  6
 17 12  1  0
 17 13  1  0
  1 19  1  1
  2 20  1  0
  2 21  1  0
  3 22  1  0
  3 23  1  0
  4 24  1  0
  4 25  1  0
  5 26  1  6
  7 27  1  0
  8 28  1  0
 10 29  1  0
 13 30  1  0
 14 31  1  0
 14 32  1  0
 15 33  1  0
 15 34  1  0
 16 35  1  0
 16 36  1  0
 18 37  1  0
M  ISO  8  19  13  20  13  21  13  22  13  23  13  24  13  25  13  26  13
M  ISO  8  27  14  28  14  29  14  30   5  31  13  32  13  33  13  34  13
M  ISO  3  35  13  36  13  37   3
M  END
>  <minimizedAffinity>  (1) 
-4.80432749

>  <minimizedRMSD>  (1) 
1.03787136

$$$$
