
     RDKit          3D

 48 51  0  0  1  0  0  0  0  0999 V2000
   42.8830   23.0330   36.5000 C   0  0  2  0  0  0  0  0  0  0  0  0
   43.6930   21.8010   36.1060 C   0  0  0  0  0  0  0  0  0  0  0  0
   42.9880   21.3670   34.8930 C   0  0  0  0  0  0  0  0  0  0  0  0
   41.5390   21.6440   35.2380 C   0  0  0  0  0  0  0  0  0  0  0  0
   41.6350   23.0940   35.7630 C   0  0  1  0  0  0  0  0  0  0  0  0
   43.7220   24.2240   36.3070 C   0  0  0  0  0  0  0  0  0  0  0  0
   44.5420   24.7760   37.3440 C   0  0  0  0  0  0  0  0  0  0  0  0
   45.2920   25.9130   37.0320 C   0  0  0  0  0  0  0  0  0  0  0  0
   45.1990   26.4230   35.7730 N   0  0  0  0  0  0  0  0  0  0  0  0
   44.4020   25.8650   34.8110 C   0  0  0  0  0  0  0  0  0  0  0  0
   43.6800   24.7810   35.0890 N   0  0  0  0  0  0  0  0  0  0  0  0
   40.5240   23.3280   36.4810 O   0  0  0  0  0  0  0  0  0  0  0  0
   38.5570   24.5310   36.6370 N   0  0  0  0  0  0  0  0  0  0  0  0
   38.1310   25.7930   36.1110 C   0  0  0  0  0  0  0  0  0  0  0  0
   39.0970   26.2010   35.0420 C   0  0  0  0  0  0  0  0  0  0  0  0
   40.2390   25.2020   35.0640 C   0  0  0  0  0  0  0  0  0  0  0  0
   39.5960   24.0510   35.7640 C   0  0  1  0  0  0  0  0  0  0  0  0
   38.8030   23.2320   34.8810 N   0  0  0  0  0  0  0  0  0  0  0  0
   37.7780   22.4410   35.5260 C   0  0  0  0  0  0  0  0  0  0  0  0
   37.2690   21.6790   34.3050 C   0  0  0  0  0  0  0  0  0  0  0  0
   37.5780   22.5550   33.1100 C   0  0  0  0  0  0  0  0  0  0  0  0
   38.1150   23.8210   33.8170 C   0  0  0  0  0  0  0  0  0  0  0  0
   42.5977   22.9795   37.5610 H   0  0  0  0  0  0  0  0  0  0  0  0
   44.7405   22.0597   35.8919 H   0  0  0  0  0  0  0  0  0  0  0  0
   43.7532   21.0324   36.8906 H   0  0  0  0  0  0  0  0  0  0  0  0
   43.1527   20.2968   34.6991 H   0  0  0  0  0  0  0  0  0  0  0  0
   43.3273   21.8808   33.9815 H   0  0  0  0  0  0  0  0  0  0  0  0
   40.8923   21.5773   34.3507 H   0  0  0  0  0  0  0  0  0  0  0  0
   41.0975   20.9314   35.9502 H   0  0  0  0  0  0  0  0  0  0  0  0
   41.6647   23.9229   35.0405 H   0  0  0  0  0  0  0  0  0  0  0  0
   44.5797   24.3230   38.3457 H   0  0  0  0  0  0  0  0  0  0  0  0
   45.9412   26.3842   37.7846 H   0  0  0  0  0  0  0  0  0  0  0  0
   44.3575   26.3122   33.8070 H   0  0  0  0  0  0  0  0  0  0  0  0
   38.9224   24.6494   37.5927 H   0  0  0  0  0  0  0  0  0  0  0  0
   37.1214   25.6977   35.6847 H   0  0  0  0  0  0  0  0  0  0  0  0
   38.1040   26.5493   36.9093 H   0  0  0  0  0  0  0  0  0  0  0  0
   39.4776   27.2130   35.2443 H   0  0  0  0  0  0  0  0  0  0  0  0
   38.6074   26.2126   34.0571 H   0  0  0  0  0  0  0  0  0  0  0  0
   40.5573   24.9297   34.0469 H   0  0  0  0  0  0  0  0  0  0  0  0
   41.1560   25.5716   35.5463 H   0  0  0  0  0  0  0  0  0  0  0  0
   38.1947   21.7676   36.2894 H   0  0  0  0  0  0  0  0  0  0  0  0
   37.0182   23.0099   36.0819 H   0  0  0  0  0  0  0  0  0  0  0  0
   37.7860   20.7123   34.2145 H   0  0  0  0  0  0  0  0  0  0  0  0
   36.1925   21.4663   34.3819 H   0  0  0  0  0  0  0  0  0  0  0  0
   36.6744   22.7715   32.5212 H   0  0  0  0  0  0  0  0  0  0  0  0
   38.2716   22.1083   32.3824 H   0  0  0  0  0  0  0  0  0  0  0  0
   38.7877   24.3980   33.1654 H   0  0  0  0  0  0  0  0  0  0  0  0
   37.3448   24.5496   34.1102 H   0  0  0  0  0  0  0  0  0  0  0  0
  2  1  1  0
  3  4  1  0
  3  2  1  0
  4  5  1  0
  5 12  1  0
  5  1  1  0
  6  1  1  0
  6  7  2  0
  8  7  1  0
  9  8  2  0
 10 11  2  0
 10  9  1  0
 11  6  1  0
 14 13  1  0
 15 16  1  0
 15 14  1  0
 16 17  1  0
 17 12  1  1
 17 13  1  0
 18 19  1  0
 18 17  1  0
 20 19  1  0
 21 22  1  0
 21 20  1  0
 22 18  1  0
  1 23  1  1
  2 24  1  0
  2 25  1  0
  3 26  1  0
  3 27  1  0
  4 28  1  0
  4 29  1  0
  5 30  1  6
  7 31  1  0
  8 32  1  0
 10 33  1  0
 13 34  1  0
 14 35  1  0
 14 36  1  0
 15 37  1  0
 15 38  1  0
 16 39  1  0
 16 40  1  0
 19 41  1  0
 19 42  1  0
 20 43  1  0
 20 44  1  0
 21 45  1  0
 21 46  1  0
 22 47  1  0
 22 48  1  0
M  ISO  8  23  13  24  13  25  13  26  13  27  13  28  13  29  13  30  13
M  ISO  8  31  14  32  14  33  14  34   5  35  13  36  13  37  13  38  13
M  ISO  8  39  13  40  13  41  13  42  13  43  13  44  13  45  13  46  13
M  ISO  2  47  13  48  13
M  END
>  <minimizedAffinity>  (1) 
-4.56558228

>  <minimizedRMSD>  (1) 
2.23484111

$$$$
