
     RDKit          3D

 48 50  0  0  1  0  0  0  0  0999 V2000
   42.5450   23.3550   36.4750 C   0  0  2  0  0  0  0  0  0  0  0  0
   43.2760   22.0190   36.2600 C   0  0  0  0  0  0  0  0  0  0  0  0
   42.6240   21.5780   35.0050 C   0  0  0  0  0  0  0  0  0  0  0  0
   41.1750   21.9680   35.3730 C   0  0  0  0  0  0  0  0  0  0  0  0
   41.3930   23.4530   35.5680 C   0  0  1  0  0  0  0  0  0  0  0  0
   43.5150   24.4350   36.2610 C   0  0  0  0  0  0  0  0  0  0  0  0
   44.4120   24.8620   37.2810 C   0  0  0  0  0  0  0  0  0  0  0  0
   45.3040   25.8920   36.9680 C   0  0  0  0  0  0  0  0  0  0  0  0
   45.2590   26.4220   35.7080 N   0  0  0  0  0  0  0  0  0  0  0  0
   44.3740   25.9760   34.7620 C   0  0  0  0  0  0  0  0  0  0  0  0
   43.5170   24.9960   35.0360 N   0  0  0  0  0  0  0  0  0  0  0  0
   40.2420   23.8020   36.0740 O   0  0  0  0  0  0  0  0  0  0  0  0
   38.5180   25.2420   36.3580 N   0  0  0  0  0  0  0  0  0  0  0  0
   38.4010   26.6500   36.0550 C   0  0  0  0  0  0  0  0  0  0  0  0
   39.3440   26.9770   34.9620 C   0  0  0  0  0  0  0  0  0  0  0  0
   40.2960   25.8230   34.9900 C   0  0  0  0  0  0  0  0  0  0  0  0
   39.4270   24.6430   35.4860 C   0  0  1  0  0  0  0  0  0  0  0  0
   38.4970   24.2390   34.3500 C   0  0  0  0  0  0  0  0  0  0  0  0
   37.7350   25.4510   33.8250 C   0  0  0  0  0  0  0  0  0  0  0  0
   37.9230   22.9150   34.2560 C   0  0  0  0  0  0  0  0  0  0  0  0
   39.3750   24.1430   33.0110 C   0  0  0  0  0  0  0  0  0  0  0  0
   42.1460   23.4297   37.4973 H   0  0  0  0  0  0  0  0  0  0  0  0
   44.3592   22.1608   36.1310 H   0  0  0  0  0  0  0  0  0  0  0  0
   43.2057   21.3087   37.0969 H   0  0  0  0  0  0  0  0  0  0  0  0
   42.7349   20.4970   34.8345 H   0  0  0  0  0  0  0  0  0  0  0  0
   43.0209   22.0106   34.0748 H   0  0  0  0  0  0  0  0  0  0  0  0
   40.4675   21.7552   34.5580 H   0  0  0  0  0  0  0  0  0  0  0  0
   40.7348   21.4309   36.2261 H   0  0  0  0  0  0  0  0  0  0  0  0
   41.6154   24.1695   34.7635 H   0  0  0  0  0  0  0  0  0  0  0  0
   44.4035   24.3985   38.2786 H   0  0  0  0  0  0  0  0  0  0  0  0
   46.0214   26.2654   37.7136 H   0  0  0  0  0  0  0  0  0  0  0  0
   44.3720   26.4345   33.7621 H   0  0  0  0  0  0  0  0  0  0  0  0
   38.8479   25.1274   37.3270 H   0  0  0  0  0  0  0  0  0  0  0  0
   37.3725   26.8767   35.7375 H   0  0  0  0  0  0  0  0  0  0  0  0
   38.6379   27.2477   36.9475 H   0  0  0  0  0  0  0  0  0  0  0  0
   39.8651   27.9255   35.1587 H   0  0  0  0  0  0  0  0  0  0  0  0
   38.8517   27.1122   33.9876 H   0  0  0  0  0  0  0  0  0  0  0  0
   40.6964   25.6203   33.9857 H   0  0  0  0  0  0  0  0  0  0  0  0
   41.1707   26.0073   35.6310 H   0  0  0  0  0  0  0  0  0  0  0  0
   37.3617   26.0447   34.6724 H   0  0  0  0  0  0  0  0  0  0  0  0
   38.4071   26.0693   33.2119 H   0  0  0  0  0  0  0  0  0  0  0  0
   36.8864   25.1133   33.2119 H   0  0  0  0  0  0  0  0  0  0  0  0
   37.7506   22.5175   35.2671 H   0  0  0  0  0  0  0  0  0  0  0  0
   36.9668   22.9675   33.7147 H   0  0  0  0  0  0  0  0  0  0  0  0
   38.6149   22.2530   33.7147 H   0  0  0  0  0  0  0  0  0  0  0  0
   40.4363   24.0270   33.2760 H   0  0  0  0  0  0  0  0  0  0  0  0
   39.0478   23.2753   32.4194 H   0  0  0  0  0  0  0  0  0  0  0  0
   39.2430   25.0609   32.4194 H   0  0  0  0  0  0  0  0  0  0  0  0
  2  1  1  0
  3  4  1  0
  3  2  1  0
  4  5  1  0
  5 12  1  0
  5  1  1  0
  6  1  1  0
  6  7  2  0
  8  7  1  0
  9  8  2  0
 10 11  2  0
 10  9  1  0
 11  6  1  0
 14 13  1  0
 15 16  1  0
 15 14  1  0
 16 17  1  0
 17 12  1  1
 17 13  1  0
 18 17  1  0
 19 18  1  0
 20 18  1  0
 21 18  1  0
  1 22  1  1
  2 23  1  0
  2 24  1  0
  3 25  1  0
  3 26  1  0
  4 27  1  0
  4 28  1  0
  5 29  1  6
  7 30  1  0
  8 31  1  0
 10 32  1  0
 13 33  1  0
 14 34  1  0
 14 35  1  0
 15 36  1  0
 15 37  1  0
 16 38  1  0
 16 39  1  0
 19 40  1  0
 19 41  1  0
 19 42  1  0
 20 43  1  0
 20 44  1  0
 20 45  1  0
 21 46  1  0
 21 47  1  0
 21 48  1  0
M  ISO  8  22  13  23  13  24  13  25  13  26  13  27  13  28  13  29  13
M  ISO  8  30  14  31  14  32  14  33   5  34  13  35  13  36  13  37  13
M  ISO  8  38  13  39  13  40   8  41   8  42   8  43   8  44   8  45   8
M  ISO  3  46   8  47   8  48   8
M  END
>  <minimizedAffinity>  (1) 
-4.48686504

>  <minimizedRMSD>  (1) 
2.63021231

$$$$
