
     RDKit          3D

 42 45  0  0  1  0  0  0  0  0999 V2000
   43.0400   22.9450   36.5220 C   0  0  2  0  0  0  0  0  0  0  0  0
   43.8980   21.7600   36.0770 C   0  0  0  0  0  0  0  0  0  0  0  0
   43.1470   21.2960   34.9000 C   0  0  0  0  0  0  0  0  0  0  0  0
   41.7070   21.4780   35.3440 C   0  0  0  0  0  0  0  0  0  0  0  0
   41.7590   22.9480   35.8330 C   0  0  1  0  0  0  0  0  0  0  0  0
   43.8050   24.1770   36.3070 C   0  0  0  0  0  0  0  0  0  0  0  0
   44.6690   24.7460   37.3020 C   0  0  0  0  0  0  0  0  0  0  0  0
   45.3370   25.9270   36.9680 C   0  0  0  0  0  0  0  0  0  0  0  0
   45.1300   26.4650   35.7330 N   0  0  0  0  0  0  0  0  0  0  0  0
   44.2960   25.8900   34.8130 C   0  0  0  0  0  0  0  0  0  0  0  0
   43.6480   24.7640   35.1030 N   0  0  0  0  0  0  0  0  0  0  0  0
   40.6690   23.0800   36.5830 O   0  0  0  0  0  0  0  0  0  0  0  0
   38.6490   24.1440   36.9360 N   0  0  0  0  0  0  0  0  0  0  0  0
   37.8920   25.1350   36.2040 C   0  0  0  0  0  0  0  0  0  0  0  0
   38.7690   25.6360   35.0790 C   0  0  0  0  0  0  0  0  0  0  0  0
   40.0880   24.8930   35.2080 C   0  0  0  0  0  0  0  0  0  0  0  0
   39.6400   23.6830   35.9760 C   0  0  1  0  0  0  0  0  0  0  0  0
   38.7110   22.9070   35.1150 N   0  0  0  0  0  0  0  0  0  0  0  0
   37.6790   22.0930   35.5170 C   0  0  0  0  0  0  0  0  0  0  0  0
   37.0690   21.6210   34.4100 N   0  0  0  0  0  0  0  0  0  0  0  0
   37.7300   22.1460   33.3620 C   0  0  0  0  0  0  0  0  0  0  0  0
   38.7390   22.9370   33.7570 N   0  0  0  0  0  0  0  0  0  0  0  0
   42.8024   22.8657   37.5931 H   0  0  0  0  0  0  0  0  0  0  0  0
   44.9162   22.0772   35.8073 H   0  0  0  0  0  0  0  0  0  0  0  0
   44.0477   20.9927   36.8508 H   0  0  0  0  0  0  0  0  0  0  0  0
   43.3654   20.2409   34.6784 H   0  0  0  0  0  0  0  0  0  0  0  0
   43.3955   21.8391   33.9763 H   0  0  0  0  0  0  0  0  0  0  0  0
   41.0031   21.3505   34.5084 H   0  0  0  0  0  0  0  0  0  0  0  0
   41.3585   20.7526   36.0939 H   0  0  0  0  0  0  0  0  0  0  0  0
   41.7320   23.7865   35.1215 H   0  0  0  0  0  0  0  0  0  0  0  0
   44.7998   24.2723   38.2861 H   0  0  0  0  0  0  0  0  0  0  0  0
   46.0149   26.4117   37.6859 H   0  0  0  0  0  0  0  0  0  0  0  0
   44.1603   26.3610   33.8282 H   0  0  0  0  0  0  0  0  0  0  0  0
   39.1037   24.5643   37.7591 H   0  0  0  0  0  0  0  0  0  0  0  0
   36.9774   24.6817   35.7941 H   0  0  0  0  0  0  0  0  0  0  0  0
   37.5976   25.9638   36.8646 H   0  0  0  0  0  0  0  0  0  0  0  0
   38.9307   26.7198   35.1750 H   0  0  0  0  0  0  0  0  0  0  0  0
   38.3033   25.4595   34.0982 H   0  0  0  0  0  0  0  0  0  0  0  0
   40.5001   24.6215   34.2249 H   0  0  0  0  0  0  0  0  0  0  0  0
   40.8957   25.4679   35.6845 H   0  0  0  0  0  0  0  0  0  0  0  0
   37.4000   21.8666   36.5567 H   0  0  0  0  0  0  0  0  0  0  0  0
   37.4743   21.9505   32.3101 H   0  0  0  0  0  0  0  0  0  0  0  0
  2  1  1  0
  3  4  1  0
  3  2  1  0
  4  5  1  0
  5  1  1  0
  5 12  1  0
  6  1  1  0
  6  7  2  0
  8  7  1  0
  9  8  2  0
 10 11  2  0
 10  9  1  0
 11  6  1  0
 14 13  1  0
 15 16  1  0
 15 14  1  0
 16 17  1  0
 17 12  1  1
 17 13  1  0
 18 19  1  0
 18 17  1  0
 20 19  2  0
 21 22  2  0
 21 20  1  0
 22 18  1  0
  1 23  1  1
  2 24  1  0
  2 25  1  0
  3 26  1  0
  3 27  1  0
  4 28  1  0
  4 29  1  0
  5 30  1  6
  7 31  1  0
  8 32  1  0
 10 33  1  0
 13 34  1  0
 14 35  1  0
 14 36  1  0
 15 37  1  0
 15 38  1  0
 16 39  1  0
 16 40  1  0
 19 41  1  0
 21 42  1  0
M  ISO  8  23  13  24  13  25  13  26  13  27  13  28  13  29  13  30  13
M  ISO  8  31  14  32  14  33  14  34   5  35  13  36  13  37  13  38  13
M  ISO  4  39  13  40  13  41  14  42  14
M  END
>  <minimizedAffinity>  (1) 
-4.45568848

>  <minimizedRMSD>  (1) 
1.89628696

$$$$
