
     RDKit          3D

 49 52  0  0  1  0  0  0  0  0999 V2000
   42.9630   23.1200   36.4980 C   0  0  2  0  0  0  0  0  0  0  0  0
   43.8100   21.8770   36.2480 C   0  0  0  0  0  0  0  0  0  0  0  0
   43.1950   21.3450   35.0400 C   0  0  0  0  0  0  0  0  0  0  0  0
   41.7510   21.6940   35.1390 C   0  0  0  0  0  0  0  0  0  0  0  0
   41.7840   23.1430   35.6570 C   0  0  1  0  0  0  0  0  0  0  0  0
   43.8030   24.3080   36.2960 C   0  0  0  0  0  0  0  0  0  0  0  0
   44.7110   24.7830   37.2960 C   0  0  0  0  0  0  0  0  0  0  0  0
   45.4550   25.9260   36.9900 C   0  0  0  0  0  0  0  0  0  0  0  0
   45.2710   26.5120   35.7720 N   0  0  0  0  0  0  0  0  0  0  0  0
   44.3890   26.0200   34.8500 C   0  0  0  0  0  0  0  0  0  0  0  0
   43.6670   24.9340   35.1110 N   0  0  0  0  0  0  0  0  0  0  0  0
   40.6150   23.2910   36.2030 O   0  0  0  0  0  0  0  0  0  0  0  0
   38.5850   24.1540   36.4820 N   0  0  0  0  0  0  0  0  0  0  0  0
   37.8650   25.2990   35.9720 C   0  0  0  0  0  0  0  0  0  0  0  0
   38.7530   25.9660   34.9560 C   0  0  0  0  0  0  0  0  0  0  0  0
   40.1070   25.2970   35.1020 C   0  0  0  0  0  0  0  0  0  0  0  0
   39.6390   23.8960   35.5290 C   0  0  1  0  0  0  0  0  0  0  0  0
   38.8230   23.3430   34.4670 C   0  0  0  0  0  0  0  0  0  0  0  0
   38.2390   21.9770   34.8870 C   0  0  0  0  0  0  0  0  0  0  0  0
   36.9680   21.9750   34.0580 C   0  0  0  0  0  0  0  0  0  0  0  0
   37.3550   22.6970   32.7690 C   0  0  0  0  0  0  0  0  0  0  0  0
   38.7640   23.2320   33.0550 C   0  0  0  0  0  0  0  0  0  0  0  0
   42.5948   23.1089   37.5345 H   0  0  0  0  0  0  0  0  0  0  0  0
   44.8656   22.1370   36.0805 H   0  0  0  0  0  0  0  0  0  0  0  0
   43.8287   21.1700   37.0905 H   0  0  0  0  0  0  0  0  0  0  0  0
   43.3239   20.2536   34.9921 H   0  0  0  0  0  0  0  0  0  0  0  0
   43.6535   21.7631   34.1317 H   0  0  0  0  0  0  0  0  0  0  0  0
   41.2612   21.6360   34.1558 H   0  0  0  0  0  0  0  0  0  0  0  0
   41.1823   21.0125   35.7887 H   0  0  0  0  0  0  0  0  0  0  0  0
   41.8937   24.0027   34.9796 H   0  0  0  0  0  0  0  0  0  0  0  0
   44.8184   24.2705   38.2634 H   0  0  0  0  0  0  0  0  0  0  0  0
   46.1712   26.3427   37.7135 H   0  0  0  0  0  0  0  0  0  0  0  0
   44.2754   26.5284   33.8812 H   0  0  0  0  0  0  0  0  0  0  0  0
   38.9827   24.3639   37.4086 H   0  0  0  0  0  0  0  0  0  0  0  0
   36.9273   24.9740   35.4976 H   0  0  0  0  0  0  0  0  0  0  0  0
   37.6107   25.9946   36.7853 H   0  0  0  0  0  0  0  0  0  0  0  0
   38.8320   27.0435   35.1625 H   0  0  0  0  0  0  0  0  0  0  0  0
   38.3548   25.8643   33.9357 H   0  0  0  0  0  0  0  0  0  0  0  0
   40.6607   25.2750   34.1518 H   0  0  0  0  0  0  0  0  0  0  0  0
   40.8072   25.7920   35.7910 H   0  0  0  0  0  0  0  0  0  0  0  0
   38.5599   24.4109   34.4506 H   0  0  0  0  0  0  0  0  0  0  0  0
   38.9062   21.1457   34.6153 H   0  0  0  0  0  0  0  0  0  0  0  0
   38.0895   21.8472   35.9690 H   0  0  0  0  0  0  0  0  0  0  0  0
   36.6434   20.9457   33.8454 H   0  0  0  0  0  0  0  0  0  0  0  0
   36.1285   22.4619   34.5759 H   0  0  0  0  0  0  0  0  0  0  0  0
   36.6585   23.5218   32.5581 H   0  0  0  0  0  0  0  0  0  0  0  0
   37.3215   22.0394   31.8878 H   0  0  0  0  0  0  0  0  0  0  0  0
   39.5279   22.5306   32.6881 H   0  0  0  0  0  0  0  0  0  0  0  0
   38.9567   24.1912   32.5521 H   0  0  0  0  0  0  0  0  0  0  0  0
  2  1  1  0
  3  4  1  0
  3  2  1  0
  4  5  1  0
  5 12  1  0
  5  1  1  0
  6  1  1  0
  6  7  2  0
  8  7  1  0
  9  8  2  0
 10 11  2  0
 10  9  1  0
 11  6  1  0
 14 13  1  0
 15 16  1  0
 15 14  1  0
 16 17  1  0
 17 12  1  1
 17 13  1  0
 18 19  1  0
 18 17  1  0
 20 19  1  0
 21 22  1  0
 21 20  1  0
 22 18  1  0
  1 23  1  1
  2 24  1  0
  2 25  1  0
  3 26  1  0
  3 27  1  0
  4 28  1  0
  4 29  1  0
  5 30  1  6
  7 31  1  0
  8 32  1  0
 10 33  1  0
 13 34  1  0
 14 35  1  0
 14 36  1  0
 15 37  1  0
 15 38  1  0
 16 39  1  0
 16 40  1  0
 18 41  1  0
 19 42  1  0
 19 43  1  0
 20 44  1  0
 20 45  1  0
 21 46  1  0
 21 47  1  0
 22 48  1  0
 22 49  1  0
M  ISO  8  23  13  24  13  25  13  26  13  27  13  28  13  29  13  30  13
M  ISO  8  31  14  32  14  33  14  34   5  35  13  36  13  37  13  38  13
M  ISO  8  39  13  40  13  41  13  42  13  43  13  44  13  45  13  46  13
M  ISO  3  47  13  48  13  49  13
M  END
>  <minimizedAffinity>  (1) 
-4.29151011

>  <minimizedRMSD>  (1) 
2.29317212

$$$$
