
     RDKit          3D

 21 23  0  0  0  0  0  0  0  0999 V2000
   39.7780   22.8420   37.5550 C   0  0  0  0  0  0  0  0  0  0  0  0
   39.0610   23.2850   38.6830 C   0  0  0  0  0  0  0  0  0  0  0  0
   37.9740   24.1300   38.4510 C   0  0  0  0  0  0  0  0  0  0  0  0
   37.6640   24.4790   37.1730 N   0  0  0  0  0  0  0  0  0  0  0  0
   38.3770   24.0330   36.1210 C   0  0  0  0  0  0  0  0  0  0  0  0
   39.4290   23.2180   36.3210 N   0  0  0  0  0  0  0  0  0  0  0  0
   38.0830   24.3780   34.7700 N   0  0  0  0  0  0  0  0  0  0  0  0
   38.1950   23.6710   33.6260 C   0  0  0  0  0  0  0  0  0  0  0  0
   37.7850   24.4540   32.6140 N   0  0  0  0  0  0  0  0  0  0  0  0
   37.4040   25.6600   33.0720 C   0  0  0  0  0  0  0  0  0  0  0  0
   36.9140   26.7850   32.4150 C   0  0  0  0  0  0  0  0  0  0  0  0
   36.6300   27.8410   33.2020 N   0  0  0  0  0  0  0  0  0  0  0  0
   36.8170   27.7830   34.5260 C   0  0  0  0  0  0  0  0  0  0  0  0
   37.2930   26.6980   35.1850 N   0  0  0  0  0  0  0  0  0  0  0  0
   37.5970   25.6010   34.4380 C   0  0  0  0  0  0  0  0  0  0  0  0
   40.6413   22.1742   37.6920 H   0  0  0  0  0  0  0  0  0  0  0  0
   39.3444   22.9792   39.7009 H   0  0  0  0  0  0  0  0  0  0  0  0
   37.3750   24.5093   39.2920 H   0  0  0  0  0  0  0  0  0  0  0  0
   38.5579   22.6363   33.5376 H   0  0  0  0  0  0  0  0  0  0  0  0
   36.7682   26.8102   31.3250 H   0  0  0  0  0  0  0  0  0  0  0  0
   36.5678   28.6753   35.1191 H   0  0  0  0  0  0  0  0  0  0  0  0
  1  2  2  0
  3  2  1  0
  4  3  2  0
  5  6  2  0
  5  4  1  0
  6  1  1  0
  7  5  1  0
  8  7  1  0
  9 10  1  0
  9  8  2  0
 10 15  2  0
 11 10  1  0
 11 12  2  0
 12 13  1  0
 13 14  2  0
 15  7  1  0
 15 14  1  0
  1 16  1  0
  2 17  1  0
  3 18  1  0
  8 19  1  0
 11 20  1  0
 13 21  1  0
M  ISO  6  16  14  17  14  18  14  19  14  20  14  21  14
M  END
>  <minimizedAffinity>  (1) 
-4.68246555

>  <minimizedRMSD>  (1) 
3.32635784

$$$$
