
     RDKit          3D

 34 38  0  0  0  0  0  0  0  0999 V2000
   39.7950   22.7860   37.9490 C   0  0  0  0  0  0  0  0  0  0  0  0
   38.9260   23.5710   38.7480 C   0  0  0  0  0  0  0  0  0  0  0  0
   37.8470   24.2050   38.1060 C   0  0  0  0  0  0  0  0  0  0  0  0
   37.6970   24.0310   36.7710 N   0  0  0  0  0  0  0  0  0  0  0  0
   38.5340   23.2840   36.0450 C   0  0  0  0  0  0  0  0  0  0  0  0
   39.5820   22.6630   36.6390 N   0  0  0  0  0  0  0  0  0  0  0  0
   38.4240   23.0660   34.6340 N   0  0  0  0  0  0  0  0  0  0  0  0
   38.6990   22.0100   33.8580 C   0  0  0  0  0  0  0  0  0  0  0  0
   38.4140   22.3370   32.5900 N   0  0  0  0  0  0  0  0  0  0  0  0
   37.9510   23.6060   32.5140 C   0  0  0  0  0  0  0  0  0  0  0  0
   37.5360   24.3660   31.4340 C   0  0  0  0  0  0  0  0  0  0  0  0
   37.1320   25.6070   31.7360 N   0  0  0  0  0  0  0  0  0  0  0  0
   37.1350   26.0640   32.9950 C   0  0  0  0  0  0  0  0  0  0  0  0
   37.5390   25.3330   34.0680 N   0  0  0  0  0  0  0  0  0  0  0  0
   37.9610   24.0630   33.8210 C   0  0  0  0  0  0  0  0  0  0  0  0
   36.6930   27.3990   33.2600 N   0  0  0  0  0  0  0  0  0  0  0  0
   36.3820   27.9400   34.4730 C   0  0  0  0  0  0  0  0  0  0  0  0
   36.0100   29.2200   34.2970 N   0  0  0  0  0  0  0  0  0  0  0  0
   36.0900   29.4650   32.9950 C   0  0  0  0  0  0  0  0  0  0  0  0
   35.8340   30.5890   32.2300 C   0  0  0  0  0  0  0  0  0  0  0  0
   35.9930   30.5960   30.8840 N   0  0  0  0  0  0  0  0  0  0  0  0
   36.4150   29.4710   30.2440 C   0  0  0  0  0  0  0  0  0  0  0  0
   36.6650   28.3720   30.9800 N   0  0  0  0  0  0  0  0  0  0  0  0
   36.5140   28.3510   32.3050 C   0  0  0  0  0  0  0  0  0  0  0  0
   35.3910   31.7950   32.8420 N   0  0  0  0  0  0  0  0  0  0  0  0
   40.6511   22.2748   38.4134 H   0  0  0  0  0  0  0  0  0  0  0  0
   39.0896   23.6803   39.8303 H   0  0  0  0  0  0  0  0  0  0  0  0
   37.1411   24.8279   38.6750 H   0  0  0  0  0  0  0  0  0  0  0  0
   39.0911   21.0415   34.2019 H   0  0  0  0  0  0  0  0  0  0  0  0
   37.5378   23.9795   30.4041 H   0  0  0  0  0  0  0  0  0  0  0  0
   36.4281   27.4145   35.4382 H   0  0  0  0  0  0  0  0  0  0  0  0
   36.5484   29.4603   29.1522 H   0  0  0  0  0  0  0  0  0  0  0  0
   35.2029   32.6268   32.2643 H   0  0  0  0  0  0  0  0  0  0  0  0
   35.2585   31.8361   33.8626 H   0  0  0  0  0  0  0  0  0  0  0  0
  1  2  2  0
  3  2  1  0
  4  3  2  0
  5  6  2  0
  5  4  1  0
  6  1  1  0
  7  5  1  0
  8  7  1  0
  9  8  2  0
 10  9  1  0
 10 15  2  0
 11 12  2  0
 11 10  1  0
 12 13  1  0
 13 16  1  0
 13 14  2  0
 15 14  1  0
 15  7  1  0
 16 17  1  0
 18 17  2  0
 19 18  1  0
 20 25  1  0
 20 19  2  0
 21 20  1  0
 22 21  2  0
 22 23  1  0
 23 24  2  0
 24 19  1  0
 24 16  1  0
  1 26  1  0
  2 27  1  0
  3 28  1  0
  8 29  1  0
 11 30  1  0
 17 31  1  0
 22 32  1  0
 25 33  1  0
 25 34  1  0
M  ISO  7  26  14  27  14  28  14  29  14  30  14  31  14  32  14
M  END
>  <minimizedAffinity>  (1) 
-6.34336472

>  <minimizedRMSD>  (1) 
2.53899384

$$$$
