
     RDKit          3D

 32 36  0  0  0  0  0  0  0  0999 V2000
   39.7800   22.8230   37.9610 C   0  0  0  0  0  0  0  0  0  0  0  0
   38.9500   23.6460   38.7500 C   0  0  0  0  0  0  0  0  0  0  0  0
   37.8820   24.2630   38.0930 C   0  0  0  0  0  0  0  0  0  0  0  0
   37.6870   24.0560   36.7600 N   0  0  0  0  0  0  0  0  0  0  0  0
   38.5150   23.2570   36.0530 C   0  0  0  0  0  0  0  0  0  0  0  0
   39.5410   22.6570   36.6610 N   0  0  0  0  0  0  0  0  0  0  0  0
   38.3460   23.0150   34.6590 N   0  0  0  0  0  0  0  0  0  0  0  0
   38.5690   21.9000   33.9230 C   0  0  0  0  0  0  0  0  0  0  0  0
   38.2530   22.1870   32.6450 N   0  0  0  0  0  0  0  0  0  0  0  0
   37.8310   23.4640   32.5390 C   0  0  0  0  0  0  0  0  0  0  0  0
   37.4060   24.1920   31.4360 C   0  0  0  0  0  0  0  0  0  0  0  0
   37.0490   25.4580   31.6870 N   0  0  0  0  0  0  0  0  0  0  0  0
   37.1090   25.9670   32.9350 C   0  0  0  0  0  0  0  0  0  0  0  0
   37.5200   25.2710   34.0170 N   0  0  0  0  0  0  0  0  0  0  0  0
   37.8930   23.9790   33.8180 C   0  0  0  0  0  0  0  0  0  0  0  0
   36.6890   27.3330   33.0080 N   0  0  0  0  0  0  0  0  0  0  0  0
   36.2200   28.0080   34.0840 C   0  0  0  0  0  0  0  0  0  0  0  0
   35.9340   29.2850   33.7310 N   0  0  0  0  0  0  0  0  0  0  0  0
   36.2100   29.4640   32.4280 C   0  0  0  0  0  0  0  0  0  0  0  0
   36.1560   30.4700   31.4700 C   0  0  0  0  0  0  0  0  0  0  0  0
   36.5350   30.2760   30.1960 N   0  0  0  0  0  0  0  0  0  0  0  0
   36.9860   29.0670   29.8120 C   0  0  0  0  0  0  0  0  0  0  0  0
   37.0610   28.0500   30.6980 N   0  0  0  0  0  0  0  0  0  0  0  0
   36.6790   28.2410   31.9910 C   0  0  0  0  0  0  0  0  0  0  0  0
   40.6360   22.3114   38.4251 H   0  0  0  0  0  0  0  0  0  0  0  0
   39.1333   23.7943   39.8244 H   0  0  0  0  0  0  0  0  0  0  0  0
   37.1973   24.9171   38.6528 H   0  0  0  0  0  0  0  0  0  0  0  0
   38.9405   20.9357   34.3000 H   0  0  0  0  0  0  0  0  0  0  0  0
   37.3653   23.7588   30.4257 H   0  0  0  0  0  0  0  0  0  0  0  0
   36.0908   27.5846   35.0910 H   0  0  0  0  0  0  0  0  0  0  0  0
   35.7886   31.4635   31.7668 H   0  0  0  0  0  0  0  0  0  0  0  0
   37.2958   28.9061   28.7689 H   0  0  0  0  0  0  0  0  0  0  0  0
  1  2  2  0
  3  2  1  0
  4  3  2  0
  5  6  2  0
  5  4  1  0
  6  1  1  0
  7  5  1  0
  8  7  1  0
  9  8  2  0
 10  9  1  0
 10 15  2  0
 11 12  2  0
 11 10  1  0
 12 13  1  0
 13 16  1  0
 13 14  2  0
 15 14  1  0
 15  7  1  0
 16 17  1  0
 18 17  2  0
 19 18  1  0
 20 19  2  0
 21 20  1  0
 22 21  2  0
 22 23  1  0
 23 24  2  0
 24 19  1  0
 24 16  1  0
  1 25  1  0
  2 26  1  0
  3 27  1  0
  8 28  1  0
 11 29  1  0
 17 30  1  0
 20 31  1  0
 22 32  1  0
M  ISO  8  25  14  26  14  27  14  28  14  29  14  30  14  31  14  32  14
M  END
>  <minimizedAffinity>  (1) 
-6.20934677

>  <minimizedRMSD>  (1) 
2.62147164

$$$$
