
     RDKit          3D

 34 37  0  0  0  0  0  0  0  0999 V2000
   39.7660   22.7610   37.9450 C   0  0  0  0  0  0  0  0  0  0  0  0
   38.9090   23.6040   38.6970 C   0  0  0  0  0  0  0  0  0  0  0  0
   37.8740   24.2490   37.9980 C   0  0  0  0  0  0  0  0  0  0  0  0
   37.7490   24.0370   36.6590 N   0  0  0  0  0  0  0  0  0  0  0  0
   38.5830   23.2320   35.9870 C   0  0  0  0  0  0  0  0  0  0  0  0
   39.5720   22.6110   36.6380 N   0  0  0  0  0  0  0  0  0  0  0  0
   38.4760   22.9920   34.5920 N   0  0  0  0  0  0  0  0  0  0  0  0
   38.7370   21.8780   33.8610 C   0  0  0  0  0  0  0  0  0  0  0  0
   38.4730   22.1660   32.5730 N   0  0  0  0  0  0  0  0  0  0  0  0
   38.0460   23.4440   32.4480 C   0  0  0  0  0  0  0  0  0  0  0  0
   37.6630   24.1730   31.3320 C   0  0  0  0  0  0  0  0  0  0  0  0
   37.2840   25.4510   31.5780 N   0  0  0  0  0  0  0  0  0  0  0  0
   37.2950   25.9280   32.8200 C   0  0  0  0  0  0  0  0  0  0  0  0
   37.6650   25.2320   33.9230 N   0  0  0  0  0  0  0  0  0  0  0  0
   38.0540   23.9420   33.7250 C   0  0  0  0  0  0  0  0  0  0  0  0
   36.8610   27.2990   32.8740 N   0  0  0  0  0  0  0  0  0  0  0  0
   36.8510   27.8930   31.6630 C   0  0  0  0  0  0  0  0  0  0  0  0
   36.4540   29.2250   31.5460 C   0  0  0  0  0  0  0  0  0  0  0  0
   36.4340   29.9020   30.2240 C   0  0  0  0  0  0  0  0  0  0  0  0
   36.0880   29.8570   32.7100 C   0  0  0  0  0  0  0  0  0  0  0  0
   35.7250   31.0630   32.6250 O   0  0  0  0  0  0  0  0  0  0  0  0
   36.1210   29.2150   33.8690 N   0  0  0  0  0  0  0  0  0  0  0  0
   36.5010   27.9280   33.9990 C   0  0  0  0  0  0  0  0  0  0  0  0
   36.5430   27.2980   35.0780 O   0  0  0  0  0  0  0  0  0  0  0  0
   40.5914   22.2310   38.4428 H   0  0  0  0  0  0  0  0  0  0  0  0
   39.0479   23.7468   39.7788 H   0  0  0  0  0  0  0  0  0  0  0  0
   37.1753   24.9153   38.5251 H   0  0  0  0  0  0  0  0  0  0  0  0
   39.0986   20.9150   34.2507 H   0  0  0  0  0  0  0  0  0  0  0  0
   37.6665   23.7444   30.3189 H   0  0  0  0  0  0  0  0  0  0  0  0
   37.1553   27.3281   30.7695 H   0  0  0  0  0  0  0  0  0  0  0  0
   36.4018   30.9917   30.3706 H   0  0  0  0  0  0  0  0  0  0  0  0
   37.3404   29.6343   29.6612 H   0  0  0  0  0  0  0  0  0  0  0  0
   35.5449   29.5813   29.6612 H   0  0  0  0  0  0  0  0  0  0  0  0
   35.8408   29.7276   34.7173 H   0  0  0  0  0  0  0  0  0  0  0  0
  1  2  2  0
  3  2  1  0
  4  3  2  0
  5  6  2  0
  5  4  1  0
  6  1  1  0
  7  5  1  0
  8  7  1  0
  9  8  2  0
 10  9  1  0
 10 15  2  0
 11 12  2  0
 11 10  1  0
 12 13  1  0
 13 16  1  0
 13 14  2  0
 15 14  1  0
 15  7  1  0
 16 23  1  0
 17 16  1  0
 18 17  2  0
 18 20  1  0
 19 18  1  0
 20 22  1  0
 21 20  2  0
 22 23  1  0
 23 24  2  0
  1 25  1  0
  2 26  1  0
  3 27  1  0
  8 28  1  0
 11 29  1  0
 17 30  1  0
 19 31  1  0
 19 32  1  0
 19 33  1  0
 22 34  1  0
M  ISO  8  25  14  26  14  27  14  28  14  29  14  30  14  31   8  32   8
M  ISO  2  33   8  34   9
M  END
>  <minimizedAffinity>  (1) 
-6.13645172

>  <minimizedRMSD>  (1) 
2.60556722

$$$$
