
     RDKit          3D

 31 34  0  0  0  0  0  0  0  0999 V2000
   39.9780   22.5760   37.5500 C   0  0  0  0  0  0  0  0  0  0  0  0
   39.1500   23.3300   38.4050 C   0  0  0  0  0  0  0  0  0  0  0  0
   38.0450   23.9530   37.8480 C   0  0  0  0  0  0  0  0  0  0  0  0
   37.7970   23.8190   36.5130 N   0  0  0  0  0  0  0  0  0  0  0  0
   38.6170   23.0870   35.7300 C   0  0  0  0  0  0  0  0  0  0  0  0
   39.7030   22.4670   36.2390 N   0  0  0  0  0  0  0  0  0  0  0  0
   38.4050   22.9120   34.3220 N   0  0  0  0  0  0  0  0  0  0  0  0
   38.6290   21.8640   33.5060 C   0  0  0  0  0  0  0  0  0  0  0  0
   38.2560   22.2220   32.2690 N   0  0  0  0  0  0  0  0  0  0  0  0
   37.7910   23.4790   32.2550 C   0  0  0  0  0  0  0  0  0  0  0  0
   37.2970   24.2760   31.2230 C   0  0  0  0  0  0  0  0  0  0  0  0
   36.9110   25.5150   31.5690 N   0  0  0  0  0  0  0  0  0  0  0  0
   37.0080   25.9250   32.8360 C   0  0  0  0  0  0  0  0  0  0  0  0
   37.4810   25.1850   33.8640 N   0  0  0  0  0  0  0  0  0  0  0  0
   37.8900   23.9110   33.5630 C   0  0  0  0  0  0  0  0  0  0  0  0
   36.5770   27.2630   33.1370 N   0  0  0  0  0  0  0  0  0  0  0  0
   36.4450   27.8850   34.3080 C   0  0  0  0  0  0  0  0  0  0  0  0
   36.0100   29.1780   34.3420 C   0  0  0  0  0  0  0  0  0  0  0  0
   35.6960   29.8760   33.1740 C   0  0  0  0  0  0  0  0  0  0  0  0
   35.2990   31.0610   33.2300 O   0  0  0  0  0  0  0  0  0  0  0  0
   35.8440   29.2040   32.0080 N   0  0  0  0  0  0  0  0  0  0  0  0
   36.2760   27.9220   31.9790 C   0  0  0  0  0  0  0  0  0  0  0  0
   36.3490   27.4740   30.8080 O   0  0  0  0  0  0  0  0  0  0  0  0
   40.8630   22.0688   37.9618 H   0  0  0  0  0  0  0  0  0  0  0  0
   39.3733   23.4209   39.4783 H   0  0  0  0  0  0  0  0  0  0  0  0
   37.3715   24.5522   38.4784 H   0  0  0  0  0  0  0  0  0  0  0  0
   39.0437   20.8890   33.8016 H   0  0  0  0  0  0  0  0  0  0  0  0
   37.2276   23.9117   30.1874 H   0  0  0  0  0  0  0  0  0  0  0  0
   36.6857   27.3584   35.2433 H   0  0  0  0  0  0  0  0  0  0  0  0
   35.9041   29.6829   35.3135 H   0  0  0  0  0  0  0  0  0  0  0  0
   35.6225   29.6800   31.1219 H   0  0  0  0  0  0  0  0  0  0  0  0
  1  2  2  0
  3  2  1  0
  4  3  2  0
  5  6  2  0
  5  4  1  0
  6  1  1  0
  7  5  1  0
  8  7  1  0
  9  8  2  0
 10  9  1  0
 10 15  2  0
 11 12  2  0
 11 10  1  0
 12 13  1  0
 13 16  1  0
 13 14  2  0
 15 14  1  0
 15  7  1  0
 16 17  1  0
 17 18  2  0
 19 20  2  0
 19 18  1  0
 21 19  1  0
 22 21  1  0
 22 16  1  0
 23 22  2  0
  1 24  1  0
  2 25  1  0
  3 26  1  0
  8 27  1  0
 11 28  1  0
 17 29  1  0
 18 30  1  0
 21 31  1  0
M  ISO  8  24  14  25  14  26  14  27  14  28  14  29  14  30  14  31   9
M  END
>  <minimizedAffinity>  (1) 
-6.08784294

>  <minimizedRMSD>  (1) 
2.43133259

$$$$
