
     RDKit          3D

 34 37  0  0  0  0  0  0  0  0999 V2000
   39.8050   22.7690   37.8190 C   0  0  0  0  0  0  0  0  0  0  0  0
   38.8360   23.4640   38.5760 C   0  0  0  0  0  0  0  0  0  0  0  0
   37.7690   24.0290   37.8930 C   0  0  0  0  0  0  0  0  0  0  0  0
   37.7010   23.8900   36.5340 N   0  0  0  0  0  0  0  0  0  0  0  0
   38.6380   23.2240   35.8460 C   0  0  0  0  0  0  0  0  0  0  0  0
   39.6760   22.6720   36.4950 N   0  0  0  0  0  0  0  0  0  0  0  0
   38.6130   23.0520   34.4340 N   0  0  0  0  0  0  0  0  0  0  0  0
   38.9960   22.0290   33.6450 C   0  0  0  0  0  0  0  0  0  0  0  0
   38.7570   22.3770   32.3670 N   0  0  0  0  0  0  0  0  0  0  0  0
   38.2200   23.6150   32.3030 C   0  0  0  0  0  0  0  0  0  0  0  0
   37.8130   24.3830   31.2270 C   0  0  0  0  0  0  0  0  0  0  0  0
   37.3160   25.5890   31.5260 N   0  0  0  0  0  0  0  0  0  0  0  0
   37.2300   25.9980   32.8020 C   0  0  0  0  0  0  0  0  0  0  0  0
   37.6200   25.2640   33.8670 N   0  0  0  0  0  0  0  0  0  0  0  0
   38.1330   24.0340   33.6160 C   0  0  0  0  0  0  0  0  0  0  0  0
   35.6120   29.8850   33.5650 C   0  0  0  0  0  0  0  0  0  0  0  0
   35.6760   29.3720   32.2870 C   0  0  0  0  0  0  0  0  0  0  0  0
   36.1970   28.1250   32.0580 C   0  0  0  0  0  0  0  0  0  0  0  0
   36.6740   27.3370   33.0720 C   0  0  0  0  0  0  0  0  0  0  0  0
   36.6110   27.8530   34.3680 C   0  0  0  0  0  0  0  0  0  0  0  0
   36.0820   29.1110   34.5780 C   0  0  0  0  0  0  0  0  0  0  0  0
   34.9680   31.4620   33.9730 S   0  0  0  0  0  0  0  0  0  0  0  0
   33.5680   31.5970   33.4890 O   0  0  0  0  0  0  0  0  0  0  0  0
   34.9650   31.6320   35.4670 O   0  0  0  0  0  0  0  0  0  0  0  0
   40.6673   22.3071   38.3221 H   0  0  0  0  0  0  0  0  0  0  0  0
   38.9244   23.5541   39.6687 H   0  0  0  0  0  0  0  0  0  0  0  0
   36.9884   24.5812   38.4368 H   0  0  0  0  0  0  0  0  0  0  0  0
   39.4282   21.0765   33.9857 H   0  0  0  0  0  0  0  0  0  0  0  0
   37.8929   24.0247   30.1901 H   0  0  0  0  0  0  0  0  0  0  0  0
   35.3048   29.9700   31.4417 H   0  0  0  0  0  0  0  0  0  0  0  0
   36.2333   27.7447   31.0265 H   0  0  0  0  0  0  0  0  0  0  0  0
   36.9810   27.2602   35.2175 H   0  0  0  0  0  0  0  0  0  0  0  0
   36.0394   29.5018   35.6054 H   0  0  0  0  0  0  0  0  0  0  0  0
   35.7542   32.4134   33.3784 H   0  0  0  0  0  0  0  0  0  0  0  0
  1  2  2  0
  3  2  1  0
  4  3  2  0
  5  6  2  0
  5  4  1  0
  6  1  1  0
  7  5  1  0
  8  7  1  0
  9  8  2  0
 10  9  1  0
 10 15  2  0
 11 12  2  0
 11 10  1  0
 12 13  1  0
 13 19  1  0
 13 14  2  0
 15 14  1  0
 15  7  1  0
 16 22  1  0
 16 21  2  0
 17 16  1  0
 18 17  2  0
 18 19  1  0
 19 20  2  0
 20 21  1  0
 22 24  2  0
 23 22  2  0
  1 25  1  0
  2 26  1  0
  3 27  1  0
  8 28  1  0
 11 29  1  0
 17 30  1  0
 18 31  1  0
 20 32  1  0
 21 33  1  0
 22 34  1  0
M  ISO  8  25  14  26  14  27  14  28  14  29  14  30  14  31  14  32  14
M  ISO  2  33  14  34  11
M  END
>  <minimizedAffinity>  (1) 
-5.79643917

>  <minimizedRMSD>  (1) 
2.66011786

$$$$
