
     RDKit          3D

 34 37  0  0  0  0  0  0  0  0999 V2000
   39.7590   22.2760   36.9960 C   0  0  0  0  0  0  0  0  0  0  0  0
   39.2920   23.2630   37.8710 C   0  0  0  0  0  0  0  0  0  0  0  0
   38.3160   24.1190   37.3840 C   0  0  0  0  0  0  0  0  0  0  0  0
   37.8720   23.9590   36.1090 N   0  0  0  0  0  0  0  0  0  0  0  0
   38.3430   22.9980   35.2930 C   0  0  0  0  0  0  0  0  0  0  0  0
   39.2850   22.1670   35.7550 N   0  0  0  0  0  0  0  0  0  0  0  0
   37.8960   22.8120   33.9610 N   0  0  0  0  0  0  0  0  0  0  0  0
   37.7460   21.6850   33.2270 C   0  0  0  0  0  0  0  0  0  0  0  0
   37.2910   22.0420   32.0170 N   0  0  0  0  0  0  0  0  0  0  0  0
   37.1390   23.3820   31.9440 C   0  0  0  0  0  0  0  0  0  0  0  0
   36.7020   24.1960   30.9080 C   0  0  0  0  0  0  0  0  0  0  0  0
   36.6740   25.5070   31.1810 N   0  0  0  0  0  0  0  0  0  0  0  0
   37.0490   25.9770   32.3850 C   0  0  0  0  0  0  0  0  0  0  0  0
   37.4740   25.1910   33.3930 N   0  0  0  0  0  0  0  0  0  0  0  0
   37.5260   23.8490   33.1780 C   0  0  0  0  0  0  0  0  0  0  0  0
   36.9920   27.3900   32.6030 N   0  0  0  0  0  0  0  0  0  0  0  0
   37.4940   28.3130   31.6050 C   0  0  0  0  0  0  0  0  0  0  0  0
   36.3400   29.1930   31.2110 C   0  0  0  0  0  0  0  0  0  0  0  0
   35.6030   29.8230   32.3270 C   0  0  0  0  0  0  0  0  0  0  0  0
   35.7150   29.2240   33.6630 C   0  0  0  0  0  0  0  0  0  0  0  0
   36.4330   27.9400   33.8220 C   0  0  0  0  0  0  0  0  0  0  0  0
   40.5339   21.5750   37.3397 H   0  0  0  0  0  0  0  0  0  0  0  0
   39.6805   23.3554   38.8960 H   0  0  0  0  0  0  0  0  0  0  0  0
   37.9064   24.9170   38.0208 H   0  0  0  0  0  0  0  0  0  0  0  0
   37.9592   20.6594   33.5628 H   0  0  0  0  0  0  0  0  0  0  0  0
   36.3996   23.7923   29.9305 H   0  0  0  0  0  0  0  0  0  0  0  0
   38.3079   28.9212   32.0264 H   0  0  0  0  0  0  0  0  0  0  0  0
   37.8960   27.7742   30.7343 H   0  0  0  0  0  0  0  0  0  0  0  0
   36.7312   29.9958   30.5687 H   0  0  0  0  0  0  0  0  0  0  0  0
   35.6172   28.5324   30.7098 H   0  0  0  0  0  0  0  0  0  0  0  0
   35.9568   30.8616   32.4054 H   0  0  0  0  0  0  0  0  0  0  0  0
   34.5439   29.6929   32.0598 H   0  0  0  0  0  0  0  0  0  0  0  0
   35.2701   29.7242   34.5358 H   0  0  0  0  0  0  0  0  0  0  0  0
   36.5352   27.4387   34.7958 H   0  0  0  0  0  0  0  0  0  0  0  0
  1  2  2  0
  3  2  1  0
  4  3  2  0
  5  6  2  0
  5  4  1  0
  6  1  1  0
  7  5  1  0
  8  7  1  0
  9  8  2  0
 10  9  1  0
 10 15  2  0
 11 12  2  0
 11 10  1  0
 12 13  1  0
 13 16  1  0
 13 14  2  0
 15 14  1  0
 15  7  1  0
 16 21  1  0
 17 16  1  0
 18 17  1  0
 18 19  1  0
 19 20  1  0
 20 21  2  0
  1 22  1  0
  2 23  1  0
  3 24  1  0
  8 25  1  0
 11 26  1  0
 17 27  1  0
 17 28  1  0
 18 29  1  0
 18 30  1  0
 19 31  1  0
 19 32  1  0
 20 33  1  0
 21 34  1  0
M  ISO  8  22  14  23  14  24  14  25  14  26  14  27  13  28  13  29  13
M  ISO  5  30  13  31  13  32  13  33  13  34  13
M  END
>  <minimizedAffinity>  (1) 
-5.69527435

>  <minimizedRMSD>  (1) 
2.5797112

$$$$
