
     RDKit          3D

 31 34  0  0  0  0  0  0  0  0999 V2000
   39.7800   22.7610   37.8020 C   0  0  0  0  0  0  0  0  0  0  0  0
   38.8590   23.5020   38.5750 C   0  0  0  0  0  0  0  0  0  0  0  0
   37.7960   24.0740   37.8920 C   0  0  0  0  0  0  0  0  0  0  0  0
   37.6900   23.9040   36.5510 N   0  0  0  0  0  0  0  0  0  0  0  0
   38.5830   23.1940   35.8470 C   0  0  0  0  0  0  0  0  0  0  0  0
   39.6150   22.6340   36.4850 N   0  0  0  0  0  0  0  0  0  0  0  0
   38.5060   22.9910   34.4370 N   0  0  0  0  0  0  0  0  0  0  0  0
   38.8370   21.9400   33.6670 C   0  0  0  0  0  0  0  0  0  0  0  0
   38.5680   22.2610   32.3870 N   0  0  0  0  0  0  0  0  0  0  0  0
   38.0630   23.5130   32.3120 C   0  0  0  0  0  0  0  0  0  0  0  0
   37.6380   24.2800   31.2280 C   0  0  0  0  0  0  0  0  0  0  0  0
   37.1840   25.5100   31.5240 N   0  0  0  0  0  0  0  0  0  0  0  0
   37.1520   25.9440   32.7830 C   0  0  0  0  0  0  0  0  0  0  0  0
   37.5630   25.2070   33.8430 N   0  0  0  0  0  0  0  0  0  0  0  0
   38.0320   23.9580   33.6100 C   0  0  0  0  0  0  0  0  0  0  0  0
   36.6500   27.2920   33.0650 C   0  0  0  0  0  0  0  0  0  0  0  0
   36.1910   28.1020   32.0390 C   0  0  0  0  0  0  0  0  0  0  0  0
   35.7020   29.3830   32.2220 C   0  0  0  0  0  0  0  0  0  0  0  0
   35.6800   29.8640   33.5240 C   0  0  0  0  0  0  0  0  0  0  0  0
   36.1280   29.0890   34.5740 C   0  0  0  0  0  0  0  0  0  0  0  0
   36.6130   27.8110   34.3660 C   0  0  0  0  0  0  0  0  0  0  0  0
   40.6420   22.2839   38.2913 H   0  0  0  0  0  0  0  0  0  0  0  0
   38.9786   23.6193   39.6622 H   0  0  0  0  0  0  0  0  0  0  0  0
   37.0425   24.6628   38.4357 H   0  0  0  0  0  0  0  0  0  0  0  0
   39.2543   20.9855   34.0203 H   0  0  0  0  0  0  0  0  0  0  0  0
   37.6721   23.9023   30.1955 H   0  0  0  0  0  0  0  0  0  0  0  0
   36.2170   27.7014   31.0149 H   0  0  0  0  0  0  0  0  0  0  0  0
   35.3477   29.9911   31.3766 H   0  0  0  0  0  0  0  0  0  0  0  0
   35.3001   30.8773   33.7214 H   0  0  0  0  0  0  0  0  0  0  0  0
   36.0988   29.4955   35.5957 H   0  0  0  0  0  0  0  0  0  0  0  0
   36.9667   27.2069   35.2145 H   0  0  0  0  0  0  0  0  0  0  0  0
  1  2  2  0
  3  2  1  0
  4  3  2  0
  5  6  2  0
  5  4  1  0
  6  1  1  0
  7  5  1  0
  8  7  1  0
  9  8  2  0
 10  9  1  0
 10 15  2  0
 11 12  2  0
 11 10  1  0
 12 13  1  0
 13 16  1  0
 13 14  2  0
 15 14  1  0
 15  7  1  0
 16 21  2  0
 17 18  2  0
 17 16  1  0
 18 19  1  0
 19 20  2  0
 21 20  1  0
  1 22  1  0
  2 23  1  0
  3 24  1  0
  8 25  1  0
 11 26  1  0
 17 27  1  0
 18 28  1  0
 19 29  1  0
 20 30  1  0
 21 31  1  0
M  ISO  8  22  14  23  14  24  14  25  14  26  14  27  14  28  14  29  14
M  ISO  2  30  14  31  14
M  END
>  <minimizedAffinity>  (1) 
-5.69406271

>  <minimizedRMSD>  (1) 
2.43924022

$$$$
