
     RDKit          3D

 29 32  0  0  0  0  0  0  0  0999 V2000
   39.9030   22.6670   37.6910 C   0  0  0  0  0  0  0  0  0  0  0  0
   38.9210   23.3820   38.4260 C   0  0  0  0  0  0  0  0  0  0  0  0
   37.8380   23.8890   37.7230 C   0  0  0  0  0  0  0  0  0  0  0  0
   37.7750   23.6780   36.3830 N   0  0  0  0  0  0  0  0  0  0  0  0
   38.7170   22.9970   35.7040 C   0  0  0  0  0  0  0  0  0  0  0  0
   39.7600   22.5070   36.3770 N   0  0  0  0  0  0  0  0  0  0  0  0
   38.6670   22.7670   34.3100 N   0  0  0  0  0  0  0  0  0  0  0  0
   39.0780   21.7000   33.5750 C   0  0  0  0  0  0  0  0  0  0  0  0
   38.8010   21.9760   32.2850 N   0  0  0  0  0  0  0  0  0  0  0  0
   38.2200   23.1970   32.1670 C   0  0  0  0  0  0  0  0  0  0  0  0
   37.7760   23.8820   31.0520 C   0  0  0  0  0  0  0  0  0  0  0  0
   37.2470   25.0880   31.2980 N   0  0  0  0  0  0  0  0  0  0  0  0
   37.1720   25.5610   32.5460 C   0  0  0  0  0  0  0  0  0  0  0  0
   37.6030   24.8970   33.6430 N   0  0  0  0  0  0  0  0  0  0  0  0
   38.1470   23.6730   33.4550 C   0  0  0  0  0  0  0  0  0  0  0  0
   36.5850   26.8920   32.7860 C   0  0  0  0  0  0  0  0  0  0  0  0
   36.7530   27.5070   34.0090 C   0  0  0  0  0  0  0  0  0  0  0  0
   36.2510   28.7520   34.3540 C   0  0  0  0  0  0  0  0  0  0  0  0
   35.5450   29.3560   33.3550 N   0  0  0  0  0  0  0  0  0  0  0  0
   35.3690   28.7710   32.1530 C   0  0  0  0  0  0  0  0  0  0  0  0
   35.8740   27.5590   31.8560 N   0  0  0  0  0  0  0  0  0  0  0  0
   40.7795   22.2464   38.2057 H   0  0  0  0  0  0  0  0  0  0  0  0
   39.0154   23.5284   39.5121 H   0  0  0  0  0  0  0  0  0  0  0  0
   37.0463   24.4506   38.2405 H   0  0  0  0  0  0  0  0  0  0  0  0
   39.5483   20.7834   33.9605 H   0  0  0  0  0  0  0  0  0  0  0  0
   37.8515   23.4671   30.0360 H   0  0  0  0  0  0  0  0  0  0  0  0
   37.3319   26.9659   34.7719 H   0  0  0  0  0  0  0  0  0  0  0  0
   36.4073   29.2105   35.3416 H   0  0  0  0  0  0  0  0  0  0  0  0
   34.7901   29.3050   31.3850 H   0  0  0  0  0  0  0  0  0  0  0  0
  1  2  2  0
  3  2  1  0
  4  3  2  0
  5  6  2  0
  5  4  1  0
  6  1  1  0
  7  5  1  0
  8  7  1  0
  9  8  2  0
 10  9  1  0
 10 15  2  0
 11 12  2  0
 11 10  1  0
 12 13  1  0
 13 16  1  0
 13 14  2  0
 15 14  1  0
 15  7  1  0
 16 17  2  0
 17 18  1  0
 19 18  2  0
 20 19  1  0
 21 20  2  0
 21 16  1  0
  1 22  1  0
  2 23  1  0
  3 24  1  0
  8 25  1  0
 11 26  1  0
 17 27  1  0
 18 28  1  0
 20 29  1  0
M  ISO  8  22  14  23  14  24  14  25  14  26  14  27  14  28  14  29  14
M  END
>  <minimizedAffinity>  (1) 
-5.36735392

>  <minimizedRMSD>  (1) 
2.76869869

$$$$
