
     RDKit          3D

 29 32  0  0  0  0  0  0  0  0999 V2000
   39.8940   22.6540   37.6710 C   0  0  0  0  0  0  0  0  0  0  0  0
   38.9540   23.3740   38.4270 C   0  0  0  0  0  0  0  0  0  0  0  0
   37.8710   23.9060   37.7380 C   0  0  0  0  0  0  0  0  0  0  0  0
   37.7720   23.7110   36.3960 N   0  0  0  0  0  0  0  0  0  0  0  0
   38.6940   23.0150   35.7140 C   0  0  0  0  0  0  0  0  0  0  0  0
   39.7590   22.4830   36.3540 N   0  0  0  0  0  0  0  0  0  0  0  0
   38.6350   22.7820   34.3030 N   0  0  0  0  0  0  0  0  0  0  0  0
   39.0180   21.7360   33.5490 C   0  0  0  0  0  0  0  0  0  0  0  0
   38.7400   22.0240   32.2740 N   0  0  0  0  0  0  0  0  0  0  0  0
   38.1750   23.2510   32.1690 C   0  0  0  0  0  0  0  0  0  0  0  0
   37.7200   23.9780   31.0670 C   0  0  0  0  0  0  0  0  0  0  0  0
   37.2080   25.1840   31.3390 N   0  0  0  0  0  0  0  0  0  0  0  0
   37.1480   25.6440   32.5970 C   0  0  0  0  0  0  0  0  0  0  0  0
   37.5880   24.9440   33.6710 N   0  0  0  0  0  0  0  0  0  0  0  0
   38.1160   23.7160   33.4620 C   0  0  0  0  0  0  0  0  0  0  0  0
   36.5830   26.9640   32.8600 C   0  0  0  0  0  0  0  0  0  0  0  0
   36.7420   27.5640   34.0990 C   0  0  0  0  0  0  0  0  0  0  0  0
   36.2030   28.8150   34.3390 C   0  0  0  0  0  0  0  0  0  0  0  0
   35.5310   29.4390   33.3750 N   0  0  0  0  0  0  0  0  0  0  0  0
   35.3570   28.8790   32.1490 C   0  0  0  0  0  0  0  0  0  0  0  0
   35.8860   27.6620   31.9270 N   0  0  0  0  0  0  0  0  0  0  0  0
   40.7669   22.2184   38.1792 H   0  0  0  0  0  0  0  0  0  0  0  0
   39.0698   23.5101   39.5124 H   0  0  0  0  0  0  0  0  0  0  0  0
   37.1004   24.4799   38.2736 H   0  0  0  0  0  0  0  0  0  0  0  0
   39.4787   20.8074   33.9170 H   0  0  0  0  0  0  0  0  0  0  0  0
   37.7787   23.5846   30.0414 H   0  0  0  0  0  0  0  0  0  0  0  0
   37.2980   27.0443   34.8932 H   0  0  0  0  0  0  0  0  0  0  0  0
   36.3293   29.2918   35.3222 H   0  0  0  0  0  0  0  0  0  0  0  0
   34.7995   29.4058   31.3605 H   0  0  0  0  0  0  0  0  0  0  0  0
  1  2  2  0
  3  2  1  0
  4  3  2  0
  5  6  2  0
  5  4  1  0
  6  1  1  0
  7  5  1  0
  8  7  1  0
  9  8  2  0
 10  9  1  0
 10 15  2  0
 11 12  2  0
 11 10  1  0
 12 13  1  0
 13 16  1  0
 13 14  2  0
 15 14  1  0
 15  7  1  0
 16 17  2  0
 17 18  1  0
 19 18  2  0
 20 19  1  0
 21 20  2  0
 21 16  1  0
  1 22  1  0
  2 23  1  0
  3 24  1  0
  8 25  1  0
 11 26  1  0
 17 27  1  0
 18 28  1  0
 20 29  1  0
M  ISO  8  22  14  23  14  24  14  25  14  26  14  27  14  28  14  29  14
M  END
>  <minimizedAffinity>  (1) 
-5.36680603

>  <minimizedRMSD>  (1) 
2.75299811

$$$$
