
     RDKit          3D

 26 29  0  0  0  0  0  0  0  0999 V2000
   39.8040   22.7800   37.8280 C   0  0  0  0  0  0  0  0  0  0  0  0
   38.9040   23.4770   38.6510 C   0  0  0  0  0  0  0  0  0  0  0  0
   37.8360   24.0930   38.0140 C   0  0  0  0  0  0  0  0  0  0  0  0
   37.7080   24.0000   36.6610 N   0  0  0  0  0  0  0  0  0  0  0  0
   38.5910   23.3240   35.9090 C   0  0  0  0  0  0  0  0  0  0  0  0
   39.6340   22.7190   36.5050 N   0  0  0  0  0  0  0  0  0  0  0  0
   38.4890   23.2060   34.5000 N   0  0  0  0  0  0  0  0  0  0  0  0
   38.8130   22.1900   33.6680 C   0  0  0  0  0  0  0  0  0  0  0  0
   38.5180   22.5880   32.4170 N   0  0  0  0  0  0  0  0  0  0  0  0
   38.0150   23.8280   32.4070 C   0  0  0  0  0  0  0  0  0  0  0  0
   37.5750   24.6450   31.3740 C   0  0  0  0  0  0  0  0  0  0  0  0
   37.1240   25.8540   31.7320 N   0  0  0  0  0  0  0  0  0  0  0  0
   37.1070   26.2340   33.0260 C   0  0  0  0  0  0  0  0  0  0  0  0
   37.5310   25.4540   34.0460 N   0  0  0  0  0  0  0  0  0  0  0  0
   38.0020   24.2070   33.7290 C   0  0  0  0  0  0  0  0  0  0  0  0
   36.5990   27.5650   33.3200 C   0  0  0  0  0  0  0  0  0  0  0  0
   36.4460   28.1610   34.5100 N   0  0  0  0  0  0  0  0  0  0  0  0
   35.9540   29.3760   34.3560 O   0  0  0  0  0  0  0  0  0  0  0  0
   35.7750   29.5910   33.0570 C   0  0  0  0  0  0  0  0  0  0  0  0
   36.1740   28.4750   32.4240 N   0  0  0  0  0  0  0  0  0  0  0  0
   40.6677   22.2734   38.2834 H   0  0  0  0  0  0  0  0  0  0  0  0
   39.0385   23.5316   39.7414 H   0  0  0  0  0  0  0  0  0  0  0  0
   37.0944   24.6552   38.6004 H   0  0  0  0  0  0  0  0  0  0  0  0
   39.2387   21.2186   33.9599 H   0  0  0  0  0  0  0  0  0  0  0  0
   37.5957   24.3184   30.3238 H   0  0  0  0  0  0  0  0  0  0  0  0
   35.3776   30.5046   32.5907 H   0  0  0  0  0  0  0  0  0  0  0  0
  1  2  2  0
  3  2  1  0
  4  3  2  0
  5  6  2  0
  5  4  1  0
  6  1  1  0
  7  5  1  0
  8  7  1  0
  9  8  2  0
 10  9  1  0
 10 15  2  0
 11 12  2  0
 11 10  1  0
 12 13  1  0
 13 16  1  0
 13 14  2  0
 15 14  1  0
 15  7  1  0
 16 17  2  0
 18 17  1  0
 19 18  1  0
 20 19  2  0
 20 16  1  0
  1 21  1  0
  2 22  1  0
  3 23  1  0
  8 24  1  0
 11 25  1  0
 19 26  1  0
M  ISO  6  21  14  22  14  23  14  24  14  25  14  26  14
M  END
>  <minimizedAffinity>  (1) 
-5.15066957

>  <minimizedRMSD>  (1) 
1.96532941

$$$$
