
     RDKit          3D

 24 26  0  0  0  0  0  0  0  0999 V2000
   39.6830   22.6850   37.8010 C   0  0  0  0  0  0  0  0  0  0  0  0
   38.9570   23.5950   38.6100 C   0  0  0  0  0  0  0  0  0  0  0  0
   37.9440   24.3230   38.0000 C   0  0  0  0  0  0  0  0  0  0  0  0
   37.6910   24.1380   36.6740 N   0  0  0  0  0  0  0  0  0  0  0  0
   38.4050   23.2600   35.9330 C   0  0  0  0  0  0  0  0  0  0  0  0
   39.3990   22.5370   36.4960 N   0  0  0  0  0  0  0  0  0  0  0  0
   38.1780   23.0380   34.5530 N   0  0  0  0  0  0  0  0  0  0  0  0
   38.2620   21.9210   33.8000 C   0  0  0  0  0  0  0  0  0  0  0  0
   37.9430   22.2440   32.5390 N   0  0  0  0  0  0  0  0  0  0  0  0
   37.6450   23.5620   32.4370 C   0  0  0  0  0  0  0  0  0  0  0  0
   37.2650   24.3400   31.3550 C   0  0  0  0  0  0  0  0  0  0  0  0
   37.0460   25.6460   31.6320 N   0  0  0  0  0  0  0  0  0  0  0  0
   37.1960   26.1140   32.8750 C   0  0  0  0  0  0  0  0  0  0  0  0
   37.5620   25.3800   33.9440 N   0  0  0  0  0  0  0  0  0  0  0  0
   37.7980   24.0560   33.7260 C   0  0  0  0  0  0  0  0  0  0  0  0
   36.9450   27.5610   33.1490 C   0  0  0  0  0  0  0  0  0  0  0  0
   35.6460   27.9230   32.8230 F   0  0  0  0  0  0  0  0  0  0  0  0
   37.2440   27.9180   34.4260 F   0  0  0  0  0  0  0  0  0  0  0  0
   37.7770   28.2780   32.2780 F   0  0  0  0  0  0  0  0  0  0  0  0
   40.4925   22.0900   38.2491 H   0  0  0  0  0  0  0  0  0  0  0  0
   39.1870   23.7195   39.6785 H   0  0  0  0  0  0  0  0  0  0  0  0
   37.3507   25.0431   38.5825 H   0  0  0  0  0  0  0  0  0  0  0  0
   38.5433   20.9199   34.1588 H   0  0  0  0  0  0  0  0  0  0  0  0
   37.1496   23.9251   30.3428 H   0  0  0  0  0  0  0  0  0  0  0  0
  1  2  2  0
  3  2  1  0
  4  3  2  0
  5  6  2  0
  5  4  1  0
  6  1  1  0
  7  5  1  0
  8  7  1  0
  9  8  2  0
 10  9  1  0
 10 15  2  0
 11 12  2  0
 11 10  1  0
 12 13  1  0
 13 16  1  0
 13 14  2  0
 15 14  1  0
 15  7  1  0
 16 18  1  0
 17 16  1  0
 19 16  1  0
  1 20  1  0
  2 21  1  0
  3 22  1  0
  8 23  1  0
 11 24  1  0
M  ISO  5  20  14  21  14  22  14  23  14  24  14
M  END
>  <minimizedAffinity>  (1) 
-5.02561998

>  <minimizedRMSD>  (1) 
1.98417747

$$$$
