
     RDKit          3D

 27 29  0  0  0  0  0  0  0  0999 V2000
   39.7780   22.8360   37.6470 C   0  0  0  0  0  0  0  0  0  0  0  0
   38.9840   23.3270   38.7120 C   0  0  0  0  0  0  0  0  0  0  0  0
   37.8760   24.1200   38.3830 C   0  0  0  0  0  0  0  0  0  0  0  0
   37.6200   24.3770   37.0730 N   0  0  0  0  0  0  0  0  0  0  0  0
   38.4040   23.8900   36.0780 C   0  0  0  0  0  0  0  0  0  0  0  0
   39.4580   23.1350   36.3900 N   0  0  0  0  0  0  0  0  0  0  0  0
   38.1530   24.1450   34.7090 N   0  0  0  0  0  0  0  0  0  0  0  0
   38.3320   23.3500   33.6200 C   0  0  0  0  0  0  0  0  0  0  0  0
   37.9400   24.0530   32.5400 N   0  0  0  0  0  0  0  0  0  0  0  0
   37.5110   25.2850   32.9030 C   0  0  0  0  0  0  0  0  0  0  0  0
   37.0210   26.3470   32.1540 C   0  0  0  0  0  0  0  0  0  0  0  0
   36.6850   27.4420   32.8540 N   0  0  0  0  0  0  0  0  0  0  0  0
   36.8230   27.4790   34.1760 C   0  0  0  0  0  0  0  0  0  0  0  0
   37.2970   26.4610   34.9270 N   0  0  0  0  0  0  0  0  0  0  0  0
   37.6530   25.3280   34.2750 C   0  0  0  0  0  0  0  0  0  0  0  0
   36.3960   28.7830   34.7740 C   0  0  0  0  0  0  0  0  0  0  0  0
   35.2200   29.3930   34.0480 C   0  0  0  0  0  0  0  0  0  0  0  0
   40.6569   22.2091   37.8580 H   0  0  0  0  0  0  0  0  0  0  0  0
   39.2279   23.0945   39.7591 H   0  0  0  0  0  0  0  0  0  0  0  0
   37.2252   24.5271   39.1709 H   0  0  0  0  0  0  0  0  0  0  0  0
   38.7245   22.3224   33.6211 H   0  0  0  0  0  0  0  0  0  0  0  0
   36.9153   26.2943   31.0604 H   0  0  0  0  0  0  0  0  0  0  0  0
   36.1141   28.6145   35.8238 H   0  0  0  0  0  0  0  0  0  0  0  0
   37.2408   29.4825   34.6903 H   0  0  0  0  0  0  0  0  0  0  0  0
   34.4921   29.7705   34.7813 H   0  0  0  0  0  0  0  0  0  0  0  0
   35.5693   30.2236   33.4170 H   0  0  0  0  0  0  0  0  0  0  0  0
   34.7422   28.6290   33.4170 H   0  0  0  0  0  0  0  0  0  0  0  0
  1  2  2  0
  3  2  1  0
  4  3  2  0
  5  6  2  0
  5  4  1  0
  6  1  1  0
  7  5  1  0
  8  7  1  0
  9 10  1  0
  9  8  2  0
 10 15  2  0
 11 12  2  0
 11 10  1  0
 12 13  1  0
 13 16  1  0
 13 14  2  0
 15  7  1  0
 15 14  1  0
 17 16  1  0
  1 18  1  0
  2 19  1  0
  3 20  1  0
  8 21  1  0
 11 22  1  0
 16 23  1  0
 16 24  1  0
 17 25  1  0
 17 26  1  0
 17 27  1  0
M  ISO  8  18  14  19  14  20  14  21  14  22  14  23   8  24   8  25   8
M  ISO  2  26   8  27   8
M  END
>  <minimizedAffinity>  (1) 
-4.88734674

>  <minimizedRMSD>  (1) 
0.708460033

$$$$
