
     RDKit          3D

 28 31  0  0  0  0  0  0  0  0999 V2000
   39.6890   22.9230   37.5240 C   0  0  0  0  0  0  0  0  0  0  0  0
   38.8720   23.3990   38.5550 C   0  0  0  0  0  0  0  0  0  0  0  0
   37.7690   24.1630   38.1680 C   0  0  0  0  0  0  0  0  0  0  0  0
   37.5540   24.3950   36.8510 N   0  0  0  0  0  0  0  0  0  0  0  0
   38.3590   23.9200   35.8880 C   0  0  0  0  0  0  0  0  0  0  0  0
   39.4210   23.1880   36.2380 N   0  0  0  0  0  0  0  0  0  0  0  0
   38.1640   24.1440   34.5020 N   0  0  0  0  0  0  0  0  0  0  0  0
   38.4040   23.3630   33.4270 C   0  0  0  0  0  0  0  0  0  0  0  0
   38.0400   24.0490   32.3290 N   0  0  0  0  0  0  0  0  0  0  0  0
   37.5630   25.2680   32.6630 C   0  0  0  0  0  0  0  0  0  0  0  0
   37.0770   26.3060   31.8800 C   0  0  0  0  0  0  0  0  0  0  0  0
   36.6810   27.3940   32.5660 N   0  0  0  0  0  0  0  0  0  0  0  0
   36.7580   27.4490   33.8980 C   0  0  0  0  0  0  0  0  0  0  0  0
   37.2280   26.4470   34.6680 N   0  0  0  0  0  0  0  0  0  0  0  0
   37.6440   25.3220   34.0430 C   0  0  0  0  0  0  0  0  0  0  0  0
   36.2940   28.6990   34.5810 C   0  0  0  0  0  0  0  0  0  0  0  0
   35.9640   29.8900   33.7770 C   0  0  0  0  0  0  0  0  0  0  0  0
   34.8460   29.0740   34.3810 C   0  0  0  0  0  0  0  0  0  0  0  0
   40.5721   22.3170   37.7748 H   0  0  0  0  0  0  0  0  0  0  0  0
   39.0866   23.1834   39.6121 H   0  0  0  0  0  0  0  0  0  0  0  0
   37.0826   24.5717   38.9241 H   0  0  0  0  0  0  0  0  0  0  0  0
   38.8229   22.3461   33.4460 H   0  0  0  0  0  0  0  0  0  0  0  0
   37.0199   26.2441   30.7832 H   0  0  0  0  0  0  0  0  0  0  0  0
   36.9575   28.5305   35.4420 H   0  0  0  0  0  0  0  0  0  0  0  0
   36.1248   29.8783   32.6889 H   0  0  0  0  0  0  0  0  0  0  0  0
   36.2531   30.9508   33.8113 H   0  0  0  0  0  0  0  0  0  0  0  0
   34.2567   29.4756   35.2185 H   0  0  0  0  0  0  0  0  0  0  0  0
   33.9474   28.5669   33.9997 H   0  0  0  0  0  0  0  0  0  0  0  0
  1  2  2  0
  3  2  1  0
  4  3  2  0
  5  6  2  0
  5  4  1  0
  6  1  1  0
  7  5  1  0
  8  7  1  0
  9 10  1  0
  9  8  2  0
 10 15  2  0
 11 12  2  0
 11 10  1  0
 12 13  1  0
 13 16  1  0
 13 14  2  0
 15  7  1  0
 15 14  1  0
 17 18  1  0
 17 16  1  0
 18 16  1  0
  1 19  1  0
  2 20  1  0
  3 21  1  0
  8 22  1  0
 11 23  1  0
 16 24  1  0
 17 25  1  0
 17 26  1  0
 18 27  1  0
 18 28  1  0
M  ISO  8  19  14  20  14  21  14  22  14  23  14  24  13  25  13  26  13
M  ISO  2  27  13  28  13
M  END
>  <minimizedAffinity>  (1) 
-4.87286854

>  <minimizedRMSD>  (1) 
0.651886761

$$$$
