
     RDKit          3D

 22 24  0  0  0  0  0  0  0  0999 V2000
   39.6960   22.8520   37.5890 C   0  0  0  0  0  0  0  0  0  0  0  0
   38.9560   23.3620   38.6600 C   0  0  0  0  0  0  0  0  0  0  0  0
   37.8900   24.1850   38.3330 C   0  0  0  0  0  0  0  0  0  0  0  0
   37.6120   24.4580   37.0210 N   0  0  0  0  0  0  0  0  0  0  0  0
   38.3660   23.9340   36.0240 C   0  0  0  0  0  0  0  0  0  0  0  0
   39.4070   23.1310   36.3100 N   0  0  0  0  0  0  0  0  0  0  0  0
   38.1020   24.1990   34.6600 N   0  0  0  0  0  0  0  0  0  0  0  0
   38.2430   23.4110   33.5640 C   0  0  0  0  0  0  0  0  0  0  0  0
   37.8550   24.1250   32.4890 N   0  0  0  0  0  0  0  0  0  0  0  0
   37.4670   25.3510   32.8510 C   0  0  0  0  0  0  0  0  0  0  0  0
   36.9900   26.4370   32.1200 C   0  0  0  0  0  0  0  0  0  0  0  0
   36.6880   27.5460   32.8350 N   0  0  0  0  0  0  0  0  0  0  0  0
   36.8440   27.5700   34.1540 C   0  0  0  0  0  0  0  0  0  0  0  0
   37.3040   26.5300   34.8830 N   0  0  0  0  0  0  0  0  0  0  0  0
   37.6280   25.3780   34.2180 C   0  0  0  0  0  0  0  0  0  0  0  0
   36.5350   28.7050   34.8960 O   0  0  0  0  0  0  0  0  0  0  0  0
   40.5510   22.1944   37.8048 H   0  0  0  0  0  0  0  0  0  0  0  0
   39.2060   23.1233   39.7043 H   0  0  0  0  0  0  0  0  0  0  0  0
   37.2668   24.6192   39.1286 H   0  0  0  0  0  0  0  0  0  0  0  0
   38.6090   22.3737   33.5548 H   0  0  0  0  0  0  0  0  0  0  0  0
   36.8663   26.3957   31.0278 H   0  0  0  0  0  0  0  0  0  0  0  0
   36.6582   28.7029   35.8783 H   0  0  0  0  0  0  0  0  0  0  0  0
  1  2  2  0
  3  2  1  0
  4  3  2  0
  5  6  2  0
  5  4  1  0
  6  1  1  0
  7  5  1  0
  8  7  1  0
  9 10  1  0
  9  8  2  0
 10 15  2  0
 11 12  2  0
 11 10  1  0
 12 13  1  0
 13 14  2  0
 13 16  1  0
 15  7  1  0
 15 14  1  0
  1 17  1  0
  2 18  1  0
  3 19  1  0
  8 20  1  0
 11 21  1  0
 16 22  1  0
M  ISO  6  17  14  18  14  19  14  20  14  21  14  22   3
M  END
>  <minimizedAffinity>  (1) 
-4.79134703

>  <minimizedRMSD>  (1) 
0.31366691

$$$$
