
     RDKit          3D

 22 24  0  0  0  0  0  0  0  0999 V2000
   39.7840   22.8510   37.7830 C   0  0  0  0  0  0  0  0  0  0  0  0
   38.8860   23.3990   38.7040 C   0  0  0  0  0  0  0  0  0  0  0  0
   37.7880   24.0730   38.1840 C   0  0  0  0  0  0  0  0  0  0  0  0
   37.6390   24.1690   36.8330 N   0  0  0  0  0  0  0  0  0  0  0  0
   38.5270   23.6270   35.9810 C   0  0  0  0  0  0  0  0  0  0  0  0
   39.5910   22.9730   36.4700 N   0  0  0  0  0  0  0  0  0  0  0  0
   38.4080   23.7050   34.5690 N   0  0  0  0  0  0  0  0  0  0  0  0
   38.7360   22.8250   33.5970 C   0  0  0  0  0  0  0  0  0  0  0  0
   38.4210   23.3830   32.4150 N   0  0  0  0  0  0  0  0  0  0  0  0
   37.8910   24.6170   32.5950 C   0  0  0  0  0  0  0  0  0  0  0  0
   37.4310   25.5410   31.6750 C   0  0  0  0  0  0  0  0  0  0  0  0
   36.9600   26.6930   32.2170 N   0  0  0  0  0  0  0  0  0  0  0  0
   36.9590   26.8720   33.5370 C   0  0  0  0  0  0  0  0  0  0  0  0
   37.4050   25.9780   34.4460 N   0  0  0  0  0  0  0  0  0  0  0  0
   37.8930   24.7980   33.9550 C   0  0  0  0  0  0  0  0  0  0  0  0
   36.3230   28.4180   34.2240 S   0  0  0  0  0  0  0  0  0  0  0  0
   40.6677   22.3082   38.1496 H   0  0  0  0  0  0  0  0  0  0  0  0
   39.0414   23.3012   39.7886 H   0  0  0  0  0  0  0  0  0  0  0  0
   37.0451   24.5254   38.8574 H   0  0  0  0  0  0  0  0  0  0  0  0
   39.1811   21.8302   33.7463 H   0  0  0  0  0  0  0  0  0  0  0  0
   37.4455   25.3573   30.5905 H   0  0  0  0  0  0  0  0  0  0  0  0
   36.3491   28.3546   35.5923 H   0  0  0  0  0  0  0  0  0  0  0  0
  1  2  2  0
  3  2  1  0
  4  3  2  0
  5  6  2  0
  5  4  1  0
  6  1  1  0
  7  5  1  0
  8  7  1  0
  9 10  1  0
  9  8  2  0
 10 15  2  0
 11 12  2  0
 11 10  1  0
 12 13  1  0
 13 16  1  0
 13 14  2  0
 15 14  1  0
 15  7  1  0
  1 17  1  0
  2 18  1  0
  3 19  1  0
  8 20  1  0
 11 21  1  0
 16 22  1  0
M  ISO  6  17  14  18  14  19  14  20  14  21  14  22  11
M  END
>  <minimizedAffinity>  (1) 
-4.51939154

>  <minimizedRMSD>  (1) 
1.01572788

$$$$
