
     RDKit          3D

 42 44  0  0  0  0  0  0  0  0999 V2000
   37.2520   22.5730   37.1800 C   0  0  0  0  0  0  0  0  0  0  0  0
   36.9590   21.9200   35.9110 C   0  0  0  0  0  0  0  0  0  0  0  0
   35.8740   21.1650   35.6740 C   0  0  0  0  0  0  0  0  0  0  0  0
   35.6090   20.5570   34.4800 C   0  0  0  0  0  0  0  0  0  0  0  0
   36.6240   20.8170   33.5060 C   0  0  0  0  0  0  0  0  0  0  0  0
   37.8630   21.9040   34.3850 S   0  0  0  0  0  0  0  0  0  0  0  0
   36.8160   20.4370   32.1420 C   0  0  0  0  0  0  0  0  0  0  0  0
   36.0360   19.5500   31.4850 C   0  0  0  0  0  0  0  0  0  0  0  0
   36.7620   19.5080   29.7570 S   0  0  0  0  0  0  0  0  0  0  0  0
   38.0540   20.7800   30.3240 C   0  0  0  0  0  0  0  0  0  0  0  0
   37.7330   20.9110   31.3850 N   0  0  0  0  0  0  0  0  0  0  0  0
   39.0190   21.2040   29.3320 N   0  0  0  0  0  0  0  0  0  0  0  0
   39.3690   22.5600   29.1480 C   0  0  0  0  0  0  0  0  0  0  0  0
   39.1320   23.4040   30.0950 N   0  0  0  0  0  0  0  0  0  0  0  0
   39.9690   22.8270   27.8790 N   0  0  0  0  0  0  0  0  0  0  0  0
   39.3580   24.4230   30.0440 H   0  0  0  0  0  0  0  0  0  0  0  0
   38.1410   23.7720   37.0890 C   0  0  0  0  0  0  0  0  0  0  0  0
   41.4450   22.0050   37.2510 C   0  0  0  0  0  0  0  0  0  0  0  0
   40.1380   22.3380   37.5670 C   0  0  0  0  0  0  0  0  0  0  0  0
   39.5040   23.3520   36.8330 C   0  0  0  0  0  0  0  0  0  0  0  0
   40.2090   23.9640   35.8370 N   0  0  0  0  0  0  0  0  0  0  0  0
   41.4790   23.6130   35.5600 C   0  0  0  0  0  0  0  0  0  0  0  0
   42.0890   22.6430   36.2590 N   0  0  0  0  0  0  0  0  0  0  0  0
   38.1180   24.4770   38.4480 C   0  0  0  0  0  0  0  0  0  0  0  0
   37.5610   24.6700   36.0320 C   0  0  0  0  0  0  0  0  0  0  0  0
   36.2985   22.8896   37.6279 H   0  0  0  0  0  0  0  0  0  0  0  0
   37.7977   21.8337   37.7848 H   0  0  0  0  0  0  0  0  0  0  0  0
   35.1530   21.0275   36.4933 H   0  0  0  0  0  0  0  0  0  0  0  0
   34.7189   19.9394   34.2895 H   0  0  0  0  0  0  0  0  0  0  0  0
   35.1760   18.9847   31.8735 H   0  0  0  0  0  0  0  0  0  0  0  0
   39.4668   20.4910   28.7387 H   0  0  0  0  0  0  0  0  0  0  0  0
   40.2633   23.7846   27.6397 H   0  0  0  0  0  0  0  0  0  0  0  0
   40.1072   22.0618   27.2035 H   0  0  0  0  0  0  0  0  0  0  0  0
   41.9590   21.2132   37.8157 H   0  0  0  0  0  0  0  0  0  0  0  0
   39.6073   21.8175   38.3778 H   0  0  0  0  0  0  0  0  0  0  0  0
   42.0221   24.1263   34.7528 H   0  0  0  0  0  0  0  0  0  0  0  0
   38.1425   23.7258   39.2512 H   0  0  0  0  0  0  0  0  0  0  0  0
   38.9952   25.1351   38.5346 H   0  0  0  0  0  0  0  0  0  0  0  0
   37.1998   25.0765   38.5346 H   0  0  0  0  0  0  0  0  0  0  0  0
   37.0239   25.5015   36.5117 H   0  0  0  0  0  0  0  0  0  0  0  0
   38.3718   25.0701   35.4055 H   0  0  0  0  0  0  0  0  0  0  0  0
   36.8629   24.0955   35.4055 H   0  0  0  0  0  0  0  0  0  0  0  0
  2  1  1  0
  3  2  2  0
  4  3  1  0
  5  6  1  0
  5  4  2  0
  6  2  1  0
  7  5  1  0
  8  7  2  0
  9 10  1  0
  9  8  1  0
 10 11  2  0
 11  7  1  0
 12 10  1  0
 13 12  1  0
 13 14  2  0
 15 13  1  0
 16 14  1  0
 17  1  1  0
 17 24  1  0
 18 19  2  0
 20 17  1  0
 20 19  1  0
 21 20  2  0
 22 21  1  0
 22 23  2  0
 23 18  1  0
 25 17  1  0
  1 26  1  0
  1 27  1  0
  3 28  1  0
  4 29  1  0
  8 30  1  0
 12 31  1  0
 15 32  1  0
 15 33  1  0
 18 34  1  0
 19 35  1  0
 22 36  1  0
 24 37  1  0
 24 38  1  0
 24 39  1  0
 25 40  1  0
 25 41  1  0
 25 42  1  0
M  ISO  8  26   8  27   8  28  14  29  14  30  14  34  14  35  14  36  14
M  ISO  6  37   8  38   8  39   8  40   8  41   8  42   8
M  END
>  <minimizedAffinity>  (1) 
-4.84281492

>  <minimizedRMSD>  (1) 
0.0822254047

$$$$
