
     RDKit          3D

 35 39  0  0  0  0  0  0  0  0999 V2000
   39.7790   22.7310   37.7430 C   0  0  0  0  0  0  0  0  0  0  0  0
   38.8290   23.5360   38.4220 C   0  0  0  0  0  0  0  0  0  0  0  0
   37.7980   24.0760   37.6690 C   0  0  0  0  0  0  0  0  0  0  0  0
   37.7390   23.8180   36.3330 N   0  0  0  0  0  0  0  0  0  0  0  0
   38.6660   23.0430   35.7210 C   0  0  0  0  0  0  0  0  0  0  0  0
   39.6660   22.5150   36.4310 N   0  0  0  0  0  0  0  0  0  0  0  0
   38.6340   22.7470   34.3230 N   0  0  0  0  0  0  0  0  0  0  0  0
   38.9840   21.6440   33.6490 C   0  0  0  0  0  0  0  0  0  0  0  0
   38.7570   21.8680   32.3350 N   0  0  0  0  0  0  0  0  0  0  0  0
   38.2580   23.1180   32.1580 C   0  0  0  0  0  0  0  0  0  0  0  0
   37.8800   23.7980   31.0100 C   0  0  0  0  0  0  0  0  0  0  0  0
   37.4350   25.0330   31.2020 N   0  0  0  0  0  0  0  0  0  0  0  0
   37.3580   25.5780   32.4150 C   0  0  0  0  0  0  0  0  0  0  0  0
   37.7270   24.9100   33.5290 N   0  0  0  0  0  0  0  0  0  0  0  0
   38.1920   23.6460   33.4190 C   0  0  0  0  0  0  0  0  0  0  0  0
   36.8960   26.9220   32.8370 C   0  0  0  0  0  0  0  0  0  0  0  0
   36.5330   27.2790   34.0800 N   0  0  0  0  0  0  0  0  0  0  0  0
   36.1190   28.4880   34.4560 C   0  0  0  0  0  0  0  0  0  0  0  0
   36.0280   29.5000   33.5800 N   0  0  0  0  0  0  0  0  0  0  0  0
   36.3680   29.2550   32.3030 C   0  0  0  0  0  0  0  0  0  0  0  0
   36.2710   30.2930   31.4250 C   0  0  0  0  0  0  0  0  0  0  0  0
   36.6020   30.1160   30.1040 C   0  0  0  0  0  0  0  0  0  0  0  0
   37.0330   28.8580   29.7040 C   0  0  0  0  0  0  0  0  0  0  0  0
   37.1070   27.8580   30.6460 C   0  0  0  0  0  0  0  0  0  0  0  0
   36.7870   27.9870   31.9750 C   0  0  0  0  0  0  0  0  0  0  0  0
   40.6138   22.2821   38.3011 H   0  0  0  0  0  0  0  0  0  0  0  0
   38.9072   23.7243   39.5029 H   0  0  0  0  0  0  0  0  0  0  0  0
   37.0342   24.7074   38.1464 H   0  0  0  0  0  0  0  0  0  0  0  0
   39.3856   20.7185   34.0873 H   0  0  0  0  0  0  0  0  0  0  0  0
   37.9446   23.3449   30.0097 H   0  0  0  0  0  0  0  0  0  0  0  0
   35.8458   28.6603   35.5075 H   0  0  0  0  0  0  0  0  0  0  0  0
   35.9261   31.2768   31.7760 H   0  0  0  0  0  0  0  0  0  0  0  0
   36.5280   30.9451   29.3849 H   0  0  0  0  0  0  0  0  0  0  0  0
   37.3092   28.6652   28.6568 H   0  0  0  0  0  0  0  0  0  0  0  0
   37.4520   26.8706   30.3053 H   0  0  0  0  0  0  0  0  0  0  0  0
  1  2  2  0
  3  2  1  0
  4  3  2  0
  5  4  1  0
  5  6  2  0
  6  1  1  0
  7  5  1  0
  8  7  1  0
  9  8  2  0
 10  9  1  0
 10 15  2  0
 11 12  2  0
 11 10  1  0
 12 13  1  0
 13 16  1  0
 13 14  2  0
 15 14  1  0
 15  7  1  0
 16 17  2  0
 17 18  1  0
 19 18  2  0
 20 19  1  0
 21 20  2  0
 22 21  1  0
 23 22  2  0
 23 24  1  0
 24 25  2  0
 25 20  1  0
 25 16  1  0
  1 26  1  0
  2 27  1  0
  3 28  1  0
  8 29  1  0
 11 30  1  0
 18 31  1  0
 21 32  1  0
 22 33  1  0
 23 34  1  0
 24 35  1  0
M  ISO  8  26  14  27  14  28  14  29  14  30  14  31  14  32  14  33  14
M  ISO  2  34  14  35  14
M  END
>  <minimizedAffinity>  (1) 
-6.17602348

>  <minimizedRMSD>  (1) 
3.18627787

$$$$
