
     RDKit          3D

 48 53  0  0  0  0  0  0  0  0999 V2000
   39.0710   23.2810   38.6350 C   0  0  0  0  0  0  0  0  0  0  0  0
   37.6720   23.2080   38.5830 C   0  0  0  0  0  0  0  0  0  0  0  0
   37.1350   22.9290   37.3640 C   0  0  0  0  0  0  0  0  0  0  0  0
   37.9550   22.7420   36.2970 N   0  0  0  0  0  0  0  0  0  0  0  0
   39.3170   22.8220   36.3940 C   0  0  0  0  0  0  0  0  0  0  0  0
   39.8490   23.0880   37.5540 N   0  0  0  0  0  0  0  0  0  0  0  0
   40.1800   22.5750   35.2880 N   0  0  0  0  0  0  0  0  0  0  0  0
   41.3400   21.9000   35.2140 C   0  0  0  0  0  0  0  0  0  0  0  0
   41.6970   21.8270   33.9090 N   0  0  0  0  0  0  0  0  0  0  0  0
   40.7740   22.4540   33.1340 C   0  0  0  0  0  0  0  0  0  0  0  0
   40.6740   22.6310   31.7630 C   0  0  0  0  0  0  0  0  0  0  0  0
   39.6120   23.2910   31.3800 N   0  0  0  0  0  0  0  0  0  0  0  0
   38.6970   23.7670   32.1700 C   0  0  0  0  0  0  0  0  0  0  0  0
   38.7810   23.5960   33.5180 N   0  0  0  0  0  0  0  0  0  0  0  0
   39.8340   22.9200   34.0310 C   0  0  0  0  0  0  0  0  0  0  0  0
   37.4060   24.4680   31.9310 C   0  0  0  0  0  0  0  0  0  0  0  0
   36.2340   23.8540   31.6910 N   0  0  0  0  0  0  0  0  0  0  0  0
   35.1370   24.4180   31.1740 C   0  0  0  0  0  0  0  0  0  0  0  0
   35.1360   25.7250   30.8340 N   0  0  0  0  0  0  0  0  0  0  0  0
   36.2760   26.4270   31.0470 C   0  0  0  0  0  0  0  0  0  0  0  0
   36.2770   27.7370   30.6770 C   0  0  0  0  0  0  0  0  0  0  0  0
   37.4310   28.4900   30.8720 C   0  0  0  0  0  0  0  0  0  0  0  0
   38.5170   27.8960   31.4380 C   0  0  0  0  0  0  0  0  0  0  0  0
   38.4430   26.5720   31.7850 C   0  0  0  0  0  0  0  0  0  0  0  0
   37.3700   25.7830   31.5980 C   0  0  0  0  0  0  0  0  0  0  0  0
   39.5750   26.2610   32.7220 C   0  0  0  0  0  0  0  0  0  0  0  0
   39.0300   26.9990   34.0540 C   0  0  0  0  0  0  0  0  0  0  0  0
   40.1840   26.8090   34.9810 C   0  0  0  0  0  0  0  0  0  0  0  0
   41.4060   26.7810   34.0490 C   0  0  0  0  0  0  0  0  0  0  0  0
   40.7320   27.1570   32.7080 C   0  0  0  0  0  0  0  0  0  0  0  0
   39.5523   23.5051   39.5984 H   0  0  0  0  0  0  0  0  0  0  0  0
   37.0462   23.3666   39.4736 H   0  0  0  0  0  0  0  0  0  0  0  0
   36.0441   22.8554   37.2434 H   0  0  0  0  0  0  0  0  0  0  0  0
   41.9004   21.4810   36.0628 H   0  0  0  0  0  0  0  0  0  0  0  0
   41.4251   22.2484   31.0562 H   0  0  0  0  0  0  0  0  0  0  0  0
   34.2301   23.8136   31.0248 H   0  0  0  0  0  0  0  0  0  0  0  0
   35.3806   28.1928   30.2313 H   0  0  0  0  0  0  0  0  0  0  0  0
   37.4649   29.5482   30.5735 H   0  0  0  0  0  0  0  0  0  0  0  0
   39.4392   28.4692   31.6141 H   0  0  0  0  0  0  0  0  0  0  0  0
   39.8242   25.2013   32.5640 H   0  0  0  0  0  0  0  0  0  0  0  0
   38.8304   28.0652   33.8715 H   0  0  0  0  0  0  0  0  0  0  0  0
   38.0761   26.6029   34.4323 H   0  0  0  0  0  0  0  0  0  0  0  0
   40.2547   27.6435   35.6941 H   0  0  0  0  0  0  0  0  0  0  0  0
   40.0936   25.8972   35.5896 H   0  0  0  0  0  0  0  0  0  0  0  0
   42.1632   27.5213   34.3467 H   0  0  0  0  0  0  0  0  0  0  0  0
   41.9582   25.8297   34.0385 H   0  0  0  0  0  0  0  0  0  0  0  0
   41.3919   26.9527   31.8520 H   0  0  0  0  0  0  0  0  0  0  0  0
   40.4811   28.2233   32.6076 H   0  0  0  0  0  0  0  0  0  0  0  0
  2  1  2  0
  3  2  1  0
  4  5  1  0
  4  3  2  0
  5  6  2  0
  6  1  1  0
  7  5  1  0
  8  7  1  0
  9  8  2  0
 10  9  1  0
 10 15  2  0
 11 10  1  0
 12 11  2  0
 12 13  1  0
 13 14  2  0
 14 15  1  0
 15  7  1  0
 16 13  1  0
 17 16  2  0
 18 17  1  0
 19 20  1  0
 19 18  2  0
 20 25  2  0
 21 22  2  0
 21 20  1  0
 22 23  1  0
 23 24  2  0
 24 26  1  0
 25 24  1  0
 25 16  1  0
 26 27  1  0
 27 28  1  0
 29 28  1  0
 30 26  1  0
 30 29  1  0
  1 31  1  0
  2 32  1  0
  3 33  1  0
  8 34  1  0
 11 35  1  0
 18 36  1  0
 21 37  1  0
 22 38  1  0
 23 39  1  0
 26 40  1  0
 27 41  1  0
 27 42  1  0
 28 43  1  0
 28 44  1  0
 29 45  1  0
 29 46  1  0
 30 47  1  0
 30 48  1  0
M  ISO  8  31  14  32  14  33  14  34  14  35  14  36  14  37  14  38  14
M  ISO  8  39  14  40  13  41  13  42  13  43  13  44  13  45  13  46  13
M  ISO  2  47  13  48  13
M  END
>  <minimizedAffinity>  (1) 
-6.58956814

>  <minimizedRMSD>  (1) 
3.22237372

$$$$
