
     RDKit          3D

 42 47  0  0  0  0  0  0  0  0999 V2000
   39.0520   23.3070   38.7040 C   0  0  0  0  0  0  0  0  0  0  0  0
   37.6500   23.1910   38.5900 C   0  0  0  0  0  0  0  0  0  0  0  0
   37.1610   22.9250   37.3450 C   0  0  0  0  0  0  0  0  0  0  0  0
   38.0240   22.7880   36.3070 N   0  0  0  0  0  0  0  0  0  0  0  0
   39.3750   22.9070   36.4560 C   0  0  0  0  0  0  0  0  0  0  0  0
   39.8640   23.1630   37.6410 N   0  0  0  0  0  0  0  0  0  0  0  0
   40.2940   22.7260   35.3760 N   0  0  0  0  0  0  0  0  0  0  0  0
   41.4830   22.1160   35.3300 C   0  0  0  0  0  0  0  0  0  0  0  0
   41.9020   22.1170   34.0360 N   0  0  0  0  0  0  0  0  0  0  0  0
   40.9850   22.7270   33.2490 C   0  0  0  0  0  0  0  0  0  0  0  0
   40.9420   22.9580   31.8800 C   0  0  0  0  0  0  0  0  0  0  0  0
   39.8640   23.5810   31.4660 N   0  0  0  0  0  0  0  0  0  0  0  0
   38.8900   23.9740   32.2450 C   0  0  0  0  0  0  0  0  0  0  0  0
   38.9250   23.7470   33.5830 N   0  0  0  0  0  0  0  0  0  0  0  0
   39.9860   23.1040   34.1220 C   0  0  0  0  0  0  0  0  0  0  0  0
   37.5940   24.6320   31.9610 C   0  0  0  0  0  0  0  0  0  0  0  0
   36.4250   23.9770   31.8180 N   0  0  0  0  0  0  0  0  0  0  0  0
   35.2940   24.4800   31.3250 C   0  0  0  0  0  0  0  0  0  0  0  0
   35.2430   25.7660   30.9040 N   0  0  0  0  0  0  0  0  0  0  0  0
   36.3740   26.5150   31.0100 C   0  0  0  0  0  0  0  0  0  0  0  0
   36.3030   27.7930   30.5740 C   0  0  0  0  0  0  0  0  0  0  0  0
   37.4180   28.6000   30.6620 C   0  0  0  0  0  0  0  0  0  0  0  0
   38.5920   28.0630   31.2150 C   0  0  0  0  0  0  0  0  0  0  0  0
   38.5440   26.7480   31.6280 C   0  0  0  0  0  0  0  0  0  0  0  0
   37.5040   25.9180   31.5450 C   0  0  0  0  0  0  0  0  0  0  0  0
   39.7730   26.5930   32.5420 C   0  0  0  0  0  0  0  0  0  0  0  0
   39.8590   26.6900   33.8650 C   0  0  0  0  0  0  0  0  0  0  0  0
   41.0660   26.7110   34.4720 C   0  0  0  0  0  0  0  0  0  0  0  0
   42.1900   26.6270   33.6280 C   0  0  0  0  0  0  0  0  0  0  0  0
   41.4490   26.5140   31.8790 S   0  0  0  0  0  0  0  0  0  0  0  0
   39.4928   23.5210   39.6888 H   0  0  0  0  0  0  0  0  0  0  0  0
   36.9867   23.3089   39.4595 H   0  0  0  0  0  0  0  0  0  0  0  0
   36.0777   22.8225   37.1839 H   0  0  0  0  0  0  0  0  0  0  0  0
   42.0257   21.6893   36.1864 H   0  0  0  0  0  0  0  0  0  0  0  0
   41.7463   22.6442   31.1984 H   0  0  0  0  0  0  0  0  0  0  0  0
   34.3967   23.8471   31.2596 H   0  0  0  0  0  0  0  0  0  0  0  0
   35.3653   28.1851   30.1533 H   0  0  0  0  0  0  0  0  0  0  0  0
   37.3884   29.6407   30.3071 H   0  0  0  0  0  0  0  0  0  0  0  0
   39.5080   28.6638   31.3142 H   0  0  0  0  0  0  0  0  0  0  0  0
   38.9420   26.7536   34.4692 H   0  0  0  0  0  0  0  0  0  0  0  0
   41.1650   26.7894   35.5647 H   0  0  0  0  0  0  0  0  0  0  0  0
   43.2522   26.6268   33.9140 H   0  0  0  0  0  0  0  0  0  0  0  0
  2  1  2  0
  3  2  1  0
  4  5  1  0
  4  3  2  0
  5  6  2  0
  6  1  1  0
  7  5  1  0
  8  7  1  0
  9  8  2  0
 10  9  1  0
 10 15  2  0
 11 10  1  0
 12 11  2  0
 12 13  1  0
 13 14  2  0
 14 15  1  0
 15  7  1  0
 16 13  1  0
 17 16  2  0
 18 17  1  0
 19 20  1  0
 19 18  2  0
 20 25  2  0
 21 22  2  0
 21 20  1  0
 22 23  1  0
 23 24  2  0
 24 26  1  0
 25 24  1  0
 25 16  1  0
 26 27  2  0
 27 28  1  0
 29 28  2  0
 30 26  1  0
 30 29  1  0
  1 31  1  0
  2 32  1  0
  3 33  1  0
  8 34  1  0
 11 35  1  0
 18 36  1  0
 21 37  1  0
 22 38  1  0
 23 39  1  0
 27 40  1  0
 28 41  1  0
 29 42  1  0
M  ISO  8  31  14  32  14  33  14  34  14  35  14  36  14  37  14  38  14
M  ISO  4  39  14  40  14  41  14  42  14
M  END
>  <minimizedAffinity>  (1) 
-6.00688934

>  <minimizedRMSD>  (1) 
3.0275445

$$$$
