
     RDKit          3D

 47 52  0  0  0  0  0  0  0  0999 V2000
   39.2680   23.2580   38.4670 C   0  0  0  0  0  0  0  0  0  0  0  0
   37.8650   23.3440   38.4610 C   0  0  0  0  0  0  0  0  0  0  0  0
   37.2530   23.1040   37.2680 C   0  0  0  0  0  0  0  0  0  0  0  0
   38.0050   22.8050   36.1820 N   0  0  0  0  0  0  0  0  0  0  0  0
   39.3680   22.7300   36.2270 C   0  0  0  0  0  0  0  0  0  0  0  0
   39.9700   22.9570   37.3610 N   0  0  0  0  0  0  0  0  0  0  0  0
   40.1680   22.3770   35.0970 N   0  0  0  0  0  0  0  0  0  0  0  0
   41.2570   21.6080   35.0000 C   0  0  0  0  0  0  0  0  0  0  0  0
   41.5690   21.4900   33.6820 N   0  0  0  0  0  0  0  0  0  0  0  0
   40.6840   22.1830   32.9300 C   0  0  0  0  0  0  0  0  0  0  0  0
   40.5640   22.3540   31.5550 C   0  0  0  0  0  0  0  0  0  0  0  0
   39.5510   23.1000   31.1850 N   0  0  0  0  0  0  0  0  0  0  0  0
   38.7040   23.6600   32.0050 C   0  0  0  0  0  0  0  0  0  0  0  0
   38.8120   23.4940   33.3510 N   0  0  0  0  0  0  0  0  0  0  0  0
   39.8150   22.7370   33.8460 C   0  0  0  0  0  0  0  0  0  0  0  0
   37.4910   24.4630   31.7630 C   0  0  0  0  0  0  0  0  0  0  0  0
   36.2380   23.9530   31.6760 N   0  0  0  0  0  0  0  0  0  0  0  0
   35.1530   24.5990   31.2620 C   0  0  0  0  0  0  0  0  0  0  0  0
   35.2340   25.8900   30.8720 N   0  0  0  0  0  0  0  0  0  0  0  0
   36.4500   26.4970   30.9260 C   0  0  0  0  0  0  0  0  0  0  0  0
   36.4960   27.7980   30.5580 C   0  0  0  0  0  0  0  0  0  0  0  0
   37.7060   28.4800   30.6380 C   0  0  0  0  0  0  0  0  0  0  0  0
   38.8330   27.7860   31.1090 C   0  0  0  0  0  0  0  0  0  0  0  0
   38.6560   26.4610   31.4550 C   0  0  0  0  0  0  0  0  0  0  0  0
   37.5190   25.7550   31.3760 C   0  0  0  0  0  0  0  0  0  0  0  0
   39.8600   26.2200   32.2060 N   0  0  0  0  0  0  0  0  0  0  0  0
   40.2300   26.3690   33.6470 C   0  0  0  0  0  0  0  0  0  0  0  0
   41.2870   27.4740   33.6000 C   0  0  0  0  0  0  0  0  0  0  0  0
   41.9830   27.2160   32.2840 C   0  0  0  0  0  0  0  0  0  0  0  0
   41.2560   25.9790   31.7770 C   0  0  0  0  0  0  0  0  0  0  0  0
   39.8087   23.4430   39.4069 H   0  0  0  0  0  0  0  0  0  0  0  0
   37.2938   23.5910   39.3681 H   0  0  0  0  0  0  0  0  0  0  0  0
   36.1570   23.1526   37.1873 H   0  0  0  0  0  0  0  0  0  0  0  0
   41.8039   21.1515   35.8381 H   0  0  0  0  0  0  0  0  0  0  0  0
   41.2622   21.9003   30.8362 H   0  0  0  0  0  0  0  0  0  0  0  0
   34.1836   24.0798   31.2367 H   0  0  0  0  0  0  0  0  0  0  0  0
   35.5899   28.3092   30.2007 H   0  0  0  0  0  0  0  0  0  0  0  0
   37.7784   29.5363   30.3399 H   0  0  0  0  0  0  0  0  0  0  0  0
   39.8135   28.2766   31.1982 H   0  0  0  0  0  0  0  0  0  0  0  0
   39.3627   26.6729   34.2515 H   0  0  0  0  0  0  0  0  0  0  0  0
   40.5878   25.4368   34.1084 H   0  0  0  0  0  0  0  0  0  0  0  0
   40.8199   28.4698   33.6126 H   0  0  0  0  0  0  0  0  0  0  0  0
   41.9689   27.4612   34.4630 H   0  0  0  0  0  0  0  0  0  0  0  0
   41.8588   28.0633   31.5936 H   0  0  0  0  0  0  0  0  0  0  0  0
   43.0710   27.0834   32.3769 H   0  0  0  0  0  0  0  0  0  0  0  0
   41.6599   25.0654   32.2377 H   0  0  0  0  0  0  0  0  0  0  0  0
   41.3582   25.8279   30.6922 H   0  0  0  0  0  0  0  0  0  0  0  0
  2  1  2  0
  3  2  1  0
  4  5  1  0
  4  3  2  0
  5  6  2  0
  6  1  1  0
  7  5  1  0
  8  7  1  0
  9  8  2  0
 10  9  1  0
 10 15  2  0
 11 10  1  0
 12 11  2  0
 12 13  1  0
 13 14  2  0
 14 15  1  0
 15  7  1  0
 16 13  1  0
 17 16  2  0
 18 17  1  0
 19 20  1  0
 19 18  2  0
 20 25  2  0
 21 22  2  0
 21 20  1  0
 22 23  1  0
 23 24  2  0
 24 26  1  0
 25 24  1  0
 25 16  1  0
 26 27  1  0
 28 27  1  0
 29 28  1  0
 30 26  1  0
 30 29  1  0
  1 31  1  0
  2 32  1  0
  3 33  1  0
  8 34  1  0
 11 35  1  0
 18 36  1  0
 21 37  1  0
 22 38  1  0
 23 39  1  0
 27 40  1  0
 27 41  1  0
 28 42  1  0
 28 43  1  0
 29 44  1  0
 29 45  1  0
 30 46  1  0
 30 47  1  0
M  ISO  8  31  14  32  14  33  14  34  14  35  14  36  14  37  14  38  14
M  ISO  8  39  14  40  13  41  13  42  13  43  13  44  13  45  13  46  13
M  ISO  1  47  13
M  END
>  <minimizedAffinity>  (1) 
-5.95004749

>  <minimizedRMSD>  (1) 
2.998698

$$$$
