
     RDKit          3D

 48 54  0  0  0  0  0  0  0  0999 V2000
   36.8430   26.3050   31.6830 C   0  0  0  0  0  0  0  0  0  0  0  0
   36.0780   27.2390   32.2940 N   0  0  0  0  0  0  0  0  0  0  0  0
   36.2000   28.5580   32.1710 C   0  0  0  0  0  0  0  0  0  0  0  0
   37.1580   29.0850   31.3710 N   0  0  0  0  0  0  0  0  0  0  0  0
   37.9840   28.2240   30.7160 C   0  0  0  0  0  0  0  0  0  0  0  0
   38.9430   28.7810   29.9450 C   0  0  0  0  0  0  0  0  0  0  0  0
   39.8370   27.9630   29.2830 C   0  0  0  0  0  0  0  0  0  0  0  0
   39.7120   26.5760   29.4480 C   0  0  0  0  0  0  0  0  0  0  0  0
   38.6950   26.1180   30.2590 C   0  0  0  0  0  0  0  0  0  0  0  0
   37.7960   26.8760   30.9040 C   0  0  0  0  0  0  0  0  0  0  0  0
   39.6550   22.3390   36.7730 C   0  0  0  0  0  0  0  0  0  0  0  0
   39.4370   23.6030   37.3490 C   0  0  0  0  0  0  0  0  0  0  0  0
   38.5030   24.3880   36.7530 C   0  0  0  0  0  0  0  0  0  0  0  0
   37.8410   23.9290   35.6600 N   0  0  0  0  0  0  0  0  0  0  0  0
   38.0780   22.6960   35.1270 C   0  0  0  0  0  0  0  0  0  0  0  0
   38.9740   21.9320   35.6920 N   0  0  0  0  0  0  0  0  0  0  0  0
   37.3580   22.1940   34.0100 N   0  0  0  0  0  0  0  0  0  0  0  0
   36.8780   20.9630   33.7580 C   0  0  0  0  0  0  0  0  0  0  0  0
   36.1650   21.0260   32.6020 N   0  0  0  0  0  0  0  0  0  0  0  0
   36.1830   22.2890   32.1050 C   0  0  0  0  0  0  0  0  0  0  0  0
   35.5920   22.8560   30.9860 C   0  0  0  0  0  0  0  0  0  0  0  0
   35.8230   24.1380   30.8460 N   0  0  0  0  0  0  0  0  0  0  0  0
   36.5400   24.8620   31.6530 C   0  0  0  0  0  0  0  0  0  0  0  0
   37.1130   24.3080   32.7480 N   0  0  0  0  0  0  0  0  0  0  0  0
   36.9450   23.0000   33.0090 C   0  0  0  0  0  0  0  0  0  0  0  0
   39.0730   24.7460   30.4560 N   0  0  0  0  0  0  0  0  0  0  0  0
   38.9000   23.6290   29.6540 C   0  0  0  0  0  0  0  0  0  0  0  0
   39.5560   22.5870   30.2280 N   0  0  0  0  0  0  0  0  0  0  0  0
   40.1170   23.0440   31.3430 C   0  0  0  0  0  0  0  0  0  0  0  0
   40.8900   22.3510   32.2590 C   0  0  0  0  0  0  0  0  0  0  0  0
   41.3910   22.9680   33.3470 N   0  0  0  0  0  0  0  0  0  0  0  0
   41.1270   24.2790   33.5310 C   0  0  0  0  0  0  0  0  0  0  0  0
   40.3870   24.9340   32.6500 N   0  0  0  0  0  0  0  0  0  0  0  0
   39.8560   24.3840   31.5450 C   0  0  0  0  0  0  0  0  0  0  0  0
   41.2190   20.9700   32.1460 N   0  0  0  0  0  0  0  0  0  0  0  0
   35.5196   29.2242   32.7217 H   0  0  0  0  0  0  0  0  0  0  0  0
   39.0111   29.8744   29.8456 H   0  0  0  0  0  0  0  0  0  0  0  0
   40.6253   28.3875   28.6440 H   0  0  0  0  0  0  0  0  0  0  0  0
   40.4004   25.8785   28.9485 H   0  0  0  0  0  0  0  0  0  0  0  0
   40.4027   21.6674   37.2202 H   0  0  0  0  0  0  0  0  0  0  0  0
   39.9941   23.9385   38.2362 H   0  0  0  0  0  0  0  0  0  0  0  0
   38.2842   25.3891   37.1530 H   0  0  0  0  0  0  0  0  0  0  0  0
   37.0342   20.0665   34.3760 H   0  0  0  0  0  0  0  0  0  0  0  0
   34.9813   22.2786   30.2763 H   0  0  0  0  0  0  0  0  0  0  0  0
   38.3295   23.5924   28.7142 H   0  0  0  0  0  0  0  0  0  0  0  0
   41.5263   24.8026   34.4121 H   0  0  0  0  0  0  0  0  0  0  0  0
   41.8001   20.5184   32.8666 H   0  0  0  0  0  0  0  0  0  0  0  0
   40.8759   20.4228   31.3436 H   0  0  0  0  0  0  0  0  0  0  0  0
  1  2  2  0
  3  2  1  0
  4  3  2  0
  5 10  2  0
  5  4  1  0
  6  5  1  0
  7  8  1  0
  7  6  2  0
  8  9  2  0
  9 26  1  0
  9 10  1  0
 10  1  1  0
 11 12  2  0
 13 12  1  0
 14 13  2  0
 15 14  1  0
 15 16  2  0
 16 11  1  0
 17 15  1  0
 18 17  1  0
 19 18  2  0
 20 19  1  0
 20 25  2  0
 21 20  1  0
 22 21  2  0
 22 23  1  0
 23  1  1  0
 23 24  2  0
 24 25  1  0
 25 17  1  0
 26 34  1  0
 27 28  2  0
 27 26  1  0
 28 29  1  0
 29 34  2  0
 29 30  1  0
 30 31  2  0
 31 32  1  0
 33 32  2  0
 34 33  1  0
 35 30  1  0
  3 36  1  0
  6 37  1  0
  7 38  1  0
  8 39  1  0
 11 40  1  0
 12 41  1  0
 13 42  1  0
 18 43  1  0
 21 44  1  0
 27 45  1  0
 32 46  1  0
 35 47  1  0
 35 48  1  0
M  ISO  8  36  14  37  14  38  14  39  14  40  14  41  14  42  14  43  14
M  ISO  3  44  14  45  14  46  14
M  END
>  <minimizedAffinity>  (1) 
-5.74145794

>  <minimizedRMSD>  (1) 
2.54046845

$$$$
