
     RDKit          3D

 27 29  0  0  0  0  0  0  0  0999 V2000
   38.9530   24.6260   35.7310 N   0  0  0  0  0  0  0  0  0  0  0  0
   38.2080   23.9290   36.6140 C   0  0  0  0  0  0  0  0  0  0  0  0
   38.7810   22.9340   37.3970 C   0  0  0  0  0  0  0  0  0  0  0  0
   40.1310   22.7230   37.2040 C   0  0  0  0  0  0  0  0  0  0  0  0
   40.7670   21.8640   37.8400 O   0  0  0  0  0  0  0  0  0  0  0  0
   40.8630   23.4200   36.3250 N   0  0  0  0  0  0  0  0  0  0  0  0
   40.2670   24.3920   35.5720 C   0  0  0  0  0  0  0  0  0  0  0  0
   40.8930   25.0680   34.7440 O   0  0  0  0  0  0  0  0  0  0  0  0
   38.0760   26.8200   35.6830 C   0  0  0  0  0  0  0  0  0  0  0  0
   38.2260   25.5930   35.0190 C   0  0  0  0  0  0  0  0  0  0  0  0
   37.6490   25.4700   33.7530 C   0  0  0  0  0  0  0  0  0  0  0  0
   36.9810   26.5160   33.2230 N   0  0  0  0  0  0  0  0  0  0  0  0
   36.8600   27.6830   33.9000 C   0  0  0  0  0  0  0  0  0  0  0  0
   37.4040   27.8420   35.1260 N   0  0  0  0  0  0  0  0  0  0  0  0
   42.2590   23.2160   36.1120 C   0  0  0  0  0  0  0  0  0  0  0  0
   42.6680   22.2770   35.1580 C   0  0  0  0  0  0  0  0  0  0  0  0
   44.0670   22.2880   35.1620 C   0  0  0  0  0  0  0  0  0  0  0  0
   44.4140   23.2370   36.1250 C   0  0  0  0  0  0  0  0  0  0  0  0
   43.3410   23.7460   36.6450 O   0  0  0  0  0  0  0  0  0  0  0  0
   37.1353   24.1507   36.7152 H   0  0  0  0  0  0  0  0  0  0  0  0
   38.1958   22.3519   38.1241 H   0  0  0  0  0  0  0  0  0  0  0  0
   38.5184   26.9483   36.6819 H   0  0  0  0  0  0  0  0  0  0  0  0
   37.7384   24.5279   33.1923 H   0  0  0  0  0  0  0  0  0  0  0  0
   36.3081   28.5173   33.4425 H   0  0  0  0  0  0  0  0  0  0  0  0
   42.0170   21.6527   34.5284 H   0  0  0  0  0  0  0  0  0  0  0  0
   44.7445   21.6820   34.5425 H   0  0  0  0  0  0  0  0  0  0  0  0
   45.4428   23.5116   36.4011 H   0  0  0  0  0  0  0  0  0  0  0  0
  1  2  1  0
  2  3  2  0
  4  3  1  0
  4  5  2  0
  6  4  1  0
  7  1  1  0
  7  6  1  0
  8  7  2  0
 10  9  2  0
 10  1  1  0
 11 10  1  0
 12 11  2  0
 12 13  1  0
 13 14  2  0
 14  9  1  0
 15  6  1  0
 15 19  1  0
 16 17  1  0
 16 15  2  0
 17 18  2  0
 18 19  1  0
  2 20  1  0
  3 21  1  0
  9 22  1  0
 11 23  1  0
 13 24  1  0
 16 25  1  0
 17 26  1  0
 18 27  1  0
M  ISO  8  20  14  21  14  22  14  23  14  24  14  25  14  26  14  27  14
M  END
>  <minimizedAffinity>  (1) 
-4.39697313

>  <minimizedRMSD>  (1) 
6.45554543

$$$$
