
     RDKit          3D

 27 29  0  0  0  0  0  0  0  0999 V2000
   41.8210   24.4540   34.4740 N   0  0  0  0  0  0  0  0  0  0  0  0
   41.1790   25.0920   33.4760 C   0  0  0  0  0  0  0  0  0  0  0  0
   39.7980   25.2860   33.5550 C   0  0  0  0  0  0  0  0  0  0  0  0
   39.1610   24.7990   34.6780 C   0  0  0  0  0  0  0  0  0  0  0  0
   37.9430   24.9270   34.8290 O   0  0  0  0  0  0  0  0  0  0  0  0
   39.8140   24.1670   35.6590 N   0  0  0  0  0  0  0  0  0  0  0  0
   41.1550   23.9900   35.5640 C   0  0  0  0  0  0  0  0  0  0  0  0
   41.8220   23.4100   36.4430 O   0  0  0  0  0  0  0  0  0  0  0  0
   38.7240   22.6590   38.7370 N   0  0  0  0  0  0  0  0  0  0  0  0
   39.7060   22.8690   37.8640 N   0  0  0  0  0  0  0  0  0  0  0  0
   39.2350   23.6370   36.8460 C   0  0  0  0  0  0  0  0  0  0  0  0
   37.8990   23.9210   37.0910 C   0  0  0  0  0  0  0  0  0  0  0  0
   37.5940   23.2880   38.3000 C   0  0  0  0  0  0  0  0  0  0  0  0
   43.9480   25.4500   34.7280 C   0  0  0  0  0  0  0  0  0  0  0  0
   43.2050   24.3310   34.2610 C   0  0  0  0  0  0  0  0  0  0  0  0
   43.8840   23.2720   33.6670 C   0  0  0  0  0  0  0  0  0  0  0  0
   45.2370   23.3740   33.5680 N   0  0  0  0  0  0  0  0  0  0  0  0
   45.9240   24.4380   34.0140 C   0  0  0  0  0  0  0  0  0  0  0  0
   45.2940   25.4660   34.5880 N   0  0  0  0  0  0  0  0  0  0  0  0
   41.7396   25.4583   32.6033 H   0  0  0  0  0  0  0  0  0  0  0  0
   39.2435   25.8034   32.7583 H   0  0  0  0  0  0  0  0  0  0  0  0
   38.8038   22.1093   39.6044 H   0  0  0  0  0  0  0  0  0  0  0  0
   37.2211   24.5194   36.4646 H   0  0  0  0  0  0  0  0  0  0  0  0
   36.6183   23.2956   38.8079 H   0  0  0  0  0  0  0  0  0  0  0  0
   43.4313   26.2983   35.2007 H   0  0  0  0  0  0  0  0  0  0  0  0
   43.3482   22.3874   33.2923 H   0  0  0  0  0  0  0  0  0  0  0  0
   47.0183   24.4631   33.9053 H   0  0  0  0  0  0  0  0  0  0  0  0
  1  7  1  0
  2  3  2  0
  2  1  1  0
  3  4  1  0
  4  5  2  0
  4  6  1  0
  6 11  1  0
  7  6  1  0
  7  8  2  0
 10  9  1  0
 11 12  1  0
 11 10  2  0
 12 13  2  0
 13  9  1  0
 15  1  1  0
 15 14  2  0
 16 15  1  0
 17 16  2  0
 17 18  1  0
 18 19  2  0
 19 14  1  0
  2 20  1  0
  3 21  1  0
  9 22  1  0
 12 23  1  0
 13 24  1  0
 14 25  1  0
 16 26  1  0
 18 27  1  0
M  ISO  8  20  14  21  14  22   9  23  14  24  14  25  14  26  14  27  14
M  END
>  <minimizedAffinity>  (1) 
-4.29976082

>  <minimizedRMSD>  (1) 
4.05583382

$$$$
