
     RDKit          3D

 23 24  0  0  0  0  0  0  0  0999 V2000
   40.8990   23.7770   35.5610 N   0  0  0  0  0  0  0  0  0  0  0  0
   41.7400   24.7110   35.1010 C   0  0  0  0  0  0  0  0  0  0  0  0
   41.2600   25.9850   34.7970 C   0  0  0  0  0  0  0  0  0  0  0  0
   39.9050   26.2020   34.9990 C   0  0  0  0  0  0  0  0  0  0  0  0
   39.3920   27.2970   34.7590 O   0  0  0  0  0  0  0  0  0  0  0  0
   39.0810   25.2530   35.4620 N   0  0  0  0  0  0  0  0  0  0  0  0
   39.5840   24.0240   35.7470 C   0  0  0  0  0  0  0  0  0  0  0  0
   38.8600   23.1000   36.1810 O   0  0  0  0  0  0  0  0  0  0  0  0
   41.5770   22.2000   37.1920 C   0  0  0  0  0  0  0  0  0  0  0  0
   41.5180   22.5450   35.8240 C   0  0  0  0  0  0  0  0  0  0  0  0
   42.0640   21.6490   34.8990 C   0  0  0  0  0  0  0  0  0  0  0  0
   42.6220   20.5010   35.3450 N   0  0  0  0  0  0  0  0  0  0  0  0
   42.6630   20.2030   36.6600 C   0  0  0  0  0  0  0  0  0  0  0  0
   42.1450   21.0420   37.5800 N   0  0  0  0  0  0  0  0  0  0  0  0
   37.6500   25.5230   35.6620 C   0  0  0  0  0  0  0  0  0  0  0  0
   42.8055   24.4750   34.9632 H   0  0  0  0  0  0  0  0  0  0  0  0
   41.9220   26.7768   34.4166 H   0  0  0  0  0  0  0  0  0  0  0  0
   41.1562   22.8816   37.9459 H   0  0  0  0  0  0  0  0  0  0  0  0
   42.0397   21.8754   33.8228 H   0  0  0  0  0  0  0  0  0  0  0  0
   43.1264   19.2605   36.9871 H   0  0  0  0  0  0  0  0  0  0  0  0
   37.4317   25.5642   36.7393 H   0  0  0  0  0  0  0  0  0  0  0  0
   37.3902   26.4860   35.1982 H   0  0  0  0  0  0  0  0  0  0  0  0
   37.0572   24.7209   35.1982 H   0  0  0  0  0  0  0  0  0  0  0  0
  1  7  1  0
  1 10  1  0
  2  1  1  0
  3  4  1  0
  3  2  2  0
  4  6  1  0
  5  4  2  0
  6 15  1  0
  6  7  1  0
  7  8  2  0
  9 14  2  0
 10  9  1  0
 11 12  1  0
 11 10  2  0
 12 13  2  0
 13 14  1  0
  2 16  1  0
  3 17  1  0
  9 18  1  0
 11 19  1  0
 13 20  1  0
 15 21  1  0
 15 22  1  0
 15 23  1  0
M  ISO  8  16  14  17  14  18  14  19  14  20  14  21   8  22   8  23   8
M  END
>  <minimizedAffinity>  (1) 
-3.37918043

>  <minimizedRMSD>  (1) 
1.50781727

$$$$
