
     RDKit          3D

 27 29  0  0  0  0  0  0  0  0999 V2000
   39.0340   25.3440   34.3260 N   0  0  0  0  0  0  0  0  0  0  0  0
   40.3490   25.5360   34.4600 C   0  0  0  0  0  0  0  0  0  0  0  0
   41.0140   26.3920   33.5790 C   0  0  0  0  0  0  0  0  0  0  0  0
   40.2530   27.0040   32.5960 C   0  0  0  0  0  0  0  0  0  0  0  0
   40.7660   27.7750   31.7790 O   0  0  0  0  0  0  0  0  0  0  0  0
   38.9350   26.8000   32.4780 N   0  0  0  0  0  0  0  0  0  0  0  0
   38.3130   25.9630   33.3490 C   0  0  0  0  0  0  0  0  0  0  0  0
   37.0810   25.7400   33.2780 O   0  0  0  0  0  0  0  0  0  0  0  0
   38.0990   27.3980   31.4940 C   0  0  0  0  0  0  0  0  0  0  0  0
   38.3090   28.0320   30.2900 C   0  0  0  0  0  0  0  0  0  0  0  0
   37.0580   28.3830   29.8230 C   0  0  0  0  0  0  0  0  0  0  0  0
   36.1290   27.9740   30.7170 N   0  0  0  0  0  0  0  0  0  0  0  0
   36.7900   27.3830   31.7140 N   0  0  0  0  0  0  0  0  0  0  0  0
   38.2040   25.0420   36.5180 C   0  0  0  0  0  0  0  0  0  0  0  0
   38.4780   24.4670   35.2670 C   0  0  0  0  0  0  0  0  0  0  0  0
   38.1800   23.1110   35.0820 C   0  0  0  0  0  0  0  0  0  0  0  0
   37.6420   22.4160   36.1140 N   0  0  0  0  0  0  0  0  0  0  0  0
   37.3920   22.9970   37.2980 C   0  0  0  0  0  0  0  0  0  0  0  0
   37.6680   24.3060   37.5120 N   0  0  0  0  0  0  0  0  0  0  0  0
   40.9047   25.0233   35.2590 H   0  0  0  0  0  0  0  0  0  0  0  0
   42.0959   26.5726   33.6621 H   0  0  0  0  0  0  0  0  0  0  0  0
   39.2758   28.2204   29.8003 H   0  0  0  0  0  0  0  0  0  0  0  0
   36.8509   28.9087   28.8792 H   0  0  0  0  0  0  0  0  0  0  0  0
   35.1089   28.0953   30.6425 H   0  0  0  0  0  0  0  0  0  0  0  0
   38.4292   26.1050   36.6890 H   0  0  0  0  0  0  0  0  0  0  0  0
   38.3787   22.6196   34.1181 H   0  0  0  0  0  0  0  0  0  0  0  0
   36.9544   22.3984   38.1105 H   0  0  0  0  0  0  0  0  0  0  0  0
  1  2  1  0
  1 15  1  0
  3  2  2  0
  4  3  1  0
  5  4  2  0
  6  4  1  0
  6  7  1  0
  7  1  1  0
  8  7  2  0
  9 13  2  0
  9  6  1  0
 10  9  1  0
 11 10  2  0
 11 12  1  0
 12 13  1  0
 14 19  2  0
 15 14  1  0
 16 15  2  0
 16 17  1  0
 17 18  2  0
 18 19  1  0
  2 20  1  0
  3 21  1  0
 10 22  1  0
 11 23  1  0
 12 24  1  0
 14 25  1  0
 16 26  1  0
 18 27  1  0
M  ISO  8  20  14  21  14  22  14  23  14  24   9  25  14  26  14  27  14
M  END
>  <minimizedAffinity>  (1) 
-4.43926048

>  <minimizedRMSD>  (1) 
4.46689034

$$$$
