
     RDKit          3D

 34 36  0  0  0  0  0  0  0  0999 V2000
   39.4010   25.2070   33.1700 N   0  0  0  0  0  0  0  0  0  0  0  0
   40.6840   25.4620   33.4470 C   0  0  0  0  0  0  0  0  0  0  0  0
   41.3630   26.4620   32.7280 C   0  0  0  0  0  0  0  0  0  0  0  0
   40.6400   27.1300   31.7590 C   0  0  0  0  0  0  0  0  0  0  0  0
   41.1650   28.0240   31.0810 O   0  0  0  0  0  0  0  0  0  0  0  0
   39.3580   26.8620   31.4950 N   0  0  0  0  0  0  0  0  0  0  0  0
   38.7260   25.8900   32.2060 C   0  0  0  0  0  0  0  0  0  0  0  0
   37.5280   25.5990   31.9990 O   0  0  0  0  0  0  0  0  0  0  0  0
   38.5690   27.5120   30.5170 C   0  0  0  0  0  0  0  0  0  0  0  0
   38.8270   28.2980   29.4090 C   0  0  0  0  0  0  0  0  0  0  0  0
   37.6050   28.6210   28.8710 C   0  0  0  0  0  0  0  0  0  0  0  0
   36.6420   28.0530   29.6220 N   0  0  0  0  0  0  0  0  0  0  0  0
   37.2410   27.3900   30.6070 N   0  0  0  0  0  0  0  0  0  0  0  0
   38.2700   24.6230   35.1520 C   0  0  0  0  0  0  0  0  0  0  0  0
   38.8380   24.1900   33.9560 C   0  0  0  0  0  0  0  0  0  0  0  0
   38.7910   22.8300   33.6680 C   0  0  0  0  0  0  0  0  0  0  0  0
   38.2100   21.9820   34.5350 N   0  0  0  0  0  0  0  0  0  0  0  0
   37.6670   22.4290   35.6890 C   0  0  0  0  0  0  0  0  0  0  0  0
   37.6990   23.7390   35.9930 N   0  0  0  0  0  0  0  0  0  0  0  0
   37.0530   21.5200   36.6040 N   0  0  0  0  0  0  0  0  0  0  0  0
   35.7550   20.9430   36.3570 C   0  0  0  0  0  0  0  0  0  0  0  0
   35.4820   20.7140   35.1000 N   0  0  0  0  0  0  0  0  0  0  0  0
   34.9160   20.6830   37.4740 N   0  0  0  0  0  0  0  0  0  0  0  0
   34.5540   20.2960   34.8760 H   0  0  0  0  0  0  0  0  0  0  0  0
   41.2048   24.8936   34.2317 H   0  0  0  0  0  0  0  0  0  0  0  0
   42.4181   26.7005   32.9275 H   0  0  0  0  0  0  0  0  0  0  0  0
   39.8145   28.6038   29.0331 H   0  0  0  0  0  0  0  0  0  0  0  0
   37.4405   29.2399   27.9766 H   0  0  0  0  0  0  0  0  0  0  0  0
   35.6266   28.1199   29.4625 H   0  0  0  0  0  0  0  0  0  0  0  0
   38.2878   25.6919   35.4110 H   0  0  0  0  0  0  0  0  0  0  0  0
   39.2281   22.4490   32.7332 H   0  0  0  0  0  0  0  0  0  0  0  0
   37.5538   21.2686   37.4682 H   0  0  0  0  0  0  0  0  0  0  0  0
   33.9826   20.2712   37.3322 H   0  0  0  0  0  0  0  0  0  0  0  0
   35.2413   20.9063   38.4254 H   0  0  0  0  0  0  0  0  0  0  0  0
  1  2  1  0
  1 15  1  0
  3  2  2  0
  4  3  1  0
  5  4  2  0
  6  4  1  0
  6  7  1  0
  7  1  1  0
  8  7  2  0
  9 13  2  0
  9  6  1  0
 10  9  1  0
 11 10  2  0
 11 12  1  0
 12 13  1  0
 14 19  2  0
 15 14  1  0
 16 15  2  0
 16 17  1  0
 17 18  2  0
 18 19  1  0
 18 20  1  0
 21 20  1  0
 21 23  1  0
 22 21  2  0
 24 22  1  0
  2 25  1  0
  3 26  1  0
 10 27  1  0
 11 28  1  0
 12 29  1  0
 14 30  1  0
 16 31  1  0
 20 32  1  0
 23 33  1  0
 23 34  1  0
M  ISO  7  25  14  26  14  27  14  28  14  29   9  30  14  31  14
M  END
>  <minimizedAffinity>  (1) 
-6.27824163

>  <minimizedRMSD>  (1) 
1.49767601

$$$$
