
     RDKit          3D

 41 44  0  0  0  0  0  0  0  0999 V2000
   36.3580   27.8050   31.2970 N   0  0  0  0  0  0  0  0  0  0  0  0
   36.8220   28.2160   30.1040 C   0  0  0  0  0  0  0  0  0  0  0  0
   36.9700   29.5810   29.8420 C   0  0  0  0  0  0  0  0  0  0  0  0
   36.6130   30.4490   30.8690 C   0  0  0  0  0  0  0  0  0  0  0  0
   36.7140   31.6690   30.7160 O   0  0  0  0  0  0  0  0  0  0  0  0
   36.1550   30.0310   32.0450 N   0  0  0  0  0  0  0  0  0  0  0  0
   36.0240   28.6920   32.2650 C   0  0  0  0  0  0  0  0  0  0  0  0
   35.5950   28.2440   33.3600 O   0  0  0  0  0  0  0  0  0  0  0  0
   35.7730   30.8660   33.1330 C   0  0  0  0  0  0  0  0  0  0  0  0
   35.4620   32.2000   33.2670 C   0  0  0  0  0  0  0  0  0  0  0  0
   35.1750   32.3950   34.5890 C   0  0  0  0  0  0  0  0  0  0  0  0
   35.3070   31.2170   35.2380 N   0  0  0  0  0  0  0  0  0  0  0  0
   35.6700   30.3100   34.3350 N   0  0  0  0  0  0  0  0  0  0  0  0
   37.4310   25.7920   31.9030 C   0  0  0  0  0  0  0  0  0  0  0  0
   36.2590   26.4220   31.4280 C   0  0  0  0  0  0  0  0  0  0  0  0
   35.1610   25.6180   31.1480 C   0  0  0  0  0  0  0  0  0  0  0  0
   35.2590   24.2810   31.3400 N   0  0  0  0  0  0  0  0  0  0  0  0
   36.3800   23.7190   31.7900 C   0  0  0  0  0  0  0  0  0  0  0  0
   37.4700   24.4530   32.0740 N   0  0  0  0  0  0  0  0  0  0  0  0
   36.4120   22.3070   31.9680 N   0  0  0  0  0  0  0  0  0  0  0  0
   35.1810   21.5360   31.9830 C   0  0  0  0  0  0  0  0  0  0  0  0
   35.5540   20.1640   31.4670 C   0  0  0  0  0  0  0  0  0  0  0  0
   36.5800   20.2040   30.4650 N   0  0  0  0  0  0  0  0  0  0  0  0
   37.8290   20.7560   30.8690 C   0  0  0  0  0  0  0  0  0  0  0  0
   37.6460   21.5570   32.1410 C   0  0  0  0  0  0  0  0  0  0  0  0
   37.0855   27.4770   29.3330 H   0  0  0  0  0  0  0  0  0  0  0  0
   37.3480   29.9488   28.8767 H   0  0  0  0  0  0  0  0  0  0  0  0
   35.4473   32.9577   32.4697 H   0  0  0  0  0  0  0  0  0  0  0  0
   34.8849   33.3515   35.0482 H   0  0  0  0  0  0  0  0  0  0  0  0
   35.1550   31.0523   36.2433 H   0  0  0  0  0  0  0  0  0  0  0  0
   38.3195   26.3974   32.1356 H   0  0  0  0  0  0  0  0  0  0  0  0
   34.2255   26.0611   30.7757 H   0  0  0  0  0  0  0  0  0  0  0  0
   34.7840   21.4664   33.0065 H   0  0  0  0  0  0  0  0  0  0  0  0
   34.3999   22.0043   31.3661 H   0  0  0  0  0  0  0  0  0  0  0  0
   35.9118   19.5568   32.3115 H   0  0  0  0  0  0  0  0  0  0  0  0
   34.6559   19.7307   31.0025 H   0  0  0  0  0  0  0  0  0  0  0  0
   36.2281   20.7655   29.6765 H   0  0  0  0  0  0  0  0  0  0  0  0
   38.5470   19.9424   31.0494 H   0  0  0  0  0  0  0  0  0  0  0  0
   38.2095   21.4154   30.0750 H   0  0  0  0  0  0  0  0  0  0  0  0
   38.4934   22.2433   32.2858 H   0  0  0  0  0  0  0  0  0  0  0  0
   37.6004   20.9043   33.0253 H   0  0  0  0  0  0  0  0  0  0  0  0
  1 15  1  0
  1  7  1  0
  2  1  1  0
  3  2  2  0
  3  4  1  0
  4  6  1  0
  5  4  2  0
  6  7  1  0
  6  9  1  0
  7  8  2  0
  9 10  1  0
  9 13  2  0
 10 11  2  0
 11 12  1  0
 13 12  1  0
 14 19  2  0
 15 14  1  0
 16 17  1  0
 16 15  2  0
 17 18  2  0
 18 20  1  0
 18 19  1  0
 20 21  1  0
 20 25  1  0
 22 21  1  0
 23 24  1  0
 23 22  1  0
 24 25  1  0
  2 26  1  0
  3 27  1  0
 10 28  1  0
 11 29  1  0
 12 30  1  0
 14 31  1  0
 16 32  1  0
 21 33  1  0
 21 34  1  0
 22 35  1  0
 22 36  1  0
 23 37  1  0
 24 38  1  0
 24 39  1  0
 25 40  1  0
 25 41  1  0
M  ISO  8  26  14  27  14  28  14  29  14  30   9  31  14  32  14  33  13
M  ISO  8  34  13  35  13  36  13  37   5  38  13  39  13  40  13  41  13
M  END
>  <minimizedAffinity>  (1) 
-5.62225389

>  <minimizedRMSD>  (1) 
6.01313543

$$$$
