
     RDKit          3D

 34 37  0  0  0  0  0  0  0  0999 V2000
   38.9630   24.4820   35.1890 N   0  0  0  0  0  0  0  0  0  0  0  0
   38.1990   23.4900   35.6730 C   0  0  0  0  0  0  0  0  0  0  0  0
   38.7970   22.4120   36.3260 C   0  0  0  0  0  0  0  0  0  0  0  0
   40.1800   22.4340   36.4380 C   0  0  0  0  0  0  0  0  0  0  0  0
   40.7890   21.5160   37.0030 O   0  0  0  0  0  0  0  0  0  0  0  0
   40.9350   23.4360   35.9470 N   0  0  0  0  0  0  0  0  0  0  0  0
   40.3190   24.4650   35.3190 C   0  0  0  0  0  0  0  0  0  0  0  0
   40.9720   25.4180   34.8460 O   0  0  0  0  0  0  0  0  0  0  0  0
   42.3450   23.5100   36.0320 C   0  0  0  0  0  0  0  0  0  0  0  0
   43.3600   22.6110   36.2970 C   0  0  0  0  0  0  0  0  0  0  0  0
   44.5300   23.3300   36.2260 C   0  0  0  0  0  0  0  0  0  0  0  0
   44.2350   24.6220   35.9270 N   0  0  0  0  0  0  0  0  0  0  0  0
   42.9070   24.6870   35.8180 N   0  0  0  0  0  0  0  0  0  0  0  0
   37.7410   26.4880   35.4370 C   0  0  0  0  0  0  0  0  0  0  0  0
   38.2470   25.5080   34.5540 C   0  0  0  0  0  0  0  0  0  0  0  0
   38.0010   25.6430   33.1920 C   0  0  0  0  0  0  0  0  0  0  0  0
   37.2820   26.7120   32.7660 N   0  0  0  0  0  0  0  0  0  0  0  0
   36.8120   27.6290   33.6120 C   0  0  0  0  0  0  0  0  0  0  0  0
   37.0350   27.5270   34.9540 N   0  0  0  0  0  0  0  0  0  0  0  0
   36.0550   28.7620   33.1960 N   0  0  0  0  0  0  0  0  0  0  0  0
   35.7130   29.8080   33.8970 N   0  0  0  0  0  0  0  0  0  0  0  0
   34.9880   30.6740   33.1320 C   0  0  0  0  0  0  0  0  0  0  0  0
   34.9110   30.0620   31.8800 C   0  0  0  0  0  0  0  0  0  0  0  0
   35.5900   28.8490   31.9270 C   0  0  0  0  0  0  0  0  0  0  0  0
   37.1060   23.5270   35.5552 H   0  0  0  0  0  0  0  0  0  0  0  0
   38.1998   21.5828   36.7333 H   0  0  0  0  0  0  0  0  0  0  0  0
   43.2539   21.5390   36.5194 H   0  0  0  0  0  0  0  0  0  0  0  0
   45.5402   22.9250   36.3853 H   0  0  0  0  0  0  0  0  0  0  0  0
   44.9033   25.3967   35.8082 H   0  0  0  0  0  0  0  0  0  0  0  0
   37.9239   26.4019   36.5183 H   0  0  0  0  0  0  0  0  0  0  0  0
   38.3809   24.8996   32.4758 H   0  0  0  0  0  0  0  0  0  0  0  0
   34.5591   31.6406   33.4348 H   0  0  0  0  0  0  0  0  0  0  0  0
   34.3965   30.4726   30.9986 H   0  0  0  0  0  0  0  0  0  0  0  0
   35.7205   28.1209   31.1129 H   0  0  0  0  0  0  0  0  0  0  0  0
  1  7  1  0
  1  2  1  0
  2  3  2  0
  3  4  1  0
  4  5  2  0
  6  9  1  0
  6  4  1  0
  7  6  1  0
  8  7  2  0
  9 10  1  0
 11 10  2  0
 12 11  1  0
 13 12  1  0
 13  9  2  0
 15  1  1  0
 15 14  2  0
 16 15  1  0
 17 16  2  0
 17 18  1  0
 18 19  2  0
 19 14  1  0
 20 18  1  0
 20 21  1  0
 22 21  2  0
 23 24  2  0
 23 22  1  0
 24 20  1  0
  2 25  1  0
  3 26  1  0
 10 27  1  0
 11 28  1  0
 12 29  1  0
 14 30  1  0
 16 31  1  0
 22 32  1  0
 23 33  1  0
 24 34  1  0
M  ISO  8  25  14  26  14  27  14  28  14  29   9  30  14  31  14  32  14
M  ISO  2  33  14  34  14
M  END
>  <minimizedAffinity>  (1) 
-5.58165598

>  <minimizedRMSD>  (1) 
7.26300859

$$$$
