
     RDKit          3D

 40 43  0  0  0  0  0  0  0  0999 V2000
   39.0880   24.9440   33.7730 N   0  0  0  0  0  0  0  0  0  0  0  0
   38.0430   24.1580   34.0930 C   0  0  0  0  0  0  0  0  0  0  0  0
   38.2240   23.1140   35.0070 C   0  0  0  0  0  0  0  0  0  0  0  0
   39.4920   22.9460   35.5390 C   0  0  0  0  0  0  0  0  0  0  0  0
   39.7310   22.0530   36.3480 O   0  0  0  0  0  0  0  0  0  0  0  0
   40.5160   23.7370   35.2090 N   0  0  0  0  0  0  0  0  0  0  0  0
   40.3220   24.7500   34.3170 C   0  0  0  0  0  0  0  0  0  0  0  0
   41.2510   25.5210   33.9730 O   0  0  0  0  0  0  0  0  0  0  0  0
   41.8450   23.6240   35.7150 C   0  0  0  0  0  0  0  0  0  0  0  0
   42.5590   22.6390   36.3600 C   0  0  0  0  0  0  0  0  0  0  0  0
   43.8060   23.1600   36.5840 C   0  0  0  0  0  0  0  0  0  0  0  0
   43.8440   24.4250   36.0860 N   0  0  0  0  0  0  0  0  0  0  0  0
   42.6480   24.6700   35.5710 N   0  0  0  0  0  0  0  0  0  0  0  0
   37.8470   26.8900   33.3070 C   0  0  0  0  0  0  0  0  0  0  0  0
   38.7830   25.9540   32.8480 C   0  0  0  0  0  0  0  0  0  0  0  0
   39.3030   26.1120   31.5670 C   0  0  0  0  0  0  0  0  0  0  0  0
   38.8900   27.1520   30.8170 N   0  0  0  0  0  0  0  0  0  0  0  0
   37.9960   28.0340   31.2720 C   0  0  0  0  0  0  0  0  0  0  0  0
   37.4690   27.9130   32.5110 N   0  0  0  0  0  0  0  0  0  0  0  0
   37.6130   29.1040   30.4140 N   0  0  0  0  0  0  0  0  0  0  0  0
   38.3500   29.2510   29.2750 C   0  0  0  0  0  0  0  0  0  0  0  0
   38.1040   30.2370   28.3460 C   0  0  0  0  0  0  0  0  0  0  0  0
   38.9710   30.3160   27.1240 C   0  0  0  0  0  0  0  0  0  0  0  0
   37.0590   31.0970   28.6140 C   0  0  0  0  0  0  0  0  0  0  0  0
   36.8380   31.9960   27.7640 O   0  0  0  0  0  0  0  0  0  0  0  0
   36.3350   30.9410   29.7470 N   0  0  0  0  0  0  0  0  0  0  0  0
   36.6030   29.9730   30.6250 C   0  0  0  0  0  0  0  0  0  0  0  0
   35.9440   29.8030   31.6930 O   0  0  0  0  0  0  0  0  0  0  0  0
   37.0562   24.3348   33.6403 H   0  0  0  0  0  0  0  0  0  0  0  0
   37.3923   22.4528   35.2918 H   0  0  0  0  0  0  0  0  0  0  0  0
   42.2007   21.6370   36.6388 H   0  0  0  0  0  0  0  0  0  0  0  0
   44.6378   22.6417   37.0834 H   0  0  0  0  0  0  0  0  0  0  0  0
   44.6478   25.0687   36.1054 H   0  0  0  0  0  0  0  0  0  0  0  0
   37.4200   26.7914   34.3160 H   0  0  0  0  0  0  0  0  0  0  0  0
   40.0408   25.3979   31.1724 H   0  0  0  0  0  0  0  0  0  0  0  0
   39.1777   28.5504   29.0908 H   0  0  0  0  0  0  0  0  0  0  0  0
   40.0240   30.4120   27.4271 H   0  0  0  0  0  0  0  0  0  0  0  0
   38.8438   29.4025   26.5245 H   0  0  0  0  0  0  0  0  0  0  0  0
   38.6808   31.1914   26.5245 H   0  0  0  0  0  0  0  0  0  0  0  0
   35.5558   31.5874   29.9365 H   0  0  0  0  0  0  0  0  0  0  0  0
  1  2  1  0
  1  7  1  0
  2  3  2  0
  3  4  1  0
  4  5  2  0
  6  4  1  0
  6  9  1  0
  7  6  1  0
  8  7  2  0
  9 10  1  0
 10 11  2  0
 12 11  1  0
 13  9  2  0
 13 12  1  0
 15 14  2  0
 15  1  1  0
 16 15  1  0
 17 18  1  0
 17 16  2  0
 18 19  2  0
 19 14  1  0
 20 27  1  0
 20 18  1  0
 21 20  1  0
 22 24  1  0
 22 21  2  0
 23 22  1  0
 24 26  1  0
 25 24  2  0
 26 27  1  0
 27 28  2  0
  2 29  1  0
  3 30  1  0
 10 31  1  0
 11 32  1  0
 12 33  1  0
 14 34  1  0
 16 35  1  0
 21 36  1  0
 23 37  1  0
 23 38  1  0
 23 39  1  0
 26 40  1  0
M  ISO  8  29  14  30  14  31  14  32  14  33   9  34  14  35  14  36  14
M  ISO  4  37   8  38   8  39   8  40   9
M  END
>  <minimizedAffinity>  (1) 
-5.53927422

>  <minimizedRMSD>  (1) 
9.49937439

$$$$
