
     RDKit          3D

 43 46  0  0  0  0  0  0  0  0999 V2000
   37.2720   22.5790   37.1980 C   0  0  0  0  0  0  0  0  0  0  0  0
   36.9690   21.9180   35.9350 C   0  0  0  0  0  0  0  0  0  0  0  0
   35.8860   21.1640   35.7140 C   0  0  0  0  0  0  0  0  0  0  0  0
   35.5890   20.5550   34.5390 C   0  0  0  0  0  0  0  0  0  0  0  0
   36.5870   20.8170   33.5430 C   0  0  0  0  0  0  0  0  0  0  0  0
   37.8590   21.9140   34.3920 S   0  0  0  0  0  0  0  0  0  0  0  0
   36.7690   20.4360   32.1700 C   0  0  0  0  0  0  0  0  0  0  0  0
   35.9990   19.5110   31.5320 C   0  0  0  0  0  0  0  0  0  0  0  0
   36.7650   19.4810   29.7920 S   0  0  0  0  0  0  0  0  0  0  0  0
   37.9960   20.7750   30.3460 C   0  0  0  0  0  0  0  0  0  0  0  0
   37.6740   20.9160   31.4010 N   0  0  0  0  0  0  0  0  0  0  0  0
   38.9780   21.2300   29.3460 C   0  0  0  0  0  0  0  0  0  0  0  0
   39.4870   20.4040   28.3700 C   0  0  0  0  0  0  0  0  0  0  0  0
   40.3940   21.0340   27.5370 C   0  0  0  0  0  0  0  0  0  0  0  0
   40.7580   22.3100   27.6440 N   0  0  0  0  0  0  0  0  0  0  0  0
   40.2370   23.0800   28.6100 C   0  0  0  0  0  0  0  0  0  0  0  0
   39.3360   22.4970   29.4570 N   0  0  0  0  0  0  0  0  0  0  0  0
   38.1540   23.7860   37.0810 C   0  0  0  0  0  0  0  0  0  0  0  0
   41.4560   22.0170   37.2430 C   0  0  0  0  0  0  0  0  0  0  0  0
   40.1510   22.3490   37.5640 C   0  0  0  0  0  0  0  0  0  0  0  0
   39.5170   23.3700   36.8190 C   0  0  0  0  0  0  0  0  0  0  0  0
   40.2280   23.9610   35.8340 N   0  0  0  0  0  0  0  0  0  0  0  0
   41.4900   23.6210   35.5440 C   0  0  0  0  0  0  0  0  0  0  0  0
   42.1000   22.6470   36.2500 N   0  0  0  0  0  0  0  0  0  0  0  0
   38.1380   24.5150   38.4270 C   0  0  0  0  0  0  0  0  0  0  0  0
   37.5720   24.6800   36.0170 C   0  0  0  0  0  0  0  0  0  0  0  0
   36.3225   22.8923   37.6565 H   0  0  0  0  0  0  0  0  0  0  0  0
   37.8268   21.8480   37.8044 H   0  0  0  0  0  0  0  0  0  0  0  0
   35.1829   21.0276   36.5489 H   0  0  0  0  0  0  0  0  0  0  0  0
   34.6944   19.9373   34.3710 H   0  0  0  0  0  0  0  0  0  0  0  0
   35.1509   18.9300   31.9234 H   0  0  0  0  0  0  0  0  0  0  0  0
   39.2009   19.3473   28.2629 H   0  0  0  0  0  0  0  0  0  0  0  0
   40.8461   20.4390   26.7298 H   0  0  0  0  0  0  0  0  0  0  0  0
   40.5226   24.1369   28.7166 H   0  0  0  0  0  0  0  0  0  0  0  0
   41.9708   21.2269   37.8094 H   0  0  0  0  0  0  0  0  0  0  0  0
   39.6210   21.8320   38.3775 H   0  0  0  0  0  0  0  0  0  0  0  0
   42.0275   24.1341   34.7329 H   0  0  0  0  0  0  0  0  0  0  0  0
   38.1542   23.7779   39.2434 H   0  0  0  0  0  0  0  0  0  0  0  0
   39.0221   25.1652   38.5024 H   0  0  0  0  0  0  0  0  0  0  0  0
   37.2262   25.1257   38.5024 H   0  0  0  0  0  0  0  0  0  0  0  0
   37.0308   25.5113   36.4923 H   0  0  0  0  0  0  0  0  0  0  0  0
   38.3828   25.0807   35.3909 H   0  0  0  0  0  0  0  0  0  0  0  0
   36.8775   24.1007   35.3909 H   0  0  0  0  0  0  0  0  0  0  0  0
  2  1  1  0
  3  2  2  0
  4  3  1  0
  5  6  1  0
  5  4  2  0
  6  2  1  0
  7  5  1  0
  8  7  2  0
  9 10  1  0
  9  8  1  0
 10 11  2  0
 11  7  1  0
 12 17  1  0
 12 10  1  0
 13 12  2  0
 14 15  2  0
 14 13  1  0
 15 16  1  0
 16 17  2  0
 18  1  1  0
 18 25  1  0
 19 20  2  0
 21 18  1  0
 21 20  1  0
 22 21  2  0
 23 22  1  0
 23 24  2  0
 24 19  1  0
 26 18  1  0
  1 27  1  0
  1 28  1  0
  3 29  1  0
  4 30  1  0
  8 31  1  0
 13 32  1  0
 14 33  1  0
 16 34  1  0
 19 35  1  0
 20 36  1  0
 23 37  1  0
 25 38  1  0
 25 39  1  0
 25 40  1  0
 26 41  1  0
 26 42  1  0
 26 43  1  0
M  ISO  8  27   8  28   8  29  14  30  14  31  14  32  14  33  14  34  14
M  ISO  8  35  14  36  14  37  14  38   8  39   8  40   8  41   8  42   8
M  ISO  1  43   8
M  END
>  <minimizedAffinity>  (1) 
-4.6843977

>  <minimizedRMSD>  (1) 
0.337038606

$$$$
