
     RDKit          3D

 29 31  0  0  0  0  0  0  0  0999 V2000
   39.1420   25.4090   34.2980 N   0  0  0  0  0  0  0  0  0  0  0  0
   40.4620   25.5900   34.3410 C   0  0  0  0  0  0  0  0  0  0  0  0
   41.0760   26.4080   33.4020 C   0  0  0  0  0  0  0  0  0  0  0  0
   40.2720   27.0060   32.4510 C   0  0  0  0  0  0  0  0  0  0  0  0
   40.7370   27.7460   31.5820 O   0  0  0  0  0  0  0  0  0  0  0  0
   38.9540   26.8200   32.4140 N   0  0  0  0  0  0  0  0  0  0  0  0
   38.3690   26.0090   33.3490 C   0  0  0  0  0  0  0  0  0  0  0  0
   37.1300   25.8000   33.3610 O   0  0  0  0  0  0  0  0  0  0  0  0
   38.0540   27.3950   31.4720 C   0  0  0  0  0  0  0  0  0  0  0  0
   38.1970   27.9860   30.2420 C   0  0  0  0  0  0  0  0  0  0  0  0
   36.9220   28.3350   29.8480 C   0  0  0  0  0  0  0  0  0  0  0  0
   36.0400   27.9680   30.8020 N   0  0  0  0  0  0  0  0  0  0  0  0
   36.7570   27.4040   31.7680 N   0  0  0  0  0  0  0  0  0  0  0  0
   38.3770   25.1910   36.5250 C   0  0  0  0  0  0  0  0  0  0  0  0
   38.6340   24.5650   35.2930 C   0  0  0  0  0  0  0  0  0  0  0  0
   38.3630   23.2040   35.1920 C   0  0  0  0  0  0  0  0  0  0  0  0
   37.8690   22.5440   36.2690 N   0  0  0  0  0  0  0  0  0  0  0  0
   37.6400   23.1760   37.4240 C   0  0  0  0  0  0  0  0  0  0  0  0
   37.8870   24.4930   37.5670 N   0  0  0  0  0  0  0  0  0  0  0  0
   37.1230   22.5150   38.5730 N   0  0  0  0  0  0  0  0  0  0  0  0
   41.0624   25.0933   35.1173 H   0  0  0  0  0  0  0  0  0  0  0  0
   42.1633   26.5739   33.4149 H   0  0  0  0  0  0  0  0  0  0  0  0
   39.1325   28.1476   29.6864 H   0  0  0  0  0  0  0  0  0  0  0  0
   36.6638   28.8350   28.9028 H   0  0  0  0  0  0  0  0  0  0  0  0
   35.0185   28.0987   30.7845 H   0  0  0  0  0  0  0  0  0  0  0  0
   38.5790   26.2662   36.6395 H   0  0  0  0  0  0  0  0  0  0  0  0
   38.5474   22.6690   34.2487 H   0  0  0  0  0  0  0  0  0  0  0  0
   36.9624   23.0434   39.4424 H   0  0  0  0  0  0  0  0  0  0  0  0
   36.9093   21.5081   38.5353 H   0  0  0  0  0  0  0  0  0  0  0  0
  1  2  1  0
  1 15  1  0
  3  2  2  0
  4  3  1  0
  5  4  2  0
  6  4  1  0
  6  7  1  0
  7  8  2  0
  7  1  1  0
  9 13  2  0
  9  6  1  0
 10  9  1  0
 11 10  2  0
 11 12  1  0
 12 13  1  0
 14 19  2  0
 15 14  1  0
 16 15  2  0
 16 17  1  0
 17 18  2  0
 18 19  1  0
 18 20  1  0
  2 21  1  0
  3 22  1  0
 10 23  1  0
 11 24  1  0
 12 25  1  0
 14 26  1  0
 16 27  1  0
 20 28  1  0
 20 29  1  0
M  ISO  7  21  14  22  14  23  14  24  14  25   9  26  14  27  14
M  END
>  <minimizedAffinity>  (1) 
-4.84089994

>  <minimizedRMSD>  (1) 
0.203392789

$$$$
