
     RDKit          3D

 34 37  0  0  0  0  0  0  0  0999 V2000
   38.8890   24.9190   32.9820 N   0  0  0  0  0  0  0  0  0  0  0  0
   37.9760   25.8410   33.3060 C   0  0  0  0  0  0  0  0  0  0  0  0
   37.6040   26.0170   34.6390 C   0  0  0  0  0  0  0  0  0  0  0  0
   38.2240   25.2000   35.5800 C   0  0  0  0  0  0  0  0  0  0  0  0
   37.9560   25.2910   36.7780 O   0  0  0  0  0  0  0  0  0  0  0  0
   39.1330   24.2890   35.2310 N   0  0  0  0  0  0  0  0  0  0  0  0
   39.4770   24.1380   33.9210 C   0  0  0  0  0  0  0  0  0  0  0  0
   40.3240   23.2930   33.5570 O   0  0  0  0  0  0  0  0  0  0  0  0
   39.8100   23.4170   36.1420 C   0  0  0  0  0  0  0  0  0  0  0  0
   39.5840   23.0010   37.4390 C   0  0  0  0  0  0  0  0  0  0  0  0
   40.6270   22.1480   37.7340 C   0  0  0  0  0  0  0  0  0  0  0  0
   41.4490   22.0490   36.6630 N   0  0  0  0  0  0  0  0  0  0  0  0
   40.9280   22.8320   35.7080 N   0  0  0  0  0  0  0  0  0  0  0  0
   38.3950   23.9270   30.9040 C   0  0  0  0  0  0  0  0  0  0  0  0
   39.1700   24.8460   31.6100 C   0  0  0  0  0  0  0  0  0  0  0  0
   40.1350   25.5980   30.9150 C   0  0  0  0  0  0  0  0  0  0  0  0
   40.2690   25.3960   29.5870 N   0  0  0  0  0  0  0  0  0  0  0  0
   39.5020   24.4960   28.9320 C   0  0  0  0  0  0  0  0  0  0  0  0
   38.5720   23.7650   29.5760 N   0  0  0  0  0  0  0  0  0  0  0  0
   39.7480   24.3750   27.4990 C   0  0  0  0  0  0  0  0  0  0  0  0
   39.5350   23.3830   26.5640 C   0  0  0  0  0  0  0  0  0  0  0  0
   40.0020   23.9210   25.3600 C   0  0  0  0  0  0  0  0  0  0  0  0
   40.4690   25.1800   25.5970 N   0  0  0  0  0  0  0  0  0  0  0  0
   40.3150   25.4520   26.8820 N   0  0  0  0  0  0  0  0  0  0  0  0
   37.5182   26.4609   32.5211 H   0  0  0  0  0  0  0  0  0  0  0  0
   36.8550   26.7671   34.9329 H   0  0  0  0  0  0  0  0  0  0  0  0
   38.7503   23.2884   38.0965 H   0  0  0  0  0  0  0  0  0  0  0  0
   40.7691   21.6278   38.6928 H   0  0  0  0  0  0  0  0  0  0  0  0
   42.3068   21.4829   36.5952 H   0  0  0  0  0  0  0  0  0  0  0  0
   37.6358   23.3312   31.4318 H   0  0  0  0  0  0  0  0  0  0  0  0
   40.7641   26.3317   31.4403 H   0  0  0  0  0  0  0  0  0  0  0  0
   39.0950   22.3884   26.7289 H   0  0  0  0  0  0  0  0  0  0  0  0
   39.9938   23.4129   24.3844 H   0  0  0  0  0  0  0  0  0  0  0  0
   40.8740   25.8133   24.8929 H   0  0  0  0  0  0  0  0  0  0  0  0
  1  2  1  0
  1  7  1  0
  2  3  2  0
  3  4  1  0
  4  5  2  0
  6  4  1  0
  6  9  1  0
  7  6  1  0
  8  7  2  0
  9 10  1  0
 10 11  2  0
 12 11  1  0
 13  9  2  0
 13 12  1  0
 14 15  2  0
 15  1  1  0
 16 15  1  0
 17 16  2  0
 18 19  2  0
 18 17  1  0
 19 14  1  0
 20 18  1  0
 21 20  1  0
 22 23  1  0
 22 21  2  0
 23 24  1  0
 24 20  2  0
  2 25  1  0
  3 26  1  0
 10 27  1  0
 11 28  1  0
 12 29  1  0
 14 30  1  0
 16 31  1  0
 21 32  1  0
 22 33  1  0
 23 34  1  0
M  ISO  8  25  14  26  14  27  14  28  14  29   9  30  14  31  14  32  14
M  ISO  2  33  14  34   9
M  END
>  <minimizedAffinity>  (1) 
-4.63805532

>  <minimizedRMSD>  (1) 
8.43550014

$$$$
