
     RDKit          3D

 53 56  0  0  1  0  0  0  0  0999 V2000
   37.7130   27.0530   35.2460 C   0  0  0  0  0  0  0  0  0  0  0  0
   37.4260   26.6640   33.9360 C   0  0  0  0  0  0  0  0  0  0  0  0
   37.4560   25.2940   33.6450 C   0  0  0  0  0  0  0  0  0  0  0  0
   37.7560   24.4140   34.6240 N   0  0  0  0  0  0  0  0  0  0  0  0
   38.0240   24.8130   35.8590 C   0  0  0  0  0  0  0  0  0  0  0  0
   38.0060   26.1460   36.1880 N   0  0  0  0  0  0  0  0  0  0  0  0
   37.1390   27.7010   33.0560 N   0  0  0  0  0  0  0  0  0  0  0  0
   37.8690   27.6770   31.9180 C   0  0  0  0  0  0  0  0  0  0  0  0
   37.6730   28.6690   30.9480 C   0  0  0  0  0  0  0  0  0  0  0  0
   36.7220   29.6380   31.2200 C   0  0  0  0  0  0  0  0  0  0  0  0
   36.4870   30.5450   30.4230 O   0  0  0  0  0  0  0  0  0  0  0  0
   36.0040   29.6440   32.3620 N   0  0  0  0  0  0  0  0  0  0  0  0
   36.2190   28.6620   33.2870 C   0  0  0  0  0  0  0  0  0  0  0  0
   35.5720   28.6340   34.3610 O   0  0  0  0  0  0  0  0  0  0  0  0
   35.0150   30.6060   32.7030 C   0  0  0  0  0  0  0  0  0  0  0  0
   34.2750   31.5200   31.9820 C   0  0  0  0  0  0  0  0  0  0  0  0
   33.4810   32.1580   32.9270 C   0  0  0  0  0  0  0  0  0  0  0  0
   33.7390   31.6450   34.1460 N   0  0  0  0  0  0  0  0  0  0  0  0
   34.6730   30.7040   33.9920 N   0  0  0  0  0  0  0  0  0  0  0  0
   38.3420   23.7680   36.8830 C   0  0  0  0  0  0  0  0  0  0  0  0
   38.0050   24.3510   38.2670 C   0  0  0  0  0  0  0  0  0  0  0  0
   37.4200   22.6120   36.6780 C   0  0  0  0  0  0  0  0  0  0  0  0
   39.8020   23.4700   36.8790 C   0  0  0  0  0  0  0  0  0  0  0  0
   40.2760   22.2210   36.2670 C   0  0  2  0  0  0  0  0  0  0  0  0
   41.6570   21.9160   36.8690 C   0  0  0  0  0  0  0  0  0  0  0  0
   42.5210   23.1020   36.6420 C   0  0  0  0  0  0  0  0  0  0  0  0
   42.5080   23.6460   35.2680 C   0  0  0  0  0  0  0  0  0  0  0  0
   41.5630   23.0670   34.2920 C   0  0  0  0  0  0  0  0  0  0  0  0
   40.5140   22.1710   34.8040 C   0  0  0  0  0  0  0  0  0  0  0  0
   37.6984   28.1210   35.5090 H   0  0  0  0  0  0  0  0  0  0  0  0
   37.2370   24.9382   32.6274 H   0  0  0  0  0  0  0  0  0  0  0  0
   38.6126   26.8831   31.7546 H   0  0  0  0  0  0  0  0  0  0  0  0
   38.2495   28.6776   30.0112 H   0  0  0  0  0  0  0  0  0  0  0  0
   34.3066   31.7033   30.8978 H   0  0  0  0  0  0  0  0  0  0  0  0
   32.7555   32.9567   32.7135 H   0  0  0  0  0  0  0  0  0  0  0  0
   33.2972   31.9269   35.0327 H   0  0  0  0  0  0  0  0  0  0  0  0
   38.3914   23.6825   39.0505 H   0  0  0  0  0  0  0  0  0  0  0  0
   38.4689   25.3431   38.3698 H   0  0  0  0  0  0  0  0  0  0  0  0
   36.9138   24.4441   38.3698 H   0  0  0  0  0  0  0  0  0  0  0  0
   37.1047   22.2167   37.6549 H   0  0  0  0  0  0  0  0  0  0  0  0
   36.5358   22.9438   36.1140 H   0  0  0  0  0  0  0  0  0  0  0  0
   37.9401   21.8237   36.1140 H   0  0  0  0  0  0  0  0  0  0  0  0
   40.2974   24.2964   36.3483 H   0  0  0  0  0  0  0  0  0  0  0  0
   40.0479   23.3496   37.9444 H   0  0  0  0  0  0  0  0  0  0  0  0
   39.4475   21.5258   36.4676 H   0  0  0  0  0  0  0  0  0  0  0  0
   41.5611   21.7235   37.9478 H   0  0  0  0  0  0  0  0  0  0  0  0
   42.0948   21.0245   36.3961 H   0  0  0  0  0  0  0  0  0  0  0  0
   42.1895   23.8982   37.3247 H   0  0  0  0  0  0  0  0  0  0  0  0
   43.5518   22.7632   36.8225 H   0  0  0  0  0  0  0  0  0  0  0  0
   43.1860   24.4626   34.9792 H   0  0  0  0  0  0  0  0  0  0  0  0
   41.6406   23.2976   33.2192 H   0  0  0  0  0  0  0  0  0  0  0  0
   39.5718   22.4328   34.3002 H   0  0  0  0  0  0  0  0  0  0  0  0
   40.8665   21.1502   34.5947 H   0  0  0  0  0  0  0  0  0  0  0  0
  1  6  2  0
  2  1  1  0
  3  2  2  0
  3  4  1  0
  4  5  2  0
  5  6  1  0
  5 20  1  0
  7 13  1  0
  7  2  1  0
  8  7  1  0
  9 10  1  0
  9  8  2  0
 10 12  1  0
 11 10  2  0
 12 15  1  0
 12 13  1  0
 13 14  2  0
 15 19  2  0
 16 15  1  0
 16 17  2  0
 17 18  1  0
 19 18  1  0
 20 21  1  0
 22 20  1  0
 23 20  1  0
 24 25  1  0
 24 23  1  0
 26 25  1  0
 27 26  1  0
 28 29  1  0
 28 27  2  0
 29 24  1  0
  1 30  1  0
  3 31  1  0
  8 32  1  0
  9 33  1  0
 16 34  1  0
 17 35  1  0
 18 36  1  0
 21 37  1  0
 21 38  1  0
 21 39  1  0
 22 40  1  0
 22 41  1  0
 22 42  1  0
 23 43  1  0
 23 44  1  0
 24 45  1  6
 25 46  1  0
 25 47  1  0
 26 48  1  0
 26 49  1  0
 27 50  1  0
 28 51  1  0
 29 52  1  0
 29 53  1  0
M  ISO  8  30  14  31  14  32  14  33  14  34  14  35  14  36   9  37   8
M  ISO  8  38   8  39   8  40   8  41   8  42   8  43   8  44   8  45  13
M  ISO  8  46  13  47  13  48  13  49  13  50  13  51  13  52  13  53  13
M  END
>  <minimizedAffinity>  (1) 
-5.8485508

>  <minimizedRMSD>  (1) 
2.0097115

$$$$
