
     RDKit          3D

 46 49  0  0  0  0  0  0  0  0999 V2000
   38.5760   26.2050   34.7380 C   0  0  0  0  0  0  0  0  0  0  0  0
   38.1230   25.8220   33.4650 C   0  0  0  0  0  0  0  0  0  0  0  0
   37.7720   24.4850   33.2660 C   0  0  0  0  0  0  0  0  0  0  0  0
   37.8780   23.6130   34.2910 N   0  0  0  0  0  0  0  0  0  0  0  0
   38.3130   23.9940   35.4980 C   0  0  0  0  0  0  0  0  0  0  0  0
   38.6650   25.2980   35.7280 N   0  0  0  0  0  0  0  0  0  0  0  0
   38.0710   26.8440   32.5180 N   0  0  0  0  0  0  0  0  0  0  0  0
   39.0290   26.7910   31.5910 C   0  0  0  0  0  0  0  0  0  0  0  0
   39.0750   27.7690   30.5880 C   0  0  0  0  0  0  0  0  0  0  0  0
   38.1030   28.7580   30.6130 C   0  0  0  0  0  0  0  0  0  0  0  0
   38.0740   29.6480   29.7710 O   0  0  0  0  0  0  0  0  0  0  0  0
   37.1380   28.7910   31.5680 N   0  0  0  0  0  0  0  0  0  0  0  0
   37.1320   27.8250   32.5180 C   0  0  0  0  0  0  0  0  0  0  0  0
   36.2480   27.8270   33.4190 O   0  0  0  0  0  0  0  0  0  0  0  0
   36.1180   29.7730   31.6480 C   0  0  0  0  0  0  0  0  0  0  0  0
   35.5930   30.6970   30.7800 C   0  0  0  0  0  0  0  0  0  0  0  0
   34.6060   31.3610   31.4850 C   0  0  0  0  0  0  0  0  0  0  0  0
   34.5520   30.8420   32.7310 N   0  0  0  0  0  0  0  0  0  0  0  0
   35.4750   29.8850   32.8070 N   0  0  0  0  0  0  0  0  0  0  0  0
   38.4050   22.9910   36.5760 C   0  0  0  0  0  0  0  0  0  0  0  0
   38.5340   23.6950   37.9180 C   0  0  0  0  0  0  0  0  0  0  0  0
   37.1320   22.2010   36.6040 C   0  0  0  0  0  0  0  0  0  0  0  0
   39.6200   22.1110   36.3810 C   0  0  0  0  0  0  0  0  0  0  0  0
   40.6880   22.3570   37.3900 C   0  0  0  0  0  0  0  0  0  0  0  0
   42.0680   22.6980   36.7780 C   0  0  0  0  0  0  0  0  0  0  0  0
   41.8580   21.3490   37.3670 C   0  0  0  0  0  0  0  0  0  0  0  0
   38.8593   27.2510   34.9266 H   0  0  0  0  0  0  0  0  0  0  0  0
   37.4126   24.1457   32.2833 H   0  0  0  0  0  0  0  0  0  0  0  0
   39.7776   25.9853   31.6137 H   0  0  0  0  0  0  0  0  0  0  0  0
   39.8528   27.7527   29.8103 H   0  0  0  0  0  0  0  0  0  0  0  0
   35.8953   30.8734   29.7372 H   0  0  0  0  0  0  0  0  0  0  0  0
   33.9731   32.1729   31.0975 H   0  0  0  0  0  0  0  0  0  0  0  0
   33.9134   31.1333   33.4848 H   0  0  0  0  0  0  0  0  0  0  0  0
   38.4002   22.9646   38.7296 H   0  0  0  0  0  0  0  0  0  0  0  0
   39.5310   24.1529   37.9975 H   0  0  0  0  0  0  0  0  0  0  0  0
   37.7641   24.4767   37.9975 H   0  0  0  0  0  0  0  0  0  0  0  0
   36.8370   22.0179   37.6478 H   0  0  0  0  0  0  0  0  0  0  0  0
   36.3387   22.7657   36.0924 H   0  0  0  0  0  0  0  0  0  0  0  0
   37.2859   21.2394   36.0924 H   0  0  0  0  0  0  0  0  0  0  0  0
   39.3057   21.0593   36.4532 H   0  0  0  0  0  0  0  0  0  0  0  0
   40.0414   22.3481   35.3930 H   0  0  0  0  0  0  0  0  0  0  0  0
   40.0273   22.7804   38.1608 H   0  0  0  0  0  0  0  0  0  0  0  0
   42.7273   23.4188   37.2837 H   0  0  0  0  0  0  0  0  0  0  0  0
   42.4072   23.0675   35.7990 H   0  0  0  0  0  0  0  0  0  0  0  0
   41.8072   20.4681   36.7101 H   0  0  0  0  0  0  0  0  0  0  0  0
   42.3769   20.7544   38.1333 H   0  0  0  0  0  0  0  0  0  0  0  0
  1  6  2  0
  2  1  1  0
  3  2  2  0
  3  4  1  0
  4  5  2  0
  5  6  1  0
  5 20  1  0
  7 13  1  0
  7  2  1  0
  8  7  1  0
  9 10  1  0
  9  8  2  0
 10 12  1  0
 11 10  2  0
 12 15  1  0
 12 13  1  0
 13 14  2  0
 15 19  2  0
 16 17  2  0
 16 15  1  0
 17 18  1  0
 18 19  1  0
 20 22  1  0
 20 21  1  0
 23 20  1  0
 23 24  1  0
 25 26  1  0
 25 24  1  0
 26 24  1  0
  1 27  1  0
  3 28  1  0
  8 29  1  0
  9 30  1  0
 16 31  1  0
 17 32  1  0
 18 33  1  0
 21 34  1  0
 21 35  1  0
 21 36  1  0
 22 37  1  0
 22 38  1  0
 22 39  1  0
 23 40  1  0
 23 41  1  0
 24 42  1  0
 25 43  1  0
 25 44  1  0
 26 45  1  0
 26 46  1  0
M  ISO  8  27  14  28  14  29  14  30  14  31  14  32  14  33   9  34   8
M  ISO  8  35   8  36   8  37   8  38   8  39   8  40   8  41   8  42  13
M  ISO  4  43  13  44  13  45  13  46  13
M  END
>  <minimizedAffinity>  (1) 
-5.34895086

>  <minimizedRMSD>  (1) 
0.948545218

$$$$
