
     RDKit          3D

 46 49  0  0  0  0  0  0  0  0999 V2000
   38.3120   26.5460   34.6710 C   0  0  0  0  0  0  0  0  0  0  0  0
   37.8100   26.1880   33.4160 C   0  0  0  0  0  0  0  0  0  0  0  0
   37.5640   24.8450   33.1760 C   0  0  0  0  0  0  0  0  0  0  0  0
   37.8080   23.9340   34.1420 N   0  0  0  0  0  0  0  0  0  0  0  0
   38.2830   24.2870   35.3270 C   0  0  0  0  0  0  0  0  0  0  0  0
   38.5400   25.6050   35.6050 N   0  0  0  0  0  0  0  0  0  0  0  0
   37.6170   27.2480   32.5370 N   0  0  0  0  0  0  0  0  0  0  0  0
   38.4520   27.2620   31.4860 C   0  0  0  0  0  0  0  0  0  0  0  0
   38.3650   28.2780   30.5220 C   0  0  0  0  0  0  0  0  0  0  0  0
   37.3870   29.2400   30.7190 C   0  0  0  0  0  0  0  0  0  0  0  0
   37.2340   30.1680   29.9310 O   0  0  0  0  0  0  0  0  0  0  0  0
   36.5540   29.2120   31.7820 N   0  0  0  0  0  0  0  0  0  0  0  0
   36.6700   28.2110   32.6960 C   0  0  0  0  0  0  0  0  0  0  0  0
   35.9190   28.1500   33.6920 O   0  0  0  0  0  0  0  0  0  0  0  0
   35.5370   30.1650   32.0400 C   0  0  0  0  0  0  0  0  0  0  0  0
   34.8810   31.1170   31.2870 C   0  0  0  0  0  0  0  0  0  0  0  0
   33.9830   31.7250   32.1410 C   0  0  0  0  0  0  0  0  0  0  0  0
   34.1000   31.1530   33.3650 N   0  0  0  0  0  0  0  0  0  0  0  0
   35.0410   30.2150   33.2790 N   0  0  0  0  0  0  0  0  0  0  0  0
   38.5360   23.2590   36.3550 C   0  0  0  0  0  0  0  0  0  0  0  0
   37.2830   23.0160   37.1770 C   0  0  0  0  0  0  0  0  0  0  0  0
   38.8740   21.9670   35.6360 C   0  0  0  0  0  0  0  0  0  0  0  0
   39.6280   23.6820   37.2980 C   0  0  0  0  0  0  0  0  0  0  0  0
   40.8160   22.8260   37.0400 C   0  0  0  0  0  0  0  0  0  0  0  0
   41.8680   23.0060   36.1690 C   0  0  0  0  0  0  0  0  0  0  0  0
   42.6670   21.8760   36.3740 C   0  0  0  0  0  0  0  0  0  0  0  0
   42.0690   21.0920   37.3360 C   0  0  0  0  0  0  0  0  0  0  0  0
   40.9570   21.7020   37.7100 O   0  0  0  0  0  0  0  0  0  0  0  0
   38.5215   27.6022   34.8957 H   0  0  0  0  0  0  0  0  0  0  0  0
   37.1709   24.5223   32.2006 H   0  0  0  0  0  0  0  0  0  0  0  0
   39.2096   26.4716   31.3797 H   0  0  0  0  0  0  0  0  0  0  0  0
   39.0393   28.3093   29.6535 H   0  0  0  0  0  0  0  0  0  0  0  0
   35.0410   31.3450   30.2229 H   0  0  0  0  0  0  0  0  0  0  0  0
   33.2898   32.5362   31.8739 H   0  0  0  0  0  0  0  0  0  0  0  0
   33.5599   31.3991   34.2068 H   0  0  0  0  0  0  0  0  0  0  0  0
   37.5316   23.0642   38.2474 H   0  0  0  0  0  0  0  0  0  0  0  0
   36.5337   23.7856   36.9396 H   0  0  0  0  0  0  0  0  0  0  0  0
   36.8757   22.0221   36.9396 H   0  0  0  0  0  0  0  0  0  0  0  0
   39.0801   21.1790   36.3753 H   0  0  0  0  0  0  0  0  0  0  0  0
   38.0246   21.6652   35.0056 H   0  0  0  0  0  0  0  0  0  0  0  0
   39.7624   22.1198   35.0056 H   0  0  0  0  0  0  0  0  0  0  0  0
   39.8836   24.7376   37.1235 H   0  0  0  0  0  0  0  0  0  0  0  0
   39.2963   23.5705   38.3409 H   0  0  0  0  0  0  0  0  0  0  0  0
   42.0396   23.8421   35.4751 H   0  0  0  0  0  0  0  0  0  0  0  0
   43.6111   21.6519   35.8558 H   0  0  0  0  0  0  0  0  0  0  0  0
   42.4472   20.1340   37.7223 H   0  0  0  0  0  0  0  0  0  0  0  0
  1  6  2  0
  2  1  1  0
  3  2  2  0
  3  4  1  0
  4  5  2  0
  5  6  1  0
  5 20  1  0
  7 13  1  0
  7  2  1  0
  8  7  1  0
  9 10  1  0
  9  8  2  0
 10 12  1  0
 11 10  2  0
 12 15  1  0
 12 13  1  0
 13 14  2  0
 15 19  2  0
 16 15  1  0
 16 17  2  0
 17 18  1  0
 19 18  1  0
 20 21  1  0
 20 23  1  0
 22 20  1  0
 24 23  1  0
 24 28  1  0
 25 26  1  0
 25 24  2  0
 26 27  2  0
 27 28  1  0
  1 29  1  0
  3 30  1  0
  8 31  1  0
  9 32  1  0
 16 33  1  0
 17 34  1  0
 18 35  1  0
 21 36  1  0
 21 37  1  0
 21 38  1  0
 22 39  1  0
 22 40  1  0
 22 41  1  0
 23 42  1  0
 23 43  1  0
 25 44  1  0
 26 45  1  0
 27 46  1  0
M  ISO  8  29  14  30  14  31  14  32  14  33  14  34  14  35   9  36   8
M  ISO  8  37   8  38   8  39   8  40   8  41   8  42   8  43   8  44  14
M  ISO  2  45  14  46  14
M  END
>  <minimizedAffinity>  (1) 
-5.32679892

>  <minimizedRMSD>  (1) 
1.44162047

$$$$
