
     RDKit          3D

 46 49  0  0  0  0  0  0  0  0999 V2000
   38.1650   26.4550   34.7780 C   0  0  0  0  0  0  0  0  0  0  0  0
   37.7940   26.0720   33.4700 C   0  0  0  0  0  0  0  0  0  0  0  0
   37.6420   24.7190   33.2220 C   0  0  0  0  0  0  0  0  0  0  0  0
   37.8470   23.8240   34.2050 N   0  0  0  0  0  0  0  0  0  0  0  0
   38.1960   24.2020   35.4310 C   0  0  0  0  0  0  0  0  0  0  0  0
   38.3610   25.5300   35.7340 N   0  0  0  0  0  0  0  0  0  0  0  0
   37.6270   27.1270   32.5900 N   0  0  0  0  0  0  0  0  0  0  0  0
   38.4600   27.1050   31.5430 C   0  0  0  0  0  0  0  0  0  0  0  0
   38.4040   28.1180   30.5670 C   0  0  0  0  0  0  0  0  0  0  0  0
   37.4560   29.1110   30.7510 C   0  0  0  0  0  0  0  0  0  0  0  0
   37.3270   30.0320   29.9600 O   0  0  0  0  0  0  0  0  0  0  0  0
   36.6230   29.1170   31.8120 N   0  0  0  0  0  0  0  0  0  0  0  0
   36.7060   28.1150   32.7460 C   0  0  0  0  0  0  0  0  0  0  0  0
   35.9550   28.0880   33.7370 O   0  0  0  0  0  0  0  0  0  0  0  0
   35.6320   30.1020   32.0610 C   0  0  0  0  0  0  0  0  0  0  0  0
   35.0050   31.0630   31.3060 C   0  0  0  0  0  0  0  0  0  0  0  0
   34.1250   31.7090   32.1450 C   0  0  0  0  0  0  0  0  0  0  0  0
   34.2250   31.1500   33.3600 N   0  0  0  0  0  0  0  0  0  0  0  0
   35.1420   30.1780   33.2930 N   0  0  0  0  0  0  0  0  0  0  0  0
   38.4140   23.1880   36.4930 C   0  0  0  0  0  0  0  0  0  0  0  0
   38.7990   23.8530   37.7920 C   0  0  0  0  0  0  0  0  0  0  0  0
   37.0810   22.4990   36.7310 C   0  0  0  0  0  0  0  0  0  0  0  0
   39.4740   22.2090   36.0870 C   0  0  0  0  0  0  0  0  0  0  0  0
   40.7390   22.8630   35.9950 N   0  0  0  0  0  0  0  0  0  0  0  0
   41.2760   23.7440   35.1390 C   0  0  0  0  0  0  0  0  0  0  0  0
   42.5780   24.0400   35.5540 C   0  0  0  0  0  0  0  0  0  0  0  0
   42.8120   23.3130   36.6870 N   0  0  0  0  0  0  0  0  0  0  0  0
   41.6760   22.6000   36.9390 C   0  0  0  0  0  0  0  0  0  0  0  0
   38.2949   27.5208   35.0170 H   0  0  0  0  0  0  0  0  0  0  0  0
   37.3527   24.3745   32.2182 H   0  0  0  0  0  0  0  0  0  0  0  0
   39.1928   26.2906   31.4444 H   0  0  0  0  0  0  0  0  0  0  0  0
   39.0807   28.1208   29.6998 H   0  0  0  0  0  0  0  0  0  0  0  0
   35.1730   31.2750   30.2398 H   0  0  0  0  0  0  0  0  0  0  0  0
   33.4573   32.5379   31.8675 H   0  0  0  0  0  0  0  0  0  0  0  0
   33.6900   31.4212   34.1973 H   0  0  0  0  0  0  0  0  0  0  0  0
   38.4453   23.2421   38.6356 H   0  0  0  0  0  0  0  0  0  0  0  0
   39.8934   23.9508   37.8436 H   0  0  0  0  0  0  0  0  0  0  0  0
   38.3389   24.8508   37.8436 H   0  0  0  0  0  0  0  0  0  0  0  0
   36.9036   22.4073   37.8127 H   0  0  0  0  0  0  0  0  0  0  0  0
   36.2747   23.0933   36.2763 H   0  0  0  0  0  0  0  0  0  0  0  0
   37.0995   21.4976   36.2763 H   0  0  0  0  0  0  0  0  0  0  0  0
   39.5336   21.4062   36.8366 H   0  0  0  0  0  0  0  0  0  0  0  0
   39.2157   21.7868   35.1046 H   0  0  0  0  0  0  0  0  0  0  0  0
   40.7745   24.1650   34.2551 H   0  0  0  0  0  0  0  0  0  0  0  0
   43.2809   24.7280   35.0615 H   0  0  0  0  0  0  0  0  0  0  0  0
   41.5401   21.9113   37.7859 H   0  0  0  0  0  0  0  0  0  0  0  0
  1  6  2  0
  2  1  1  0
  3  2  2  0
  3  4  1  0
  4  5  2  0
  5  6  1  0
  5 20  1  0
  7 13  1  0
  7  2  1  0
  8  7  1  0
  9 10  1  0
  9  8  2  0
 10 12  1  0
 11 10  2  0
 12 15  1  0
 12 13  1  0
 13 14  2  0
 15 19  2  0
 16 15  1  0
 16 17  2  0
 17 18  1  0
 19 18  1  0
 20 22  1  0
 20 21  1  0
 23 20  1  0
 24 23  1  0
 24 28  1  0
 25 26  2  0
 25 24  1  0
 26 27  1  0
 27 28  2  0
  1 29  1  0
  3 30  1  0
  8 31  1  0
  9 32  1  0
 16 33  1  0
 17 34  1  0
 18 35  1  0
 21 36  1  0
 21 37  1  0
 21 38  1  0
 22 39  1  0
 22 40  1  0
 22 41  1  0
 23 42  1  0
 23 43  1  0
 25 44  1  0
 26 45  1  0
 28 46  1  0
M  ISO  8  29  14  30  14  31  14  32  14  33  14  34  14  35   9  36   8
M  ISO  8  37   8  38   8  39   8  40   8  41   8  42   8  43   8  44  14
M  ISO  2  45  14  46  14
M  END
>  <minimizedAffinity>  (1) 
-5.08241892

>  <minimizedRMSD>  (1) 
1.23879552

$$$$
