
     RDKit          3D

 40 42  0  0  0  0  0  0  0  0999 V2000
   38.4200   26.5180   35.0860 C   0  0  0  0  0  0  0  0  0  0  0  0
   38.1250   25.9330   33.8340 C   0  0  0  0  0  0  0  0  0  0  0  0
   37.8880   24.5700   33.7950 C   0  0  0  0  0  0  0  0  0  0  0  0
   37.9450   23.8480   34.9320 N   0  0  0  0  0  0  0  0  0  0  0  0
   38.2260   24.4150   36.1170 C   0  0  0  0  0  0  0  0  0  0  0  0
   38.4640   25.7490   36.1930 N   0  0  0  0  0  0  0  0  0  0  0  0
   38.1120   26.8400   32.7790 N   0  0  0  0  0  0  0  0  0  0  0  0
   39.0880   26.6280   31.8680 C   0  0  0  0  0  0  0  0  0  0  0  0
   39.1880   27.4750   30.7510 C   0  0  0  0  0  0  0  0  0  0  0  0
   38.2600   28.4990   30.6500 C   0  0  0  0  0  0  0  0  0  0  0  0
   38.2740   29.2830   29.7100 O   0  0  0  0  0  0  0  0  0  0  0  0
   37.2920   28.6920   31.5730 N   0  0  0  0  0  0  0  0  0  0  0  0
   37.2330   27.8490   32.6370 C   0  0  0  0  0  0  0  0  0  0  0  0
   36.3470   27.9970   33.5160 O   0  0  0  0  0  0  0  0  0  0  0  0
   36.3190   29.7160   31.5240 C   0  0  0  0  0  0  0  0  0  0  0  0
   35.8300   30.5520   30.5270 C   0  0  0  0  0  0  0  0  0  0  0  0
   34.8760   31.3370   31.1440 C   0  0  0  0  0  0  0  0  0  0  0  0
   34.8020   30.9850   32.4470 N   0  0  0  0  0  0  0  0  0  0  0  0
   35.6820   30.0010   32.6610 N   0  0  0  0  0  0  0  0  0  0  0  0
   38.2690   23.5530   37.3130 C   0  0  0  0  0  0  0  0  0  0  0  0
   38.0470   24.4150   38.5510 C   0  0  0  0  0  0  0  0  0  0  0  0
   37.1510   22.5580   37.2290 C   0  0  0  0  0  0  0  0  0  0  0  0
   39.6230   22.8900   37.4480 C   0  0  0  0  0  0  0  0  0  0  0  0
   40.4610   23.3230   36.4470 O   0  0  0  0  0  0  0  0  0  0  0  0
   38.6134   27.5985   35.1575 H   0  0  0  0  0  0  0  0  0  0  0  0
   37.6540   24.0776   32.8396 H   0  0  0  0  0  0  0  0  0  0  0  0
   39.7986   25.7988   32.0000 H   0  0  0  0  0  0  0  0  0  0  0  0
   39.9691   27.3313   29.9899 H   0  0  0  0  0  0  0  0  0  0  0  0
   36.1375   30.5819   29.4713 H   0  0  0  0  0  0  0  0  0  0  0  0
   34.2758   32.1191   30.6560 H   0  0  0  0  0  0  0  0  0  0  0  0
   34.1771   31.4018   33.1518 H   0  0  0  0  0  0  0  0  0  0  0  0
   38.2036   23.8069   39.4541 H   0  0  0  0  0  0  0  0  0  0  0  0
   38.7584   25.2540   38.5460 H   0  0  0  0  0  0  0  0  0  0  0  0
   37.0188   24.8060   38.5460 H   0  0  0  0  0  0  0  0  0  0  0  0
   36.8341   22.2760   38.2439 H   0  0  0  0  0  0  0  0  0  0  0  0
   36.3021   23.0049   36.6907 H   0  0  0  0  0  0  0  0  0  0  0  0
   37.4963   21.6630   36.6907 H   0  0  0  0  0  0  0  0  0  0  0  0
   40.0588   23.1474   38.4246 H   0  0  0  0  0  0  0  0  0  0  0  0
   39.5004   21.7997   37.3697 H   0  0  0  0  0  0  0  0  0  0  0  0
   41.2656   23.7387   36.8470 H   0  0  0  0  0  0  0  0  0  0  0  0
  1  6  2  0
  2  1  1  0
  3  2  2  0
  3  4  1  0
  4  5  2  0
  5  6  1  0
  5 20  1  0
  7  2  1  0
  8  7  1  0
  9  8  2  0
 10  9  1  0
 10 12  1  0
 11 10  2  0
 12 13  1  0
 13  7  1  0
 13 14  2  0
 15 12  1  0
 15 19  2  0
 16 17  2  0
 16 15  1  0
 17 18  1  0
 18 19  1  0
 20 23  1  0
 20 21  1  0
 22 20  1  0
 24 23  1  0
  1 25  1  0
  3 26  1  0
  8 27  1  0
  9 28  1  0
 16 29  1  0
 17 30  1  0
 18 31  1  0
 21 32  1  0
 21 33  1  0
 21 34  1  0
 22 35  1  0
 22 36  1  0
 22 37  1  0
 23 38  1  0
 23 39  1  0
 24 40  1  0
M  ISO  8  25  14  26  14  27  14  28  14  29  14  30  14  31   9  32   8
M  ISO  8  33   8  34   8  35   8  36   8  37   8  38   8  39   8  40   3
M  END
>  <minimizedAffinity>  (1) 
-5.05908489

>  <minimizedRMSD>  (1) 
0.350457609

$$$$
