
     RDKit          3D

 42 45  0  0  0  0  0  0  0  0999 V2000
   37.2530   22.6000   37.1820 C   0  0  0  0  0  0  0  0  0  0  0  0
   36.9680   21.9260   35.9240 C   0  0  0  0  0  0  0  0  0  0  0  0
   35.8900   21.1690   35.6910 C   0  0  0  0  0  0  0  0  0  0  0  0
   35.5990   20.5480   34.5200 C   0  0  0  0  0  0  0  0  0  0  0  0
   36.6240   20.8090   33.5270 C   0  0  0  0  0  0  0  0  0  0  0  0
   37.8620   21.9020   34.3920 S   0  0  0  0  0  0  0  0  0  0  0  0
   36.7950   20.4070   32.1630 C   0  0  0  0  0  0  0  0  0  0  0  0
   36.0290   19.5230   31.5220 C   0  0  0  0  0  0  0  0  0  0  0  0
   36.7320   19.4750   29.7850 S   0  0  0  0  0  0  0  0  0  0  0  0
   38.0140   20.7550   30.3380 C   0  0  0  0  0  0  0  0  0  0  0  0
   37.7170   20.8970   31.3970 N   0  0  0  0  0  0  0  0  0  0  0  0
   39.0100   21.2080   29.3030 C   0  0  0  0  0  0  0  0  0  0  0  0
   39.5490   20.4880   28.2660 C   0  0  0  0  0  0  0  0  0  0  0  0
   40.3610   21.3600   27.6690 N   0  0  0  0  0  0  0  0  0  0  0  0
   40.3010   22.5160   28.3180 C   0  0  0  0  0  0  0  0  0  0  0  0
   39.4430   22.4730   29.3800 N   0  0  0  0  0  0  0  0  0  0  0  0
   38.1490   23.7970   37.0660 C   0  0  0  0  0  0  0  0  0  0  0  0
   41.4350   22.0190   37.2500 C   0  0  0  0  0  0  0  0  0  0  0  0
   40.1320   22.3560   37.5670 C   0  0  0  0  0  0  0  0  0  0  0  0
   39.5080   23.3760   36.8110 C   0  0  0  0  0  0  0  0  0  0  0  0
   40.2320   23.9540   35.8250 N   0  0  0  0  0  0  0  0  0  0  0  0
   41.4980   23.6060   35.5410 C   0  0  0  0  0  0  0  0  0  0  0  0
   42.0930   22.6350   36.2600 N   0  0  0  0  0  0  0  0  0  0  0  0
   38.1320   24.5460   38.3960 C   0  0  0  0  0  0  0  0  0  0  0  0
   37.5700   24.6890   35.9930 C   0  0  0  0  0  0  0  0  0  0  0  0
   36.2981   22.9285   37.6181 H   0  0  0  0  0  0  0  0  0  0  0  0
   37.7890   21.8719   37.8086 H   0  0  0  0  0  0  0  0  0  0  0  0
   35.1784   21.0387   36.5197 H   0  0  0  0  0  0  0  0  0  0  0  0
   34.7058   19.9297   34.3469 H   0  0  0  0  0  0  0  0  0  0  0  0
   35.1781   18.9519   31.9218 H   0  0  0  0  0  0  0  0  0  0  0  0
   39.3564   19.4401   27.9926 H   0  0  0  0  0  0  0  0  0  0  0  0
   40.8774   23.4084   28.0328 H   0  0  0  0  0  0  0  0  0  0  0  0
   39.1966   23.2110   30.0549 H   0  0  0  0  0  0  0  0  0  0  0  0
   41.9415   21.2284   37.8231 H   0  0  0  0  0  0  0  0  0  0  0  0
   39.5970   21.8466   38.3820 H   0  0  0  0  0  0  0  0  0  0  0  0
   42.0434   24.1092   34.7291 H   0  0  0  0  0  0  0  0  0  0  0  0
   38.1484   23.8225   39.2245 H   0  0  0  0  0  0  0  0  0  0  0  0
   39.0156   25.1980   38.4610 H   0  0  0  0  0  0  0  0  0  0  0  0
   37.2198   25.1572   38.4610 H   0  0  0  0  0  0  0  0  0  0  0  0
   37.0284   25.5234   36.4626 H   0  0  0  0  0  0  0  0  0  0  0  0
   38.3833   25.0856   35.3675 H   0  0  0  0  0  0  0  0  0  0  0  0
   36.8766   24.1076   35.3675 H   0  0  0  0  0  0  0  0  0  0  0  0
  2  1  1  0
  3  2  2  0
  4  3  1  0
  5  6  1  0
  5  4  2  0
  6  2  1  0
  7  5  1  0
  8  7  2  0
  9 10  1  0
  9  8  1  0
 10 11  2  0
 11  7  1  0
 12 16  1  0
 12 10  1  0
 13 12  2  0
 14 13  1  0
 14 15  2  0
 15 16  1  0
 17  1  1  0
 17 24  1  0
 18 19  2  0
 20 17  1  0
 20 19  1  0
 21 20  2  0
 22 21  1  0
 22 23  2  0
 23 18  1  0
 25 17  1  0
  1 26  1  0
  1 27  1  0
  3 28  1  0
  4 29  1  0
  8 30  1  0
 13 31  1  0
 15 32  1  0
 16 33  1  0
 18 34  1  0
 19 35  1  0
 22 36  1  0
 24 37  1  0
 24 38  1  0
 24 39  1  0
 25 40  1  0
 25 41  1  0
 25 42  1  0
M  ISO  8  26   8  27   8  28  14  29  14  30  14  31  14  32  14  33   9
M  ISO  8  34  14  35  14  36  14  37   8  38   8  39   8  40   8  41   8
M  ISO  1  42   8
M  END
>  <minimizedAffinity>  (1) 
-4.59736395

>  <minimizedRMSD>  (1) 
0.227760911

$$$$
