
     RDKit          3D

 27 29  0  0  0  0  0  0  0  0999 V2000
   38.7890   25.0490   34.8240 N   0  0  0  0  0  0  0  0  0  0  0  0
   39.4050   26.2470   34.8190 C   0  0  0  0  0  0  0  0  0  0  0  0
   39.3790   27.0430   33.6720 C   0  0  0  0  0  0  0  0  0  0  0  0
   38.6920   26.5220   32.5720 C   0  0  0  0  0  0  0  0  0  0  0  0
   38.6260   27.1690   31.5190 O   0  0  0  0  0  0  0  0  0  0  0  0
   38.0800   25.3160   32.6000 N   0  0  0  0  0  0  0  0  0  0  0  0
   38.1360   24.5900   33.7320 C   0  0  0  0  0  0  0  0  0  0  0  0
   37.5840   23.4700   33.7980 O   0  0  0  0  0  0  0  0  0  0  0  0
   37.9690   24.7920   37.0170 C   0  0  0  0  0  0  0  0  0  0  0  0
   38.8980   24.3700   36.0340 C   0  0  0  0  0  0  0  0  0  0  0  0
   39.7740   23.3610   36.3900 C   0  0  0  0  0  0  0  0  0  0  0  0
   39.7190   22.8240   37.6280 N   0  0  0  0  0  0  0  0  0  0  0  0
   38.8140   23.2530   38.5480 C   0  0  0  0  0  0  0  0  0  0  0  0
   37.9470   24.2300   38.2410 N   0  0  0  0  0  0  0  0  0  0  0  0
   37.3670   24.7470   31.4920 C   0  0  0  0  0  0  0  0  0  0  0  0
   36.0350   25.4590   31.2030 C   0  0  0  0  0  0  0  0  0  0  0  0
   36.0920   24.0390   31.6160 C   0  0  0  0  0  0  0  0  0  0  0  0
   39.9293   26.5987   35.7198 H   0  0  0  0  0  0  0  0  0  0  0  0
   39.8719   28.0257   33.6362 H   0  0  0  0  0  0  0  0  0  0  0  0
   37.2535   25.5922   36.7766 H   0  0  0  0  0  0  0  0  0  0  0  0
   40.5159   22.9956   35.6646 H   0  0  0  0  0  0  0  0  0  0  0  0
   38.7926   22.7968   39.5487 H   0  0  0  0  0  0  0  0  0  0  0  0
   38.3026   24.4636   30.9876 H   0  0  0  0  0  0  0  0  0  0  0  0
   35.6524   26.2238   31.8949 H   0  0  0  0  0  0  0  0  0  0  0  0
   35.6061   26.0191   30.3590 H   0  0  0  0  0  0  0  0  0  0  0  0
   35.8361   23.2532   30.8900 H   0  0  0  0  0  0  0  0  0  0  0  0
   35.6181   23.4633   32.4247 H   0  0  0  0  0  0  0  0  0  0  0  0
  1 10  1  0
  2  1  1  0
  3  2  2  0
  4  6  1  0
  4  3  1  0
  5  4  2  0
  6  7  1  0
  7  8  2  0
  7  1  1  0
  9 14  2  0
 10 11  2  0
 10  9  1  0
 11 12  1  0
 12 13  2  0
 14 13  1  0
 15 17  1  0
 15  6  1  0
 16 15  1  0
 16 17  1  0
  2 18  1  0
  3 19  1  0
  9 20  1  0
 11 21  1  0
 13 22  1  0
 15 23  1  0
 16 24  1  0
 16 25  1  0
 17 26  1  0
 17 27  1  0
M  ISO  8  18  14  19  14  20  14  21  14  22  14  23  13  24  13  25  13
M  ISO  2  26  13  27  13
M  END
>  <minimizedAffinity>  (1) 
-4.34613705

>  <minimizedRMSD>  (1) 
3.45962858

$$$$
