
     RDKit          3D

 41 45  0  0  1  0  0  0  0  0999 V2000
   37.7670   26.3780   32.9070 C   0  0  2  0  0  0  0  0  0  0  0  0
   36.9310   25.1530   32.4880 C   0  0  0  0  0  0  0  0  0  0  0  0
   37.3190   25.3990   33.9020 C   0  0  1  0  0  0  0  0  0  0  0  0
   38.3860   24.5770   34.4790 N   0  0  0  0  0  0  0  0  0  0  0  0
   38.2900   23.3520   34.9860 C   0  0  0  0  0  0  0  0  0  0  0  0
   39.5070   22.9520   35.4130 N   0  0  0  0  0  0  0  0  0  0  0  0
   40.3730   23.9660   35.1600 C   0  0  0  0  0  0  0  0  0  0  0  0
   41.7350   24.0830   35.3980 C   0  0  0  0  0  0  0  0  0  0  0  0
   42.3430   23.1410   35.9290 O   0  0  0  0  0  0  0  0  0  0  0  0
   42.3230   25.2420   35.0220 N   0  0  0  0  0  0  0  0  0  0  0  0
   41.6680   26.2660   34.4450 C   0  0  0  0  0  0  0  0  0  0  0  0
   42.3150   27.4760   34.0620 N   0  0  0  0  0  0  0  0  0  0  0  0
   40.3650   26.1070   34.2390 N   0  0  0  0  0  0  0  0  0  0  0  0
   39.6750   25.0020   34.5690 C   0  0  0  0  0  0  0  0  0  0  0  0
   35.9320   29.4550   33.5690 N   0  0  0  0  0  0  0  0  0  0  0  0
   35.8120   30.0320   32.3600 C   0  0  0  0  0  0  0  0  0  0  0  0
   36.3540   29.4060   31.2260 C   0  0  0  0  0  0  0  0  0  0  0  0
   37.0020   28.1840   31.4410 C   0  0  0  0  0  0  0  0  0  0  0  0
   37.4990   27.5850   30.4820 O   0  0  0  0  0  0  0  0  0  0  0  0
   37.1070   27.6290   32.6670 N   0  0  0  0  0  0  0  0  0  0  0  0
   36.5740   28.2670   33.7120 C   0  0  0  0  0  0  0  0  0  0  0  0
   36.6490   27.7870   34.8620 O   0  0  0  0  0  0  0  0  0  0  0  0
   33.9550   29.9900   34.7200 C   0  0  0  0  0  0  0  0  0  0  0  0
   35.3520   30.1820   34.5940 C   0  0  0  0  0  0  0  0  0  0  0  0
   35.9420   31.0450   35.4850 C   0  0  0  0  0  0  0  0  0  0  0  0
   35.2110   31.6710   36.4260 N   0  0  0  0  0  0  0  0  0  0  0  0
   33.8730   31.4680   36.5220 C   0  0  0  0  0  0  0  0  0  0  0  0
   33.2460   30.6280   35.6690 N   0  0  0  0  0  0  0  0  0  0  0  0
   38.7559   26.8245   32.7259 H   0  0  0  0  0  0  0  0  0  0  0  0
   35.8855   25.2764   32.1690 H   0  0  0  0  0  0  0  0  0  0  0  0
   37.0442   24.3275   31.7699 H   0  0  0  0  0  0  0  0  0  0  0  0
   36.7363   25.4432   34.8339 H   0  0  0  0  0  0  0  0  0  0  0  0
   37.3660   22.7584   35.0479 H   0  0  0  0  0  0  0  0  0  0  0  0
   43.3342   25.3470   35.1876 H   0  0  0  0  0  0  0  0  0  0  0  0
   41.7724   28.2335   33.6230 H   0  0  0  0  0  0  0  0  0  0  0  0
   43.3254   27.5934   34.2241 H   0  0  0  0  0  0  0  0  0  0  0  0
   35.2891   30.9946   32.2596 H   0  0  0  0  0  0  0  0  0  0  0  0
   36.2738   29.8515   30.2235 H   0  0  0  0  0  0  0  0  0  0  0  0
   33.4396   29.3065   34.0292 H   0  0  0  0  0  0  0  0  0  0  0  0
   37.0254   31.2268   35.4288 H   0  0  0  0  0  0  0  0  0  0  0  0
   33.2951   31.9902   37.2987 H   0  0  0  0  0  0  0  0  0  0  0  0
  1  3  1  0
  2  1  1  0
  2  3  1  0
  3  4  1  0
  4 14  1  0
  4  5  1  0
  5  6  2  0
  7  8  1  0
  7  6  1  0
  8  9  2  0
 10  8  1  0
 11 10  1  0
 12 11  1  0
 13 11  2  0
 13 14  1  0
 14  7  2  0
 15 21  1  0
 15 24  1  0
 16 15  1  0
 17 18  1  0
 17 16  2  0
 18 20  1  0
 19 18  2  0
 20  1  1  0
 20 21  1  0
 21 22  2  0
 23 28  2  0
 24 23  1  0
 24 25  2  0
 25 26  1  0
 26 27  2  0
 28 27  1  0
  1 29  1  6
  2 30  1  0
  2 31  1  0
  3 32  1  1
  5 33  1  0
 10 34  1  0
 12 35  1  0
 12 36  1  0
 16 37  1  0
 17 38  1  0
 23 39  1  0
 25 40  1  0
 27 41  1  0
M  ISO  8  29  13  30  13  31  13  32  13  33  14  34   9  37  14  38  14
M  ISO  3  39  14  40  14  41  14
M  END
>  <minimizedAffinity>  (1) 
-5.94271088

>  <minimizedRMSD>  (1) 
6.68050051

$$$$
