
     RDKit          3D

 40 43  0  0  1  0  0  0  0  0999 V2000
   38.3030   24.2200   34.8470 N   0  0  0  0  0  0  0  0  0  0  0  0
   38.4330   25.5490   34.6060 C   0  0  0  0  0  0  0  0  0  0  0  0
   38.1470   26.0630   33.3510 C   0  0  0  0  0  0  0  0  0  0  0  0
   37.7270   25.1410   32.3760 C   0  0  0  0  0  0  0  0  0  0  0  0
   37.4550   25.5290   31.2330 O   0  0  0  0  0  0  0  0  0  0  0  0
   37.6030   23.8100   32.6350 N   0  0  0  0  0  0  0  0  0  0  0  0
   37.8970   23.3930   33.8680 C   0  0  0  0  0  0  0  0  0  0  0  0
   37.7970   22.1720   34.1570 O   0  0  0  0  0  0  0  0  0  0  0  0
   37.6520   24.2550   37.1050 C   0  0  0  0  0  0  0  0  0  0  0  0
   38.6230   23.8550   36.1430 C   0  0  0  0  0  0  0  0  0  0  0  0
   39.7250   23.1740   36.6160 C   0  0  0  0  0  0  0  0  0  0  0  0
   39.8540   22.9130   37.9290 N   0  0  0  0  0  0  0  0  0  0  0  0
   38.9080   23.3060   38.8290 C   0  0  0  0  0  0  0  0  0  0  0  0
   37.8220   23.9710   38.4110 N   0  0  0  0  0  0  0  0  0  0  0  0
   37.1780   22.8460   31.6670 C   0  0  2  0  0  0  0  0  0  0  0  0
   35.6740   22.9350   31.3580 C   0  0  0  0  0  0  0  0  0  0  0  0
   36.2870   21.7260   31.9730 C   0  0  1  0  0  0  0  0  0  0  0  0
   36.5130   20.5340   31.1520 N   0  0  0  0  0  0  0  0  0  0  0  0
   37.4750   20.4850   30.2210 C   0  0  0  0  0  0  0  0  0  0  0  0
   37.6640   19.3340   29.4540 C   0  0  0  0  0  0  0  0  0  0  0  0
   38.7310   19.2830   28.4240 C   0  0  0  0  0  0  0  0  0  0  0  0
   36.8260   18.2370   29.6820 C   0  0  0  0  0  0  0  0  0  0  0  0
   36.9670   17.1820   29.0110 O   0  0  0  0  0  0  0  0  0  0  0  0
   35.8660   18.2910   30.6130 N   0  0  0  0  0  0  0  0  0  0  0  0
   35.7390   19.4300   31.3160 C   0  0  0  0  0  0  0  0  0  0  0  0
   34.8430   19.5110   32.2000 O   0  0  0  0  0  0  0  0  0  0  0  0
   38.7668   26.2213   35.4101 H   0  0  0  0  0  0  0  0  0  0  0  0
   38.2435   27.1361   33.1293 H   0  0  0  0  0  0  0  0  0  0  0  0
   36.7546   24.8011   36.7786 H   0  0  0  0  0  0  0  0  0  0  0  0
   40.5042   22.8418   35.9142 H   0  0  0  0  0  0  0  0  0  0  0  0
   39.0361   23.0774   39.8973 H   0  0  0  0  0  0  0  0  0  0  0  0
   38.1493   22.8713   31.1513 H   0  0  0  0  0  0  0  0  0  0  0  0
   35.0221   23.5916   31.9529 H   0  0  0  0  0  0  0  0  0  0  0  0
   35.0607   23.1452   30.4694 H   0  0  0  0  0  0  0  0  0  0  0  0
   36.0207   21.1470   32.8696 H   0  0  0  0  0  0  0  0  0  0  0  0
   38.1220   21.3598   30.0594 H   0  0  0  0  0  0  0  0  0  0  0  0
   39.7137   19.2360   28.9161 H   0  0  0  0  0  0  0  0  0  0  0  0
   38.5923   18.3905   27.7962 H   0  0  0  0  0  0  0  0  0  0  0  0
   38.6780   20.1847   27.7962 H   0  0  0  0  0  0  0  0  0  0  0  0
   35.2455   17.4871   30.7851 H   0  0  0  0  0  0  0  0  0  0  0  0
  1 10  1  0
  2  1  1  0
  3  2  2  0
  4  6  1  0
  4  3  1  0
  5  4  2  0
  6  7  1  0
  7  8  2  0
  7  1  1  0
  9 14  2  0
 10 11  2  0
 10  9  1  0
 11 12  1  0
 12 13  2  0
 14 13  1  0
 15 17  1  0
 15  6  1  0
 16 15  1  0
 16 17  1  0
 18 25  1  0
 18 17  1  0
 19 18  1  0
 20 22  1  0
 20 19  2  0
 21 20  1  0
 22 24  1  0
 23 22  2  0
 24 25  1  0
 25 26  2  0
  2 27  1  0
  3 28  1  0
  9 29  1  0
 11 30  1  0
 13 31  1  0
 15 32  1  6
 16 33  1  0
 16 34  1  0
 17 35  1  1
 19 36  1  0
 21 37  1  0
 21 38  1  0
 21 39  1  0
 24 40  1  0
M  ISO  8  27  14  28  14  29  14  30  14  31  14  32  13  33  13  34  13
M  ISO  6  35  13  36  14  37   8  38   8  39   8  40   9
M  END
>  <minimizedAffinity>  (1) 
-5.87604141

>  <minimizedRMSD>  (1) 
2.32790112

$$$$
