
     RDKit          3D

 37 40  0  0  1  0  0  0  0  0999 V2000
   38.1740   24.3020   34.8630 N   0  0  0  0  0  0  0  0  0  0  0  0
   38.1940   25.6360   34.6800 C   0  0  0  0  0  0  0  0  0  0  0  0
   37.8450   26.1900   33.4490 C   0  0  0  0  0  0  0  0  0  0  0  0
   37.4800   25.2850   32.4460 C   0  0  0  0  0  0  0  0  0  0  0  0
   37.1570   25.6940   31.3310 O   0  0  0  0  0  0  0  0  0  0  0  0
   37.4650   23.9420   32.6480 N   0  0  0  0  0  0  0  0  0  0  0  0
   37.8120   23.4680   33.8540 C   0  0  0  0  0  0  0  0  0  0  0  0
   37.8130   22.2360   34.0860 O   0  0  0  0  0  0  0  0  0  0  0  0
   37.6110   24.2450   37.1490 C   0  0  0  0  0  0  0  0  0  0  0  0
   38.5470   23.9010   36.1360 C   0  0  0  0  0  0  0  0  0  0  0  0
   39.6720   23.2280   36.5490 C   0  0  0  0  0  0  0  0  0  0  0  0
   39.8490   22.9250   37.8570 N   0  0  0  0  0  0  0  0  0  0  0  0
   38.9350   23.2700   38.7920 C   0  0  0  0  0  0  0  0  0  0  0  0
   37.8180   23.9290   38.4410 N   0  0  0  0  0  0  0  0  0  0  0  0
   37.0970   22.9800   31.6450 C   0  0  2  0  0  0  0  0  0  0  0  0
   35.5930   22.9900   31.3190 C   0  0  0  0  0  0  0  0  0  0  0  0
   36.2530   21.8110   31.9110 C   0  0  1  0  0  0  0  0  0  0  0  0
   36.4980   20.5970   31.1540 N   0  0  0  0  0  0  0  0  0  0  0  0
   37.5060   20.4610   30.2760 C   0  0  0  0  0  0  0  0  0  0  0  0
   37.7490   19.3130   29.5500 C   0  0  0  0  0  0  0  0  0  0  0  0
   36.8500   18.3000   29.8120 C   0  0  0  0  0  0  0  0  0  0  0  0
   37.0040   17.2000   29.1820 O   0  0  0  0  0  0  0  0  0  0  0  0
   35.8220   18.3650   30.6760 N   0  0  0  0  0  0  0  0  0  0  0  0
   35.6710   19.5470   31.3420 C   0  0  0  0  0  0  0  0  0  0  0  0
   34.6850   19.5470   32.1410 O   0  0  0  0  0  0  0  0  0  0  0  0
   38.4886   26.2951   35.5099 H   0  0  0  0  0  0  0  0  0  0  0  0
   37.8560   27.2763   33.2761 H   0  0  0  0  0  0  0  0  0  0  0  0
   36.6934   24.7836   36.8698 H   0  0  0  0  0  0  0  0  0  0  0  0
   40.4337   22.9335   35.8121 H   0  0  0  0  0  0  0  0  0  0  0  0
   39.1071   23.0094   39.8467 H   0  0  0  0  0  0  0  0  0  0  0  0
   38.0718   23.0714   31.1435 H   0  0  0  0  0  0  0  0  0  0  0  0
   34.8991   23.5972   31.9189 H   0  0  0  0  0  0  0  0  0  0  0  0
   34.9811   23.1856   30.4261 H   0  0  0  0  0  0  0  0  0  0  0  0
   36.0151   21.2020   32.7956 H   0  0  0  0  0  0  0  0  0  0  0  0
   38.1793   21.3180   30.1267 H   0  0  0  0  0  0  0  0  0  0  0  0
   38.5776   19.2153   28.8332 H   0  0  0  0  0  0  0  0  0  0  0  0
   35.1855   17.5694   30.8266 H   0  0  0  0  0  0  0  0  0  0  0  0
  1 10  1  0
  2  1  1  0
  3  2  2  0
  4  6  1  0
  4  3  1  0
  5  4  2  0
  6  7  1  0
  7  8  2  0
  7  1  1  0
  9 14  2  0
 10 11  2  0
 10  9  1  0
 11 12  1  0
 12 13  2  0
 14 13  1  0
 15 17  1  0
 15  6  1  0
 16 15  1  0
 16 17  1  0
 18 24  1  0
 18 17  1  0
 19 18  1  0
 20 21  1  0
 20 19  2  0
 21 23  1  0
 22 21  2  0
 23 24  1  0
 24 25  2  0
  2 26  1  0
  3 27  1  0
  9 28  1  0
 11 29  1  0
 13 30  1  0
 15 31  1  6
 16 32  1  0
 16 33  1  0
 17 34  1  1
 19 35  1  0
 20 36  1  0
 23 37  1  0
M  ISO  8  26  14  27  14  28  14  29  14  30  14  31  13  32  13  33  13
M  ISO  4  34  13  35  14  36  14  37   9
M  END
>  <minimizedAffinity>  (1) 
-5.81713963

>  <minimizedRMSD>  (1) 
2.20807743

$$$$
