
     RDKit          3D

 38 41  0  0  1  0  0  0  0  0999 V2000
   38.2040   24.0220   34.7870 N   0  0  0  0  0  0  0  0  0  0  0  0
   38.3130   25.3280   34.4550 C   0  0  0  0  0  0  0  0  0  0  0  0
   38.0140   25.7520   33.1650 C   0  0  0  0  0  0  0  0  0  0  0  0
   37.6060   24.7630   32.2630 C   0  0  0  0  0  0  0  0  0  0  0  0
   37.3210   25.0620   31.0910 O   0  0  0  0  0  0  0  0  0  0  0  0
   37.5020   23.4510   32.6120 N   0  0  0  0  0  0  0  0  0  0  0  0
   37.8060   23.1130   33.8740 C   0  0  0  0  0  0  0  0  0  0  0  0
   37.7230   21.9150   34.2380 O   0  0  0  0  0  0  0  0  0  0  0  0
   37.5930   24.2520   37.0430 C   0  0  0  0  0  0  0  0  0  0  0  0
   38.5350   23.7450   36.1100 C   0  0  0  0  0  0  0  0  0  0  0  0
   39.6200   23.0660   36.6120 C   0  0  0  0  0  0  0  0  0  0  0  0
   39.7610   22.9000   37.9420 N   0  0  0  0  0  0  0  0  0  0  0  0
   38.8360   23.4010   38.8180 C   0  0  0  0  0  0  0  0  0  0  0  0
   37.7720   24.0660   38.3680 N   0  0  0  0  0  0  0  0  0  0  0  0
   37.0890   22.4100   31.7200 C   0  0  2  0  0  0  0  0  0  0  0  0
   35.6110   22.5160   31.3140 C   0  0  0  0  0  0  0  0  0  0  0  0
   36.1400   21.3640   32.0760 C   0  0  1  0  0  0  0  0  0  0  0  0
   36.2270   20.0500   31.4750 N   0  0  0  0  0  0  0  0  0  0  0  0
   36.6430   19.8540   30.2120 C   0  0  0  0  0  0  0  0  0  0  0  0
   36.7360   18.6070   29.6100 C   0  0  0  0  0  0  0  0  0  0  0  0
   36.3760   17.5090   30.3640 C   0  0  0  0  0  0  0  0  0  0  0  0
   36.4710   16.2240   29.7450 N   0  0  0  0  0  0  0  0  0  0  0  0
   35.9530   17.6830   31.6390 N   0  0  0  0  0  0  0  0  0  0  0  0
   35.8940   18.9360   32.1480 C   0  0  0  0  0  0  0  0  0  0  0  0
   35.4890   19.0580   33.3530 O   0  0  0  0  0  0  0  0  0  0  0  0
   38.6399   26.0589   35.2093 H   0  0  0  0  0  0  0  0  0  0  0  0
   38.0939   26.8085   32.8693 H   0  0  0  0  0  0  0  0  0  0  0  0
   36.7101   24.8008   36.6834 H   0  0  0  0  0  0  0  0  0  0  0  0
   40.3758   22.6567   35.9255 H   0  0  0  0  0  0  0  0  0  0  0  0
   38.9716   23.2539   39.8997 H   0  0  0  0  0  0  0  0  0  0  0  0
   38.0887   22.3512   31.2649 H   0  0  0  0  0  0  0  0  0  0  0  0
   34.9516   23.2495   31.8011 H   0  0  0  0  0  0  0  0  0  0  0  0
   35.0570   22.6553   30.3739 H   0  0  0  0  0  0  0  0  0  0  0  0
   35.8539   20.8878   33.0254 H   0  0  0  0  0  0  0  0  0  0  0  0
   36.9271   20.7360   29.6192 H   0  0  0  0  0  0  0  0  0  0  0  0
   37.0833   18.4982   28.5719 H   0  0  0  0  0  0  0  0  0  0  0  0
   36.2121   15.3779   30.2723 H   0  0  0  0  0  0  0  0  0  0  0  0
   36.7984   16.1442   28.7717 H   0  0  0  0  0  0  0  0  0  0  0  0
  1 10  1  0
  2  1  1  0
  3  2  2  0
  4  6  1  0
  4  3  1  0
  5  4  2  0
  6  7  1  0
  7  8  2  0
  7  1  1  0
  9 14  2  0
 10 11  2  0
 10  9  1  0
 11 12  1  0
 12 13  2  0
 14 13  1  0
 15 17  1  0
 15  6  1  0
 16 15  1  0
 16 17  1  0
 18 17  1  0
 18 24  1  0
 19 18  1  0
 20 19  2  0
 20 21  1  0
 21 23  2  0
 22 21  1  0
 23 24  1  0
 24 25  2  0
  2 26  1  0
  3 27  1  0
  9 28  1  0
 11 29  1  0
 13 30  1  0
 15 31  1  6
 16 32  1  0
 16 33  1  0
 17 34  1  1
 19 35  1  0
 20 36  1  0
 22 37  1  0
 22 38  1  0
M  ISO  8  26  14  27  14  28  14  29  14  30  14  31  13  32  13  33  13
M  ISO  3  34  13  35  14  36  14
M  END
>  <minimizedAffinity>  (1) 
-5.71989393

>  <minimizedRMSD>  (1) 
2.82269335

$$$$
