
     RDKit          3D

 38 40  0  0  0  0  0  0  0  0999 V2000
   38.1570   23.7720   37.0190 C   0  0  0  0  0  0  0  0  0  0  0  0
   41.4440   21.9890   37.2410 C   0  0  0  0  0  0  0  0  0  0  0  0
   40.1360   22.3280   37.5340 C   0  0  0  0  0  0  0  0  0  0  0  0
   39.5230   23.3510   36.7850 C   0  0  0  0  0  0  0  0  0  0  0  0
   40.2640   23.9490   35.8100 N   0  0  0  0  0  0  0  0  0  0  0  0
   41.5340   23.5950   35.5500 C   0  0  0  0  0  0  0  0  0  0  0  0
   42.1200   22.6130   36.2690 N   0  0  0  0  0  0  0  0  0  0  0  0
   38.1080   24.5220   38.3530 C   0  0  0  0  0  0  0  0  0  0  0  0
   37.5890   24.6430   35.9230 C   0  0  0  0  0  0  0  0  0  0  0  0
   37.2700   22.5600   37.1350 C   0  0  0  0  0  0  0  0  0  0  0  0
   36.9800   21.9010   35.8700 C   0  0  0  0  0  0  0  0  0  0  0  0
   35.8970   21.1510   35.6370 C   0  0  0  0  0  0  0  0  0  0  0  0
   35.5860   20.5530   34.4680 C   0  0  0  0  0  0  0  0  0  0  0  0
   36.5980   20.8240   33.4590 C   0  0  0  0  0  0  0  0  0  0  0  0
   37.8540   21.9000   34.3250 S   0  0  0  0  0  0  0  0  0  0  0  0
   36.7540   20.4350   32.0960 C   0  0  0  0  0  0  0  0  0  0  0  0
   35.9170   19.5820   31.4360 C   0  0  0  0  0  0  0  0  0  0  0  0
   36.7130   19.4770   29.7340 S   0  0  0  0  0  0  0  0  0  0  0  0
   38.0480   20.6520   30.3040 C   0  0  0  0  0  0  0  0  0  0  0  0
   37.7170   20.8300   31.3550 N   0  0  0  0  0  0  0  0  0  0  0  0
   39.1360   21.0350   29.3020 C   0  0  0  0  0  0  0  0  0  0  0  0
   41.9377   21.1924   37.8169 H   0  0  0  0  0  0  0  0  0  0  0  0
   39.5866   21.8103   38.3341 H   0  0  0  0  0  0  0  0  0  0  0  0
   42.0956   24.1041   34.7529 H   0  0  0  0  0  0  0  0  0  0  0  0
   38.1552   23.8000   39.1815 H   0  0  0  0  0  0  0  0  0  0  0  0
   38.9630   25.2110   38.4179 H   0  0  0  0  0  0  0  0  0  0  0  0
   37.1706   25.0939   38.4179 H   0  0  0  0  0  0  0  0  0  0  0  0
   37.0402   25.4846   36.3708 H   0  0  0  0  0  0  0  0  0  0  0  0
   38.4089   25.0299   35.3001 H   0  0  0  0  0  0  0  0  0  0  0  0
   36.9043   24.0487   35.3001 H   0  0  0  0  0  0  0  0  0  0  0  0
   37.7659   21.8332   37.7952 H   0  0  0  0  0  0  0  0  0  0  0  0
   36.3069   22.9140   37.5314 H   0  0  0  0  0  0  0  0  0  0  0  0
   35.1971   21.0090   36.4736 H   0  0  0  0  0  0  0  0  0  0  0  0
   34.6868   19.9419   34.3004 H   0  0  0  0  0  0  0  0  0  0  0  0
   35.0087   19.0832   31.8050 H   0  0  0  0  0  0  0  0  0  0  0  0
   40.0386   21.3527   29.8445 H   0  0  0  0  0  0  0  0  0  0  0  0
   39.3746   20.1668   28.6701 H   0  0  0  0  0  0  0  0  0  0  0  0
   38.7781   21.8612   28.6701 H   0  0  0  0  0  0  0  0  0  0  0  0
  1 10  1  0
  1  8  1  0
  2  3  2  0
  4  1  1  0
  4  3  1  0
  5  4  2  0
  6  5  1  0
  6  7  2  0
  7  2  1  0
  9  1  1  0
 11 10  1  0
 12 11  2  0
 13 12  1  0
 14 15  1  0
 14 13  2  0
 15 11  1  0
 16 14  1  0
 17 16  2  0
 18 19  1  0
 18 17  1  0
 19 20  2  0
 20 16  1  0
 21 19  1  0
  2 22  1  0
  3 23  1  0
  6 24  1  0
  8 25  1  0
  8 26  1  0
  8 27  1  0
  9 28  1  0
  9 29  1  0
  9 30  1  0
 10 31  1  0
 10 32  1  0
 12 33  1  0
 13 34  1  0
 17 35  1  0
 21 36  1  0
 21 37  1  0
 21 38  1  0
M  ISO  8  22  14  23  14  24  14  25   8  26   8  27   8  28   8  29   8
M  ISO  8  30   8  31   8  32   8  33  14  34  14  35  14  36   8  37   8
M  ISO  1  38   8
M  END
>  <minimizedAffinity>  (1) 
-4.59606409

>  <minimizedRMSD>  (1) 
0.0381069221

$$$$
