
     RDKit          3D

 43 46  0  0  1  0  0  0  0  0999 V2000
   38.0700   24.4930   34.9350 N   0  0  0  0  0  0  0  0  0  0  0  0
   37.9940   25.8280   34.8650 C   0  0  0  0  0  0  0  0  0  0  0  0
   37.5760   26.4460   33.6830 C   0  0  0  0  0  0  0  0  0  0  0  0
   37.2570   25.6070   32.6250 C   0  0  0  0  0  0  0  0  0  0  0  0
   36.8790   26.0740   31.5390 O   0  0  0  0  0  0  0  0  0  0  0  0
   37.3410   24.2550   32.7160 N   0  0  0  0  0  0  0  0  0  0  0  0
   37.7470   23.7100   33.8710 C   0  0  0  0  0  0  0  0  0  0  0  0
   37.8380   22.4760   33.9960 O   0  0  0  0  0  0  0  0  0  0  0  0
   37.5880   24.2740   37.2320 C   0  0  0  0  0  0  0  0  0  0  0  0
   38.4990   24.0110   36.1690 C   0  0  0  0  0  0  0  0  0  0  0  0
   39.6500   23.3340   36.4910 C   0  0  0  0  0  0  0  0  0  0  0  0
   39.8880   22.9460   37.7570 N   0  0  0  0  0  0  0  0  0  0  0  0
   38.9950   23.2130   38.7600 C   0  0  0  0  0  0  0  0  0  0  0  0
   37.8530   23.8750   38.4840 N   0  0  0  0  0  0  0  0  0  0  0  0
   37.0220   23.3460   31.6460 C   0  0  2  0  0  0  0  0  0  0  0  0
   35.5360   23.3660   31.2600 C   0  0  0  0  0  0  0  0  0  0  0  0
   36.1950   22.1590   31.7890 C   0  0  1  0  0  0  0  0  0  0  0  0
   36.4630   20.9430   30.9080 C   0  0  0  0  0  0  0  0  0  0  0  0
   36.3360   19.7020   31.7730 C   0  0  0  0  0  0  0  0  0  0  0  0
   36.3050   18.5110   30.8390 C   0  0  0  0  0  0  0  0  0  0  0  0
   36.7420   18.8830   29.4420 C   0  0  0  0  0  0  0  0  0  0  0  0
   37.9830   19.7380   29.4530 C   0  0  0  0  0  0  0  0  0  0  0  0
   37.8480   20.9570   30.3390 C   0  0  0  0  0  0  0  0  0  0  0  0
   38.2610   26.4396   35.7394 H   0  0  0  0  0  0  0  0  0  0  0  0
   37.5037   27.5402   33.5962 H   0  0  0  0  0  0  0  0  0  0  0  0
   36.6523   24.8130   37.0222 H   0  0  0  0  0  0  0  0  0  0  0  0
   40.3852   23.1066   35.7051 H   0  0  0  0  0  0  0  0  0  0  0  0
   39.2087   22.8881   39.7890 H   0  0  0  0  0  0  0  0  0  0  0  0
   38.0185   23.4764   31.1988 H   0  0  0  0  0  0  0  0  0  0  0  0
   34.8091   23.9174   31.8745 H   0  0  0  0  0  0  0  0  0  0  0  0
   34.9558   23.6206   30.3608 H   0  0  0  0  0  0  0  0  0  0  0  0
   35.9554   21.4832   32.6232 H   0  0  0  0  0  0  0  0  0  0  0  0
   35.7423   20.9549   30.0771 H   0  0  0  0  0  0  0  0  0  0  0  0
   37.1972   19.6261   32.4531 H   0  0  0  0  0  0  0  0  0  0  0  0
   35.4236   19.7432   32.3861 H   0  0  0  0  0  0  0  0  0  0  0  0
   36.9804   17.7351   31.2287 H   0  0  0  0  0  0  0  0  0  0  0  0
   35.2694   18.1437   30.7872 H   0  0  0  0  0  0  0  0  0  0  0  0
   35.9302   19.4400   28.9514 H   0  0  0  0  0  0  0  0  0  0  0  0
   36.9706   17.9554   28.8968 H   0  0  0  0  0  0  0  0  0  0  0  0
   38.8249   19.1307   29.8169 H   0  0  0  0  0  0  0  0  0  0  0  0
   38.1496   20.0927   28.4252 H   0  0  0  0  0  0  0  0  0  0  0  0
   38.5889   20.9160   31.1510 H   0  0  0  0  0  0  0  0  0  0  0  0
   38.0232   21.8779   29.7635 H   0  0  0  0  0  0  0  0  0  0  0  0
  1 10  1  0
  2  1  1  0
  3  2  2  0
  4  6  1  0
  4  3  1  0
  5  4  2  0
  6  7  1  0
  7  8  2  0
  7  1  1  0
  9 14  2  0
 10 11  2  0
 10  9  1  0
 11 12  1  0
 12 13  2  0
 14 13  1  0
 15 17  1  0
 15  6  1  0
 16 15  1  0
 16 17  1  0
 18 19  1  0
 18 17  1  0
 20 19  1  0
 21 22  1  0
 21 20  1  0
 22 23  1  0
 23 18  1  0
  2 24  1  0
  3 25  1  0
  9 26  1  0
 11 27  1  0
 13 28  1  0
 15 29  1  6
 16 30  1  0
 16 31  1  0
 17 32  1  1
 18 33  1  0
 19 34  1  0
 19 35  1  0
 20 36  1  0
 20 37  1  0
 21 38  1  0
 21 39  1  0
 22 40  1  0
 22 41  1  0
 23 42  1  0
 23 43  1  0
M  ISO  8  24  14  25  14  26  14  27  14  28  14  29  13  30  13  31  13
M  ISO  8  32  13  33  13  34  13  35  13  36  13  37  13  38  13  39  13
M  ISO  4  40  13  41  13  42  13  43  13
M  END
>  <minimizedAffinity>  (1) 
-5.54468346

>  <minimizedRMSD>  (1) 
1.79548907

$$$$
