
     RDKit          3D

 40 43  0  0  1  0  0  0  0  0999 V2000
   38.4020   24.3300   34.8790 N   0  0  0  0  0  0  0  0  0  0  0  0
   38.7400   25.5950   34.6040 C   0  0  0  0  0  0  0  0  0  0  0  0
   38.5270   26.1080   33.3220 C   0  0  0  0  0  0  0  0  0  0  0  0
   37.9590   25.2350   32.3880 C   0  0  0  0  0  0  0  0  0  0  0  0
   37.7470   25.6310   31.2380 O   0  0  0  0  0  0  0  0  0  0  0  0
   37.6260   23.9590   32.6900 N   0  0  0  0  0  0  0  0  0  0  0  0
   37.8510   23.5180   33.9350 C   0  0  0  0  0  0  0  0  0  0  0  0
   37.5630   22.3560   34.2640 O   0  0  0  0  0  0  0  0  0  0  0  0
   37.7380   24.4450   37.1340 C   0  0  0  0  0  0  0  0  0  0  0  0
   38.6690   23.9520   36.1920 C   0  0  0  0  0  0  0  0  0  0  0  0
   39.6970   23.1780   36.6880 C   0  0  0  0  0  0  0  0  0  0  0  0
   39.7940   22.9160   38.0040 N   0  0  0  0  0  0  0  0  0  0  0  0
   38.8680   23.4130   38.8820 C   0  0  0  0  0  0  0  0  0  0  0  0
   37.8560   24.1670   38.4470 N   0  0  0  0  0  0  0  0  0  0  0  0
   37.0440   23.0440   31.7580 C   0  0  2  0  0  0  0  0  0  0  0  0
   35.6470   23.4710   31.2870 C   0  0  0  0  0  0  0  0  0  0  0  0
   35.8840   22.2130   32.0500 C   0  0  1  0  0  0  0  0  0  0  0  0
   35.6770   20.9010   31.3290 C   0  0  0  0  0  0  0  0  0  0  0  0
   36.9040   20.4250   30.5880 C   0  0  0  0  0  0  0  0  0  0  0  0
   36.4870   18.9960   30.2210 C   0  0  0  0  0  0  0  0  0  0  0  0
   35.7260   18.5180   31.4460 C   0  0  0  0  0  0  0  0  0  0  0  0
   35.4510   19.7570   32.2910 C   0  0  0  0  0  0  0  0  0  0  0  0
   39.1844   26.2294   35.3851 H   0  0  0  0  0  0  0  0  0  0  0  0
   38.7918   27.1432   33.0610 H   0  0  0  0  0  0  0  0  0  0  0  0
   36.9001   25.0683   36.7883 H   0  0  0  0  0  0  0  0  0  0  0  0
   40.4489   22.7687   35.9973 H   0  0  0  0  0  0  0  0  0  0  0  0
   38.9589   23.1889   39.9551 H   0  0  0  0  0  0  0  0  0  0  0  0
   38.0288   22.7806   31.3447 H   0  0  0  0  0  0  0  0  0  0  0  0
   35.1355   24.3217   31.7611 H   0  0  0  0  0  0  0  0  0  0  0  0
   35.1827   23.7392   30.3266 H   0  0  0  0  0  0  0  0  0  0  0  0
   35.4912   21.7840   32.9836 H   0  0  0  0  0  0  0  0  0  0  0  0
   34.8261   21.1178   30.6664 H   0  0  0  0  0  0  0  0  0  0  0  0
   37.0958   21.0328   29.6915 H   0  0  0  0  0  0  0  0  0  0  0  0
   37.8374   20.4910   31.1663 H   0  0  0  0  0  0  0  0  0  0  0  0
   35.8404   18.9922   29.3311 H   0  0  0  0  0  0  0  0  0  0  0  0
   37.3436   18.3521   29.9727 H   0  0  0  0  0  0  0  0  0  0  0  0
   34.7797   18.0445   31.1455 H   0  0  0  0  0  0  0  0  0  0  0  0
   36.3046   17.7710   32.0092 H   0  0  0  0  0  0  0  0  0  0  0  0
   36.1470   19.8152   33.1408 H   0  0  0  0  0  0  0  0  0  0  0  0
   34.4420   19.7601   32.7292 H   0  0  0  0  0  0  0  0  0  0  0  0
  1 10  1  0
  2  1  1  0
  3  2  2  0
  4  6  1  0
  4  3  1  0
  5  4  2  0
  6  7  1  0
  7  8  2  0
  7  1  1  0
  9 14  2  0
 10 11  2  0
 10  9  1  0
 11 12  1  0
 12 13  2  0
 14 13  1  0
 15 17  1  0
 15  6  1  0
 16 15  1  0
 16 17  1  0
 18 17  1  0
 18 22  1  0
 19 18  1  0
 20 19  1  0
 20 21  1  0
 21 22  1  0
  2 23  1  0
  3 24  1  0
  9 25  1  0
 11 26  1  0
 13 27  1  0
 15 28  1  6
 16 29  1  0
 16 30  1  0
 17 31  1  1
 18 32  1  0
 19 33  1  0
 19 34  1  0
 20 35  1  0
 20 36  1  0
 21 37  1  0
 21 38  1  0
 22 39  1  0
 22 40  1  0
M  ISO  8  23  14  24  14  25  14  26  14  27  14  28  13  29  13  30  13
M  ISO  8  31  13  32  13  33  13  34  13  35  13  36  13  37  13  38  13
M  ISO  2  39  13  40  13
M  END
>  <minimizedAffinity>  (1) 
-5.53589535

>  <minimizedRMSD>  (1) 
1.61043727

$$$$
