
     RDKit          3D

 40 43  0  0  0  0  0  0  0  0999 V2000
   37.2550   22.5930   37.1820 C   0  0  0  0  0  0  0  0  0  0  0  0
   36.9640   21.9240   35.9230 C   0  0  0  0  0  0  0  0  0  0  0  0
   35.8840   21.1720   35.6860 C   0  0  0  0  0  0  0  0  0  0  0  0
   35.6000   20.5530   34.5090 C   0  0  0  0  0  0  0  0  0  0  0  0
   36.6190   20.8060   33.5280 C   0  0  0  0  0  0  0  0  0  0  0  0
   37.8640   21.8960   34.3960 S   0  0  0  0  0  0  0  0  0  0  0  0
   36.8150   20.4190   32.1580 C   0  0  0  0  0  0  0  0  0  0  0  0
   36.0350   19.5250   31.5110 C   0  0  0  0  0  0  0  0  0  0  0  0
   36.7420   19.4860   29.7780 S   0  0  0  0  0  0  0  0  0  0  0  0
   38.0310   20.7690   30.3290 C   0  0  0  0  0  0  0  0  0  0  0  0
   37.7230   20.9010   31.3940 N   0  0  0  0  0  0  0  0  0  0  0  0
   39.0430   21.2590   29.3530 C   0  0  0  0  0  0  0  0  0  0  0  0
   39.8170   20.6350   28.4340 N   0  0  0  0  0  0  0  0  0  0  0  0
   40.5300   21.5220   27.8360 O   0  0  0  0  0  0  0  0  0  0  0  0
   40.2970   22.7240   28.2870 C   0  0  0  0  0  0  0  0  0  0  0  0
   39.3500   22.5860   29.2560 N   0  0  0  0  0  0  0  0  0  0  0  0
   38.1410   23.7940   37.0750 C   0  0  0  0  0  0  0  0  0  0  0  0
   41.4350   22.0150   37.2540 C   0  0  0  0  0  0  0  0  0  0  0  0
   40.1320   22.3560   37.5680 C   0  0  0  0  0  0  0  0  0  0  0  0
   39.5040   23.3740   36.8160 C   0  0  0  0  0  0  0  0  0  0  0  0
   40.2270   23.9520   35.8290 N   0  0  0  0  0  0  0  0  0  0  0  0
   41.4900   23.6040   35.5440 C   0  0  0  0  0  0  0  0  0  0  0  0
   42.0950   22.6280   36.2650 N   0  0  0  0  0  0  0  0  0  0  0  0
   38.1280   24.5250   38.4170 C   0  0  0  0  0  0  0  0  0  0  0  0
   37.5680   24.6870   35.9980 C   0  0  0  0  0  0  0  0  0  0  0  0
   36.3007   22.9125   37.6262 H   0  0  0  0  0  0  0  0  0  0  0  0
   37.8028   21.8631   37.7962 H   0  0  0  0  0  0  0  0  0  0  0  0
   35.1669   21.0437   36.5102 H   0  0  0  0  0  0  0  0  0  0  0  0
   34.7056   19.9379   34.3309 H   0  0  0  0  0  0  0  0  0  0  0  0
   35.1836   18.9537   31.9095 H   0  0  0  0  0  0  0  0  0  0  0  0
   40.7696   23.6592   27.9524 H   0  0  0  0  0  0  0  0  0  0  0  0
   41.9387   21.2240   37.8289 H   0  0  0  0  0  0  0  0  0  0  0  0
   39.5975   21.8469   38.3835 H   0  0  0  0  0  0  0  0  0  0  0  0
   42.0323   24.1073   34.7300 H   0  0  0  0  0  0  0  0  0  0  0  0
   38.1411   23.7898   39.2351 H   0  0  0  0  0  0  0  0  0  0  0  0
   39.0148   25.1716   38.4909 H   0  0  0  0  0  0  0  0  0  0  0  0
   37.2188   25.1397   38.4909 H   0  0  0  0  0  0  0  0  0  0  0  0
   37.0301   25.5254   36.4646 H   0  0  0  0  0  0  0  0  0  0  0  0
   38.3844   25.0777   35.3729 H   0  0  0  0  0  0  0  0  0  0  0  0
   36.8726   24.1076   35.3729 H   0  0  0  0  0  0  0  0  0  0  0  0
  2  1  1  0
  3  2  2  0
  4  3  1  0
  5  6  1  0
  5  4  2  0
  6  2  1  0
  7  5  1  0
  8  7  2  0
  9 10  1  0
  9  8  1  0
 10 11  2  0
 11  7  1  0
 12 10  1  0
 13 12  2  0
 14 15  1  0
 14 13  1  0
 15 16  2  0
 16 12  1  0
 17  1  1  0
 17 24  1  0
 18 19  2  0
 20 17  1  0
 20 19  1  0
 21 20  2  0
 22 21  1  0
 22 23  2  0
 23 18  1  0
 25 17  1  0
  1 26  1  0
  1 27  1  0
  3 28  1  0
  4 29  1  0
  8 30  1  0
 15 31  1  0
 18 32  1  0
 19 33  1  0
 22 34  1  0
 24 35  1  0
 24 36  1  0
 24 37  1  0
 25 38  1  0
 25 39  1  0
 25 40  1  0
M  ISO  8  26   8  27   8  28  14  29  14  30  14  31  14  32  14  33  14
M  ISO  7  34  14  35   8  36   8  37   8  38   8  39   8  40   8
M  END
>  <minimizedAffinity>  (1) 
-4.59562492

>  <minimizedRMSD>  (1) 
0.234201863

$$$$
