
     RDKit          3D

 36 38  0  0  1  0  0  0  0  0999 V2000
   38.4510   24.3750   34.7050 N   0  0  0  0  0  0  0  0  0  0  0  0
   38.8920   25.6100   34.4300 C   0  0  0  0  0  0  0  0  0  0  0  0
   38.7170   26.1610   33.1620 C   0  0  0  0  0  0  0  0  0  0  0  0
   38.0640   25.3500   32.2240 C   0  0  0  0  0  0  0  0  0  0  0  0
   37.8690   25.7640   31.0750 O   0  0  0  0  0  0  0  0  0  0  0  0
   37.6210   24.1010   32.5110 N   0  0  0  0  0  0  0  0  0  0  0  0
   37.8230   23.6350   33.7510 C   0  0  0  0  0  0  0  0  0  0  0  0
   37.4340   22.4870   34.0740 O   0  0  0  0  0  0  0  0  0  0  0  0
   37.7770   24.4740   36.9550 C   0  0  0  0  0  0  0  0  0  0  0  0
   38.6960   23.9620   36.0070 C   0  0  0  0  0  0  0  0  0  0  0  0
   39.6880   23.1420   36.4920 C   0  0  0  0  0  0  0  0  0  0  0  0
   39.7570   22.8570   37.8100 N   0  0  0  0  0  0  0  0  0  0  0  0
   38.8620   23.3640   38.6860 C   0  0  0  0  0  0  0  0  0  0  0  0
   37.8830   24.1640   38.2610 N   0  0  0  0  0  0  0  0  0  0  0  0
   36.9520   23.2440   31.5820 C   0  0  2  0  0  0  0  0  0  0  0  0
   35.5660   23.7770   31.1780 C   0  0  0  0  0  0  0  0  0  0  0  0
   35.7430   22.4870   31.9000 C   0  0  1  0  0  0  0  0  0  0  0  0
   35.4650   21.1800   31.1710 C   0  0  0  0  0  0  0  0  0  0  0  0
   34.6700   20.2180   32.0300 C   0  0  0  0  0  0  0  0  0  0  0  0
   36.7420   20.4690   30.7740 C   0  0  0  0  0  0  0  0  0  0  0  0
   39.3972   26.1947   35.2129 H   0  0  0  0  0  0  0  0  0  0  0  0
   39.0704   27.1723   32.9122 H   0  0  0  0  0  0  0  0  0  0  0  0
   36.9643   25.1349   36.6194 H   0  0  0  0  0  0  0  0  0  0  0  0
   40.4303   22.7154   35.8014 H   0  0  0  0  0  0  0  0  0  0  0  0
   38.9411   23.1158   39.7547 H   0  0  0  0  0  0  0  0  0  0  0  0
   37.9003   22.9222   31.1269 H   0  0  0  0  0  0  0  0  0  0  0  0
   35.1332   24.6476   31.6925 H   0  0  0  0  0  0  0  0  0  0  0  0
   35.0846   24.1010   30.2435 H   0  0  0  0  0  0  0  0  0  0  0  0
   35.3287   22.0727   32.8310 H   0  0  0  0  0  0  0  0  0  0  0  0
   34.8922   21.4610   30.2749 H   0  0  0  0  0  0  0  0  0  0  0  0
   34.8522   20.4384   33.0922 H   0  0  0  0  0  0  0  0  0  0  0  0
   33.5980   20.3307   31.8108 H   0  0  0  0  0  0  0  0  0  0  0  0
   34.9826   19.1864   31.8108 H   0  0  0  0  0  0  0  0  0  0  0  0
   37.2887   20.1646   31.6787 H   0  0  0  0  0  0  0  0  0  0  0  0
   36.4955   19.5783   30.1775 H   0  0  0  0  0  0  0  0  0  0  0  0
   37.3693   21.1477   30.1775 H   0  0  0  0  0  0  0  0  0  0  0  0
  1 10  1  0
  2  1  1  0
  3  2  2  0
  4  6  1  0
  4  3  1  0
  5  4  2  0
  6  7  1  0
  7  8  2  0
  7  1  1  0
  9 14  2  0
 10 11  2  0
 10  9  1  0
 11 12  1  0
 12 13  2  0
 14 13  1  0
 15 17  1  0
 15  6  1  0
 16 15  1  0
 16 17  1  0
 18 17  1  0
 18 19  1  0
 20 18  1  0
  2 21  1  0
  3 22  1  0
  9 23  1  0
 11 24  1  0
 13 25  1  0
 15 26  1  6
 16 27  1  0
 16 28  1  0
 17 29  1  1
 18 30  1  0
 19 31  1  0
 19 32  1  0
 19 33  1  0
 20 34  1  0
 20 35  1  0
 20 36  1  0
M  ISO  8  21  14  22  14  23  14  24  14  25  14  26  13  27  13  28  13
M  ISO  8  29  13  30   8  31   8  32   8  33   8  34   8  35   8  36   8
M  END
>  <minimizedAffinity>  (1) 
-5.29100657

>  <minimizedRMSD>  (1) 
1.31840193

$$$$
