
     RDKit          3D

 33 36  0  0  1  0  0  0  0  0999 V2000
   38.1050   24.0070   34.7360 N   0  0  0  0  0  0  0  0  0  0  0  0
   38.1140   25.3210   34.4640 C   0  0  0  0  0  0  0  0  0  0  0  0
   37.7560   25.7750   33.1940 C   0  0  0  0  0  0  0  0  0  0  0  0
   37.3990   24.7840   32.2660 C   0  0  0  0  0  0  0  0  0  0  0  0
   37.0680   25.1150   31.1120 O   0  0  0  0  0  0  0  0  0  0  0  0
   37.4000   23.4760   32.5690 N   0  0  0  0  0  0  0  0  0  0  0  0
   37.7520   23.0870   33.8030 C   0  0  0  0  0  0  0  0  0  0  0  0
   37.7660   21.8840   34.1230 O   0  0  0  0  0  0  0  0  0  0  0  0
   37.5590   24.1400   37.0280 C   0  0  0  0  0  0  0  0  0  0  0  0
   38.4850   23.7050   36.0390 C   0  0  0  0  0  0  0  0  0  0  0  0
   39.6080   23.0540   36.4990 C   0  0  0  0  0  0  0  0  0  0  0  0
   39.8050   22.8520   37.8130 N   0  0  0  0  0  0  0  0  0  0  0  0
   38.8870   23.2900   38.7300 C   0  0  0  0  0  0  0  0  0  0  0  0
   37.7820   23.9240   38.3330 N   0  0  0  0  0  0  0  0  0  0  0  0
   37.0410   22.4510   31.6400 C   0  0  2  0  0  0  0  0  0  0  0  0
   35.5520   22.4620   31.2490 C   0  0  0  0  0  0  0  0  0  0  0  0
   36.1700   21.3050   31.9580 C   0  0  1  0  0  0  0  0  0  0  0  0
   36.3840   20.0270   31.2300 C   0  0  0  0  0  0  0  0  0  0  0  0
   36.4680   18.8980   32.0500 C   0  0  0  0  0  0  0  0  0  0  0  0
   36.7350   17.4960   30.8070 S   0  0  0  0  0  0  0  0  0  0  0  0
   36.6740   18.7670   29.4030 C   0  0  0  0  0  0  0  0  0  0  0  0
   36.5120   19.7260   29.9590 N   0  0  0  0  0  0  0  0  0  0  0  0
   38.4040   26.0412   35.2432 H   0  0  0  0  0  0  0  0  0  0  0  0
   37.7537   26.8443   32.9358 H   0  0  0  0  0  0  0  0  0  0  0  0
   36.6430   24.6633   36.7165 H   0  0  0  0  0  0  0  0  0  0  0  0
   40.3567   22.6931   35.7785 H   0  0  0  0  0  0  0  0  0  0  0  0
   39.0619   23.1178   39.8023 H   0  0  0  0  0  0  0  0  0  0  0  0
   38.0366   22.4914   31.1739 H   0  0  0  0  0  0  0  0  0  0  0  0
   34.8452   23.1214   31.7740 H   0  0  0  0  0  0  0  0  0  0  0  0
   34.9822   22.6036   30.3188 H   0  0  0  0  0  0  0  0  0  0  0  0
   35.9195   20.7626   32.8816 H   0  0  0  0  0  0  0  0  0  0  0  0
   36.3966   18.8391   33.1461 H   0  0  0  0  0  0  0  0  0  0  0  0
   36.7724   18.6048   28.3195 H   0  0  0  0  0  0  0  0  0  0  0  0
  1 10  1  0
  2  1  1  0
  3  2  2  0
  4  6  1  0
  4  3  1  0
  5  4  2  0
  6  7  1  0
  7  8  2  0
  7  1  1  0
  9 14  2  0
 10 11  2  0
 10  9  1  0
 11 12  1  0
 12 13  2  0
 14 13  1  0
 15 17  1  0
 15  6  1  0
 16 15  1  0
 16 17  1  0
 18 17  1  0
 18 19  2  0
 20 19  1  0
 21 22  2  0
 21 20  1  0
 22 18  1  0
  2 23  1  0
  3 24  1  0
  9 25  1  0
 11 26  1  0
 13 27  1  0
 15 28  1  6
 16 29  1  0
 16 30  1  0
 17 31  1  1
 19 32  1  0
 21 33  1  0
M  ISO  8  23  14  24  14  25  14  26  14  27  14  28  13  29  13  30  13
M  ISO  3  31  13  32  14  33  14
M  END
>  <minimizedAffinity>  (1) 
-5.22584295

>  <minimizedRMSD>  (1) 
2.2674017

$$$$
