
     RDKit          3D

 32 35  0  0  1  0  0  0  0  0999 V2000
   38.1230   23.9330   34.7690 N   0  0  0  0  0  0  0  0  0  0  0  0
   38.1630   25.2330   34.4460 C   0  0  0  0  0  0  0  0  0  0  0  0
   37.8240   25.6440   33.1530 C   0  0  0  0  0  0  0  0  0  0  0  0
   37.4550   24.6390   32.2610 C   0  0  0  0  0  0  0  0  0  0  0  0
   37.1390   24.9170   31.0960 O   0  0  0  0  0  0  0  0  0  0  0  0
   37.4220   23.3240   32.6150 N   0  0  0  0  0  0  0  0  0  0  0  0
   37.7590   22.9870   33.8720 C   0  0  0  0  0  0  0  0  0  0  0  0
   37.7430   21.8020   34.2360 O   0  0  0  0  0  0  0  0  0  0  0  0
   37.5670   24.1530   37.0480 C   0  0  0  0  0  0  0  0  0  0  0  0
   38.4860   23.6760   36.0850 C   0  0  0  0  0  0  0  0  0  0  0  0
   39.6050   23.0240   36.5760 C   0  0  0  0  0  0  0  0  0  0  0  0
   39.7860   22.8690   37.8990 N   0  0  0  0  0  0  0  0  0  0  0  0
   38.8820   23.3420   38.7980 C   0  0  0  0  0  0  0  0  0  0  0  0
   37.7760   23.9820   38.3600 N   0  0  0  0  0  0  0  0  0  0  0  0
   37.0480   22.2560   31.7250 C   0  0  2  0  0  0  0  0  0  0  0  0
   35.5610   22.3010   31.3380 C   0  0  0  0  0  0  0  0  0  0  0  0
   36.1530   21.1700   32.1070 C   0  0  1  0  0  0  0  0  0  0  0  0
   36.3530   19.8570   31.3990 C   0  0  0  0  0  0  0  0  0  0  0  0
   36.4340   19.6620   30.0690 N   0  0  0  0  0  0  0  0  0  0  0  0
   36.6090   18.3870   29.8340 O   0  0  0  0  0  0  0  0  0  0  0  0
   36.6500   17.7140   30.9540 C   0  0  0  0  0  0  0  0  0  0  0  0
   36.4900   18.6360   31.9480 N   0  0  0  0  0  0  0  0  0  0  0  0
   38.4627   25.9773   35.1985 H   0  0  0  0  0  0  0  0  0  0  0  0
   37.8474   26.7030   32.8562 H   0  0  0  0  0  0  0  0  0  0  0  0
   36.6597   24.6765   36.7120 H   0  0  0  0  0  0  0  0  0  0  0  0
   40.3546   22.6283   35.8749 H   0  0  0  0  0  0  0  0  0  0  0  0
   39.0505   23.2042   39.8762 H   0  0  0  0  0  0  0  0  0  0  0  0
   38.0412   22.2362   31.2526 H   0  0  0  0  0  0  0  0  0  0  0  0
   34.8794   23.0113   31.8287 H   0  0  0  0  0  0  0  0  0  0  0  0
   34.9885   22.4105   30.4051 H   0  0  0  0  0  0  0  0  0  0  0  0
   35.8864   20.6884   33.0594 H   0  0  0  0  0  0  0  0  0  0  0  0
   36.7855   16.6287   31.0713 H   0  0  0  0  0  0  0  0  0  0  0  0
  1 10  1  0
  2  1  1  0
  3  2  2  0
  4  6  1  0
  4  3  1  0
  5  4  2  0
  6  7  1  0
  7  8  2  0
  7  1  1  0
  9 14  2  0
 10 11  2  0
 10  9  1  0
 11 12  1  0
 12 13  2  0
 14 13  1  0
 15 17  1  0
 15  6  1  0
 16 15  1  0
 16 17  1  0
 18 22  1  0
 18 17  1  0
 19 18  2  0
 20 19  1  0
 20 21  1  0
 21 22  2  0
  2 23  1  0
  3 24  1  0
  9 25  1  0
 11 26  1  0
 13 27  1  0
 15 28  1  6
 16 29  1  0
 16 30  1  0
 17 31  1  1
 21 32  1  0
M  ISO  8  23  14  24  14  25  14  26  14  27  14  28  13  29  13  30  13
M  ISO  2  31  13  32  14
M  END
>  <minimizedAffinity>  (1) 
-5.21076488

>  <minimizedRMSD>  (1) 
2.38339877

$$$$
