
     RDKit          3D

 34 37  0  0  1  0  0  0  0  0999 V2000
   38.4950   24.0750   34.7960 N   0  0  0  0  0  0  0  0  0  0  0  0
   38.9620   25.2870   34.4140 C   0  0  0  0  0  0  0  0  0  0  0  0
   38.8130   25.7100   33.0920 C   0  0  0  0  0  0  0  0  0  0  0  0
   38.1740   24.8320   32.2260 C   0  0  0  0  0  0  0  0  0  0  0  0
   38.0050   25.1410   31.0350 O   0  0  0  0  0  0  0  0  0  0  0  0
   37.7130   23.6230   32.6300 N   0  0  0  0  0  0  0  0  0  0  0  0
   37.8800   23.2620   33.9110 C   0  0  0  0  0  0  0  0  0  0  0  0
   37.4730   22.1590   34.3260 O   0  0  0  0  0  0  0  0  0  0  0  0
   37.7860   24.3760   37.0150 C   0  0  0  0  0  0  0  0  0  0  0  0
   38.7150   23.7970   36.1350 C   0  0  0  0  0  0  0  0  0  0  0  0
   39.7130   23.0350   36.7100 C   0  0  0  0  0  0  0  0  0  0  0  0
   39.7530   22.8840   38.0510 N   0  0  0  0  0  0  0  0  0  0  0  0
   38.8410   23.4580   38.8640 C   0  0  0  0  0  0  0  0  0  0  0  0
   37.8630   24.1990   38.3430 N   0  0  0  0  0  0  0  0  0  0  0  0
   37.0470   22.6890   31.7610 C   0  0  2  0  0  0  0  0  0  0  0  0
   35.6440   23.1710   31.3440 C   0  0  0  0  0  0  0  0  0  0  0  0
   35.8620   21.9330   32.1430 C   0  0  1  0  0  0  0  0  0  0  0  0
   35.6430   20.5880   31.4660 C   0  0  0  0  0  0  0  0  0  0  0  0
   35.9360   19.3560   32.2840 C   0  0  0  0  0  0  0  0  0  0  0  0
   34.5230   19.7540   31.9960 C   0  0  0  0  0  0  0  0  0  0  0  0
   39.4597   25.9395   35.1465 H   0  0  0  0  0  0  0  0  0  0  0  0
   39.1829   26.6890   32.7533 H   0  0  0  0  0  0  0  0  0  0  0  0
   36.9724   24.9919   36.6041 H   0  0  0  0  0  0  0  0  0  0  0  0
   40.4728   22.5527   36.0775 H   0  0  0  0  0  0  0  0  0  0  0  0
   38.9046   23.3148   39.9528 H   0  0  0  0  0  0  0  0  0  0  0  0
   37.9951   22.3562   31.3134 H   0  0  0  0  0  0  0  0  0  0  0  0
   35.2005   24.0635   31.8095 H   0  0  0  0  0  0  0  0  0  0  0  0
   35.1420   23.4264   30.3991 H   0  0  0  0  0  0  0  0  0  0  0  0
   35.4588   21.5737   33.1013 H   0  0  0  0  0  0  0  0  0  0  0  0
   35.9473   20.9515   30.4734 H   0  0  0  0  0  0  0  0  0  0  0  0
   36.3663   18.4650   31.8034 H   0  0  0  0  0  0  0  0  0  0  0  0
   36.5165   19.1438   33.1939 H   0  0  0  0  0  0  0  0  0  0  0  0
   33.8864   20.1410   32.8053 H   0  0  0  0  0  0  0  0  0  0  0  0
   33.6527   19.2515   31.5487 H   0  0  0  0  0  0  0  0  0  0  0  0
  1 10  1  0
  2  1  1  0
  3  2  2  0
  4  6  1  0
  4  3  1  0
  5  4  2  0
  6  7  1  0
  7  8  2  0
  7  1  1  0
  9 14  2  0
 10 11  2  0
 10  9  1  0
 11 12  1  0
 12 13  2  0
 14 13  1  0
 15 17  1  0
 15  6  1  0
 16 15  1  0
 16 17  1  0
 18 20  1  0
 18 17  1  0
 18 19  1  0
 20 19  1  0
  2 21  1  0
  3 22  1  0
  9 23  1  0
 11 24  1  0
 13 25  1  0
 15 26  1  6
 16 27  1  0
 16 28  1  0
 17 29  1  1
 18 30  1  0
 19 31  1  0
 19 32  1  0
 20 33  1  0
 20 34  1  0
M  ISO  8  21  14  22  14  23  14  24  14  25  14  26  13  27  13  28  13
M  ISO  6  29  13  30  13  31  13  32  13  33  13  34  13
M  END
>  <minimizedAffinity>  (1) 
-5.19646931

>  <minimizedRMSD>  (1) 
1.69185138

$$$$
