
     RDKit          3D

 34 36  0  0  1  0  0  0  0  0999 V2000
   38.5090   24.5680   34.5570 N   0  0  0  0  0  0  0  0  0  0  0  0
   39.0160   25.7910   34.3570 C   0  0  0  0  0  0  0  0  0  0  0  0
   38.8710   26.4290   33.1280 C   0  0  0  0  0  0  0  0  0  0  0  0
   38.1730   25.7150   32.1410 C   0  0  0  0  0  0  0  0  0  0  0  0
   38.0070   26.2260   31.0210 O   0  0  0  0  0  0  0  0  0  0  0  0
   37.6640   24.4750   32.3570 N   0  0  0  0  0  0  0  0  0  0  0  0
   37.8410   23.9220   33.5640 C   0  0  0  0  0  0  0  0  0  0  0  0
   37.3890   22.7850   33.8030 O   0  0  0  0  0  0  0  0  0  0  0  0
   37.7930   24.5050   36.7890 C   0  0  0  0  0  0  0  0  0  0  0  0
   38.7290   24.0610   35.8240 C   0  0  0  0  0  0  0  0  0  0  0  0
   39.7120   23.2040   36.2630 C   0  0  0  0  0  0  0  0  0  0  0  0
   39.7480   22.8250   37.5680 N   0  0  0  0  0  0  0  0  0  0  0  0
   38.8310   23.2730   38.4650 C   0  0  0  0  0  0  0  0  0  0  0  0
   37.8490   24.1140   38.0830 N   0  0  0  0  0  0  0  0  0  0  0  0
   36.9510   23.7270   31.3720 C   0  0  2  0  0  0  0  0  0  0  0  0
   35.5630   24.2750   31.0660 C   0  0  0  0  0  0  0  0  0  0  0  0
   35.7400   22.9430   31.6700 C   0  0  1  0  0  0  0  0  0  0  0  0
   35.5680   21.7260   30.8930 N   0  0  0  0  0  0  0  0  0  0  0  0
   35.4550   20.4320   31.5150 C   0  0  0  0  0  0  0  0  0  0  0  0
   34.9140   20.4150   32.7090 N   0  0  0  0  0  0  0  0  0  0  0  0
   35.9160   19.2410   30.8460 N   0  0  0  0  0  0  0  0  0  0  0  0
   34.8350   19.4570   33.1620 H   0  0  0  0  0  0  0  0  0  0  0  0
   39.5530   26.2973   35.1727 H   0  0  0  0  0  0  0  0  0  0  0  0
   39.2792   27.4332   32.9413 H   0  0  0  0  0  0  0  0  0  0  0  0
   36.9926   25.1916   36.4759 H   0  0  0  0  0  0  0  0  0  0  0  0
   40.4678   22.8260   35.5588 H   0  0  0  0  0  0  0  0  0  0  0  0
   38.8905   22.9461   39.5136 H   0  0  0  0  0  0  0  0  0  0  0  0
   37.8823   23.4617   30.8501 H   0  0  0  0  0  0  0  0  0  0  0  0
   35.1512   25.1025   31.6624 H   0  0  0  0  0  0  0  0  0  0  0  0
   35.0549   24.6707   30.1742 H   0  0  0  0  0  0  0  0  0  0  0  0
   35.2877   22.4785   32.5586 H   0  0  0  0  0  0  0  0  0  0  0  0
   35.5257   21.7914   29.8660 H   0  0  0  0  0  0  0  0  0  0  0  0
   35.8268   18.3242   31.3068 H   0  0  0  0  0  0  0  0  0  0  0  0
   36.3346   19.3069   29.9072 H   0  0  0  0  0  0  0  0  0  0  0  0
  1 10  1  0
  2  1  1  0
  3  2  2  0
  4  6  1  0
  4  3  1  0
  5  4  2  0
  6  7  1  0
  7  8  2  0
  7  1  1  0
  9 14  2  0
 10 11  2  0
 10  9  1  0
 11 12  1  0
 12 13  2  0
 14 13  1  0
 15 17  1  0
 15  6  1  0
 16 15  1  0
 16 17  1  0
 18 19  1  0
 18 17  1  0
 19 20  2  0
 20 22  1  0
 21 19  1  0
  2 23  1  0
  3 24  1  0
  9 25  1  0
 11 26  1  0
 13 27  1  0
 15 28  1  6
 16 29  1  0
 16 30  1  0
 17 31  1  1
 18 32  1  0
 21 33  1  0
 21 34  1  0
M  ISO  8  23  14  24  14  25  14  26  14  27  14  28  13  29  13  30  13
M  ISO  1  31  13
M  END
>  <minimizedAffinity>  (1) 
-5.17987013

>  <minimizedRMSD>  (1) 
1.10959065

$$$$
