
     RDKit          3D

 29 31  0  0  1  0  0  0  0  0999 V2000
   38.3710   23.5840   34.6540 N   0  0  0  0  0  0  0  0  0  0  0  0
   38.8920   24.6720   34.0740 C   0  0  0  0  0  0  0  0  0  0  0  0
   38.7060   24.9040   32.7160 C   0  0  0  0  0  0  0  0  0  0  0  0
   37.9580   23.9450   32.0230 C   0  0  0  0  0  0  0  0  0  0  0  0
   37.7510   24.0830   30.8080 O   0  0  0  0  0  0  0  0  0  0  0  0
   37.4420   22.8560   32.6190 N   0  0  0  0  0  0  0  0  0  0  0  0
   37.6530   22.6860   33.9330 C   0  0  0  0  0  0  0  0  0  0  0  0
   37.1900   21.6810   34.5370 O   0  0  0  0  0  0  0  0  0  0  0  0
   37.6970   24.1740   36.8340 C   0  0  0  0  0  0  0  0  0  0  0  0
   38.6350   23.4800   36.0210 C   0  0  0  0  0  0  0  0  0  0  0  0
   39.6540   22.8140   36.6680 C   0  0  0  0  0  0  0  0  0  0  0  0
   39.7280   22.8400   38.0200 N   0  0  0  0  0  0  0  0  0  0  0  0
   38.8060   23.5190   38.7640 C   0  0  0  0  0  0  0  0  0  0  0  0
   37.8090   24.1730   38.1730 N   0  0  0  0  0  0  0  0  0  0  0  0
   36.6730   21.8540   31.9470 C   0  0  2  0  0  0  0  0  0  0  0  0
   35.4330   22.4060   31.2350 C   0  0  0  0  0  0  0  0  0  0  0  0
   35.3140   21.4460   32.3450 C   0  0  1  0  0  0  0  0  0  0  0  0
   34.9180   20.0280   32.1220 C   0  0  0  0  0  0  0  0  0  0  0  0
   35.5520   19.3850   31.2740 O   0  0  0  0  0  0  0  0  0  0  0  0
   39.4713   25.3875   34.6760 H   0  0  0  0  0  0  0  0  0  0  0  0
   39.1226   25.7902   32.2149 H   0  0  0  0  0  0  0  0  0  0  0  0
   36.8678   24.7195   36.3598 H   0  0  0  0  0  0  0  0  0  0  0  0
   40.4067   22.2617   36.0863 H   0  0  0  0  0  0  0  0  0  0  0  0
   38.8881   23.5254   39.8609 H   0  0  0  0  0  0  0  0  0  0  0  0
   37.5759   21.2612   31.7388 H   0  0  0  0  0  0  0  0  0  0  0  0
   35.1347   23.4553   31.3762 H   0  0  0  0  0  0  0  0  0  0  0  0
   35.0798   22.4510   30.1942 H   0  0  0  0  0  0  0  0  0  0  0  0
   34.7291   21.4646   33.2764 H   0  0  0  0  0  0  0  0  0  0  0  0
   34.0942   19.5691   32.6884 H   0  0  0  0  0  0  0  0  0  0  0  0
  1 10  1  0
  2  1  1  0
  3  2  2  0
  4  6  1  0
  4  3  1  0
  5  4  2  0
  6  7  1  0
  7  8  2  0
  7  1  1  0
  9 14  2  0
 10 11  2  0
 10  9  1  0
 11 12  1  0
 12 13  2  0
 14 13  1  0
 15 17  1  0
 15  6  1  0
 16 15  1  0
 16 17  1  0
 18 17  1  0
 19 18  2  0
  2 20  1  0
  3 21  1  0
  9 22  1  0
 11 23  1  0
 13 24  1  0
 15 25  1  6
 16 26  1  0
 16 27  1  0
 17 28  1  1
 18 29  1  0
M  ISO  8  20  14  21  14  22  14  23  14  24  14  25  13  26  13  27  13
M  ISO  2  28  13  29   6
M  END
>  <minimizedAffinity>  (1) 
-4.78576756

>  <minimizedRMSD>  (1) 
2.31223941

$$$$
