
     RDKit          3D

 28 30  0  0  1  0  0  0  0  0999 V2000
   38.7940   25.0200   34.8620 N   0  0  0  0  0  0  0  0  0  0  0  0
   39.4390   26.2060   34.8290 C   0  0  0  0  0  0  0  0  0  0  0  0
   39.4130   26.9850   33.6700 C   0  0  0  0  0  0  0  0  0  0  0  0
   38.7040   26.4760   32.5910 C   0  0  0  0  0  0  0  0  0  0  0  0
   38.6310   27.1050   31.5250 O   0  0  0  0  0  0  0  0  0  0  0  0
   38.0620   25.2870   32.6430 N   0  0  0  0  0  0  0  0  0  0  0  0
   38.1220   24.5820   33.7830 C   0  0  0  0  0  0  0  0  0  0  0  0
   37.5400   23.4690   33.8780 O   0  0  0  0  0  0  0  0  0  0  0  0
   37.9930   24.8080   37.0580 C   0  0  0  0  0  0  0  0  0  0  0  0
   38.9070   24.3630   36.0710 C   0  0  0  0  0  0  0  0  0  0  0  0
   39.7680   23.3550   36.4450 C   0  0  0  0  0  0  0  0  0  0  0  0
   39.7330   22.8320   37.6780 N   0  0  0  0  0  0  0  0  0  0  0  0
   38.8440   23.2790   38.6080 C   0  0  0  0  0  0  0  0  0  0  0  0
   37.9770   24.2670   38.2920 N   0  0  0  0  0  0  0  0  0  0  0  0
   37.3140   24.7190   31.5500 C   0  0  2  0  0  0  0  0  0  0  0  0
   36.0400   25.5080   31.2240 C   0  0  0  0  0  0  0  0  0  0  0  0
   35.9810   24.1100   31.7070 C   0  0  1  0  0  0  0  0  0  0  0  0
   35.6380   23.0730   30.8380 O   0  0  0  0  0  0  0  0  0  0  0  0
   39.9855   26.5590   35.7160 H   0  0  0  0  0  0  0  0  0  0  0  0
   39.9293   27.9547   33.6151 H   0  0  0  0  0  0  0  0  0  0  0  0
   37.2825   25.6109   36.8120 H   0  0  0  0  0  0  0  0  0  0  0  0
   40.4985   22.9720   35.7172 H   0  0  0  0  0  0  0  0  0  0  0  0
   38.8315   22.8366   39.6151 H   0  0  0  0  0  0  0  0  0  0  0  0
   38.2263   24.3473   31.0606 H   0  0  0  0  0  0  0  0  0  0  0  0
   35.7175   26.3334   31.8757 H   0  0  0  0  0  0  0  0  0  0  0  0
   35.6557   26.0551   30.3505 H   0  0  0  0  0  0  0  0  0  0  0  0
   35.4349   23.6295   32.5321 H   0  0  0  0  0  0  0  0  0  0  0  0
   35.3744   22.2761   31.3630 H   0  0  0  0  0  0  0  0  0  0  0  0
  1 10  1  0
  2  1  1  0
  3  2  2  0
  4  6  1  0
  4  3  1  0
  5  4  2  0
  6  7  1  0
  7  8  2  0
  7  1  1  0
  9 14  2  0
 10 11  2  0
 10  9  1  0
 11 12  1  0
 12 13  2  0
 14 13  1  0
 15 17  1  0
 15  6  1  0
 16 15  1  0
 16 17  1  0
 18 17  1  0
  2 19  1  0
  3 20  1  0
  9 21  1  0
 11 22  1  0
 13 23  1  0
 15 24  1  6
 16 25  1  0
 16 26  1  0
 17 27  1  1
 18 28  1  0
M  ISO  8  19  14  20  14  21  14  22  14  23  14  24  13  25  13  26  13
M  ISO  2  27  13  28   3
M  END
>  <minimizedAffinity>  (1) 
-4.49604893

>  <minimizedRMSD>  (1) 
0.085200049

$$$$
