
     RDKit          3D

 42 45  0  0  0  0  0  0  0  0999 V2000
   37.2700   22.5630   37.1350 C   0  0  0  0  0  0  0  0  0  0  0  0
   36.9580   21.9020   35.8730 C   0  0  0  0  0  0  0  0  0  0  0  0
   35.8680   21.1490   35.6560 C   0  0  0  0  0  0  0  0  0  0  0  0
   35.5840   20.5430   34.4720 C   0  0  0  0  0  0  0  0  0  0  0  0
   36.5780   20.7970   33.4760 C   0  0  0  0  0  0  0  0  0  0  0  0
   37.8510   21.8900   34.3220 S   0  0  0  0  0  0  0  0  0  0  0  0
   36.7360   20.4090   32.1090 C   0  0  0  0  0  0  0  0  0  0  0  0
   35.9300   19.5200   31.4660 C   0  0  0  0  0  0  0  0  0  0  0  0
   36.7310   19.4390   29.7470 S   0  0  0  0  0  0  0  0  0  0  0  0
   38.0140   20.6700   30.3070 C   0  0  0  0  0  0  0  0  0  0  0  0
   37.6760   20.8320   31.3470 N   0  0  0  0  0  0  0  0  0  0  0  0
   39.0890   21.0910   29.2840 C   0  0  0  0  0  0  0  0  0  0  0  0
   39.5510   22.4930   29.3730 C   0  0  0  0  0  0  0  0  0  0  0  0
   40.4390   21.3990   29.8350 C   0  0  0  0  0  0  0  0  0  0  0  0
   38.1560   23.7660   37.0220 C   0  0  0  0  0  0  0  0  0  0  0  0
   41.4540   21.9980   37.2340 C   0  0  0  0  0  0  0  0  0  0  0  0
   40.1430   22.3290   37.5290 C   0  0  0  0  0  0  0  0  0  0  0  0
   39.5230   23.3460   36.7900 C   0  0  0  0  0  0  0  0  0  0  0  0
   40.2540   23.9530   35.8190 N   0  0  0  0  0  0  0  0  0  0  0  0
   41.5230   23.6150   35.5510 C   0  0  0  0  0  0  0  0  0  0  0  0
   42.1190   22.6350   36.2640 N   0  0  0  0  0  0  0  0  0  0  0  0
   38.1150   24.4990   38.3640 C   0  0  0  0  0  0  0  0  0  0  0  0
   37.5700   24.6350   35.9330 C   0  0  0  0  0  0  0  0  0  0  0  0
   36.3231   22.8797   37.5967 H   0  0  0  0  0  0  0  0  0  0  0  0
   37.8269   21.8285   37.7353 H   0  0  0  0  0  0  0  0  0  0  0  0
   35.1606   21.0137   36.4875 H   0  0  0  0  0  0  0  0  0  0  0  0
   34.6895   19.9263   34.2998 H   0  0  0  0  0  0  0  0  0  0  0  0
   35.0450   18.9873   31.8442 H   0  0  0  0  0  0  0  0  0  0  0  0
   38.7062   20.4435   28.4814 H   0  0  0  0  0  0  0  0  0  0  0  0
   39.7966   23.0492   28.4563 H   0  0  0  0  0  0  0  0  0  0  0  0
   39.1537   23.4130   29.8266 H   0  0  0  0  0  0  0  0  0  0  0  0
   40.6389   21.2679   30.9087 H   0  0  0  0  0  0  0  0  0  0  0  0
   41.4663   21.0792   29.6061 H   0  0  0  0  0  0  0  0  0  0  0  0
   41.9550   21.2017   37.8040 H   0  0  0  0  0  0  0  0  0  0  0  0
   39.5982   21.8043   38.3277 H   0  0  0  0  0  0  0  0  0  0  0  0
   42.0764   24.1333   34.7541 H   0  0  0  0  0  0  0  0  0  0  0  0
   38.1560   23.7663   39.1834 H   0  0  0  0  0  0  0  0  0  0  0  0
   38.9765   25.1791   38.4368 H   0  0  0  0  0  0  0  0  0  0  0  0
   37.1830   25.0788   38.4368 H   0  0  0  0  0  0  0  0  0  0  0  0
   37.0101   25.4653   36.3880 H   0  0  0  0  0  0  0  0  0  0  0  0
   38.3814   25.0382   35.3092 H   0  0  0  0  0  0  0  0  0  0  0  0
   36.8921   24.0339   35.3092 H   0  0  0  0  0  0  0  0  0  0  0  0
  2  1  1  0
  3  2  2  0
  4  3  1  0
  5  6  1  0
  5  4  2  0
  6  2  1  0
  7  5  1  0
  8  7  2  0
  9 10  1  0
  9  8  1  0
 10 11  2  0
 11  7  1  0
 12 13  1  0
 12 14  1  0
 12 10  1  0
 13 14  1  0
 15  1  1  0
 15 22  1  0
 16 17  2  0
 18 15  1  0
 18 17  1  0
 19 18  2  0
 20 19  1  0
 20 21  2  0
 21 16  1  0
 23 15  1  0
  1 24  1  0
  1 25  1  0
  3 26  1  0
  4 27  1  0
  8 28  1  0
 12 29  1  0
 13 30  1  0
 13 31  1  0
 14 32  1  0
 14 33  1  0
 16 34  1  0
 17 35  1  0
 20 36  1  0
 22 37  1  0
 22 38  1  0
 22 39  1  0
 23 40  1  0
 23 41  1  0
 23 42  1  0
M  ISO  8  24   8  25   8  26  14  27  14  28  14  29  13  30  13  31  13
M  ISO  8  32  13  33  13  34  14  35  14  36  14  37   8  38   8  39   8
M  ISO  3  40   8  41   8  42   8
M  END
>  <minimizedAffinity>  (1) 
-4.54660797

>  <minimizedRMSD>  (1) 
0.19148159

$$$$
