
     RDKit          3D

 37 39  0  0  0  0  0  0  0  0999 V2000
   37.2670   22.5650   37.1310 C   0  0  0  0  0  0  0  0  0  0  0  0
   36.9670   21.9010   35.8710 C   0  0  0  0  0  0  0  0  0  0  0  0
   35.8830   21.1520   35.6430 C   0  0  0  0  0  0  0  0  0  0  0  0
   35.5830   20.5420   34.4700 C   0  0  0  0  0  0  0  0  0  0  0  0
   36.6010   20.8020   33.4680 C   0  0  0  0  0  0  0  0  0  0  0  0
   37.8560   21.8860   34.3310 S   0  0  0  0  0  0  0  0  0  0  0  0
   36.7570   20.4080   32.1010 C   0  0  0  0  0  0  0  0  0  0  0  0
   35.9410   19.5330   31.4500 C   0  0  0  0  0  0  0  0  0  0  0  0
   36.7250   19.4610   29.7360 S   0  0  0  0  0  0  0  0  0  0  0  0
   38.0310   20.6770   30.2980 C   0  0  0  0  0  0  0  0  0  0  0  0
   37.7060   20.8410   31.3560 N   0  0  0  0  0  0  0  0  0  0  0  0
   39.0270   21.0540   29.3140 N   0  0  0  0  0  0  0  0  0  0  0  0
   38.1500   23.7710   37.0180 C   0  0  0  0  0  0  0  0  0  0  0  0
   41.4450   21.9990   37.2440 C   0  0  0  0  0  0  0  0  0  0  0  0
   40.1350   22.3340   37.5340 C   0  0  0  0  0  0  0  0  0  0  0  0
   39.5190   23.3580   36.7830 C   0  0  0  0  0  0  0  0  0  0  0  0
   40.2580   23.9550   35.8140 N   0  0  0  0  0  0  0  0  0  0  0  0
   41.5310   23.6080   35.5570 C   0  0  0  0  0  0  0  0  0  0  0  0
   42.1200   22.6320   36.2710 N   0  0  0  0  0  0  0  0  0  0  0  0
   38.1090   24.5080   38.3590 C   0  0  0  0  0  0  0  0  0  0  0  0
   37.5820   24.6400   35.9190 C   0  0  0  0  0  0  0  0  0  0  0  0
   36.3160   22.8799   37.5854 H   0  0  0  0  0  0  0  0  0  0  0  0
   37.8212   21.8345   37.7386 H   0  0  0  0  0  0  0  0  0  0  0  0
   35.1765   21.0199   36.4757 H   0  0  0  0  0  0  0  0  0  0  0  0
   34.6852   19.9298   34.2996 H   0  0  0  0  0  0  0  0  0  0  0  0
   35.0531   19.0043   31.8269 H   0  0  0  0  0  0  0  0  0  0  0  0
   39.7718   21.7201   29.5642 H   0  0  0  0  0  0  0  0  0  0  0  0
   38.9897   20.6558   28.3648 H   0  0  0  0  0  0  0  0  0  0  0  0
   41.9410   21.2028   37.8185 H   0  0  0  0  0  0  0  0  0  0  0  0
   39.5853   21.8139   38.3323 H   0  0  0  0  0  0  0  0  0  0  0  0
   42.0913   24.1225   34.7624 H   0  0  0  0  0  0  0  0  0  0  0  0
   38.1496   23.7774   39.1803 H   0  0  0  0  0  0  0  0  0  0  0  0
   38.9707   25.1880   38.4302 H   0  0  0  0  0  0  0  0  0  0  0  0
   37.1772   25.0882   38.4302 H   0  0  0  0  0  0  0  0  0  0  0  0
   37.0318   25.4818   36.3646 H   0  0  0  0  0  0  0  0  0  0  0  0
   38.4023   25.0266   35.2964 H   0  0  0  0  0  0  0  0  0  0  0  0
   36.8987   24.0438   35.2964 H   0  0  0  0  0  0  0  0  0  0  0  0
  2  1  1  0
  3  2  2  0
  4  3  1  0
  5  6  1  0
  5  4  2  0
  6  2  1  0
  7  5  1  0
  8  7  2  0
  9 10  1  0
  9  8  1  0
 10 11  2  0
 11  7  1  0
 12 10  1  0
 13  1  1  0
 13 20  1  0
 14 15  2  0
 16 13  1  0
 16 15  1  0
 17 16  2  0
 18 17  1  0
 18 19  2  0
 19 14  1  0
 21 13  1  0
  1 22  1  0
  1 23  1  0
  3 24  1  0
  4 25  1  0
  8 26  1  0
 12 27  1  0
 12 28  1  0
 14 29  1  0
 15 30  1  0
 18 31  1  0
 20 32  1  0
 20 33  1  0
 20 34  1  0
 21 35  1  0
 21 36  1  0
 21 37  1  0
M  ISO  8  22   8  23   8  24  14  25  14  26  14  29  14  30  14  31  14
M  ISO  6  32   8  33   8  34   8  35   8  36   8  37   8
M  END
>  <minimizedAffinity>  (1) 
-4.54476881

>  <minimizedRMSD>  (1) 
0.0428689159

$$$$
