
     RDKit          3D

 37 40  0  0  1  0  0  0  0  0999 V2000
   39.1190   22.9080   37.8500 C   0  0  0  0  0  0  0  0  0  0  0  0
   38.5660   23.9530   37.1060 C   0  0  0  0  0  0  0  0  0  0  0  0
   39.3140   24.4790   36.0430 C   0  0  0  0  0  0  0  0  0  0  0  0
   40.5320   23.9490   35.7920 N   0  0  0  0  0  0  0  0  0  0  0  0
   41.0350   22.9420   36.5260 C   0  0  0  0  0  0  0  0  0  0  0  0
   40.3410   22.4220   37.5480 N   0  0  0  0  0  0  0  0  0  0  0  0
   38.9100   25.5390   35.1840 N   0  0  0  0  0  0  0  0  0  0  0  0
   39.1780   26.9400   35.4170 C   0  0  0  0  0  0  0  0  0  0  0  0
   37.8570   27.6850   35.5110 C   0  0  0  0  0  0  0  0  0  0  0  0
   36.8120   26.8860   35.0440 O   0  0  0  0  0  0  0  0  0  0  0  0
   37.1250   26.3890   33.7720 C   0  0  0  0  0  0  0  0  0  0  0  0
   38.1650   25.3050   33.9510 C   0  0  1  0  0  0  0  0  0  0  0  0
   38.9900   25.1260   32.7990 N   0  0  0  0  0  0  0  0  0  0  0  0
   40.0670   24.3770   32.5730 C   0  0  0  0  0  0  0  0  0  0  0  0
   40.4960   24.5600   31.2900 N   0  0  0  0  0  0  0  0  0  0  0  0
   39.6450   25.4540   30.7250 C   0  0  0  0  0  0  0  0  0  0  0  0
   39.6430   25.9790   29.4320 C   0  0  0  0  0  0  0  0  0  0  0  0
   40.4930   25.6650   28.5690 O   0  0  0  0  0  0  0  0  0  0  0  0
   38.6900   26.8700   29.0730 N   0  0  0  0  0  0  0  0  0  0  0  0
   37.7910   27.1850   30.0270 C   0  0  0  0  0  0  0  0  0  0  0  0
   36.7550   28.1140   29.7300 N   0  0  0  0  0  0  0  0  0  0  0  0
   37.7480   26.7090   31.2840 N   0  0  0  0  0  0  0  0  0  0  0  0
   38.7020   25.8110   31.6620 C   0  0  0  0  0  0  0  0  0  0  0  0
   38.5533   22.4775   38.6894 H   0  0  0  0  0  0  0  0  0  0  0  0
   37.5701   24.3527   37.3477 H   0  0  0  0  0  0  0  0  0  0  0  0
   42.0297   22.5390   36.2848 H   0  0  0  0  0  0  0  0  0  0  0  0
   39.7360   27.0577   36.3576 H   0  0  0  0  0  0  0  0  0  0  0  0
   39.7775   27.3473   34.5895 H   0  0  0  0  0  0  0  0  0  0  0  0
   37.6665   27.9535   36.5606 H   0  0  0  0  0  0  0  0  0  0  0  0
   37.9152   28.5928   34.8925 H   0  0  0  0  0  0  0  0  0  0  0  0
   37.5279   27.1958   33.1422 H   0  0  0  0  0  0  0  0  0  0  0  0
   36.2265   25.9868   33.2811 H   0  0  0  0  0  0  0  0  0  0  0  0
   37.6498   24.3386   34.0540 H   0  0  0  0  0  0  0  0  0  0  0  0
   40.5402   23.7108   33.3094 H   0  0  0  0  0  0  0  0  0  0  0  0
   38.6537   27.2819   28.1296 H   0  0  0  0  0  0  0  0  0  0  0  0
   36.0630   28.3617   30.4515 H   0  0  0  0  0  0  0  0  0  0  0  0
   36.6971   28.5388   28.7935 H   0  0  0  0  0  0  0  0  0  0  0  0
  2  1  2  0
  3  2  1  0
  4  3  2  0
  4  5  1  0
  5  6  2  0
  6  1  1  0
  7  8  1  0
  7  3  1  0
  8  9  1  0
 10  9  1  0
 11 12  1  0
 11 10  1  0
 12  7  1  0
 13 12  1  0
 14 13  1  0
 15 14  2  0
 16 15  1  0
 16 23  2  0
 17 16  1  0
 18 17  2  0
 19 17  1  0
 19 20  1  0
 20 22  2  0
 21 20  1  0
 22 23  1  0
 23 13  1  0
  1 24  1  0
  2 25  1  0
  5 26  1  0
  8 27  1  0
  8 28  1  0
  9 29  1  0
  9 30  1  0
 11 31  1  0
 11 32  1  0
 12 33  1  1
 14 34  1  0
 19 35  1  0
 21 36  1  0
 21 37  1  0
M  ISO  8  24  14  25  14  26  14  27  13  28  13  29  13  30  13  31  13
M  ISO  4  32  13  33  13  34  14  35   9
M  END
>  <minimizedAffinity>  (1) 
-5.40589762

>  <minimizedRMSD>  (1) 
0.310969412

$$$$
