
     RDKit          3D

 37 40  0  0  1  0  0  0  0  0999 V2000
   38.6870   23.3160   38.2280 C   0  0  0  0  0  0  0  0  0  0  0  0
   38.2580   24.3310   37.3780 C   0  0  0  0  0  0  0  0  0  0  0  0
   38.9680   24.5540   36.1880 C   0  0  0  0  0  0  0  0  0  0  0  0
   40.0380   23.7760   35.9140 N   0  0  0  0  0  0  0  0  0  0  0  0
   40.4330   22.8010   36.7520 C   0  0  0  0  0  0  0  0  0  0  0  0
   39.7670   22.5660   37.9040 N   0  0  0  0  0  0  0  0  0  0  0  0
   38.6550   25.5450   35.2100 N   0  0  0  0  0  0  0  0  0  0  0  0
   39.1820   26.8940   35.2080 C   0  0  0  0  0  0  0  0  0  0  0  0
   38.0230   27.8700   35.3030 C   0  0  0  0  0  0  0  0  0  0  0  0
   36.8210   27.2180   35.0240 O   0  0  0  0  0  0  0  0  0  0  0  0
   36.9280   26.5160   33.8190 C   0  0  0  0  0  0  0  0  0  0  0  0
   37.7380   25.2760   34.0930 C   0  0  1  0  0  0  0  0  0  0  0  0
   38.4110   24.7210   32.9090 C   0  0  0  0  0  0  0  0  0  0  0  0
   39.4940   25.0600   32.1310 C   0  0  0  0  0  0  0  0  0  0  0  0
   39.7010   24.1870   31.1320 N   0  0  0  0  0  0  0  0  0  0  0  0
   38.7530   23.2370   31.2210 C   0  0  0  0  0  0  0  0  0  0  0  0
   38.5110   22.1180   30.4480 C   0  0  0  0  0  0  0  0  0  0  0  0
   37.4670   21.2750   30.7330 C   0  0  0  0  0  0  0  0  0  0  0  0
   36.6440   21.5580   31.8140 C   0  0  0  0  0  0  0  0  0  0  0  0
   36.9150   22.6840   32.5630 C   0  0  0  0  0  0  0  0  0  0  0  0
   37.9580   23.5440   32.2970 C   0  0  0  0  0  0  0  0  0  0  0  0
   38.1469   23.1222   39.1665 H   0  0  0  0  0  0  0  0  0  0  0  0
   37.3817   24.9450   37.6332 H   0  0  0  0  0  0  0  0  0  0  0  0
   41.3093   22.1871   36.4964 H   0  0  0  0  0  0  0  0  0  0  0  0
   39.8524   27.0307   36.0693 H   0  0  0  0  0  0  0  0  0  0  0  0
   39.7481   27.0736   34.2821 H   0  0  0  0  0  0  0  0  0  0  0  0
   37.9823   28.2882   36.3196 H   0  0  0  0  0  0  0  0  0  0  0  0
   38.1722   28.6774   34.5710 H   0  0  0  0  0  0  0  0  0  0  0  0
   37.4340   27.1371   33.0652 H   0  0  0  0  0  0  0  0  0  0  0  0
   35.9325   26.2531   33.4319 H   0  0  0  0  0  0  0  0  0  0  0  0
   37.0440   24.4733   34.3829 H   0  0  0  0  0  0  0  0  0  0  0  0
   40.1202   25.9470   32.3076 H   0  0  0  0  0  0  0  0  0  0  0  0
   40.4495   24.2359   30.4261 H   0  0  0  0  0  0  0  0  0  0  0  0
   39.1652   21.8997   29.5911 H   0  0  0  0  0  0  0  0  0  0  0  0
   37.2844   20.3855   30.1122 H   0  0  0  0  0  0  0  0  0  0  0  0
   35.7981   20.9018   32.0667 H   0  0  0  0  0  0  0  0  0  0  0  0
   36.2625   22.9077   33.4199 H   0  0  0  0  0  0  0  0  0  0  0  0
  2  1  2  0
  3  2  1  0
  4  3  2  0
  4  5  1  0
  5  6  2  0
  6  1  1  0
  7  3  1  0
  8  7  1  0
  8  9  1  0
 10  9  1  0
 11 12  1  0
 11 10  1  0
 12  7  1  0
 13 12  1  0
 14 13  2  0
 15 16  1  0
 15 14  1  0
 16 21  2  0
 17 18  2  0
 17 16  1  0
 18 19  1  0
 19 20  2  0
 21 20  1  0
 21 13  1  0
  1 22  1  0
  2 23  1  0
  5 24  1  0
  8 25  1  0
  8 26  1  0
  9 27  1  0
  9 28  1  0
 11 29  1  0
 11 30  1  0
 12 31  1  1
 14 32  1  0
 15 33  1  0
 17 34  1  0
 18 35  1  0
 19 36  1  0
 20 37  1  0
M  ISO  8  22  14  23  14  24  14  25  13  26  13  27  13  28  13  29  13
M  ISO  8  30  13  31  13  32  14  33   9  34  14  35  14  36  14  37  14
M  END
>  <minimizedAffinity>  (1) 
-4.91271162

>  <minimizedRMSD>  (1) 
1.36090708

$$$$
