
     RDKit          3D

 33 35  0  0  1  0  0  0  0  0999 V2000
   39.0720   22.8950   37.7630 C   0  0  0  0  0  0  0  0  0  0  0  0
   38.5410   23.9420   36.9980 C   0  0  0  0  0  0  0  0  0  0  0  0
   39.3210   24.4810   35.9650 C   0  0  0  0  0  0  0  0  0  0  0  0
   40.5440   23.9510   35.7750 N   0  0  0  0  0  0  0  0  0  0  0  0
   41.0410   22.9500   36.5130 C   0  0  0  0  0  0  0  0  0  0  0  0
   40.3070   22.4200   37.5060 N   0  0  0  0  0  0  0  0  0  0  0  0
   38.9560   25.5170   35.0920 N   0  0  0  0  0  0  0  0  0  0  0  0
   39.2310   26.9400   35.3460 C   0  0  0  0  0  0  0  0  0  0  0  0
   37.9150   27.6930   35.4030 C   0  0  0  0  0  0  0  0  0  0  0  0
   36.8730   26.8870   34.8970 O   0  0  0  0  0  0  0  0  0  0  0  0
   37.2480   26.4180   33.6280 C   0  0  0  0  0  0  0  0  0  0  0  0
   38.2570   25.3240   33.8330 C   0  0  2  0  0  0  0  0  0  0  0  0
   37.7730   23.9720   33.5810 C   0  0  0  0  0  0  0  0  0  0  0  0
   37.0660   23.6170   32.4280 C   0  0  0  0  0  0  0  0  0  0  0  0
   36.6200   22.3530   32.1430 C   0  0  0  0  0  0  0  0  0  0  0  0
   36.8560   21.3260   33.0150 C   0  0  0  0  0  0  0  0  0  0  0  0
   37.5450   21.6140   34.1640 C   0  0  0  0  0  0  0  0  0  0  0  0
   37.9690   22.8880   34.4030 C   0  0  0  0  0  0  0  0  0  0  0  0
   38.4772   22.4579   38.5785 H   0  0  0  0  0  0  0  0  0  0  0  0
   37.5335   24.3328   37.2035 H   0  0  0  0  0  0  0  0  0  0  0  0
   42.0493   22.5620   36.3064 H   0  0  0  0  0  0  0  0  0  0  0  0
   39.7601   27.0484   36.3043 H   0  0  0  0  0  0  0  0  0  0  0  0
   39.8587   27.3477   34.5399 H   0  0  0  0  0  0  0  0  0  0  0  0
   37.6939   27.9607   36.4468 H   0  0  0  0  0  0  0  0  0  0  0  0
   37.9947   28.6041   34.7919 H   0  0  0  0  0  0  0  0  0  0  0  0
   37.6935   27.2352   33.0418 H   0  0  0  0  0  0  0  0  0  0  0  0
   36.3725   26.0408   33.0792 H   0  0  0  0  0  0  0  0  0  0  0  0
   39.0066   25.4191   33.0336 H   0  0  0  0  0  0  0  0  0  0  0  0
   36.8523   24.4102   31.6964 H   0  0  0  0  0  0  0  0  0  0  0  0
   36.0701   22.1636   31.2094 H   0  0  0  0  0  0  0  0  0  0  0  0
   36.5053   20.3055   32.8016 H   0  0  0  0  0  0  0  0  0  0  0  0
   37.7560   20.8180   34.8932 H   0  0  0  0  0  0  0  0  0  0  0  0
   38.5183   23.0642   35.3396 H   0  0  0  0  0  0  0  0  0  0  0  0
  2  1  2  0
  3  2  1  0
  4  3  2  0
  4  5  1  0
  5  6  2  0
  6  1  1  0
  7  8  1  0
  7  3  1  0
  8  9  1  0
 10  9  1  0
 11 12  1  0
 11 10  1  0
 12  7  1  0
 13 12  1  0
 13 18  1  0
 14 13  2  0
 15 14  1  0
 15 16  2  0
 16 17  1  0
 17 18  2  0
  1 19  1  0
  2 20  1  0
  5 21  1  0
  8 22  1  0
  8 23  1  0
  9 24  1  0
  9 25  1  0
 11 26  1  0
 11 27  1  0
 12 28  1  6
 14 29  1  0
 15 30  1  0
 16 31  1  0
 17 32  1  0
 18 33  1  0
M  ISO  8  19  14  20  14  21  14  22  13  23  13  24  13  25  13  26  13
M  ISO  7  27  13  28  13  29  14  30  14  31  14  32  14  33  14
M  END
>  <minimizedAffinity>  (1) 
-4.67931128

>  <minimizedRMSD>  (1) 
0.275638998

$$$$
