
     RDKit          3D

 38 40  0  0  1  0  0  0  0  0999 V2000
   38.2420   23.9950   37.0140 C   0  0  0  0  0  0  0  0  0  0  0  0
   38.0170   24.3740   35.6740 C   0  0  0  0  0  0  0  0  0  0  0  0
   38.6580   23.6440   34.6990 C   0  0  0  0  0  0  0  0  0  0  0  0
   39.4670   22.6050   35.0680 N   0  0  0  0  0  0  0  0  0  0  0  0
   39.6600   22.2680   36.3470 C   0  0  0  0  0  0  0  0  0  0  0  0
   39.0460   22.9630   37.3280 N   0  0  0  0  0  0  0  0  0  0  0  0
   38.5710   23.8290   33.2910 N   0  0  0  0  0  0  0  0  0  0  0  0
   39.4500   24.7040   32.5370 C   0  0  0  0  0  0  0  0  0  0  0  0
   38.6450   25.7960   31.8720 C   0  0  0  0  0  0  0  0  0  0  0  0
   37.2960   25.4810   31.9280 O   0  0  0  0  0  0  0  0  0  0  0  0
   37.0420   24.1980   31.4360 C   0  0  0  0  0  0  0  0  0  0  0  0
   37.6270   23.1960   32.4110 C   0  0  2  0  0  0  0  0  0  0  0  0
   36.5890   22.4180   32.9280 N   0  0  0  0  0  0  0  0  0  0  0  0
   35.5470   22.3950   31.9020 C   0  0  0  0  0  0  0  0  0  0  0  0
   35.6290   21.1040   31.0880 C   0  0  0  0  0  0  0  0  0  0  0  0
   35.0110   20.0170   31.9410 C   0  0  0  0  0  0  0  0  0  0  0  0
   35.4930   20.3060   33.3460 C   0  0  0  0  0  0  0  0  0  0  0  0
   36.8230   21.0800   33.3200 C   0  0  0  0  0  0  0  0  0  0  0  0
   37.7485   24.5564   37.8211 H   0  0  0  0  0  0  0  0  0  0  0  0
   37.3576   25.2168   35.4192 H   0  0  0  0  0  0  0  0  0  0  0  0
   40.3191   21.4245   36.6002 H   0  0  0  0  0  0  0  0  0  0  0  0
   40.1853   25.1569   33.2183 H   0  0  0  0  0  0  0  0  0  0  0  0
   39.9691   24.1168   31.7652 H   0  0  0  0  0  0  0  0  0  0  0  0
   38.9552   25.8907   30.8209 H   0  0  0  0  0  0  0  0  0  0  0  0
   38.8193   26.7477   32.3953 H   0  0  0  0  0  0  0  0  0  0  0  0
   35.9570   24.0411   31.3461 H   0  0  0  0  0  0  0  0  0  0  0  0
   37.4972   24.0736   30.4424 H   0  0  0  0  0  0  0  0  0  0  0  0
   38.2795   22.4443   31.9428 H   0  0  0  0  0  0  0  0  0  0  0  0
   34.5609   22.4566   32.3855 H   0  0  0  0  0  0  0  0  0  0  0  0
   35.6915   23.2518   31.2275 H   0  0  0  0  0  0  0  0  0  0  0  0
   35.0700   21.2122   30.1468 H   0  0  0  0  0  0  0  0  0  0  0  0
   36.6706   20.8625   30.8297 H   0  0  0  0  0  0  0  0  0  0  0  0
   33.9131   20.0627   31.8911 H   0  0  0  0  0  0  0  0  0  0  0  0
   35.2982   19.0105   31.6027 H   0  0  0  0  0  0  0  0  0  0  0  0
   34.7359   20.9077   33.8702 H   0  0  0  0  0  0  0  0  0  0  0  0
   35.6516   19.3506   33.8675 H   0  0  0  0  0  0  0  0  0  0  0  0
   37.5090   20.6040   32.6039 H   0  0  0  0  0  0  0  0  0  0  0  0
   37.2707   21.0681   34.3247 H   0  0  0  0  0  0  0  0  0  0  0  0
  1  6  2  0
  2  1  1  0
  3  4  1  0
  3  2  2  0
  4  5  2  0
  5  6  1  0
  7  3  1  0
  8  7  1  0
  9 10  1  0
  9  8  1  0
 11 10  1  0
 11 12  1  0
 12 13  1  0
 12  7  1  0
 13 18  1  0
 14 13  1  0
 15 14  1  0
 15 16  1  0
 16 17  1  0
 18 17  1  0
  1 19  1  0
  2 20  1  0
  5 21  1  0
  8 22  1  0
  8 23  1  0
  9 24  1  0
  9 25  1  0
 11 26  1  0
 11 27  1  0
 12 28  1  6
 14 29  1  0
 14 30  1  0
 15 31  1  0
 15 32  1  0
 16 33  1  0
 16 34  1  0
 17 35  1  0
 17 36  1  0
 18 37  1  0
 18 38  1  0
M  ISO  8  19  14  20  14  21  14  22  13  23  13  24  13  25  13  26  13
M  ISO  8  27  13  28  13  29  13  30  13  31  13  32  13  33  13  34  13
M  ISO  4  35  13  36  13  37  13  38  13
M  END
>  <minimizedAffinity>  (1) 
-4.65246296

>  <minimizedRMSD>  (1) 
2.85809684

$$$$
