
     RDKit          3D

 36 38  0  0  0  0  0  0  0  0999 V2000
   38.1470   23.7720   37.0220 C   0  0  0  0  0  0  0  0  0  0  0  0
   41.4460   22.0100   37.2440 C   0  0  0  0  0  0  0  0  0  0  0  0
   40.1370   22.3410   37.5370 C   0  0  0  0  0  0  0  0  0  0  0  0
   39.5170   23.3620   36.7850 C   0  0  0  0  0  0  0  0  0  0  0  0
   40.2480   23.9630   35.8140 N   0  0  0  0  0  0  0  0  0  0  0  0
   41.5250   23.6170   35.5550 C   0  0  0  0  0  0  0  0  0  0  0  0
   42.1150   22.6430   36.2710 N   0  0  0  0  0  0  0  0  0  0  0  0
   38.1090   24.5150   38.3570 C   0  0  0  0  0  0  0  0  0  0  0  0
   37.5770   24.6450   35.9280 C   0  0  0  0  0  0  0  0  0  0  0  0
   37.2700   22.5610   37.1380 C   0  0  0  0  0  0  0  0  0  0  0  0
   36.9680   21.8990   35.8750 C   0  0  0  0  0  0  0  0  0  0  0  0
   35.8820   21.1510   35.6520 C   0  0  0  0  0  0  0  0  0  0  0  0
   35.5810   20.5430   34.4790 C   0  0  0  0  0  0  0  0  0  0  0  0
   36.5990   20.8050   33.4760 C   0  0  0  0  0  0  0  0  0  0  0  0
   37.8520   21.8840   34.3380 S   0  0  0  0  0  0  0  0  0  0  0  0
   36.7590   20.4150   32.1090 C   0  0  0  0  0  0  0  0  0  0  0  0
   35.9900   19.5040   31.4700 C   0  0  0  0  0  0  0  0  0  0  0  0
   36.7300   19.4600   29.7410 S   0  0  0  0  0  0  0  0  0  0  0  0
   37.9820   20.7490   30.2830 C   0  0  0  0  0  0  0  0  0  0  0  0
   37.6710   20.8990   31.3460 N   0  0  0  0  0  0  0  0  0  0  0  0
   39.0490   21.3240   29.4150 O   0  0  0  0  0  0  0  0  0  0  0  0
   41.9459   21.2156   37.8176 H   0  0  0  0  0  0  0  0  0  0  0  0
   39.5907   21.8210   38.3377 H   0  0  0  0  0  0  0  0  0  0  0  0
   42.0839   24.1307   34.7589 H   0  0  0  0  0  0  0  0  0  0  0  0
   38.1462   23.7885   39.1821 H   0  0  0  0  0  0  0  0  0  0  0  0
   38.9737   25.1915   38.4249 H   0  0  0  0  0  0  0  0  0  0  0  0
   37.1798   25.0998   38.4249 H   0  0  0  0  0  0  0  0  0  0  0  0
   37.0283   25.4854   36.3781 H   0  0  0  0  0  0  0  0  0  0  0  0
   38.3960   25.0335   35.3048 H   0  0  0  0  0  0  0  0  0  0  0  0
   36.8919   24.0515   35.3048 H   0  0  0  0  0  0  0  0  0  0  0  0
   37.7747   21.8349   37.7923 H   0  0  0  0  0  0  0  0  0  0  0  0
   36.3084   22.9136   37.5393 H   0  0  0  0  0  0  0  0  0  0  0  0
   35.1776   21.0189   36.4865 H   0  0  0  0  0  0  0  0  0  0  0  0
   34.6831   19.9309   34.3084 H   0  0  0  0  0  0  0  0  0  0  0  0
   35.1394   18.9291   31.8650 H   0  0  0  0  0  0  0  0  0  0  0  0
   39.6715   22.0022   29.7793 H   0  0  0  0  0  0  0  0  0  0  0  0
  1 10  1  0
  1  8  1  0
  2  3  2  0
  4  1  1  0
  4  3  1  0
  5  4  2  0
  6  5  1  0
  6  7  2  0
  7  2  1  0
  9  1  1  0
 11 10  1  0
 12 11  2  0
 13 12  1  0
 14 15  1  0
 14 13  2  0
 15 11  1  0
 16 14  1  0
 17 16  2  0
 18 19  1  0
 18 17  1  0
 19 20  2  0
 20 16  1  0
 21 19  1  0
  2 22  1  0
  3 23  1  0
  6 24  1  0
  8 25  1  0
  8 26  1  0
  8 27  1  0
  9 28  1  0
  9 29  1  0
  9 30  1  0
 10 31  1  0
 10 32  1  0
 12 33  1  0
 13 34  1  0
 17 35  1  0
 21 36  1  0
M  ISO  8  22  14  23  14  24  14  25   8  26   8  27   8  28   8  29   8
M  ISO  7  30   8  31   8  32   8  33  14  34  14  35  14  36   3
M  END
>  <minimizedAffinity>  (1) 
-4.54424286

>  <minimizedRMSD>  (1) 
0.0215340927

$$$$
