
     RDKit          3D

 37 39  0  0  1  0  0  0  0  0999 V2000
   39.1070   22.9520   37.9090 C   0  0  0  0  0  0  0  0  0  0  0  0
   38.5670   23.9820   37.1380 C   0  0  0  0  0  0  0  0  0  0  0  0
   39.2980   24.4450   36.0350 C   0  0  0  0  0  0  0  0  0  0  0  0
   40.4850   23.8570   35.7920 N   0  0  0  0  0  0  0  0  0  0  0  0
   40.9880   22.8730   36.5380 C   0  0  0  0  0  0  0  0  0  0  0  0
   40.3020   22.4150   37.6000 N   0  0  0  0  0  0  0  0  0  0  0  0
   38.9080   25.4830   35.1400 N   0  0  0  0  0  0  0  0  0  0  0  0
   39.2300   26.8830   35.3070 C   0  0  0  0  0  0  0  0  0  0  0  0
   37.9340   27.6750   35.4300 C   0  0  0  0  0  0  0  0  0  0  0  0
   36.8580   26.8930   35.0400 O   0  0  0  0  0  0  0  0  0  0  0  0
   37.0820   26.3290   33.7870 C   0  0  0  0  0  0  0  0  0  0  0  0
   38.1340   25.2270   33.9450 C   0  0  1  0  0  0  0  0  0  0  0  0
   38.9080   25.2550   32.6630 C   0  0  1  0  0  0  0  0  0  0  0  0
   38.0730   25.6440   31.4840 C   0  0  0  0  0  0  0  0  0  0  0  0
   38.8350   26.1170   30.3050 C   0  0  0  0  0  0  0  0  0  0  0  0
   40.3020   26.3600   30.5310 C   0  0  0  0  0  0  0  0  0  0  0  0
   40.3680   27.1440   31.8250 C   0  0  0  0  0  0  0  0  0  0  0  0
   40.0980   26.1380   32.9170 C   0  0  0  0  0  0  0  0  0  0  0  0
   38.5499   22.5746   38.7791 H   0  0  0  0  0  0  0  0  0  0  0  0
   37.5902   24.4206   37.3899 H   0  0  0  0  0  0  0  0  0  0  0  0
   41.9649   22.4355   36.2845 H   0  0  0  0  0  0  0  0  0  0  0  0
   39.8329   27.0174   36.2172 H   0  0  0  0  0  0  0  0  0  0  0  0
   39.8046   27.2399   34.4395 H   0  0  0  0  0  0  0  0  0  0  0  0
   37.7965   27.9872   36.4758 H   0  0  0  0  0  0  0  0  0  0  0  0
   37.9901   28.5599   34.7790 H   0  0  0  0  0  0  0  0  0  0  0  0
   37.4488   27.0983   33.0916 H   0  0  0  0  0  0  0  0  0  0  0  0
   36.1480   25.9106   33.3839 H   0  0  0  0  0  0  0  0  0  0  0  0
   37.7302   24.2145   34.0922 H   0  0  0  0  0  0  0  0  0  0  0  0
   39.2515   24.2503   32.3758 H   0  0  0  0  0  0  0  0  0  0  0  0
   36.9747   25.5833   31.4921 H   0  0  0  0  0  0  0  0  0  0  0  0
   38.3585   26.2800   29.3270 H   0  0  0  0  0  0  0  0  0  0  0  0
   40.8426   25.4068   30.6271 H   0  0  0  0  0  0  0  0  0  0  0  0
   40.7679   26.9000   29.6935 H   0  0  0  0  0  0  0  0  0  0  0  0
   41.3641   27.5927   31.9528 H   0  0  0  0  0  0  0  0  0  0  0  0
   39.6415   27.9698   31.8406 H   0  0  0  0  0  0  0  0  0  0  0  0
   39.9268   26.6856   33.8555 H   0  0  0  0  0  0  0  0  0  0  0  0
   40.9767   25.4779   32.9620 H   0  0  0  0  0  0  0  0  0  0  0  0
  2  1  2  0
  3  2  1  0
  4  3  2  0
  4  5  1  0
  5  6  2  0
  6  1  1  0
  7  8  1  0
  7  3  1  0
  8  9  1  0
 10  9  1  0
 11 12  1  0
 11 10  1  0
 12  7  1  0
 13 14  1  0
 13 18  1  0
 13 12  1  0
 15 16  1  0
 15 14  2  0
 16 17  1  0
 17 18  1  0
  1 19  1  0
  2 20  1  0
  5 21  1  0
  8 22  1  0
  8 23  1  0
  9 24  1  0
  9 25  1  0
 11 26  1  0
 11 27  1  0
 12 28  1  1
 13 29  1  6
 14 30  1  0
 15 31  1  0
 16 32  1  0
 16 33  1  0
 17 34  1  0
 17 35  1  0
 18 36  1  0
 18 37  1  0
M  ISO  8  19  14  20  14  21  14  22  13  23  13  24  13  25  13  26  13
M  ISO  8  27  13  28  13  29  13  30  13  31  13  32  13  33  13  34  13
M  ISO  3  35  13  36  13  37  13
M  END
>  <minimizedAffinity>  (1) 
-4.48242998

>  <minimizedRMSD>  (1) 
0.262394726

$$$$
