
     RDKit          3D

 30 32  0  0  1  0  0  0  0  0999 V2000
   39.2070   22.8490   37.8400 C   0  0  0  0  0  0  0  0  0  0  0  0
   38.6450   23.8570   37.0380 C   0  0  0  0  0  0  0  0  0  0  0  0
   39.4340   24.3660   35.9980 C   0  0  0  0  0  0  0  0  0  0  0  0
   40.6860   23.8680   35.8190 N   0  0  0  0  0  0  0  0  0  0  0  0
   41.1890   22.9100   36.6020 C   0  0  0  0  0  0  0  0  0  0  0  0
   40.4540   22.4010   37.6090 N   0  0  0  0  0  0  0  0  0  0  0  0
   39.0480   25.3790   35.0770 N   0  0  0  0  0  0  0  0  0  0  0  0
   39.2700   26.8140   35.3160 C   0  0  0  0  0  0  0  0  0  0  0  0
   37.9460   27.5280   35.3470 C   0  0  0  0  0  0  0  0  0  0  0  0
   36.9390   26.6990   34.8490 O   0  0  0  0  0  0  0  0  0  0  0  0
   37.3120   26.1920   33.6000 C   0  0  0  0  0  0  0  0  0  0  0  0
   38.4020   25.1530   33.8120 C   0  0  2  0  0  0  0  0  0  0  0  0
   37.9370   23.7970   33.5450 C   0  0  0  0  0  0  0  0  0  0  0  0
   38.2380   22.5280   33.9770 C   0  0  0  0  0  0  0  0  0  0  0  0
   37.4580   21.5590   33.3830 C   0  0  0  0  0  0  0  0  0  0  0  0
   36.6710   22.2880   32.5740 N   0  0  0  0  0  0  0  0  0  0  0  0
   36.9390   23.5620   32.6610 N   0  0  0  0  0  0  0  0  0  0  0  0
   38.6202   22.4214   38.6663 H   0  0  0  0  0  0  0  0  0  0  0  0
   37.6267   24.2313   37.2194 H   0  0  0  0  0  0  0  0  0  0  0  0
   42.2077   22.5353   36.4236 H   0  0  0  0  0  0  0  0  0  0  0  0
   39.7827   26.9502   36.2796 H   0  0  0  0  0  0  0  0  0  0  0  0
   39.8912   27.2284   34.5083 H   0  0  0  0  0  0  0  0  0  0  0  0
   37.7076   27.8064   36.3841 H   0  0  0  0  0  0  0  0  0  0  0  0
   38.0102   28.4303   34.7211 H   0  0  0  0  0  0  0  0  0  0  0  0
   37.6930   27.0067   32.9667 H   0  0  0  0  0  0  0  0  0  0  0  0
   36.4442   25.7345   33.1024 H   0  0  0  0  0  0  0  0  0  0  0  0
   39.1948   25.2741   33.0591 H   0  0  0  0  0  0  0  0  0  0  0  0
   39.0196   22.3082   34.7192 H   0  0  0  0  0  0  0  0  0  0  0  0
   37.4754   20.4694   33.5328 H   0  0  0  0  0  0  0  0  0  0  0  0
   35.9455   21.8901   31.9607 H   0  0  0  0  0  0  0  0  0  0  0  0
  2  1  2  0
  3  2  1  0
  4  3  2  0
  4  5  1  0
  5  6  2  0
  6  1  1  0
  7  8  1  0
  7  3  1  0
  8  9  1  0
 10  9  1  0
 11 12  1  0
 11 10  1  0
 12  7  1  0
 13 12  1  0
 13 14  1  0
 15 14  2  0
 16 17  1  0
 16 15  1  0
 17 13  2  0
  1 18  1  0
  2 19  1  0
  5 20  1  0
  8 21  1  0
  8 22  1  0
  9 23  1  0
  9 24  1  0
 11 25  1  0
 11 26  1  0
 12 27  1  6
 14 28  1  0
 15 29  1  0
 16 30  1  0
M  ISO  8  18  14  19  14  20  14  21  13  22  13  23  13  24  13  25  13
M  ISO  5  26  13  27  13  28  14  29  14  30   9
M  END
>  <minimizedAffinity>  (1) 
-4.37803459

>  <minimizedRMSD>  (1) 
0.303942323

$$$$
