
     RDKit          3D

 36 38  0  0  0  0  0  0  0  0999 V2000
   38.1500   23.7730   37.0260 C   0  0  0  0  0  0  0  0  0  0  0  0
   41.4310   21.9850   37.2520 C   0  0  0  0  0  0  0  0  0  0  0  0
   40.1260   22.3340   37.5450 C   0  0  0  0  0  0  0  0  0  0  0  0
   39.5160   23.3560   36.7810 C   0  0  0  0  0  0  0  0  0  0  0  0
   40.2540   23.9300   35.8090 N   0  0  0  0  0  0  0  0  0  0  0  0
   41.5260   23.5720   35.5420 C   0  0  0  0  0  0  0  0  0  0  0  0
   42.1070   22.5950   36.2730 N   0  0  0  0  0  0  0  0  0  0  0  0
   38.1100   24.5250   38.3520 C   0  0  0  0  0  0  0  0  0  0  0  0
   37.5850   24.6570   35.9330 C   0  0  0  0  0  0  0  0  0  0  0  0
   37.2550   22.5740   37.1350 C   0  0  0  0  0  0  0  0  0  0  0  0
   36.9760   21.9060   35.8690 C   0  0  0  0  0  0  0  0  0  0  0  0
   35.8910   21.1590   35.6310 C   0  0  0  0  0  0  0  0  0  0  0  0
   35.5950   20.5470   34.4620 C   0  0  0  0  0  0  0  0  0  0  0  0
   36.6230   20.7990   33.4680 C   0  0  0  0  0  0  0  0  0  0  0  0
   37.8750   21.8780   34.3380 S   0  0  0  0  0  0  0  0  0  0  0  0
   36.8000   20.4050   32.1040 C   0  0  0  0  0  0  0  0  0  0  0  0
   35.9880   19.5640   31.4430 C   0  0  0  0  0  0  0  0  0  0  0  0
   36.7170   19.4770   29.7270 S   0  0  0  0  0  0  0  0  0  0  0  0
   38.0700   20.6820   30.3020 C   0  0  0  0  0  0  0  0  0  0  0  0
   37.7520   20.8340   31.3610 N   0  0  0  0  0  0  0  0  0  0  0  0
   39.3610   21.1990   29.1140 S   0  0  0  0  0  0  0  0  0  0  0  0
   41.9219   21.1915   37.8345 H   0  0  0  0  0  0  0  0  0  0  0  0
   39.5754   21.8293   38.3525 H   0  0  0  0  0  0  0  0  0  0  0  0
   42.0857   24.0704   34.7368 H   0  0  0  0  0  0  0  0  0  0  0  0
   38.1483   23.8053   39.1830 H   0  0  0  0  0  0  0  0  0  0  0  0
   38.9733   25.2038   38.4148 H   0  0  0  0  0  0  0  0  0  0  0  0
   37.1796   25.1084   38.4148 H   0  0  0  0  0  0  0  0  0  0  0  0
   37.0453   25.5014   36.3866 H   0  0  0  0  0  0  0  0  0  0  0  0
   38.4065   25.0394   35.3094 H   0  0  0  0  0  0  0  0  0  0  0  0
   36.8929   24.0720   35.3094 H   0  0  0  0  0  0  0  0  0  0  0  0
   37.7351   21.8478   37.8073 H   0  0  0  0  0  0  0  0  0  0  0  0
   36.2891   22.9401   37.5131 H   0  0  0  0  0  0  0  0  0  0  0  0
   35.1778   21.0318   36.4587 H   0  0  0  0  0  0  0  0  0  0  0  0
   34.6950   19.9391   34.2873 H   0  0  0  0  0  0  0  0  0  0  0  0
   35.0968   19.0450   31.8255 H   0  0  0  0  0  0  0  0  0  0  0  0
   40.4622   21.6400   29.7995 H   0  0  0  0  0  0  0  0  0  0  0  0
  1 10  1  0
  1  8  1  0
  2  3  2  0
  4  1  1  0
  4  3  1  0
  5  4  2  0
  6  5  1  0
  6  7  2  0
  7  2  1  0
  9  1  1  0
 11 10  1  0
 12 11  2  0
 13 12  1  0
 14 15  1  0
 14 13  2  0
 15 11  1  0
 16 14  1  0
 17 16  2  0
 18 19  1  0
 18 17  1  0
 19 20  2  0
 20 16  1  0
 21 19  1  0
  2 22  1  0
  3 23  1  0
  6 24  1  0
  8 25  1  0
  8 26  1  0
  8 27  1  0
  9 28  1  0
  9 29  1  0
  9 30  1  0
 10 31  1  0
 10 32  1  0
 12 33  1  0
 13 34  1  0
 17 35  1  0
 21 36  1  0
M  ISO  8  22  14  23  14  24  14  25   8  26   8  27   8  28   8  29   8
M  ISO  7  30   8  31   8  32   8  33  14  34  14  35  14  36  11
M  END
>  <minimizedAffinity>  (1) 
-4.53302765

>  <minimizedRMSD>  (1) 
0.0417995788

$$$$
