
     RDKit          3D

 35 37  0  0  1  0  0  0  0  0999 V2000
   39.0480   23.0190   37.9970 C   0  0  0  0  0  0  0  0  0  0  0  0
   38.5200   24.0540   37.2120 C   0  0  0  0  0  0  0  0  0  0  0  0
   39.2430   24.4500   36.0980 C   0  0  0  0  0  0  0  0  0  0  0  0
   40.4070   23.8190   35.8400 N   0  0  0  0  0  0  0  0  0  0  0  0
   40.8970   22.8340   36.5990 C   0  0  0  0  0  0  0  0  0  0  0  0
   40.2170   22.4300   37.6830 N   0  0  0  0  0  0  0  0  0  0  0  0
   38.8810   25.4670   35.1760 N   0  0  0  0  0  0  0  0  0  0  0  0
   39.2420   26.8630   35.2830 C   0  0  0  0  0  0  0  0  0  0  0  0
   37.9730   27.6960   35.3870 C   0  0  0  0  0  0  0  0  0  0  0  0
   36.8640   26.9370   35.0250 O   0  0  0  0  0  0  0  0  0  0  0  0
   37.0650   26.3180   33.7820 C   0  0  0  0  0  0  0  0  0  0  0  0
   38.0820   25.2160   33.9840 C   0  0  1  0  0  0  0  0  0  0  0  0
   38.8480   25.1660   32.7660 N   0  0  0  0  0  0  0  0  0  0  0  0
   38.0550   25.8680   31.7710 C   0  0  0  0  0  0  0  0  0  0  0  0
   38.6300   25.4810   30.4500 C   0  0  0  0  0  0  0  0  0  0  0  0
   39.4450   24.2420   30.7460 C   0  0  0  0  0  0  0  0  0  0  0  0
   39.0080   23.8850   32.1750 C   0  0  0  0  0  0  0  0  0  0  0  0
   38.4961   22.6818   38.8868 H   0  0  0  0  0  0  0  0  0  0  0  0
   37.5653   24.5348   37.4714 H   0  0  0  0  0  0  0  0  0  0  0  0
   41.8528   22.3570   36.3364 H   0  0  0  0  0  0  0  0  0  0  0  0
   39.8587   27.0167   36.1808 H   0  0  0  0  0  0  0  0  0  0  0  0
   39.8151   27.1679   34.3950 H   0  0  0  0  0  0  0  0  0  0  0  0
   37.8516   28.0439   36.4235 H   0  0  0  0  0  0  0  0  0  0  0  0
   38.0541   28.5567   34.7068 H   0  0  0  0  0  0  0  0  0  0  0  0
   37.4440   27.0505   33.0542 H   0  0  0  0  0  0  0  0  0  0  0  0
   36.1203   25.9083   33.3951 H   0  0  0  0  0  0  0  0  0  0  0  0
   37.6193   24.2349   34.1667 H   0  0  0  0  0  0  0  0  0  0  0  0
   37.0005   25.5614   31.8349 H   0  0  0  0  0  0  0  0  0  0  0  0
   38.0843   26.9570   31.9231 H   0  0  0  0  0  0  0  0  0  0  0  0
   39.2701   26.2830   30.0536 H   0  0  0  0  0  0  0  0  0  0  0  0
   37.8549   25.3027   29.6902 H   0  0  0  0  0  0  0  0  0  0  0  0
   39.2038   23.4311   30.0430 H   0  0  0  0  0  0  0  0  0  0  0  0
   40.5293   24.3983   30.6469 H   0  0  0  0  0  0  0  0  0  0  0  0
   38.0616   23.3244   32.1748 H   0  0  0  0  0  0  0  0  0  0  0  0
   39.7209   23.2380   32.7072 H   0  0  0  0  0  0  0  0  0  0  0  0
  2  1  2  0
  3  2  1  0
  4  3  2  0
  4  5  1  0
  5  6  2  0
  6  1  1  0
  7  8  1  0
  7  3  1  0
  8  9  1  0
 10  9  1  0
 11 12  1  0
 11 10  1  0
 12  7  1  0
 13 14  1  0
 13 12  1  0
 15 16  1  0
 15 14  1  0
 16 17  1  0
 17 13  1  0
  1 18  1  0
  2 19  1  0
  5 20  1  0
  8 21  1  0
  8 22  1  0
  9 23  1  0
  9 24  1  0
 11 25  1  0
 11 26  1  0
 12 27  1  1
 14 28  1  0
 14 29  1  0
 15 30  1  0
 15 31  1  0
 16 32  1  0
 16 33  1  0
 17 34  1  0
 17 35  1  0
M  ISO  8  18  14  19  14  20  14  21  13  22  13  23  13  24  13  25  13
M  ISO  8  26  13  27  13  28  13  29  13  30  13  31  13  32  13  33  13
M  ISO  2  34  13  35  13
M  END
>  <minimizedAffinity>  (1) 
-4.19133663

>  <minimizedRMSD>  (1) 
0.121028319

$$$$
