
     RDKit          3D

 30 31  0  0  1  0  0  0  0  0999 V2000
   39.2150   22.8460   37.8140 C   0  0  0  0  0  0  0  0  0  0  0  0
   38.6620   23.8690   37.0420 C   0  0  0  0  0  0  0  0  0  0  0  0
   39.4190   24.3920   35.9880 C   0  0  0  0  0  0  0  0  0  0  0  0
   40.6510   23.8780   35.7730 N   0  0  0  0  0  0  0  0  0  0  0  0
   41.1570   22.8980   36.5280 C   0  0  0  0  0  0  0  0  0  0  0  0
   40.4480   22.3760   37.5510 N   0  0  0  0  0  0  0  0  0  0  0  0
   39.0150   25.4300   35.1020 N   0  0  0  0  0  0  0  0  0  0  0  0
   39.2620   26.8440   35.3260 C   0  0  0  0  0  0  0  0  0  0  0  0
   37.9400   27.5700   35.3660 C   0  0  0  0  0  0  0  0  0  0  0  0
   36.9050   26.7410   34.9190 O   0  0  0  0  0  0  0  0  0  0  0  0
   37.2160   26.2190   33.6750 C   0  0  0  0  0  0  0  0  0  0  0  0
   38.2980   25.1690   33.8500 C   0  0  2  0  0  0  0  0  0  0  0  0
   37.7720   23.8240   33.9410 N   0  0  0  0  0  0  0  0  0  0  0  0
   37.5710   23.0330   32.7610 C   0  0  0  0  0  0  0  0  0  0  0  0
   38.2830   23.3580   31.7160 N   0  0  0  0  0  0  0  0  0  0  0  0
   36.6160   21.9710   32.8430 N   0  0  0  0  0  0  0  0  0  0  0  0
   38.1310   22.7740   30.8540 H   0  0  0  0  0  0  0  0  0  0  0  0
   38.6364   22.4194   38.6466 H   0  0  0  0  0  0  0  0  0  0  0  0
   37.6547   24.2549   37.2572 H   0  0  0  0  0  0  0  0  0  0  0  0
   42.1643   22.5119   36.3128 H   0  0  0  0  0  0  0  0  0  0  0  0
   39.7873   26.9802   36.2828 H   0  0  0  0  0  0  0  0  0  0  0  0
   39.8845   27.2472   34.5136 H   0  0  0  0  0  0  0  0  0  0  0  0
   37.7311   27.8824   36.3998 H   0  0  0  0  0  0  0  0  0  0  0  0
   37.9993   28.4478   34.7057 H   0  0  0  0  0  0  0  0  0  0  0  0
   37.5805   27.0212   33.0166 H   0  0  0  0  0  0  0  0  0  0  0  0
   36.3216   25.7666   33.2218 H   0  0  0  0  0  0  0  0  0  0  0  0
   38.9470   25.2350   32.9643 H   0  0  0  0  0  0  0  0  0  0  0  0
   37.5392   23.4299   34.8637 H   0  0  0  0  0  0  0  0  0  0  0  0
   36.4366   21.3752   32.0222 H   0  0  0  0  0  0  0  0  0  0  0  0
   36.1078   21.8022   33.7228 H   0  0  0  0  0  0  0  0  0  0  0  0
  2  1  2  0
  3  2  1  0
  4  3  2  0
  4  5  1  0
  5  6  2  0
  6  1  1  0
  7  8  1  0
  7  3  1  0
  8  9  1  0
 10  9  1  0
 11 12  1  0
 11 10  1  0
 12 13  1  0
 12  7  1  0
 14 16  1  0
 14 13  1  0
 15 14  2  0
 17 15  1  0
  1 18  1  0
  2 19  1  0
  5 20  1  0
  8 21  1  0
  8 22  1  0
  9 23  1  0
  9 24  1  0
 11 25  1  0
 11 26  1  0
 12 27  1  6
 13 28  1  0
 16 29  1  0
 16 30  1  0
M  ISO  8  18  14  19  14  20  14  21  13  22  13  23  13  24  13  25  13
M  ISO  2  26  13  27  13
M  END
>  <minimizedAffinity>  (1) 
-4.11319828

>  <minimizedRMSD>  (1) 
0.881954968

$$$$
