
     RDKit          3D

 30 32  0  0  1  0  0  0  0  0999 V2000
   39.1300   22.9310   37.8780 C   0  0  0  0  0  0  0  0  0  0  0  0
   38.5830   23.9640   37.1100 C   0  0  0  0  0  0  0  0  0  0  0  0
   39.3010   24.4460   36.0320 C   0  0  0  0  0  0  0  0  0  0  0  0
   40.4980   23.8730   35.8010 N   0  0  0  0  0  0  0  0  0  0  0  0
   41.0220   22.8880   36.5300 C   0  0  0  0  0  0  0  0  0  0  0  0
   40.3370   22.4130   37.5740 N   0  0  0  0  0  0  0  0  0  0  0  0
   38.9180   25.4710   35.1380 N   0  0  0  0  0  0  0  0  0  0  0  0
   39.2330   26.8730   35.2990 C   0  0  0  0  0  0  0  0  0  0  0  0
   37.9400   27.6670   35.4440 C   0  0  0  0  0  0  0  0  0  0  0  0
   36.8510   26.8780   35.0280 O   0  0  0  0  0  0  0  0  0  0  0  0
   37.1100   26.3560   33.7680 C   0  0  0  0  0  0  0  0  0  0  0  0
   38.1530   25.2520   33.9400 C   0  0  1  0  0  0  0  0  0  0  0  0
   38.9220   25.0330   32.7200 C   0  0  0  0  0  0  0  0  0  0  0  0
   38.4040   25.2960   31.4440 C   0  0  0  0  0  0  0  0  0  0  0  0
   39.3260   25.0030   30.5080 N   0  0  0  0  0  0  0  0  0  0  0  0
   40.4380   24.5530   31.1290 C   0  0  0  0  0  0  0  0  0  0  0  0
   40.1450   24.5930   32.4370 N   0  0  0  0  0  0  0  0  0  0  0  0
   38.5697   22.5372   38.7388 H   0  0  0  0  0  0  0  0  0  0  0  0
   37.5982   24.3856   37.3597 H   0  0  0  0  0  0  0  0  0  0  0  0
   42.0074   22.4708   36.2750 H   0  0  0  0  0  0  0  0  0  0  0  0
   39.8509   27.0097   36.1987 H   0  0  0  0  0  0  0  0  0  0  0  0
   39.7872   27.2294   34.4182 H   0  0  0  0  0  0  0  0  0  0  0  0
   37.8029   27.9538   36.4971 H   0  0  0  0  0  0  0  0  0  0  0  0
   37.9951   28.5710   34.8198 H   0  0  0  0  0  0  0  0  0  0  0  0
   37.5009   27.1437   33.1071 H   0  0  0  0  0  0  0  0  0  0  0  0
   36.1906   25.9565   33.3150 H   0  0  0  0  0  0  0  0  0  0  0  0
   37.6505   24.2858   34.0946 H   0  0  0  0  0  0  0  0  0  0  0  0
   37.3953   25.6837   31.2385 H   0  0  0  0  0  0  0  0  0  0  0  0
   41.3790   24.2251   30.6632 H   0  0  0  0  0  0  0  0  0  0  0  0
   40.8143   24.3056   33.1652 H   0  0  0  0  0  0  0  0  0  0  0  0
  2  1  2  0
  3  2  1  0
  4  3  2  0
  4  5  1  0
  5  6  2  0
  6  1  1  0
  7  8  1  0
  7  3  1  0
  8  9  1  0
 10  9  1  0
 11 12  1  0
 11 10  1  0
 12  7  1  0
 13 12  1  0
 14 13  2  0
 15 16  2  0
 15 14  1  0
 16 17  1  0
 17 13  1  0
  1 18  1  0
  2 19  1  0
  5 20  1  0
  8 21  1  0
  8 22  1  0
  9 23  1  0
  9 24  1  0
 11 25  1  0
 11 26  1  0
 12 27  1  1
 14 28  1  0
 16 29  1  0
 17 30  1  0
M  ISO  8  18  14  19  14  20  14  21  13  22  13  23  13  24  13  25  13
M  ISO  5  26  13  27  13  28  14  29  14  30   9
M  END
>  <minimizedAffinity>  (1) 
-4.10998392

>  <minimizedRMSD>  (1) 
0.279363602

$$$$
