
     RDKit          3D

 29 30  0  0  1  0  0  0  0  0999 V2000
   37.8580   23.9890   38.2450 C   0  0  0  0  0  0  0  0  0  0  0  0
   37.7120   24.1680   36.8570 C   0  0  0  0  0  0  0  0  0  0  0  0
   38.7070   23.6550   36.0330 C   0  0  0  0  0  0  0  0  0  0  0  0
   39.7700   23.0080   36.5890 N   0  0  0  0  0  0  0  0  0  0  0  0
   39.8720   22.8590   37.9230 C   0  0  0  0  0  0  0  0  0  0  0  0
   38.9330   23.3390   38.7490 N   0  0  0  0  0  0  0  0  0  0  0  0
   38.7440   23.7320   34.6140 N   0  0  0  0  0  0  0  0  0  0  0  0
   39.3380   24.8040   33.8450 C   0  0  0  0  0  0  0  0  0  0  0  0
   38.2730   25.4610   32.9920 C   0  0  0  0  0  0  0  0  0  0  0  0
   37.1200   24.6560   32.9530 O   0  0  0  0  0  0  0  0  0  0  0  0
   37.4750   23.3660   32.5660 C   0  0  0  0  0  0  0  0  0  0  0  0
   38.1710   22.7120   33.7390 C   0  0  2  0  0  0  0  0  0  0  0  0
   37.2670   21.7780   34.5110 C   0  0  0  0  0  0  0  0  0  0  0  0
   36.2890   21.1000   33.5760 C   0  0  0  0  0  0  0  0  0  0  0  0
   37.0902   24.3816   38.9279 H   0  0  0  0  0  0  0  0  0  0  0  0
   36.8417   24.6950   36.4390 H   0  0  0  0  0  0  0  0  0  0  0  0
   40.7425   22.3334   38.3425 H   0  0  0  0  0  0  0  0  0  0  0  0
   39.7722   25.5488   34.5282 H   0  0  0  0  0  0  0  0  0  0  0  0
   40.1285   24.3972   33.1972 H   0  0  0  0  0  0  0  0  0  0  0  0
   38.0177   26.4416   33.4201 H   0  0  0  0  0  0  0  0  0  0  0  0
   38.6583   25.5877   31.9695 H   0  0  0  0  0  0  0  0  0  0  0  0
   36.5747   22.7938   32.2974 H   0  0  0  0  0  0  0  0  0  0  0  0
   38.1391   23.3945   31.6896 H   0  0  0  0  0  0  0  0  0  0  0  0
   38.9809   22.0884   33.3326 H   0  0  0  0  0  0  0  0  0  0  0  0
   37.8786   21.0136   35.0126 H   0  0  0  0  0  0  0  0  0  0  0  0
   36.7045   22.3598   35.2560 H   0  0  0  0  0  0  0  0  0  0  0  0
   35.5255   20.5707   34.1650 H   0  0  0  0  0  0  0  0  0  0  0  0
   35.8036   21.8564   32.9417 H   0  0  0  0  0  0  0  0  0  0  0  0
   36.8270   20.3801   32.9417 H   0  0  0  0  0  0  0  0  0  0  0  0
  1  6  2  0
  2  1  1  0
  3  4  1  0
  3  2  2  0
  4  5  2  0
  5  6  1  0
  7  3  1  0
  8  7  1  0
  9  8  1  0
 10  9  1  0
 11 10  1  0
 11 12  1  0
 12 13  1  0
 12  7  1  0
 14 13  1  0
  1 15  1  0
  2 16  1  0
  5 17  1  0
  8 18  1  0
  8 19  1  0
  9 20  1  0
  9 21  1  0
 11 22  1  0
 11 23  1  0
 12 24  1  6
 13 25  1  0
 13 26  1  0
 14 27  1  0
 14 28  1  0
 14 29  1  0
M  ISO  8  15  14  16  14  17  14  18  13  19  13  20  13  21  13  22  13
M  ISO  7  23  13  24  13  25   8  26   8  27   8  28   8  29   8
M  END
>  <minimizedAffinity>  (1) 
-3.87119317

>  <minimizedRMSD>  (1) 
2.27600884

$$$$
