
     RDKit          3D

 38 40  0  0  0  0  0  0  0  0999 V2000
   37.2610   22.5810   37.1300 C   0  0  0  0  0  0  0  0  0  0  0  0
   36.9610   21.9100   35.8730 C   0  0  0  0  0  0  0  0  0  0  0  0
   35.8680   21.1630   35.6430 C   0  0  0  0  0  0  0  0  0  0  0  0
   35.5950   20.5410   34.4630 C   0  0  0  0  0  0  0  0  0  0  0  0
   36.6130   20.7740   33.4800 C   0  0  0  0  0  0  0  0  0  0  0  0
   37.8680   21.8630   34.3430 S   0  0  0  0  0  0  0  0  0  0  0  0
   36.7970   20.3750   32.1220 C   0  0  0  0  0  0  0  0  0  0  0  0
   35.9770   19.5220   31.4680 C   0  0  0  0  0  0  0  0  0  0  0  0
   36.6950   19.4560   29.7390 S   0  0  0  0  0  0  0  0  0  0  0  0
   38.0410   20.6690   30.3040 C   0  0  0  0  0  0  0  0  0  0  0  0
   37.7350   20.8140   31.3630 N   0  0  0  0  0  0  0  0  0  0  0  0
   39.0200   21.0300   29.2390 C   0  0  0  0  0  0  0  0  0  0  0  0
   39.7830   22.0140   29.3330 O   0  0  0  0  0  0  0  0  0  0  0  0
   39.0220   20.2040   28.1530 O   0  0  0  0  0  0  0  0  0  0  0  0
   38.1510   23.7780   37.0160 C   0  0  0  0  0  0  0  0  0  0  0  0
   41.4450   22.0030   37.2420 C   0  0  0  0  0  0  0  0  0  0  0  0
   40.1340   22.3310   37.5400 C   0  0  0  0  0  0  0  0  0  0  0  0
   39.5170   23.3540   36.7890 C   0  0  0  0  0  0  0  0  0  0  0  0
   40.2440   23.9670   35.8070 N   0  0  0  0  0  0  0  0  0  0  0  0
   41.5150   23.6170   35.5490 C   0  0  0  0  0  0  0  0  0  0  0  0
   42.1130   22.6350   36.2690 N   0  0  0  0  0  0  0  0  0  0  0  0
   38.1060   24.5170   38.3570 C   0  0  0  0  0  0  0  0  0  0  0  0
   37.5760   24.6450   35.9300 C   0  0  0  0  0  0  0  0  0  0  0  0
   36.3102   22.9052   37.5781 H   0  0  0  0  0  0  0  0  0  0  0  0
   37.8089   21.8503   37.7431 H   0  0  0  0  0  0  0  0  0  0  0  0
   35.1448   21.0461   36.4636 H   0  0  0  0  0  0  0  0  0  0  0  0
   34.6976   19.9305   34.2843 H   0  0  0  0  0  0  0  0  0  0  0  0
   35.0960   18.9918   31.8589 H   0  0  0  0  0  0  0  0  0  0  0  0
   38.4013   19.4336   28.1159 H   0  0  0  0  0  0  0  0  0  0  0  0
   41.9470   21.2092   37.8146 H   0  0  0  0  0  0  0  0  0  0  0  0
   39.5883   21.8090   38.3398 H   0  0  0  0  0  0  0  0  0  0  0  0
   42.0730   24.1286   34.7509 H   0  0  0  0  0  0  0  0  0  0  0  0
   38.1504   23.7877   39.1792 H   0  0  0  0  0  0  0  0  0  0  0  0
   38.9641   25.2016   38.4274 H   0  0  0  0  0  0  0  0  0  0  0  0
   37.1712   25.0924   38.4274 H   0  0  0  0  0  0  0  0  0  0  0  0
   37.0219   25.4805   36.3826 H   0  0  0  0  0  0  0  0  0  0  0  0
   38.3913   25.0407   35.3065 H   0  0  0  0  0  0  0  0  0  0  0  0
   36.8943   24.0479   35.3065 H   0  0  0  0  0  0  0  0  0  0  0  0
  2  1  1  0
  3  2  2  0
  4  3  1  0
  5  6  1  0
  5  4  2  0
  6  2  1  0
  7  5  1  0
  8  7  2  0
  9 10  1  0
  9  8  1  0
 10 11  2  0
 11  7  1  0
 12 13  2  0
 12 10  1  0
 14 12  1  0
 15  1  1  0
 15 22  1  0
 16 17  2  0
 18 15  1  0
 18 17  1  0
 19 18  2  0
 20 19  1  0
 20 21  2  0
 21 16  1  0
 23 15  1  0
  1 24  1  0
  1 25  1  0
  3 26  1  0
  4 27  1  0
  8 28  1  0
 14 29  1  0
 16 30  1  0
 17 31  1  0
 20 32  1  0
 22 33  1  0
 22 34  1  0
 22 35  1  0
 23 36  1  0
 23 37  1  0
 23 38  1  0
M  ISO  8  24   8  25   8  26  14  27  14  28  14  29   3  30  14  31  14
M  ISO  7  32  14  33   8  34   8  35   8  36   8  37   8  38   8
M  END
>  <minimizedAffinity>  (1) 
-4.45511532

>  <minimizedRMSD>  (1) 
0.268142372

$$$$
