
     RDKit          3D

 26 27  0  0  1  0  0  0  0  0999 V2000
   39.2490   22.8760   37.7080 C   0  0  0  0  0  0  0  0  0  0  0  0
   38.7340   23.7140   36.7180 C   0  0  0  0  0  0  0  0  0  0  0  0
   39.5950   24.1540   35.7320 C   0  0  0  0  0  0  0  0  0  0  0  0
   40.8910   23.7490   35.7800 N   0  0  0  0  0  0  0  0  0  0  0  0
   41.3640   22.9390   36.7450 C   0  0  0  0  0  0  0  0  0  0  0  0
   40.5500   22.5000   37.7080 N   0  0  0  0  0  0  0  0  0  0  0  0
   39.2900   25.0030   34.6410 N   0  0  0  0  0  0  0  0  0  0  0  0
   39.3880   26.4610   34.6620 C   0  0  0  0  0  0  0  0  0  0  0  0
   38.0120   27.0580   34.4350 C   0  0  0  0  0  0  0  0  0  0  0  0
   37.1540   26.0910   33.9220 O   0  0  0  0  0  0  0  0  0  0  0  0
   37.7090   25.4390   32.8280 C   0  0  0  0  0  0  0  0  0  0  0  0
   38.8360   24.5500   33.3440 C   0  0  2  0  0  0  0  0  0  0  0  0
   38.3630   23.1460   33.4900 C   0  0  0  0  0  0  0  0  0  0  0  0
   37.1690   22.7790   33.3310 O   0  0  0  0  0  0  0  0  0  0  0  0
   38.8790   21.8730   33.7960 O   0  0  0  0  0  0  0  0  0  0  0  0
   38.5839   22.5131   38.5055 H   0  0  0  0  0  0  0  0  0  0  0  0
   37.6759   24.0145   36.7229 H   0  0  0  0  0  0  0  0  0  0  0  0
   42.4221   22.6384   36.7404 H   0  0  0  0  0  0  0  0  0  0  0  0
   39.7749   26.7895   35.6379 H   0  0  0  0  0  0  0  0  0  0  0  0
   40.0714   26.7964   33.8680 H   0  0  0  0  0  0  0  0  0  0  0  0
   37.6134   27.4289   35.3908 H   0  0  0  0  0  0  0  0  0  0  0  0
   38.0918   27.8880   33.7175 H   0  0  0  0  0  0  0  0  0  0  0  0
   38.1086   26.1756   32.1154 H   0  0  0  0  0  0  0  0  0  0  0  0
   36.9480   24.8366   32.3103 H   0  0  0  0  0  0  0  0  0  0  0  0
   39.6595   24.6023   32.6166 H   0  0  0  0  0  0  0  0  0  0  0  0
   38.2776   21.0868   33.8159 H   0  0  0  0  0  0  0  0  0  0  0  0
  1  6  2  0
  2  1  1  0
  3  4  1  0
  3  2  2  0
  4  5  2  0
  5  6  1  0
  7  8  1  0
  7  3  1  0
  9  8  1  0
 10  9  1  0
 11 12  1  0
 11 10  1  0
 12 13  1  0
 12  7  1  0
 13 15  1  0
 14 13  2  0
  1 16  1  0
  2 17  1  0
  5 18  1  0
  8 19  1  0
  8 20  1  0
  9 21  1  0
  9 22  1  0
 11 23  1  0
 11 24  1  0
 12 25  1  6
 15 26  1  0
M  ISO  8  16  14  17  14  18  14  19  13  20  13  21  13  22  13  23  13
M  ISO  3  24  13  25  13  26   3
M  END
>  <minimizedAffinity>  (1) 
-3.55472732

>  <minimizedRMSD>  (1) 
0.941866457

$$$$
