
     RDKit          3D

 33 35  0  0  1  0  0  0  0  0999 V2000
   38.4810   22.5480   36.3840 C   0  0  0  0  0  0  0  0  0  0  0  0
   38.1010   23.8010   35.9050 C   0  0  0  0  0  0  0  0  0  0  0  0
   39.0140   24.5780   35.2280 C   0  0  0  0  0  0  0  0  0  0  0  0
   40.2760   24.0740   35.0570 N   0  0  0  0  0  0  0  0  0  0  0  0
   40.6240   22.8640   35.5260 C   0  0  0  0  0  0  0  0  0  0  0  0
   39.7330   22.1000   36.1880 N   0  0  0  0  0  0  0  0  0  0  0  0
   38.8210   25.8600   34.6720 N   0  0  0  0  0  0  0  0  0  0  0  0
   39.0360   27.1120   35.4100 C   0  0  0  0  0  0  0  0  0  0  0  0
   37.7440   27.8790   35.4920 C   0  0  0  0  0  0  0  0  0  0  0  0
   36.8080   27.3390   34.5860 O   0  0  0  0  0  0  0  0  0  0  0  0
   37.3590   27.2470   33.3240 C   0  0  0  0  0  0  0  0  0  0  0  0
   38.4110   26.1330   33.3250 C   0  0  2  0  0  0  0  0  0  0  0  0
   38.0170   25.0040   32.4990 C   0  0  0  0  0  0  0  0  0  0  0  0
   36.6610   24.6680   32.3540 C   0  0  0  0  0  0  0  0  0  0  0  0
   36.1500   23.6170   31.6220 C   0  0  0  0  0  0  0  0  0  0  0  0
   37.0600   22.8160   30.9640 C   0  0  0  0  0  0  0  0  0  0  0  0
   38.4060   23.0690   31.0490 C   0  0  0  0  0  0  0  0  0  0  0  0
   38.8180   24.1380   31.8020 C   0  0  0  0  0  0  0  0  0  0  0  0
   37.7538   21.9240   36.9241 H   0  0  0  0  0  0  0  0  0  0  0  0
   37.0765   24.1671   36.0672 H   0  0  0  0  0  0  0  0  0  0  0  0
   41.6474   22.4930   35.3679 H   0  0  0  0  0  0  0  0  0  0  0  0
   39.3900   26.8818   36.4257 H   0  0  0  0  0  0  0  0  0  0  0  0
   39.7885   27.7197   34.8862 H   0  0  0  0  0  0  0  0  0  0  0  0
   37.3435   27.8110   36.5142 H   0  0  0  0  0  0  0  0  0  0  0  0
   37.9307   28.9323   35.2356 H   0  0  0  0  0  0  0  0  0  0  0  0
   37.8330   28.2030   33.0569 H   0  0  0  0  0  0  0  0  0  0  0  0
   36.5734   27.0187   32.5887 H   0  0  0  0  0  0  0  0  0  0  0  0
   39.3304   26.4616   32.8184 H   0  0  0  0  0  0  0  0  0  0  0  0
   35.9340   25.3071   32.8766 H   0  0  0  0  0  0  0  0  0  0  0  0
   35.0681   23.4264   31.5655 H   0  0  0  0  0  0  0  0  0  0  0  0
   36.7029   21.9654   30.3648 H   0  0  0  0  0  0  0  0  0  0  0  0
   39.1347   22.4313   30.5271 H   0  0  0  0  0  0  0  0  0  0  0  0
   39.9019   24.3189   31.8517 H   0  0  0  0  0  0  0  0  0  0  0  0
  2  1  2  0
  3  2  1  0
  4  3  2  0
  4  5  1  0
  5  6  2  0
  6  1  1  0
  7  3  1  0
  7  8  1  0
  8  9  1  0
 10  9  1  0
 11 12  1  0
 11 10  1  0
 12  7  1  0
 13 12  1  0
 14 13  2  0
 15 14  1  0
 16 17  1  0
 16 15  2  0
 17 18  2  0
 18 13  1  0
  1 19  1  0
  2 20  1  0
  5 21  1  0
  8 22  1  0
  8 23  1  0
  9 24  1  0
  9 25  1  0
 11 26  1  0
 11 27  1  0
 12 28  1  6
 14 29  1  0
 15 30  1  0
 16 31  1  0
 17 32  1  0
 18 33  1  0
M  ISO  8  19  14  20  14  21  14  22  13  23  13  24  13  25  13  26  13
M  ISO  7  27  13  28  13  29  14  30  14  31  14  32  14  33  14
M  END
>  <minimizedAffinity>  (1) 
-4.21579218

>  <minimizedRMSD>  (1) 
1.78834891

$$$$
