
     RDKit          3D

 44 48  0  0  1  0  0  0  0  0999 V2000
   38.5200   22.5620   36.2470 C   0  0  0  0  0  0  0  0  0  0  0  0
   38.1140   23.8300   35.8210 C   0  0  0  0  0  0  0  0  0  0  0  0
   39.0040   24.6520   35.2020 C   0  0  0  0  0  0  0  0  0  0  0  0
   40.2630   24.1610   35.0390 N   0  0  0  0  0  0  0  0  0  0  0  0
   40.6590   22.9580   35.4380 C   0  0  0  0  0  0  0  0  0  0  0  0
   39.7860   22.1480   36.0480 N   0  0  0  0  0  0  0  0  0  0  0  0
   38.7960   25.9380   34.7080 N   0  0  0  0  0  0  0  0  0  0  0  0
   38.9660   27.1640   35.5050 C   0  0  0  0  0  0  0  0  0  0  0  0
   37.6860   27.9250   35.5500 C   0  0  0  0  0  0  0  0  0  0  0  0
   36.7810   27.3940   34.6170 O   0  0  0  0  0  0  0  0  0  0  0  0
   37.3870   27.3730   33.3600 C   0  0  0  0  0  0  0  0  0  0  0  0
   38.4090   26.2770   33.3210 C   0  0  2  0  0  0  0  0  0  0  0  0
   38.0460   25.1530   32.4790 C   0  0  0  0  0  0  0  0  0  0  0  0
   36.7200   24.6470   32.5060 C   0  0  0  0  0  0  0  0  0  0  0  0
   36.2540   23.6120   31.7270 C   0  0  0  0  0  0  0  0  0  0  0  0
   37.1560   23.0200   30.8490 C   0  0  0  0  0  0  0  0  0  0  0  0
   38.4650   23.4670   30.7730 C   0  0  0  0  0  0  0  0  0  0  0  0
   38.8410   24.5020   31.5800 C   0  0  0  0  0  0  0  0  0  0  0  0
   40.1780   24.8940   31.3300 N   0  0  0  0  0  0  0  0  0  0  0  0
   41.4290   24.6180   31.7280 C   0  0  0  0  0  0  0  0  0  0  0  0
   42.3340   25.3500   31.0610 N   0  0  0  0  0  0  0  0  0  0  0  0
   41.6670   26.1340   30.1940 C   0  0  0  0  0  0  0  0  0  0  0  0
   42.2210   27.0240   29.3250 C   0  0  0  0  0  0  0  0  0  0  0  0
   41.3600   27.7130   28.5270 N   0  0  0  0  0  0  0  0  0  0  0  0
   40.0430   27.4640   28.6590 C   0  0  0  0  0  0  0  0  0  0  0  0
   39.5310   26.5800   29.5270 N   0  0  0  0  0  0  0  0  0  0  0  0
   40.3110   25.8540   30.3550 C   0  0  0  0  0  0  0  0  0  0  0  0
   37.8005   21.8978   36.7482 H   0  0  0  0  0  0  0  0  0  0  0  0
   37.0783   24.1621   35.9857 H   0  0  0  0  0  0  0  0  0  0  0  0
   41.6953   22.6303   35.2686 H   0  0  0  0  0  0  0  0  0  0  0  0
   39.2655   26.8943   36.5285 H   0  0  0  0  0  0  0  0  0  0  0  0
   39.7422   27.7907   35.0417 H   0  0  0  0  0  0  0  0  0  0  0  0
   37.2540   27.8527   36.5590 H   0  0  0  0  0  0  0  0  0  0  0  0
   37.8826   28.9790   35.3042 H   0  0  0  0  0  0  0  0  0  0  0  0
   36.6249   27.1924   32.5876 H   0  0  0  0  0  0  0  0  0  0  0  0
   37.8761   28.3399   33.1705 H   0  0  0  0  0  0  0  0  0  0  0  0
   39.3095   26.6436   32.8064 H   0  0  0  0  0  0  0  0  0  0  0  0
   36.0107   25.1178   33.2025 H   0  0  0  0  0  0  0  0  0  0  0  0
   35.2116   23.2675   31.7960 H   0  0  0  0  0  0  0  0  0  0  0  0
   36.8266   22.1885   30.2086 H   0  0  0  0  0  0  0  0  0  0  0  0
   39.1820   23.0007   30.0812 H   0  0  0  0  0  0  0  0  0  0  0  0
   41.6816   23.8821   32.5055 H   0  0  0  0  0  0  0  0  0  0  0  0
   43.3088   27.1783   29.2707 H   0  0  0  0  0  0  0  0  0  0  0  0
   39.3451   28.0198   28.0155 H   0  0  0  0  0  0  0  0  0  0  0  0
  2  1  2  0
  3  2  1  0
  4  3  2  0
  4  5  1  0
  5  6  2  0
  6  1  1  0
  7  3  1  0
  7  8  1  0
  8  9  1  0
 10  9  1  0
 11 10  1  0
 12 11  1  0
 12  7  1  0
 13 14  2  0
 13 12  1  0
 15 14  1  0
 16 15  2  0
 17 16  1  0
 17 18  2  0
 18 13  1  0
 19 18  1  0
 19 20  1  0
 21 20  2  0
 22 27  2  0
 22 21  1  0
 23 22  1  0
 24 25  1  0
 24 23  2  0
 25 26  2  0
 26 27  1  0
 27 19  1  0
  1 28  1  0
  2 29  1  0
  5 30  1  0
  8 31  1  0
  8 32  1  0
  9 33  1  0
  9 34  1  0
 11 35  1  0
 11 36  1  0
 12 37  1  6
 14 38  1  0
 15 39  1  0
 16 40  1  0
 17 41  1  0
 20 42  1  0
 23 43  1  0
 25 44  1  0
M  ISO  8  28  14  29  14  30  14  31  13  32  13  33  13  34  13  35  13
M  ISO  8  36  13  37  13  38  14  39  14  40  14  41  14  42  14  43  14
M  ISO  1  44  14
M  END
>  <minimizedAffinity>  (1) 
-4.80858183

>  <minimizedRMSD>  (1) 
1.34818459

$$$$
