
     RDKit          3D

 46 49  0  0  1  0  0  0  0  0999 V2000
   38.4120   22.6670   36.3600 C   0  0  0  0  0  0  0  0  0  0  0  0
   38.0130   23.9110   35.8660 C   0  0  0  0  0  0  0  0  0  0  0  0
   38.9420   24.7620   35.3540 C   0  0  0  0  0  0  0  0  0  0  0  0
   40.2350   24.3280   35.3580 N   0  0  0  0  0  0  0  0  0  0  0  0
   40.6190   23.1430   35.8280 C   0  0  0  0  0  0  0  0  0  0  0  0
   39.7090   22.3070   36.3310 N   0  0  0  0  0  0  0  0  0  0  0  0
   38.7500   26.0360   34.8230 N   0  0  0  0  0  0  0  0  0  0  0  0
   38.7750   27.2830   35.6050 C   0  0  0  0  0  0  0  0  0  0  0  0
   37.4510   27.9660   35.5060 C   0  0  0  0  0  0  0  0  0  0  0  0
   36.7100   27.4110   34.4540 O   0  0  0  0  0  0  0  0  0  0  0  0
   37.4720   27.4070   33.2860 C   0  0  0  0  0  0  0  0  0  0  0  0
   38.5310   26.3480   33.3900 C   0  0  2  0  0  0  0  0  0  0  0  0
   38.3250   25.2060   32.5260 C   0  0  0  0  0  0  0  0  0  0  0  0
   37.0290   24.6420   32.3910 C   0  0  0  0  0  0  0  0  0  0  0  0
   36.7040   23.5820   31.5760 C   0  0  0  0  0  0  0  0  0  0  0  0
   37.7320   23.0210   30.8260 C   0  0  0  0  0  0  0  0  0  0  0  0
   39.0230   23.5240   30.9080 C   0  0  0  0  0  0  0  0  0  0  0  0
   39.2660   24.5870   31.7430 C   0  0  0  0  0  0  0  0  0  0  0  0
   40.6200   24.9740   31.6430 N   0  0  0  0  0  0  0  0  0  0  0  0
   41.7010   24.5670   32.3110 C   0  0  0  0  0  0  0  0  0  0  0  0
   42.9600   25.0460   32.1170 C   0  0  0  0  0  0  0  0  0  0  0  0
   44.0910   24.5130   32.9220 C   0  0  0  0  0  0  0  0  0  0  0  0
   43.2050   26.0180   31.1850 C   0  0  0  0  0  0  0  0  0  0  0  0
   44.3610   26.4490   31.0150 O   0  0  0  0  0  0  0  0  0  0  0  0
   42.1550   26.4580   30.4930 N   0  0  0  0  0  0  0  0  0  0  0  0
   40.9270   25.9450   30.7290 C   0  0  0  0  0  0  0  0  0  0  0  0
   39.9920   26.4270   30.0260 O   0  0  0  0  0  0  0  0  0  0  0  0
   37.6622   21.9774   36.7751 H   0  0  0  0  0  0  0  0  0  0  0  0
   36.9522   24.2010   35.8910 H   0  0  0  0  0  0  0  0  0  0  0  0
   41.6803   22.8549   35.8018 H   0  0  0  0  0  0  0  0  0  0  0  0
   38.9881   27.0496   36.6586 H   0  0  0  0  0  0  0  0  0  0  0  0
   39.5575   27.9463   35.2079 H   0  0  0  0  0  0  0  0  0  0  0  0
   36.9008   27.8352   36.4495 H   0  0  0  0  0  0  0  0  0  0  0  0
   37.6078   29.0379   35.3150 H   0  0  0  0  0  0  0  0  0  0  0  0
   37.9470   28.3903   33.1534 H   0  0  0  0  0  0  0  0  0  0  0  0
   36.8234   27.1969   32.4228 H   0  0  0  0  0  0  0  0  0  0  0  0
   39.4741   26.7445   32.9860 H   0  0  0  0  0  0  0  0  0  0  0  0
   36.2190   25.0887   32.9863 H   0  0  0  0  0  0  0  0  0  0  0  0
   35.6758   23.1952   31.5201 H   0  0  0  0  0  0  0  0  0  0  0  0
   37.5199   22.1705   30.1614 H   0  0  0  0  0  0  0  0  0  0  0  0
   39.8362   23.0796   30.3154 H   0  0  0  0  0  0  0  0  0  0  0  0
   41.5645   23.7870   33.0746 H   0  0  0  0  0  0  0  0  0  0  0  0
   43.8620   24.6209   33.9925 H   0  0  0  0  0  0  0  0  0  0  0  0
   44.2409   23.4495   32.6845 H   0  0  0  0  0  0  0  0  0  0  0  0
   45.0067   25.0744   32.6845 H   0  0  0  0  0  0  0  0  0  0  0  0
   42.2790   27.1891   29.7782 H   0  0  0  0  0  0  0  0  0  0  0  0
  2  1  2  0
  3  4  2  0
  3  2  1  0
  4  5  1  0
  5  6  2  0
  6  1  1  0
  7  3  1  0
  7  8  1  0
  9  8  1  0
 10  9  1  0
 11 12  1  0
 11 10  1  0
 12  7  1  0
 13 12  1  0
 14 13  2  0
 15 14  1  0
 16 17  1  0
 16 15  2  0
 17 18  2  0
 18 13  1  0
 19 18  1  0
 19 20  1  0
 21 20  2  0
 21 22  1  0
 23 21  1  0
 24 23  2  0
 25 26  1  0
 25 23  1  0
 26 19  1  0
 27 26  2  0
  1 28  1  0
  2 29  1  0
  5 30  1  0
  8 31  1  0
  8 32  1  0
  9 33  1  0
  9 34  1  0
 11 35  1  0
 11 36  1  0
 12 37  1  6
 14 38  1  0
 15 39  1  0
 16 40  1  0
 17 41  1  0
 20 42  1  0
 22 43  1  0
 22 44  1  0
 22 45  1  0
 25 46  1  0
M  ISO  8  28  14  29  14  30  14  31  13  32  13  33  13  34  13  35  13
M  ISO  8  36  13  37  13  38  14  39  14  40  14  41  14  42  14  43   8
M  ISO  3  44   8  45   8  46   9
M  END
>  <minimizedAffinity>  (1) 
-4.66411066

>  <minimizedRMSD>  (1) 
0.823897898

$$$$
