
     RDKit          3D

 43 46  0  0  1  0  0  0  0  0999 V2000
   38.5100   22.5800   36.1790 C   0  0  0  0  0  0  0  0  0  0  0  0
   38.0970   23.8530   35.7640 C   0  0  0  0  0  0  0  0  0  0  0  0
   39.0120   24.7080   35.2370 C   0  0  0  0  0  0  0  0  0  0  0  0
   40.3030   24.2580   35.1470 N   0  0  0  0  0  0  0  0  0  0  0  0
   40.6910   23.0480   35.5410 C   0  0  0  0  0  0  0  0  0  0  0  0
   39.7970   22.2000   36.0610 N   0  0  0  0  0  0  0  0  0  0  0  0
   38.8130   26.0070   34.7700 N   0  0  0  0  0  0  0  0  0  0  0  0
   38.9040   27.2170   35.6050 C   0  0  0  0  0  0  0  0  0  0  0  0
   37.6020   27.9420   35.5880 C   0  0  0  0  0  0  0  0  0  0  0  0
   36.7810   27.4260   34.5750 O   0  0  0  0  0  0  0  0  0  0  0  0
   37.4710   27.4540   33.3640 C   0  0  0  0  0  0  0  0  0  0  0  0
   38.5200   26.3820   33.3660 C   0  0  2  0  0  0  0  0  0  0  0  0
   38.2500   25.2780   32.4680 C   0  0  0  0  0  0  0  0  0  0  0  0
   36.9480   24.7260   32.4010 C   0  0  0  0  0  0  0  0  0  0  0  0
   36.5570   23.7030   31.5610 C   0  0  0  0  0  0  0  0  0  0  0  0
   37.5320   23.1780   30.7170 C   0  0  0  0  0  0  0  0  0  0  0  0
   38.8280   23.6760   30.7340 C   0  0  0  0  0  0  0  0  0  0  0  0
   39.1300   24.6960   31.5980 C   0  0  0  0  0  0  0  0  0  0  0  0
   40.5070   25.1250   31.4170 C   0  0  0  0  0  0  0  0  0  0  0  0
   41.6690   24.6470   31.9820 C   0  0  0  0  0  0  0  0  0  0  0  0
   42.9050   25.1710   31.6910 C   0  0  0  0  0  0  0  0  0  0  0  0
   43.0610   26.2150   30.8120 C   0  0  0  0  0  0  0  0  0  0  0  0
   41.9340   26.7380   30.2160 C   0  0  0  0  0  0  0  0  0  0  0  0
   40.7250   26.1700   30.5470 C   0  0  0  0  0  0  0  0  0  0  0  0
   37.7745   21.8826   36.6063 H   0  0  0  0  0  0  0  0  0  0  0  0
   37.0444   24.1566   35.8637 H   0  0  0  0  0  0  0  0  0  0  0  0
   41.7438   22.7459   35.4394 H   0  0  0  0  0  0  0  0  0  0  0  0
   39.1485   26.9299   36.6383 H   0  0  0  0  0  0  0  0  0  0  0  0
   39.6907   27.8745   35.2066 H   0  0  0  0  0  0  0  0  0  0  0  0
   37.1029   27.8181   36.5604 H   0  0  0  0  0  0  0  0  0  0  0  0
   37.7848   29.0098   35.3970 H   0  0  0  0  0  0  0  0  0  0  0  0
   37.9496   28.4362   33.2365 H   0  0  0  0  0  0  0  0  0  0  0  0
   36.7684   27.2804   32.5356 H   0  0  0  0  0  0  0  0  0  0  0  0
   39.4448   26.7857   32.9282 H   0  0  0  0  0  0  0  0  0  0  0  0
   36.1858   25.1468   33.0733 H   0  0  0  0  0  0  0  0  0  0  0  0
   35.5254   23.3211   31.5585 H   0  0  0  0  0  0  0  0  0  0  0  0
   37.2727   22.3597   30.0292 H   0  0  0  0  0  0  0  0  0  0  0  0
   39.5974   23.2599   30.0669 H   0  0  0  0  0  0  0  0  0  0  0  0
   41.6044   23.8119   32.6950 H   0  0  0  0  0  0  0  0  0  0  0  0
   43.7948   24.7426   32.1755 H   0  0  0  0  0  0  0  0  0  0  0  0
   44.0583   26.6224   30.5899 H   0  0  0  0  0  0  0  0  0  0  0  0
   41.9981   27.5749   29.5050 H   0  0  0  0  0  0  0  0  0  0  0  0
   39.8345   26.5979   30.0633 H   0  0  0  0  0  0  0  0  0  0  0  0
  2  1  2  0
  3  2  1  0
  4  3  2  0
  4  5  1  0
  5  6  2  0
  6  1  1  0
  7  3  1  0
  7  8  1  0
  9  8  1  0
 10  9  1  0
 11 12  1  0
 11 10  1  0
 12  7  1  0
 13 12  1  0
 14 13  2  0
 15 14  1  0
 16 17  1  0
 16 15  2  0
 17 18  2  0
 18 13  1  0
 19 18  1  0
 19 20  2  0
 21 20  1  0
 22 21  2  0
 23 24  2  0
 23 22  1  0
 24 19  1  0
  1 25  1  0
  2 26  1  0
  5 27  1  0
  8 28  1  0
  8 29  1  0
  9 30  1  0
  9 31  1  0
 11 32  1  0
 11 33  1  0
 12 34  1  6
 14 35  1  0
 15 36  1  0
 16 37  1  0
 17 38  1  0
 20 39  1  0
 21 40  1  0
 22 41  1  0
 23 42  1  0
 24 43  1  0
M  ISO  8  25  14  26  14  27  14  28  13  29  13  30  13  31  13  32  13
M  ISO  8  33  13  34  13  35  14  36  14  37  14  38  14  39  14  40  14
M  ISO  3  41  14  42  14  43  14
M  END
>  <minimizedAffinity>  (1) 
-4.44107056

>  <minimizedRMSD>  (1) 
0.922488987

$$$$
