
     RDKit          3D

 46 49  0  0  1  0  0  0  0  0999 V2000
   38.4210   22.6680   36.3510 C   0  0  0  0  0  0  0  0  0  0  0  0
   38.0180   23.9130   35.8620 C   0  0  0  0  0  0  0  0  0  0  0  0
   38.9460   24.7630   35.3450 C   0  0  0  0  0  0  0  0  0  0  0  0
   40.2410   24.3280   35.3410 N   0  0  0  0  0  0  0  0  0  0  0  0
   40.6270   23.1420   35.8060 C   0  0  0  0  0  0  0  0  0  0  0  0
   39.7190   22.3050   36.3140 N   0  0  0  0  0  0  0  0  0  0  0  0
   38.7510   26.0380   34.8170 N   0  0  0  0  0  0  0  0  0  0  0  0
   38.7750   27.2810   35.6100 C   0  0  0  0  0  0  0  0  0  0  0  0
   37.4510   27.9630   35.5140 C   0  0  0  0  0  0  0  0  0  0  0  0
   36.7160   27.4260   34.4500 O   0  0  0  0  0  0  0  0  0  0  0  0
   37.4750   27.4150   33.2850 C   0  0  0  0  0  0  0  0  0  0  0  0
   38.5290   26.3540   33.3870 C   0  0  2  0  0  0  0  0  0  0  0  0
   38.3160   25.2120   32.5210 C   0  0  0  0  0  0  0  0  0  0  0  0
   37.0180   24.6590   32.3890 C   0  0  0  0  0  0  0  0  0  0  0  0
   36.6810   23.5990   31.5750 C   0  0  0  0  0  0  0  0  0  0  0  0
   37.7020   23.0270   30.8250 C   0  0  0  0  0  0  0  0  0  0  0  0
   38.9950   23.5190   30.9060 C   0  0  0  0  0  0  0  0  0  0  0  0
   39.2490   24.5820   31.7400 C   0  0  0  0  0  0  0  0  0  0  0  0
   43.2410   26.0680   31.3360 C   0  0  0  0  0  0  0  0  0  0  0  0
   42.2100   26.6430   30.6280 C   0  0  0  0  0  0  0  0  0  0  0  0
   40.9610   26.0860   30.8160 C   0  0  0  0  0  0  0  0  0  0  0  0
   40.6320   25.0050   31.6450 C   0  0  0  0  0  0  0  0  0  0  0  0
   41.7330   24.5060   32.3080 C   0  0  0  0  0  0  0  0  0  0  0  0
   43.0010   25.0170   32.1620 C   0  0  0  0  0  0  0  0  0  0  0  0
   44.8550   26.7170   31.1520 S   0  0  0  0  0  0  0  0  0  0  0  0
   44.9040   27.9980   31.9260 O   0  0  0  0  0  0  0  0  0  0  0  0
   45.8950   25.7400   31.6190 O   0  0  0  0  0  0  0  0  0  0  0  0
   37.6733   21.9782   36.7696 H   0  0  0  0  0  0  0  0  0  0  0  0
   36.9577   24.2041   35.8947 H   0  0  0  0  0  0  0  0  0  0  0  0
   41.6878   22.8531   35.7720 H   0  0  0  0  0  0  0  0  0  0  0  0
   38.9869   27.0398   36.6621 H   0  0  0  0  0  0  0  0  0  0  0  0
   39.5580   27.9477   35.2197 H   0  0  0  0  0  0  0  0  0  0  0  0
   36.8958   27.8160   36.4521 H   0  0  0  0  0  0  0  0  0  0  0  0
   37.6082   29.0378   35.3404 H   0  0  0  0  0  0  0  0  0  0  0  0
   37.9538   28.3960   33.1497 H   0  0  0  0  0  0  0  0  0  0  0  0
   36.8235   27.2039   32.4242 H   0  0  0  0  0  0  0  0  0  0  0  0
   39.4726   26.7497   32.9832 H   0  0  0  0  0  0  0  0  0  0  0  0
   36.2130   25.1132   32.9854 H   0  0  0  0  0  0  0  0  0  0  0  0
   35.6490   23.2221   31.5212 H   0  0  0  0  0  0  0  0  0  0  0  0
   37.4819   22.1772   30.1621 H   0  0  0  0  0  0  0  0  0  0  0  0
   39.8039   23.0669   30.3134 H   0  0  0  0  0  0  0  0  0  0  0  0
   42.3718   27.4959   29.9524 H   0  0  0  0  0  0  0  0  0  0  0  0
   40.1326   26.5408   30.2530 H   0  0  0  0  0  0  0  0  0  0  0  0
   41.5894   23.6545   32.9894 H   0  0  0  0  0  0  0  0  0  0  0  0
   43.8339   24.5677   32.7228 H   0  0  0  0  0  0  0  0  0  0  0  0
   45.1341   26.9523   29.8315 H   0  0  0  0  0  0  0  0  0  0  0  0
  2  1  2  0
  3  2  1  0
  4  3  2  0
  4  5  1  0
  5  6  2  0
  6  1  1  0
  7  3  1  0
  7  8  1  0
  9  8  1  0
 10  9  1  0
 11 12  1  0
 11 10  1  0
 12  7  1  0
 13 12  1  0
 14 13  2  0
 15 14  1  0
 16 17  1  0
 16 15  2  0
 17 18  2  0
 18 13  1  0
 19 24  2  0
 20 21  2  0
 20 19  1  0
 21 22  1  0
 22 18  1  0
 22 23  2  0
 24 23  1  0
 25 19  1  0
 25 27  2  0
 25 26  2  0
  1 28  1  0
  2 29  1  0
  5 30  1  0
  8 31  1  0
  8 32  1  0
  9 33  1  0
  9 34  1  0
 11 35  1  0
 11 36  1  0
 12 37  1  6
 14 38  1  0
 15 39  1  0
 16 40  1  0
 17 41  1  0
 20 42  1  0
 21 43  1  0
 23 44  1  0
 24 45  1  0
 25 46  1  0
M  ISO  8  28  14  29  14  30  14  31  13  32  13  33  13  34  13  35  13
M  ISO  8  36  13  37  13  38  14  39  14  40  14  41  14  42  14  43  14
M  ISO  3  44  14  45  14  46  11
M  END
>  <minimizedAffinity>  (1) 
-4.38941431

>  <minimizedRMSD>  (1) 
0.815175653

$$$$
