
     RDKit          3D

 39 42  0  0  1  0  0  0  0  0999 V2000
   38.5020   22.5640   36.2250 C   0  0  0  0  0  0  0  0  0  0  0  0
   38.1030   23.8350   35.7980 C   0  0  0  0  0  0  0  0  0  0  0  0
   39.0230   24.6690   35.2390 C   0  0  0  0  0  0  0  0  0  0  0  0
   40.3060   24.2050   35.1260 N   0  0  0  0  0  0  0  0  0  0  0  0
   40.6850   22.9940   35.5330 C   0  0  0  0  0  0  0  0  0  0  0  0
   39.7870   22.1650   36.0860 N   0  0  0  0  0  0  0  0  0  0  0  0
   38.8290   25.9640   34.7560 N   0  0  0  0  0  0  0  0  0  0  0  0
   38.9540   27.1850   35.5710 C   0  0  0  0  0  0  0  0  0  0  0  0
   37.6600   27.9270   35.5810 C   0  0  0  0  0  0  0  0  0  0  0  0
   36.8070   27.4070   34.5910 O   0  0  0  0  0  0  0  0  0  0  0  0
   37.4710   27.4100   33.3640 C   0  0  0  0  0  0  0  0  0  0  0  0
   38.5040   26.3270   33.3600 C   0  0  2  0  0  0  0  0  0  0  0  0
   38.2050   25.2090   32.4800 C   0  0  0  0  0  0  0  0  0  0  0  0
   36.9010   24.6610   32.4730 C   0  0  0  0  0  0  0  0  0  0  0  0
   36.4890   23.6310   31.6520 C   0  0  0  0  0  0  0  0  0  0  0  0
   37.4240   23.0970   30.7730 C   0  0  0  0  0  0  0  0  0  0  0  0
   38.7120   23.5920   30.7370 C   0  0  0  0  0  0  0  0  0  0  0  0
   39.0480   24.6160   31.5790 C   0  0  0  0  0  0  0  0  0  0  0  0
   40.3890   25.0730   31.4590 N   0  0  0  0  0  0  0  0  0  0  0  0
   40.7280   26.0250   30.5340 C   0  0  0  0  0  0  0  0  0  0  0  0
   42.0540   26.3020   30.6160 N   0  0  0  0  0  0  0  0  0  0  0  0
   42.5470   25.5210   31.5950 C   0  0  0  0  0  0  0  0  0  0  0  0
   41.5280   24.8030   32.0740 N   0  0  0  0  0  0  0  0  0  0  0  0
   37.7652   21.8839   36.6772 H   0  0  0  0  0  0  0  0  0  0  0  0
   37.0575   24.1572   35.9125 H   0  0  0  0  0  0  0  0  0  0  0  0
   41.7312   22.6751   35.4158 H   0  0  0  0  0  0  0  0  0  0  0  0
   39.2236   26.9092   36.6012 H   0  0  0  0  0  0  0  0  0  0  0  0
   39.7354   27.8281   35.1400 H   0  0  0  0  0  0  0  0  0  0  0  0
   37.1843   27.8189   36.5669 H   0  0  0  0  0  0  0  0  0  0  0  0
   37.8490   28.9911   35.3763 H   0  0  0  0  0  0  0  0  0  0  0  0
   36.7482   27.2318   32.5542 H   0  0  0  0  0  0  0  0  0  0  0  0
   37.9572   28.3846   33.2096 H   0  0  0  0  0  0  0  0  0  0  0  0
   39.4206   26.7214   32.8970 H   0  0  0  0  0  0  0  0  0  0  0  0
   36.1639   25.0854   33.1706 H   0  0  0  0  0  0  0  0  0  0  0  0
   35.4590   23.2469   31.6918 H   0  0  0  0  0  0  0  0  0  0  0  0
   37.1357   22.2746   30.1017 H   0  0  0  0  0  0  0  0  0  0  0  0
   39.4547   23.1705   30.0437 H   0  0  0  0  0  0  0  0  0  0  0  0
   40.0279   26.4959   29.8282 H   0  0  0  0  0  0  0  0  0  0  0  0
   43.5920   25.4816   31.9362 H   0  0  0  0  0  0  0  0  0  0  0  0
  2  1  2  0
  3  2  1  0
  4  3  2  0
  4  5  1  0
  5  6  2  0
  6  1  1  0
  7  3  1  0
  7  8  1  0
  8  9  1  0
 10  9  1  0
 11 10  1  0
 12 11  1  0
 12  7  1  0
 13 12  1  0
 14 13  2  0
 15 14  1  0
 16 15  2  0
 17 16  1  0
 17 18  2  0
 18 13  1  0
 19 18  1  0
 19 23  1  0
 20 21  2  0
 20 19  1  0
 21 22  1  0
 22 23  2  0
  1 24  1  0
  2 25  1  0
  5 26  1  0
  8 27  1  0
  8 28  1  0
  9 29  1  0
  9 30  1  0
 11 31  1  0
 11 32  1  0
 12 33  1  6
 14 34  1  0
 15 35  1  0
 16 36  1  0
 17 37  1  0
 20 38  1  0
 22 39  1  0
M  ISO  8  24  14  25  14  26  14  27  13  28  13  29  13  30  13  31  13
M  ISO  8  32  13  33  13  34  14  35  14  36  14  37  14  38  14  39  14
M  END
>  <minimizedAffinity>  (1) 
-4.37484646

>  <minimizedRMSD>  (1) 
0.647249103

$$$$
