
     RDKit          3D

 40 43  0  0  1  0  0  0  0  0999 V2000
   38.5010   22.5620   36.2310 C   0  0  0  0  0  0  0  0  0  0  0  0
   38.1040   23.8320   35.8010 C   0  0  0  0  0  0  0  0  0  0  0  0
   39.0220   24.6680   35.2430 C   0  0  0  0  0  0  0  0  0  0  0  0
   40.3110   24.2000   35.1350 N   0  0  0  0  0  0  0  0  0  0  0  0
   40.6840   22.9890   35.5460 C   0  0  0  0  0  0  0  0  0  0  0  0
   39.7870   22.1630   36.0950 N   0  0  0  0  0  0  0  0  0  0  0  0
   38.8300   25.9610   34.7570 N   0  0  0  0  0  0  0  0  0  0  0  0
   38.9470   27.1800   35.5750 C   0  0  0  0  0  0  0  0  0  0  0  0
   37.6580   27.9260   35.5680 C   0  0  0  0  0  0  0  0  0  0  0  0
   36.8060   27.3970   34.5820 O   0  0  0  0  0  0  0  0  0  0  0  0
   37.4770   27.3990   33.3580 C   0  0  0  0  0  0  0  0  0  0  0  0
   38.5150   26.3210   33.3570 C   0  0  2  0  0  0  0  0  0  0  0  0
   38.2150   25.2010   32.4810 C   0  0  0  0  0  0  0  0  0  0  0  0
   36.9090   24.6550   32.4630 C   0  0  0  0  0  0  0  0  0  0  0  0
   36.5020   23.6260   31.6440 C   0  0  0  0  0  0  0  0  0  0  0  0
   37.4410   23.0860   30.7760 C   0  0  0  0  0  0  0  0  0  0  0  0
   38.7330   23.5770   30.7480 C   0  0  0  0  0  0  0  0  0  0  0  0
   39.0600   24.6000   31.5870 C   0  0  0  0  0  0  0  0  0  0  0  0
   40.4060   25.0520   31.4780 N   0  0  0  0  0  0  0  0  0  0  0  0
   41.5480   24.7950   32.0930 N   0  0  0  0  0  0  0  0  0  0  0  0
   42.5610   25.4990   31.6230 C   0  0  0  0  0  0  0  0  0  0  0  0
   42.1120   26.3120   30.6030 C   0  0  0  0  0  0  0  0  0  0  0  0
   40.7750   25.9970   30.5540 C   0  0  0  0  0  0  0  0  0  0  0  0
   37.7631   21.8828   36.6828 H   0  0  0  0  0  0  0  0  0  0  0  0
   37.0578   24.1530   35.9128 H   0  0  0  0  0  0  0  0  0  0  0  0
   41.7302   22.6684   35.4337 H   0  0  0  0  0  0  0  0  0  0  0  0
   39.2009   26.9018   36.6085 H   0  0  0  0  0  0  0  0  0  0  0  0
   39.7365   27.8209   35.1556 H   0  0  0  0  0  0  0  0  0  0  0  0
   37.1776   27.8339   36.5532 H   0  0  0  0  0  0  0  0  0  0  0  0
   37.8533   28.9860   35.3481 H   0  0  0  0  0  0  0  0  0  0  0  0
   36.7583   27.2169   32.5454 H   0  0  0  0  0  0  0  0  0  0  0  0
   37.9614   28.3749   33.2068 H   0  0  0  0  0  0  0  0  0  0  0  0
   39.4337   26.7137   32.8969 H   0  0  0  0  0  0  0  0  0  0  0  0
   36.1666   25.0834   33.1524 H   0  0  0  0  0  0  0  0  0  0  0  0
   35.4704   23.2456   31.6763 H   0  0  0  0  0  0  0  0  0  0  0  0
   37.1552   22.2618   30.1059 H   0  0  0  0  0  0  0  0  0  0  0  0
   39.4811   23.1511   30.0632 H   0  0  0  0  0  0  0  0  0  0  0  0
   43.5978   25.4458   31.9867 H   0  0  0  0  0  0  0  0  0  0  0  0
   42.6777   27.0274   29.9879 H   0  0  0  0  0  0  0  0  0  0  0  0
   40.0709   26.4566   29.8448 H   0  0  0  0  0  0  0  0  0  0  0  0
  2  1  2  0
  3  2  1  0
  4  3  2  0
  4  5  1  0
  5  6  2  0
  6  1  1  0
  7  3  1  0
  7  8  1  0
  9  8  1  0
 10  9  1  0
 11 10  1  0
 12 11  1  0
 12  7  1  0
 13 12  1  0
 14 13  2  0
 15 14  1  0
 16 15  2  0
 17 16  1  0
 17 18  2  0
 18 13  1  0
 19 18  1  0
 19 20  1  0
 21 20  2  0
 22 21  1  0
 23 22  2  0
 23 19  1  0
  1 24  1  0
  2 25  1  0
  5 26  1  0
  8 27  1  0
  8 28  1  0
  9 29  1  0
  9 30  1  0
 11 31  1  0
 11 32  1  0
 12 33  1  6
 14 34  1  0
 15 35  1  0
 16 36  1  0
 17 37  1  0
 21 38  1  0
 22 39  1  0
 23 40  1  0
M  ISO  8  24  14  25  14  26  14  27  13  28  13  29  13  30  13  31  13
M  ISO  8  32  13  33  13  34  14  35  14  36  14  37  14  38  14  39  14
M  ISO  1  40  14
M  END
>  <minimizedAffinity>  (1) 
-4.37223387

>  <minimizedRMSD>  (1) 
0.560715258

$$$$
