
     RDKit          3D

 40 43  0  0  1  0  0  0  0  0999 V2000
   38.4810   22.5500   36.2500 C   0  0  0  0  0  0  0  0  0  0  0  0
   38.0880   23.8230   35.8230 C   0  0  0  0  0  0  0  0  0  0  0  0
   38.9960   24.6380   35.2220 C   0  0  0  0  0  0  0  0  0  0  0  0
   40.2550   24.1400   35.0800 N   0  0  0  0  0  0  0  0  0  0  0  0
   40.6360   22.9320   35.4840 C   0  0  0  0  0  0  0  0  0  0  0  0
   39.7460   22.1290   36.0730 N   0  0  0  0  0  0  0  0  0  0  0  0
   38.8090   25.9300   34.7290 N   0  0  0  0  0  0  0  0  0  0  0  0
   38.9740   27.1540   35.5290 C   0  0  0  0  0  0  0  0  0  0  0  0
   37.6910   27.9160   35.5690 C   0  0  0  0  0  0  0  0  0  0  0  0
   36.8110   27.4100   34.5990 O   0  0  0  0  0  0  0  0  0  0  0  0
   37.4430   27.3840   33.3550 C   0  0  0  0  0  0  0  0  0  0  0  0
   38.4530   26.2770   33.3360 C   0  0  2  0  0  0  0  0  0  0  0  0
   38.0940   25.1570   32.4840 C   0  0  0  0  0  0  0  0  0  0  0  0
   36.7740   24.6430   32.5090 C   0  0  0  0  0  0  0  0  0  0  0  0
   36.3090   23.6130   31.7220 C   0  0  0  0  0  0  0  0  0  0  0  0
   37.2130   23.0360   30.8370 C   0  0  0  0  0  0  0  0  0  0  0  0
   38.5200   23.4920   30.7620 C   0  0  0  0  0  0  0  0  0  0  0  0
   38.8940   24.5200   31.5780 C   0  0  0  0  0  0  0  0  0  0  0  0
   40.2420   24.9080   31.3550 N   0  0  0  0  0  0  0  0  0  0  0  0
   41.4460   24.6220   31.8780 C   0  0  0  0  0  0  0  0  0  0  0  0
   42.4640   25.2920   31.2400 C   0  0  0  0  0  0  0  0  0  0  0  0
   41.8650   26.0310   30.2770 N   0  0  0  0  0  0  0  0  0  0  0  0
   40.5420   25.7920   30.3550 C   0  0  0  0  0  0  0  0  0  0  0  0
   37.7488   21.8875   36.7348 H   0  0  0  0  0  0  0  0  0  0  0  0
   37.0523   24.1623   35.9722 H   0  0  0  0  0  0  0  0  0  0  0  0
   41.6732   22.5975   35.3347 H   0  0  0  0  0  0  0  0  0  0  0  0
   39.2682   26.8824   36.5535 H   0  0  0  0  0  0  0  0  0  0  0  0
   39.7522   27.7820   35.0708 H   0  0  0  0  0  0  0  0  0  0  0  0
   37.2356   27.8137   36.5651 H   0  0  0  0  0  0  0  0  0  0  0  0
   37.8907   28.9777   35.3621 H   0  0  0  0  0  0  0  0  0  0  0  0
   36.6954   27.2129   32.5665 H   0  0  0  0  0  0  0  0  0  0  0  0
   37.9467   28.3456   33.1772 H   0  0  0  0  0  0  0  0  0  0  0  0
   39.3677   26.6361   32.8415 H   0  0  0  0  0  0  0  0  0  0  0  0
   36.0645   25.1030   33.2126 H   0  0  0  0  0  0  0  0  0  0  0  0
   35.2686   23.2623   31.7905 H   0  0  0  0  0  0  0  0  0  0  0  0
   36.8875   22.2086   30.1893 H   0  0  0  0  0  0  0  0  0  0  0  0
   39.2371   23.0370   30.0629 H   0  0  0  0  0  0  0  0  0  0  0  0
   41.6001   23.9311   32.7200 H   0  0  0  0  0  0  0  0  0  0  0  0
   43.5394   25.2385   31.4652 H   0  0  0  0  0  0  0  0  0  0  0  0
   39.7927   26.2522   29.6941 H   0  0  0  0  0  0  0  0  0  0  0  0
  2  1  2  0
  3  2  1  0
  4  3  2  0
  4  5  1  0
  5  6  2  0
  6  1  1  0
  7  3  1  0
  7  8  1  0
  8  9  1  0
 10  9  1  0
 11 10  1  0
 12 11  1  0
 12  7  1  0
 13 14  2  0
 13 12  1  0
 15 14  1  0
 16 15  2  0
 17 16  1  0
 17 18  2  0
 18 13  1  0
 19 18  1  0
 19 20  1  0
 21 20  2  0
 22 23  2  0
 22 21  1  0
 23 19  1  0
  1 24  1  0
  2 25  1  0
  5 26  1  0
  8 27  1  0
  8 28  1  0
  9 29  1  0
  9 30  1  0
 11 31  1  0
 11 32  1  0
 12 33  1  6
 14 34  1  0
 15 35  1  0
 16 36  1  0
 17 37  1  0
 20 38  1  0
 21 39  1  0
 23 40  1  0
M  ISO  8  24  14  25  14  26  14  27  13  28  13  29  13  30  13  31  13
M  ISO  8  32  13  33  13  34  14  35  14  36  14  37  14  38  14  39  14
M  ISO  1  40  14
M  END
>  <minimizedAffinity>  (1) 
-4.36926985

>  <minimizedRMSD>  (1) 
0.499740183

$$$$
