
     RDKit          3D

 40 43  0  0  1  0  0  0  0  0999 V2000
   38.4540   22.5930   36.4560 C   0  0  0  0  0  0  0  0  0  0  0  0
   38.0760   23.8460   35.9630 C   0  0  0  0  0  0  0  0  0  0  0  0
   39.0010   24.6400   35.3610 C   0  0  0  0  0  0  0  0  0  0  0  0
   40.2690   24.1470   35.2800 N   0  0  0  0  0  0  0  0  0  0  0  0
   40.6390   22.9560   35.7460 C   0  0  0  0  0  0  0  0  0  0  0  0
   39.7290   22.1730   36.3370 N   0  0  0  0  0  0  0  0  0  0  0  0
   38.8220   25.9080   34.8100 N   0  0  0  0  0  0  0  0  0  0  0  0
   38.9570   27.1670   35.5620 C   0  0  0  0  0  0  0  0  0  0  0  0
   37.6690   27.9210   35.5250 C   0  0  0  0  0  0  0  0  0  0  0  0
   36.8210   27.3660   34.5560 O   0  0  0  0  0  0  0  0  0  0  0  0
   37.4870   27.2950   33.3330 C   0  0  0  0  0  0  0  0  0  0  0  0
   38.5090   26.1980   33.3890 C   0  0  2  0  0  0  0  0  0  0  0  0
   38.1940   25.0470   32.5720 C   0  0  0  0  0  0  0  0  0  0  0  0
   36.8470   24.6220   32.4390 C   0  0  0  0  0  0  0  0  0  0  0  0
   36.4140   23.5640   31.6680 C   0  0  0  0  0  0  0  0  0  0  0  0
   37.3860   22.8580   30.9660 C   0  0  0  0  0  0  0  0  0  0  0  0
   38.7200   23.2170   31.0490 C   0  0  0  0  0  0  0  0  0  0  0  0
   39.0670   24.2880   31.8400 C   0  0  0  0  0  0  0  0  0  0  0  0
   40.5230   24.5730   31.7350 C   0  0  0  0  0  0  0  0  0  0  0  0
   41.2740   24.1470   30.5230 C   0  0  0  0  0  0  0  0  0  0  0  0
   40.8420   25.5660   30.6040 C   0  0  0  0  0  0  0  0  0  0  0  0
   37.7078   21.9478   36.9427 H   0  0  0  0  0  0  0  0  0  0  0  0
   37.0351   24.1876   36.0619 H   0  0  0  0  0  0  0  0  0  0  0  0
   41.6814   22.6193   35.6463 H   0  0  0  0  0  0  0  0  0  0  0  0
   39.2180   26.9418   36.6066 H   0  0  0  0  0  0  0  0  0  0  0  0
   39.7484   27.7791   35.1048 H   0  0  0  0  0  0  0  0  0  0  0  0
   37.1839   27.8637   36.5106 H   0  0  0  0  0  0  0  0  0  0  0  0
   37.8709   28.9722   35.2716 H   0  0  0  0  0  0  0  0  0  0  0  0
   37.9873   28.2535   33.1306 H   0  0  0  0  0  0  0  0  0  0  0  0
   36.7641   27.0851   32.5309 H   0  0  0  0  0  0  0  0  0  0  0  0
   39.4354   26.5483   32.9103 H   0  0  0  0  0  0  0  0  0  0  0  0
   36.0840   25.1836   32.9979 H   0  0  0  0  0  0  0  0  0  0  0  0
   35.3500   23.2909   31.6106 H   0  0  0  0  0  0  0  0  0  0  0  0
   37.0907   22.0047   30.3378 H   0  0  0  0  0  0  0  0  0  0  0  0
   39.4873   22.6575   30.4939 H   0  0  0  0  0  0  0  0  0  0  0  0
   40.7172   24.4511   32.8108 H   0  0  0  0  0  0  0  0  0  0  0  0
   40.7959   23.4740   29.7960 H   0  0  0  0  0  0  0  0  0  0  0  0
   42.2423   23.6514   30.3592 H   0  0  0  0  0  0  0  0  0  0  0  0
   41.5848   26.3621   30.7603 H   0  0  0  0  0  0  0  0  0  0  0  0
   40.2550   26.2444   29.9675 H   0  0  0  0  0  0  0  0  0  0  0  0
  2  1  2  0
  3  2  1  0
  4  3  2  0
  4  5  1  0
  5  6  2  0
  6  1  1  0
  7  3  1  0
  7  8  1  0
  9  8  1  0
 10  9  1  0
 11 12  1  0
 11 10  1  0
 12  7  1  0
 13 12  1  0
 14 13  2  0
 15 14  1  0
 16 17  1  0
 16 15  2  0
 17 18  2  0
 18 13  1  0
 19 18  1  0
 20 21  1  0
 20 19  1  0
 21 19  1  0
  1 22  1  0
  2 23  1  0
  5 24  1  0
  8 25  1  0
  8 26  1  0
  9 27  1  0
  9 28  1  0
 11 29  1  0
 11 30  1  0
 12 31  1  6
 14 32  1  0
 15 33  1  0
 16 34  1  0
 17 35  1  0
 19 36  1  0
 20 37  1  0
 20 38  1  0
 21 39  1  0
 21 40  1  0
M  ISO  8  22  14  23  14  24  14  25  13  26  13  27  13  28  13  29  13
M  ISO  8  30  13  31  13  32  14  33  14  34  14  35  14  36  13  37  13
M  ISO  3  38  13  39  13  40  13
M  END
>  <minimizedAffinity>  (1) 
-4.23417807

>  <minimizedRMSD>  (1) 
0.605062187

$$$$
