
     RDKit          3D

 36 38  0  0  1  0  0  0  0  0999 V2000
   38.4950   22.5630   36.2420 C   0  0  0  0  0  0  0  0  0  0  0  0
   38.0930   23.8360   35.8200 C   0  0  0  0  0  0  0  0  0  0  0  0
   38.9940   24.6510   35.2080 C   0  0  0  0  0  0  0  0  0  0  0  0
   40.2620   24.1630   35.0430 N   0  0  0  0  0  0  0  0  0  0  0  0
   40.6460   22.9530   35.4420 C   0  0  0  0  0  0  0  0  0  0  0  0
   39.7660   22.1460   36.0450 N   0  0  0  0  0  0  0  0  0  0  0  0
   38.7960   25.9430   34.7170 N   0  0  0  0  0  0  0  0  0  0  0  0
   38.9680   27.1690   35.5150 C   0  0  0  0  0  0  0  0  0  0  0  0
   37.6820   27.9260   35.5750 C   0  0  0  0  0  0  0  0  0  0  0  0
   36.7870   27.4150   34.6200 O   0  0  0  0  0  0  0  0  0  0  0  0
   37.4000   27.3960   33.3660 C   0  0  0  0  0  0  0  0  0  0  0  0
   38.4160   26.2930   33.3320 C   0  0  2  0  0  0  0  0  0  0  0  0
   38.0570   25.1700   32.4830 C   0  0  0  0  0  0  0  0  0  0  0  0
   36.7340   24.6770   32.4930 C   0  0  0  0  0  0  0  0  0  0  0  0
   36.2690   23.6470   31.7040 C   0  0  0  0  0  0  0  0  0  0  0  0
   37.1750   23.0530   30.8380 C   0  0  0  0  0  0  0  0  0  0  0  0
   38.4640   23.4820   30.7810 C   0  0  0  0  0  0  0  0  0  0  0  0
   38.8470   24.5100   31.5930 C   0  0  0  0  0  0  0  0  0  0  0  0
   40.2420   24.9140   31.4310 C   0  0  0  0  0  0  0  0  0  0  0  0
   41.3390   24.5500   31.9010 O   0  0  0  0  0  0  0  0  0  0  0  0
   40.6860   25.9250   30.6050 O   0  0  0  0  0  0  0  0  0  0  0  0
   37.7722   21.8978   36.7370 H   0  0  0  0  0  0  0  0  0  0  0  0
   37.0587   24.1738   35.9817 H   0  0  0  0  0  0  0  0  0  0  0  0
   41.6808   22.6184   35.2770 H   0  0  0  0  0  0  0  0  0  0  0  0
   39.2792   26.8988   36.5349 H   0  0  0  0  0  0  0  0  0  0  0  0
   39.7362   27.8003   35.0446 H   0  0  0  0  0  0  0  0  0  0  0  0
   37.2437   27.8234   36.5787 H   0  0  0  0  0  0  0  0  0  0  0  0
   37.8741   28.9881   35.3628 H   0  0  0  0  0  0  0  0  0  0  0  0
   36.6418   27.2223   32.5882 H   0  0  0  0  0  0  0  0  0  0  0  0
   37.8948   28.3609   33.1811 H   0  0  0  0  0  0  0  0  0  0  0  0
   39.3186   26.6641   32.8245 H   0  0  0  0  0  0  0  0  0  0  0  0
   36.0202   25.1509   33.1829 H   0  0  0  0  0  0  0  0  0  0  0  0
   35.2233   23.3102   31.7588 H   0  0  0  0  0  0  0  0  0  0  0  0
   36.8474   22.2263   30.1906 H   0  0  0  0  0  0  0  0  0  0  0  0
   39.1830   23.0105   30.0949 H   0  0  0  0  0  0  0  0  0  0  0  0
   41.6523   26.1345   30.5545 H   0  0  0  0  0  0  0  0  0  0  0  0
  2  1  2  0
  3  2  1  0
  4  3  2  0
  4  5  1  0
  5  6  2  0
  6  1  1  0
  7  3  1  0
  7  8  1  0
  8  9  1  0
 10  9  1  0
 11 10  1  0
 12 11  1  0
 12  7  1  0
 13 14  2  0
 13 12  1  0
 15 14  1  0
 16 15  2  0
 17 16  1  0
 17 18  2  0
 18 13  1  0
 19 18  1  0
 19 20  2  0
 21 19  1  0
  1 22  1  0
  2 23  1  0
  5 24  1  0
  8 25  1  0
  8 26  1  0
  9 27  1  0
  9 28  1  0
 11 29  1  0
 11 30  1  0
 12 31  1  6
 14 32  1  0
 15 33  1  0
 16 34  1  0
 17 35  1  0
 21 36  1  0
M  ISO  8  22  14  23  14  24  14  25  13  26  13  27  13  28  13  29  13
M  ISO  7  30  13  31  13  32  14  33  14  34  14  35  14  36   3
M  END
>  <minimizedAffinity>  (1) 
-4.21452188

>  <minimizedRMSD>  (1) 
0.563051581

$$$$
