
     RDKit          3D

 35 37  0  0  1  0  0  0  0  0999 V2000
   38.4800   22.5730   36.3440 C   0  0  0  0  0  0  0  0  0  0  0  0
   38.0970   23.8310   35.8740 C   0  0  0  0  0  0  0  0  0  0  0  0
   39.0300   24.6550   35.3190 C   0  0  0  0  0  0  0  0  0  0  0  0
   40.3250   24.1910   35.2510 N   0  0  0  0  0  0  0  0  0  0  0  0
   40.6920   22.9910   35.7000 C   0  0  0  0  0  0  0  0  0  0  0  0
   39.7700   22.1740   36.2500 N   0  0  0  0  0  0  0  0  0  0  0  0
   38.8500   25.9370   34.7980 N   0  0  0  0  0  0  0  0  0  0  0  0
   38.9470   27.1710   35.5930 C   0  0  0  0  0  0  0  0  0  0  0  0
   37.6610   27.9220   35.5370 C   0  0  0  0  0  0  0  0  0  0  0  0
   36.8330   27.3760   34.5390 O   0  0  0  0  0  0  0  0  0  0  0  0
   37.5400   27.3520   33.3330 C   0  0  0  0  0  0  0  0  0  0  0  0
   38.5700   26.2670   33.3870 C   0  0  2  0  0  0  0  0  0  0  0  0
   38.2890   25.1260   32.5290 C   0  0  0  0  0  0  0  0  0  0  0  0
   36.9620   24.6570   32.3980 C   0  0  0  0  0  0  0  0  0  0  0  0
   36.5910   23.6130   31.5750 C   0  0  0  0  0  0  0  0  0  0  0  0
   37.5670   22.9880   30.8380 C   0  0  0  0  0  0  0  0  0  0  0  0
   38.8650   23.3910   30.9180 C   0  0  0  0  0  0  0  0  0  0  0  0
   39.1510   24.4250   31.7470 C   0  0  0  0  0  0  0  0  0  0  0  0
   40.5460   24.8070   31.7450 C   0  0  0  0  0  0  0  0  0  0  0  0
   41.3520   25.5720   31.1930 O   0  0  0  0  0  0  0  0  0  0  0  0
   37.7307   21.9040   36.7922 H   0  0  0  0  0  0  0  0  0  0  0  0
   37.0486   24.1549   35.9513 H   0  0  0  0  0  0  0  0  0  0  0  0
   41.7408   22.6685   35.6226 H   0  0  0  0  0  0  0  0  0  0  0  0
   39.1718   26.9129   36.6384 H   0  0  0  0  0  0  0  0  0  0  0  0
   39.7488   27.8013   35.1809 H   0  0  0  0  0  0  0  0  0  0  0  0
   37.1543   27.8515   36.5108 H   0  0  0  0  0  0  0  0  0  0  0  0
   37.8664   28.9767   35.3015 H   0  0  0  0  0  0  0  0  0  0  0  0
   38.0352   28.3218   33.1776 H   0  0  0  0  0  0  0  0  0  0  0  0
   36.8456   27.1609   32.5016 H   0  0  0  0  0  0  0  0  0  0  0  0
   39.5011   26.6481   32.9423 H   0  0  0  0  0  0  0  0  0  0  0  0
   36.1776   25.1541   32.9876 H   0  0  0  0  0  0  0  0  0  0  0  0
   35.5414   23.2901   31.5110 H   0  0  0  0  0  0  0  0  0  0  0  0
   37.2969   22.1524   30.1756 H   0  0  0  0  0  0  0  0  0  0  0  0
   39.6529   22.8958   30.3315 H   0  0  0  0  0  0  0  0  0  0  0  0
   41.0805   24.2089   32.4977 H   0  0  0  0  0  0  0  0  0  0  0  0
  2  1  2  0
  3  2  1  0
  4  3  2  0
  4  5  1  0
  5  6  2  0
  6  1  1  0
  7  3  1  0
  7  8  1  0
  9  8  1  0
 10  9  1  0
 11 12  1  0
 11 10  1  0
 12  7  1  0
 13 12  1  0
 14 13  2  0
 15 14  1  0
 16 17  1  0
 16 15  2  0
 17 18  2  0
 18 13  1  0
 19 18  1  0
 20 19  2  0
  1 21  1  0
  2 22  1  0
  5 23  1  0
  8 24  1  0
  8 25  1  0
  9 26  1  0
  9 27  1  0
 11 28  1  0
 11 29  1  0
 12 30  1  6
 14 31  1  0
 15 32  1  0
 16 33  1  0
 17 34  1  0
 19 35  1  0
M  ISO  8  21  14  22  14  23  14  24  13  25  13  26  13  27  13  28  13
M  ISO  7  29  13  30  13  31  14  32  14  33  14  34  14  35   6
M  END
>  <minimizedAffinity>  (1) 
-4.14203691

>  <minimizedRMSD>  (1) 
0.426665515

$$$$
