
     RDKit          3D

 29 30  0  0  0  0  0  0  0  0999 V2000
   41.0010   22.1610   37.5720 C   0  0  0  0  0  0  0  0  0  0  0  0
   39.7700   22.8290   37.6500 C   0  0  0  0  0  0  0  0  0  0  0  0
   39.0530   23.0950   36.4800 C   0  0  0  0  0  0  0  0  0  0  0  0
   39.6210   22.6730   35.3190 N   0  0  0  0  0  0  0  0  0  0  0  0
   40.8000   22.0350   35.2570 C   0  0  0  0  0  0  0  0  0  0  0  0
   41.4810   21.7860   36.3910 N   0  0  0  0  0  0  0  0  0  0  0  0
   37.7440   23.8000   36.5180 C   0  0  0  0  0  0  0  0  0  0  0  0
   37.7700   25.1090   35.8010 C   0  0  0  0  0  0  0  0  0  0  0  0
   38.9020   26.0130   36.1520 C   0  0  0  0  0  0  0  0  0  0  0  0
   38.4700   27.3920   35.6510 C   0  0  0  0  0  0  0  0  0  0  0  0
   38.3960   27.2920   34.1380 C   0  0  0  0  0  0  0  0  0  0  0  0
   37.3670   26.2720   33.7340 C   0  0  0  0  0  0  0  0  0  0  0  0
   37.7730   24.9040   34.2960 C   0  0  0  0  0  0  0  0  0  0  0  0
   41.5694   21.9474   38.4892 H   0  0  0  0  0  0  0  0  0  0  0  0
   39.3712   23.1417   38.6263 H   0  0  0  0  0  0  0  0  0  0  0  0
   41.2072   21.7176   34.2857 H   0  0  0  0  0  0  0  0  0  0  0  0
   36.9850   23.1572   36.0482 H   0  0  0  0  0  0  0  0  0  0  0  0
   37.5093   24.0052   37.5729 H   0  0  0  0  0  0  0  0  0  0  0  0
   36.8513   25.6096   36.1406 H   0  0  0  0  0  0  0  0  0  0  0  0
   39.0624   26.0287   37.2401 H   0  0  0  0  0  0  0  0  0  0  0  0
   39.8503   25.6855   35.7010 H   0  0  0  0  0  0  0  0  0  0  0  0
   37.4851   27.6558   36.0638 H   0  0  0  0  0  0  0  0  0  0  0  0
   39.1791   28.1718   35.9658 H   0  0  0  0  0  0  0  0  0  0  0  0
   38.1188   28.2720   33.7223 H   0  0  0  0  0  0  0  0  0  0  0  0
   39.3782   26.9836   33.7504 H   0  0  0  0  0  0  0  0  0  0  0  0
   36.3847   26.5595   34.1369 H   0  0  0  0  0  0  0  0  0  0  0  0
   37.3059   26.2200   32.6369 H   0  0  0  0  0  0  0  0  0  0  0  0
   37.0466   24.1307   34.0053 H   0  0  0  0  0  0  0  0  0  0  0  0
   38.7479   24.5633   33.9172 H   0  0  0  0  0  0  0  0  0  0  0  0
  1  2  2  0
  3  7  1  0
  3  2  1  0
  4  3  2  0
  5  4  1  0
  5  6  2  0
  6  1  1  0
  8  9  1  0
  8  7  1  0
 10  9  1  0
 11 10  1  0
 12 11  1  0
 12 13  1  0
 13  8  1  0
  1 14  1  0
  2 15  1  0
  5 16  1  0
  7 17  1  0
  7 18  1  0
  8 19  1  0
  9 20  1  0
  9 21  1  0
 10 22  1  0
 10 23  1  0
 11 24  1  0
 11 25  1  0
 12 26  1  0
 12 27  1  0
 13 28  1  0
 13 29  1  0
M  ISO  8  14  14  15  14  16  14  17   8  18   8  19  13  20  13  21  13
M  ISO  8  22  13  23  13  24  13  25  13  26  13  27  13  28  13  29  13
M  END
>  <minimizedAffinity>  (1) 
-3.57005143

>  <minimizedRMSD>  (1) 
2.59624958

$$$$
