
     RDKit          3D

 20 21  0  0  0  0  0  0  0  0999 V2000
   40.6740   22.1880   37.6480 C   0  0  0  0  0  0  0  0  0  0  0  0
   39.5350   22.9940   37.7780 C   0  0  0  0  0  0  0  0  0  0  0  0
   38.8460   23.3720   36.6050 C   0  0  0  0  0  0  0  0  0  0  0  0
   39.3380   22.9230   35.4210 N   0  0  0  0  0  0  0  0  0  0  0  0
   40.4280   22.1550   35.3280 C   0  0  0  0  0  0  0  0  0  0  0  0
   41.0890   21.7910   36.4440 N   0  0  0  0  0  0  0  0  0  0  0  0
   37.6170   24.2370   36.6990 C   0  0  0  0  0  0  0  0  0  0  0  0
   37.7770   25.4570   35.9470 N   0  0  0  0  0  0  0  0  0  0  0  0
   38.4020   26.5250   36.5180 C   0  0  0  0  0  0  0  0  0  0  0  0
   38.4160   27.5500   35.5810 C   0  0  0  0  0  0  0  0  0  0  0  0
   37.8060   27.1010   34.4550 N   0  0  0  0  0  0  0  0  0  0  0  0
   37.4340   25.8470   34.7050 C   0  0  0  0  0  0  0  0  0  0  0  0
   41.2302   21.8803   38.5458 H   0  0  0  0  0  0  0  0  0  0  0  0
   39.1868   23.3236   38.7680 H   0  0  0  0  0  0  0  0  0  0  0  0
   40.7845   21.8209   34.3425 H   0  0  0  0  0  0  0  0  0  0  0  0
   36.7558   23.6807   36.3006 H   0  0  0  0  0  0  0  0  0  0  0  0
   37.4560   24.4985   37.7553 H   0  0  0  0  0  0  0  0  0  0  0  0
   38.8191   26.5674   37.5350 H   0  0  0  0  0  0  0  0  0  0  0  0
   38.8467   28.5517   35.7263 H   0  0  0  0  0  0  0  0  0  0  0  0
   36.9086   25.2056   33.9821 H   0  0  0  0  0  0  0  0  0  0  0  0
  1  2  2  0
  3  7  1  0
  3  2  1  0
  4  3  2  0
  5  4  1  0
  5  6  2  0
  6  1  1  0
  8  9  1  0
  8  7  1  0
 10  9  2  0
 11 12  2  0
 11 10  1  0
 12  8  1  0
  1 13  1  0
  2 14  1  0
  5 15  1  0
  7 16  1  0
  7 17  1  0
  9 18  1  0
 10 19  1  0
 12 20  1  0
M  ISO  8  13  14  14  14  15  14  16   8  17   8  18  14  19  14  20  14
M  END
>  <minimizedAffinity>  (1) 
-3.23616791

>  <minimizedRMSD>  (1) 
2.17281938

$$$$
