
     RDKit          3D

 21 22  0  0  0  0  0  0  0  0999 V2000
   38.2290   26.8480   35.8180 C   0  0  0  0  0  0  0  0  0  0  0  0
   37.9820   23.0870   36.2580 C   0  0  0  0  0  0  0  0  0  0  0  0
   38.0760   24.3460   35.6240 C   0  0  0  0  0  0  0  0  0  0  0  0
   38.1290   25.4930   36.4310 C   0  0  0  0  0  0  0  0  0  0  0  0
   38.0870   25.3190   37.7990 N   0  0  0  0  0  0  0  0  0  0  0  0
   37.9970   24.1000   38.3450 C   0  0  0  0  0  0  0  0  0  0  0  0
   37.9450   23.0030   37.5870 N   0  0  0  0  0  0  0  0  0  0  0  0
   39.1780   26.9230   34.6940 C   0  0  0  0  0  0  0  0  0  0  0  0
   38.8190   27.0650   33.3840 C   0  0  0  0  0  0  0  0  0  0  0  0
   39.7220   27.1360   32.3390 C   0  0  0  0  0  0  0  0  0  0  0  0
   41.0270   27.0570   32.6550 N   0  0  0  0  0  0  0  0  0  0  0  0
   41.4220   26.9170   33.9360 C   0  0  0  0  0  0  0  0  0  0  0  0
   40.5210   26.8540   34.9210 N   0  0  0  0  0  0  0  0  0  0  0  0
   37.2331   27.1371   35.4510 H   0  0  0  0  0  0  0  0  0  0  0  0
   38.6029   27.5264   36.5990 H   0  0  0  0  0  0  0  0  0  0  0  0
   37.9391   22.1708   35.6508 H   0  0  0  0  0  0  0  0  0  0  0  0
   38.1068   24.4252   34.5273 H   0  0  0  0  0  0  0  0  0  0  0  0
   37.9653   24.0007   39.4401 H   0  0  0  0  0  0  0  0  0  0  0  0
   37.7469   27.1266   33.1457 H   0  0  0  0  0  0  0  0  0  0  0  0
   39.3883   27.2518   31.2972 H   0  0  0  0  0  0  0  0  0  0  0  0
   42.4944   26.8541   34.1726 H   0  0  0  0  0  0  0  0  0  0  0  0
  1  4  1  0
  2  7  2  0
  3  2  1  0
  3  4  2  0
  4  5  1  0
  5  6  2  0
  7  6  1  0
  8 13  1  0
  8  1  1  0
  9  8  2  0
 10 11  2  0
 10  9  1  0
 11 12  1  0
 12 13  2  0
  1 14  1  0
  1 15  1  0
  2 16  1  0
  3 17  1  0
  6 18  1  0
  9 19  1  0
 10 20  1  0
 12 21  1  0
M  ISO  8  14   8  15   8  16  14  17  14  18  14  19  14  20  14  21  14
M  END
>  <minimizedAffinity>  (1) 
-3.47167921

>  <minimizedRMSD>  (1) 
6.61450243

$$$$
