
     RDKit          3D

 35 38  0  0  0  0  0  0  0  0999 V2000
   38.2780   25.4410   33.5280 C   0  0  0  0  0  0  0  0  0  0  0  0
   37.3510   26.3730   33.2230 C   0  0  0  0  0  0  0  0  0  0  0  0
   36.4170   26.2220   32.2300 C   0  0  0  0  0  0  0  0  0  0  0  0
   36.4360   25.0860   31.5380 N   0  0  0  0  0  0  0  0  0  0  0  0
   37.3240   24.1150   31.7830 C   0  0  0  0  0  0  0  0  0  0  0  0
   38.1910   24.3420   32.7580 N   0  0  0  0  0  0  0  0  0  0  0  0
   37.5490   22.7800   31.1720 C   0  0  0  0  0  0  0  0  0  0  0  0
   38.5700   22.4890   30.3680 N   0  0  0  0  0  0  0  0  0  0  0  0
   38.7580   21.2850   29.8280 C   0  0  0  0  0  0  0  0  0  0  0  0
   37.9260   20.2530   30.0520 N   0  0  0  0  0  0  0  0  0  0  0  0
   36.8470   20.4550   30.8650 C   0  0  0  0  0  0  0  0  0  0  0  0
   35.9950   19.3990   31.0950 C   0  0  0  0  0  0  0  0  0  0  0  0
   34.9000   19.5780   31.9130 C   0  0  0  0  0  0  0  0  0  0  0  0
   34.7030   20.8370   32.4780 C   0  0  0  0  0  0  0  0  0  0  0  0
   35.6010   21.8420   32.1980 C   0  0  0  0  0  0  0  0  0  0  0  0
   36.7060   21.7160   31.3910 C   0  0  0  0  0  0  0  0  0  0  0  0
   39.3060   25.5640   34.5800 C   0  0  0  0  0  0  0  0  0  0  0  0
   37.8460   24.1510   37.7710 C   0  0  0  0  0  0  0  0  0  0  0  0
   38.0260   25.0040   36.6460 C   0  0  0  0  0  0  0  0  0  0  0  0
   39.0770   24.7050   35.7640 C   0  0  0  0  0  0  0  0  0  0  0  0
   39.8720   23.6130   36.0280 N   0  0  0  0  0  0  0  0  0  0  0  0
   39.6550   22.8410   37.1080 C   0  0  0  0  0  0  0  0  0  0  0  0
   38.6620   23.1070   37.9610 N   0  0  0  0  0  0  0  0  0  0  0  0
   37.3440   27.3071   33.8039 H   0  0  0  0  0  0  0  0  0  0  0  0
   35.6805   27.0100   32.0141 H   0  0  0  0  0  0  0  0  0  0  0  0
   39.6282   21.1296   29.1733 H   0  0  0  0  0  0  0  0  0  0  0  0
   36.1861   18.4206   30.6301 H   0  0  0  0  0  0  0  0  0  0  0  0
   34.2022   18.7517   32.1140 H   0  0  0  0  0  0  0  0  0  0  0  0
   33.8429   21.0246   33.1376 H   0  0  0  0  0  0  0  0  0  0  0  0
   35.4194   22.8250   32.6572 H   0  0  0  0  0  0  0  0  0  0  0  0
   40.2790   25.2949   34.1431 H   0  0  0  0  0  0  0  0  0  0  0  0
   39.2678   26.6043   34.9354 H   0  0  0  0  0  0  0  0  0  0  0  0
   37.0343   24.3501   38.4862 H   0  0  0  0  0  0  0  0  0  0  0  0
   37.3655   25.8666   36.4736 H   0  0  0  0  0  0  0  0  0  0  0  0
   40.3073   21.9746   37.2922 H   0  0  0  0  0  0  0  0  0  0  0  0
  1 17  1  0
  2  1  2  0
  3  2  1  0
  4  5  1  0
  4  3  2  0
  5  6  2  0
  6  1  1  0
  7 16  1  0
  7  5  1  0
  8  7  2  0
  9 10  2  0
  9  8  1  0
 10 11  1  0
 11 12  1  0
 11 16  2  0
 12 13  2  0
 13 14  1  0
 15 14  2  0
 16 15  1  0
 17 20  1  0
 18 23  2  0
 19 18  1  0
 20 21  1  0
 20 19  2  0
 21 22  2  0
 22 23  1  0
  2 24  1  0
  3 25  1  0
  9 26  1  0
 12 27  1  0
 13 28  1  0
 14 29  1  0
 15 30  1  0
 17 31  1  0
 17 32  1  0
 18 33  1  0
 19 34  1  0
 22 35  1  0
M  ISO  8  24  14  25  14  26  14  27  14  28  14  29  14  30  14  31   8
M  ISO  4  32   8  33  14  34  14  35  14
M  END
>  <minimizedAffinity>  (1) 
-5.55688095

>  <minimizedRMSD>  (1) 
6.86962891

$$$$
