
     RDKit          3D

 31 33  0  0  0  0  0  0  0  0999 V2000
   38.1110   25.0260   33.4870 C   0  0  0  0  0  0  0  0  0  0  0  0
   37.4120   26.0550   32.9020 C   0  0  0  0  0  0  0  0  0  0  0  0
   36.3750   25.8510   32.0230 C   0  0  0  0  0  0  0  0  0  0  0  0
   36.0440   24.5900   31.7340 N   0  0  0  0  0  0  0  0  0  0  0  0
   36.7050   23.5540   32.2870 C   0  0  0  0  0  0  0  0  0  0  0  0
   37.7160   23.7630   33.1460 N   0  0  0  0  0  0  0  0  0  0  0  0
   36.3180   22.1870   31.9500 C   0  0  0  0  0  0  0  0  0  0  0  0
   37.1130   21.4310   31.1070 C   0  0  0  0  0  0  0  0  0  0  0  0
   36.8810   20.1320   30.6990 C   0  0  0  0  0  0  0  0  0  0  0  0
   35.7190   19.5480   31.2030 C   0  0  0  0  0  0  0  0  0  0  0  0
   34.8960   20.2660   32.0470 C   0  0  0  0  0  0  0  0  0  0  0  0
   35.1900   21.5600   32.4130 C   0  0  0  0  0  0  0  0  0  0  0  0
   39.2280   25.2160   34.4370 C   0  0  0  0  0  0  0  0  0  0  0  0
   37.9230   24.2760   37.8640 C   0  0  0  0  0  0  0  0  0  0  0  0
   38.0660   24.9600   36.6330 C   0  0  0  0  0  0  0  0  0  0  0  0
   39.0470   24.5260   35.7350 C   0  0  0  0  0  0  0  0  0  0  0  0
   39.8200   23.4540   36.1050 N   0  0  0  0  0  0  0  0  0  0  0  0
   39.6420   22.8440   37.2820 C   0  0  0  0  0  0  0  0  0  0  0  0
   38.7080   23.2440   38.1550 N   0  0  0  0  0  0  0  0  0  0  0  0
   37.6954   27.0889   33.1485 H   0  0  0  0  0  0  0  0  0  0  0  0
   35.8361   26.6978   31.5729 H   0  0  0  0  0  0  0  0  0  0  0  0
   38.0233   21.9141   30.7222 H   0  0  0  0  0  0  0  0  0  0  0  0
   37.5645   19.5959   30.0242 H   0  0  0  0  0  0  0  0  0  0  0  0
   35.4585   18.5153   30.9279 H   0  0  0  0  0  0  0  0  0  0  0  0
   33.9828   19.7925   32.4367 H   0  0  0  0  0  0  0  0  0  0  0  0
   34.5091   22.0996   33.0877 H   0  0  0  0  0  0  0  0  0  0  0  0
   40.1473   24.8342   33.9689 H   0  0  0  0  0  0  0  0  0  0  0  0
   39.2759   26.2929   34.6562 H   0  0  0  0  0  0  0  0  0  0  0  0
   37.1575   24.6007   38.5841 H   0  0  0  0  0  0  0  0  0  0  0  0
   37.4191   25.8152   36.3875 H   0  0  0  0  0  0  0  0  0  0  0  0
   40.2821   21.9877   37.5410 H   0  0  0  0  0  0  0  0  0  0  0  0
  1 13  1  0
  2  1  2  0
  3  2  1  0
  4  3  2  0
  4  5  1  0
  5  6  2  0
  6  1  1  0
  7  5  1  0
  7 12  1  0
  8  7  2  0
  9  8  1  0
  9 10  2  0
 10 11  1  0
 11 12  2  0
 13 16  1  0
 14 19  2  0
 15 14  1  0
 16 17  1  0
 16 15  2  0
 17 18  2  0
 18 19  1  0
  2 20  1  0
  3 21  1  0
  8 22  1  0
  9 23  1  0
 10 24  1  0
 11 25  1  0
 12 26  1  0
 13 27  1  0
 13 28  1  0
 14 29  1  0
 15 30  1  0
 18 31  1  0
M  ISO  8  20  14  21  14  22  14  23  14  24  14  25  14  26  14  27   8
M  ISO  4  28   8  29  14  30  14  31  14
M  END
>  <minimizedAffinity>  (1) 
-5.20184946

>  <minimizedRMSD>  (1) 
6.67003489

$$$$
