
     RDKit          3D

 30 32  0  0  0  0  0  0  0  0999 V2000
   38.2870   24.6290   33.6320 C   0  0  0  0  0  0  0  0  0  0  0  0
   37.6260   25.6290   32.9730 C   0  0  0  0  0  0  0  0  0  0  0  0
   36.5760   25.4130   32.0960 C   0  0  0  0  0  0  0  0  0  0  0  0
   36.2000   24.1300   31.8960 N   0  0  0  0  0  0  0  0  0  0  0  0
   36.8300   23.1300   32.5300 C   0  0  0  0  0  0  0  0  0  0  0  0
   37.8390   23.3700   33.3690 N   0  0  0  0  0  0  0  0  0  0  0  0
   36.4230   21.7300   32.3150 C   0  0  0  0  0  0  0  0  0  0  0  0
   35.0680   21.4310   32.2950 C   0  0  0  0  0  0  0  0  0  0  0  0
   34.6520   20.1320   32.0950 C   0  0  0  0  0  0  0  0  0  0  0  0
   35.6320   19.1780   31.9240 C   0  0  0  0  0  0  0  0  0  0  0  0
   36.9880   19.4530   31.9410 C   0  0  0  0  0  0  0  0  0  0  0  0
   37.3380   20.7530   32.1410 N   0  0  0  0  0  0  0  0  0  0  0  0
   39.4010   24.8410   34.5640 C   0  0  0  0  0  0  0  0  0  0  0  0
   37.9220   24.2310   38.0110 C   0  0  0  0  0  0  0  0  0  0  0  0
   38.1010   24.7930   36.7270 C   0  0  0  0  0  0  0  0  0  0  0  0
   39.1540   24.2900   35.9340 C   0  0  0  0  0  0  0  0  0  0  0  0
   39.9330   23.2840   36.4690 N   0  0  0  0  0  0  0  0  0  0  0  0
   39.7170   22.7940   37.6830 C   0  0  0  0  0  0  0  0  0  0  0  0
   38.7240   23.2670   38.4330 N   0  0  0  0  0  0  0  0  0  0  0  0
   37.9474   26.6660   33.1501 H   0  0  0  0  0  0  0  0  0  0  0  0
   36.0714   26.2468   31.5859 H   0  0  0  0  0  0  0  0  0  0  0  0
   34.3261   22.2303   32.4387 H   0  0  0  0  0  0  0  0  0  0  0  0
   33.5843   19.8683   32.0728 H   0  0  0  0  0  0  0  0  0  0  0  0
   35.3174   18.1361   31.7645 H   0  0  0  0  0  0  0  0  0  0  0  0
   37.7418   18.6642   31.8006 H   0  0  0  0  0  0  0  0  0  0  0  0
   40.2968   24.3546   34.1506 H   0  0  0  0  0  0  0  0  0  0  0  0
   39.5258   25.9284   34.6730 H   0  0  0  0  0  0  0  0  0  0  0  0
   37.1136   24.5960   38.6616 H   0  0  0  0  0  0  0  0  0  0  0  0
   37.4430   25.5939   36.3589 H   0  0  0  0  0  0  0  0  0  0  0  0
   40.3621   21.9924   38.0719 H   0  0  0  0  0  0  0  0  0  0  0  0
  1 13  1  0
  2  1  2  0
  3  2  1  0
  4  3  2  0
  4  5  1  0
  5  6  2  0
  6  1  1  0
  7  5  1  0
  8  7  2  0
  9  8  1  0
 10 11  1  0
 10  9  2  0
 11 12  2  0
 12  7  1  0
 13 16  1  0
 14 19  2  0
 15 14  1  0
 16 17  1  0
 16 15  2  0
 17 18  2  0
 18 19  1  0
  2 20  1  0
  3 21  1  0
  8 22  1  0
  9 23  1  0
 10 24  1  0
 11 25  1  0
 13 26  1  0
 13 27  1  0
 14 28  1  0
 15 29  1  0
 18 30  1  0
M  ISO  8  20  14  21  14  22  14  23  14  24  14  25  14  26   8  27   8
M  ISO  3  28  14  29  14  30  14
M  END
>  <minimizedAffinity>  (1) 
-5.04801512

>  <minimizedRMSD>  (1) 
6.66050386

$$$$
