
     RDKit          3D

 34 36  0  0  0  0  0  0  0  0999 V2000
   38.2230   24.6190   33.6570 C   0  0  0  0  0  0  0  0  0  0  0  0
   37.5430   25.5500   32.9100 C   0  0  0  0  0  0  0  0  0  0  0  0
   36.5240   25.2370   32.0180 C   0  0  0  0  0  0  0  0  0  0  0  0
   36.1990   23.9270   31.8970 N   0  0  0  0  0  0  0  0  0  0  0  0
   36.8490   23.0060   32.6170 C   0  0  0  0  0  0  0  0  0  0  0  0
   37.8210   23.3210   33.4630 N   0  0  0  0  0  0  0  0  0  0  0  0
   36.4630   21.6470   32.4470 N   0  0  0  0  0  0  0  0  0  0  0  0
   37.4400   20.5830   32.2970 C   0  0  0  0  0  0  0  0  0  0  0  0
   37.1570   20.0160   30.9010 C   0  0  0  0  0  0  0  0  0  0  0  0
   35.8730   19.5530   30.8190 O   0  0  0  0  0  0  0  0  0  0  0  0
   35.0650   19.7800   31.9020 C   0  0  0  0  0  0  0  0  0  0  0  0
   35.0790   21.2100   32.4080 C   0  0  0  0  0  0  0  0  0  0  0  0
   39.3000   24.9400   34.5990 C   0  0  0  0  0  0  0  0  0  0  0  0
   37.9350   24.2190   38.0700 C   0  0  0  0  0  0  0  0  0  0  0  0
   38.0880   24.8060   36.7900 C   0  0  0  0  0  0  0  0  0  0  0  0
   39.1070   24.3460   35.9570 C   0  0  0  0  0  0  0  0  0  0  0  0
   39.9150   23.3360   36.4320 N   0  0  0  0  0  0  0  0  0  0  0  0
   39.7320   22.8150   37.6430 C   0  0  0  0  0  0  0  0  0  0  0  0
   38.7600   23.2420   38.4580 N   0  0  0  0  0  0  0  0  0  0  0  0
   37.8220   26.6078   33.0248 H   0  0  0  0  0  0  0  0  0  0  0  0
   36.0063   26.0153   31.4382 H   0  0  0  0  0  0  0  0  0  0  0  0
   38.4639   20.9805   32.3577 H   0  0  0  0  0  0  0  0  0  0  0  0
   37.3628   19.8219   33.0874 H   0  0  0  0  0  0  0  0  0  0  0  0
   37.3035   20.8088   30.1527 H   0  0  0  0  0  0  0  0  0  0  0  0
   37.8471   19.1806   30.7118 H   0  0  0  0  0  0  0  0  0  0  0  0
   34.0327   19.5254   31.6200 H   0  0  0  0  0  0  0  0  0  0  0  0
   35.4540   19.1549   32.7193 H   0  0  0  0  0  0  0  0  0  0  0  0
   34.5010   21.8541   31.7289 H   0  0  0  0  0  0  0  0  0  0  0  0
   34.6258   21.2708   33.4084 H   0  0  0  0  0  0  0  0  0  0  0  0
   40.2468   24.5620   34.1859 H   0  0  0  0  0  0  0  0  0  0  0  0
   39.3032   26.0329   34.7235 H   0  0  0  0  0  0  0  0  0  0  0  0
   37.1381   24.5669   38.7437 H   0  0  0  0  0  0  0  0  0  0  0  0
   37.4148   25.6105   36.4591 H   0  0  0  0  0  0  0  0  0  0  0  0
   40.3993   22.0098   37.9841 H   0  0  0  0  0  0  0  0  0  0  0  0
  1 13  1  0
  2  1  2  0
  3  2  1  0
  4  3  2  0
  4  5  1  0
  5  6  2  0
  6  1  1  0
  7  5  1  0
  8  7  1  0
  9  8  1  0
 10  9  1  0
 10 11  1  0
 11 12  1  0
 12  7  1  0
 13 16  1  0
 14 19  2  0
 15 14  1  0
 16 17  1  0
 16 15  2  0
 17 18  2  0
 18 19  1  0
  2 20  1  0
  3 21  1  0
  8 22  1  0
  8 23  1  0
  9 24  1  0
  9 25  1  0
 11 26  1  0
 11 27  1  0
 12 28  1  0
 12 29  1  0
 13 30  1  0
 13 31  1  0
 14 32  1  0
 15 33  1  0
 18 34  1  0
M  ISO  8  20  14  21  14  22  13  23  13  24  13  25  13  26  13  27  13
M  ISO  7  28  13  29  13  30   8  31   8  32  14  33  14  34  14
M  END
>  <minimizedAffinity>  (1) 
-4.98718214

>  <minimizedRMSD>  (1) 
6.75511885

$$$$
