
     RDKit          3D

 35 37  0  0  0  0  0  0  0  0999 V2000
   38.0040   24.1950   33.1530 C   0  0  0  0  0  0  0  0  0  0  0  0
   37.3030   25.2480   32.6480 C   0  0  0  0  0  0  0  0  0  0  0  0
   36.1740   25.1010   31.8560 C   0  0  0  0  0  0  0  0  0  0  0  0
   35.7720   23.8360   31.5880 N   0  0  0  0  0  0  0  0  0  0  0  0
   36.4460   22.7900   32.0750 C   0  0  0  0  0  0  0  0  0  0  0  0
   37.5320   22.9660   32.8350 N   0  0  0  0  0  0  0  0  0  0  0  0
   35.9760   21.4860   31.7590 N   0  0  0  0  0  0  0  0  0  0  0  0
   35.0160   20.8720   32.6540 C   0  0  0  0  0  0  0  0  0  0  0  0
   34.4800   19.5740   32.1090 C   0  0  0  0  0  0  0  0  0  0  0  0
   35.4950   18.6970   31.6130 N   0  0  0  0  0  0  0  0  0  0  0  0
   36.6000   19.3210   30.9700 C   0  0  0  0  0  0  0  0  0  0  0  0
   36.4090   20.7430   30.5920 C   0  0  0  0  0  0  0  0  0  0  0  0
   39.2040   24.3370   33.9950 C   0  0  0  0  0  0  0  0  0  0  0  0
   37.7590   24.1730   37.4960 C   0  0  0  0  0  0  0  0  0  0  0  0
   37.9330   24.5410   36.1390 C   0  0  0  0  0  0  0  0  0  0  0  0
   38.9880   23.9750   35.4260 C   0  0  0  0  0  0  0  0  0  0  0  0
   39.8070   23.0850   36.0870 N   0  0  0  0  0  0  0  0  0  0  0  0
   39.6000   22.7720   37.3660 C   0  0  0  0  0  0  0  0  0  0  0  0
   38.6020   23.2980   38.0630 N   0  0  0  0  0  0  0  0  0  0  0  0
   37.6496   26.2659   32.8799 H   0  0  0  0  0  0  0  0  0  0  0  0
   35.6298   25.9726   31.4633 H   0  0  0  0  0  0  0  0  0  0  0  0
   35.5063   20.6756   33.6189 H   0  0  0  0  0  0  0  0  0  0  0  0
   34.1698   21.5653   32.7690 H   0  0  0  0  0  0  0  0  0  0  0  0
   33.9370   19.0570   32.9139 H   0  0  0  0  0  0  0  0  0  0  0  0
   33.8290   19.8262   31.2590 H   0  0  0  0  0  0  0  0  0  0  0  0
   35.8592   18.1546   32.4093 H   0  0  0  0  0  0  0  0  0  0  0  0
   37.4619   19.2658   31.6512 H   0  0  0  0  0  0  0  0  0  0  0  0
   36.7412   18.7771   30.0243 H   0  0  0  0  0  0  0  0  0  0  0  0
   37.3585   21.1573   30.2221 H   0  0  0  0  0  0  0  0  0  0  0  0
   35.6498   20.8188   29.7996 H   0  0  0  0  0  0  0  0  0  0  0  0
   39.9910   23.6848   33.5883 H   0  0  0  0  0  0  0  0  0  0  0  0
   39.4827   25.4009   33.9747 H   0  0  0  0  0  0  0  0  0  0  0  0
   36.9345   24.6040   38.0829 H   0  0  0  0  0  0  0  0  0  0  0  0
   37.2504   25.2576   35.6589 H   0  0  0  0  0  0  0  0  0  0  0  0
   40.2763   22.0570   37.8573 H   0  0  0  0  0  0  0  0  0  0  0  0
  1 13  1  0
  2  1  2  0
  3  2  1  0
  4  3  2  0
  4  5  1  0
  5  6  2  0
  6  1  1  0
  7  5  1  0
  7  8  1  0
  9  8  1  0
 10  9  1  0
 11 10  1  0
 12 11  1  0
 12  7  1  0
 13 16  1  0
 14 19  2  0
 15 14  1  0
 16 17  1  0
 16 15  2  0
 17 18  2  0
 18 19  1  0
  2 20  1  0
  3 21  1  0
  8 22  1  0
  8 23  1  0
  9 24  1  0
  9 25  1  0
 10 26  1  0
 11 27  1  0
 11 28  1  0
 12 29  1  0
 12 30  1  0
 13 31  1  0
 13 32  1  0
 14 33  1  0
 15 34  1  0
 18 35  1  0
M  ISO  8  20  14  21  14  22  13  23  13  24  13  25  13  26   5  27  13
M  ISO  8  28  13  29  13  30  13  31   8  32   8  33  14  34  14  35  14
M  END
>  <minimizedAffinity>  (1) 
-4.96956205

>  <minimizedRMSD>  (1) 
7.09335899

$$$$
