
     RDKit          3D

 28 29  0  0  0  0  0  0  0  0999 V2000
   37.9330   22.3510   33.4640 C   0  0  0  0  0  0  0  0  0  0  0  0
   37.7060   23.5430   32.8590 C   0  0  0  0  0  0  0  0  0  0  0  0
   36.6110   23.8300   32.0820 C   0  0  0  0  0  0  0  0  0  0  0  0
   35.7170   22.8530   31.9240 N   0  0  0  0  0  0  0  0  0  0  0  0
   35.8890   21.6380   32.5040 C   0  0  0  0  0  0  0  0  0  0  0  0
   36.9710   21.4270   33.2440 N   0  0  0  0  0  0  0  0  0  0  0  0
   34.8990   20.6130   32.3070 N   0  0  0  0  0  0  0  0  0  0  0  0
   35.2730   19.3890   31.6950 C   0  0  0  0  0  0  0  0  0  0  0  0
   36.2280   19.3670   30.8310 N   0  0  0  0  0  0  0  0  0  0  0  0
   34.5790   18.2130   32.0570 N   0  0  0  0  0  0  0  0  0  0  0  0
   36.4850   18.4580   30.3970 H   0  0  0  0  0  0  0  0  0  0  0  0
   39.1090   22.0380   34.3000 C   0  0  0  0  0  0  0  0  0  0  0  0
   37.6590   23.2920   37.5710 C   0  0  0  0  0  0  0  0  0  0  0  0
   37.7270   22.8960   36.2080 C   0  0  0  0  0  0  0  0  0  0  0  0
   38.9770   22.4630   35.7150 C   0  0  0  0  0  0  0  0  0  0  0  0
   40.0500   22.4520   36.5800 N   0  0  0  0  0  0  0  0  0  0  0  0
   39.9070   22.8430   37.8610 C   0  0  0  0  0  0  0  0  0  0  0  0
   38.7430   23.2520   38.3460 N   0  0  0  0  0  0  0  0  0  0  0  0
   38.4532   24.3377   33.0010 H   0  0  0  0  0  0  0  0  0  0  0  0
   36.4778   24.8162   31.6133 H   0  0  0  0  0  0  0  0  0  0  0  0
   33.9260   20.7666   32.6080 H   0  0  0  0  0  0  0  0  0  0  0  0
   34.8323   17.3123   31.6264 H   0  0  0  0  0  0  0  0  0  0  0  0
   33.8197   18.2563   32.7516 H   0  0  0  0  0  0  0  0  0  0  0  0
   39.2674   20.9497   34.2796 H   0  0  0  0  0  0  0  0  0  0  0  0
   39.9561   22.5988   33.8782 H   0  0  0  0  0  0  0  0  0  0  0  0
   36.7020   23.6351   37.9910 H   0  0  0  0  0  0  0  0  0  0  0  0
   36.8381   22.9257   35.5607 H   0  0  0  0  0  0  0  0  0  0  0  0
   40.7834   22.8223   38.5254 H   0  0  0  0  0  0  0  0  0  0  0  0
  1 12  1  0
  2  1  2  0
  3  2  1  0
  4  3  2  0
  4  5  1  0
  5  6  2  0
  6  1  1  0
  7  5  1  0
  8 10  1  0
  8  7  1  0
  9  8  2  0
 11  9  1  0
 12 15  1  0
 13 18  2  0
 14 13  1  0
 15 14  2  0
 15 16  1  0
 16 17  2  0
 17 18  1  0
  2 19  1  0
  3 20  1  0
  7 21  1  0
 10 22  1  0
 10 23  1  0
 12 24  1  0
 12 25  1  0
 13 26  1  0
 14 27  1  0
 17 28  1  0
M  ISO  7  19  14  20  14  24   8  25   8  26  14  27  14  28  14
M  END
>  <minimizedAffinity>  (1) 
-4.91996574

>  <minimizedRMSD>  (1) 
7.19631481

$$$$
