
     RDKit          3D

 29 31  0  0  0  0  0  0  0  0999 V2000
   38.3030   24.8030   33.5430 C   0  0  0  0  0  0  0  0  0  0  0  0
   37.6100   25.8830   33.0720 C   0  0  0  0  0  0  0  0  0  0  0  0
   36.5390   25.7810   32.2180 C   0  0  0  0  0  0  0  0  0  0  0  0
   36.1610   24.5570   31.8330 N   0  0  0  0  0  0  0  0  0  0  0  0
   36.8140   23.4610   32.2710 C   0  0  0  0  0  0  0  0  0  0  0  0
   37.8550   23.5900   33.1030 N   0  0  0  0  0  0  0  0  0  0  0  0
   36.4430   22.1140   31.8830 C   0  0  0  0  0  0  0  0  0  0  0  0
   35.2590   21.5810   32.3940 C   0  0  0  0  0  0  0  0  0  0  0  0
   34.7700   20.3240   32.1250 C   0  0  0  0  0  0  0  0  0  0  0  0
   35.5520   19.5890   31.2820 N   0  0  0  0  0  0  0  0  0  0  0  0
   36.6950   20.0910   30.7830 C   0  0  0  0  0  0  0  0  0  0  0  0
   37.1580   21.3310   31.0620 N   0  0  0  0  0  0  0  0  0  0  0  0
   39.4540   24.8840   34.4590 C   0  0  0  0  0  0  0  0  0  0  0  0
   37.9180   24.2340   37.8770 C   0  0  0  0  0  0  0  0  0  0  0  0
   38.1320   24.8010   36.6020 C   0  0  0  0  0  0  0  0  0  0  0  0
   39.1910   24.3150   35.8110 C   0  0  0  0  0  0  0  0  0  0  0  0
   39.9590   23.3030   36.3410 N   0  0  0  0  0  0  0  0  0  0  0  0
   39.7210   22.7920   37.5550 C   0  0  0  0  0  0  0  0  0  0  0  0
   38.7160   23.2550   38.3050 N   0  0  0  0  0  0  0  0  0  0  0  0
   37.9265   26.8862   33.3937 H   0  0  0  0  0  0  0  0  0  0  0  0
   36.0093   26.6770   31.8622 H   0  0  0  0  0  0  0  0  0  0  0  0
   34.6679   22.2189   33.0676 H   0  0  0  0  0  0  0  0  0  0  0  0
   33.8302   19.9441   32.5522 H   0  0  0  0  0  0  0  0  0  0  0  0
   37.2884   19.4563   30.1084 H   0  0  0  0  0  0  0  0  0  0  0  0
   40.2939   24.3342   34.0092 H   0  0  0  0  0  0  0  0  0  0  0  0
   39.6755   25.9522   34.5997 H   0  0  0  0  0  0  0  0  0  0  0  0
   37.0979   24.5975   38.5136 H   0  0  0  0  0  0  0  0  0  0  0  0
   37.4828   25.6085   36.2327 H   0  0  0  0  0  0  0  0  0  0  0  0
   40.3590   21.9826   37.9395 H   0  0  0  0  0  0  0  0  0  0  0  0
  1 13  1  0
  2  1  2  0
  3  2  1  0
  4  3  2  0
  4  5  1  0
  5  6  2  0
  6  1  1  0
  7  5  1  0
  7  8  2  0
  9  8  1  0
 10  9  2  0
 11 12  2  0
 11 10  1  0
 12  7  1  0
 13 16  1  0
 14 19  2  0
 15 14  1  0
 16 17  1  0
 16 15  2  0
 17 18  2  0
 18 19  1  0
  2 20  1  0
  3 21  1  0
  8 22  1  0
  9 23  1  0
 11 24  1  0
 13 25  1  0
 13 26  1  0
 14 27  1  0
 15 28  1  0
 18 29  1  0
M  ISO  8  20  14  21  14  22  14  23  14  24  14  25   8  26   8  27  14
M  ISO  2  28  14  29  14
M  END
>  <minimizedAffinity>  (1) 
-4.91101789

>  <minimizedRMSD>  (1) 
6.6147089

$$$$
