
     RDKit          3D

 28 30  0  0  0  0  0  0  0  0999 V2000
   38.3370   25.0720   33.5970 C   0  0  0  0  0  0  0  0  0  0  0  0
   37.7270   26.2080   33.1630 C   0  0  0  0  0  0  0  0  0  0  0  0
   36.6380   26.2130   32.3030 C   0  0  0  0  0  0  0  0  0  0  0  0
   36.1850   25.0250   31.8950 N   0  0  0  0  0  0  0  0  0  0  0  0
   36.7550   23.8820   32.2970 C   0  0  0  0  0  0  0  0  0  0  0  0
   37.8000   23.9180   33.1230 N   0  0  0  0  0  0  0  0  0  0  0  0
   36.3630   22.5520   31.9320 N   0  0  0  0  0  0  0  0  0  0  0  0
   35.3660   21.6890   32.1850 C   0  0  0  0  0  0  0  0  0  0  0  0
   35.6420   20.5250   31.4570 C   0  0  0  0  0  0  0  0  0  0  0  0
   36.7950   20.7230   30.7920 N   0  0  0  0  0  0  0  0  0  0  0  0
   37.2440   21.9670   31.0780 C   0  0  0  0  0  0  0  0  0  0  0  0
   39.5000   25.0500   34.5130 C   0  0  0  0  0  0  0  0  0  0  0  0
   37.8980   24.2180   37.8430 C   0  0  0  0  0  0  0  0  0  0  0  0
   38.1330   24.8480   36.6070 C   0  0  0  0  0  0  0  0  0  0  0  0
   39.2140   24.4100   35.8270 C   0  0  0  0  0  0  0  0  0  0  0  0
   39.9800   23.3870   36.3200 N   0  0  0  0  0  0  0  0  0  0  0  0
   39.7230   22.8080   37.5080 C   0  0  0  0  0  0  0  0  0  0  0  0
   38.6900   23.2220   38.2610 N   0  0  0  0  0  0  0  0  0  0  0  0
   38.1182   27.1748   33.5127 H   0  0  0  0  0  0  0  0  0  0  0  0
   36.1697   27.1519   31.9727 H   0  0  0  0  0  0  0  0  0  0  0  0
   34.4987   21.8630   32.8388 H   0  0  0  0  0  0  0  0  0  0  0  0
   35.0271   19.6132   31.4331 H   0  0  0  0  0  0  0  0  0  0  0  0
   38.1639   22.4260   30.6867 H   0  0  0  0  0  0  0  0  0  0  0  0
   40.3152   24.4947   34.0262 H   0  0  0  0  0  0  0  0  0  0  0  0
   39.7691   26.0969   34.7167 H   0  0  0  0  0  0  0  0  0  0  0  0
   37.0568   24.5462   38.4712 H   0  0  0  0  0  0  0  0  0  0  0  0
   37.4839   25.6655   36.2600 H   0  0  0  0  0  0  0  0  0  0  0  0
   40.3643   21.9888   37.8653 H   0  0  0  0  0  0  0  0  0  0  0  0
  1 12  1  0
  2  1  2  0
  3  2  1  0
  4  5  1  0
  4  3  2  0
  5  6  2  0
  6  1  1  0
  7  8  1  0
  7  5  1  0
  9  8  2  0
 10 11  2  0
 10  9  1  0
 11  7  1  0
 12 15  1  0
 13 18  2  0
 14 13  1  0
 15 16  1  0
 15 14  2  0
 16 17  2  0
 17 18  1  0
  2 19  1  0
  3 20  1  0
  8 21  1  0
  9 22  1  0
 11 23  1  0
 12 24  1  0
 12 25  1  0
 13 26  1  0
 14 27  1  0
 17 28  1  0
M  ISO  8  19  14  20  14  21  14  22  14  23  14  24   8  25   8  26  14
M  ISO  2  27  14  28  14
M  END
>  <minimizedAffinity>  (1) 
-4.66204786

>  <minimizedRMSD>  (1) 
5.95273924

$$$$
