
     RDKit          3D

 33 34  0  0  0  0  0  0  0  0999 V2000
   39.3340   24.6270   34.4280 C   0  0  0  0  0  0  0  0  0  0  0  0
   37.9340   24.2510   37.9270 C   0  0  0  0  0  0  0  0  0  0  0  0
   38.0920   24.7250   36.6030 C   0  0  0  0  0  0  0  0  0  0  0  0
   39.1120   24.1770   35.8240 C   0  0  0  0  0  0  0  0  0  0  0  0
   39.9050   23.1980   36.4080 N   0  0  0  0  0  0  0  0  0  0  0  0
   39.7090   22.7890   37.6650 C   0  0  0  0  0  0  0  0  0  0  0  0
   38.7340   23.3080   38.4200 N   0  0  0  0  0  0  0  0  0  0  0  0
   38.1890   24.3590   33.5320 C   0  0  0  0  0  0  0  0  0  0  0  0
   37.4900   25.3160   32.8620 C   0  0  0  0  0  0  0  0  0  0  0  0
   36.4140   25.0340   32.0230 C   0  0  0  0  0  0  0  0  0  0  0  0
   36.0670   23.7410   31.8820 N   0  0  0  0  0  0  0  0  0  0  0  0
   36.7430   22.7810   32.5330 C   0  0  0  0  0  0  0  0  0  0  0  0
   37.7650   23.0730   33.3280 N   0  0  0  0  0  0  0  0  0  0  0  0
   36.4430   21.3090   32.4500 C   0  0  0  0  0  0  0  0  0  0  0  0
   35.7590   20.8200   33.7040 C   0  0  0  0  0  0  0  0  0  0  0  0
   35.7250   20.9350   31.1930 C   0  0  0  0  0  0  0  0  0  0  0  0
   37.8280   20.6490   32.4260 C   0  0  0  0  0  0  0  0  0  0  0  0
   39.5223   25.7107   34.4375 H   0  0  0  0  0  0  0  0  0  0  0  0
   40.1903   24.0577   34.0372 H   0  0  0  0  0  0  0  0  0  0  0  0
   37.1368   24.6687   38.5594 H   0  0  0  0  0  0  0  0  0  0  0  0
   37.4289   25.5041   36.1989 H   0  0  0  0  0  0  0  0  0  0  0  0
   40.3618   22.0107   38.0871 H   0  0  0  0  0  0  0  0  0  0  0  0
   37.7903   26.3665   32.9897 H   0  0  0  0  0  0  0  0  0  0  0  0
   35.8711   25.8339   31.4981 H   0  0  0  0  0  0  0  0  0  0  0  0
   36.2936   21.2022   34.5861 H   0  0  0  0  0  0  0  0  0  0  0  0
   34.7202   21.1814   33.7198 H   0  0  0  0  0  0  0  0  0  0  0  0
   35.7649   19.7201   33.7198 H   0  0  0  0  0  0  0  0  0  0  0  0
   34.7756   20.4405   31.4463 H   0  0  0  0  0  0  0  0  0  0  0  0
   35.5206   21.8412   30.6040 H   0  0  0  0  0  0  0  0  0  0  0  0
   36.3505   20.2481   30.6040 H   0  0  0  0  0  0  0  0  0  0  0  0
   38.1736   20.4843   33.4572 H   0  0  0  0  0  0  0  0  0  0  0  0
   37.7653   19.6840   31.9018 H   0  0  0  0  0  0  0  0  0  0  0  0
   38.5380   21.3056   31.9018 H   0  0  0  0  0  0  0  0  0  0  0  0
  1  4  1  0
  2  7  2  0
  3  2  1  0
  4  5  1  0
  4  3  2  0
  5  6  2  0
  6  7  1  0
  8  1  1  0
  9  8  2  0
 10  9  1  0
 11 10  2  0
 11 12  1  0
 12 13  2  0
 13  8  1  0
 14 12  1  0
 14 15  1  0
 16 14  1  0
 17 14  1  0
  1 18  1  0
  1 19  1  0
  2 20  1  0
  3 21  1  0
  6 22  1  0
  9 23  1  0
 10 24  1  0
 15 25  1  0
 15 26  1  0
 15 27  1  0
 16 28  1  0
 16 29  1  0
 16 30  1  0
 17 31  1  0
 17 32  1  0
 17 33  1  0
M  ISO  8  18   8  19   8  20  14  21  14  22  14  23  14  24  14  25   8
M  ISO  8  26   8  27   8  28   8  29   8  30   8  31   8  32   8  33   8
M  END
>  <minimizedAffinity>  (1) 
-4.51814365

>  <minimizedRMSD>  (1) 
5.48227835

$$$$
