
     RDKit          3D

 36 38  0  0  0  0  0  0  0  0999 V2000
   37.9580   27.1970   34.7950 C   0  0  0  0  0  0  0  0  0  0  0  0
   36.7740   27.8290   34.5480 C   0  0  0  0  0  0  0  0  0  0  0  0
   36.3700   28.2570   33.2900 C   0  0  0  0  0  0  0  0  0  0  0  0
   37.2180   28.0200   32.2690 N   0  0  0  0  0  0  0  0  0  0  0  0
   38.3970   27.3970   32.4790 C   0  0  0  0  0  0  0  0  0  0  0  0
   38.7380   27.0070   33.7000 N   0  0  0  0  0  0  0  0  0  0  0  0
   39.2600   27.1690   31.3680 N   0  0  0  0  0  0  0  0  0  0  0  0
   38.7180   26.6600   30.1300 C   0  0  0  0  0  0  0  0  0  0  0  0
   39.7300   25.8880   29.3310 C   0  0  0  0  0  0  0  0  0  0  0  0
   41.0250   26.6020   29.1330 C   0  0  0  0  0  0  0  0  0  0  0  0
   41.3430   27.6400   30.1560 C   0  0  0  0  0  0  0  0  0  0  0  0
   40.6720   27.4460   31.4810 C   0  0  0  0  0  0  0  0  0  0  0  0
   38.3950   26.7390   36.1300 C   0  0  0  0  0  0  0  0  0  0  0  0
   37.7220   23.0940   36.9450 C   0  0  0  0  0  0  0  0  0  0  0  0
   37.5520   24.4850   36.8720 C   0  0  0  0  0  0  0  0  0  0  0  0
   38.5290   25.2650   36.2340 C   0  0  0  0  0  0  0  0  0  0  0  0
   39.6170   24.5920   35.7080 N   0  0  0  0  0  0  0  0  0  0  0  0
   39.7360   23.2610   35.8020 C   0  0  0  0  0  0  0  0  0  0  0  0
   38.7960   22.5200   36.4150 N   0  0  0  0  0  0  0  0  0  0  0  0
   36.0985   28.0105   35.3969 H   0  0  0  0  0  0  0  0  0  0  0  0
   35.4063   28.7640   33.1344 H   0  0  0  0  0  0  0  0  0  0  0  0
   37.8718   25.9966   30.3621 H   0  0  0  0  0  0  0  0  0  0  0  0
   38.4027   27.5225   29.5245 H   0  0  0  0  0  0  0  0  0  0  0  0
   39.9339   24.9420   29.8540 H   0  0  0  0  0  0  0  0  0  0  0  0
   39.2958   25.7369   28.3317 H   0  0  0  0  0  0  0  0  0  0  0  0
   41.8312   25.8537   29.1460 H   0  0  0  0  0  0  0  0  0  0  0  0
   40.9349   27.1359   28.1755 H   0  0  0  0  0  0  0  0  0  0  0  0
   42.4307   27.6362   30.3200 H   0  0  0  0  0  0  0  0  0  0  0  0
   40.9663   28.5929   29.7560 H   0  0  0  0  0  0  0  0  0  0  0  0
   40.8021   28.3619   32.0762 H   0  0  0  0  0  0  0  0  0  0  0  0
   41.1393   26.5726   31.9593 H   0  0  0  0  0  0  0  0  0  0  0  0
   39.3715   27.1942   36.3521 H   0  0  0  0  0  0  0  0  0  0  0  0
   37.6197   27.0454   36.8477 H   0  0  0  0  0  0  0  0  0  0  0  0
   36.9614   22.4755   37.4440 H   0  0  0  0  0  0  0  0  0  0  0  0
   36.6617   24.9595   37.3105 H   0  0  0  0  0  0  0  0  0  0  0  0
   40.6181   22.7655   35.3702 H   0  0  0  0  0  0  0  0  0  0  0  0
  1 13  1  0
  2  1  2  0
  3  2  1  0
  4  5  1  0
  4  3  2  0
  5  6  2  0
  6  1  1  0
  7 12  1  0
  7  5  1  0
  8  7  1  0
  9  8  1  0
 10  9  1  0
 10 11  1  0
 11 12  1  0
 13 16  1  0
 15 14  2  0
 16 15  1  0
 17 18  1  0
 17 16  2  0
 18 19  2  0
 19 14  1  0
  2 20  1  0
  3 21  1  0
  8 22  1  0
  8 23  1  0
  9 24  1  0
  9 25  1  0
 10 26  1  0
 10 27  1  0
 11 28  1  0
 11 29  1  0
 12 30  1  0
 12 31  1  0
 13 32  1  0
 13 33  1  0
 14 34  1  0
 15 35  1  0
 18 36  1  0
M  ISO  8  20  14  21  14  22  13  23  13  24  13  25  13  26  13  27  13
M  ISO  8  28  13  29  13  30  13  31  13  32   8  33   8  34  14  35  14
M  ISO  1  36  14
M  END
>  <minimizedAffinity>  (1) 
-4.44831562

>  <minimizedRMSD>  (1) 
3.94938755

$$$$
