
     RDKit          3D

 28 30  0  0  0  0  0  0  0  0999 V2000
   39.2290   26.8930   34.7040 C   0  0  0  0  0  0  0  0  0  0  0  0
   38.8620   27.1120   33.4170 C   0  0  0  0  0  0  0  0  0  0  0  0
   39.7470   27.1470   32.3520 C   0  0  0  0  0  0  0  0  0  0  0  0
   41.0420   26.9520   32.6320 N   0  0  0  0  0  0  0  0  0  0  0  0
   41.4510   26.7320   33.8940 C   0  0  0  0  0  0  0  0  0  0  0  0
   40.5720   26.7020   34.9050 N   0  0  0  0  0  0  0  0  0  0  0  0
   42.8070   26.5140   34.2820 N   0  0  0  0  0  0  0  0  0  0  0  0
   43.9510   27.1070   33.9430 N   0  0  0  0  0  0  0  0  0  0  0  0
   44.9740   26.5250   34.5920 C   0  0  0  0  0  0  0  0  0  0  0  0
   44.4910   25.5070   35.3920 C   0  0  0  0  0  0  0  0  0  0  0  0
   43.1150   25.5310   35.1680 C   0  0  0  0  0  0  0  0  0  0  0  0
   38.2940   26.8520   35.8510 C   0  0  0  0  0  0  0  0  0  0  0  0
   37.9260   23.1060   36.2560 C   0  0  0  0  0  0  0  0  0  0  0  0
   38.0600   24.3660   35.6490 C   0  0  0  0  0  0  0  0  0  0  0  0
   38.1510   25.5030   36.4500 C   0  0  0  0  0  0  0  0  0  0  0  0
   38.1020   25.3080   37.8050 N   0  0  0  0  0  0  0  0  0  0  0  0
   37.9730   24.0990   38.3600 C   0  0  0  0  0  0  0  0  0  0  0  0
   37.8860   23.0020   37.5920 N   0  0  0  0  0  0  0  0  0  0  0  0
   37.7944   27.2719   33.2055 H   0  0  0  0  0  0  0  0  0  0  0  0
   39.4018   27.3268   31.3231 H   0  0  0  0  0  0  0  0  0  0  0  0
   46.0314   26.8141   34.5006 H   0  0  0  0  0  0  0  0  0  0  0  0
   45.0594   24.8347   36.0515 H   0  0  0  0  0  0  0  0  0  0  0  0
   42.3867   24.8543   35.6388 H   0  0  0  0  0  0  0  0  0  0  0  0
   38.6634   27.5397   36.6260 H   0  0  0  0  0  0  0  0  0  0  0  0
   37.3037   27.1440   35.4716 H   0  0  0  0  0  0  0  0  0  0  0  0
   37.8537   22.2022   35.6332 H   0  0  0  0  0  0  0  0  0  0  0  0
   38.0928   24.4542   34.5530 H   0  0  0  0  0  0  0  0  0  0  0  0
   37.9379   24.0024   39.4552 H   0  0  0  0  0  0  0  0  0  0  0  0
  1  6  1  0
  1 12  1  0
  2  1  2  0
  3  4  2  0
  3  2  1  0
  4  5  1  0
  5  7  1  0
  5  6  2  0
  7 11  1  0
  8  7  1  0
  8  9  2  0
  9 10  1  0
 11 10  2  0
 12 15  1  0
 13 18  2  0
 14 13  1  0
 14 15  2  0
 15 16  1  0
 16 17  2  0
 18 17  1  0
  2 19  1  0
  3 20  1  0
  9 21  1  0
 10 22  1  0
 11 23  1  0
 12 24  1  0
 12 25  1  0
 13 26  1  0
 14 27  1  0
 17 28  1  0
M  ISO  8  19  14  20  14  21  14  22  14  23  14  24   8  25   8  26  14
M  ISO  2  27  14  28  14
M  END
>  <minimizedAffinity>  (1) 
-4.31901407

>  <minimizedRMSD>  (1) 
0.228915557

$$$$
