
     RDKit          3D

 28 30  0  0  0  0  0  0  0  0999 V2000
   39.0470   24.7300   34.2140 C   0  0  0  0  0  0  0  0  0  0  0  0
   37.8300   24.2120   37.7600 C   0  0  0  0  0  0  0  0  0  0  0  0
   37.8970   24.7250   36.4540 C   0  0  0  0  0  0  0  0  0  0  0  0
   38.9090   24.2360   35.6150 C   0  0  0  0  0  0  0  0  0  0  0  0
   39.7630   23.2930   36.1200 N   0  0  0  0  0  0  0  0  0  0  0  0
   39.6560   22.8320   37.3800 C   0  0  0  0  0  0  0  0  0  0  0  0
   38.6900   23.2960   38.1900 N   0  0  0  0  0  0  0  0  0  0  0  0
   37.9290   24.3340   33.3320 C   0  0  0  0  0  0  0  0  0  0  0  0
   37.1810   25.1920   32.5910 C   0  0  0  0  0  0  0  0  0  0  0  0
   36.1330   24.7930   31.7700 C   0  0  0  0  0  0  0  0  0  0  0  0
   35.8610   23.4760   31.7220 N   0  0  0  0  0  0  0  0  0  0  0  0
   36.5880   22.6070   32.4470 C   0  0  0  0  0  0  0  0  0  0  0  0
   37.5850   23.0080   33.2260 N   0  0  0  0  0  0  0  0  0  0  0  0
   36.2780   21.1490   32.3880 C   0  0  0  0  0  0  0  0  0  0  0  0
   36.3330   20.6030   30.9650 C   0  0  0  0  0  0  0  0  0  0  0  0
   35.0570   20.6480   31.7490 C   0  0  0  0  0  0  0  0  0  0  0  0
   39.0993   25.8285   34.2366 H   0  0  0  0  0  0  0  0  0  0  0  0
   39.9593   24.2750   33.8009 H   0  0  0  0  0  0  0  0  0  0  0  0
   37.0477   24.5772   38.4417 H   0  0  0  0  0  0  0  0  0  0  0  0
   37.1816   25.4829   36.1020 H   0  0  0  0  0  0  0  0  0  0  0  0
   40.3619   22.0728   37.7477 H   0  0  0  0  0  0  0  0  0  0  0  0
   37.4184   26.2648   32.6437 H   0  0  0  0  0  0  0  0  0  0  0  0
   35.5518   25.5213   31.1855 H   0  0  0  0  0  0  0  0  0  0  0  0
   36.7156   20.9426   33.3759 H   0  0  0  0  0  0  0  0  0  0  0  0
   36.8240   19.6407   30.7579 H   0  0  0  0  0  0  0  0  0  0  0  0
   36.6729   20.9779   29.9883 H   0  0  0  0  0  0  0  0  0  0  0  0
   34.2646   21.3540   31.4597 H   0  0  0  0  0  0  0  0  0  0  0  0
   34.2998   19.8991   32.0243 H   0  0  0  0  0  0  0  0  0  0  0  0
  1  4  1  0
  2  7  2  0
  3  2  1  0
  4  5  1  0
  4  3  2  0
  5  6  2  0
  6  7  1  0
  8  1  1  0
  9  8  2  0
 10  9  1  0
 11 10  2  0
 11 12  1  0
 12 13  2  0
 13  8  1  0
 14 12  1  0
 15 16  1  0
 15 14  1  0
 16 14  1  0
  1 17  1  0
  1 18  1  0
  2 19  1  0
  3 20  1  0
  6 21  1  0
  9 22  1  0
 10 23  1  0
 14 24  1  0
 15 25  1  0
 15 26  1  0
 16 27  1  0
 16 28  1  0
M  ISO  8  17   8  18   8  19  14  20  14  21  14  22  14  23  14  24  13
M  ISO  4  25  13  26  13  27  13  28  13
M  END
>  <minimizedAffinity>  (1) 
-4.25464106

>  <minimizedRMSD>  (1) 
5.64342546

$$$$
