
     RDKit          3D

 26 28  0  0  0  0  0  0  0  0999 V2000
   38.8530   27.0300   34.8250 C   0  0  0  0  0  0  0  0  0  0  0  0
   38.1130   27.1240   33.6910 C   0  0  0  0  0  0  0  0  0  0  0  0
   38.6510   27.2560   32.4300 C   0  0  0  0  0  0  0  0  0  0  0  0
   39.9910   27.2920   32.3360 N   0  0  0  0  0  0  0  0  0  0  0  0
   40.7640   27.2030   33.4350 C   0  0  0  0  0  0  0  0  0  0  0  0
   40.2080   27.0740   34.6500 N   0  0  0  0  0  0  0  0  0  0  0  0
   42.2140   27.2480   33.2670 C   0  0  0  0  0  0  0  0  0  0  0  0
   43.0890   26.6750   34.1230 N   0  0  0  0  0  0  0  0  0  0  0  0
   44.2970   26.8600   33.7490 O   0  0  0  0  0  0  0  0  0  0  0  0
   44.3100   27.5590   32.6360 C   0  0  0  0  0  0  0  0  0  0  0  0
   43.0060   27.8120   32.3190 N   0  0  0  0  0  0  0  0  0  0  0  0
   38.3160   26.8880   36.1860 C   0  0  0  0  0  0  0  0  0  0  0  0
   38.0230   23.1080   36.2020 C   0  0  0  0  0  0  0  0  0  0  0  0
   38.1530   24.4230   35.7200 C   0  0  0  0  0  0  0  0  0  0  0  0
   38.1800   25.4760   36.6370 C   0  0  0  0  0  0  0  0  0  0  0  0
   38.0730   25.1410   37.9710 N   0  0  0  0  0  0  0  0  0  0  0  0
   37.9510   23.8780   38.3830 C   0  0  0  0  0  0  0  0  0  0  0  0
   37.9260   22.8660   37.4980 N   0  0  0  0  0  0  0  0  0  0  0  0
   37.0174   27.0929   33.7848 H   0  0  0  0  0  0  0  0  0  0  0  0
   38.0112   27.3288   31.5381 H   0  0  0  0  0  0  0  0  0  0  0  0
   45.1979   27.8779   32.0703 H   0  0  0  0  0  0  0  0  0  0  0  0
   38.9906   27.4099   36.8806 H   0  0  0  0  0  0  0  0  0  0  0  0
   37.3039   27.3187   36.1762 H   0  0  0  0  0  0  0  0  0  0  0  0
   38.0018   22.2693   35.4906 H   0  0  0  0  0  0  0  0  0  0  0  0
   38.2320   24.6185   34.6404 H   0  0  0  0  0  0  0  0  0  0  0  0
   37.8700   23.6621   39.4586 H   0  0  0  0  0  0  0  0  0  0  0  0
  1 12  1  0
  2  1  2  0
  3  2  1  0
  4  3  2  0
  4  5  1  0
  5  6  2  0
  6  1  1  0
  7  5  1  0
  7  8  2  0
  9  8  1  0
 10  9  1  0
 11 10  2  0
 11  7  1  0
 12 15  1  0
 13 18  2  0
 14 13  1  0
 14 15  2  0
 15 16  1  0
 16 17  2  0
 18 17  1  0
  2 19  1  0
  3 20  1  0
 10 21  1  0
 12 22  1  0
 12 23  1  0
 13 24  1  0
 14 25  1  0
 17 26  1  0
M  ISO  8  19  14  20  14  21  14  22   8  23   8  24  14  25  14  26  14
M  END
>  <minimizedAffinity>  (1) 
-4.03165483

>  <minimizedRMSD>  (1) 
1.05443013

$$$$
