
     RDKit          3D

 24 25  0  0  0  0  0  0  0  0999 V2000
   38.3230   26.8780   36.2210 C   0  0  0  0  0  0  0  0  0  0  0  0
   38.0530   23.0850   36.1450 C   0  0  0  0  0  0  0  0  0  0  0  0
   38.1830   24.4200   35.7040 C   0  0  0  0  0  0  0  0  0  0  0  0
   38.1880   25.4570   36.6510 C   0  0  0  0  0  0  0  0  0  0  0  0
   38.0620   25.0930   37.9720 N   0  0  0  0  0  0  0  0  0  0  0  0
   37.9410   23.8220   38.3540 C   0  0  0  0  0  0  0  0  0  0  0  0
   37.9380   22.8380   37.4490 N   0  0  0  0  0  0  0  0  0  0  0  0
   38.7480   27.0370   34.8230 C   0  0  0  0  0  0  0  0  0  0  0  0
   37.8890   27.1360   33.7770 C   0  0  0  0  0  0  0  0  0  0  0  0
   38.2940   27.2860   32.4530 C   0  0  0  0  0  0  0  0  0  0  0  0
   39.6230   27.3350   32.2200 N   0  0  0  0  0  0  0  0  0  0  0  0
   40.4950   27.2390   33.2460 C   0  0  0  0  0  0  0  0  0  0  0  0
   40.0590   27.0950   34.4970 N   0  0  0  0  0  0  0  0  0  0  0  0
   41.9770   27.2860   33.0420 C   0  0  0  0  0  0  0  0  0  0  0  0
   42.3890   26.1910   32.2750 F   0  0  0  0  0  0  0  0  0  0  0  0
   42.3140   28.4170   32.2890 F   0  0  0  0  0  0  0  0  0  0  0  0
   42.5790   27.3030   34.2850 F   0  0  0  0  0  0  0  0  0  0  0  0
   37.3481   27.3721   36.3454 H   0  0  0  0  0  0  0  0  0  0  0  0
   39.1067   27.3291   36.8473 H   0  0  0  0  0  0  0  0  0  0  0  0
   38.0467   22.2580   35.4198 H   0  0  0  0  0  0  0  0  0  0  0  0
   38.2792   24.6451   34.6316 H   0  0  0  0  0  0  0  0  0  0  0  0
   37.8428   23.5806   39.4227 H   0  0  0  0  0  0  0  0  0  0  0  0
   36.8100   27.0954   33.9872 H   0  0  0  0  0  0  0  0  0  0  0  0
   37.5638   27.3612   31.6337 H   0  0  0  0  0  0  0  0  0  0  0  0
  1  4  1  0
  2  7  2  0
  3  2  1  0
  3  4  2  0
  4  5  1  0
  5  6  2  0
  7  6  1  0
  8  1  1  0
  9  8  2  0
 10  9  1  0
 11 10  2  0
 11 12  1  0
 12 13  2  0
 13  8  1  0
 14 12  1  0
 14 17  1  0
 15 14  1  0
 16 14  1  0
  1 18  1  0
  1 19  1  0
  2 20  1  0
  3 21  1  0
  6 22  1  0
  9 23  1  0
 10 24  1  0
M  ISO  7  18   8  19   8  20  14  21  14  22  14  23  14  24  14
M  END
>  <minimizedAffinity>  (1) 
-3.99334717

>  <minimizedRMSD>  (1) 
1.16042125

$$$$
