
     RDKit          3D

 23 24  0  0  0  0  0  0  0  0999 V2000
   38.1780   26.8180   35.7070 C   0  0  0  0  0  0  0  0  0  0  0  0
   39.1930   26.9040   34.6530 C   0  0  0  0  0  0  0  0  0  0  0  0
   38.9060   27.0450   33.3210 C   0  0  0  0  0  0  0  0  0  0  0  0
   39.8610   27.1270   32.3320 C   0  0  0  0  0  0  0  0  0  0  0  0
   41.1570   27.0610   32.7200 N   0  0  0  0  0  0  0  0  0  0  0  0
   41.4650   26.9230   34.0140 C   0  0  0  0  0  0  0  0  0  0  0  0
   40.5290   26.8460   34.9530 N   0  0  0  0  0  0  0  0  0  0  0  0
   42.8300   26.8550   34.4090 N   0  0  0  0  0  0  0  0  0  0  0  0
   38.0200   23.0730   36.2690 C   0  0  0  0  0  0  0  0  0  0  0  0
   38.0830   24.3080   35.6020 C   0  0  0  0  0  0  0  0  0  0  0  0
   38.1110   25.4900   36.3720 C   0  0  0  0  0  0  0  0  0  0  0  0
   38.0710   25.3380   37.7440 N   0  0  0  0  0  0  0  0  0  0  0  0
   38.0100   24.1360   38.3220 C   0  0  0  0  0  0  0  0  0  0  0  0
   37.9840   23.0100   37.5890 N   0  0  0  0  0  0  0  0  0  0  0  0
   37.1958   27.0315   35.2602 H   0  0  0  0  0  0  0  0  0  0  0  0
   38.4580   27.5485   36.4803 H   0  0  0  0  0  0  0  0  0  0  0  0
   37.8483   27.0958   33.0231 H   0  0  0  0  0  0  0  0  0  0  0  0
   39.5835   27.2411   31.2737 H   0  0  0  0  0  0  0  0  0  0  0  0
   43.0735   26.7487   35.4042 H   0  0  0  0  0  0  0  0  0  0  0  0
   43.5748   26.9120   33.6998 H   0  0  0  0  0  0  0  0  0  0  0  0
   38.0003   22.1425   35.6827 H   0  0  0  0  0  0  0  0  0  0  0  0
   38.1099   24.3524   34.5032 H   0  0  0  0  0  0  0  0  0  0  0  0
   37.9805   24.0660   39.4194 H   0  0  0  0  0  0  0  0  0  0  0  0
  1 11  1  0
  2  7  1  0
  2  1  1  0
  3  2  2  0
  4  5  2  0
  4  3  1  0
  5  6  1  0
  6  8  1  0
  6  7  2  0
  9 14  2  0
 10  9  1  0
 10 11  2  0
 11 12  1  0
 12 13  2  0
 14 13  1  0
  1 15  1  0
  1 16  1  0
  3 17  1  0
  4 18  1  0
  8 19  1  0
  8 20  1  0
  9 21  1  0
 10 22  1  0
 13 23  1  0
M  ISO  7  15   8  16   8  17  14  18  14  21  14  22  14  23  14
M  END
>  <minimizedAffinity>  (1) 
-3.8351481

>  <minimizedRMSD>  (1) 
0.0939811617

$$$$
