
     RDKit          3D

 22 23  0  0  0  0  0  0  0  0999 V2000
   38.0450   26.7080   35.6250 C   0  0  0  0  0  0  0  0  0  0  0  0
   38.1590   22.9790   36.3290 C   0  0  0  0  0  0  0  0  0  0  0  0
   38.1360   24.1960   35.6140 C   0  0  0  0  0  0  0  0  0  0  0  0
   38.0710   25.4060   36.3320 C   0  0  0  0  0  0  0  0  0  0  0  0
   38.0360   25.3140   37.7010 N   0  0  0  0  0  0  0  0  0  0  0  0
   38.0620   24.1380   38.3370 C   0  0  0  0  0  0  0  0  0  0  0  0
   38.1220   22.9840   37.6500 N   0  0  0  0  0  0  0  0  0  0  0  0
   39.0990   26.8590   34.6120 C   0  0  0  0  0  0  0  0  0  0  0  0
   38.8620   27.0070   33.2640 C   0  0  0  0  0  0  0  0  0  0  0  0
   39.8590   27.1480   32.3230 C   0  0  0  0  0  0  0  0  0  0  0  0
   41.1180   27.1370   32.7690 N   0  0  0  0  0  0  0  0  0  0  0  0
   41.3950   26.9920   34.0860 C   0  0  0  0  0  0  0  0  0  0  0  0
   40.4120   26.8590   34.9670 N   0  0  0  0  0  0  0  0  0  0  0  0
   42.7490   26.9980   34.4050 O   0  0  0  0  0  0  0  0  0  0  0  0
   37.0695   26.8120   35.1274 H   0  0  0  0  0  0  0  0  0  0  0  0
   38.2186   27.4856   36.3834 H   0  0  0  0  0  0  0  0  0  0  0  0
   38.2078   22.0241   35.7852 H   0  0  0  0  0  0  0  0  0  0  0  0
   38.1683   24.1993   34.5145 H   0  0  0  0  0  0  0  0  0  0  0  0
   38.0339   24.1146   39.4364 H   0  0  0  0  0  0  0  0  0  0  0  0
   37.8177   27.0131   32.9184 H   0  0  0  0  0  0  0  0  0  0  0  0
   39.6285   27.2643   31.2537 H   0  0  0  0  0  0  0  0  0  0  0  0
   43.0361   26.8971   35.3471 H   0  0  0  0  0  0  0  0  0  0  0  0
  1  4  1  0
  2  7  2  0
  3  2  1  0
  3  4  2  0
  4  5  1  0
  5  6  2  0
  7  6  1  0
  8 13  1  0
  8  1  1  0
  9  8  2  0
 10 11  2  0
 10  9  1  0
 11 12  1  0
 12 14  1  0
 12 13  2  0
  1 15  1  0
  1 16  1  0
  2 17  1  0
  3 18  1  0
  6 19  1  0
  9 20  1  0
 10 21  1  0
 14 22  1  0
M  ISO  8  15   8  16   8  17  14  18  14  19  14  20  14  21  14  22   3
M  END
>  <minimizedAffinity>  (1) 
-3.81438398

>  <minimizedRMSD>  (1) 
0.18402189

$$$$
