
     RDKit          3D

 23 24  0  0  0  0  0  0  0  0999 V2000
   38.3200   26.8830   36.1940 C   0  0  0  0  0  0  0  0  0  0  0  0
   38.0410   23.1000   36.1570 C   0  0  0  0  0  0  0  0  0  0  0  0
   38.1730   24.4380   35.6950 C   0  0  0  0  0  0  0  0  0  0  0  0
   38.1850   25.4710   36.6340 C   0  0  0  0  0  0  0  0  0  0  0  0
   38.0650   25.1180   37.9630 N   0  0  0  0  0  0  0  0  0  0  0  0
   37.9440   23.8510   38.3500 C   0  0  0  0  0  0  0  0  0  0  0  0
   37.9320   22.8500   37.4660 N   0  0  0  0  0  0  0  0  0  0  0  0
   38.7760   27.0350   34.8040 C   0  0  0  0  0  0  0  0  0  0  0  0
   37.9610   27.1300   33.7230 C   0  0  0  0  0  0  0  0  0  0  0  0
   38.4000   27.2730   32.4180 C   0  0  0  0  0  0  0  0  0  0  0  0
   39.7380   27.3180   32.2370 N   0  0  0  0  0  0  0  0  0  0  0  0
   40.5700   27.2270   33.2790 C   0  0  0  0  0  0  0  0  0  0  0  0
   40.1070   27.0900   34.5300 N   0  0  0  0  0  0  0  0  0  0  0  0
   42.0380   27.2730   33.1160 C   0  0  0  0  0  0  0  0  0  0  0  0
   42.8320   26.9550   34.0420 O   0  0  0  0  0  0  0  0  0  0  0  0
   37.3391   27.3711   36.2917 H   0  0  0  0  0  0  0  0  0  0  0  0
   39.0876   27.3437   36.8331 H   0  0  0  0  0  0  0  0  0  0  0  0
   38.0285   22.2690   35.4364 H   0  0  0  0  0  0  0  0  0  0  0  0
   38.2638   24.6547   34.6204 H   0  0  0  0  0  0  0  0  0  0  0  0
   37.8518   23.6227   39.4221 H   0  0  0  0  0  0  0  0  0  0  0  0
   36.8754   27.0906   33.8960 H   0  0  0  0  0  0  0  0  0  0  0  0
   37.6978   27.3460   31.5745 H   0  0  0  0  0  0  0  0  0  0  0  0
   42.4535   27.5969   32.1504 H   0  0  0  0  0  0  0  0  0  0  0  0
  1  4  1  0
  2  7  2  0
  3  2  1  0
  3  4  2  0
  4  5  1  0
  5  6  2  0
  7  6  1  0
  8  1  1  0
  9  8  2  0
 10  9  1  0
 11 10  2  0
 11 12  1  0
 12 13  2  0
 13  8  1  0
 14 12  1  0
 14 15  2  0
  1 16  1  0
  1 17  1  0
  2 18  1  0
  3 19  1  0
  6 20  1  0
  9 21  1  0
 10 22  1  0
 14 23  1  0
M  ISO  8  16   8  17   8  18  14  19  14  20  14  21  14  22  14  23   6
M  END
>  <minimizedAffinity>  (1) 
-3.69942641

>  <minimizedRMSD>  (1) 
0.861118734

$$$$
