
     RDKit          3D

 46 50  0  0  0  0  0  0  0  0999 V2000
   38.7150   25.4310   33.1800 C   0  0  0  0  0  0  0  0  0  0  0  0
   37.5190   25.0200   32.4230 C   0  0  0  0  0  0  0  0  0  0  0  0
   36.5860   25.8780   31.9200 C   0  0  0  0  0  0  0  0  0  0  0  0
   35.4830   25.4640   31.2200 C   0  0  0  0  0  0  0  0  0  0  0  0
   35.3170   24.1410   31.0210 N   0  0  0  0  0  0  0  0  0  0  0  0
   36.2130   23.2600   31.5000 C   0  0  0  0  0  0  0  0  0  0  0  0
   37.2830   23.6960   32.1820 N   0  0  0  0  0  0  0  0  0  0  0  0
   36.1560   21.8400   31.3590 N   0  0  0  0  0  0  0  0  0  0  0  0
   37.1090   21.3640   30.4910 C   0  0  0  0  0  0  0  0  0  0  0  0
   37.1870   19.9960   30.2430 C   0  0  0  0  0  0  0  0  0  0  0  0
   36.3010   19.1750   30.8830 C   0  0  0  0  0  0  0  0  0  0  0  0
   36.3930   17.7820   30.6200 N   0  0  0  0  0  0  0  0  0  0  0  0
   35.3960   19.6660   31.7120 N   0  0  0  0  0  0  0  0  0  0  0  0
   35.3190   20.9820   31.9530 C   0  0  0  0  0  0  0  0  0  0  0  0
   34.5090   21.5580   32.7140 O   0  0  0  0  0  0  0  0  0  0  0  0
   37.8910   24.7150   36.8150 C   0  0  0  0  0  0  0  0  0  0  0  0
   37.8120   25.2510   35.4960 C   0  0  0  0  0  0  0  0  0  0  0  0
   38.7740   24.8840   34.5690 C   0  0  0  0  0  0  0  0  0  0  0  0
   39.7620   24.0080   34.9830 N   0  0  0  0  0  0  0  0  0  0  0  0
   39.7930   23.5350   36.2240 C   0  0  0  0  0  0  0  0  0  0  0  0
   38.8780   23.8740   37.1340 N   0  0  0  0  0  0  0  0  0  0  0  0
   40.8840   22.6200   36.5390 C   0  0  0  0  0  0  0  0  0  0  0  0
   40.8460   21.5920   37.4470 C   0  0  0  0  0  0  0  0  0  0  0  0
   42.0190   20.9480   37.4930 N   0  0  0  0  0  0  0  0  0  0  0  0
   42.8100   21.5780   36.6010 C   0  0  0  0  0  0  0  0  0  0  0  0
   44.1170   21.3490   36.2270 C   0  0  0  0  0  0  0  0  0  0  0  0
   44.7470   22.1250   35.2790 C   0  0  0  0  0  0  0  0  0  0  0  0
   44.0710   23.1740   34.6650 C   0  0  0  0  0  0  0  0  0  0  0  0
   42.7700   23.4120   35.0270 C   0  0  0  0  0  0  0  0  0  0  0  0
   42.1580   22.6230   35.9790 C   0  0  0  0  0  0  0  0  0  0  0  0
   38.7254   26.5293   33.2403 H   0  0  0  0  0  0  0  0  0  0  0  0
   39.5856   25.0274   32.6423 H   0  0  0  0  0  0  0  0  0  0  0  0
   36.7258   26.9566   32.0844 H   0  0  0  0  0  0  0  0  0  0  0  0
   34.7540   26.1904   30.8316 H   0  0  0  0  0  0  0  0  0  0  0  0
   37.8045   22.0579   29.9962 H   0  0  0  0  0  0  0  0  0  0  0  0
   37.9396   19.5879   29.5523 H   0  0  0  0  0  0  0  0  0  0  0  0
   35.7452   17.1270   31.0807 H   0  0  0  0  0  0  0  0  0  0  0  0
   37.1075   17.4270   29.9686 H   0  0  0  0  0  0  0  0  0  0  0  0
   37.1399   24.9939   37.5687 H   0  0  0  0  0  0  0  0  0  0  0  0
   37.0026   25.9428   35.2197 H   0  0  0  0  0  0  0  0  0  0  0  0
   39.9681   21.3314   38.0564 H   0  0  0  0  0  0  0  0  0  0  0  0
   42.2651   20.1417   38.0848 H   0  0  0  0  0  0  0  0  0  0  0  0
   44.6718   20.5243   36.6983 H   0  0  0  0  0  0  0  0  0  0  0  0
   45.7914   21.9136   35.0059 H   0  0  0  0  0  0  0  0  0  0  0  0
   44.5680   23.7976   33.9073 H   0  0  0  0  0  0  0  0  0  0  0  0
   42.2122   24.2351   34.5566 H   0  0  0  0  0  0  0  0  0  0  0  0
  1 18  1  0
  2  1  1  0
  3  2  2  0
  4  3  1  0
  5  4  2  0
  5  6  1  0
  6  7  2  0
  7  2  1  0
  8  6  1  0
  8 14  1  0
  9  8  1  0
 10  9  2  0
 10 11  1  0
 11 13  2  0
 12 11  1  0
 13 14  1  0
 14 15  2  0
 16 21  2  0
 17 16  1  0
 18 19  1  0
 18 17  2  0
 19 20  2  0
 20 22  1  0
 20 21  1  0
 22 23  2  0
 23 24  1  0
 25 24  1  0
 26 25  2  0
 27 26  1  0
 28 29  1  0
 28 27  2  0
 29 30  2  0
 30 22  1  0
 30 25  1  0
  1 31  1  0
  1 32  1  0
  3 33  1  0
  4 34  1  0
  9 35  1  0
 10 36  1  0
 12 37  1  0
 12 38  1  0
 16 39  1  0
 17 40  1  0
 23 41  1  0
 24 42  1  0
 26 43  1  0
 27 44  1  0
 28 45  1  0
 29 46  1  0
M  ISO  8  31   8  32   8  33  14  34  14  35  14  36  14  39  14  40  14
M  ISO  6  41  14  42   9  43  14  44  14  45  14  46  14
M  END
>  <minimizedAffinity>  (1) 
-6.37633991

>  <minimizedRMSD>  (1) 
1.7326895

$$$$
