
     RDKit          3D

 34 36  0  0  0  0  0  0  0  0999 V2000
   38.1000   24.5700   33.2120 C   0  0  0  0  0  0  0  0  0  0  0  0
   37.3100   25.5850   32.7930 C   0  0  0  0  0  0  0  0  0  0  0  0
   36.2290   25.4240   31.9700 C   0  0  0  0  0  0  0  0  0  0  0  0
   35.9300   24.1750   31.5480 N   0  0  0  0  0  0  0  0  0  0  0  0
   36.6960   23.1320   31.9450 C   0  0  0  0  0  0  0  0  0  0  0  0
   37.7430   23.3210   32.7480 N   0  0  0  0  0  0  0  0  0  0  0  0
   36.4950   21.7580   31.5760 N   0  0  0  0  0  0  0  0  0  0  0  0
   37.4590   21.3050   30.7030 C   0  0  0  0  0  0  0  0  0  0  0  0
   37.4060   19.9970   30.2500 C   0  0  0  0  0  0  0  0  0  0  0  0
   36.3980   19.2080   30.6880 C   0  0  0  0  0  0  0  0  0  0  0  0
   36.3630   17.8710   30.2070 N   0  0  0  0  0  0  0  0  0  0  0  0
   35.4820   19.6690   31.5270 N   0  0  0  0  0  0  0  0  0  0  0  0
   35.5210   20.9360   31.9760 C   0  0  0  0  0  0  0  0  0  0  0  0
   34.7250   21.4780   32.7600 O   0  0  0  0  0  0  0  0  0  0  0  0
   39.2780   24.7060   34.1030 C   0  0  0  0  0  0  0  0  0  0  0  0
   37.7920   24.1710   37.5620 C   0  0  0  0  0  0  0  0  0  0  0  0
   37.9890   24.6750   36.2490 C   0  0  0  0  0  0  0  0  0  0  0  0
   39.0440   24.1990   35.4830 C   0  0  0  0  0  0  0  0  0  0  0  0
   39.8640   23.2380   36.0550 N   0  0  0  0  0  0  0  0  0  0  0  0
   39.6360   22.7980   37.2940 C   0  0  0  0  0  0  0  0  0  0  0  0
   38.6260   23.2470   38.0390 N   0  0  0  0  0  0  0  0  0  0  0  0
   40.4870   21.8120   37.8650 N   0  0  0  0  0  0  0  0  0  0  0  0
   37.5515   26.6022   33.1350 H   0  0  0  0  0  0  0  0  0  0  0  0
   35.6204   26.2864   31.6605 H   0  0  0  0  0  0  0  0  0  0  0  0
   38.2639   21.9759   30.3684 H   0  0  0  0  0  0  0  0  0  0  0  0
   38.1635   19.6100   29.5525 H   0  0  0  0  0  0  0  0  0  0  0  0
   35.6143   17.2331   30.5127 H   0  0  0  0  0  0  0  0  0  0  0  0
   37.0864   17.5400   29.5527 H   0  0  0  0  0  0  0  0  0  0  0  0
   40.1138   24.1425   33.6627 H   0  0  0  0  0  0  0  0  0  0  0  0
   39.4960   25.7809   34.1872 H   0  0  0  0  0  0  0  0  0  0  0  0
   36.9594   24.5395   38.1793 H   0  0  0  0  0  0  0  0  0  0  0  0
   37.3095   25.4381   35.8415 H   0  0  0  0  0  0  0  0  0  0  0  0
   40.3118   21.4718   38.8213 H   0  0  0  0  0  0  0  0  0  0  0  0
   41.2786   21.4381   37.3223 H   0  0  0  0  0  0  0  0  0  0  0  0
  1 15  1  0
  2  1  2  0
  3  2  1  0
  4  5  1  0
  4  3  2  0
  5  6  2  0
  6  1  1  0
  7  5  1  0
  7 13  1  0
  8  7  1  0
  9 10  1  0
  9  8  2  0
 10 12  2  0
 11 10  1  0
 12 13  1  0
 13 14  2  0
 15 18  1  0
 16 21  2  0
 17 16  1  0
 18 19  1  0
 18 17  2  0
 19 20  2  0
 20 22  1  0
 20 21  1  0
  2 23  1  0
  3 24  1  0
  8 25  1  0
  9 26  1  0
 11 27  1  0
 11 28  1  0
 15 29  1  0
 15 30  1  0
 16 31  1  0
 17 32  1  0
 22 33  1  0
 22 34  1  0
M  ISO  8  23  14  24  14  25  14  26  14  29   8  30   8  31  14  32  14
M  END
>  <minimizedAffinity>  (1) 
-6.13211775

>  <minimizedRMSD>  (1) 
0.444316477

$$$$
