
     RDKit          3D

 39 42  0  0  0  0  0  0  0  0999 V2000
   37.5570   24.9120   32.6850 C   0  0  0  0  0  0  0  0  0  0  0  0
   36.6560   25.8080   32.1730 C   0  0  0  0  0  0  0  0  0  0  0  0
   35.5880   25.4490   31.3980 C   0  0  0  0  0  0  0  0  0  0  0  0
   35.4130   24.1430   31.1270 N   0  0  0  0  0  0  0  0  0  0  0  0
   36.2770   23.2300   31.6130 C   0  0  0  0  0  0  0  0  0  0  0  0
   37.3100   23.6130   32.3650 N   0  0  0  0  0  0  0  0  0  0  0  0
   36.2130   21.8100   31.4030 N   0  0  0  0  0  0  0  0  0  0  0  0
   37.1960   21.3540   30.5700 C   0  0  0  0  0  0  0  0  0  0  0  0
   37.2610   19.9980   30.2730 C   0  0  0  0  0  0  0  0  0  0  0  0
   36.3390   19.1650   30.8240 C   0  0  0  0  0  0  0  0  0  0  0  0
   36.4210   17.7910   30.5110 N   0  0  0  0  0  0  0  0  0  0  0  0
   35.3960   19.6440   31.6310 N   0  0  0  0  0  0  0  0  0  0  0  0
   35.3260   20.9490   31.9220 C   0  0  0  0  0  0  0  0  0  0  0  0
   34.4870   21.4980   32.6630 O   0  0  0  0  0  0  0  0  0  0  0  0
   38.7250   25.2690   33.5260 C   0  0  0  0  0  0  0  0  0  0  0  0
   37.8280   24.1110   37.0390 C   0  0  0  0  0  0  0  0  0  0  0  0
   37.7660   24.8040   35.7970 C   0  0  0  0  0  0  0  0  0  0  0  0
   38.7560   24.5600   34.8450 C   0  0  0  0  0  0  0  0  0  0  0  0
   39.7420   23.6590   35.1590 N   0  0  0  0  0  0  0  0  0  0  0  0
   39.7680   23.0340   36.3240 C   0  0  0  0  0  0  0  0  0  0  0  0
   38.8240   23.2500   37.2610 N   0  0  0  0  0  0  0  0  0  0  0  0
   40.8300   22.0800   36.6320 C   0  0  0  0  0  0  0  0  0  0  0  0
   41.8450   21.6350   35.8110 C   0  0  0  0  0  0  0  0  0  0  0  0
   42.6360   20.7530   36.4460 N   0  0  0  0  0  0  0  0  0  0  0  0
   42.1040   20.6440   37.6980 C   0  0  0  0  0  0  0  0  0  0  0  0
   41.0050   21.4450   37.8250 N   0  0  0  0  0  0  0  0  0  0  0  0
   36.7995   26.8752   32.3977 H   0  0  0  0  0  0  0  0  0  0  0  0
   34.8922   26.2062   31.0075 H   0  0  0  0  0  0  0  0  0  0  0  0
   37.9280   22.0530   30.1392 H   0  0  0  0  0  0  0  0  0  0  0  0
   38.0428   19.6067   29.6055 H   0  0  0  0  0  0  0  0  0  0  0  0
   35.7392   17.1303   30.9103 H   0  0  0  0  0  0  0  0  0  0  0  0
   37.1627   17.4492   29.8833 H   0  0  0  0  0  0  0  0  0  0  0  0
   39.6415   25.0148   32.9734 H   0  0  0  0  0  0  0  0  0  0  0  0
   38.6496   26.3451   33.7410 H   0  0  0  0  0  0  0  0  0  0  0  0
   37.0618   24.2834   37.8092 H   0  0  0  0  0  0  0  0  0  0  0  0
   36.9540   25.5173   35.5922 H   0  0  0  0  0  0  0  0  0  0  0  0
   41.9888   21.9602   34.7700 H   0  0  0  0  0  0  0  0  0  0  0  0
   42.5048   20.0001   38.4947 H   0  0  0  0  0  0  0  0  0  0  0  0
   40.4184   21.5495   38.6651 H   0  0  0  0  0  0  0  0  0  0  0  0
  1 15  1  0
  2  1  2  0
  3  2  1  0
  4  3  2  0
  4  5  1  0
  5  6  2  0
  6  1  1  0
  7  5  1  0
  7 13  1  0
  8  7  1  0
  9  8  2  0
  9 10  1  0
 10 12  2  0
 11 10  1  0
 12 13  1  0
 13 14  2  0
 15 18  1  0
 16 21  2  0
 17 16  1  0
 18 19  1  0
 18 17  2  0
 19 20  2  0
 20 22  1  0
 20 21  1  0
 22 26  1  0
 23 24  1  0
 23 22  2  0
 24 25  2  0
 25 26  1  0
  2 27  1  0
  3 28  1  0
  8 29  1  0
  9 30  1  0
 11 31  1  0
 11 32  1  0
 15 33  1  0
 15 34  1  0
 16 35  1  0
 17 36  1  0
 23 37  1  0
 25 38  1  0
 26 39  1  0
M  ISO  8  27  14  28  14  29  14  30  14  33   8  34   8  35  14  36  14
M  ISO  3  37  14  38  14  39   9
M  END
>  <minimizedAffinity>  (1) 
-6.12425137

>  <minimizedRMSD>  (1) 
1.42793739

$$$$
