
     RDKit          3D

 39 42  0  0  0  0  0  0  0  0999 V2000
   37.5640   24.9280   32.5070 C   0  0  0  0  0  0  0  0  0  0  0  0
   36.6550   25.8120   31.9960 C   0  0  0  0  0  0  0  0  0  0  0  0
   35.5620   25.4310   31.2580 C   0  0  0  0  0  0  0  0  0  0  0  0
   35.3830   24.1130   31.0300 N   0  0  0  0  0  0  0  0  0  0  0  0
   36.2660   23.2090   31.5220 C   0  0  0  0  0  0  0  0  0  0  0  0
   37.3110   23.6090   32.2310 N   0  0  0  0  0  0  0  0  0  0  0  0
   36.1920   21.7950   31.3540 N   0  0  0  0  0  0  0  0  0  0  0  0
   37.1590   21.3180   30.5020 C   0  0  0  0  0  0  0  0  0  0  0  0
   37.2180   19.9510   30.2360 C   0  0  0  0  0  0  0  0  0  0  0  0
   36.3100   19.1290   30.8330 C   0  0  0  0  0  0  0  0  0  0  0  0
   36.3830   17.7460   30.5520 N   0  0  0  0  0  0  0  0  0  0  0  0
   35.3830   19.6240   31.6550 N   0  0  0  0  0  0  0  0  0  0  0  0
   35.3290   20.9340   31.9090 C   0  0  0  0  0  0  0  0  0  0  0  0
   34.5050   21.5030   32.6600 O   0  0  0  0  0  0  0  0  0  0  0  0
   38.7460   25.3160   33.3020 C   0  0  0  0  0  0  0  0  0  0  0  0
   37.9010   24.5030   36.9150 C   0  0  0  0  0  0  0  0  0  0  0  0
   37.8380   25.1010   35.6300 C   0  0  0  0  0  0  0  0  0  0  0  0
   38.7750   24.7130   34.6690 C   0  0  0  0  0  0  0  0  0  0  0  0
   39.6980   23.7690   35.0450 N   0  0  0  0  0  0  0  0  0  0  0  0
   39.7260   23.2320   36.2520 C   0  0  0  0  0  0  0  0  0  0  0  0
   38.8410   23.5890   37.1850 N   0  0  0  0  0  0  0  0  0  0  0  0
   40.7670   22.2410   36.5030 C   0  0  0  0  0  0  0  0  0  0  0  0
   41.6940   21.7300   35.6220 C   0  0  0  0  0  0  0  0  0  0  0  0
   42.4250   20.8360   36.3880 C   0  0  0  0  0  0  0  0  0  0  0  0
   41.9790   20.8030   37.6410 N   0  0  0  0  0  0  0  0  0  0  0  0
   40.9660   21.6630   37.7120 N   0  0  0  0  0  0  0  0  0  0  0  0
   36.8074   26.8847   32.1861 H   0  0  0  0  0  0  0  0  0  0  0  0
   34.8547   26.1762   30.8650 H   0  0  0  0  0  0  0  0  0  0  0  0
   37.8782   22.0071   30.0353 H   0  0  0  0  0  0  0  0  0  0  0  0
   37.9823   19.5440   29.5577 H   0  0  0  0  0  0  0  0  0  0  0  0
   35.7122   17.0961   30.9862 H   0  0  0  0  0  0  0  0  0  0  0  0
   37.1070   17.3878   29.9130 H   0  0  0  0  0  0  0  0  0  0  0  0
   39.6487   24.9948   32.7616 H   0  0  0  0  0  0  0  0  0  0  0  0
   38.7011   26.4073   33.4330 H   0  0  0  0  0  0  0  0  0  0  0  0
   37.1762   24.7909   37.6907 H   0  0  0  0  0  0  0  0  0  0  0  0
   37.0695   25.8524   35.3958 H   0  0  0  0  0  0  0  0  0  0  0  0
   41.8240   21.9747   34.5575 H   0  0  0  0  0  0  0  0  0  0  0  0
   43.2637   20.2330   36.0098 H   0  0  0  0  0  0  0  0  0  0  0  0
   42.3471   20.2232   38.4086 H   0  0  0  0  0  0  0  0  0  0  0  0
  1 15  1  0
  2  1  2  0
  3  2  1  0
  4  3  2  0
  4  5  1  0
  5  6  2  0
  6  1  1  0
  7  5  1  0
  7 13  1  0
  8  7  1  0
  9  8  2  0
  9 10  1  0
 10 12  2  0
 11 10  1  0
 12 13  1  0
 13 14  2  0
 15 18  1  0
 16 21  2  0
 17 16  1  0
 18 19  1  0
 18 17  2  0
 19 20  2  0
 20 22  1  0
 20 21  1  0
 22 26  2  0
 23 24  2  0
 23 22  1  0
 24 25  1  0
 25 26  1  0
  2 27  1  0
  3 28  1  0
  8 29  1  0
  9 30  1  0
 11 31  1  0
 11 32  1  0
 15 33  1  0
 15 34  1  0
 16 35  1  0
 17 36  1  0
 23 37  1  0
 24 38  1  0
 25 39  1  0
M  ISO  8  27  14  28  14  29  14  30  14  33   8  34   8  35  14  36  14
M  ISO  3  37  14  38  14  39   9
M  END
>  <minimizedAffinity>  (1) 
-6.07348633

>  <minimizedRMSD>  (1) 
1.45309544

$$$$
