
     RDKit          3D

 45 48  0  0  0  0  0  0  0  0999 V2000
   37.3410   25.1970   32.3990 C   0  0  0  0  0  0  0  0  0  0  0  0
   36.3960   26.0200   31.8560 C   0  0  0  0  0  0  0  0  0  0  0  0
   35.3160   25.5520   31.1330 C   0  0  0  0  0  0  0  0  0  0  0  0
   35.1940   24.2280   30.9600 N   0  0  0  0  0  0  0  0  0  0  0  0
   36.1030   23.3840   31.4800 C   0  0  0  0  0  0  0  0  0  0  0  0
   37.1410   23.8660   32.1770 N   0  0  0  0  0  0  0  0  0  0  0  0
   36.0940   21.9580   31.3710 N   0  0  0  0  0  0  0  0  0  0  0  0
   37.0800   21.4800   30.5460 C   0  0  0  0  0  0  0  0  0  0  0  0
   37.1990   20.1130   30.3400 C   0  0  0  0  0  0  0  0  0  0  0  0
   36.3220   19.2850   30.9730 C   0  0  0  0  0  0  0  0  0  0  0  0
   36.4560   17.8990   30.7530 N   0  0  0  0  0  0  0  0  0  0  0  0
   35.3810   19.7730   31.7620 N   0  0  0  0  0  0  0  0  0  0  0  0
   35.2580   21.0970   31.9690 C   0  0  0  0  0  0  0  0  0  0  0  0
   34.4150   21.6640   32.6880 O   0  0  0  0  0  0  0  0  0  0  0  0
   38.5060   25.6530   33.1760 C   0  0  0  0  0  0  0  0  0  0  0  0
   37.9830   24.6580   36.8140 C   0  0  0  0  0  0  0  0  0  0  0  0
   37.8200   25.3170   35.5690 C   0  0  0  0  0  0  0  0  0  0  0  0
   38.6580   24.9720   34.5050 C   0  0  0  0  0  0  0  0  0  0  0  0
   39.6090   24.0020   34.7200 N   0  0  0  0  0  0  0  0  0  0  0  0
   39.7220   23.4120   35.9130 C   0  0  0  0  0  0  0  0  0  0  0  0
   38.9340   23.7240   36.9430 N   0  0  0  0  0  0  0  0  0  0  0  0
   40.7660   22.3780   36.0770 C   0  0  0  0  0  0  0  0  0  0  0  0
   42.1650   22.9490   35.9620 C   0  0  0  0  0  0  0  0  0  0  0  0
   43.0150   21.8450   36.5010 C   0  0  0  0  0  0  0  0  0  0  0  0
   42.1440   21.1190   37.4890 C   0  0  0  0  0  0  0  0  0  0  0  0
   40.8240   21.8780   37.5250 C   0  0  0  0  0  0  0  0  0  0  0  0
   36.4997   27.1055   32.0011 H   0  0  0  0  0  0  0  0  0  0  0  0
   34.5756   26.2472   30.7104 H   0  0  0  0  0  0  0  0  0  0  0  0
   37.7725   22.1764   30.0505 H   0  0  0  0  0  0  0  0  0  0  0  0
   37.9820   19.7081   29.6820 H   0  0  0  0  0  0  0  0  0  0  0  0
   35.8123   17.2399   31.2135 H   0  0  0  0  0  0  0  0  0  0  0  0
   37.1977   17.5455   30.1318 H   0  0  0  0  0  0  0  0  0  0  0  0
   39.4130   25.4620   32.5837 H   0  0  0  0  0  0  0  0  0  0  0  0
   38.3521   26.7225   33.3822 H   0  0  0  0  0  0  0  0  0  0  0  0
   37.3345   24.9115   37.6656 H   0  0  0  0  0  0  0  0  0  0  0  0
   37.0457   26.0881   35.4426 H   0  0  0  0  0  0  0  0  0  0  0  0
   40.5102   21.6254   35.3166 H   0  0  0  0  0  0  0  0  0  0  0  0
   42.4186   23.1698   34.9146 H   0  0  0  0  0  0  0  0  0  0  0  0
   42.2937   23.9008   36.4982 H   0  0  0  0  0  0  0  0  0  0  0  0
   43.3262   21.1682   35.6916 H   0  0  0  0  0  0  0  0  0  0  0  0
   43.9347   22.2267   36.9683 H   0  0  0  0  0  0  0  0  0  0  0  0
   41.9792   20.0815   37.1626 H   0  0  0  0  0  0  0  0  0  0  0  0
   42.6118   21.0784   38.4837 H   0  0  0  0  0  0  0  0  0  0  0  0
   40.8510   22.7103   38.2437 H   0  0  0  0  0  0  0  0  0  0  0  0
   39.9558   21.2833   37.8453 H   0  0  0  0  0  0  0  0  0  0  0  0
  1 15  1  0
  2  1  2  0
  3  2  1  0
  4  3  2  0
  4  5  1  0
  5  6  2  0
  6  1  1  0
  7  5  1  0
  7 13  1  0
  8  7  1  0
  9  8  2  0
  9 10  1  0
 10 12  2  0
 11 10  1  0
 12 13  1  0
 13 14  2  0
 15 18  1  0
 16 21  2  0
 17 16  1  0
 18 19  1  0
 18 17  2  0
 19 20  2  0
 20 22  1  0
 20 21  1  0
 22 26  1  0
 23 22  1  0
 23 24  1  0
 24 25  1  0
 25 26  1  0
  2 27  1  0
  3 28  1  0
  8 29  1  0
  9 30  1  0
 11 31  1  0
 11 32  1  0
 15 33  1  0
 15 34  1  0
 16 35  1  0
 17 36  1  0
 22 37  1  0
 23 38  1  0
 23 39  1  0
 24 40  1  0
 24 41  1  0
 25 42  1  0
 25 43  1  0
 26 44  1  0
 26 45  1  0
M  ISO  8  27  14  28  14  29  14  30  14  33   8  34   8  35  14  36  14
M  ISO  8  37  13  38  13  39  13  40  13  41  13  42  13  43  13  44  13
M  ISO  1  45  13
M  END
>  <minimizedAffinity>  (1) 
-6.04455137

>  <minimizedRMSD>  (1) 
1.61576247

$$$$
