
     RDKit          3D

 40 43  0  0  0  0  0  0  0  0999 V2000
   37.4860   25.5150   32.7900 C   0  0  0  0  0  0  0  0  0  0  0  0
   36.5590   26.3100   32.1770 C   0  0  0  0  0  0  0  0  0  0  0  0
   35.6120   25.8450   31.2900 C   0  0  0  0  0  0  0  0  0  0  0  0
   35.6020   24.5240   31.0090 N   0  0  0  0  0  0  0  0  0  0  0  0
   36.4970   23.7070   31.5910 C   0  0  0  0  0  0  0  0  0  0  0  0
   37.4060   24.1810   32.4500 N   0  0  0  0  0  0  0  0  0  0  0  0
   36.5980   22.2920   31.3850 N   0  0  0  0  0  0  0  0  0  0  0  0
   37.7120   21.9390   30.6650 C   0  0  0  0  0  0  0  0  0  0  0  0
   37.9470   20.6000   30.3850 C   0  0  0  0  0  0  0  0  0  0  0  0
   37.0650   19.6740   30.8330 C   0  0  0  0  0  0  0  0  0  0  0  0
   37.3230   18.3240   30.5390 N   0  0  0  0  0  0  0  0  0  0  0  0
   35.9920   20.0450   31.5300 N   0  0  0  0  0  0  0  0  0  0  0  0
   35.7520   21.3370   31.8080 C   0  0  0  0  0  0  0  0  0  0  0  0
   34.7900   21.8000   32.4450 O   0  0  0  0  0  0  0  0  0  0  0  0
   38.5090   25.9640   33.7410 C   0  0  0  0  0  0  0  0  0  0  0  0
   37.8740   24.3710   37.1390 C   0  0  0  0  0  0  0  0  0  0  0  0
   37.7340   25.2070   36.0090 C   0  0  0  0  0  0  0  0  0  0  0  0
   38.6320   25.0890   34.9550 C   0  0  0  0  0  0  0  0  0  0  0  0
   39.6290   24.1450   35.0730 N   0  0  0  0  0  0  0  0  0  0  0  0
   39.7280   23.3800   36.1470 C   0  0  0  0  0  0  0  0  0  0  0  0
   38.8690   23.4840   37.1680 N   0  0  0  0  0  0  0  0  0  0  0  0
   40.7900   22.3870   36.2500 C   0  0  0  0  0  0  0  0  0  0  0  0
   41.1370   21.7990   37.4490 C   0  0  0  0  0  0  0  0  0  0  0  0
   42.1420   20.8570   37.5550 C   0  0  0  0  0  0  0  0  0  0  0  0
   42.8330   20.4730   36.4620 N   0  0  0  0  0  0  0  0  0  0  0  0
   42.4960   21.0460   35.2910 C   0  0  0  0  0  0  0  0  0  0  0  0
   41.5100   21.9680   35.1950 N   0  0  0  0  0  0  0  0  0  0  0  0
   36.5691   27.3860   32.4052 H   0  0  0  0  0  0  0  0  0  0  0  0
   34.8866   26.5289   30.8252 H   0  0  0  0  0  0  0  0  0  0  0  0
   38.4125   22.7106   30.3129 H   0  0  0  0  0  0  0  0  0  0  0  0
   38.8337   20.2959   29.8095 H   0  0  0  0  0  0  0  0  0  0  0  0
   36.6740   17.5931   30.8637 H   0  0  0  0  0  0  0  0  0  0  0  0
   38.1611   18.0656   29.9989 H   0  0  0  0  0  0  0  0  0  0  0  0
   39.4801   25.9794   33.2245 H   0  0  0  0  0  0  0  0  0  0  0  0
   38.2043   26.9605   34.0933 H   0  0  0  0  0  0  0  0  0  0  0  0
   37.1725   24.4506   37.9825 H   0  0  0  0  0  0  0  0  0  0  0  0
   36.9203   25.9458   35.9637 H   0  0  0  0  0  0  0  0  0  0  0  0
   40.5910   22.0923   38.3578 H   0  0  0  0  0  0  0  0  0  0  0  0
   42.3798   20.4181   38.5352 H   0  0  0  0  0  0  0  0  0  0  0  0
   43.0410   20.7546   34.3810 H   0  0  0  0  0  0  0  0  0  0  0  0
  1 15  1  0
  2  1  2  0
  3  2  1  0
  4  3  2  0
  4  5  1  0
  5  6  2  0
  6  1  1  0
  7  5  1  0
  7 13  1  0
  8  7  1  0
  9  8  2  0
  9 10  1  0
 10 12  2  0
 11 10  1  0
 12 13  1  0
 13 14  2  0
 15 18  1  0
 16 21  2  0
 17 16  1  0
 18 19  1  0
 18 17  2  0
 19 20  2  0
 20 22  1  0
 20 21  1  0
 22 23  2  0
 23 24  1  0
 25 24  2  0
 26 25  1  0
 27 26  2  0
 27 22  1  0
  2 28  1  0
  3 29  1  0
  8 30  1  0
  9 31  1  0
 11 32  1  0
 11 33  1  0
 15 34  1  0
 15 35  1  0
 16 36  1  0
 17 37  1  0
 23 38  1  0
 24 39  1  0
 26 40  1  0
M  ISO  8  28  14  29  14  30  14  31  14  34   8  35   8  36  14  37  14
M  ISO  3  38  14  39  14  40  14
M  END
>  <minimizedAffinity>  (1) 
-5.90863228

>  <minimizedRMSD>  (1) 
1.81924903

$$$$
