
     RDKit          3D

 35 37  0  0  0  0  0  0  0  0999 V2000
   37.6280   24.7210   32.6020 C   0  0  0  0  0  0  0  0  0  0  0  0
   36.7080   25.6040   32.1000 C   0  0  0  0  0  0  0  0  0  0  0  0
   35.6020   25.2200   31.3790 C   0  0  0  0  0  0  0  0  0  0  0  0
   35.4170   23.9060   31.1570 N   0  0  0  0  0  0  0  0  0  0  0  0
   36.2910   23.0040   31.6280 C   0  0  0  0  0  0  0  0  0  0  0  0
   37.3650   23.3990   32.3290 N   0  0  0  0  0  0  0  0  0  0  0  0
   36.2120   21.5870   31.4630 N   0  0  0  0  0  0  0  0  0  0  0  0
   37.1640   21.0970   30.5980 C   0  0  0  0  0  0  0  0  0  0  0  0
   37.2190   19.7400   30.3330 C   0  0  0  0  0  0  0  0  0  0  0  0
   36.3160   18.9180   30.9430 C   0  0  0  0  0  0  0  0  0  0  0  0
   36.3800   17.5440   30.6680 N   0  0  0  0  0  0  0  0  0  0  0  0
   35.4000   19.4190   31.7790 N   0  0  0  0  0  0  0  0  0  0  0  0
   35.3450   20.7360   32.0390 C   0  0  0  0  0  0  0  0  0  0  0  0
   34.5440   21.3140   32.7930 O   0  0  0  0  0  0  0  0  0  0  0  0
   38.8250   25.0770   33.3770 C   0  0  0  0  0  0  0  0  0  0  0  0
   37.8130   24.2770   36.9640 C   0  0  0  0  0  0  0  0  0  0  0  0
   37.7900   24.8080   35.6420 C   0  0  0  0  0  0  0  0  0  0  0  0
   38.8260   24.5320   34.7670 C   0  0  0  0  0  0  0  0  0  0  0  0
   39.8560   23.7320   35.2340 N   0  0  0  0  0  0  0  0  0  0  0  0
   39.8470   23.2540   36.4650 C   0  0  0  0  0  0  0  0  0  0  0  0
   38.8370   23.5220   37.3240 N   0  0  0  0  0  0  0  0  0  0  0  0
   40.9740   22.3950   36.9370 C   0  0  0  0  0  0  0  0  0  0  0  0
   40.6780   21.6830   38.0660 F   0  0  0  0  0  0  0  0  0  0  0  0
   41.2960   21.4460   35.9550 F   0  0  0  0  0  0  0  0  0  0  0  0
   42.1350   23.1390   37.0890 F   0  0  0  0  0  0  0  0  0  0  0  0
   36.8627   26.6775   32.2837 H   0  0  0  0  0  0  0  0  0  0  0  0
   34.8896   25.9650   30.9951 H   0  0  0  0  0  0  0  0  0  0  0  0
   37.8789   21.7821   30.1189 H   0  0  0  0  0  0  0  0  0  0  0  0
   37.9745   19.3323   29.6453 H   0  0  0  0  0  0  0  0  0  0  0  0
   35.7123   16.8981   31.1129 H   0  0  0  0  0  0  0  0  0  0  0  0
   37.0947   17.1810   30.0212 H   0  0  0  0  0  0  0  0  0  0  0  0
   39.7082   24.6862   32.8504 H   0  0  0  0  0  0  0  0  0  0  0  0
   38.8374   26.1736   33.4624 H   0  0  0  0  0  0  0  0  0  0  0  0
   36.9967   24.4905   37.6697 H   0  0  0  0  0  0  0  0  0  0  0  0
   36.9486   25.4375   35.3168 H   0  0  0  0  0  0  0  0  0  0  0  0
  1 15  1  0
  2  1  2  0
  3  2  1  0
  4  3  2  0
  4  5  1  0
  5  6  2  0
  6  1  1  0
  7  5  1  0
  7 13  1  0
  8  7  1  0
  9  8  2  0
  9 10  1  0
 10 12  2  0
 11 10  1  0
 12 13  1  0
 13 14  2  0
 15 18  1  0
 16 21  2  0
 17 16  1  0
 18 19  1  0
 18 17  2  0
 19 20  2  0
 20 22  1  0
 20 21  1  0
 22 25  1  0
 22 23  1  0
 24 22  1  0
  2 26  1  0
  3 27  1  0
  8 28  1  0
  9 29  1  0
 11 30  1  0
 11 31  1  0
 15 32  1  0
 15 33  1  0
 16 34  1  0
 17 35  1  0
M  ISO  8  26  14  27  14  28  14  29  14  32   8  33   8  34  14  35  14
M  END
>  <minimizedAffinity>  (1) 
-5.81710672

>  <minimizedRMSD>  (1) 
1.31639266

$$$$
