
     RDKit          3D

 39 42  0  0  0  0  0  0  0  0999 V2000
   37.4890   25.0100   32.5130 C   0  0  0  0  0  0  0  0  0  0  0  0
   36.5750   25.8730   31.9900 C   0  0  0  0  0  0  0  0  0  0  0  0
   35.4900   25.4740   31.2430 C   0  0  0  0  0  0  0  0  0  0  0  0
   35.3320   24.1560   31.0210 N   0  0  0  0  0  0  0  0  0  0  0  0
   36.2110   23.2690   31.5180 C   0  0  0  0  0  0  0  0  0  0  0  0
   37.2580   23.6810   32.2420 N   0  0  0  0  0  0  0  0  0  0  0  0
   36.1580   21.8500   31.3550 N   0  0  0  0  0  0  0  0  0  0  0  0
   37.1360   21.3680   30.5160 C   0  0  0  0  0  0  0  0  0  0  0  0
   37.2140   20.0100   30.2590 C   0  0  0  0  0  0  0  0  0  0  0  0
   36.3130   19.1840   30.8480 C   0  0  0  0  0  0  0  0  0  0  0  0
   36.4100   17.8030   30.5720 N   0  0  0  0  0  0  0  0  0  0  0  0
   35.3790   19.6720   31.6520 N   0  0  0  0  0  0  0  0  0  0  0  0
   35.2870   20.9830   31.9150 C   0  0  0  0  0  0  0  0  0  0  0  0
   34.4600   21.5530   32.6460 O   0  0  0  0  0  0  0  0  0  0  0  0
   38.6590   25.3980   33.3180 C   0  0  0  0  0  0  0  0  0  0  0  0
   37.9580   24.5090   36.9410 C   0  0  0  0  0  0  0  0  0  0  0  0
   37.8870   25.1430   35.6760 C   0  0  0  0  0  0  0  0  0  0  0  0
   38.7230   24.7380   34.6560 C   0  0  0  0  0  0  0  0  0  0  0  0
   39.5970   23.7170   34.9330 N   0  0  0  0  0  0  0  0  0  0  0  0
   39.6490   23.1320   36.1270 C   0  0  0  0  0  0  0  0  0  0  0  0
   38.8410   23.5200   37.1230 N   0  0  0  0  0  0  0  0  0  0  0  0
   40.6630   22.0290   36.2630 C   0  0  0  0  0  0  0  0  0  0  0  0
   41.2150   21.6840   37.5740 C   0  0  0  0  0  0  0  0  0  0  0  0
   42.0430   22.5730   36.6480 C   0  0  0  0  0  0  0  0  0  0  0  0
   36.7112   26.9488   32.1747 H   0  0  0  0  0  0  0  0  0  0  0  0
   34.7759   26.2078   30.8409 H   0  0  0  0  0  0  0  0  0  0  0  0
   37.8538   22.0596   30.0508 H   0  0  0  0  0  0  0  0  0  0  0  0
   37.9904   19.6088   29.5910 H   0  0  0  0  0  0  0  0  0  0  0  0
   35.7441   17.1442   31.0003 H   0  0  0  0  0  0  0  0  0  0  0  0
   37.1467   17.4542   29.9423 H   0  0  0  0  0  0  0  0  0  0  0  0
   39.5676   25.1323   32.7577 H   0  0  0  0  0  0  0  0  0  0  0  0
   38.5744   26.4794   33.5009 H   0  0  0  0  0  0  0  0  0  0  0  0
   37.2970   24.8250   37.7615 H   0  0  0  0  0  0  0  0  0  0  0  0
   37.1665   25.9569   35.5074 H   0  0  0  0  0  0  0  0  0  0  0  0
   40.2161   21.3978   35.4808 H   0  0  0  0  0  0  0  0  0  0  0  0
   40.7677   22.1109   38.4838 H   0  0  0  0  0  0  0  0  0  0  0  0
   41.4046   20.7385   38.1032 H   0  0  0  0  0  0  0  0  0  0  0  0
   42.9510   22.1826   36.1651 H   0  0  0  0  0  0  0  0  0  0  0  0
   42.5163   23.5639   36.7125 H   0  0  0  0  0  0  0  0  0  0  0  0
  1 15  1  0
  2  1  2  0
  3  2  1  0
  4  3  2  0
  4  5  1  0
  5  6  2  0
  6  1  1  0
  7  5  1  0
  7 13  1  0
  8  7  1  0
  9  8  2  0
  9 10  1  0
 10 12  2  0
 11 10  1  0
 12 13  1  0
 13 14  2  0
 15 18  1  0
 16 21  2  0
 17 16  1  0
 18 19  1  0
 18 17  2  0
 19 20  2  0
 20 22  1  0
 20 21  1  0
 22 24  1  0
 22 23  1  0
 24 23  1  0
  2 25  1  0
  3 26  1  0
  8 27  1  0
  9 28  1  0
 11 29  1  0
 11 30  1  0
 15 31  1  0
 15 32  1  0
 16 33  1  0
 17 34  1  0
 22 35  1  0
 23 36  1  0
 23 37  1  0
 24 38  1  0
 24 39  1  0
M  ISO  8  25  14  26  14  27  14  28  14  31   8  32   8  33  14  34  14
M  ISO  5  35  13  36  13  37  13  38  13  39  13
M  END
>  <minimizedAffinity>  (1) 
-5.66944695

>  <minimizedRMSD>  (1) 
1.28730488

$$$$
