
     RDKit          3D

 44 46  0  0  0  0  0  0  0  0999 V2000
   37.6590   24.7850   32.4830 C   0  0  0  0  0  0  0  0  0  0  0  0
   36.7050   25.6540   32.0240 C   0  0  0  0  0  0  0  0  0  0  0  0
   35.5600   25.2550   31.3620 C   0  0  0  0  0  0  0  0  0  0  0  0
   35.3810   23.9270   31.1600 N   0  0  0  0  0  0  0  0  0  0  0  0
   36.3030   23.0450   31.6010 C   0  0  0  0  0  0  0  0  0  0  0  0
   37.4010   23.4570   32.2390 N   0  0  0  0  0  0  0  0  0  0  0  0
   36.2270   21.6230   31.4490 N   0  0  0  0  0  0  0  0  0  0  0  0
   37.1380   21.1400   30.5360 C   0  0  0  0  0  0  0  0  0  0  0  0
   37.1920   19.7840   30.2760 C   0  0  0  0  0  0  0  0  0  0  0  0
   36.3370   18.9570   30.9340 C   0  0  0  0  0  0  0  0  0  0  0  0
   36.4080   17.5750   30.6540 N   0  0  0  0  0  0  0  0  0  0  0  0
   35.4630   19.4530   31.8170 N   0  0  0  0  0  0  0  0  0  0  0  0
   35.4090   20.7650   32.0690 C   0  0  0  0  0  0  0  0  0  0  0  0
   34.6380   21.3400   32.8680 O   0  0  0  0  0  0  0  0  0  0  0  0
   38.8850   25.1780   33.1890 C   0  0  0  0  0  0  0  0  0  0  0  0
   38.1880   24.1120   36.7820 C   0  0  0  0  0  0  0  0  0  0  0  0
   38.0250   24.7190   35.5070 C   0  0  0  0  0  0  0  0  0  0  0  0
   39.0230   24.5510   34.5480 C   0  0  0  0  0  0  0  0  0  0  0  0
   40.1300   23.7940   34.8930 N   0  0  0  0  0  0  0  0  0  0  0  0
   40.2370   23.2490   36.0920 C   0  0  0  0  0  0  0  0  0  0  0  0
   39.2920   23.3950   37.0320 N   0  0  0  0  0  0  0  0  0  0  0  0
   41.4810   22.4610   36.3220 C   0  0  0  0  0  0  0  0  0  0  0  0
   41.7920   21.5750   35.1120 C   0  0  0  0  0  0  0  0  0  0  0  0
   42.6710   23.3400   36.5630 C   0  0  0  0  0  0  0  0  0  0  0  0
   41.3450   21.5160   37.4940 C   0  0  0  0  0  0  0  0  0  0  0  0
   36.8592   26.7301   32.1919 H   0  0  0  0  0  0  0  0  0  0  0  0
   34.8198   25.9892   31.0113 H   0  0  0  0  0  0  0  0  0  0  0  0
   37.8191   21.8301   30.0165 H   0  0  0  0  0  0  0  0  0  0  0  0
   37.9135   19.3811   29.5500 H   0  0  0  0  0  0  0  0  0  0  0  0
   35.7753   16.9191   31.1341 H   0  0  0  0  0  0  0  0  0  0  0  0
   37.0925   17.2227   29.9697 H   0  0  0  0  0  0  0  0  0  0  0  0
   39.7494   24.8785   32.5782 H   0  0  0  0  0  0  0  0  0  0  0  0
   38.8364   26.2666   33.3390 H   0  0  0  0  0  0  0  0  0  0  0  0
   37.4153   24.2298   37.5560 H   0  0  0  0  0  0  0  0  0  0  0  0
   37.1263   25.3115   35.2807 H   0  0  0  0  0  0  0  0  0  0  0  0
   42.1378   20.5898   35.4581 H   0  0  0  0  0  0  0  0  0  0  0  0
   40.8833   21.4520   34.5044 H   0  0  0  0  0  0  0  0  0  0  0  0
   42.5782   22.0469   34.5044 H   0  0  0  0  0  0  0  0  0  0  0  0
   42.8280   23.4559   37.6456 H   0  0  0  0  0  0  0  0  0  0  0  0
   43.5628   22.8821   36.1102 H   0  0  0  0  0  0  0  0  0  0  0  0
   42.4955   24.3270   36.1102 H   0  0  0  0  0  0  0  0  0  0  0  0
   41.4265   22.0826   38.4333 H   0  0  0  0  0  0  0  0  0  0  0  0
   40.3658   21.0168   37.4508 H   0  0  0  0  0  0  0  0  0  0  0  0
   42.1437   20.7609   37.4508 H   0  0  0  0  0  0  0  0  0  0  0  0
  1 15  1  0
  2  1  2  0
  3  2  1  0
  4  3  2  0
  4  5  1  0
  5  6  2  0
  6  1  1  0
  7  5  1  0
  7 13  1  0
  8  7  1  0
  9  8  2  0
  9 10  1  0
 10 12  2  0
 11 10  1  0
 12 13  1  0
 13 14  2  0
 15 18  1  0
 16 21  2  0
 17 16  1  0
 18 19  1  0
 18 17  2  0
 19 20  2  0
 20 22  1  0
 20 21  1  0
 22 24  1  0
 22 25  1  0
 23 22  1  0
  2 26  1  0
  3 27  1  0
  8 28  1  0
  9 29  1  0
 11 30  1  0
 11 31  1  0
 15 32  1  0
 15 33  1  0
 16 34  1  0
 17 35  1  0
 23 36  1  0
 23 37  1  0
 23 38  1  0
 24 39  1  0
 24 40  1  0
 24 41  1  0
 25 42  1  0
 25 43  1  0
 25 44  1  0
M  ISO  8  26  14  27  14  28  14  29  14  32   8  33   8  34  14  35  14
M  ISO  8  36   8  37   8  38   8  39   8  40   8  41   8  42   8  43   8
M  ISO  1  44   8
M  END
>  <minimizedAffinity>  (1) 
-5.66011047

>  <minimizedRMSD>  (1) 
1.472368

$$$$
