
     RDKit          3D

 26 27  0  0  0  0  0  0  0  0999 V2000
   38.3450   25.4940   35.0360 C   0  0  0  0  0  0  0  0  0  0  0  0
   39.6670   22.9040   37.3550 C   0  0  0  0  0  0  0  0  0  0  0  0
   38.9490   23.1550   38.5340 C   0  0  0  0  0  0  0  0  0  0  0  0
   38.0130   24.2240   38.5080 C   0  0  0  0  0  0  0  0  0  0  0  0
   37.8890   24.9180   37.3390 N   0  0  0  0  0  0  0  0  0  0  0  0
   38.6040   24.6340   36.2350 C   0  0  0  0  0  0  0  0  0  0  0  0
   39.4910   23.6300   36.2420 N   0  0  0  0  0  0  0  0  0  0  0  0
   37.8200   26.8370   35.4780 C   0  0  0  0  0  0  0  0  0  0  0  0
   37.2610   27.5820   34.3450 C   0  0  0  0  0  0  0  0  0  0  0  0
   37.8660   27.3310   33.1120 C   0  0  0  0  0  0  0  0  0  0  0  0
   37.4880   27.9290   31.9320 C   0  0  0  0  0  0  0  0  0  0  0  0
   36.4330   28.8410   31.9830 C   0  0  0  0  0  0  0  0  0  0  0  0
   35.8330   29.0930   33.1970 C   0  0  0  0  0  0  0  0  0  0  0  0
   36.2250   28.4820   34.3780 C   0  0  0  0  0  0  0  0  0  0  0  0
   37.6013   25.0054   34.3893 H   0  0  0  0  0  0  0  0  0  0  0  0
   39.2830   25.6348   34.4790 H   0  0  0  0  0  0  0  0  0  0  0  0
   40.3994   22.0834   37.3436 H   0  0  0  0  0  0  0  0  0  0  0  0
   39.1040   22.5502   39.4397 H   0  0  0  0  0  0  0  0  0  0  0  0
   37.4131   24.4816   39.3933 H   0  0  0  0  0  0  0  0  0  0  0  0
   37.0335   26.6853   36.2319 H   0  0  0  0  0  0  0  0  0  0  0  0
   38.6534   27.4168   35.9015 H   0  0  0  0  0  0  0  0  0  0  0  0
   38.6965   26.6103   33.0821 H   0  0  0  0  0  0  0  0  0  0  0  0
   37.9976   27.6972   30.9851 H   0  0  0  0  0  0  0  0  0  0  0  0
   36.0870   29.3491   31.0708 H   0  0  0  0  0  0  0  0  0  0  0  0
   35.0028   29.8138   33.2310 H   0  0  0  0  0  0  0  0  0  0  0  0
   35.7150   28.7142   35.3246 H   0  0  0  0  0  0  0  0  0  0  0  0
  1  8  1  0
  1  6  1  0
  2  3  2  0
  4  3  1  0
  5  4  2  0
  6  7  2  0
  6  5  1  0
  7  2  1  0
  9 14  1  0
  9  8  1  0
 10  9  2  0
 11 12  2  0
 11 10  1  0
 12 13  1  0
 13 14  2  0
  1 15  1  0
  1 16  1  0
  2 17  1  0
  3 18  1  0
  4 19  1  0
  8 20  1  0
  8 21  1  0
 10 22  1  0
 11 23  1  0
 12 24  1  0
 13 25  1  0
 14 26  1  0
M  ISO  8  15   8  16   8  17  14  18  14  19  14  20   8  21   8  22  14
M  ISO  4  23  14  24  14  25  14  26  14
M  END
>  <minimizedAffinity>  (1) 
-4.35100269

>  <minimizedRMSD>  (1) 
1.40847874

$$$$
