
     RDKit          3D

 53 56  0  0  1  0  0  0  0  0999 V2000
   39.0600   24.8860   33.2980 C   0  0  0  0  0  0  0  0  0  0  0  0
   37.8260   24.5450   32.5810 C   0  0  0  0  0  0  0  0  0  0  0  0
   36.9020   25.4460   32.1530 C   0  0  0  0  0  0  0  0  0  0  0  0
   35.7450   25.0940   31.4790 C   0  0  0  0  0  0  0  0  0  0  0  0
   35.5290   23.7940   31.2400 N   0  0  0  0  0  0  0  0  0  0  0  0
   36.4180   22.8670   31.6460 C   0  0  0  0  0  0  0  0  0  0  0  0
   37.5320   23.2430   32.2980 N   0  0  0  0  0  0  0  0  0  0  0  0
   36.3130   21.4460   31.4570 N   0  0  0  0  0  0  0  0  0  0  0  0
   37.2110   20.9620   30.5430 C   0  0  0  0  0  0  0  0  0  0  0  0
   37.2350   19.6090   30.2500 C   0  0  0  0  0  0  0  0  0  0  0  0
   36.3520   18.7950   30.8930 C   0  0  0  0  0  0  0  0  0  0  0  0
   36.3810   17.4220   30.5900 N   0  0  0  0  0  0  0  0  0  0  0  0
   35.4950   19.2970   31.7730 N   0  0  0  0  0  0  0  0  0  0  0  0
   35.4690   20.6060   32.0580 C   0  0  0  0  0  0  0  0  0  0  0  0
   34.7120   21.1810   32.8610 O   0  0  0  0  0  0  0  0  0  0  0  0
   38.1430   23.6000   36.7560 C   0  0  0  0  0  0  0  0  0  0  0  0
   38.0270   24.1730   35.4660 C   0  0  0  0  0  0  0  0  0  0  0  0
   39.1600   24.2780   34.6650 C   0  0  0  0  0  0  0  0  0  0  0  0
   40.3630   23.8070   35.1810 N   0  0  0  0  0  0  0  0  0  0  0  0
   40.4050   23.2810   36.4030 C   0  0  0  0  0  0  0  0  0  0  0  0
   39.3410   23.1710   37.1820 N   0  0  0  0  0  0  0  0  0  0  0  0
   41.7650   22.8140   36.8270 C   0  0  1  0  0  0  0  0  0  0  0  0
   41.6240   21.3610   37.2620 C   0  0  0  0  0  0  0  0  0  0  0  0
   42.7780   22.9340   35.7570 C   0  0  0  0  0  0  0  0  0  0  0  0
   43.9340   23.5370   36.2550 N   0  0  0  0  0  0  0  0  0  0  0  0
   43.9520   24.8680   36.6840 C   0  0  0  0  0  0  0  0  0  0  0  0
   45.2530   24.9360   37.4960 C   0  0  0  0  0  0  0  0  0  0  0  0
   46.1490   24.0020   36.7090 C   0  0  0  0  0  0  0  0  0  0  0  0
   45.2120   23.0100   36.0040 C   0  0  0  0  0  0  0  0  0  0  0  0
   39.1085   25.9800   33.4018 H   0  0  0  0  0  0  0  0  0  0  0  0
   39.8937   24.4787   32.7072 H   0  0  0  0  0  0  0  0  0  0  0  0
   37.0836   26.5123   32.3531 H   0  0  0  0  0  0  0  0  0  0  0  0
   35.0255   25.8583   31.1500 H   0  0  0  0  0  0  0  0  0  0  0  0
   37.9116   21.6468   30.0428 H   0  0  0  0  0  0  0  0  0  0  0  0
   37.9479   19.2023   29.5177 H   0  0  0  0  0  0  0  0  0  0  0  0
   35.7275   16.7775   31.0574 H   0  0  0  0  0  0  0  0  0  0  0  0
   37.0558   17.0609   29.9007 H   0  0  0  0  0  0  0  0  0  0  0  0
   37.2585   23.5074   37.4033 H   0  0  0  0  0  0  0  0  0  0  0  0
   37.0527   24.5308   35.1016 H   0  0  0  0  0  0  0  0  0  0  0  0
   42.1230   23.4528   37.6478 H   0  0  0  0  0  0  0  0  0  0  0  0
   41.6187   21.3060   38.3606 H   0  0  0  0  0  0  0  0  0  0  0  0
   40.6818   20.9506   36.8698 H   0  0  0  0  0  0  0  0  0  0  0  0
   42.4697   20.7771   36.8698 H   0  0  0  0  0  0  0  0  0  0  0  0
   42.3718   23.5468   34.9388 H   0  0  0  0  0  0  0  0  0  0  0  0
   43.0282   21.9297   35.3845 H   0  0  0  0  0  0  0  0  0  0  0  0
   43.9794   25.5609   35.8301 H   0  0  0  0  0  0  0  0  0  0  0  0
   43.0597   25.1561   37.2592 H   0  0  0  0  0  0  0  0  0  0  0  0
   45.6593   25.9580   37.5192 H   0  0  0  0  0  0  0  0  0  0  0  0
   45.1362   24.6598   38.5543 H   0  0  0  0  0  0  0  0  0  0  0  0
   46.7340   24.5673   35.9686 H   0  0  0  0  0  0  0  0  0  0  0  0
   46.8650   23.4839   37.3639 H   0  0  0  0  0  0  0  0  0  0  0  0
   45.3130   22.0013   36.4310 H   0  0  0  0  0  0  0  0  0  0  0  0
   45.4293   22.9013   34.9312 H   0  0  0  0  0  0  0  0  0  0  0  0
  1 18  1  0
  2  1  1  0
  3  2  2  0
  4  3  1  0
  5  4  2  0
  5  6  1  0
  6  7  2  0
  7  2  1  0
  8  6  1  0
  8 14  1  0
  9  8  1  0
 10  9  2  0
 10 11  1  0
 11 13  2  0
 12 11  1  0
 13 14  1  0
 14 15  2  0
 16 21  2  0
 17 16  1  0
 18 19  1  0
 18 17  2  0
 19 20  2  0
 20 22  1  0
 20 21  1  0
 22 23  1  0
 24 25  1  0
 24 22  1  0
 25 26  1  0
 26 27  1  0
 28 27  1  0
 29 25  1  0
 29 28  1  0
  1 30  1  0
  1 31  1  0
  3 32  1  0
  4 33  1  0
  9 34  1  0
 10 35  1  0
 12 36  1  0
 12 37  1  0
 16 38  1  0
 17 39  1  0
 22 40  1  1
 23 41  1  0
 23 42  1  0
 23 43  1  0
 24 44  1  0
 24 45  1  0
 26 46  1  0
 26 47  1  0
 27 48  1  0
 27 49  1  0
 28 50  1  0
 28 51  1  0
 29 52  1  0
 29 53  1  0
M  ISO  8  30   8  31   8  32  14  33  14  34  14  35  14  38  14  39  14
M  ISO  8  40   8  41   8  42   8  43   8  44   8  45   8  46  13  47  13
M  ISO  6  48  13  49  13  50  13  51  13  52  13  53  13
M  END
>  <minimizedAffinity>  (1) 
-5.99018002

>  <minimizedRMSD>  (1) 
0.950035453

$$$$
