
     RDKit          3D

 48 51  0  0  1  0  0  0  0  0999 V2000
   39.0570   24.8830   33.2860 C   0  0  0  0  0  0  0  0  0  0  0  0
   37.8160   24.5420   32.5760 C   0  0  0  0  0  0  0  0  0  0  0  0
   36.8930   25.4370   32.1470 C   0  0  0  0  0  0  0  0  0  0  0  0
   35.7330   25.0860   31.4790 C   0  0  0  0  0  0  0  0  0  0  0  0
   35.5230   23.7790   31.2500 N   0  0  0  0  0  0  0  0  0  0  0  0
   36.4110   22.8630   31.6570 C   0  0  0  0  0  0  0  0  0  0  0  0
   37.5290   23.2260   32.3030 N   0  0  0  0  0  0  0  0  0  0  0  0
   36.3020   21.4380   31.4730 N   0  0  0  0  0  0  0  0  0  0  0  0
   37.2110   20.9610   30.5450 C   0  0  0  0  0  0  0  0  0  0  0  0
   37.2340   19.6040   30.2520 C   0  0  0  0  0  0  0  0  0  0  0  0
   36.3540   18.7870   30.8950 C   0  0  0  0  0  0  0  0  0  0  0  0
   36.3800   17.4150   30.5990 N   0  0  0  0  0  0  0  0  0  0  0  0
   35.5020   19.2860   31.7760 N   0  0  0  0  0  0  0  0  0  0  0  0
   35.4640   20.5920   32.0720 C   0  0  0  0  0  0  0  0  0  0  0  0
   34.7160   21.1690   32.8720 O   0  0  0  0  0  0  0  0  0  0  0  0
   38.1460   23.6220   36.7540 C   0  0  0  0  0  0  0  0  0  0  0  0
   38.0340   24.1880   35.4490 C   0  0  0  0  0  0  0  0  0  0  0  0
   39.1520   24.2790   34.6620 C   0  0  0  0  0  0  0  0  0  0  0  0
   40.3500   23.8090   35.1800 N   0  0  0  0  0  0  0  0  0  0  0  0
   40.4040   23.2890   36.4060 C   0  0  0  0  0  0  0  0  0  0  0  0
   39.3400   23.1900   37.1860 N   0  0  0  0  0  0  0  0  0  0  0  0
   41.7640   22.8250   36.8270 C   0  0  1  0  0  0  0  0  0  0  0  0
   41.6140   21.3720   37.2690 C   0  0  0  0  0  0  0  0  0  0  0  0
   42.7780   22.9290   35.7650 C   0  0  0  0  0  0  0  0  0  0  0  0
   44.0110   23.5770   36.3190 C   0  0  0  0  0  0  0  0  0  0  0  0
   45.3260   23.1870   36.0470 C   0  0  0  0  0  0  0  0  0  0  0  0
   46.1000   24.0230   36.7360 N   0  0  0  0  0  0  0  0  0  0  0  0
   45.3830   24.9220   37.4320 C   0  0  0  0  0  0  0  0  0  0  0  0
   44.0930   24.6350   37.1650 N   0  0  0  0  0  0  0  0  0  0  0  0
   39.1126   25.9774   33.3824 H   0  0  0  0  0  0  0  0  0  0  0  0
   39.8889   24.4712   32.6958 H   0  0  0  0  0  0  0  0  0  0  0  0
   37.0766   26.5041   32.3410 H   0  0  0  0  0  0  0  0  0  0  0  0
   35.0111   25.8474   31.1485 H   0  0  0  0  0  0  0  0  0  0  0  0
   37.9079   21.6496   30.0448 H   0  0  0  0  0  0  0  0  0  0  0  0
   37.9459   19.1984   29.5181 H   0  0  0  0  0  0  0  0  0  0  0  0
   35.7259   16.7740   31.0703 H   0  0  0  0  0  0  0  0  0  0  0  0
   37.0532   17.0493   29.9105 H   0  0  0  0  0  0  0  0  0  0  0  0
   37.2599   23.5406   37.4007 H   0  0  0  0  0  0  0  0  0  0  0  0
   37.0621   24.5469   35.0793 H   0  0  0  0  0  0  0  0  0  0  0  0
   42.1252   23.4749   37.6377 H   0  0  0  0  0  0  0  0  0  0  0  0
   41.6088   21.3217   38.3678 H   0  0  0  0  0  0  0  0  0  0  0  0
   40.6691   20.9657   36.8789 H   0  0  0  0  0  0  0  0  0  0  0  0
   42.4559   20.7813   36.8789 H   0  0  0  0  0  0  0  0  0  0  0  0
   42.3830   23.5375   34.9381 H   0  0  0  0  0  0  0  0  0  0  0  0
   43.0256   21.9241   35.3923 H   0  0  0  0  0  0  0  0  0  0  0  0
   45.6531   22.3610   35.3984 H   0  0  0  0  0  0  0  0  0  0  0  0
   45.7672   25.7222   38.0817 H   0  0  0  0  0  0  0  0  0  0  0  0
   43.2850   25.1459   37.5484 H   0  0  0  0  0  0  0  0  0  0  0  0
  1 18  1  0
  2  1  1  0
  3  2  2  0
  4  3  1  0
  5  4  2  0
  5  6  1  0
  6  7  2  0
  7  2  1  0
  8  6  1  0
  8 14  1  0
  9  8  1  0
 10  9  2  0
 10 11  1  0
 11 13  2  0
 12 11  1  0
 13 14  1  0
 14 15  2  0
 16 21  2  0
 17 16  1  0
 18 19  1  0
 18 17  2  0
 19 20  2  0
 20 22  1  0
 20 21  1  0
 22 23  1  0
 24 25  1  0
 24 22  1  0
 25 29  1  0
 26 25  2  0
 26 27  1  0
 27 28  2  0
 29 28  1  0
  1 30  1  0
  1 31  1  0
  3 32  1  0
  4 33  1  0
  9 34  1  0
 10 35  1  0
 12 36  1  0
 12 37  1  0
 16 38  1  0
 17 39  1  0
 22 40  1  1
 23 41  1  0
 23 42  1  0
 23 43  1  0
 24 44  1  0
 24 45  1  0
 26 46  1  0
 28 47  1  0
 29 48  1  0
M  ISO  8  30   8  31   8  32  14  33  14  34  14  35  14  38  14  39  14
M  ISO  8  40   8  41   8  42   8  43   8  44   8  45   8  46  14  47  14
M  ISO  1  48   9
M  END
>  <minimizedAffinity>  (1) 
-5.95008039

>  <minimizedRMSD>  (1) 
0.976096272

$$$$
