
     RDKit          3D

 47 50  0  0  1  0  0  0  0  0999 V2000
   39.1020   24.8320   33.2260 C   0  0  0  0  0  0  0  0  0  0  0  0
   37.8480   24.4960   32.5310 C   0  0  0  0  0  0  0  0  0  0  0  0
   36.9230   25.4000   32.1160 C   0  0  0  0  0  0  0  0  0  0  0  0
   35.7550   25.0600   31.4670 C   0  0  0  0  0  0  0  0  0  0  0  0
   35.5310   23.7520   31.2360 N   0  0  0  0  0  0  0  0  0  0  0  0
   36.4190   22.8320   31.6300 C   0  0  0  0  0  0  0  0  0  0  0  0
   37.5500   23.1900   32.2600 N   0  0  0  0  0  0  0  0  0  0  0  0
   36.3050   21.4130   31.4470 N   0  0  0  0  0  0  0  0  0  0  0  0
   37.2000   20.9250   30.5070 C   0  0  0  0  0  0  0  0  0  0  0  0
   37.2120   19.5740   30.2190 C   0  0  0  0  0  0  0  0  0  0  0  0
   36.3400   18.7540   30.8710 C   0  0  0  0  0  0  0  0  0  0  0  0
   36.3540   17.3790   30.5740 N   0  0  0  0  0  0  0  0  0  0  0  0
   35.4890   19.2580   31.7740 N   0  0  0  0  0  0  0  0  0  0  0  0
   35.4740   20.5620   32.0530 C   0  0  0  0  0  0  0  0  0  0  0  0
   34.7320   21.1480   32.8690 O   0  0  0  0  0  0  0  0  0  0  0  0
   38.1830   23.6880   36.7410 C   0  0  0  0  0  0  0  0  0  0  0  0
   38.0850   24.2250   35.4150 C   0  0  0  0  0  0  0  0  0  0  0  0
   39.1950   24.2600   34.6130 C   0  0  0  0  0  0  0  0  0  0  0  0
   40.3750   23.7660   35.1350 N   0  0  0  0  0  0  0  0  0  0  0  0
   40.4260   23.2760   36.3730 C   0  0  0  0  0  0  0  0  0  0  0  0
   39.3700   23.2290   37.1680 N   0  0  0  0  0  0  0  0  0  0  0  0
   41.7820   22.7750   36.7970 C   0  0  1  0  0  0  0  0  0  0  0  0
   41.5780   21.3580   37.3200 C   0  0  0  0  0  0  0  0  0  0  0  0
   42.7670   22.7840   35.7030 C   0  0  0  0  0  0  0  0  0  0  0  0
   44.0110   23.3900   36.1760 N   0  0  0  0  0  0  0  0  0  0  0  0
   44.0650   24.5030   36.9350 C   0  0  0  0  0  0  0  0  0  0  0  0
   45.3720   24.7620   37.1760 N   0  0  0  0  0  0  0  0  0  0  0  0
   46.1300   23.8250   36.5760 C   0  0  0  0  0  0  0  0  0  0  0  0
   45.2430   23.0100   35.9770 N   0  0  0  0  0  0  0  0  0  0  0  0
   39.1778   25.9272   33.2960 H   0  0  0  0  0  0  0  0  0  0  0  0
   39.9225   24.3916   32.6405 H   0  0  0  0  0  0  0  0  0  0  0  0
   37.1171   26.4654   32.3089 H   0  0  0  0  0  0  0  0  0  0  0  0
   35.0337   25.8276   31.1500 H   0  0  0  0  0  0  0  0  0  0  0  0
   37.8943   21.6076   29.9952 H   0  0  0  0  0  0  0  0  0  0  0  0
   37.9135   19.1668   29.4760 H   0  0  0  0  0  0  0  0  0  0  0  0
   35.7035   16.7416   31.0551 H   0  0  0  0  0  0  0  0  0  0  0  0
   37.0147   17.0097   29.8755 H   0  0  0  0  0  0  0  0  0  0  0  0
   37.3007   23.6528   37.3970 H   0  0  0  0  0  0  0  0  0  0  0  0
   37.1227   24.6071   35.0435 H   0  0  0  0  0  0  0  0  0  0  0  0
   42.1945   23.4431   37.5674 H   0  0  0  0  0  0  0  0  0  0  0  0
   41.5796   21.3694   38.4199 H   0  0  0  0  0  0  0  0  0  0  0  0
   40.6146   20.9690   36.9588 H   0  0  0  0  0  0  0  0  0  0  0  0
   42.3925   20.7130   36.9588 H   0  0  0  0  0  0  0  0  0  0  0  0
   42.3722   23.3676   34.8582 H   0  0  0  0  0  0  0  0  0  0  0  0
   42.9618   21.7523   35.3748 H   0  0  0  0  0  0  0  0  0  0  0  0
   43.2068   25.0913   37.2921 H   0  0  0  0  0  0  0  0  0  0  0  0
   47.2270   23.7441   36.5756 H   0  0  0  0  0  0  0  0  0  0  0  0
  1 18  1  0
  2  1  1  0
  3  2  2  0
  4  3  1  0
  5  4  2  0
  5  6  1  0
  6  7  2  0
  7  2  1  0
  8  6  1  0
  8 14  1  0
  9  8  1  0
 10  9  2  0
 10 11  1  0
 11 13  2  0
 12 11  1  0
 13 14  1  0
 14 15  2  0
 16 21  2  0
 17 16  1  0
 18 19  1  0
 18 17  2  0
 19 20  2  0
 20 22  1  0
 20 21  1  0
 22 23  1  0
 24 25  1  0
 24 22  1  0
 25 26  1  0
 26 27  2  0
 28 27  1  0
 29 25  1  0
 29 28  2  0
  1 30  1  0
  1 31  1  0
  3 32  1  0
  4 33  1  0
  9 34  1  0
 10 35  1  0
 12 36  1  0
 12 37  1  0
 16 38  1  0
 17 39  1  0
 22 40  1  1
 23 41  1  0
 23 42  1  0
 23 43  1  0
 24 44  1  0
 24 45  1  0
 26 46  1  0
 28 47  1  0
M  ISO  8  30   8  31   8  32  14  33  14  34  14  35  14  38  14  39  14
M  ISO  8  40   8  41   8  42   8  43   8  44   8  45   8  46  14  47  14
M  END
>  <minimizedAffinity>  (1) 
-5.80652952

>  <minimizedRMSD>  (1) 
0.911052942

$$$$
