
     RDKit          3D

 48 51  0  0  1  0  0  0  0  0999 V2000
   39.0800   24.8440   33.3690 C   0  0  0  0  0  0  0  0  0  0  0  0
   37.8490   24.5130   32.6330 C   0  0  0  0  0  0  0  0  0  0  0  0
   36.9440   25.4280   32.1960 C   0  0  0  0  0  0  0  0  0  0  0  0
   35.7930   25.1000   31.5060 C   0  0  0  0  0  0  0  0  0  0  0  0
   35.5700   23.7960   31.2600 N   0  0  0  0  0  0  0  0  0  0  0  0
   36.4420   22.8630   31.6760 C   0  0  0  0  0  0  0  0  0  0  0  0
   37.5520   23.2070   32.3440 N   0  0  0  0  0  0  0  0  0  0  0  0
   36.3220   21.4470   31.4790 N   0  0  0  0  0  0  0  0  0  0  0  0
   37.2350   20.9600   30.5680 C   0  0  0  0  0  0  0  0  0  0  0  0
   37.2480   19.6070   30.2650 C   0  0  0  0  0  0  0  0  0  0  0  0
   36.3460   18.8010   30.8850 C   0  0  0  0  0  0  0  0  0  0  0  0
   36.3580   17.4220   30.5750 N   0  0  0  0  0  0  0  0  0  0  0  0
   35.4750   19.3020   31.7630 N   0  0  0  0  0  0  0  0  0  0  0  0
   35.4620   20.6020   32.0540 C   0  0  0  0  0  0  0  0  0  0  0  0
   34.7040   21.1860   32.8500 O   0  0  0  0  0  0  0  0  0  0  0  0
   38.0650   23.6220   36.8250 C   0  0  0  0  0  0  0  0  0  0  0  0
   38.0030   24.1820   35.5070 C   0  0  0  0  0  0  0  0  0  0  0  0
   39.1480   24.2510   34.7380 C   0  0  0  0  0  0  0  0  0  0  0  0
   40.3030   23.7650   35.3020 N   0  0  0  0  0  0  0  0  0  0  0  0
   40.3300   23.2530   36.5260 C   0  0  0  0  0  0  0  0  0  0  0  0
   39.2430   23.1740   37.2870 N   0  0  0  0  0  0  0  0  0  0  0  0
   41.6730   22.7680   36.9910 C   0  0  1  0  0  0  0  0  0  0  0  0
   41.6050   21.2460   37.0060 C   0  0  0  0  0  0  0  0  0  0  0  0
   42.7760   23.2260   36.1310 C   0  0  0  0  0  0  0  0  0  0  0  0
   43.7890   24.0900   36.7910 C   0  0  0  0  0  0  0  0  0  0  0  0
   44.3830   25.1520   35.8190 C   0  0  0  0  0  0  0  0  0  0  0  0
   45.2200   24.0890   36.4220 C   0  0  0  0  0  0  0  0  0  0  0  0
   39.1433   25.9382   33.4626 H   0  0  0  0  0  0  0  0  0  0  0  0
   39.9171   24.4184   32.7962 H   0  0  0  0  0  0  0  0  0  0  0  0
   37.1392   26.4905   32.4036 H   0  0  0  0  0  0  0  0  0  0  0  0
   35.0869   25.8741   31.1710 H   0  0  0  0  0  0  0  0  0  0  0  0
   37.9498   21.6416   30.0838 H   0  0  0  0  0  0  0  0  0  0  0  0
   37.9688   19.1969   29.5423 H   0  0  0  0  0  0  0  0  0  0  0  0
   35.6865   16.7863   31.0288 H   0  0  0  0  0  0  0  0  0  0  0  0
   37.0382   17.0528   29.8953 H   0  0  0  0  0  0  0  0  0  0  0  0
   37.1609   23.5603   37.4485 H   0  0  0  0  0  0  0  0  0  0  0  0
   37.0475   24.5552   35.1098 H   0  0  0  0  0  0  0  0  0  0  0  0
   41.8868   23.1795   37.9885 H   0  0  0  0  0  0  0  0  0  0  0  0
   41.5891   20.8899   38.0467 H   0  0  0  0  0  0  0  0  0  0  0  0
   40.6912   20.9147   36.4911 H   0  0  0  0  0  0  0  0  0  0  0  0
   42.4857   20.8345   36.4911 H   0  0  0  0  0  0  0  0  0  0  0  0
   42.3403   23.7932   35.2953 H   0  0  0  0  0  0  0  0  0  0  0  0
   43.3123   22.3173   35.8203 H   0  0  0  0  0  0  0  0  0  0  0  0
   43.2928   24.0159   37.7699 H   0  0  0  0  0  0  0  0  0  0  0  0
   44.4964   26.1976   36.1413 H   0  0  0  0  0  0  0  0  0  0  0  0
   44.1620   25.4980   34.7985 H   0  0  0  0  0  0  0  0  0  0  0  0
   45.6126   23.2836   35.7838 H   0  0  0  0  0  0  0  0  0  0  0  0
   46.1520   24.1000   37.0062 H   0  0  0  0  0  0  0  0  0  0  0  0
  1 18  1  0
  2  1  1  0
  3  2  2  0
  4  3  1  0
  5  4  2  0
  5  6  1  0
  6  7  2  0
  7  2  1  0
  8  6  1  0
  8 14  1  0
  9  8  1  0
 10  9  2  0
 10 11  1  0
 11 13  2  0
 12 11  1  0
 13 14  1  0
 14 15  2  0
 16 21  2  0
 17 16  1  0
 18 19  1  0
 18 17  2  0
 19 20  2  0
 20 22  1  0
 20 21  1  0
 22 23  1  0
 24 25  1  0
 24 22  1  0
 26 27  1  0
 26 25  1  0
 27 25  1  0
  1 28  1  0
  1 29  1  0
  3 30  1  0
  4 31  1  0
  9 32  1  0
 10 33  1  0
 12 34  1  0
 12 35  1  0
 16 36  1  0
 17 37  1  0
 22 38  1  1
 23 39  1  0
 23 40  1  0
 23 41  1  0
 24 42  1  0
 24 43  1  0
 25 44  1  0
 26 45  1  0
 26 46  1  0
 27 47  1  0
 27 48  1  0
M  ISO  8  28   8  29   8  30  14  31  14  32  14  33  14  36  14  37  14
M  ISO  8  38   8  39   8  40   8  41   8  42   8  43   8  44  13  45  13
M  ISO  3  46  13  47  13  48  13
M  END
>  <minimizedAffinity>  (1) 
-5.79751348

>  <minimizedRMSD>  (1) 
1.12022257

$$$$
