
     RDKit          3D

 17 18  0  0  0  0  0  0  0  0999 V2000
   37.9420   24.3630   37.2960 C   0  0  0  0  0  0  0  0  0  0  0  0
   38.5390   24.5630   36.0440 C   0  0  0  0  0  0  0  0  0  0  0  0
   39.7190   23.8840   35.7490 C   0  0  0  0  0  0  0  0  0  0  0  0
   40.2300   23.0540   36.7040 N   0  0  0  0  0  0  0  0  0  0  0  0
   39.6350   22.8800   37.9020 C   0  0  0  0  0  0  0  0  0  0  0  0
   38.4900   23.5380   38.1940 N   0  0  0  0  0  0  0  0  0  0  0  0
   37.9550   25.4300   35.1160 N   0  0  0  0  0  0  0  0  0  0  0  0
   37.7000   25.1510   33.8510 N   0  0  0  0  0  0  0  0  0  0  0  0
   37.1420   26.1730   33.2160 C   0  0  0  0  0  0  0  0  0  0  0  0
   37.0350   27.1780   34.1540 C   0  0  0  0  0  0  0  0  0  0  0  0
   37.5530   26.6870   35.3420 C   0  0  0  0  0  0  0  0  0  0  0  0
   37.0098   24.8920   37.5432 H   0  0  0  0  0  0  0  0  0  0  0  0
   40.2218   24.0125   34.7791 H   0  0  0  0  0  0  0  0  0  0  0  0
   40.0821   22.2013   38.6433 H   0  0  0  0  0  0  0  0  0  0  0  0
   36.8299   26.2109   32.1619 H   0  0  0  0  0  0  0  0  0  0  0  0
   36.6166   28.1820   33.9900 H   0  0  0  0  0  0  0  0  0  0  0  0
   37.6214   27.2305   36.2959 H   0  0  0  0  0  0  0  0  0  0  0  0
  1  6  2  0
  2  1  1  0
  3  2  2  0
  3  4  1  0
  4  5  2  0
  5  6  1  0
  7 11  1  0
  7  2  1  0
  8  7  1  0
  9  8  2  0
  9 10  1  0
 10 11  2  0
  1 12  1  0
  3 13  1  0
  5 14  1  0
  9 15  1  0
 10 16  1  0
 11 17  1  0
M  ISO  6  12  14  13  14  14  14  15  14  16  14  17  14
M  END
>  <minimizedAffinity>  (1) 
-3.29829669

>  <minimizedRMSD>  (1) 
5.16053629

$$$$
