
     RDKit          3D

 20 21  0  0  0  0  0  0  0  0999 V2000
   38.3700   24.6990   34.7320 N   0  0  0  0  0  0  0  0  0  0  0  0
   37.8020   24.1910   33.6530 N   0  0  0  0  0  0  0  0  0  0  0  0
   37.1480   25.0900   32.9430 C   0  0  0  0  0  0  0  0  0  0  0  0
   37.3130   26.2820   33.6350 C   0  0  0  0  0  0  0  0  0  0  0  0
   38.0890   26.0010   34.7580 C   0  0  0  0  0  0  0  0  0  0  0  0
   38.5420   23.4920   36.8270 C   0  0  0  0  0  0  0  0  0  0  0  0
   39.1230   24.0020   35.6680 C   0  0  0  0  0  0  0  0  0  0  0  0
   40.4940   23.7900   35.4740 C   0  0  0  0  0  0  0  0  0  0  0  0
   41.1850   23.0990   36.4260 N   0  0  0  0  0  0  0  0  0  0  0  0
   40.5750   22.6210   37.5420 C   0  0  0  0  0  0  0  0  0  0  0  0
   39.2440   22.8230   37.7330 N   0  0  0  0  0  0  0  0  0  0  0  0
   38.4740   27.0460   35.7400 C   0  0  0  0  0  0  0  0  0  0  0  0
   39.8410   27.2550   35.6860 F   0  0  0  0  0  0  0  0  0  0  0  0
   38.2020   26.5940   37.0360 F   0  0  0  0  0  0  0  0  0  0  0  0
   37.7570   28.2160   35.5230 F   0  0  0  0  0  0  0  0  0  0  0  0
   36.5930   24.9300   32.0069 H   0  0  0  0  0  0  0  0  0  0  0  0
   36.9074   27.2641   33.3504 H   0  0  0  0  0  0  0  0  0  0  0  0
   37.4665   23.6489   36.9966 H   0  0  0  0  0  0  0  0  0  0  0  0
   41.0013   24.1715   34.5756 H   0  0  0  0  0  0  0  0  0  0  0  0
   41.1594   22.0692   38.2929 H   0  0  0  0  0  0  0  0  0  0  0  0
  1  5  1  0
  1  7  1  0
  2  1  1  0
  3  4  1  0
  3  2  2  0
  4  5  2  0
  5 12  1  0
  6 11  2  0
  7  6  1  0
  8  7  2  0
  8  9  1  0
  9 10  2  0
 10 11  1  0
 12 14  1  0
 13 12  1  0
 15 12  1  0
  3 16  1  0
  4 17  1  0
  6 18  1  0
  8 19  1  0
 10 20  1  0
M  ISO  5  16  14  17  14  18  14  19  14  20  14
M  END
>  <minimizedAffinity>  (1) 
-4.36955738

>  <minimizedRMSD>  (1) 
1.18813264

$$$$
