
     RDKit          3D

 19 20  0  0  0  0  0  0  0  0999 V2000
   38.0690   25.5780   35.1090 N   0  0  0  0  0  0  0  0  0  0  0  0
   37.4920   25.2610   33.9540 N   0  0  0  0  0  0  0  0  0  0  0  0
   37.1000   26.3650   33.3110 C   0  0  0  0  0  0  0  0  0  0  0  0
   37.4550   27.4250   34.1040 C   0  0  0  0  0  0  0  0  0  0  0  0
   38.0600   26.9010   35.2250 C   0  0  0  0  0  0  0  0  0  0  0  0
   37.8820   24.3880   37.2130 C   0  0  0  0  0  0  0  0  0  0  0  0
   38.5890   24.6510   36.0230 C   0  0  0  0  0  0  0  0  0  0  0  0
   39.7780   23.9870   35.7890 C   0  0  0  0  0  0  0  0  0  0  0  0
   40.2130   23.1020   36.7270 N   0  0  0  0  0  0  0  0  0  0  0  0
   39.5340   22.8590   37.8550 C   0  0  0  0  0  0  0  0  0  0  0  0
   38.3590   23.5060   38.1010 N   0  0  0  0  0  0  0  0  0  0  0  0
   38.5800   27.6640   36.3110 N   0  0  0  0  0  0  0  0  0  0  0  0
   36.5921   26.4135   32.3365 H   0  0  0  0  0  0  0  0  0  0  0  0
   37.2886   28.4904   33.8868 H   0  0  0  0  0  0  0  0  0  0  0  0
   36.9343   24.9092   37.4136 H   0  0  0  0  0  0  0  0  0  0  0  0
   40.3563   24.1685   34.8710 H   0  0  0  0  0  0  0  0  0  0  0  0
   39.9250   22.1354   38.5854 H   0  0  0  0  0  0  0  0  0  0  0  0
   38.5180   28.6920   36.2944 H   0  0  0  0  0  0  0  0  0  0  0  0
   39.0177   27.1873   37.1123 H   0  0  0  0  0  0  0  0  0  0  0  0
  1  5  1  0
  1  7  1  0
  2  1  1  0
  3  2  2  0
  3  4  1  0
  4  5  2  0
  5 12  1  0
  6 11  2  0
  7  6  1  0
  8  7  2  0
  8  9  1  0
  9 10  2  0
 10 11  1  0
  3 13  1  0
  4 14  1  0
  6 15  1  0
  8 16  1  0
 10 17  1  0
 12 18  1  0
 12 19  1  0
M  ISO  5  13  14  14  14  15  14  16  14  17  14
M  END
>  <minimizedAffinity>  (1) 
-4.00858831

>  <minimizedRMSD>  (1) 
0.385584533

$$$$
