
     RDKit          3D

 18 19  0  0  0  0  0  0  0  0999 V2000
   37.9680   24.4260   37.3180 C   0  0  0  0  0  0  0  0  0  0  0  0
   38.6020   24.7000   36.1090 C   0  0  0  0  0  0  0  0  0  0  0  0
   39.7890   24.0280   35.7810 C   0  0  0  0  0  0  0  0  0  0  0  0
   40.2600   23.1230   36.6910 N   0  0  0  0  0  0  0  0  0  0  0  0
   39.6120   22.8820   37.8640 C   0  0  0  0  0  0  0  0  0  0  0  0
   38.4760   23.5300   38.1700 N   0  0  0  0  0  0  0  0  0  0  0  0
   38.0670   25.6490   35.2180 N   0  0  0  0  0  0  0  0  0  0  0  0
   37.4620   25.4010   34.0840 N   0  0  0  0  0  0  0  0  0  0  0  0
   37.0740   26.5190   33.4780 C   0  0  0  0  0  0  0  0  0  0  0  0
   37.4650   27.5470   34.2950 C   0  0  0  0  0  0  0  0  0  0  0  0
   38.0950   26.9830   35.4010 C   0  0  0  0  0  0  0  0  0  0  0  0
   38.6630   27.6200   36.5040 O   0  0  0  0  0  0  0  0  0  0  0  0
   37.0376   24.9534   37.5752 H   0  0  0  0  0  0  0  0  0  0  0  0
   40.3165   24.2204   34.8351 H   0  0  0  0  0  0  0  0  0  0  0  0
   40.0244   22.1467   38.5706 H   0  0  0  0  0  0  0  0  0  0  0  0
   36.5464   26.6018   32.5163 H   0  0  0  0  0  0  0  0  0  0  0  0
   37.3097   28.6203   34.1110 H   0  0  0  0  0  0  0  0  0  0  0  0
   38.6451   28.6077   36.5687 H   0  0  0  0  0  0  0  0  0  0  0  0
  1  6  2  0
  2  1  1  0
  3  2  2  0
  3  4  1  0
  4  5  2  0
  5  6  1  0
  7 11  1  0
  7  2  1  0
  8  7  1  0
  9  8  2  0
  9 10  1  0
 10 11  2  0
 11 12  1  0
  1 13  1  0
  3 14  1  0
  5 15  1  0
  9 16  1  0
 10 17  1  0
 12 18  1  0
M  ISO  6  13  14  14  14  15  14  16  14  17  14  18   3
M  END
>  <minimizedAffinity>  (1) 
-3.96952868

>  <minimizedRMSD>  (1) 
0.435751617

$$$$
