
     RDKit          3D

 24 26  0  0  0  0  0  0  0  0999 V2000
   38.3510   24.1720   34.6870 N   0  0  0  0  0  0  0  0  0  0  0  0
   37.7740   23.3760   33.8120 N   0  0  0  0  0  0  0  0  0  0  0  0
   37.7510   23.9250   32.5980 C   0  0  0  0  0  0  0  0  0  0  0  0
   38.3640   25.1640   32.7300 C   0  0  0  0  0  0  0  0  0  0  0  0
   38.7390   25.3040   34.0670 C   0  0  0  0  0  0  0  0  0  0  0  0
   37.6760   24.4150   37.0070 C   0  0  0  0  0  0  0  0  0  0  0  0
   38.5360   23.9000   36.0420 C   0  0  0  0  0  0  0  0  0  0  0  0
   39.5950   23.1030   36.4790 C   0  0  0  0  0  0  0  0  0  0  0  0
   39.7340   22.8690   37.8150 N   0  0  0  0  0  0  0  0  0  0  0  0
   38.8660   23.3940   38.7200 C   0  0  0  0  0  0  0  0  0  0  0  0
   37.8310   24.1740   38.3030 N   0  0  0  0  0  0  0  0  0  0  0  0
   39.4190   26.5020   34.5730 C   0  0  0  0  0  0  0  0  0  0  0  0
   40.4490   27.1620   33.6820 C   0  0  0  0  0  0  0  0  0  0  0  0
   40.8830   26.3840   34.8660 C   0  0  0  0  0  0  0  0  0  0  0  0
   37.3324   23.4868   31.6800 H   0  0  0  0  0  0  0  0  0  0  0  0
   38.5245   25.8998   31.9282 H   0  0  0  0  0  0  0  0  0  0  0  0
   36.8353   25.0462   36.6834 H   0  0  0  0  0  0  0  0  0  0  0  0
   40.3050   22.6712   35.7583 H   0  0  0  0  0  0  0  0  0  0  0  0
   39.0003   23.1880   39.7922 H   0  0  0  0  0  0  0  0  0  0  0  0
   38.5294   26.8438   35.1224 H   0  0  0  0  0  0  0  0  0  0  0  0
   40.6320   26.7715   32.6700 H   0  0  0  0  0  0  0  0  0  0  0  0
   40.6212   28.1857   33.3181 H   0  0  0  0  0  0  0  0  0  0  0  0
   41.3105   26.9043   35.7358 H   0  0  0  0  0  0  0  0  0  0  0  0
   41.5725   25.5419   35.0255 H   0  0  0  0  0  0  0  0  0  0  0  0
  1  7  1  0
  2  1  1  0
  3  4  1  0
  3  2  2  0
  4  5  2  0
  5 12  1  0
  5  1  1  0
  6 11  2  0
  7  8  2  0
  7  6  1  0
  8  9  1  0
  9 10  2  0
 11 10  1  0
 12 14  1  0
 13 12  1  0
 13 14  1  0
  3 15  1  0
  4 16  1  0
  6 17  1  0
  8 18  1  0
 10 19  1  0
 12 20  1  0
 13 21  1  0
 13 22  1  0
 14 23  1  0
 14 24  1  0
M  ISO  8  15  14  16  14  17  14  18  14  19  14  20  13  21  13  22  13
M  ISO  2  23  13  24  13
M  END
>  <minimizedAffinity>  (1) 
-3.93960929

>  <minimizedRMSD>  (1) 
2.25824952

$$$$
