
     RDKit          3D

 29 30  0  0  0  0  0  0  0  0999 V2000
   37.2170   23.0260   32.8620 N   0  0  0  0  0  0  0  0  0  0  0  0
   37.1440   24.1770   32.1960 N   0  0  0  0  0  0  0  0  0  0  0  0
   36.1560   24.1180   31.2920 C   0  0  0  0  0  0  0  0  0  0  0  0
   35.5960   22.8510   31.4190 C   0  0  0  0  0  0  0  0  0  0  0  0
   36.2770   22.1680   32.4190 C   0  0  0  0  0  0  0  0  0  0  0  0
   39.3780   22.1930   33.5700 C   0  0  0  0  0  0  0  0  0  0  0  0
   38.1440   22.7640   33.8650 C   0  0  0  0  0  0  0  0  0  0  0  0
   37.8760   23.0660   35.2100 C   0  0  0  0  0  0  0  0  0  0  0  0
   38.8310   22.7840   36.1420 N   0  0  0  0  0  0  0  0  0  0  0  0
   40.0230   22.2230   35.8000 C   0  0  0  0  0  0  0  0  0  0  0  0
   40.2970   21.9250   34.4950 N   0  0  0  0  0  0  0  0  0  0  0  0
   35.8910   20.8040   32.7590 C   0  0  0  0  0  0  0  0  0  0  0  0
   36.9490   19.8520   32.2300 C   0  0  0  0  0  0  0  0  0  0  0  0
   35.6340   20.5530   34.2140 C   0  0  0  0  0  0  0  0  0  0  0  0
   34.6000   20.4070   32.0230 C   0  0  0  0  0  0  0  0  0  0  0  0
   35.8504   24.9100   30.5924 H   0  0  0  0  0  0  0  0  0  0  0  0
   34.7563   22.4567   30.8279 H   0  0  0  0  0  0  0  0  0  0  0  0
   39.6053   21.9512   32.5212 H   0  0  0  0  0  0  0  0  0  0  0  0
   36.9182   23.5194   35.5050 H   0  0  0  0  0  0  0  0  0  0  0  0
   40.7699   22.0083   36.5785 H   0  0  0  0  0  0  0  0  0  0  0  0
   37.4731   19.3804   33.0744 H   0  0  0  0  0  0  0  0  0  0  0  0
   36.4694   19.0753   31.6162 H   0  0  0  0  0  0  0  0  0  0  0  0
   37.6710   20.4106   31.6162 H   0  0  0  0  0  0  0  0  0  0  0  0
   36.2914   21.1951   34.8186 H   0  0  0  0  0  0  0  0  0  0  0  0
   34.5834   20.7824   34.4457 H   0  0  0  0  0  0  0  0  0  0  0  0
   35.8385   19.4973   34.4457 H   0  0  0  0  0  0  0  0  0  0  0  0
   33.8179   20.1665   32.7582 H   0  0  0  0  0  0  0  0  0  0  0  0
   34.2654   21.2438   31.3922 H   0  0  0  0  0  0  0  0  0  0  0  0
   34.7934   19.5268   31.3922 H   0  0  0  0  0  0  0  0  0  0  0  0
  1  7  1  0
  2  1  1  0
  3  4  1  0
  3  2  2  0
  4  5  2  0
  5 12  1  0
  5  1  1  0
  6  7  2  0
  6 11  1  0
  7  8  1  0
  8  9  2  0
 10  9  1  0
 11 10  2  0
 12 14  1  0
 13 12  1  0
 15 12  1  0
  3 16  1  0
  4 17  1  0
  6 18  1  0
  8 19  1  0
 10 20  1  0
 13 21  1  0
 13 22  1  0
 13 23  1  0
 14 24  1  0
 14 25  1  0
 14 26  1  0
 15 27  1  0
 15 28  1  0
 15 29  1  0
M  ISO  8  16  14  17  14  18  14  19  14  20  14  21   8  22   8  23   8
M  ISO  6  24   8  25   8  26   8  27   8  28   8  29   8
M  END
>  <minimizedAffinity>  (1) 
-3.89997816

>  <minimizedRMSD>  (1) 
5.50368118

$$$$
