
     RDKit          3D

 20 21  0  0  0  0  0  0  0  0999 V2000
   37.0200   25.0460   32.6120 N   0  0  0  0  0  0  0  0  0  0  0  0
   36.9270   23.7200   32.5830 N   0  0  0  0  0  0  0  0  0  0  0  0
   36.1010   23.3430   31.5950 C   0  0  0  0  0  0  0  0  0  0  0  0
   35.6600   24.4850   30.9820 C   0  0  0  0  0  0  0  0  0  0  0  0
   36.2550   25.5310   31.6430 C   0  0  0  0  0  0  0  0  0  0  0  0
   37.2520   26.1420   34.7670 C   0  0  0  0  0  0  0  0  0  0  0  0
   37.7890   25.7690   33.5220 C   0  0  0  0  0  0  0  0  0  0  0  0
   39.1120   26.1310   33.2180 C   0  0  0  0  0  0  0  0  0  0  0  0
   39.8090   26.8260   34.1450 N   0  0  0  0  0  0  0  0  0  0  0  0
   39.2620   27.1750   35.3430 C   0  0  0  0  0  0  0  0  0  0  0  0
   37.9770   26.8310   35.6550 N   0  0  0  0  0  0  0  0  0  0  0  0
   36.0050   26.8910   31.2230 C   0  0  0  0  0  0  0  0  0  0  0  0
   35.4360   27.7880   31.9240 O   0  0  0  0  0  0  0  0  0  0  0  0
   36.2680   27.5860   30.0630 O   0  0  0  0  0  0  0  0  0  0  0  0
   35.8294   22.3110   31.3280 H   0  0  0  0  0  0  0  0  0  0  0  0
   34.9673   24.5513   30.1301 H   0  0  0  0  0  0  0  0  0  0  0  0
   36.2175   25.8622   35.0149 H   0  0  0  0  0  0  0  0  0  0  0  0
   39.5672   25.8572   32.2547 H   0  0  0  0  0  0  0  0  0  0  0  0
   39.8633   27.7416   36.0692 H   0  0  0  0  0  0  0  0  0  0  0  0
   36.0040   28.5370   29.9851 H   0  0  0  0  0  0  0  0  0  0  0  0
  1  7  1  0
  2  1  1  0
  3  2  2  0
  4  3  1  0
  4  5  2  0
  5  1  1  0
  6 11  2  0
  7  6  1  0
  8  7  2  0
  8  9  1  0
  9 10  2  0
 10 11  1  0
 12  5  1  0
 12 13  2  0
 14 12  1  0
  3 15  1  0
  4 16  1  0
  6 17  1  0
  8 18  1  0
 10 19  1  0
 14 20  1  0
M  ISO  6  15  14  16  14  17  14  18  14  19  14  20   3
M  END
>  <minimizedAffinity>  (1) 
-3.87431097

>  <minimizedRMSD>  (1) 
4.39681625

$$$$
