
     RDKit          3D

 30 32  0  0  0  0  0  0  0  0999 V2000
   37.8140   24.9530   33.7070 N   0  0  0  0  0  0  0  0  0  0  0  0
   37.1890   25.7670   32.8630 N   0  0  0  0  0  0  0  0  0  0  0  0
   36.9000   26.9290   33.4570 C   0  0  0  0  0  0  0  0  0  0  0  0
   37.3790   26.8260   34.7560 C   0  0  0  0  0  0  0  0  0  0  0  0
   37.9450   25.5730   34.8740 C   0  0  0  0  0  0  0  0  0  0  0  0
   37.4080   22.5630   33.5720 C   0  0  0  0  0  0  0  0  0  0  0  0
   38.2490   23.6680   33.3960 C   0  0  0  0  0  0  0  0  0  0  0  0
   39.5390   23.4400   32.8970 C   0  0  0  0  0  0  0  0  0  0  0  0
   39.9100   22.1600   32.6070 N   0  0  0  0  0  0  0  0  0  0  0  0
   39.0800   21.1230   32.7880 C   0  0  0  0  0  0  0  0  0  0  0  0
   37.8300   21.3320   33.2710 N   0  0  0  0  0  0  0  0  0  0  0  0
   38.5650   25.1150   36.1430 C   0  0  0  0  0  0  0  0  0  0  0  0
   37.5740   24.2390   36.9180 C   0  0  0  0  0  0  0  0  0  0  0  0
   38.1370   22.8390   36.8970 C   0  0  0  0  0  0  0  0  0  0  0  0
   39.6270   23.0140   36.7050 C   0  0  0  0  0  0  0  0  0  0  0  0
   39.7180   24.2110   35.7720 C   0  0  0  0  0  0  0  0  0  0  0  0
   36.3867   27.7919   33.0077 H   0  0  0  0  0  0  0  0  0  0  0  0
   37.3189   27.5951   35.5402 H   0  0  0  0  0  0  0  0  0  0  0  0
   36.3899   22.7098   33.9619 H   0  0  0  0  0  0  0  0  0  0  0  0
   40.2373   24.2758   32.7426 H   0  0  0  0  0  0  0  0  0  0  0  0
   39.4126   20.1031   32.5449 H   0  0  0  0  0  0  0  0  0  0  0  0
   38.8692   25.9849   36.7437 H   0  0  0  0  0  0  0  0  0  0  0  0
   37.4802   24.5959   37.9542 H   0  0  0  0  0  0  0  0  0  0  0  0
   36.5722   24.2731   36.4649 H   0  0  0  0  0  0  0  0  0  0  0  0
   37.9281   22.3249   37.8468 H   0  0  0  0  0  0  0  0  0  0  0  0
   37.6887   22.2273   36.1002 H   0  0  0  0  0  0  0  0  0  0  0  0
   40.1266   23.2214   37.6628 H   0  0  0  0  0  0  0  0  0  0  0  0
   40.1190   22.1156   36.3039 H   0  0  0  0  0  0  0  0  0  0  0  0
   39.6284   23.8872   34.7246 H   0  0  0  0  0  0  0  0  0  0  0  0
   40.6840   24.7276   35.8715 H   0  0  0  0  0  0  0  0  0  0  0  0
  1  5  1  0
  2  3  2  0
  2  1  1  0
  3  4  1  0
  4  5  2  0
  5 12  1  0
  7  6  2  0
  7  1  1  0
  8  7  1  0
  9 10  1  0
  9  8  2  0
 10 11  2  0
 11  6  1  0
 12 13  1  0
 14 13  1  0
 15 14  1  0
 16 12  1  0
 16 15  1  0
  3 17  1  0
  4 18  1  0
  6 19  1  0
  8 20  1  0
 10 21  1  0
 12 22  1  0
 13 23  1  0
 13 24  1  0
 14 25  1  0
 14 26  1  0
 15 27  1  0
 15 28  1  0
 16 29  1  0
 16 30  1  0
M  ISO  8  17  14  18  14  19  14  20  14  21  14  22  13  23  13  24  13
M  ISO  6  25  13  26  13  27  13  28  13  29  13  30  13
M  END
>  <minimizedAffinity>  (1) 
-3.62838364

>  <minimizedRMSD>  (1) 
3.45723343

$$$$
