
     RDKit          3D

 30 32  0  0  0  0  0  0  0  0999 V2000
   36.5850   27.2720   31.1690 N   0  0  0  0  0  0  0  0  0  0  0  0
   36.5720   28.0350   30.0750 N   0  0  0  0  0  0  0  0  0  0  0  0
   36.5920   29.3320   30.3750 C   0  0  0  0  0  0  0  0  0  0  0  0
   36.6210   29.3780   31.7700 C   0  0  0  0  0  0  0  0  0  0  0  0
   36.6160   28.0650   32.2620 C   0  0  0  0  0  0  0  0  0  0  0  0
   35.3820   25.1860   31.3810 C   0  0  0  0  0  0  0  0  0  0  0  0
   36.5690   25.8700   31.1670 C   0  0  0  0  0  0  0  0  0  0  0  0
   37.7460   25.1490   30.9490 C   0  0  0  0  0  0  0  0  0  0  0  0
   37.6490   23.7910   30.9610 N   0  0  0  0  0  0  0  0  0  0  0  0
   36.4910   23.1400   31.1700 C   0  0  0  0  0  0  0  0  0  0  0  0
   35.3560   23.8410   31.3800 N   0  0  0  0  0  0  0  0  0  0  0  0
   36.4610   21.7130   31.1690 N   0  0  0  0  0  0  0  0  0  0  0  0
   37.5950   20.9890   31.2270 C   0  0  0  0  0  0  0  0  0  0  0  0
   37.3300   19.6760   31.2140 N   0  0  0  0  0  0  0  0  0  0  0  0
   35.9800   19.5770   31.1460 C   0  0  0  0  0  0  0  0  0  0  0  0
   35.4620   20.8170   31.1190 N   0  0  0  0  0  0  0  0  0  0  0  0
   36.6400   27.7080   33.6300 N   0  0  0  0  0  0  0  0  0  0  0  0
   37.7130   26.9660   34.2200 C   0  0  0  0  0  0  0  0  0  0  0  0
   38.9160   27.2570   33.7570 N   0  0  0  0  0  0  0  0  0  0  0  0
   37.3780   26.0050   35.2320 N   0  0  0  0  0  0  0  0  0  0  0  0
   39.6790   26.7030   34.2050 H   0  0  0  0  0  0  0  0  0  0  0  0
   36.5868   30.1816   29.6764 H   0  0  0  0  0  0  0  0  0  0  0  0
   36.6440   30.2921   32.3814 H   0  0  0  0  0  0  0  0  0  0  0  0
   34.4526   25.7486   31.5533 H   0  0  0  0  0  0  0  0  0  0  0  0
   38.7070   25.6555   30.7756 H   0  0  0  0  0  0  0  0  0  0  0  0
   38.6061   21.4193   31.2783 H   0  0  0  0  0  0  0  0  0  0  0  0
   35.4050   18.6397   31.1177 H   0  0  0  0  0  0  0  0  0  0  0  0
   35.8516   27.9941   34.2278 H   0  0  0  0  0  0  0  0  0  0  0  0
   38.1205   25.4504   35.6815 H   0  0  0  0  0  0  0  0  0  0  0  0
   36.3951   25.8699   35.5087 H   0  0  0  0  0  0  0  0  0  0  0  0
  1  5  1  0
  2  3  2  0
  2  1  1  0
  3  4  1  0
  4  5  2  0
  5 17  1  0
  7  1  1  0
  7  6  2  0
  8  9  2  0
  8  7  1  0
  9 10  1  0
 10 11  2  0
 11  6  1  0
 12 10  1  0
 12 13  1  0
 14 13  2  0
 15 14  1  0
 16 15  2  0
 16 12  1  0
 17 18  1  0
 18 20  1  0
 19 21  1  0
 19 18  2  0
  3 22  1  0
  4 23  1  0
  6 24  1  0
  8 25  1  0
 13 26  1  0
 15 27  1  0
 17 28  1  0
 20 29  1  0
 20 30  1  0
M  ISO  6  22  14  23  14  24  14  25  14  26  14  27  14
M  END
>  <minimizedAffinity>  (1) 
-4.57476616

>  <minimizedRMSD>  (1) 
7.23250008

$$$$
