
     RDKit          3D

 31 33  0  0  0  0  0  0  0  0999 V2000
   38.2980   23.3030   32.3930 N   0  0  0  0  0  0  0  0  0  0  0  0
   38.9740   22.5000   31.5650 N   0  0  0  0  0  0  0  0  0  0  0  0
   38.6480   22.7130   30.2970 C   0  0  0  0  0  0  0  0  0  0  0  0
   37.6980   23.7230   30.3280 C   0  0  0  0  0  0  0  0  0  0  0  0
   37.4760   24.0950   31.6570 C   0  0  0  0  0  0  0  0  0  0  0  0
   38.8650   24.4560   34.4420 C   0  0  0  0  0  0  0  0  0  0  0  0
   38.4190   23.3200   33.7920 C   0  0  0  0  0  0  0  0  0  0  0  0
   38.0820   22.1690   34.5250 C   0  0  0  0  0  0  0  0  0  0  0  0
   38.2270   22.2660   35.8860 N   0  0  0  0  0  0  0  0  0  0  0  0
   38.6570   23.3620   36.5020 C   0  0  0  0  0  0  0  0  0  0  0  0
   38.9820   24.4750   35.7780 N   0  0  0  0  0  0  0  0  0  0  0  0
   38.7920   23.3970   37.9960 C   0  0  0  0  0  0  0  0  0  0  0  0
   38.1420   24.5020   38.7540 C   0  0  0  0  0  0  0  0  0  0  0  0
   37.5590   23.1200   38.8160 C   0  0  0  0  0  0  0  0  0  0  0  0
   36.5690   25.1000   32.0960 N   0  0  0  0  0  0  0  0  0  0  0  0
   36.7190   26.4850   31.7600 C   0  0  0  0  0  0  0  0  0  0  0  0
   37.1760   26.7180   30.5530 N   0  0  0  0  0  0  0  0  0  0  0  0
   36.3560   27.4410   32.7720 N   0  0  0  0  0  0  0  0  0  0  0  0
   37.2730   27.7330   30.3190 H   0  0  0  0  0  0  0  0  0  0  0  0
   39.0462   22.1984   29.4101 H   0  0  0  0  0  0  0  0  0  0  0  0
   37.2003   24.1601   29.4498 H   0  0  0  0  0  0  0  0  0  0  0  0
   39.1260   25.3514   33.8587 H   0  0  0  0  0  0  0  0  0  0  0  0
   37.7249   21.2493   34.0387 H   0  0  0  0  0  0  0  0  0  0  0  0
   39.8134   22.9909   37.9523 H   0  0  0  0  0  0  0  0  0  0  0  0
   38.6395   24.9277   39.6379 H   0  0  0  0  0  0  0  0  0  0  0  0
   37.7519   25.4966   38.4921 H   0  0  0  0  0  0  0  0  0  0  0  0
   36.6028   22.9017   38.3181 H   0  0  0  0  0  0  0  0  0  0  0  0
   37.2973   22.4175   39.6210 H   0  0  0  0  0  0  0  0  0  0  0  0
   35.7692   24.8194   32.6812 H   0  0  0  0  0  0  0  0  0  0  0  0
   36.4444   28.4496   32.5830 H   0  0  0  0  0  0  0  0  0  0  0  0
   36.0078   27.1168   33.6855 H   0  0  0  0  0  0  0  0  0  0  0  0
  1  7  1  0
  2  1  1  0
  3  4  1  0
  3  2  2  0
  4  5  2  0
  5 15  1  0
  5  1  1  0
  6 11  2  0
  7  6  1  0
  7  8  2  0
  8  9  1  0
  9 10  2  0
 10 12  1  0
 11 10  1  0
 12 13  1  0
 12 14  1  0
 13 14  1  0
 16 15  1  0
 16 18  1  0
 17 16  2  0
 19 17  1  0
  3 20  1  0
  4 21  1  0
  6 22  1  0
  8 23  1  0
 12 24  1  0
 13 25  1  0
 13 26  1  0
 14 27  1  0
 14 28  1  0
 15 29  1  0
 18 30  1  0
 18 31  1  0
M  ISO  8  20  14  21  14  22  14  23  14  24  13  25  13  26  13  27  13
M  ISO  1  28  13
M  END
>  <minimizedAffinity>  (1) 
-4.10756111

>  <minimizedRMSD>  (1) 
2.98632789

$$$$
