
     RDKit          3D

 31 33  0  0  0  0  0  0  0  0999 V2000
   37.8280   24.8530   34.1300 N   0  0  0  0  0  0  0  0  0  0  0  0
   37.2540   26.0380   33.9330 N   0  0  0  0  0  0  0  0  0  0  0  0
   37.5060   26.8780   34.9460 C   0  0  0  0  0  0  0  0  0  0  0  0
   38.2920   26.1540   35.8290 C   0  0  0  0  0  0  0  0  0  0  0  0
   38.4880   24.8700   35.2970 C   0  0  0  0  0  0  0  0  0  0  0  0
   37.4280   22.4980   33.7140 C   0  0  0  0  0  0  0  0  0  0  0  0
   37.7500   23.7630   33.2480 C   0  0  0  0  0  0  0  0  0  0  0  0
   38.0000   23.9540   31.8850 C   0  0  0  0  0  0  0  0  0  0  0  0
   37.9040   22.8450   31.0940 N   0  0  0  0  0  0  0  0  0  0  0  0
   37.5930   21.6350   31.5520 C   0  0  0  0  0  0  0  0  0  0  0  0
   37.3500   21.4540   32.8800 N   0  0  0  0  0  0  0  0  0  0  0  0
   37.5600   20.6560   30.5160 N   0  0  0  0  0  0  0  0  0  0  0  0
   38.4280   20.3080   29.5620 N   0  0  0  0  0  0  0  0  0  0  0  0
   37.9140   19.3090   28.8250 C   0  0  0  0  0  0  0  0  0  0  0  0
   36.6680   19.0210   29.3450 C   0  0  0  0  0  0  0  0  0  0  0  0
   36.4540   19.8770   30.4110 C   0  0  0  0  0  0  0  0  0  0  0  0
   39.2520   23.8410   35.9340 N   0  0  0  0  0  0  0  0  0  0  0  0
   40.5710   23.4840   35.4990 C   0  0  0  0  0  0  0  0  0  0  0  0
   41.3200   24.4880   35.0940 N   0  0  0  0  0  0  0  0  0  0  0  0
   40.9190   22.0880   35.5560 N   0  0  0  0  0  0  0  0  0  0  0  0
   42.2760   24.2090   34.7910 H   0  0  0  0  0  0  0  0  0  0  0  0
   37.1632   27.9177   35.0537 H   0  0  0  0  0  0  0  0  0  0  0  0
   38.6938   26.5230   36.7842 H   0  0  0  0  0  0  0  0  0  0  0  0
   37.2334   22.3496   34.7864 H   0  0  0  0  0  0  0  0  0  0  0  0
   38.2591   24.9409   31.4739 H   0  0  0  0  0  0  0  0  0  0  0  0
   38.3953   18.8139   27.9687 H   0  0  0  0  0  0  0  0  0  0  0  0
   35.9724   18.2516   28.9788 H   0  0  0  0  0  0  0  0  0  0  0  0
   35.5596   19.9180   31.0501 H   0  0  0  0  0  0  0  0  0  0  0  0
   38.8398   23.3390   36.7333 H   0  0  0  0  0  0  0  0  0  0  0  0
   41.8539   21.7776   35.2552 H   0  0  0  0  0  0  0  0  0  0  0  0
   40.2330   21.3998   35.8975 H   0  0  0  0  0  0  0  0  0  0  0  0
  1  5  1  0
  2  1  1  0
  2  3  2  0
  3  4  1  0
  5  4  2  0
  5 17  1  0
  7  6  2  0
  7  1  1  0
  8  7  1  0
  9 10  1  0
  9  8  2  0
 10 11  2  0
 11  6  1  0
 12 10  1  0
 13 12  1  0
 14 15  1  0
 14 13  2  0
 15 16  2  0
 16 12  1  0
 18 20  1  0
 18 17  1  0
 19 18  2  0
 21 19  1  0
  3 22  1  0
  4 23  1  0
  6 24  1  0
  8 25  1  0
 14 26  1  0
 15 27  1  0
 16 28  1  0
 17 29  1  0
 20 30  1  0
 20 31  1  0
M  ISO  7  22  14  23  14  24  14  25  14  26  14  27  14  28  14
M  END
>  <minimizedAffinity>  (1) 
-4.07457876

>  <minimizedRMSD>  (1) 
7.209764

$$$$
