
     RDKit          3D

 37 40  0  0  0  0  0  0  0  0999 V2000
   37.6300   25.0210   34.3830 C   0  0  0  0  0  0  0  0  0  0  0  0
   38.1610   25.3990   35.6290 C   0  0  0  0  0  0  0  0  0  0  0  0
   38.1740   26.7530   35.9990 C   0  0  0  0  0  0  0  0  0  0  0  0
   37.6600   27.6400   35.1120 N   0  0  0  0  0  0  0  0  0  0  0  0
   37.1560   27.2840   33.9340 C   0  0  0  0  0  0  0  0  0  0  0  0
   37.1360   25.9630   33.5540 N   0  0  0  0  0  0  0  0  0  0  0  0
   38.6750   24.4240   36.4930 N   0  0  0  0  0  0  0  0  0  0  0  0
   38.2930   24.2370   37.7500 N   0  0  0  0  0  0  0  0  0  0  0  0
   38.9540   23.2390   38.3270 C   0  0  0  0  0  0  0  0  0  0  0  0
   39.8240   22.7650   37.3430 C   0  0  0  0  0  0  0  0  0  0  0  0
   39.6280   23.5300   36.1940 C   0  0  0  0  0  0  0  0  0  0  0  0
   40.3430   23.3450   34.9600 N   0  0  0  0  0  0  0  0  0  0  0  0
   41.3610   24.2670   34.5090 C   0  0  0  0  0  0  0  0  0  0  0  0
   42.1040   24.7820   35.4470 N   0  0  0  0  0  0  0  0  0  0  0  0
   41.4250   24.4970   33.1090 N   0  0  0  0  0  0  0  0  0  0  0  0
   42.8310   25.4500   35.1030 H   0  0  0  0  0  0  0  0  0  0  0  0
   36.6020   28.2220   32.9720 C   0  0  0  0  0  0  0  0  0  0  0  0
   35.4630   28.9880   32.9600 C   0  0  0  0  0  0  0  0  0  0  0  0
   35.4930   29.6780   31.7600 C   0  0  0  0  0  0  0  0  0  0  0  0
   36.6510   29.3000   31.0890 C   0  0  0  0  0  0  0  0  0  0  0  0
   37.2840   28.4240   31.8600 O   0  0  0  0  0  0  0  0  0  0  0  0
   37.0970   29.7550   29.8160 N   0  0  0  0  0  0  0  0  0  0  0  0
   37.7350   29.0730   28.8290 C   0  0  0  0  0  0  0  0  0  0  0  0
   37.9740   29.9080   27.7790 N   0  0  0  0  0  0  0  0  0  0  0  0
   37.4690   31.1010   28.1500 C   0  0  0  0  0  0  0  0  0  0  0  0
   36.9360   30.9940   29.3980 N   0  0  0  0  0  0  0  0  0  0  0  0
   37.6176   23.9620   34.0859 H   0  0  0  0  0  0  0  0  0  0  0  0
   38.5833   27.0800   36.9662 H   0  0  0  0  0  0  0  0  0  0  0  0
   38.8405   22.8671   39.3560 H   0  0  0  0  0  0  0  0  0  0  0  0
   40.5374   21.9352   37.4546 H   0  0  0  0  0  0  0  0  0  0  0  0
   40.1217   22.5257   34.3763 H   0  0  0  0  0  0  0  0  0  0  0  0
   42.1289   25.1435   32.7250 H   0  0  0  0  0  0  0  0  0  0  0  0
   40.7676   24.0173   32.4777 H   0  0  0  0  0  0  0  0  0  0  0  0
   34.6891   29.0422   33.7398 H   0  0  0  0  0  0  0  0  0  0  0  0
   34.7386   30.3944   31.4026 H   0  0  0  0  0  0  0  0  0  0  0  0
   38.0155   28.0102   28.8711 H   0  0  0  0  0  0  0  0  0  0  0  0
   37.4850   32.0167   27.5406 H   0  0  0  0  0  0  0  0  0  0  0  0
  1  2  2  0
  2  3  1  0
  2  7  1  0
  4  3  2  0
  5  4  1  0
  6  5  2  0
  6  1  1  0
  7  8  1  0
  8  9  2  0
 10  9  1  0
 11  7  1  0
 11 10  2  0
 12 11  1  0
 13 12  1  0
 13 14  2  0
 15 13  1  0
 16 14  1  0
 17  5  1  0
 18 17  2  0
 19 18  1  0
 20 19  2  0
 20 21  1  0
 21 17  1  0
 22 20  1  0
 23 22  1  0
 24 25  1  0
 24 23  2  0
 25 26  2  0
 26 22  1  0
  1 27  1  0
  3 28  1  0
  9 29  1  0
 10 30  1  0
 12 31  1  0
 15 32  1  0
 15 33  1  0
 18 34  1  0
 19 35  1  0
 23 36  1  0
 25 37  1  0
M  ISO  8  27  14  28  14  29  14  30  14  34  14  35  14  36  14  37  14
M  END
>  <minimizedAffinity>  (1) 
-5.28295994

>  <minimizedRMSD>  (1) 
1.28567457

$$$$
