
     RDKit          3D

 38 41  0  0  0  0  0  0  0  0999 V2000
   37.7230   25.0120   34.4460 C   0  0  0  0  0  0  0  0  0  0  0  0
   38.2480   25.3550   35.6830 C   0  0  0  0  0  0  0  0  0  0  0  0
   38.2620   26.7120   36.0820 C   0  0  0  0  0  0  0  0  0  0  0  0
   37.7410   27.6060   35.1970 N   0  0  0  0  0  0  0  0  0  0  0  0
   37.2410   27.2740   34.0210 C   0  0  0  0  0  0  0  0  0  0  0  0
   37.2270   25.9560   33.6280 N   0  0  0  0  0  0  0  0  0  0  0  0
   38.7660   24.3780   36.5380 N   0  0  0  0  0  0  0  0  0  0  0  0
   38.3730   24.1590   37.7800 N   0  0  0  0  0  0  0  0  0  0  0  0
   39.0400   23.1670   38.3600 C   0  0  0  0  0  0  0  0  0  0  0  0
   39.9410   22.7190   37.3820 C   0  0  0  0  0  0  0  0  0  0  0  0
   39.7510   23.4980   36.2370 C   0  0  0  0  0  0  0  0  0  0  0  0
   40.4860   23.3490   35.0150 N   0  0  0  0  0  0  0  0  0  0  0  0
   41.5870   24.2030   34.6660 C   0  0  0  0  0  0  0  0  0  0  0  0
   42.3550   24.5720   35.6750 N   0  0  0  0  0  0  0  0  0  0  0  0
   41.7290   24.5520   33.2900 N   0  0  0  0  0  0  0  0  0  0  0  0
   43.1510   25.1790   35.4000 H   0  0  0  0  0  0  0  0  0  0  0  0
   36.6850   28.2270   33.0710 C   0  0  0  0  0  0  0  0  0  0  0  0
   35.5520   29.0010   33.0920 C   0  0  0  0  0  0  0  0  0  0  0  0
   35.5740   29.6990   31.8950 C   0  0  0  0  0  0  0  0  0  0  0  0
   36.7270   29.3110   31.2000 C   0  0  0  0  0  0  0  0  0  0  0  0
   37.3510   28.4250   31.9590 O   0  0  0  0  0  0  0  0  0  0  0  0
   37.1660   29.7850   29.8900 C   0  0  0  0  0  0  0  0  0  0  0  0
   36.9810   31.0740   29.4300 C   0  0  0  0  0  0  0  0  0  0  0  0
   37.5530   31.0610   28.1530 C   0  0  0  0  0  0  0  0  0  0  0  0
   38.0490   29.7710   27.9240 C   0  0  0  0  0  0  0  0  0  0  0  0
   37.7860   29.0690   28.9920 O   0  0  0  0  0  0  0  0  0  0  0  0
   37.7125   23.9579   34.1316 H   0  0  0  0  0  0  0  0  0  0  0  0
   38.6710   27.0275   37.0532 H   0  0  0  0  0  0  0  0  0  0  0  0
   38.9136   22.7815   39.3825 H   0  0  0  0  0  0  0  0  0  0  0  0
   40.6673   21.9008   37.4960 H   0  0  0  0  0  0  0  0  0  0  0  0
   40.2139   22.6004   34.3619 H   0  0  0  0  0  0  0  0  0  0  0  0
   42.5030   25.1621   32.9907 H   0  0  0  0  0  0  0  0  0  0  0  0
   41.0575   24.1939   32.5959 H   0  0  0  0  0  0  0  0  0  0  0  0
   34.7923   29.0555   33.8856 H   0  0  0  0  0  0  0  0  0  0  0  0
   34.8226   30.4258   31.5527 H   0  0  0  0  0  0  0  0  0  0  0  0
   36.4966   31.9153   29.9472 H   0  0  0  0  0  0  0  0  0  0  0  0
   37.6040   31.9099   27.4553 H   0  0  0  0  0  0  0  0  0  0  0  0
   38.5620   29.4175   27.0174 H   0  0  0  0  0  0  0  0  0  0  0  0
  1  2  2  0
  2  3  1  0
  2  7  1  0
  4  3  2  0
  5  4  1  0
  6  5  2  0
  6  1  1  0
  7  8  1  0
  8  9  2  0
 10  9  1  0
 11  7  1  0
 11 10  2  0
 12 11  1  0
 13 12  1  0
 13 14  2  0
 15 13  1  0
 16 14  1  0
 17 18  2  0
 17  5  1  0
 19 18  1  0
 20 19  2  0
 20 21  1  0
 21 17  1  0
 22 20  1  0
 23 22  2  0
 24 23  1  0
 25 24  2  0
 25 26  1  0
 26 22  1  0
  1 27  1  0
  3 28  1  0
  9 29  1  0
 10 30  1  0
 12 31  1  0
 15 32  1  0
 15 33  1  0
 18 34  1  0
 19 35  1  0
 23 36  1  0
 24 37  1  0
 25 38  1  0
M  ISO  8  27  14  28  14  29  14  30  14  34  14  35  14  36  14  37  14
M  ISO  1  38  14
M  END
>  <minimizedAffinity>  (1) 
-5.23559284

>  <minimizedRMSD>  (1) 
1.21607518

$$$$
