
     RDKit          3D

 36 39  0  0  0  0  0  0  0  0999 V2000
   37.6010   25.0480   34.4520 C   0  0  0  0  0  0  0  0  0  0  0  0
   38.1360   25.4140   35.6860 C   0  0  0  0  0  0  0  0  0  0  0  0
   38.1830   26.7810   36.0570 C   0  0  0  0  0  0  0  0  0  0  0  0
   37.6830   27.6630   35.1420 N   0  0  0  0  0  0  0  0  0  0  0  0
   37.1800   27.3060   33.9750 C   0  0  0  0  0  0  0  0  0  0  0  0
   37.1330   25.9910   33.6180 N   0  0  0  0  0  0  0  0  0  0  0  0
   38.6280   24.4410   36.5680 N   0  0  0  0  0  0  0  0  0  0  0  0
   38.2400   24.2980   37.8300 N   0  0  0  0  0  0  0  0  0  0  0  0
   38.8770   23.2890   38.4290 C   0  0  0  0  0  0  0  0  0  0  0  0
   39.7290   22.7630   37.4550 C   0  0  0  0  0  0  0  0  0  0  0  0
   39.5540   23.5110   36.2780 C   0  0  0  0  0  0  0  0  0  0  0  0
   40.2500   23.2780   35.0620 N   0  0  0  0  0  0  0  0  0  0  0  0
   41.2760   24.1580   34.5670 C   0  0  0  0  0  0  0  0  0  0  0  0
   42.0490   24.6850   35.4920 N   0  0  0  0  0  0  0  0  0  0  0  0
   41.3380   24.3570   33.1560 N   0  0  0  0  0  0  0  0  0  0  0  0
   42.7910   25.3170   35.1220 H   0  0  0  0  0  0  0  0  0  0  0  0
   36.6470   28.2590   33.0030 C   0  0  0  0  0  0  0  0  0  0  0  0
   35.5240   29.0440   32.9860 C   0  0  0  0  0  0  0  0  0  0  0  0
   35.5810   29.7320   31.7780 C   0  0  0  0  0  0  0  0  0  0  0  0
   36.7430   29.3260   31.1220 C   0  0  0  0  0  0  0  0  0  0  0  0
   37.3530   28.4360   31.9000 O   0  0  0  0  0  0  0  0  0  0  0  0
   37.1510   29.8330   29.8140 C   0  0  0  0  0  0  0  0  0  0  0  0
   36.9080   31.0610   29.3170 N   0  0  0  0  0  0  0  0  0  0  0  0
   37.4130   31.1740   28.1270 O   0  0  0  0  0  0  0  0  0  0  0  0
   38.0010   30.0620   27.7740 C   0  0  0  0  0  0  0  0  0  0  0  0
   37.8470   29.2160   28.8140 N   0  0  0  0  0  0  0  0  0  0  0  0
   37.5621   23.9878   34.1615 H   0  0  0  0  0  0  0  0  0  0  0  0
   38.5963   27.1109   37.0215 H   0  0  0  0  0  0  0  0  0  0  0  0
   38.7567   22.9455   39.4670 H   0  0  0  0  0  0  0  0  0  0  0  0
   40.4155   21.9136   37.5860 H   0  0  0  0  0  0  0  0  0  0  0  0
   40.0099   22.4423   34.5099 H   0  0  0  0  0  0  0  0  0  0  0  0
   42.0551   24.9779   32.7545 H   0  0  0  0  0  0  0  0  0  0  0  0
   40.6657   23.8798   32.5386 H   0  0  0  0  0  0  0  0  0  0  0  0
   34.7457   29.1149   33.7601 H   0  0  0  0  0  0  0  0  0  0  0  0
   34.8453   30.4616   31.4085 H   0  0  0  0  0  0  0  0  0  0  0  0
   38.5160   29.8573   26.8238 H   0  0  0  0  0  0  0  0  0  0  0  0
  1  2  2  0
  2  3  1  0
  2  7  1  0
  4  3  2  0
  5  4  1  0
  6  5  2  0
  6  1  1  0
  7  8  1  0
  8  9  2  0
 10  9  1  0
 11  7  1  0
 11 10  2  0
 12 11  1  0
 13 12  1  0
 13 14  2  0
 15 13  1  0
 16 14  1  0
 17  5  1  0
 18 17  2  0
 19 18  1  0
 20 19  2  0
 20 21  1  0
 21 17  1  0
 22 20  1  0
 23 22  2  0
 24 23  1  0
 25 24  1  0
 25 26  2  0
 26 22  1  0
  1 27  1  0
  3 28  1  0
  9 29  1  0
 10 30  1  0
 12 31  1  0
 15 32  1  0
 15 33  1  0
 18 34  1  0
 19 35  1  0
 25 36  1  0
M  ISO  7  27  14  28  14  29  14  30  14  34  14  35  14  36  14
M  END
>  <minimizedAffinity>  (1) 
-5.22791719

>  <minimizedRMSD>  (1) 
1.30144548

$$$$
