
     RDKit          3D

 38 41  0  0  0  0  0  0  0  0999 V2000
   37.9830   24.8720   34.2260 C   0  0  0  0  0  0  0  0  0  0  0  0
   38.6620   25.1960   35.4120 C   0  0  0  0  0  0  0  0  0  0  0  0
   38.6920   26.5330   35.8450 C   0  0  0  0  0  0  0  0  0  0  0  0
   38.0440   27.4510   35.0670 N   0  0  0  0  0  0  0  0  0  0  0  0
   37.4040   27.1340   33.9460 C   0  0  0  0  0  0  0  0  0  0  0  0
   37.3680   25.8290   33.5130 N   0  0  0  0  0  0  0  0  0  0  0  0
   39.3010   24.2040   36.1550 N   0  0  0  0  0  0  0  0  0  0  0  0
   38.8780   23.7240   37.3120 N   0  0  0  0  0  0  0  0  0  0  0  0
   39.6910   22.7820   37.7930 C   0  0  0  0  0  0  0  0  0  0  0  0
   40.7100   22.6700   36.8460 C   0  0  0  0  0  0  0  0  0  0  0  0
   40.4510   23.5780   35.8120 C   0  0  0  0  0  0  0  0  0  0  0  0
   41.2690   23.7620   34.6560 N   0  0  0  0  0  0  0  0  0  0  0  0
   41.9610   24.9820   34.3950 C   0  0  0  0  0  0  0  0  0  0  0  0
   42.4400   25.6070   35.4400 N   0  0  0  0  0  0  0  0  0  0  0  0
   42.0500   25.3770   33.0140 N   0  0  0  0  0  0  0  0  0  0  0  0
   42.9460   26.4890   35.2180 H   0  0  0  0  0  0  0  0  0  0  0  0
   36.7120   28.1000   33.1080 C   0  0  0  0  0  0  0  0  0  0  0  0
   35.5020   28.7320   33.2350 C   0  0  0  0  0  0  0  0  0  0  0  0
   35.3940   29.5390   32.1150 C   0  0  0  0  0  0  0  0  0  0  0  0
   36.5460   29.3570   31.3630 C   0  0  0  0  0  0  0  0  0  0  0  0
   37.2970   28.4840   32.0090 O   0  0  0  0  0  0  0  0  0  0  0  0
   36.9400   29.9720   30.0880 C   0  0  0  0  0  0  0  0  0  0  0  0
   37.5370   29.3680   29.0640 C   0  0  0  0  0  0  0  0  0  0  0  0
   37.8500   30.0620   27.9310 C   0  0  0  0  0  0  0  0  0  0  0  0
   37.4910   31.4360   27.9510 C   0  0  0  0  0  0  0  0  0  0  0  0
   36.7100   31.6290   29.6410 S   0  0  0  0  0  0  0  0  0  0  0  0
   37.9549   23.8284   33.8794 H   0  0  0  0  0  0  0  0  0  0  0  0
   39.2133   26.8270   36.7680 H   0  0  0  0  0  0  0  0  0  0  0  0
   39.5821   22.2172   38.7306 H   0  0  0  0  0  0  0  0  0  0  0  0
   41.5694   21.9857   36.9022 H   0  0  0  0  0  0  0  0  0  0  0  0
   41.3629   22.9853   33.9860 H   0  0  0  0  0  0  0  0  0  0  0  0
   42.5367   26.2479   32.7578 H   0  0  0  0  0  0  0  0  0  0  0  0
   41.6270   24.7888   32.2818 H   0  0  0  0  0  0  0  0  0  0  0  0
   34.7732   28.6216   34.0515 H   0  0  0  0  0  0  0  0  0  0  0  0
   34.5514   30.2014   31.8673 H   0  0  0  0  0  0  0  0  0  0  0  0
   37.7811   28.2975   29.1311 H   0  0  0  0  0  0  0  0  0  0  0  0
   38.3433   29.5923   27.0673 H   0  0  0  0  0  0  0  0  0  0  0  0
   37.6357   32.1962   27.1692 H   0  0  0  0  0  0  0  0  0  0  0  0
  1  2  2  0
  2  3  1  0
  2  7  1  0
  4  3  2  0
  5  4  1  0
  6  5  2  0
  6  1  1  0
  7  8  1  0
  8  9  2  0
 10  9  1  0
 11  7  1  0
 11 10  2  0
 12 11  1  0
 13 12  1  0
 13 14  2  0
 15 13  1  0
 16 14  1  0
 17 18  2  0
 17  5  1  0
 19 18  1  0
 20 21  1  0
 20 19  2  0
 21 17  1  0
 22 20  1  0
 23 22  2  0
 24 25  2  0
 24 23  1  0
 25 26  1  0
 26 22  1  0
  1 27  1  0
  3 28  1  0
  9 29  1  0
 10 30  1  0
 12 31  1  0
 15 32  1  0
 15 33  1  0
 18 34  1  0
 19 35  1  0
 23 36  1  0
 24 37  1  0
 25 38  1  0
M  ISO  8  27  14  28  14  29  14  30  14  34  14  35  14  36  14  37  14
M  ISO  1  38  14
M  END
>  <minimizedAffinity>  (1) 
-5.0919342

>  <minimizedRMSD>  (1) 
1.10533702

$$$$
