
     RDKit          3D

 38 41  0  0  0  0  0  0  0  0999 V2000
   38.0900   24.7370   34.0860 C   0  0  0  0  0  0  0  0  0  0  0  0
   38.8140   25.1210   35.2070 C   0  0  0  0  0  0  0  0  0  0  0  0
   38.9430   26.4950   35.5230 C   0  0  0  0  0  0  0  0  0  0  0  0
   38.3230   27.3710   34.6710 N   0  0  0  0  0  0  0  0  0  0  0  0
   37.6360   26.9980   33.6060 C   0  0  0  0  0  0  0  0  0  0  0  0
   37.5110   25.6640   33.3000 N   0  0  0  0  0  0  0  0  0  0  0  0
   39.4190   24.1580   36.0300 N   0  0  0  0  0  0  0  0  0  0  0  0
   38.9310   23.7120   37.1700 N   0  0  0  0  0  0  0  0  0  0  0  0
   39.7130   22.8020   37.7400 C   0  0  0  0  0  0  0  0  0  0  0  0
   40.7980   22.6750   36.8570 C   0  0  0  0  0  0  0  0  0  0  0  0
   40.5890   23.5410   35.7860 C   0  0  0  0  0  0  0  0  0  0  0  0
   41.4870   23.6930   34.6780 N   0  0  0  0  0  0  0  0  0  0  0  0
   42.1710   24.9270   34.3950 C   0  0  0  0  0  0  0  0  0  0  0  0
   42.5600   25.5930   35.4480 N   0  0  0  0  0  0  0  0  0  0  0  0
   42.3290   25.2550   33.0100 N   0  0  0  0  0  0  0  0  0  0  0  0
   43.0610   26.4760   35.2190 H   0  0  0  0  0  0  0  0  0  0  0  0
   36.9740   27.9180   32.6940 C   0  0  0  0  0  0  0  0  0  0  0  0
   35.7120   28.4990   32.7480 C   0  0  0  0  0  0  0  0  0  0  0  0
   35.6650   29.2810   31.5870 C   0  0  0  0  0  0  0  0  0  0  0  0
   36.8920   29.1280   30.9070 C   0  0  0  0  0  0  0  0  0  0  0  0
   37.6310   28.2940   31.6300 O   0  0  0  0  0  0  0  0  0  0  0  0
   37.2040   29.7800   29.6780 N   0  0  0  0  0  0  0  0  0  0  0  0
   36.8330   31.0570   29.5940 N   0  0  0  0  0  0  0  0  0  0  0  0
   37.1920   31.5440   28.3800 C   0  0  0  0  0  0  0  0  0  0  0  0
   37.8120   30.4910   27.7030 C   0  0  0  0  0  0  0  0  0  0  0  0
   37.8000   29.3860   28.5610 C   0  0  0  0  0  0  0  0  0  0  0  0
   37.9891   23.6699   33.8390 H   0  0  0  0  0  0  0  0  0  0  0  0
   39.5082   26.8394   36.4016 H   0  0  0  0  0  0  0  0  0  0  0  0
   39.5483   22.2690   38.6881 H   0  0  0  0  0  0  0  0  0  0  0  0
   41.6625   22.0077   36.9884 H   0  0  0  0  0  0  0  0  0  0  0  0
   41.6490   22.8856   34.0594 H   0  0  0  0  0  0  0  0  0  0  0  0
   42.8096   26.1245   32.7383 H   0  0  0  0  0  0  0  0  0  0  0  0
   41.9620   24.6214   32.2856 H   0  0  0  0  0  0  0  0  0  0  0  0
   34.9364   28.3744   33.5180 H   0  0  0  0  0  0  0  0  0  0  0  0
   34.8196   29.9052   31.2621 H   0  0  0  0  0  0  0  0  0  0  0  0
   37.0277   32.5645   28.0037 H   0  0  0  0  0  0  0  0  0  0  0  0
   38.2309   30.5244   26.6864 H   0  0  0  0  0  0  0  0  0  0  0  0
   38.2058   28.3856   28.3501 H   0  0  0  0  0  0  0  0  0  0  0  0
  1  2  2  0
  2  3  1  0
  2  7  1  0
  4  3  2  0
  5  4  1  0
  6  5  2  0
  6  1  1  0
  7  8  1  0
  8  9  2  0
 10  9  1  0
 11  7  1  0
 11 10  2  0
 12 11  1  0
 13 12  1  0
 13 14  2  0
 15 13  1  0
 16 14  1  0
 17 18  2  0
 17  5  1  0
 19 18  1  0
 20 19  2  0
 20 21  1  0
 21 17  1  0
 22 20  1  0
 23 22  1  0
 24 23  2  0
 25 24  1  0
 25 26  2  0
 26 22  1  0
  1 27  1  0
  3 28  1  0
  9 29  1  0
 10 30  1  0
 12 31  1  0
 15 32  1  0
 15 33  1  0
 18 34  1  0
 19 35  1  0
 24 36  1  0
 25 37  1  0
 26 38  1  0
M  ISO  8  27  14  28  14  29  14  30  14  34  14  35  14  36  14  37  14
M  ISO  1  38  14
M  END
>  <minimizedAffinity>  (1) 
-5.05332279

>  <minimizedRMSD>  (1) 
0.935055315

$$$$
