
     RDKit          3D

 33 35  0  0  0  0  0  0  0  0999 V2000
   37.7950   25.1880   34.3030 C   0  0  0  0  0  0  0  0  0  0  0  0
   38.4990   25.4020   35.4980 C   0  0  0  0  0  0  0  0  0  0  0  0
   38.5000   26.6850   36.0980 C   0  0  0  0  0  0  0  0  0  0  0  0
   37.7900   27.6530   35.4460 N   0  0  0  0  0  0  0  0  0  0  0  0
   37.1270   27.4480   34.3190 C   0  0  0  0  0  0  0  0  0  0  0  0
   37.1210   26.2080   33.7300 N   0  0  0  0  0  0  0  0  0  0  0  0
   39.2040   24.3540   36.1060 N   0  0  0  0  0  0  0  0  0  0  0  0
   38.8700   23.7730   37.2440 N   0  0  0  0  0  0  0  0  0  0  0  0
   39.7220   22.8090   37.5760 C   0  0  0  0  0  0  0  0  0  0  0  0
   40.6740   22.7890   36.5530 C   0  0  0  0  0  0  0  0  0  0  0  0
   40.3230   23.7780   35.6330 C   0  0  0  0  0  0  0  0  0  0  0  0
   41.0460   24.0770   34.4400 N   0  0  0  0  0  0  0  0  0  0  0  0
   41.7720   25.3070   34.2430 C   0  0  0  0  0  0  0  0  0  0  0  0
   42.3550   25.7790   35.3160 N   0  0  0  0  0  0  0  0  0  0  0  0
   41.7580   25.8400   32.9120 N   0  0  0  0  0  0  0  0  0  0  0  0
   42.8770   26.6700   35.1480 H   0  0  0  0  0  0  0  0  0  0  0  0
   36.3680   28.4800   33.6200 C   0  0  0  0  0  0  0  0  0  0  0  0
   35.4840   29.4350   34.0700 C   0  0  0  0  0  0  0  0  0  0  0  0
   35.0930   30.1210   32.9220 C   0  0  0  0  0  0  0  0  0  0  0  0
   35.7610   29.5430   31.8430 C   0  0  0  0  0  0  0  0  0  0  0  0
   36.5230   28.5520   32.3170 O   0  0  0  0  0  0  0  0  0  0  0  0
   35.6360   29.9540   30.4890 N   0  0  0  0  0  0  0  0  0  0  0  0
   37.7923   24.1926   33.8347 H   0  0  0  0  0  0  0  0  0  0  0  0
   39.0406   26.8899   37.0338 H   0  0  0  0  0  0  0  0  0  0  0  0
   39.6858   22.1641   38.4664 H   0  0  0  0  0  0  0  0  0  0  0  0
   41.5417   22.1164   36.4853 H   0  0  0  0  0  0  0  0  0  0  0  0
   41.0495   23.3797   33.6819 H   0  0  0  0  0  0  0  0  0  0  0  0
   42.2571   26.7164   32.7029 H   0  0  0  0  0  0  0  0  0  0  0  0
   41.2488   25.3465   32.1650 H   0  0  0  0  0  0  0  0  0  0  0  0
   35.1589   29.6160   35.1052 H   0  0  0  0  0  0  0  0  0  0  0  0
   34.3873   30.9635   32.8754 H   0  0  0  0  0  0  0  0  0  0  0  0
   35.0129   30.7366   30.2438 H   0  0  0  0  0  0  0  0  0  0  0  0
   36.1685   29.4694   29.7524 H   0  0  0  0  0  0  0  0  0  0  0  0
  1  2  2  0
  2  3  1  0
  2  7  1  0
  4  3  2  0
  5  4  1  0
  6  1  1  0
  6  5  2  0
  7  8  1  0
  8  9  2  0
 10  9  1  0
 11  7  1  0
 11 10  2  0
 12 11  1  0
 13 12  1  0
 13 14  2  0
 15 13  1  0
 16 14  1  0
 17 18  2  0
 17  5  1  0
 19 18  1  0
 20 21  1  0
 20 19  2  0
 21 17  1  0
 22 20  1  0
  1 23  1  0
  3 24  1  0
  9 25  1  0
 10 26  1  0
 12 27  1  0
 15 28  1  0
 15 29  1  0
 18 30  1  0
 19 31  1  0
 22 32  1  0
 22 33  1  0
M  ISO  6  23  14  24  14  25  14  26  14  30  14  31  14
M  END
>  <minimizedAffinity>  (1) 
-4.95915985

>  <minimizedRMSD>  (1) 
0.954382181

$$$$
