
     RDKit          3D

 43 45  0  0  0  0  0  0  0  0999 V2000
   37.7570   25.3370   34.2770 C   0  0  0  0  0  0  0  0  0  0  0  0
   38.5540   25.4740   35.4090 C   0  0  0  0  0  0  0  0  0  0  0  0
   38.5780   26.7170   36.0940 C   0  0  0  0  0  0  0  0  0  0  0  0
   37.7970   27.7110   35.5780 N   0  0  0  0  0  0  0  0  0  0  0  0
   37.0450   27.5700   34.5030 C   0  0  0  0  0  0  0  0  0  0  0  0
   37.0130   26.3710   33.8300 N   0  0  0  0  0  0  0  0  0  0  0  0
   39.3250   24.4040   35.8730 N   0  0  0  0  0  0  0  0  0  0  0  0
   39.0520   23.6750   36.9400 N   0  0  0  0  0  0  0  0  0  0  0  0
   39.9630   22.7190   37.1450 C   0  0  0  0  0  0  0  0  0  0  0  0
   40.8770   22.8780   36.1070 C   0  0  0  0  0  0  0  0  0  0  0  0
   40.4540   23.9530   35.3090 C   0  0  0  0  0  0  0  0  0  0  0  0
   41.1460   24.4210   34.1380 N   0  0  0  0  0  0  0  0  0  0  0  0
   41.8700   25.6590   34.1100 C   0  0  0  0  0  0  0  0  0  0  0  0
   42.5030   25.9650   35.2290 N   0  0  0  0  0  0  0  0  0  0  0  0
   41.8100   26.3960   32.8800 N   0  0  0  0  0  0  0  0  0  0  0  0
   43.0290   26.8640   35.1690 H   0  0  0  0  0  0  0  0  0  0  0  0
   36.2080   28.6260   33.9470 C   0  0  0  0  0  0  0  0  0  0  0  0
   35.0070   29.1650   34.3420 C   0  0  0  0  0  0  0  0  0  0  0  0
   34.7260   30.1390   33.3970 C   0  0  0  0  0  0  0  0  0  0  0  0
   35.7670   30.1490   32.4710 C   0  0  0  0  0  0  0  0  0  0  0  0
   36.6230   29.2170   32.8590 O   0  0  0  0  0  0  0  0  0  0  0  0
   35.8640   31.0540   31.2790 C   0  0  0  0  0  0  0  0  0  0  0  0
   34.4730   31.5270   30.9670 C   0  0  0  0  0  0  0  0  0  0  0  0
   36.5480   30.3700   30.1320 C   0  0  0  0  0  0  0  0  0  0  0  0
   36.6650   32.2960   31.6760 C   0  0  0  0  0  0  0  0  0  0  0  0
   37.7328   24.3768   33.7409 H   0  0  0  0  0  0  0  0  0  0  0  0
   39.1931   26.8713   36.9928 H   0  0  0  0  0  0  0  0  0  0  0  0
   39.9856   21.9732   37.9532 H   0  0  0  0  0  0  0  0  0  0  0  0
   41.7761   22.2665   35.9406 H   0  0  0  0  0  0  0  0  0  0  0  0
   41.1206   23.8439   33.2852 H   0  0  0  0  0  0  0  0  0  0  0  0
   42.3077   27.2935   32.7926 H   0  0  0  0  0  0  0  0  0  0  0  0
   41.2692   26.0274   32.0846 H   0  0  0  0  0  0  0  0  0  0  0  0
   34.4015   28.8847   35.2165 H   0  0  0  0  0  0  0  0  0  0  0  0
   33.8386   30.7888   33.3809 H   0  0  0  0  0  0  0  0  0  0  0  0
   33.9295   31.7118   31.9053 H   0  0  0  0  0  0  0  0  0  0  0  0
   34.5246   32.4581   30.3836 H   0  0  0  0  0  0  0  0  0  0  0  0
   33.9463   30.7575   30.3836 H   0  0  0  0  0  0  0  0  0  0  0  0
   37.2757   29.6423   30.5203 H   0  0  0  0  0  0  0  0  0  0  0  0
   35.7998   29.8481   29.5174 H   0  0  0  0  0  0  0  0  0  0  0  0
   37.0699   31.1182   29.5174 H   0  0  0  0  0  0  0  0  0  0  0  0
   36.7111   32.3675   32.7727 H   0  0  0  0  0  0  0  0  0  0  0  0
   37.6846   32.2199   31.2703 H   0  0  0  0  0  0  0  0  0  0  0  0
   36.1750   33.1934   31.2703 H   0  0  0  0  0  0  0  0  0  0  0  0
  1  2  2  0
  2  7  1  0
  2  3  1  0
  4  3  2  0
  5  4  1  0
  6  1  1  0
  6  5  2  0
  7  8  1  0
  8  9  2  0
 10  9  1  0
 11  7  1  0
 11 10  2  0
 12 11  1  0
 13 12  1  0
 13 14  2  0
 15 13  1  0
 16 14  1  0
 17 18  2  0
 17  5  1  0
 19 18  1  0
 20 21  1  0
 20 19  2  0
 21 17  1  0
 22 25  1  0
 22 20  1  0
 23 22  1  0
 24 22  1  0
  1 26  1  0
  3 27  1  0
  9 28  1  0
 10 29  1  0
 12 30  1  0
 15 31  1  0
 15 32  1  0
 18 33  1  0
 19 34  1  0
 23 35  1  0
 23 36  1  0
 23 37  1  0
 24 38  1  0
 24 39  1  0
 24 40  1  0
 25 41  1  0
 25 42  1  0
 25 43  1  0
M  ISO  8  26  14  27  14  28  14  29  14  33  14  34  14  35   8  36   8
M  ISO  7  37   8  38   8  39   8  40   8  41   8  42   8  43   8
M  END
>  <minimizedAffinity>  (1) 
-4.87680912

>  <minimizedRMSD>  (1) 
1.74405408

$$$$
