
     RDKit          3D

 33 35  0  0  0  0  0  0  0  0999 V2000
   37.5960   25.0410   34.3740 C   0  0  0  0  0  0  0  0  0  0  0  0
   38.1050   25.4350   35.6180 C   0  0  0  0  0  0  0  0  0  0  0  0
   38.1380   26.7970   35.9530 C   0  0  0  0  0  0  0  0  0  0  0  0
   37.6590   27.6730   35.0230 N   0  0  0  0  0  0  0  0  0  0  0  0
   37.1800   27.2970   33.8480 C   0  0  0  0  0  0  0  0  0  0  0  0
   37.1440   25.9630   33.5120 N   0  0  0  0  0  0  0  0  0  0  0  0
   38.5750   24.4790   36.5150 N   0  0  0  0  0  0  0  0  0  0  0  0
   38.1920   24.3470   37.7770 N   0  0  0  0  0  0  0  0  0  0  0  0
   38.8060   23.3480   38.3980 C   0  0  0  0  0  0  0  0  0  0  0  0
   39.6590   22.7940   37.4400 C   0  0  0  0  0  0  0  0  0  0  0  0
   39.5020   23.5220   36.2520 C   0  0  0  0  0  0  0  0  0  0  0  0
   40.2060   23.2630   35.0260 N   0  0  0  0  0  0  0  0  0  0  0  0
   41.2500   24.1270   34.5390 C   0  0  0  0  0  0  0  0  0  0  0  0
   42.0160   24.6560   35.4720 N   0  0  0  0  0  0  0  0  0  0  0  0
   41.3190   24.2990   33.1170 N   0  0  0  0  0  0  0  0  0  0  0  0
   42.7710   25.2760   35.0870 H   0  0  0  0  0  0  0  0  0  0  0  0
   36.6650   28.2150   32.8430 C   0  0  0  0  0  0  0  0  0  0  0  0
   35.5710   29.0410   32.8130 C   0  0  0  0  0  0  0  0  0  0  0  0
   35.6170   29.6670   31.5790 C   0  0  0  0  0  0  0  0  0  0  0  0
   36.7420   29.1910   30.9120 C   0  0  0  0  0  0  0  0  0  0  0  0
   37.3290   28.3230   31.7200 O   0  0  0  0  0  0  0  0  0  0  0  0
   37.2270   29.5420   29.5820 C   0  0  0  0  0  0  0  0  0  0  0  0
   37.4370   28.6760   28.6880 O   0  0  0  0  0  0  0  0  0  0  0  0
   37.5671   23.9750   34.1043 H   0  0  0  0  0  0  0  0  0  0  0  0
   38.5317   27.1425   36.9203 H   0  0  0  0  0  0  0  0  0  0  0  0
   38.6724   23.0257   39.4412 H   0  0  0  0  0  0  0  0  0  0  0  0
   40.3339   21.9386   37.5910 H   0  0  0  0  0  0  0  0  0  0  0  0
   39.9547   22.4293   34.4759 H   0  0  0  0  0  0  0  0  0  0  0  0
   42.0437   24.9047   32.7061 H   0  0  0  0  0  0  0  0  0  0  0  0
   40.6439   23.8168   32.5066 H   0  0  0  0  0  0  0  0  0  0  0  0
   34.8168   29.1774   33.6020 H   0  0  0  0  0  0  0  0  0  0  0  0
   34.8968   30.4050   31.1961 H   0  0  0  0  0  0  0  0  0  0  0  0
   37.4167   30.6003   29.3495 H   0  0  0  0  0  0  0  0  0  0  0  0
  1  2  2  0
  2  3  1  0
  2  7  1  0
  4  3  2  0
  5  4  1  0
  6  5  2  0
  6  1  1  0
  7  8  1  0
  8  9  2  0
 10  9  1  0
 11  7  1  0
 11 10  2  0
 12 11  1  0
 13 12  1  0
 13 14  2  0
 15 13  1  0
 16 14  1  0
 17  5  1  0
 18 17  2  0
 19 18  1  0
 20 19  2  0
 20 21  1  0
 21 17  1  0
 22 20  1  0
 23 22  2  0
  1 24  1  0
  3 25  1  0
  9 26  1  0
 10 27  1  0
 12 28  1  0
 15 29  1  0
 15 30  1  0
 18 31  1  0
 19 32  1  0
 22 33  1  0
M  ISO  7  24  14  25  14  26  14  27  14  31  14  32  14  33   6
M  END
>  <minimizedAffinity>  (1) 
-4.85186338

>  <minimizedRMSD>  (1) 
1.1665622

$$$$
