
     RDKit          3D

 37 39  0  0  0  0  0  0  0  0999 V2000
   37.9570   25.0340   34.3510 C   0  0  0  0  0  0  0  0  0  0  0  0
   38.6530   25.2300   35.5380 C   0  0  0  0  0  0  0  0  0  0  0  0
   38.6190   26.4930   36.1650 C   0  0  0  0  0  0  0  0  0  0  0  0
   37.8830   27.4550   35.5390 N   0  0  0  0  0  0  0  0  0  0  0  0
   37.2200   27.2520   34.3980 C   0  0  0  0  0  0  0  0  0  0  0  0
   37.2520   26.0380   33.7930 N   0  0  0  0  0  0  0  0  0  0  0  0
   39.3850   24.1850   36.1150 N   0  0  0  0  0  0  0  0  0  0  0  0
   39.0710   23.5670   37.2400 N   0  0  0  0  0  0  0  0  0  0  0  0
   39.9520   22.6130   37.5460 C   0  0  0  0  0  0  0  0  0  0  0  0
   40.8910   22.6430   36.5220 C   0  0  0  0  0  0  0  0  0  0  0  0
   40.5210   23.6470   35.6180 C   0  0  0  0  0  0  0  0  0  0  0  0
   41.2350   23.9870   34.4310 N   0  0  0  0  0  0  0  0  0  0  0  0
   41.9030   25.2470   34.2550 C   0  0  0  0  0  0  0  0  0  0  0  0
   42.4710   25.7330   35.3380 N   0  0  0  0  0  0  0  0  0  0  0  0
   41.8680   25.8080   32.9440 N   0  0  0  0  0  0  0  0  0  0  0  0
   42.9640   26.6310   35.1770 H   0  0  0  0  0  0  0  0  0  0  0  0
   36.4370   28.2900   33.7360 C   0  0  0  0  0  0  0  0  0  0  0  0
   35.4100   29.0990   34.1610 C   0  0  0  0  0  0  0  0  0  0  0  0
   35.0810   29.8820   33.0680 C   0  0  0  0  0  0  0  0  0  0  0  0
   35.9310   29.5050   32.0260 C   0  0  0  0  0  0  0  0  0  0  0  0
   36.7260   28.5470   32.4770 O   0  0  0  0  0  0  0  0  0  0  0  0
   35.9010   30.1140   30.6670 C   0  0  0  0  0  0  0  0  0  0  0  0
   36.9940   29.5200   29.8150 C   0  0  0  0  0  0  0  0  0  0  0  0
   37.9818   24.0491   33.8618 H   0  0  0  0  0  0  0  0  0  0  0  0
   39.1554   26.6905   37.1049 H   0  0  0  0  0  0  0  0  0  0  0  0
   39.9381   21.9461   38.4207 H   0  0  0  0  0  0  0  0  0  0  0  0
   41.7727   21.9909   36.4362 H   0  0  0  0  0  0  0  0  0  0  0  0
   41.2735   23.2986   33.6658 H   0  0  0  0  0  0  0  0  0  0  0  0
   42.3296   26.7096   32.7572 H   0  0  0  0  0  0  0  0  0  0  0  0
   41.3811   25.3115   32.1842 H   0  0  0  0  0  0  0  0  0  0  0  0
   34.9474   29.1197   35.1588 H   0  0  0  0  0  0  0  0  0  0  0  0
   34.2988   30.6543   33.0278 H   0  0  0  0  0  0  0  0  0  0  0  0
   34.9253   29.9152   30.1996 H   0  0  0  0  0  0  0  0  0  0  0  0
   36.0577   31.1994   30.7527 H   0  0  0  0  0  0  0  0  0  0  0  0
   37.7747   29.0957   30.4635 H   0  0  0  0  0  0  0  0  0  0  0  0
   36.5735   28.7263   29.1800 H   0  0  0  0  0  0  0  0  0  0  0  0
   37.4312   30.3046   29.1800 H   0  0  0  0  0  0  0  0  0  0  0  0
  1  2  2  0
  2  7  1  0
  2  3  1  0
  4  3  2  0
  5  4  1  0
  6  1  1  0
  6  5  2  0
  7  8  1  0
  8  9  2  0
 10  9  1  0
 11  7  1  0
 11 10  2  0
 12 11  1  0
 13 12  1  0
 13 14  2  0
 15 13  1  0
 16 14  1  0
 17 18  2  0
 17  5  1  0
 19 18  1  0
 20 21  1  0
 20 19  2  0
 21 17  1  0
 22 20  1  0
 23 22  1  0
  1 24  1  0
  3 25  1  0
  9 26  1  0
 10 27  1  0
 12 28  1  0
 15 29  1  0
 15 30  1  0
 18 31  1  0
 19 32  1  0
 22 33  1  0
 22 34  1  0
 23 35  1  0
 23 36  1  0
 23 37  1  0
M  ISO  8  24  14  25  14  26  14  27  14  31  14  32  14  33   8  34   8
M  ISO  3  35   8  36   8  37   8
M  END
>  <minimizedAffinity>  (1) 
-4.84041405

>  <minimizedRMSD>  (1) 
0.998016059

$$$$
