
     RDKit          3D

 32 34  0  0  0  0  0  0  0  0999 V2000
   38.1370   24.6330   34.0710 C   0  0  0  0  0  0  0  0  0  0  0  0
   38.9000   25.0470   35.1640 C   0  0  0  0  0  0  0  0  0  0  0  0
   39.0720   26.4320   35.4020 C   0  0  0  0  0  0  0  0  0  0  0  0
   38.4700   27.2780   34.5320 N   0  0  0  0  0  0  0  0  0  0  0  0
   37.7410   26.8630   33.4880 C   0  0  0  0  0  0  0  0  0  0  0  0
   37.5720   25.5360   33.2530 N   0  0  0  0  0  0  0  0  0  0  0  0
   39.4870   24.1120   36.0120 N   0  0  0  0  0  0  0  0  0  0  0  0
   38.9660   23.6780   37.1470 N   0  0  0  0  0  0  0  0  0  0  0  0
   39.7490   22.7780   37.7560 C   0  0  0  0  0  0  0  0  0  0  0  0
   40.8460   22.6540   36.9200 C   0  0  0  0  0  0  0  0  0  0  0  0
   40.6750   23.4990   35.8190 C   0  0  0  0  0  0  0  0  0  0  0  0
   41.5970   23.6400   34.7490 N   0  0  0  0  0  0  0  0  0  0  0  0
   42.3530   24.8370   34.5270 C   0  0  0  0  0  0  0  0  0  0  0  0
   42.7610   25.4590   35.6150 N   0  0  0  0  0  0  0  0  0  0  0  0
   42.5770   25.2160   33.1540 N   0  0  0  0  0  0  0  0  0  0  0  0
   43.3160   26.3110   35.4240 H   0  0  0  0  0  0  0  0  0  0  0  0
   37.0960   27.7760   32.5560 C   0  0  0  0  0  0  0  0  0  0  0  0
   35.8730   28.4220   32.5820 C   0  0  0  0  0  0  0  0  0  0  0  0
   35.8400   29.1580   31.3940 C   0  0  0  0  0  0  0  0  0  0  0  0
   37.0440   28.9190   30.7150 C   0  0  0  0  0  0  0  0  0  0  0  0
   37.7560   28.0830   31.4600 O   0  0  0  0  0  0  0  0  0  0  0  0
   37.4660   29.6460   29.1360 S   0  0  0  0  0  0  0  0  0  0  0  0
   37.9974   23.5591   33.8781 H   0  0  0  0  0  0  0  0  0  0  0  0
   39.6650   26.8027   36.2511 H   0  0  0  0  0  0  0  0  0  0  0  0
   39.5627   22.2553   38.7058 H   0  0  0  0  0  0  0  0  0  0  0  0
   41.7113   21.9975   37.0938 H   0  0  0  0  0  0  0  0  0  0  0  0
   41.7284   22.8476   34.1042 H   0  0  0  0  0  0  0  0  0  0  0  0
   43.1140   26.0674   32.9358 H   0  0  0  0  0  0  0  0  0  0  0  0
   42.2000   24.6353   32.3914 H   0  0  0  0  0  0  0  0  0  0  0  0
   35.0998   28.3685   33.3626 H   0  0  0  0  0  0  0  0  0  0  0  0
   35.0193   29.8065   31.0536 H   0  0  0  0  0  0  0  0  0  0  0  0
   38.1461   30.8177   29.3399 H   0  0  0  0  0  0  0  0  0  0  0  0
  1  2  2  0
  2  3  1  0
  2  7  1  0
  4  3  2  0
  5  4  1  0
  6  5  2  0
  6  1  1  0
  7  8  1  0
  8  9  2  0
 10  9  1  0
 11  7  1  0
 11 10  2  0
 12 11  1  0
 13 12  1  0
 13 14  2  0
 15 13  1  0
 16 14  1  0
 17 18  2  0
 17  5  1  0
 19 18  1  0
 20 19  2  0
 20 21  1  0
 21 17  1  0
 22 20  1  0
  1 23  1  0
  3 24  1  0
  9 25  1  0
 10 26  1  0
 12 27  1  0
 15 28  1  0
 15 29  1  0
 18 30  1  0
 19 31  1  0
 22 32  1  0
M  ISO  7  23  14  24  14  25  14  26  14  30  14  31  14  32  11
M  END
>  <minimizedAffinity>  (1) 
-4.5618763

>  <minimizedRMSD>  (1) 
0.465381801

$$$$
