
     RDKit          3D

 15 15  0  0  0  0  0  0  0  0999 V2000
   38.7310   23.3870   38.4880 C   0  0  0  0  0  0  0  0  0  0  0  0
   37.9480   24.3430   37.7990 C   0  0  0  0  0  0  0  0  0  0  0  0
   38.2940   24.6520   36.4700 C   0  0  0  0  0  0  0  0  0  0  0  0
   39.3620   24.0090   35.9280 N   0  0  0  0  0  0  0  0  0  0  0  0
   40.0860   23.1010   36.6170 C   0  0  0  0  0  0  0  0  0  0  0  0
   39.7700   22.7910   37.8920 N   0  0  0  0  0  0  0  0  0  0  0  0
   37.4950   25.5810   35.8750 O   0  0  0  0  0  0  0  0  0  0  0  0
   37.9310   26.8190   35.3890 C   0  0  0  0  0  0  0  0  0  0  0  0
   38.6300   27.6570   36.3050 N   0  0  0  0  0  0  0  0  0  0  0  0
   37.7050   27.1630   34.1850 O   0  0  0  0  0  0  0  0  0  0  0  0
   38.4820   23.1302   39.5282 H   0  0  0  0  0  0  0  0  0  0  0  0
   37.0924   24.8313   38.2884 H   0  0  0  0  0  0  0  0  0  0  0  0
   40.9428   22.6086   36.1338 H   0  0  0  0  0  0  0  0  0  0  0  0
   38.9734   28.5791   36.0004 H   0  0  0  0  0  0  0  0  0  0  0  0
   38.7920   27.3407   37.2718 H   0  0  0  0  0  0  0  0  0  0  0  0
  2  1  2  0
  3  2  1  0
  4  3  2  0
  4  5  1  0
  5  6  2  0
  6  1  1  0
  7  3  1  0
  8  7  1  0
  8  9  1  0
 10  8  2  0
  1 11  1  0
  2 12  1  0
  5 13  1  0
  9 14  1  0
  9 15  1  0
M  ISO  3  11  14  12  14  13  14
M  END
>  <minimizedAffinity>  (1) 
-3.61299729

>  <minimizedRMSD>  (1) 
3.86855364

$$$$
