
     RDKit          3D

 18 19  0  0  0  0  0  0  0  0999 V2000
   40.3860   22.2960   37.6900 C   0  0  0  0  0  0  0  0  0  0  0  0
   39.3200   23.2100   37.6390 C   0  0  0  0  0  0  0  0  0  0  0  0
   38.8950   23.6860   36.3860 C   0  0  0  0  0  0  0  0  0  0  0  0
   39.5560   23.2210   35.2780 N   0  0  0  0  0  0  0  0  0  0  0  0
   40.5750   22.3430   35.3750 C   0  0  0  0  0  0  0  0  0  0  0  0
   40.9930   21.8780   36.5760 N   0  0  0  0  0  0  0  0  0  0  0  0
   37.8600   24.5700   36.3750 O   0  0  0  0  0  0  0  0  0  0  0  0
   37.7490   25.6110   35.4540 C   0  0  0  0  0  0  0  0  0  0  0  0
   37.7140   27.0040   35.4250 C   0  0  0  0  0  0  0  0  0  0  0  0
   37.5850   27.3710   34.1320 N   0  0  0  0  0  0  0  0  0  0  0  0
   37.5400   26.2470   33.3620 C   0  0  0  0  0  0  0  0  0  0  0  0
   37.6420   25.1760   34.1870 N   0  0  0  0  0  0  0  0  0  0  0  0
   40.7269   21.9178   38.6651 H   0  0  0  0  0  0  0  0  0  0  0  0
   38.8268   23.5471   38.5627 H   0  0  0  0  0  0  0  0  0  0  0  0
   41.0771   21.9974   34.4593 H   0  0  0  0  0  0  0  0  0  0  0  0
   37.7792   27.6776   36.2922 H   0  0  0  0  0  0  0  0  0  0  0  0
   37.4390   26.2147   32.2671 H   0  0  0  0  0  0  0  0  0  0  0  0
   37.6381   24.1895   33.8909 H   0  0  0  0  0  0  0  0  0  0  0  0
  2  1  2  0
  3  2  1  0
  4  5  1  0
  4  3  2  0
  5  6  2  0
  6  1  1  0
  7  3  1  0
  8  7  1  0
  9  8  2  0
 10  9  1  0
 11 10  2  0
 11 12  1  0
 12  8  1  0
  1 13  1  0
  2 14  1  0
  5 15  1  0
  9 16  1  0
 11 17  1  0
 12 18  1  0
M  ISO  6  13  14  14  14  15  14  16  14  17  14  18   9
M  END
>  <minimizedAffinity>  (1) 
-3.06740046

>  <minimizedRMSD>  (1) 
4.51593494

$$$$
