
     RDKit          3D

 14 14  0  0  0  0  0  0  0  0999 V2000
   41.3770   21.8090   36.4280 C   0  0  0  0  0  0  0  0  0  0  0  0
   40.6930   22.2860   37.5850 C   0  0  0  0  0  0  0  0  0  0  0  0
   39.4310   22.8790   37.4010 C   0  0  0  0  0  0  0  0  0  0  0  0
   38.9520   22.9540   36.1310 N   0  0  0  0  0  0  0  0  0  0  0  0
   39.6220   22.4960   35.0720 C   0  0  0  0  0  0  0  0  0  0  0  0
   40.8300   21.9240   35.2170 N   0  0  0  0  0  0  0  0  0  0  0  0
   38.8190   23.3180   38.5360 O   0  0  0  0  0  0  0  0  0  0  0  0
   37.9300   24.3800   38.6630 C   0  0  0  0  0  0  0  0  0  0  0  0
   42.3667   21.3411   36.5356 H   0  0  0  0  0  0  0  0  0  0  0  0
   41.1373   22.1933   38.5870 H   0  0  0  0  0  0  0  0  0  0  0  0
   39.1808   22.5875   34.0685 H   0  0  0  0  0  0  0  0  0  0  0  0
   37.7564   24.5874   39.7292 H   0  0  0  0  0  0  0  0  0  0  0  0
   38.3539   25.2728   38.1801 H   0  0  0  0  0  0  0  0  0  0  0  0
   36.9765   24.1198   38.1801 H   0  0  0  0  0  0  0  0  0  0  0  0
  1  2  2  0
  3  2  1  0
  3  7  1  0
  4  3  2  0
  5  6  2  0
  5  4  1  0
  6  1  1  0
  7  8  1  0
  1  9  1  0
  2 10  1  0
  5 11  1  0
  8 12  1  0
  8 13  1  0
  8 14  1  0
M  ISO  6   9  14  10  14  11  14  12   8  13   8  14   8
M  END
>  <minimizedAffinity>  (1) 
-2.60371828

>  <minimizedRMSD>  (1) 
1.40256453

$$$$
