
     RDKit          3D

 18 19  0  0  0  0  0  0  0  0999 V2000
   41.6180   21.4490   37.0550 C   0  0  0  0  0  0  0  0  0  0  0  0
   41.9740   22.8220   36.9840 C   0  0  0  0  0  0  0  0  0  0  0  0
   43.2190   23.1490   36.4430 C   0  0  0  0  0  0  0  0  0  0  0  0
   44.0340   22.1360   36.0090 N   0  0  0  0  0  0  0  0  0  0  0  0
   43.6570   20.8520   36.0940 C   0  0  0  0  0  0  0  0  0  0  0  0
   42.4670   20.5020   36.6090 N   0  0  0  0  0  0  0  0  0  0  0  0
   43.5040   24.4860   36.4030 O   0  0  0  0  0  0  0  0  0  0  0  0
   44.7610   25.0750   36.6390 C   0  0  0  0  0  0  0  0  0  0  0  0
   44.8570   25.9640   37.8550 C   0  0  0  0  0  0  0  0  0  0  0  0
   45.5900   24.6570   37.7940 C   0  0  0  0  0  0  0  0  0  0  0  0
   40.6446   21.1570   37.4760 H   0  0  0  0  0  0  0  0  0  0  0  0
   41.2896   23.6042   37.3443 H   0  0  0  0  0  0  0  0  0  0  0  0
   44.3382   20.0671   35.7336 H   0  0  0  0  0  0  0  0  0  0  0  0
   44.9660   25.1597   35.5616 H   0  0  0  0  0  0  0  0  0  0  0  0
   45.4124   26.9121   37.8041 H   0  0  0  0  0  0  0  0  0  0  0  0
   44.1372   26.4272   38.5458 H   0  0  0  0  0  0  0  0  0  0  0  0
   45.2654   23.8170   38.4257 H   0  0  0  0  0  0  0  0  0  0  0  0
   46.6392   24.3525   37.9225 H   0  0  0  0  0  0  0  0  0  0  0  0
  2  1  2  0
  3  2  1  0
  4  5  1  0
  4  3  2  0
  5  6  2  0
  6  1  1  0
  7  3  1  0
  7  8  1  0
  8 10  1  0
  8  9  1  0
 10  9  1  0
  1 11  1  0
  2 12  1  0
  5 13  1  0
  8 14  1  0
  9 15  1  0
  9 16  1  0
 10 17  1  0
 10 18  1  0
M  ISO  8  11  14  12  14  13  14  14  13  15  13  16  13  17  13  18  13
M  END
>  <minimizedAffinity>  (1) 
-2.41782546

>  <minimizedRMSD>  (1) 
6.32460308

$$$$
