
     RDKit          3D

 32 35  0  0  1  0  0  0  0  0999 V2000
   44.6420   24.2920   36.4240 C   0  0  1  0  0  0  0  0  0  0  0  0
   44.4750   25.4810   37.2610 C   0  0  0  0  0  0  0  0  0  0  0  0
   45.6610   24.6250   37.5080 C   0  0  2  0  0  0  0  0  0  0  0  0
   46.9300   25.3070   37.1280 C   0  0  0  0  0  0  0  0  0  0  0  0
   46.9430   26.2810   36.1670 N   0  0  0  0  0  0  0  0  0  0  0  0
   48.0570   26.9190   35.7770 C   0  0  0  0  0  0  0  0  0  0  0  0
   49.2690   26.6380   36.3160 N   0  0  0  0  0  0  0  0  0  0  0  0
   49.3340   25.6860   37.2710 C   0  0  0  0  0  0  0  0  0  0  0  0
   50.5480   25.3800   37.8420 C   0  0  0  0  0  0  0  0  0  0  0  0
   50.6380   24.4150   38.8240 C   0  0  0  0  0  0  0  0  0  0  0  0
   49.4750   23.7570   39.2250 C   0  0  0  0  0  0  0  0  0  0  0  0
   48.2910   24.1100   38.6130 C   0  0  0  0  0  0  0  0  0  0  0  0
   48.1840   25.0580   37.6440 C   0  0  0  0  0  0  0  0  0  0  0  0
   43.7130   23.2620   36.7610 O   0  0  0  0  0  0  0  0  0  0  0  0
   40.2800   22.2090   36.8240 C   0  0  0  0  0  0  0  0  0  0  0  0
   41.6770   22.3150   37.1160 C   0  0  0  0  0  0  0  0  0  0  0  0
   42.3920   23.2890   36.3840 C   0  0  0  0  0  0  0  0  0  0  0  0
   41.7530   24.0580   35.4700 N   0  0  0  0  0  0  0  0  0  0  0  0
   40.4510   23.9230   35.2330 C   0  0  0  0  0  0  0  0  0  0  0  0
   39.7220   23.0210   35.8900 N   0  0  0  0  0  0  0  0  0  0  0  0
   44.7104   24.0730   35.3482 H   0  0  0  0  0  0  0  0  0  0  0  0
   44.6080   26.4796   36.8193 H   0  0  0  0  0  0  0  0  0  0  0  0
   43.6608   25.8601   37.8961 H   0  0  0  0  0  0  0  0  0  0  0  0
   46.1052   24.0365   38.3244 H   0  0  0  0  0  0  0  0  0  0  0  0
   47.9850   27.6921   34.9978 H   0  0  0  0  0  0  0  0  0  0  0  0
   51.4544   25.9092   37.5128 H   0  0  0  0  0  0  0  0  0  0  0  0
   51.6076   24.1693   39.2817 H   0  0  0  0  0  0  0  0  0  0  0  0
   49.5018   22.9814   40.0045 H   0  0  0  0  0  0  0  0  0  0  0  0
   47.3738   23.5913   38.9290 H   0  0  0  0  0  0  0  0  0  0  0  0
   39.6600   21.4716   37.3549 H   0  0  0  0  0  0  0  0  0  0  0  0
   42.1653   21.6757   37.8662 H   0  0  0  0  0  0  0  0  0  0  0  0
   39.9681   24.5662   34.4826 H   0  0  0  0  0  0  0  0  0  0  0  0
  1 14  1  0
  1  2  1  0
  1  3  1  0
  2  3  1  0
  4  3  1  0
  4 13  1  0
  5  4  2  0
  6  5  1  0
  6  7  2  0
  7  8  1  0
  8 13  2  0
  8  9  1  0
  9 10  2  0
 10 11  1  0
 12 11  2  0
 13 12  1  0
 15 16  2  0
 17 14  1  0
 17 16  1  0
 18 17  2  0
 19 18  1  0
 19 20  2  0
 20 15  1  0
  1 21  1  6
  2 22  1  0
  2 23  1  0
  3 24  1  1
  6 25  1  0
  9 26  1  0
 10 27  1  0
 11 28  1  0
 12 29  1  0
 15 30  1  0
 16 31  1  0
 19 32  1  0
M  ISO  8  21  13  22  13  23  13  24  13  25  14  26  14  27  14  28  14
M  ISO  4  29  14  30  14  31  14  32  14
M  END
>  <minimizedAffinity>  (1) 
-4.37911701

>  <minimizedRMSD>  (1) 
2.21693349

$$$$
