
     RDKit          3D

 26 28  0  0  1  0  0  0  0  0999 V2000
   44.9770   25.1620   37.2540 C   0  0  1  0  0  0  0  0  0  0  0  0
   45.0130   26.0570   38.4130 C   0  0  0  0  0  0  0  0  0  0  0  0
   46.0190   24.9710   38.3560 C   0  0  2  0  0  0  0  0  0  0  0  0
   47.4130   25.3180   37.9820 C   0  0  0  0  0  0  0  0  0  0  0  0
   48.4990   24.4820   38.1480 C   0  0  0  0  0  0  0  0  0  0  0  0
   49.7560   24.9220   37.7590 C   0  0  0  0  0  0  0  0  0  0  0  0
   49.9370   26.1420   37.2260 N   0  0  0  0  0  0  0  0  0  0  0  0
   48.8800   26.9460   37.0690 C   0  0  0  0  0  0  0  0  0  0  0  0
   47.6520   26.5320   37.4430 N   0  0  0  0  0  0  0  0  0  0  0  0
   43.8800   24.2290   37.3010 O   0  0  0  0  0  0  0  0  0  0  0  0
   41.2920   22.5520   35.4730 C   0  0  0  0  0  0  0  0  0  0  0  0
   42.1680   22.9700   36.5280 C   0  0  0  0  0  0  0  0  0  0  0  0
   43.1170   23.9550   36.1870 C   0  0  0  0  0  0  0  0  0  0  0  0
   43.1640   24.4580   34.9240 N   0  0  0  0  0  0  0  0  0  0  0  0
   42.3310   24.0400   33.9830 C   0  0  0  0  0  0  0  0  0  0  0  0
   41.3970   23.0940   34.2420 N   0  0  0  0  0  0  0  0  0  0  0  0
   45.0160   25.2763   36.1606 H   0  0  0  0  0  0  0  0  0  0  0  0
   45.3334   27.1012   38.2828 H   0  0  0  0  0  0  0  0  0  0  0  0
   44.2678   26.3681   39.1600 H   0  0  0  0  0  0  0  0  0  0  0  0
   46.3287   24.1691   39.0423 H   0  0  0  0  0  0  0  0  0  0  0  0
   48.3694   23.4800   38.5830 H   0  0  0  0  0  0  0  0  0  0  0  0
   50.6230   24.2578   37.8898 H   0  0  0  0  0  0  0  0  0  0  0  0
   49.0124   27.9475   36.6337 H   0  0  0  0  0  0  0  0  0  0  0  0
   40.5290   21.7841   35.6685 H   0  0  0  0  0  0  0  0  0  0  0  0
   42.1036   22.5479   37.5417 H   0  0  0  0  0  0  0  0  0  0  0  0
   42.3990   24.4691   32.9724 H   0  0  0  0  0  0  0  0  0  0  0  0
  1 10  1  0
  1  3  1  0
  1  2  1  0
  3  2  1  0
  4  5  2  0
  4  3  1  0
  6  5  1  0
  7  6  2  0
  8  7  1  0
  8  9  2  0
  9  4  1  0
 11 12  2  0
 13 12  1  0
 13 10  1  0
 14 13  2  0
 15 16  2  0
 15 14  1  0
 16 11  1  0
  1 17  1  6
  2 18  1  0
  2 19  1  0
  3 20  1  1
  5 21  1  0
  6 22  1  0
  8 23  1  0
 11 24  1  0
 12 25  1  0
 15 26  1  0
M  ISO  8  17  13  18  13  19  13  20  13  21  14  22  14  23  14  24  14
M  ISO  2  25  14  26  14
M  END
>  <minimizedAffinity>  (1) 
-3.53719115

>  <minimizedRMSD>  (1) 
1.83915973

$$$$
