
     RDKit          3D

 19 20  0  0  1  0  0  0  0  0999 V2000
   44.0570   25.6070   36.1110 O   0  0  0  0  0  0  0  0  0  0  0  0
   45.8830   25.4630   39.2040 C   0  0  0  0  0  0  0  0  0  0  0  0
   44.8740   25.7400   38.2250 C   0  0  0  0  0  0  0  0  0  0  0  0
   45.1090   25.2420   36.9250 C   0  0  0  0  0  0  0  0  0  0  0  0
   46.2480   24.5380   36.6540 N   0  0  0  0  0  0  0  0  0  0  0  0
   47.1490   24.3120   37.5980 C   0  0  0  0  0  0  0  0  0  0  0  0
   46.9830   24.7580   38.8440 N   0  0  0  0  0  0  0  0  0  0  0  0
   44.1730   25.6420   34.6820 C   0  0  1  0  0  0  0  0  0  0  0  0
   43.0430   26.3180   34.0370 C   0  0  0  0  0  0  0  0  0  0  0  0
   44.3300   27.0410   34.0830 C   0  0  1  0  0  0  0  0  0  0  0  0
   44.5720   28.0770   34.9500 O   0  0  0  0  0  0  0  0  0  0  0  0
   45.7658   25.8193   40.2381 H   0  0  0  0  0  0  0  0  0  0  0  0
   43.9661   26.3095   38.4728 H   0  0  0  0  0  0  0  0  0  0  0  0
   48.0564   23.7426   37.3484 H   0  0  0  0  0  0  0  0  0  0  0  0
   44.7033   24.6854   34.5652 H   0  0  0  0  0  0  0  0  0  0  0  0
   42.2003   26.6708   34.6497 H   0  0  0  0  0  0  0  0  0  0  0  0
   42.3523   26.0426   33.2264 H   0  0  0  0  0  0  0  0  0  0  0  0
   44.9441   27.5407   33.3193 H   0  0  0  0  0  0  0  0  0  0  0  0
   44.4961   27.7519   35.8820 H   0  0  0  0  0  0  0  0  0  0  0  0
  1  4  1  0
  3  2  2  0
  4  3  1  0
  5  4  2  0
  5  6  1  0
  6  7  2  0
  7  2  1  0
  8  1  1  0
  9 10  1  0
  9  8  1  0
 10  8  1  0
 10 11  1  0
  2 12  1  0
  3 13  1  0
  6 14  1  0
  8 15  1  6
  9 16  1  0
  9 17  1  0
 10 18  1  6
 11 19  1  0
M  ISO  8  12  14  13  14  14  14  15  13  16  13  17  13  18  13  19   3
M  END
>  <minimizedAffinity>  (1) 
-3.36008644

>  <minimizedRMSD>  (1) 
4.52131653

$$$$
