
     RDKit          3D

 25 27  0  0  1  0  0  0  0  0999 V2000
   44.8960   25.2310   37.2890 C   0  0  1  0  0  0  0  0  0  0  0  0
   44.9990   26.1160   38.4470 C   0  0  0  0  0  0  0  0  0  0  0  0
   45.9590   24.9930   38.3680 C   0  0  2  0  0  0  0  0  0  0  0  0
   47.3120   25.3100   37.9830 C   0  0  0  0  0  0  0  0  0  0  0  0
   47.8910   26.3980   37.3570 C   0  0  0  0  0  0  0  0  0  0  0  0
   49.2130   26.4590   37.1030 C   0  0  0  0  0  0  0  0  0  0  0  0
   49.9740   25.3120   37.5290 C   0  0  0  0  0  0  0  0  0  0  0  0
   48.6710   24.1820   38.2970 S   0  0  0  0  0  0  0  0  0  0  0  0
   43.7710   24.3440   37.3520 O   0  0  0  0  0  0  0  0  0  0  0  0
   41.9090   21.7710   35.6740 C   0  0  0  0  0  0  0  0  0  0  0  0
   42.2700   22.8550   36.5350 C   0  0  0  0  0  0  0  0  0  0  0  0
   43.6030   23.3160   36.4480 C   0  0  0  0  0  0  0  0  0  0  0  0
   44.4640   22.7350   35.5750 N   0  0  0  0  0  0  0  0  0  0  0  0
   44.0770   21.7290   34.7950 C   0  0  0  0  0  0  0  0  0  0  0  0
   42.8330   21.2560   34.8410 N   0  0  0  0  0  0  0  0  0  0  0  0
   44.9107   25.3503   36.1956 H   0  0  0  0  0  0  0  0  0  0  0  0
   45.3583   27.1467   38.3111 H   0  0  0  0  0  0  0  0  0  0  0  0
   44.2846   26.4536   39.2123 H   0  0  0  0  0  0  0  0  0  0  0  0
   46.2525   24.1688   39.0347 H   0  0  0  0  0  0  0  0  0  0  0  0
   47.2519   27.2413   37.0565 H   0  0  0  0  0  0  0  0  0  0  0  0
   49.6781   27.3230   36.6058 H   0  0  0  0  0  0  0  0  0  0  0  0
   51.0554   25.1367   37.4304 H   0  0  0  0  0  0  0  0  0  0  0  0
   40.8877   21.3627   35.6923 H   0  0  0  0  0  0  0  0  0  0  0  0
   41.5465   23.3068   37.2296 H   0  0  0  0  0  0  0  0  0  0  0  0
   44.7992   21.2789   34.0980 H   0  0  0  0  0  0  0  0  0  0  0  0
  1  9  1  0
  1  3  1  0
  1  2  1  0
  3  2  1  0
  4  8  1  0
  4  3  1  0
  5  4  2  0
  6  5  1  0
  6  7  2  0
  7  8  1  0
 10 11  2  0
 12 11  1  0
 12  9  1  0
 13 12  2  0
 14 15  2  0
 14 13  1  0
 15 10  1  0
  1 16  1  6
  2 17  1  0
  2 18  1  0
  3 19  1  1
  5 20  1  0
  6 21  1  0
  7 22  1  0
 10 23  1  0
 11 24  1  0
 14 25  1  0
M  ISO  8  16  13  17  13  18  13  19  13  20  14  21  14  22  14  23  14
M  ISO  2  24  14  25  14
M  END
>  <minimizedAffinity>  (1) 
-3.35483122

>  <minimizedRMSD>  (1) 
1.11846328

$$$$
