
     RDKit          3D

 31 32  0  0  0  0  0  0  0  0999 V2000
   37.9020   25.1200   34.7250 C   0  0  0  0  0  0  0  0  0  0  0  0
   38.2050   23.7970   38.1900 C   0  0  0  0  0  0  0  0  0  0  0  0
   39.3600   23.0160   38.1000 C   0  0  0  0  0  0  0  0  0  0  0  0
   40.0370   22.9400   36.8610 C   0  0  0  0  0  0  0  0  0  0  0  0
   39.4900   23.6590   35.8230 N   0  0  0  0  0  0  0  0  0  0  0  0
   38.3800   24.3930   35.9570 C   0  0  0  0  0  0  0  0  0  0  0  0
   37.7380   24.4640   37.1340 N   0  0  0  0  0  0  0  0  0  0  0  0
   38.8020   24.7690   33.5600 C   0  0  0  0  0  0  0  0  0  0  0  0
   38.0640   24.4880   32.3600 N   0  0  0  0  0  0  0  0  0  0  0  0
   37.1160   23.4320   32.4790 C   0  0  0  0  0  0  0  0  0  0  0  0
   36.2340   23.4640   31.2420 C   0  0  0  0  0  0  0  0  0  0  0  0
   35.3360   24.6820   31.2910 C   0  0  0  0  0  0  0  0  0  0  0  0
   36.1520   25.8840   31.6350 C   0  0  0  0  0  0  0  0  0  0  0  0
   37.6240   25.6700   31.7000 C   0  0  0  0  0  0  0  0  0  0  0  0
   36.8694   24.8174   34.4965 H   0  0  0  0  0  0  0  0  0  0  0  0
   37.9317   26.2054   34.9013 H   0  0  0  0  0  0  0  0  0  0  0  0
   37.6711   23.8629   39.1495 H   0  0  0  0  0  0  0  0  0  0  0  0
   39.7361   22.4698   38.9776 H   0  0  0  0  0  0  0  0  0  0  0  0
   40.9499   22.3397   36.7339 H   0  0  0  0  0  0  0  0  0  0  0  0
   39.4776   25.6157   33.3685 H   0  0  0  0  0  0  0  0  0  0  0  0
   39.3594   23.8600   33.8302 H   0  0  0  0  0  0  0  0  0  0  0  0
   37.6373   22.4655   32.5429 H   0  0  0  0  0  0  0  0  0  0  0  0
   36.5102   23.5577   33.3885 H   0  0  0  0  0  0  0  0  0  0  0  0
   35.6161   22.5545   31.2091 H   0  0  0  0  0  0  0  0  0  0  0  0
   36.8663   23.5118   30.3432 H   0  0  0  0  0  0  0  0  0  0  0  0
   34.8619   24.8286   30.3093 H   0  0  0  0  0  0  0  0  0  0  0  0
   34.5574   24.5349   32.0540 H   0  0  0  0  0  0  0  0  0  0  0  0
   35.9560   26.6541   30.8744 H   0  0  0  0  0  0  0  0  0  0  0  0
   35.8464   26.1720   32.6517 H   0  0  0  0  0  0  0  0  0  0  0  0
   38.0032   25.6377   30.6679 H   0  0  0  0  0  0  0  0  0  0  0  0
   38.0137   26.5033   32.3032 H   0  0  0  0  0  0  0  0  0  0  0  0
  1  6  1  0
  3  2  2  0
  4  3  1  0
  5  6  1  0
  5  4  2  0
  6  7  2  0
  7  2  1  0
  8  1  1  0
  9 10  1  0
  9  8  1  0
 11 12  1  0
 11 10  1  0
 12 13  1  0
 13 14  1  0
 14  9  1  0
  1 15  1  0
  1 16  1  0
  2 17  1  0
  3 18  1  0
  4 19  1  0
  8 20  1  0
  8 21  1  0
 10 22  1  0
 10 23  1  0
 11 24  1  0
 11 25  1  0
 12 26  1  0
 12 27  1  0
 13 28  1  0
 13 29  1  0
 14 30  1  0
 14 31  1  0
M  ISO  8  15   8  16   8  17  14  18  14  19  14  20   8  21   8  22  13
M  ISO  8  23  13  24  13  25  13  26  13  27  13  28  13  29  13  30  13
M  ISO  1  31  13
M  END
>  <minimizedAffinity>  (1) 
-3.7416935

>  <minimizedRMSD>  (1) 
3.81113935

$$$$
