
     RDKit          3D

 24 25  0  0  1  0  0  0  0  0999 V2000
   43.7750   24.1530   36.2220 O   0  0  0  0  0  0  0  0  0  0  0  0
   41.1490   21.8870   37.1420 C   0  0  0  0  0  0  0  0  0  0  0  0
   41.8760   23.0730   36.8750 C   0  0  0  0  0  0  0  0  0  0  0  0
   43.2070   22.9160   36.4220 C   0  0  0  0  0  0  0  0  0  0  0  0
   43.7330   21.6730   36.2590 N   0  0  0  0  0  0  0  0  0  0  0  0
   42.9960   20.5850   36.5290 C   0  0  0  0  0  0  0  0  0  0  0  0
   41.7380   20.6810   36.9590 N   0  0  0  0  0  0  0  0  0  0  0  0
   44.9870   24.5620   36.8820 C   0  0  1  0  0  0  0  0  0  0  0  0
   45.2950   25.9800   36.6410 C   0  0  0  0  0  0  0  0  0  0  0  0
   44.7800   25.6130   37.9780 C   0  0  2  0  0  0  0  0  0  0  0  0
   45.8000   25.6830   39.0870 C   0  0  0  0  0  0  0  0  0  0  0  0
   47.0280   24.8570   38.7860 C   0  0  0  0  0  0  0  0  0  0  0  0
   40.1094   21.9452   37.4968 H   0  0  0  0  0  0  0  0  0  0  0  0
   41.4274   24.0678   37.0132 H   0  0  0  0  0  0  0  0  0  0  0  0
   43.4411   19.5885   36.3921 H   0  0  0  0  0  0  0  0  0  0  0  0
   45.5251   23.6048   36.8170 H   0  0  0  0  0  0  0  0  0  0  0  0
   46.3427   26.2967   36.5312 H   0  0  0  0  0  0  0  0  0  0  0  0
   44.9837   26.7086   35.8779 H   0  0  0  0  0  0  0  0  0  0  0  0
   43.9351   25.8981   38.6221 H   0  0  0  0  0  0  0  0  0  0  0  0
   46.1032   26.7315   39.2237 H   0  0  0  0  0  0  0  0  0  0  0  0
   45.3360   25.2782   39.9985 H   0  0  0  0  0  0  0  0  0  0  0  0
   47.4976   24.5411   39.7292 H   0  0  0  0  0  0  0  0  0  0  0  0
   46.7391   23.9689   38.2048 H   0  0  0  0  0  0  0  0  0  0  0  0
   47.7417   25.4594   38.2048 H   0  0  0  0  0  0  0  0  0  0  0  0
  1  4  1  0
  1  8  1  0
  3  2  2  0
  4  3  1  0
  5  4  2  0
  5  6  1  0
  6  7  2  0
  7  2  1  0
  8 10  1  0
  9  8  1  0
  9 10  1  0
 10 11  1  0
 12 11  1  0
  2 13  1  0
  3 14  1  0
  6 15  1  0
  8 16  1  1
  9 17  1  0
  9 18  1  0
 10 19  1  1
 11 20  1  0
 11 21  1  0
 12 22  1  0
 12 23  1  0
 12 24  1  0
M  ISO  8  13  14  14  14  15  14  16  13  17  13  18  13  19  13  20   8
M  ISO  4  21   8  22   8  23   8  24   8
M  END
>  <minimizedAffinity>  (1) 
-3.29364991

>  <minimizedRMSD>  (1) 
1.14444447

$$$$
