
     RDKit          3D

 15 16  0  0  0  0  0  0  0  0999 V2000
   39.9930   22.6600   37.5180 C   0  0  0  0  0  0  0  0  0  0  0  0
   39.2040   23.3070   38.4950 C   0  0  0  0  0  0  0  0  0  0  0  0
   37.8420   23.5110   38.1990 C   0  0  0  0  0  0  0  0  0  0  0  0
   37.3630   23.0800   36.9990 N   0  0  0  0  0  0  0  0  0  0  0  0
   38.1510   22.4630   36.0880 C   0  0  0  0  0  0  0  0  0  0  0  0
   39.4610   22.2520   36.3420 N   0  0  0  0  0  0  0  0  0  0  0  0
   37.5460   22.0380   34.8300 C   0  0  0  0  0  0  0  0  0  0  0  0
   36.4700   21.2260   34.8140 N   0  0  0  0  0  0  0  0  0  0  0  0
   36.1010   20.9770   33.6090 O   0  0  0  0  0  0  0  0  0  0  0  0
   36.9050   21.6070   32.7640 C   0  0  0  0  0  0  0  0  0  0  0  0
   37.8110   22.2720   33.5130 N   0  0  0  0  0  0  0  0  0  0  0  0
   41.0605   22.4843   37.7167 H   0  0  0  0  0  0  0  0  0  0  0  0
   39.6367   23.6388   39.4504 H   0  0  0  0  0  0  0  0  0  0  0  0
   37.1788   24.0082   38.9222 H   0  0  0  0  0  0  0  0  0  0  0  0
   36.8457   21.5912   31.6657 H   0  0  0  0  0  0  0  0  0  0  0  0
  1  2  2  0
  3  2  1  0
  4  3  2  0
  5  6  2  0
  5  4  1  0
  6  1  1  0
  7  5  1  0
  8  7  2  0
  9  8  1  0
 10 11  2  0
 10  9  1  0
 11  7  1  0
  1 12  1  0
  2 13  1  0
  3 14  1  0
 10 15  1  0
M  ISO  4  12  14  13  14  14  14  15  14
M  END
>  <minimizedAffinity>  (1) 
-3.34069276

>  <minimizedRMSD>  (1) 
0.872791767

$$$$
