
     RDKit          3D

 46 50  0  0  1  0  0  0  0  0999 V2000
   44.6480   23.1430   36.2070 C   0  0  1  0  0  0  0  0  0  0  0  0
   45.8940   22.4030   36.1980 C   0  0  0  0  0  0  0  0  0  0  0  0
   45.6570   23.3310   35.0510 C   0  0  2  0  0  0  0  0  0  0  0  0
   46.4440   24.5500   35.0400 N   0  0  0  0  0  0  0  0  0  0  0  0
   47.7580   24.8060   35.2950 C   0  0  0  0  0  0  0  0  0  0  0  0
   47.9800   26.1290   35.1350 N   0  0  0  0  0  0  0  0  0  0  0  0
   46.8000   26.7070   34.7800 C   0  0  0  0  0  0  0  0  0  0  0  0
   46.5120   28.0260   34.5030 C   0  0  0  0  0  0  0  0  0  0  0  0
   47.3820   28.9520   34.5520 O   0  0  0  0  0  0  0  0  0  0  0  0
   45.2320   28.2960   34.1710 N   0  0  0  0  0  0  0  0  0  0  0  0
   44.2930   27.3700   34.1070 C   0  0  0  0  0  0  0  0  0  0  0  0
   42.9280   27.5450   33.7620 N   0  0  0  0  0  0  0  0  0  0  0  0
   44.5790   26.1080   34.3730 N   0  0  0  0  0  0  0  0  0  0  0  0
   45.8460   25.7080   34.7230 C   0  0  0  0  0  0  0  0  0  0  0  0
   43.5000   22.3660   35.7730 O   0  0  0  0  0  0  0  0  0  0  0  0
   40.2560   22.6810   37.2380 C   0  0  0  0  0  0  0  0  0  0  0  0
   41.5840   22.2760   37.0010 C   0  0  0  0  0  0  0  0  0  0  0  0
   42.2190   22.8510   35.8890 C   0  0  0  0  0  0  0  0  0  0  0  0
   41.5630   23.7560   35.0920 N   0  0  0  0  0  0  0  0  0  0  0  0
   40.3060   24.0990   35.3700 C   0  0  0  0  0  0  0  0  0  0  0  0
   39.6440   23.5740   36.4290 N   0  0  0  0  0  0  0  0  0  0  0  0
   39.4160   25.0470   34.7810 N   0  0  0  0  0  0  0  0  0  0  0  0
   38.0920   24.8780   34.2690 C   0  0  0  0  0  0  0  0  0  0  0  0
   37.3150   26.1420   34.3540 C   0  0  0  0  0  0  0  0  0  0  0  0
   37.5690   26.9700   35.4940 N   0  0  0  0  0  0  0  0  0  0  0  0
   38.9920   27.2200   35.6810 C   0  0  0  0  0  0  0  0  0  0  0  0
   39.7880   26.4630   34.6190 C   0  0  0  0  0  0  0  0  0  0  0  0
   44.1439   23.7879   36.9418 H   0  0  0  0  0  0  0  0  0  0  0  0
   46.6717   22.6450   36.9373 H   0  0  0  0  0  0  0  0  0  0  0  0
   46.1404   21.3333   36.2687 H   0  0  0  0  0  0  0  0  0  0  0  0
   45.6219   23.2601   33.9539 H   0  0  0  0  0  0  0  0  0  0  0  0
   48.5126   24.0594   35.5833 H   0  0  0  0  0  0  0  0  0  0  0  0
   44.9756   29.2704   33.9575 H   0  0  0  0  0  0  0  0  0  0  0  0
   42.2921   26.7348   33.7490 H   0  0  0  0  0  0  0  0  0  0  0  0
   42.5729   28.4822   33.5245 H   0  0  0  0  0  0  0  0  0  0  0  0
   39.7080   22.2636   38.0956 H   0  0  0  0  0  0  0  0  0  0  0  0
   42.0948   21.5500   37.6507 H   0  0  0  0  0  0  0  0  0  0  0  0
   37.5779   24.1013   34.8542 H   0  0  0  0  0  0  0  0  0  0  0  0
   38.1635   24.5847   33.2112 H   0  0  0  0  0  0  0  0  0  0  0  0
   37.5389   26.7336   33.4541 H   0  0  0  0  0  0  0  0  0  0  0  0
   36.2633   25.8329   34.4459 H   0  0  0  0  0  0  0  0  0  0  0  0
   37.0873   27.8711   35.3644 H   0  0  0  0  0  0  0  0  0  0  0  0
   39.1899   28.2980   35.5879 H   0  0  0  0  0  0  0  0  0  0  0  0
   39.2957   26.8755   36.6805 H   0  0  0  0  0  0  0  0  0  0  0  0
   40.8678   26.5973   34.7799 H   0  0  0  0  0  0  0  0  0  0  0  0
   39.5663   26.8291   33.6057 H   0  0  0  0  0  0  0  0  0  0  0  0
  2  1  1  0
  3  2  1  0
  3  1  1  0
  4  3  1  0
  4  5  1  0
  6  5  2  0
  7  6  1  0
  8  9  2  0
  8  7  1  0
 10  8  1  0
 11 10  1  0
 11 13  2  0
 12 11  1  0
 13 14  1  0
 14  7  2  0
 14  4  1  0
 15 18  1  0
 15  1  1  0
 17 16  2  0
 18 17  1  0
 19 20  1  0
 19 18  2  0
 20 21  2  0
 21 16  1  0
 22 20  1  0
 23 24  1  0
 23 22  1  0
 24 25  1  0
 25 26  1  0
 27 22  1  0
 27 26  1  0
  1 28  1  1
  2 29  1  0
  2 30  1  0
  3 31  1  6
  5 32  1  0
 10 33  1  0
 12 34  1  0
 12 35  1  0
 16 36  1  0
 17 37  1  0
 23 38  1  0
 23 39  1  0
 24 40  1  0
 24 41  1  0
 25 42  1  0
 26 43  1  0
 26 44  1  0
 27 45  1  0
 27 46  1  0
M  ISO  8  28  13  29  13  30  13  31  13  32  14  33   9  36  14  37  14
M  ISO  8  38  13  39  13  40  13  41  13  42   5  43  13  44  13  45  13
M  ISO  1  46  13
M  END
>  <minimizedAffinity>  (1) 
-5.20591879

>  <minimizedRMSD>  (1) 
2.69503713

$$$$
