
     RDKit          3D

 45 49  0  0  1  0  0  0  0  0999 V2000
   46.0650   25.0420   37.1920 C   0  0  1  0  0  0  0  0  0  0  0  0
   47.1320   24.5950   38.0630 C   0  0  0  0  0  0  0  0  0  0  0  0
   47.5180   24.9600   36.6690 C   0  0  2  0  0  0  0  0  0  0  0  0
   48.2450   26.2140   36.5100 N   0  0  0  0  0  0  0  0  0  0  0  0
   49.4030   26.6830   37.0330 C   0  0  0  0  0  0  0  0  0  0  0  0
   49.6350   27.9180   36.5470 N   0  0  0  0  0  0  0  0  0  0  0  0
   48.6080   28.2270   35.7070 C   0  0  0  0  0  0  0  0  0  0  0  0
   48.3920   29.3790   34.9640 C   0  0  0  0  0  0  0  0  0  0  0  0
   49.1800   30.3670   34.9720 O   0  0  0  0  0  0  0  0  0  0  0  0
   47.2680   29.3950   34.2090 N   0  0  0  0  0  0  0  0  0  0  0  0
   46.4160   28.3630   34.1810 C   0  0  0  0  0  0  0  0  0  0  0  0
   45.2180   28.2820   33.4160 N   0  0  0  0  0  0  0  0  0  0  0  0
   46.6390   27.2780   34.8940 N   0  0  0  0  0  0  0  0  0  0  0  0
   47.7470   27.1500   35.6960 C   0  0  0  0  0  0  0  0  0  0  0  0
   45.2600   23.9620   36.6420 O   0  0  0  0  0  0  0  0  0  0  0  0
   41.8190   23.1390   36.0980 C   0  0  0  0  0  0  0  0  0  0  0  0
   43.1770   23.0530   36.5050 C   0  0  0  0  0  0  0  0  0  0  0  0
   43.9740   24.1790   36.2020 C   0  0  0  0  0  0  0  0  0  0  0  0
   43.4500   25.2710   35.5600 N   0  0  0  0  0  0  0  0  0  0  0  0
   42.1690   25.2960   35.2020 C   0  0  0  0  0  0  0  0  0  0  0  0
   41.3470   24.2350   35.4660 N   0  0  0  0  0  0  0  0  0  0  0  0
   41.3790   26.3070   34.6040 N   0  0  0  0  0  0  0  0  0  0  0  0
   40.0280   26.7320   34.9060 C   0  0  0  0  0  0  0  0  0  0  0  0
   39.1690   26.1630   33.7720 C   0  0  0  0  0  0  0  0  0  0  0  0
   39.9080   26.1710   32.5810 O   0  0  0  0  0  0  0  0  0  0  0  0
   40.6890   27.3260   32.5510 C   0  0  0  0  0  0  0  0  0  0  0  0
   41.8240   27.1520   33.5160 C   0  0  0  0  0  0  0  0  0  0  0  0
   45.2826   25.8111   37.2719 H   0  0  0  0  0  0  0  0  0  0  0  0
   47.4523   25.2360   38.8976 H   0  0  0  0  0  0  0  0  0  0  0  0
   47.2800   23.6954   38.6785 H   0  0  0  0  0  0  0  0  0  0  0  0
   48.0266   24.4742   35.8232 H   0  0  0  0  0  0  0  0  0  0  0  0
   50.0496   26.1429   37.7403 H   0  0  0  0  0  0  0  0  0  0  0  0
   47.0622   30.2274   33.6384 H   0  0  0  0  0  0  0  0  0  0  0  0
   44.6305   27.4375   33.4670 H   0  0  0  0  0  0  0  0  0  0  0  0
   44.9388   29.0679   32.8115 H   0  0  0  0  0  0  0  0  0  0  0  0
   41.1398   22.2980   36.3012 H   0  0  0  0  0  0  0  0  0  0  0  0
   43.5806   22.1694   37.0212 H   0  0  0  0  0  0  0  0  0  0  0  0
   39.7037   26.3281   35.8764 H   0  0  0  0  0  0  0  0  0  0  0  0
   39.9458   27.8267   34.9765 H   0  0  0  0  0  0  0  0  0  0  0  0
   38.8760   25.1311   34.0155 H   0  0  0  0  0  0  0  0  0  0  0  0
   38.2663   26.7795   33.6492 H   0  0  0  0  0  0  0  0  0  0  0  0
   41.0840   27.4817   31.5363 H   0  0  0  0  0  0  0  0  0  0  0  0
   40.0835   28.2004   32.8316 H   0  0  0  0  0  0  0  0  0  0  0  0
   42.6761   26.6802   33.0049 H   0  0  0  0  0  0  0  0  0  0  0  0
   42.1401   28.1311   33.9053 H   0  0  0  0  0  0  0  0  0  0  0  0
  1  2  1  0
  3  1  1  0
  3  2  1  0
  4  3  1  0
  4  5  1  0
  6  5  2  0
  7  6  1  0
  8  9  2  0
  8  7  1  0
 10  8  1  0
 11 10  1  0
 11 13  2  0
 12 11  1  0
 13 14  1  0
 14  7  2  0
 14  4  1  0
 15  1  1  0
 16 17  2  0
 18 17  1  0
 18 15  1  0
 19 18  2  0
 20 21  2  0
 20 19  1  0
 21 16  1  0
 22 23  1  0
 22 20  1  0
 24 23  1  0
 25 24  1  0
 26 25  1  0
 26 27  1  0
 27 22  1  0
  1 28  1  1
  2 29  1  0
  2 30  1  0
  3 31  1  6
  5 32  1  0
 10 33  1  0
 12 34  1  0
 12 35  1  0
 16 36  1  0
 17 37  1  0
 23 38  1  0
 23 39  1  0
 24 40  1  0
 24 41  1  0
 26 42  1  0
 26 43  1  0
 27 44  1  0
 27 45  1  0
M  ISO  8  28  13  29  13  30  13  31  13  32  14  33   9  36  14  37  14
M  ISO  8  38  13  39  13  40  13  41  13  42  13  43  13  44  13  45  13
M  END
>  <minimizedAffinity>  (1) 
-5.12465811

>  <minimizedRMSD>  (1) 
0.552708507

$$$$
