
     RDKit          3D

 40 44  0  0  1  0  0  0  0  0999 V2000
   45.4810   25.3740   37.1010 C   0  0  1  0  0  0  0  0  0  0  0  0
   46.7380   25.2430   37.8130 C   0  0  0  0  0  0  0  0  0  0  0  0
   46.8150   25.3360   36.3250 C   0  0  2  0  0  0  0  0  0  0  0  0
   47.3200   26.5900   35.7920 N   0  0  0  0  0  0  0  0  0  0  0  0
   48.4680   27.2930   35.9950 C   0  0  0  0  0  0  0  0  0  0  0  0
   48.4350   28.4130   35.2270 N   0  0  0  0  0  0  0  0  0  0  0  0
   47.2570   28.4020   34.5450 C   0  0  0  0  0  0  0  0  0  0  0  0
   46.7630   29.3170   33.6370 C   0  0  0  0  0  0  0  0  0  0  0  0
   47.3890   30.3630   33.3050 O   0  0  0  0  0  0  0  0  0  0  0  0
   45.5470   29.0410   33.1030 N   0  0  0  0  0  0  0  0  0  0  0  0
   44.8590   27.9380   33.4360 C   0  0  0  0  0  0  0  0  0  0  0  0
   43.5980   27.5430   32.9210 N   0  0  0  0  0  0  0  0  0  0  0  0
   45.3490   27.0780   34.3040 N   0  0  0  0  0  0  0  0  0  0  0  0
   46.5690   27.2590   34.9050 C   0  0  0  0  0  0  0  0  0  0  0  0
   44.7510   24.1260   36.9470 O   0  0  0  0  0  0  0  0  0  0  0  0
   41.5400   22.7390   36.2060 C   0  0  0  0  0  0  0  0  0  0  0  0
   42.8470   22.8990   36.7470 C   0  0  0  0  0  0  0  0  0  0  0  0
   43.4940   24.1060   36.3560 C   0  0  0  0  0  0  0  0  0  0  0  0
   42.9140   25.0420   35.5330 N   0  0  0  0  0  0  0  0  0  0  0  0
   41.6840   24.8210   35.0700 C   0  0  0  0  0  0  0  0  0  0  0  0
   40.9900   23.6770   35.3950 N   0  0  0  0  0  0  0  0  0  0  0  0
   40.8100   25.6850   34.3350 C   0  0  0  0  0  0  0  0  0  0  0  0
   39.7070   26.2920   34.8940 C   0  0  0  0  0  0  0  0  0  0  0  0
   38.7710   27.0880   34.2670 C   0  0  0  0  0  0  0  0  0  0  0  0
   38.9470   27.3060   32.9510 N   0  0  0  0  0  0  0  0  0  0  0  0
   40.0050   26.7370   32.3650 C   0  0  0  0  0  0  0  0  0  0  0  0
   40.8760   25.9760   33.0280 N   0  0  0  0  0  0  0  0  0  0  0  0
   44.6212   26.0551   37.1834 H   0  0  0  0  0  0  0  0  0  0  0  0
   47.1017   26.0803   38.4267 H   0  0  0  0  0  0  0  0  0  0  0  0
   47.1211   24.5202   38.5484 H   0  0  0  0  0  0  0  0  0  0  0  0
   47.2283   24.7357   35.5011 H   0  0  0  0  0  0  0  0  0  0  0  0
   49.2869   27.0022   36.6694 H   0  0  0  0  0  0  0  0  0  0  0  0
   45.1397   29.6974   32.4218 H   0  0  0  0  0  0  0  0  0  0  0  0
   43.1579   26.6714   33.2489 H   0  0  0  0  0  0  0  0  0  0  0  0
   43.1223   28.1277   32.2191 H   0  0  0  0  0  0  0  0  0  0  0  0
   40.9634   21.8348   36.4510 H   0  0  0  0  0  0  0  0  0  0  0  0
   43.3159   22.1559   37.4087 H   0  0  0  0  0  0  0  0  0  0  0  0
   39.5542   26.1214   35.9699 H   0  0  0  0  0  0  0  0  0  0  0  0
   37.9227   27.5230   34.8158 H   0  0  0  0  0  0  0  0  0  0  0  0
   40.1639   26.9038   31.2894 H   0  0  0  0  0  0  0  0  0  0  0  0
  1  2  1  0
  3  1  1  0
  3  2  1  0
  4  5  1  0
  4  3  1  0
  6  5  2  0
  7 14  2  0
  7  6  1  0
  8  7  1  0
  9  8  2  0
 10 11  1  0
 10  8  1  0
 11 13  2  0
 12 11  1  0
 13 14  1  0
 14  4  1  0
 15  1  1  0
 16 17  2  0
 18 17  1  0
 18 15  1  0
 19 18  2  0
 20 21  2  0
 20 19  1  0
 21 16  1  0
 22 23  2  0
 22 20  1  0
 24 23  1  0
 25 24  2  0
 26 25  1  0
 26 27  2  0
 27 22  1  0
  1 28  1  1
  2 29  1  0
  2 30  1  0
  3 31  1  6
  5 32  1  0
 10 33  1  0
 12 34  1  0
 12 35  1  0
 16 36  1  0
 17 37  1  0
 23 38  1  0
 24 39  1  0
 26 40  1  0
M  ISO  8  28  13  29  13  30  13  31  13  32  14  33   9  36  14  37  14
M  ISO  3  38  14  39  14  40  14
M  END
>  <minimizedAffinity>  (1) 
-4.68538284

>  <minimizedRMSD>  (1) 
1.58761787

$$$$
