
     RDKit          3D

 39 43  0  0  1  0  0  0  0  0999 V2000
   46.2660   24.9390   37.3190 C   0  0  1  0  0  0  0  0  0  0  0  0
   47.3930   24.5000   38.1140 C   0  0  0  0  0  0  0  0  0  0  0  0
   47.6810   24.8980   36.7020 C   0  0  2  0  0  0  0  0  0  0  0  0
   48.3770   26.1600   36.5110 N   0  0  0  0  0  0  0  0  0  0  0  0
   49.5500   26.6400   36.9890 C   0  0  0  0  0  0  0  0  0  0  0  0
   49.7410   27.8870   36.4930 N   0  0  0  0  0  0  0  0  0  0  0  0
   48.6740   28.1720   35.7080 C   0  0  0  0  0  0  0  0  0  0  0  0
   48.4060   29.3290   34.9760 C   0  0  0  0  0  0  0  0  0  0  0  0
   49.1890   30.3350   34.9570 O   0  0  0  0  0  0  0  0  0  0  0  0
   47.2580   29.3430   34.2720 N   0  0  0  0  0  0  0  0  0  0  0  0
   46.4280   28.3150   34.2730 C   0  0  0  0  0  0  0  0  0  0  0  0
   45.1930   28.2280   33.5680 N   0  0  0  0  0  0  0  0  0  0  0  0
   46.7000   27.2250   34.9740 N   0  0  0  0  0  0  0  0  0  0  0  0
   47.8280   27.0970   35.7210 C   0  0  0  0  0  0  0  0  0  0  0  0
   45.4510   23.8490   36.7990 O   0  0  0  0  0  0  0  0  0  0  0  0
   41.9550   23.4110   36.1100 C   0  0  0  0  0  0  0  0  0  0  0  0
   43.2380   23.2590   36.6690 C   0  0  0  0  0  0  0  0  0  0  0  0
   44.2440   24.0980   36.1740 C   0  0  0  0  0  0  0  0  0  0  0  0
   43.9640   25.0120   35.1910 N   0  0  0  0  0  0  0  0  0  0  0  0
   42.7180   25.1060   34.6990 C   0  0  0  0  0  0  0  0  0  0  0  0
   41.7200   24.3230   35.1440 N   0  0  0  0  0  0  0  0  0  0  0  0
   42.4450   26.0590   33.6820 N   0  0  0  0  0  0  0  0  0  0  0  0
   41.9730   27.3060   33.7300 N   0  0  0  0  0  0  0  0  0  0  0  0
   41.8900   27.8110   32.4720 C   0  0  0  0  0  0  0  0  0  0  0  0
   42.3290   26.8480   31.5690 C   0  0  0  0  0  0  0  0  0  0  0  0
   42.6630   25.7760   32.3670 C   0  0  0  0  0  0  0  0  0  0  0  0
   45.4751   25.6898   37.4633 H   0  0  0  0  0  0  0  0  0  0  0  0
   47.7526   25.1334   38.9383 H   0  0  0  0  0  0  0  0  0  0  0  0
   47.5980   23.5938   38.7029 H   0  0  0  0  0  0  0  0  0  0  0  0
   48.1419   24.4385   35.8152 H   0  0  0  0  0  0  0  0  0  0  0  0
   50.2334   26.1070   37.6664 H   0  0  0  0  0  0  0  0  0  0  0  0
   47.0205   30.1780   33.7176 H   0  0  0  0  0  0  0  0  0  0  0  0
   44.6190   27.3756   33.6380 H   0  0  0  0  0  0  0  0  0  0  0  0
   44.8742   29.0175   32.9884 H   0  0  0  0  0  0  0  0  0  0  0  0
   41.1307   22.7759   36.4666 H   0  0  0  0  0  0  0  0  0  0  0  0
   43.4404   22.5176   37.4560 H   0  0  0  0  0  0  0  0  0  0  0  0
   41.5335   28.8180   32.2096 H   0  0  0  0  0  0  0  0  0  0  0  0
   42.3942   26.9247   30.4736 H   0  0  0  0  0  0  0  0  0  0  0  0
   43.0539   24.8185   31.9924 H   0  0  0  0  0  0  0  0  0  0  0  0
  1  2  1  0
  3  1  1  0
  3  2  1  0
  4  3  1  0
  4  5  1  0
  6  5  2  0
  7 14  2  0
  7  6  1  0
  8  7  1  0
  9  8  2  0
 10 11  1  0
 10  8  1  0
 11 13  2  0
 12 11  1  0
 13 14  1  0
 14  4  1  0
 15  1  1  0
 16 17  2  0
 18 17  1  0
 18 15  1  0
 19 18  2  0
 20 21  2  0
 20 19  1  0
 21 16  1  0
 22 23  1  0
 22 20  1  0
 24 23  2  0
 25 26  2  0
 25 24  1  0
 26 22  1  0
  1 27  1  1
  2 28  1  0
  2 29  1  0
  3 30  1  6
  5 31  1  0
 10 32  1  0
 12 33  1  0
 12 34  1  0
 16 35  1  0
 17 36  1  0
 24 37  1  0
 25 38  1  0
 26 39  1  0
M  ISO  8  27  13  28  13  29  13  30  13  31  14  32   9  35  14  36  14
M  ISO  3  37  14  38  14  39  14
M  END
>  <minimizedAffinity>  (1) 
-4.57025623

>  <minimizedRMSD>  (1) 
0.573306561

$$$$
