
     RDKit          3D

 38 41  0  0  1  0  0  0  0  0999 V2000
   45.9700   25.1500   37.4360 C   0  0  1  0  0  0  0  0  0  0  0  0
   47.0860   24.7250   38.2520 C   0  0  0  0  0  0  0  0  0  0  0  0
   47.3820   25.0260   36.8170 C   0  0  2  0  0  0  0  0  0  0  0  0
   48.1150   26.2530   36.5500 N   0  0  0  0  0  0  0  0  0  0  0  0
   49.3000   26.7280   37.0090 C   0  0  0  0  0  0  0  0  0  0  0  0
   49.5350   27.9350   36.4390 N   0  0  0  0  0  0  0  0  0  0  0  0
   48.4840   28.2100   35.6190 C   0  0  0  0  0  0  0  0  0  0  0  0
   48.2600   29.3210   34.8180 C   0  0  0  0  0  0  0  0  0  0  0  0
   49.0690   30.2990   34.7430 O   0  0  0  0  0  0  0  0  0  0  0  0
   47.1160   29.3130   34.1100 N   0  0  0  0  0  0  0  0  0  0  0  0
   46.2520   28.3200   34.1580 C   0  0  0  0  0  0  0  0  0  0  0  0
   45.0300   28.2300   33.4490 N   0  0  0  0  0  0  0  0  0  0  0  0
   46.4890   27.2680   34.9320 N   0  0  0  0  0  0  0  0  0  0  0  0
   47.6130   27.1550   35.7010 C   0  0  0  0  0  0  0  0  0  0  0  0
   45.1170   24.0620   36.9760 O   0  0  0  0  0  0  0  0  0  0  0  0
   41.7660   23.3500   35.9450 C   0  0  0  0  0  0  0  0  0  0  0  0
   43.0290   23.2350   36.5420 C   0  0  0  0  0  0  0  0  0  0  0  0
   43.9230   24.3000   36.3480 C   0  0  0  0  0  0  0  0  0  0  0  0
   43.5380   25.3840   35.6030 N   0  0  0  0  0  0  0  0  0  0  0  0
   42.3170   25.4370   35.0580 C   0  0  0  0  0  0  0  0  0  0  0  0
   41.4320   24.4420   35.2180 N   0  0  0  0  0  0  0  0  0  0  0  0
   41.8420   26.5770   34.2380 C   0  0  0  0  0  0  0  0  0  0  0  0
   40.3960   26.8400   34.6110 C   0  0  0  0  0  0  0  0  0  0  0  0
   45.2034   25.9317   37.5418 H   0  0  0  0  0  0  0  0  0  0  0  0
   47.4692   25.3959   39.0350 H   0  0  0  0  0  0  0  0  0  0  0  0
   47.2644   23.8502   38.8946 H   0  0  0  0  0  0  0  0  0  0  0  0
   47.8246   24.4987   35.9591 H   0  0  0  0  0  0  0  0  0  0  0  0
   49.9608   26.2179   37.7253 H   0  0  0  0  0  0  0  0  0  0  0  0
   46.9066   30.1189   33.5037 H   0  0  0  0  0  0  0  0  0  0  0  0
   44.4282   27.4019   33.5631 H   0  0  0  0  0  0  0  0  0  0  0  0
   44.7427   28.9926   32.8191 H   0  0  0  0  0  0  0  0  0  0  0  0
   41.0335   22.5388   36.0694 H   0  0  0  0  0  0  0  0  0  0  0  0
   43.3068   22.3512   37.1351 H   0  0  0  0  0  0  0  0  0  0  0  0
   41.9139   26.3259   33.1695 H   0  0  0  0  0  0  0  0  0  0  0  0
   42.4572   27.4695   34.4246 H   0  0  0  0  0  0  0  0  0  0  0  0
   40.2973   26.8579   35.7064 H   0  0  0  0  0  0  0  0  0  0  0  0
   40.0816   27.8101   34.1986 H   0  0  0  0  0  0  0  0  0  0  0  0
   39.7601   26.0428   34.1986 H   0  0  0  0  0  0  0  0  0  0  0  0
  1  2  1  0
  3  1  1  0
  3  2  1  0
  4  3  1  0
  4  5  1  0
  6  5  2  0
  7 14  2  0
  7  6  1  0
  8  7  1  0
  9  8  2  0
 10 11  1  0
 10  8  1  0
 11 13  2  0
 12 11  1  0
 13 14  1  0
 14  4  1  0
 15  1  1  0
 16 17  2  0
 18 17  1  0
 18 15  1  0
 19 18  2  0
 20 21  2  0
 20 19  1  0
 21 16  1  0
 22 23  1  0
 22 20  1  0
  1 24  1  1
  2 25  1  0
  2 26  1  0
  3 27  1  6
  5 28  1  0
 10 29  1  0
 12 30  1  0
 12 31  1  0
 16 32  1  0
 17 33  1  0
 22 34  1  0
 22 35  1  0
 23 36  1  0
 23 37  1  0
 23 38  1  0
M  ISO  8  24  13  25  13  26  13  27  13  28  14  29   9  32  14  33  14
M  ISO  5  34   8  35   8  36   8  37   8  38   8
M  END
>  <minimizedAffinity>  (1) 
-4.56720304

>  <minimizedRMSD>  (1) 
0.259208769

$$$$
