
     RDKit          3D

 44 47  0  0  1  0  0  0  0  0999 V2000
   45.6530   25.1440   37.2400 C   0  0  1  0  0  0  0  0  0  0  0  0
   46.7450   24.8130   38.1320 C   0  0  0  0  0  0  0  0  0  0  0  0
   47.1000   25.0620   36.7070 C   0  0  2  0  0  0  0  0  0  0  0  0
   47.7810   26.3170   36.4170 N   0  0  0  0  0  0  0  0  0  0  0  0
   48.7740   26.9940   37.0440 C   0  0  0  0  0  0  0  0  0  0  0  0
   49.0480   28.1240   36.3400 N   0  0  0  0  0  0  0  0  0  0  0  0
   48.2130   28.1400   35.2700 C   0  0  0  0  0  0  0  0  0  0  0  0
   48.1100   29.0780   34.2570 C   0  0  0  0  0  0  0  0  0  0  0  0
   48.8250   30.1220   34.1890 O   0  0  0  0  0  0  0  0  0  0  0  0
   47.1840   28.8260   33.3120 N   0  0  0  0  0  0  0  0  0  0  0  0
   46.4060   27.7420   33.3370 C   0  0  0  0  0  0  0  0  0  0  0  0
   45.4190   27.3810   32.3960 N   0  0  0  0  0  0  0  0  0  0  0  0
   46.5240   26.8530   34.3230 N   0  0  0  0  0  0  0  0  0  0  0  0
   47.4300   27.0070   35.3320 C   0  0  0  0  0  0  0  0  0  0  0  0
   44.8820   23.9820   36.7930 O   0  0  0  0  0  0  0  0  0  0  0  0
   41.4850   23.1060   36.0950 C   0  0  0  0  0  0  0  0  0  0  0  0
   42.7970   23.0600   36.5850 C   0  0  0  0  0  0  0  0  0  0  0  0
   43.6160   24.1520   36.2470 C   0  0  0  0  0  0  0  0  0  0  0  0
   43.1430   25.1880   35.4830 N   0  0  0  0  0  0  0  0  0  0  0  0
   41.8710   25.1640   35.0490 C   0  0  0  0  0  0  0  0  0  0  0  0
   41.0530   24.1350   35.3500 N   0  0  0  0  0  0  0  0  0  0  0  0
   41.1570   26.1550   34.2110 C   0  0  0  0  0  0  0  0  0  0  0  0
   40.0140   26.8590   34.9750 C   0  0  0  0  0  0  0  0  0  0  0  0
   42.0160   27.2620   33.7100 C   0  0  0  0  0  0  0  0  0  0  0  0
   40.4150   25.3780   33.1410 C   0  0  0  0  0  0  0  0  0  0  0  0
   44.8450   25.8900   37.2640 H   0  0  0  0  0  0  0  0  0  0  0  0
   47.0536   25.5373   38.9002 H   0  0  0  0  0  0  0  0  0  0  0  0
   46.9311   23.9785   38.8241 H   0  0  0  0  0  0  0  0  0  0  0  0
   47.6162   24.5171   35.9029 H   0  0  0  0  0  0  0  0  0  0  0  0
   49.2760   26.6802   37.9711 H   0  0  0  0  0  0  0  0  0  0  0  0
   47.0718   29.4971   32.5387 H   0  0  0  0  0  0  0  0  0  0  0  0
   44.8787   26.5134   32.5235 H   0  0  0  0  0  0  0  0  0  0  0  0
   45.2386   27.9850   31.5814 H   0  0  0  0  0  0  0  0  0  0  0  0
   40.7947   22.2813   36.3259 H   0  0  0  0  0  0  0  0  0  0  0  0
   43.1634   22.2219   37.1960 H   0  0  0  0  0  0  0  0  0  0  0  0
   40.1794   26.7571   36.0577 H   0  0  0  0  0  0  0  0  0  0  0  0
   39.9953   27.9254   34.7057 H   0  0  0  0  0  0  0  0  0  0  0  0
   39.0533   26.3959   34.7057 H   0  0  0  0  0  0  0  0  0  0  0  0
   42.4417   27.8106   34.5631 H   0  0  0  0  0  0  0  0  0  0  0  0
   42.8302   26.8462   33.0983 H   0  0  0  0  0  0  0  0  0  0  0  0
   41.4111   27.9475   33.0983 H   0  0  0  0  0  0  0  0  0  0  0  0
   39.7301   24.6608   33.6171 H   0  0  0  0  0  0  0  0  0  0  0  0
   39.8387   26.0750   32.5148 H   0  0  0  0  0  0  0  0  0  0  0  0
   41.1378   24.8345   32.5148 H   0  0  0  0  0  0  0  0  0  0  0  0
  1  2  1  0
  3  1  1  0
  3  2  1  0
  4  3  1  0
  4  5  1  0
  6  5  2  0
  7 14  2  0
  7  6  1  0
  8  7  1  0
  9  8  2  0
 10 11  1  0
 10  8  1  0
 11 13  2  0
 12 11  1  0
 13 14  1  0
 14  4  1  0
 15  1  1  0
 16 17  2  0
 18 17  1  0
 18 15  1  0
 19 18  2  0
 20 21  2  0
 20 19  1  0
 21 16  1  0
 22 23  1  0
 22 20  1  0
 24 22  1  0
 25 22  1  0
  1 26  1  1
  2 27  1  0
  2 28  1  0
  3 29  1  6
  5 30  1  0
 10 31  1  0
 12 32  1  0
 12 33  1  0
 16 34  1  0
 17 35  1  0
 23 36  1  0
 23 37  1  0
 23 38  1  0
 24 39  1  0
 24 40  1  0
 24 41  1  0
 25 42  1  0
 25 43  1  0
 25 44  1  0
M  ISO  8  26  13  27  13  28  13  29  13  30  14  31   9  34  14  35  14
M  ISO  8  36   8  37   8  38   8  39   8  40   8  41   8  42   8  43   8
M  ISO  1  44   8
M  END
>  <minimizedAffinity>  (1) 
-4.52029705

>  <minimizedRMSD>  (1) 
0.795290232

$$$$
