
     RDKit          3D

 37 41  0  0  1  0  0  0  0  0999 V2000
   43.6860   23.9070   36.0960 C   0  0  1  0  0  0  0  0  0  0  0  0
   44.7580   23.0790   35.5820 C   0  0  0  0  0  0  0  0  0  0  0  0
   45.1220   24.4670   35.9950 C   0  0  2  0  0  0  0  0  0  0  0  0
   45.8910   24.6050   37.2180 N   0  0  0  0  0  0  0  0  0  0  0  0
   45.6400   25.2360   38.3930 C   0  0  0  0  0  0  0  0  0  0  0  0
   46.7010   25.0520   39.2140 N   0  0  0  0  0  0  0  0  0  0  0  0
   47.6080   24.3080   38.5480 C   0  0  0  0  0  0  0  0  0  0  0  0
   48.8560   23.8530   38.9610 C   0  0  0  0  0  0  0  0  0  0  0  0
   49.3420   24.1020   40.1140 O   0  0  0  0  0  0  0  0  0  0  0  0
   49.5550   23.1200   38.0760 N   0  0  0  0  0  0  0  0  0  0  0  0
   49.0880   22.8410   36.8730 C   0  0  0  0  0  0  0  0  0  0  0  0
   49.7420   22.0750   35.8570 N   0  0  0  0  0  0  0  0  0  0  0  0
   47.8960   23.2790   36.4890 N   0  0  0  0  0  0  0  0  0  0  0  0
   47.0980   24.0340   37.3070 C   0  0  0  0  0  0  0  0  0  0  0  0
   42.8370   24.4830   35.0630 O   0  0  0  0  0  0  0  0  0  0  0  0
   39.6550   23.1520   36.0550 C   0  0  0  0  0  0  0  0  0  0  0  0
   41.0310   23.2940   35.8300 C   0  0  0  0  0  0  0  0  0  0  0  0
   41.4650   24.4850   35.2220 C   0  0  0  0  0  0  0  0  0  0  0  0
   40.5510   25.4480   34.8750 N   0  0  0  0  0  0  0  0  0  0  0  0
   39.2520   25.2550   35.1150 C   0  0  0  0  0  0  0  0  0  0  0  0
   38.7960   24.1270   35.6960 N   0  0  0  0  0  0  0  0  0  0  0  0
   38.3150   26.3070   34.7310 C   0  0  0  0  0  0  0  0  0  0  0  0
   37.9170   27.4090   35.3930 N   0  0  0  0  0  0  0  0  0  0  0  0
   37.0610   28.0970   34.6970 O   0  0  0  0  0  0  0  0  0  0  0  0
   36.8740   27.4630   33.5620 C   0  0  0  0  0  0  0  0  0  0  0  0
   37.6420   26.3480   33.5600 N   0  0  0  0  0  0  0  0  0  0  0  0
   42.9289   23.7769   36.8833 H   0  0  0  0  0  0  0  0  0  0  0  0
   44.7705   22.8117   34.5151 H   0  0  0  0  0  0  0  0  0  0  0  0
   45.1416   22.0835   35.8499 H   0  0  0  0  0  0  0  0  0  0  0  0
   45.5944   25.3456   35.5315 H   0  0  0  0  0  0  0  0  0  0  0  0
   44.7286   25.8014   38.6372 H   0  0  0  0  0  0  0  0  0  0  0  0
   50.4837   22.7652   38.3452 H   0  0  0  0  0  0  0  0  0  0  0  0
   49.2789   21.9208   34.9500 H   0  0  0  0  0  0  0  0  0  0  0  0
   50.6759   21.6777   36.0325 H   0  0  0  0  0  0  0  0  0  0  0  0
   39.2722   22.2362   36.5291 H   0  0  0  0  0  0  0  0  0  0  0  0
   41.7424   22.5058   36.1174 H   0  0  0  0  0  0  0  0  0  0  0  0
   36.2056   27.7840   32.7495 H   0  0  0  0  0  0  0  0  0  0  0  0
  2  3  1  0
  2  1  1  0
  3  1  1  0
  3  4  1  0
  4 14  1  0
  4  5  1  0
  5  6  2  0
  7  8  1  0
  7  6  1  0
  8  9  2  0
 10  8  1  0
 11 10  1  0
 12 11  1  0
 13 11  2  0
 13 14  1  0
 14  7  2  0
 15 18  1  0
 15  1  1  0
 17 16  2  0
 18 17  1  0
 19 20  1  0
 19 18  2  0
 20 21  2  0
 21 16  1  0
 22 20  1  0
 22 23  2  0
 24 23  1  0
 25 24  1  0
 26 25  2  0
 26 22  1  0
  1 27  1  1
  2 28  1  0
  2 29  1  0
  3 30  1  6
  5 31  1  0
 10 32  1  0
 12 33  1  0
 12 34  1  0
 16 35  1  0
 17 36  1  0
 25 37  1  0
M  ISO  8  27  13  28  13  29  13  30  13  31  14  32   9  35  14  36  14
M  ISO  1  37  14
M  END
>  <minimizedAffinity>  (1) 
-4.49437666

>  <minimizedRMSD>  (1) 
4.77183056

$$$$
