
     RDKit          3D

 46 51  0  0  1  0  0  0  0  0999 V2000
   42.3050   22.5570   36.7610 C   0  0  1  0  0  0  0  0  0  0  0  0
   43.2580   21.5930   36.2640 C   0  0  0  0  0  0  0  0  0  0  0  0
   43.0770   22.8420   35.4430 C   0  0  2  0  0  0  0  0  0  0  0  0
   44.1760   23.7910   35.5020 N   0  0  0  0  0  0  0  0  0  0  0  0
   45.4550   23.6910   35.9580 C   0  0  0  0  0  0  0  0  0  0  0  0
   46.0780   24.8840   35.7820 N   0  0  0  0  0  0  0  0  0  0  0  0
   45.1730   25.7330   35.2090 C   0  0  0  0  0  0  0  0  0  0  0  0
   45.3240   27.0430   34.8400 C   0  0  0  0  0  0  0  0  0  0  0  0
   46.4060   27.6800   34.9940 O   0  0  0  0  0  0  0  0  0  0  0  0
   44.2540   27.6450   34.2920 N   0  0  0  0  0  0  0  0  0  0  0  0
   43.0940   26.9960   34.1160 C   0  0  0  0  0  0  0  0  0  0  0  0
   41.9110   27.5360   33.5510 N   0  0  0  0  0  0  0  0  0  0  0  0
   42.9660   25.7420   34.4760 N   0  0  0  0  0  0  0  0  0  0  0  0
   43.9950   25.0410   35.0410 C   0  0  0  0  0  0  0  0  0  0  0  0
   40.9270   22.2480   36.4890 O   0  0  0  0  0  0  0  0  0  0  0  0
   38.2910   23.7280   38.3950 C   0  0  0  0  0  0  0  0  0  0  0  0
   39.3540   22.9080   38.0070 C   0  0  0  0  0  0  0  0  0  0  0  0
   39.9020   23.1130   36.7380 C   0  0  0  0  0  0  0  0  0  0  0  0
   39.3940   24.0910   35.9250 N   0  0  0  0  0  0  0  0  0  0  0  0
   38.3840   24.8430   36.3340 C   0  0  0  0  0  0  0  0  0  0  0  0
   37.8270   24.6740   37.5580 N   0  0  0  0  0  0  0  0  0  0  0  0
   37.7090   25.9640   35.6220 C   0  0  1  0  0  0  0  0  0  0  0  0
   38.5260   27.3120   35.5920 C   0  0  0  0  0  0  0  0  0  0  0  0
   38.2450   26.5420   34.3670 C   0  0  2  0  0  0  0  0  0  0  0  0
   37.2500   26.9660   33.4050 N   0  0  0  0  0  0  0  0  0  0  0  0
   36.8910   26.1550   32.3830 C   0  0  0  0  0  0  0  0  0  0  0  0
   35.9290   26.8140   31.6260 C   0  0  0  0  0  0  0  0  0  0  0  0
   35.7330   27.9970   32.2080 N   0  0  0  0  0  0  0  0  0  0  0  0
   36.5370   28.1070   33.3020 C   0  0  0  0  0  0  0  0  0  0  0  0
   42.1650   23.0496   37.7345 H   0  0  0  0  0  0  0  0  0  0  0  0
   44.2012   21.4364   36.8079 H   0  0  0  0  0  0  0  0  0  0  0  0
   43.1969   20.5196   36.0315 H   0  0  0  0  0  0  0  0  0  0  0  0
   42.8035   23.1014   34.4096 H   0  0  0  0  0  0  0  0  0  0  0  0
   45.9092   22.7906   36.3972 H   0  0  0  0  0  0  0  0  0  0  0  0
   44.3273   28.6300   33.9999 H   0  0  0  0  0  0  0  0  0  0  0  0
   41.0692   26.9494   33.4604 H   0  0  0  0  0  0  0  0  0  0  0  0
   41.8934   28.5149   33.2312 H   0  0  0  0  0  0  0  0  0  0  0  0
   37.8326   23.5999   39.3867 H   0  0  0  0  0  0  0  0  0  0  0  0
   39.7456   22.1285   38.6771 H   0  0  0  0  0  0  0  0  0  0  0  0
   36.7136   25.5962   35.9117 H   0  0  0  0  0  0  0  0  0  0  0  0
   38.0204   28.2720   35.7728 H   0  0  0  0  0  0  0  0  0  0  0  0
   39.4260   27.7007   36.0909 H   0  0  0  0  0  0  0  0  0  0  0  0
   38.9221   26.2065   33.5677 H   0  0  0  0  0  0  0  0  0  0  0  0
   37.2907   25.1494   32.1856 H   0  0  0  0  0  0  0  0  0  0  0  0
   35.4279   26.4337   30.7237 H   0  0  0  0  0  0  0  0  0  0  0  0
   36.5947   28.9712   33.9801 H   0  0  0  0  0  0  0  0  0  0  0  0
  2  1  1  0
  3  4  1  0
  3  2  1  0
  3  1  1  0
  4  5  1  0
  6  5  2  0
  7  6  1  0
  8  9  2  0
  8  7  1  0
 10  8  1  0
 11 10  1  0
 11 13  2  0
 12 11  1  0
 13 14  1  0
 14  7  2  0
 14  4  1  0
 15 18  1  0
 15  1  1  0
 17 16  2  0
 18 17  1  0
 19 20  1  0
 19 18  2  0
 20 21  2  0
 21 16  1  0
 22 20  1  0
 23 22  1  0
 24 23  1  0
 24 22  1  0
 25 24  1  0
 26 25  1  0
 27 28  1  0
 27 26  2  0
 28 29  2  0
 29 25  1  0
  1 30  1  1
  2 31  1  0
  2 32  1  0
  3 33  1  6
  5 34  1  0
 10 35  1  0
 12 36  1  0
 12 37  1  0
 16 38  1  0
 17 39  1  0
 22 40  1  6
 23 41  1  0
 23 42  1  0
 24 43  1  6
 26 44  1  0
 27 45  1  0
 29 46  1  0
M  ISO  8  30  13  31  13  32  13  33  13  34  14  35   9  38  14  39  14
M  ISO  7  40  13  41  13  42  13  43  13  44  14  45  14  46  14
M  END
>  <minimizedAffinity>  (1) 
-6.19821692

>  <minimizedRMSD>  (1) 
3.9365592

$$$$
