
     RDKit          3D

 46 51  0  0  1  0  0  0  0  0999 V2000
   40.3370   21.8460   36.8170 O   0  0  0  0  0  0  0  0  0  0  0  0
   38.1240   24.0520   38.5580 C   0  0  0  0  0  0  0  0  0  0  0  0
   38.9970   22.9780   38.2680 C   0  0  0  0  0  0  0  0  0  0  0  0
   39.5150   22.9260   36.9770 C   0  0  0  0  0  0  0  0  0  0  0  0
   39.1840   23.8750   36.0550 N   0  0  0  0  0  0  0  0  0  0  0  0
   38.3590   24.8700   36.3740 C   0  0  0  0  0  0  0  0  0  0  0  0
   37.8280   24.9610   37.6190 N   0  0  0  0  0  0  0  0  0  0  0  0
   37.8970   26.0060   35.5450 C   0  0  1  0  0  0  0  0  0  0  0  0
   38.7500   27.3240   35.7080 C   0  0  0  0  0  0  0  0  0  0  0  0
   38.7110   26.5670   34.4410 C   0  0  2  0  0  0  0  0  0  0  0  0
   38.0900   27.2240   33.3290 N   0  0  0  0  0  0  0  0  0  0  0  0
   38.5810   27.4640   32.1310 N   0  0  0  0  0  0  0  0  0  0  0  0
   37.6760   28.1100   31.3650 C   0  0  0  0  0  0  0  0  0  0  0  0
   36.5280   28.2950   32.1350 C   0  0  0  0  0  0  0  0  0  0  0  0
   36.8220   27.7310   33.3480 C   0  0  0  0  0  0  0  0  0  0  0  0
   41.7410   21.8650   37.1170 C   0  0  1  0  0  0  0  0  0  0  0  0
   42.4380   20.6270   36.8780 C   0  0  0  0  0  0  0  0  0  0  0  0
   42.5950   21.6940   35.8280 C   0  0  2  0  0  0  0  0  0  0  0  0
   43.8830   22.3470   35.7830 N   0  0  0  0  0  0  0  0  0  0  0  0
   45.1520   21.9000   36.0010 C   0  0  0  0  0  0  0  0  0  0  0  0
   46.0200   22.9320   35.8280 N   0  0  0  0  0  0  0  0  0  0  0  0
   45.2770   24.0310   35.4990 C   0  0  0  0  0  0  0  0  0  0  0  0
   45.6910   25.3080   35.2280 C   0  0  0  0  0  0  0  0  0  0  0  0
   46.9060   25.6580   35.2500 O   0  0  0  0  0  0  0  0  0  0  0  0
   44.7330   26.2060   34.9290 N   0  0  0  0  0  0  0  0  0  0  0  0
   43.4410   25.8690   34.8980 C   0  0  0  0  0  0  0  0  0  0  0  0
   42.3570   26.7300   34.5970 N   0  0  0  0  0  0  0  0  0  0  0  0
   43.0600   24.6410   35.1600 N   0  0  0  0  0  0  0  0  0  0  0  0
   43.9510   23.6530   35.4750 C   0  0  0  0  0  0  0  0  0  0  0  0
   37.6844   24.1420   39.5623 H   0  0  0  0  0  0  0  0  0  0  0  0
   39.2538   22.2218   39.0244 H   0  0  0  0  0  0  0  0  0  0  0  0
   36.8504   25.6729   35.6060 H   0  0  0  0  0  0  0  0  0  0  0  0
   38.2523   28.3018   35.7866 H   0  0  0  0  0  0  0  0  0  0  0  0
   39.5347   27.6772   36.3932 H   0  0  0  0  0  0  0  0  0  0  0  0
   39.4643   26.1002   33.7894 H   0  0  0  0  0  0  0  0  0  0  0  0
   37.8183   28.4319   30.3228 H   0  0  0  0  0  0  0  0  0  0  0  0
   35.5911   28.7865   31.8339 H   0  0  0  0  0  0  0  0  0  0  0  0
   36.1387   27.6922   34.2091 H   0  0  0  0  0  0  0  0  0  0  0  0
   41.7021   22.5602   37.9686 H   0  0  0  0  0  0  0  0  0  0  0  0
   43.2982   20.3615   37.5101 H   0  0  0  0  0  0  0  0  0  0  0  0
   42.1188   19.5749   36.8439 H   0  0  0  0  0  0  0  0  0  0  0  0
   42.4227   21.8003   34.7468 H   0  0  0  0  0  0  0  0  0  0  0  0
   45.4290   20.8708   36.2729 H   0  0  0  0  0  0  0  0  0  0  0  0
   45.0035   27.1774   34.7189 H   0  0  0  0  0  0  0  0  0  0  0  0
   41.3935   26.3658   34.6010 H   0  0  0  0  0  0  0  0  0  0  0  0
   42.5323   27.7202   34.3741 H   0  0  0  0  0  0  0  0  0  0  0  0
  1  4  1  0
  1 16  1  0
  3  2  2  0
  4  3  1  0
  5  6  1  0
  5  4  2  0
  6  7  2  0
  7  2  1  0
  8  9  1  0
  8  6  1  0
 10  8  1  0
 10  9  1  0
 11 15  1  0
 11 10  1  0
 12 11  1  0
 13 12  2  0
 13 14  1  0
 14 15  2  0
 17 16  1  0
 18 17  1  0
 18 16  1  0
 19 18  1  0
 19 20  1  0
 21 20  2  0
 22 21  1  0
 23 24  2  0
 23 22  1  0
 25 23  1  0
 26 25  1  0
 26 28  2  0
 27 26  1  0
 28 29  1  0
 29 22  2  0
 29 19  1  0
  2 30  1  0
  3 31  1  0
  8 32  1  6
  9 33  1  0
  9 34  1  0
 10 35  1  6
 13 36  1  0
 14 37  1  0
 15 38  1  0
 16 39  1  1
 17 40  1  0
 17 41  1  0
 18 42  1  6
 20 43  1  0
 25 44  1  0
 27 45  1  0
 27 46  1  0
M  ISO  8  30  14  31  14  32  13  33  13  34  13  35  13  36  14  37  14
M  ISO  7  38  14  39  13  40  13  41  13  42  13  43  14  44   9
M  END
>  <minimizedAffinity>  (1) 
-5.947299

>  <minimizedRMSD>  (1) 
4.43263435

$$$$
