
     RDKit          3D

 54 59  0  0  1  0  0  0  0  0999 V2000
   44.9430   24.0760   36.4890 O   0  0  0  0  0  0  0  0  0  0  0  0
   41.5030   23.3920   35.8110 C   0  0  0  0  0  0  0  0  0  0  0  0
   42.8230   23.2600   36.2330 C   0  0  0  0  0  0  0  0  0  0  0  0
   43.6820   24.3400   36.0310 C   0  0  0  0  0  0  0  0  0  0  0  0
   43.2220   25.4760   35.4380 N   0  0  0  0  0  0  0  0  0  0  0  0
   41.9540   25.5640   35.0470 C   0  0  0  0  0  0  0  0  0  0  0  0
   41.0800   24.5440   35.2200 N   0  0  0  0  0  0  0  0  0  0  0  0
   41.2450   26.7040   34.4100 C   0  0  1  0  0  0  0  0  0  0  0  0
   41.7630   27.0910   32.9740 C   0  0  0  0  0  0  0  0  0  0  0  0
   40.4100   26.5490   33.1960 C   0  0  2  0  0  0  0  0  0  0  0  0
   39.2020   27.2720   32.9810 N   0  0  0  0  0  0  0  0  0  0  0  0
   38.3310   27.0700   34.1170 C   0  0  0  0  0  0  0  0  0  0  0  0
   37.6440   25.7260   34.0160 C   0  0  0  0  0  0  0  0  0  0  0  0
   36.9930   25.5470   32.6560 C   0  0  0  0  0  0  0  0  0  0  0  0
   37.0920   26.8560   31.9140 C   0  0  0  0  0  0  0  0  0  0  0  0
   38.5890   27.1090   31.7110 C   0  0  0  0  0  0  0  0  0  0  0  0
   45.7880   25.0830   37.0860 C   0  0  1  0  0  0  0  0  0  0  0  0
   46.8310   24.5810   37.9460 C   0  0  0  0  0  0  0  0  0  0  0  0
   47.2390   24.9600   36.5490 C   0  0  2  0  0  0  0  0  0  0  0  0
   48.0220   26.1740   36.4330 N   0  0  0  0  0  0  0  0  0  0  0  0
   49.1870   26.5790   37.0070 C   0  0  0  0  0  0  0  0  0  0  0  0
   49.4940   27.8210   36.5530 N   0  0  0  0  0  0  0  0  0  0  0  0
   48.5090   28.1890   35.6890 C   0  0  0  0  0  0  0  0  0  0  0  0
   48.3730   29.3590   34.9730 C   0  0  0  0  0  0  0  0  0  0  0  0
   49.2040   30.3030   35.0330 O   0  0  0  0  0  0  0  0  0  0  0  0
   47.2860   29.4560   34.1830 N   0  0  0  0  0  0  0  0  0  0  0  0
   46.3870   28.4680   34.1000 C   0  0  0  0  0  0  0  0  0  0  0  0
   45.2120   28.4740   33.3030 N   0  0  0  0  0  0  0  0  0  0  0  0
   46.5320   27.3640   34.7880 N   0  0  0  0  0  0  0  0  0  0  0  0
   47.5970   27.1600   35.6200 C   0  0  0  0  0  0  0  0  0  0  0  0
   40.7972   22.5608   35.9557 H   0  0  0  0  0  0  0  0  0  0  0  0
   43.1769   22.3342   36.7101 H   0  0  0  0  0  0  0  0  0  0  0  0
   41.0630   27.1740   35.3878 H   0  0  0  0  0  0  0  0  0  0  0  0
   42.5314   26.4802   32.4775 H   0  0  0  0  0  0  0  0  0  0  0  0
   42.1852   27.9911   32.5033 H   0  0  0  0  0  0  0  0  0  0  0  0
   39.8644   25.7045   32.7497 H   0  0  0  0  0  0  0  0  0  0  0  0
   38.9257   27.1055   35.0417 H   0  0  0  0  0  0  0  0  0  0  0  0
   37.5686   27.8628   34.1302 H   0  0  0  0  0  0  0  0  0  0  0  0
   38.3880   24.9298   34.1660 H   0  0  0  0  0  0  0  0  0  0  0  0
   36.8620   25.6739   34.7878 H   0  0  0  0  0  0  0  0  0  0  0  0
   37.5151   24.7590   32.0934 H   0  0  0  0  0  0  0  0  0  0  0  0
   35.9393   25.2538   32.7732 H   0  0  0  0  0  0  0  0  0  0  0  0
   36.5804   26.7853   30.9428 H   0  0  0  0  0  0  0  0  0  0  0  0
   36.6153   27.6749   32.4727 H   0  0  0  0  0  0  0  0  0  0  0  0
   39.0412   26.2526   31.1894 H   0  0  0  0  0  0  0  0  0  0  0  0
   38.7360   28.0158   31.1060 H   0  0  0  0  0  0  0  0  0  0  0  0
   45.0329   25.8746   37.2008 H   0  0  0  0  0  0  0  0  0  0  0  0
   47.1735   25.1932   38.7933 H   0  0  0  0  0  0  0  0  0  0  0  0
   46.9424   23.6646   38.5442 H   0  0  0  0  0  0  0  0  0  0  0  0
   47.7206   24.4791   35.6848 H   0  0  0  0  0  0  0  0  0  0  0  0
   49.7836   25.9947   37.7230 H   0  0  0  0  0  0  0  0  0  0  0  0
   47.1432   30.3124   33.6288 H   0  0  0  0  0  0  0  0  0  0  0  0
   44.5814   27.6596   33.3091 H   0  0  0  0  0  0  0  0  0  0  0  0
   44.9902   29.2927   32.7187 H   0  0  0  0  0  0  0  0  0  0  0  0
  1 17  1  0
  2  3  2  0
  4  3  1  0
  4  1  1  0
  5  4  2  0
  6  7  2  0
  6  5  1  0
  7  2  1  0
  8  6  1  0
  9 10  1  0
  9  8  1  0
 10  8  1  0
 11 10  1  0
 11 12  1  0
 13 12  1  0
 14 13  1  0
 15 14  1  0
 16 15  1  0
 16 11  1  0
 17 18  1  0
 19 17  1  0
 19 18  1  0
 20 19  1  0
 20 21  1  0
 22 21  2  0
 23 22  1  0
 24 25  2  0
 24 23  1  0
 26 24  1  0
 27 26  1  0
 27 29  2  0
 28 27  1  0
 29 30  1  0
 30 23  2  0
 30 20  1  0
  2 31  1  0
  3 32  1  0
  8 33  1  1
  9 34  1  0
  9 35  1  0
 10 36  1  6
 12 37  1  0
 12 38  1  0
 13 39  1  0
 13 40  1  0
 14 41  1  0
 14 42  1  0
 15 43  1  0
 15 44  1  0
 16 45  1  0
 16 46  1  0
 17 47  1  1
 18 48  1  0
 18 49  1  0
 19 50  1  6
 21 51  1  0
 26 52  1  0
 28 53  1  0
 28 54  1  0
M  ISO  8  31  14  32  14  33  13  34  13  35  13  36  13  37  13  38  13
M  ISO  8  39  13  40  13  41  13  42  13  43  13  44  13  45  13  46  13
M  ISO  6  47  13  48  13  49  13  50  13  51  14  52   9
M  END
>  <minimizedAffinity>  (1) 
-5.33852673

>  <minimizedRMSD>  (1) 
0.563140631

$$$$
