
     RDKit          3D

 47 52  0  0  1  0  0  0  0  0999 V2000
   43.8410   23.6240   36.7310 O   0  0  0  0  0  0  0  0  0  0  0  0
   40.3730   22.7820   36.5080 C   0  0  0  0  0  0  0  0  0  0  0  0
   41.7240   22.7850   36.8880 C   0  0  0  0  0  0  0  0  0  0  0  0
   42.5600   23.7280   36.2780 C   0  0  0  0  0  0  0  0  0  0  0  0
   42.0530   24.5980   35.3560 N   0  0  0  0  0  0  0  0  0  0  0  0
   40.7640   24.5600   35.0260 C   0  0  0  0  0  0  0  0  0  0  0  0
   39.9240   23.6580   35.5950 N   0  0  0  0  0  0  0  0  0  0  0  0
   40.0180   25.4260   34.0750 C   0  0  1  0  0  0  0  0  0  0  0  0
   40.2270   25.0480   32.5550 C   0  0  0  0  0  0  0  0  0  0  0  0
   38.9210   24.9030   33.2290 C   0  0  2  0  0  0  0  0  0  0  0  0
   37.8530   25.8240   32.7650 C   0  0  0  0  0  0  0  0  0  0  0  0
   37.8380   27.1730   33.1180 C   0  0  0  0  0  0  0  0  0  0  0  0
   36.7940   27.9560   32.6330 C   0  0  0  0  0  0  0  0  0  0  0  0
   35.8040   27.4820   31.8450 N   0  0  0  0  0  0  0  0  0  0  0  0
   35.8510   26.1700   31.5220 C   0  0  0  0  0  0  0  0  0  0  0  0
   36.8410   25.3740   31.9680 N   0  0  0  0  0  0  0  0  0  0  0  0
   44.6910   24.7610   36.9710 C   0  0  1  0  0  0  0  0  0  0  0  0
   45.9380   24.4580   37.6310 C   0  0  0  0  0  0  0  0  0  0  0  0
   46.0020   24.6480   36.1430 C   0  0  2  0  0  0  0  0  0  0  0  0
   46.6180   25.8860   35.6950 N   0  0  0  0  0  0  0  0  0  0  0  0
   47.8390   26.4440   35.9300 C   0  0  0  0  0  0  0  0  0  0  0  0
   47.9140   27.6270   35.2660 N   0  0  0  0  0  0  0  0  0  0  0  0
   46.7260   27.8030   34.6130 C   0  0  0  0  0  0  0  0  0  0  0  0
   46.3210   28.8440   33.8120 C   0  0  0  0  0  0  0  0  0  0  0  0
   47.0440   29.8360   33.5600 O   0  0  0  0  0  0  0  0  0  0  0  0
   45.0750   28.7470   33.2940 N   0  0  0  0  0  0  0  0  0  0  0  0
   44.2800   27.6980   33.5480 C   0  0  0  0  0  0  0  0  0  0  0  0
   42.9680   27.5110   33.0520 N   0  0  0  0  0  0  0  0  0  0  0  0
   44.6890   26.7160   34.3150 N   0  0  0  0  0  0  0  0  0  0  0  0
   45.9280   26.7130   34.8900 C   0  0  0  0  0  0  0  0  0  0  0  0
   39.6787   22.0585   36.9603 H   0  0  0  0  0  0  0  0  0  0  0  0
   42.1103   22.0755   37.6346 H   0  0  0  0  0  0  0  0  0  0  0  0
   40.0974   26.2992   34.7392 H   0  0  0  0  0  0  0  0  0  0  0  0
   40.8118   24.1583   32.2787 H   0  0  0  0  0  0  0  0  0  0  0  0
   40.6002   25.5619   31.6569 H   0  0  0  0  0  0  0  0  0  0  0  0
   38.2179   24.0711   33.3824 H   0  0  0  0  0  0  0  0  0  0  0  0
   38.6232   27.6032   33.7570 H   0  0  0  0  0  0  0  0  0  0  0  0
   36.7739   29.0212   32.9069 H   0  0  0  0  0  0  0  0  0  0  0  0
   35.0644   25.7442   30.8818 H   0  0  0  0  0  0  0  0  0  0  0  0
   43.9070   25.5137   37.1408 H   0  0  0  0  0  0  0  0  0  0  0  0
   46.3956   25.2097   38.2910 H   0  0  0  0  0  0  0  0  0  0  0  0
   46.2596   23.6493   38.3038 H   0  0  0  0  0  0  0  0  0  0  0  0
   46.3352   24.0727   35.2666 H   0  0  0  0  0  0  0  0  0  0  0  0
   48.6330   26.0084   36.5544 H   0  0  0  0  0  0  0  0  0  0  0  0
   44.7267   29.5020   32.6861 H   0  0  0  0  0  0  0  0  0  0  0  0
   42.4366   26.6663   33.3069 H   0  0  0  0  0  0  0  0  0  0  0  0
   42.5444   28.2196   32.4361 H   0  0  0  0  0  0  0  0  0  0  0  0
  1 17  1  0
  2  3  2  0
  4  1  1  0
  4  3  1  0
  5  4  2  0
  6  5  1  0
  6  7  2  0
  7  2  1  0
  8  6  1  0
  9 10  1  0
  9  8  1  0
 10  8  1  0
 11 12  2  0
 11 10  1  0
 13 12  1  0
 14 13  2  0
 15 14  1  0
 15 16  2  0
 16 11  1  0
 17 18  1  0
 19 17  1  0
 19 18  1  0
 20 21  1  0
 20 19  1  0
 22 21  2  0
 23 30  2  0
 23 22  1  0
 24 23  1  0
 25 24  2  0
 26 27  1  0
 26 24  1  0
 27 29  2  0
 28 27  1  0
 29 30  1  0
 30 20  1  0
  2 31  1  0
  3 32  1  0
  8 33  1  6
  9 34  1  0
  9 35  1  0
 10 36  1  1
 12 37  1  0
 13 38  1  0
 15 39  1  0
 17 40  1  1
 18 41  1  0
 18 42  1  0
 19 43  1  6
 21 44  1  0
 26 45  1  0
 28 46  1  0
 28 47  1  0
M  ISO  8  31  14  32  14  33  13  34  13  35  13  36  13  37  14  38  14
M  ISO  7  39  14  40  13  41  13  42  13  43  13  44  14  45   9
M  END
>  <minimizedAffinity>  (1) 
-5.20298481

>  <minimizedRMSD>  (1) 
2.2018249

$$$$
