
     RDKit          3D

 17 17  0  0  0  0  0  0  0  0999 V2000
   40.1520   23.0830   36.6010 C   0  0  0  0  0  0  0  0  0  0  0  0
   39.7580   22.7570   37.9160 C   0  0  0  0  0  0  0  0  0  0  0  0
   38.6490   23.4600   38.4490 C   0  0  0  0  0  0  0  0  0  0  0  0
   38.0290   24.4100   37.6590 N   0  0  0  0  0  0  0  0  0  0  0  0
   38.4590   24.6670   36.4150 C   0  0  0  0  0  0  0  0  0  0  0  0
   39.4990   24.0200   35.8930 N   0  0  0  0  0  0  0  0  0  0  0  0
   37.6940   25.7180   35.6740 C   0  0  0  0  0  0  0  0  0  0  0  0
   38.6110   26.8710   35.3280 C   0  0  0  0  0  0  0  0  0  0  0  0
   38.7120   27.7520   36.4040 O   0  0  0  0  0  0  0  0  0  0  0  0
   41.0079   22.5615   36.1478 H   0  0  0  0  0  0  0  0  0  0  0  0
   40.2881   21.9913   38.5014 H   0  0  0  0  0  0  0  0  0  0  0  0
   38.2897   23.2544   39.4681 H   0  0  0  0  0  0  0  0  0  0  0  0
   37.2839   25.2871   34.7487 H   0  0  0  0  0  0  0  0  0  0  0  0
   36.8729   26.0844   36.3077 H   0  0  0  0  0  0  0  0  0  0  0  0
   39.6099   26.4794   35.0853 H   0  0  0  0  0  0  0  0  0  0  0  0
   38.1958   27.4099   34.4636 H   0  0  0  0  0  0  0  0  0  0  0  0
   38.6539   27.2449   37.2523 H   0  0  0  0  0  0  0  0  0  0  0  0
  1  2  2  0
  2  3  1  0
  4  3  2  0
  5  4  1  0
  6  5  2  0
  6  1  1  0
  7  5  1  0
  8  7  1  0
  8  9  1  0
  1 10  1  0
  2 11  1  0
  3 12  1  0
  7 13  1  0
  7 14  1  0
  8 15  1  0
  8 16  1  0
  9 17  1  0
M  ISO  8  10  14  11  14  12  14  13   8  14   8  15   8  16   8  17   3
M  END
>  <minimizedAffinity>  (1) 
-3.40280986

>  <minimizedRMSD>  (1) 
0.565611243

$$$$
