
     RDKit          3D

 45 50  0  0  1  0  0  0  0  0999 V2000
   45.4820   25.0410   36.7790 C   0  0  1  0  0  0  0  0  0  0  0  0
   46.4920   24.4170   37.5950 C   0  0  0  0  0  0  0  0  0  0  0  0
   46.9330   24.8950   36.2390 C   0  0  2  0  0  0  0  0  0  0  0  0
   47.7700   26.0880   36.2430 N   0  0  0  0  0  0  0  0  0  0  0  0
   48.9130   26.4100   36.9150 C   0  0  0  0  0  0  0  0  0  0  0  0
   49.2950   27.6600   36.5540 N   0  0  0  0  0  0  0  0  0  0  0  0
   48.3780   28.1150   35.6500 C   0  0  0  0  0  0  0  0  0  0  0  0
   48.3300   29.3280   34.9940 C   0  0  0  0  0  0  0  0  0  0  0  0
   49.1890   30.2300   35.1590 O   0  0  0  0  0  0  0  0  0  0  0  0
   47.2970   29.5080   34.1440 N   0  0  0  0  0  0  0  0  0  0  0  0
   46.3660   28.5540   33.9510 C   0  0  0  0  0  0  0  0  0  0  0  0
   45.2550   28.6510   33.0850 N   0  0  0  0  0  0  0  0  0  0  0  0
   46.4320   27.4130   34.5840 N   0  0  0  0  0  0  0  0  0  0  0  0
   47.4360   27.1240   35.4660 C   0  0  0  0  0  0  0  0  0  0  0  0
   44.5940   24.1340   36.1000 O   0  0  0  0  0  0  0  0  0  0  0  0
   41.0560   23.7070   35.7390 C   0  0  0  0  0  0  0  0  0  0  0  0
   42.4110   23.4700   36.0730 C   0  0  0  0  0  0  0  0  0  0  0  0
   43.3180   24.4750   35.7320 C   0  0  0  0  0  0  0  0  0  0  0  0
   42.8920   25.6120   35.1160 N   0  0  0  0  0  0  0  0  0  0  0  0
   41.6080   25.7840   34.8250 C   0  0  0  0  0  0  0  0  0  0  0  0
   40.6900   24.8470   35.1300 N   0  0  0  0  0  0  0  0  0  0  0  0
   40.9310   26.9330   34.1900 C   0  0  1  0  0  0  0  0  0  0  0  0
   41.6970   27.6030   32.9960 C   0  0  0  0  0  0  0  0  0  0  0  0
   40.4120   26.9100   32.7990 C   0  0  1  0  0  0  0  0  0  0  0  0
   40.4640   25.6930   31.9490 C   0  0  0  0  0  0  0  0  0  0  0  0
   39.1860   24.9620   31.7640 C   0  0  0  0  0  0  0  0  0  0  0  0
   39.7300   23.6080   30.6870 S   0  0  0  0  0  0  0  0  0  0  0  0
   41.5320   24.2090   30.6500 C   0  0  0  0  0  0  0  0  0  0  0  0
   41.5560   25.2160   31.3430 N   0  0  0  0  0  0  0  0  0  0  0  0
   44.7653   25.8563   36.9569 H   0  0  0  0  0  0  0  0  0  0  0  0
   46.8554   24.9358   38.4943 H   0  0  0  0  0  0  0  0  0  0  0  0
   46.5535   23.4474   38.1109 H   0  0  0  0  0  0  0  0  0  0  0  0
   47.4013   24.4679   35.3400 H   0  0  0  0  0  0  0  0  0  0  0  0
   49.4384   25.7619   37.6319 H   0  0  0  0  0  0  0  0  0  0  0  0
   47.2187   30.3972   33.6301 H   0  0  0  0  0  0  0  0  0  0  0  0
   44.5946   27.8647   33.0045 H   0  0  0  0  0  0  0  0  0  0  0  0
   45.1050   29.5081   32.5338 H   0  0  0  0  0  0  0  0  0  0  0  0
   40.2952   22.9501   35.9805 H   0  0  0  0  0  0  0  0  0  0  0  0
   42.7317   22.5446   36.5738 H   0  0  0  0  0  0  0  0  0  0  0  0
   40.4776   27.2112   35.1528 H   0  0  0  0  0  0  0  0  0  0  0  0
   41.7537   28.6988   32.9186 H   0  0  0  0  0  0  0  0  0  0  0  0
   42.7068   27.5268   32.5663 H   0  0  0  0  0  0  0  0  0  0  0  0
   39.4192   27.1734   32.4054 H   0  0  0  0  0  0  0  0  0  0  0  0
   38.1864   25.1806   32.1679 H   0  0  0  0  0  0  0  0  0  0  0  0
   42.3765   23.7478   30.1170 H   0  0  0  0  0  0  0  0  0  0  0  0
  1  2  1  0
  3  4  1  0
  3  1  1  0
  3  2  1  0
  4  5  1  0
  6  5  2  0
  7  6  1  0
  8  9  2  0
  8  7  1  0
 10  8  1  0
 11 10  1  0
 11 13  2  0
 12 11  1  0
 13 14  1  0
 14  7  2  0
 14  4  1  0
 15  1  1  0
 16 17  2  0
 18 17  1  0
 18 15  1  0
 19 18  2  0
 20 19  1  0
 20 21  2  0
 21 16  1  0
 22 20  1  0
 23 22  1  0
 24 23  1  0
 24 22  1  0
 25 24  1  0
 26 25  2  0
 27 26  1  0
 28 27  1  0
 28 29  2  0
 29 25  1  0
  1 30  1  1
  2 31  1  0
  2 32  1  0
  3 33  1  6
  5 34  1  0
 10 35  1  0
 12 36  1  0
 12 37  1  0
 16 38  1  0
 17 39  1  0
 22 40  1  1
 23 41  1  0
 23 42  1  0
 24 43  1  1
 26 44  1  0
 28 45  1  0
M  ISO  8  30  13  31  13  32  13  33  13  34  14  35   9  38  14  39  14
M  ISO  6  40  13  41  13  42  13  43  13  44  14  45  14
M  END
>  <minimizedAffinity>  (1) 
-4.7126317

>  <minimizedRMSD>  (1) 
0.705491245

$$$$
