
     RDKit          3D

 41 45  0  0  1  0  0  0  0  0999 V2000
   45.4910   25.1090   36.7880 C   0  0  1  0  0  0  0  0  0  0  0  0
   46.4690   24.4930   37.6490 C   0  0  0  0  0  0  0  0  0  0  0  0
   46.9550   24.9370   36.3000 C   0  0  2  0  0  0  0  0  0  0  0  0
   47.8020   26.1240   36.3000 N   0  0  0  0  0  0  0  0  0  0  0  0
   48.9360   26.4470   36.9750 C   0  0  0  0  0  0  0  0  0  0  0  0
   49.3260   27.6900   36.6070 N   0  0  0  0  0  0  0  0  0  0  0  0
   48.4230   28.1490   35.6900 C   0  0  0  0  0  0  0  0  0  0  0  0
   48.3890   29.3540   35.0270 C   0  0  0  0  0  0  0  0  0  0  0  0
   49.2440   30.2490   35.1920 O   0  0  0  0  0  0  0  0  0  0  0  0
   47.3660   29.5360   34.1680 N   0  0  0  0  0  0  0  0  0  0  0  0
   46.4300   28.5890   33.9720 C   0  0  0  0  0  0  0  0  0  0  0  0
   45.3170   28.6830   33.0970 N   0  0  0  0  0  0  0  0  0  0  0  0
   46.4820   27.4480   34.6150 N   0  0  0  0  0  0  0  0  0  0  0  0
   47.4770   27.1620   35.5070 C   0  0  0  0  0  0  0  0  0  0  0  0
   44.6190   24.1870   36.1010 O   0  0  0  0  0  0  0  0  0  0  0  0
   41.0940   23.7010   35.7580 C   0  0  0  0  0  0  0  0  0  0  0  0
   42.4430   23.4980   36.0890 C   0  0  0  0  0  0  0  0  0  0  0  0
   43.3420   24.5070   35.7260 C   0  0  0  0  0  0  0  0  0  0  0  0
   42.9050   25.6280   35.0840 N   0  0  0  0  0  0  0  0  0  0  0  0
   41.6160   25.7750   34.7920 C   0  0  0  0  0  0  0  0  0  0  0  0
   40.7100   24.8250   35.1220 N   0  0  0  0  0  0  0  0  0  0  0  0
   40.9300   26.9140   34.1280 C   0  0  1  0  0  0  0  0  0  0  0  0
   41.7850   27.6300   33.0110 C   0  0  0  0  0  0  0  0  0  0  0  0
   40.5470   26.8880   32.6960 C   0  0  1  0  0  0  0  0  0  0  0  0
   40.7520   25.6460   31.9030 C   0  0  0  0  0  0  0  0  0  0  0  0
   39.9560   24.7540   31.6780 O   0  0  0  0  0  0  0  0  0  0  0  0
   44.7773   25.9350   36.9234 H   0  0  0  0  0  0  0  0  0  0  0  0
   46.8095   25.0277   38.5480 H   0  0  0  0  0  0  0  0  0  0  0  0
   46.5049   23.5343   38.1872 H   0  0  0  0  0  0  0  0  0  0  0  0
   47.4484   24.4844   35.4272 H   0  0  0  0  0  0  0  0  0  0  0  0
   49.4529   25.8034   37.7020 H   0  0  0  0  0  0  0  0  0  0  0  0
   47.2990   30.4227   33.6483 H   0  0  0  0  0  0  0  0  0  0  0  0
   44.6552   27.8976   33.0193 H   0  0  0  0  0  0  0  0  0  0  0  0
   45.1709   29.5366   32.5395 H   0  0  0  0  0  0  0  0  0  0  0  0
   40.3461   22.9380   36.0194 H   0  0  0  0  0  0  0  0  0  0  0  0
   42.7777   22.5884   36.6093 H   0  0  0  0  0  0  0  0  0  0  0  0
   40.3736   27.1607   35.0443 H   0  0  0  0  0  0  0  0  0  0  0  0
   41.8065   28.7279   32.9461 H   0  0  0  0  0  0  0  0  0  0  0  0
   42.8322   27.5975   32.6758 H   0  0  0  0  0  0  0  0  0  0  0  0
   39.5965   27.1306   32.1984 H   0  0  0  0  0  0  0  0  0  0  0  0
   41.7522   25.5178   31.4635 H   0  0  0  0  0  0  0  0  0  0  0  0
  1  2  1  0
  3  1  1  0
  3  2  1  0
  4  3  1  0
  4  5  1  0
  6  5  2  0
  7  6  1  0
  8  9  2  0
  8  7  1  0
 10  8  1  0
 11 10  1  0
 11 13  2  0
 12 11  1  0
 13 14  1  0
 14  7  2  0
 14  4  1  0
 15  1  1  0
 16 17  2  0
 18 17  1  0
 18 15  1  0
 19 18  2  0
 20 19  1  0
 20 21  2  0
 21 16  1  0
 22 20  1  0
 23 22  1  0
 24 23  1  0
 24 22  1  0
 25 24  1  0
 26 25  2  0
  1 27  1  1
  2 28  1  0
  2 29  1  0
  3 30  1  6
  5 31  1  0
 10 32  1  0
 12 33  1  0
 12 34  1  0
 16 35  1  0
 17 36  1  0
 22 37  1  1
 23 38  1  0
 23 39  1  0
 24 40  1  1
 25 41  1  0
M  ISO  8  27  13  28  13  29  13  30  13  31  14  32   9  35  14  36  14
M  ISO  5  37  13  38  13  39  13  40  13  41   6
M  END
>  <minimizedAffinity>  (1) 
-4.50803566

>  <minimizedRMSD>  (1) 
0.526950896

$$$$
