
     RDKit          3D

 25 27  0  0  0  0  0  0  0  0999 V2000
   41.2670   22.5130   36.7480 C   0  0  0  0  0  0  0  0  0  0  0  0
   41.9440   21.3030   36.6080 C   0  0  0  0  0  0  0  0  0  0  0  0
   43.2660   21.6890   36.5140 C   0  0  0  0  0  0  0  0  0  0  0  0
   43.4020   23.0340   36.5900 N   0  0  0  0  0  0  0  0  0  0  0  0
   42.1740   23.4830   36.7300 N   0  0  0  0  0  0  0  0  0  0  0  0
   39.2690   23.1580   38.0600 C   0  0  0  0  0  0  0  0  0  0  0  0
   39.8370   22.6520   36.8870 C   0  0  0  0  0  0  0  0  0  0  0  0
   39.0030   22.2730   35.8290 C   0  0  0  0  0  0  0  0  0  0  0  0
   37.6590   22.4260   36.0160 N   0  0  0  0  0  0  0  0  0  0  0  0
   37.1440   22.9180   37.1610 C   0  0  0  0  0  0  0  0  0  0  0  0
   37.9440   23.2750   38.1610 N   0  0  0  0  0  0  0  0  0  0  0  0
   44.6010   23.7990   36.5320 C   0  0  0  0  0  0  0  0  0  0  0  0
   45.7870   23.2220   36.1280 C   0  0  0  0  0  0  0  0  0  0  0  0
   46.9560   23.9540   36.0670 C   0  0  0  0  0  0  0  0  0  0  0  0
   46.9770   25.2720   36.4060 N   0  0  0  0  0  0  0  0  0  0  0  0
   45.7980   25.7990   36.7970 C   0  0  0  0  0  0  0  0  0  0  0  0
   44.6420   25.1080   36.8650 N   0  0  0  0  0  0  0  0  0  0  0  0
   41.5259   20.2860   36.5793 H   0  0  0  0  0  0  0  0  0  0  0  0
   44.1062   20.9895   36.3922 H   0  0  0  0  0  0  0  0  0  0  0  0
   39.9139   23.4593   38.8986 H   0  0  0  0  0  0  0  0  0  0  0  0
   39.4112   21.8705   34.8902 H   0  0  0  0  0  0  0  0  0  0  0  0
   36.0545   23.0247   37.2684 H   0  0  0  0  0  0  0  0  0  0  0  0
   45.8017   22.1581   35.8490 H   0  0  0  0  0  0  0  0  0  0  0  0
   47.8849   23.4644   35.7393 H   0  0  0  0  0  0  0  0  0  0  0  0
   45.7785   26.8621   37.0788 H   0  0  0  0  0  0  0  0  0  0  0  0
  1  7  1  0
  2  1  1  0
  3  4  1  0
  3  2  2  0
  4  5  1  0
  5  1  2  0
  6 11  2  0
  7  6  1  0
  8  9  1  0
  8  7  2  0
  9 10  2  0
 10 11  1  0
 12  4  1  0
 12 17  1  0
 13 12  2  0
 14 13  1  0
 14 15  2  0
 15 16  1  0
 16 17  2  0
  2 18  1  0
  3 19  1  0
  6 20  1  0
  8 21  1  0
 10 22  1  0
 13 23  1  0
 14 24  1  0
 16 25  1  0
M  ISO  8  18  14  19  14  20  14  21  14  22  14  23  14  24  14  25  14
M  END
>  <minimizedAffinity>  (1) 
-4.11593628

>  <minimizedRMSD>  (1) 
4.4916935

$$$$
