
     RDKit          3D

 24 26  0  0  0  0  0  0  0  0999 V2000
   42.6850   21.2700   36.5860 C   0  0  0  0  0  0  0  0  0  0  0  0
   42.9800   22.4630   35.9510 C   0  0  0  0  0  0  0  0  0  0  0  0
   41.8480   23.2200   36.1750 C   0  0  0  0  0  0  0  0  0  0  0  0
   40.9180   22.5470   36.8960 N   0  0  0  0  0  0  0  0  0  0  0  0
   41.4710   21.3690   37.1210 N   0  0  0  0  0  0  0  0  0  0  0  0
   39.6460   22.9850   37.3180 C   0  0  0  0  0  0  0  0  0  0  0  0
   39.1170   23.2120   38.5730 C   0  0  0  0  0  0  0  0  0  0  0  0
   37.8230   23.6300   38.3560 C   0  0  0  0  0  0  0  0  0  0  0  0
   37.5650   23.6580   37.0300 N   0  0  0  0  0  0  0  0  0  0  0  0
   38.6660   23.2700   36.4460 N   0  0  0  0  0  0  0  0  0  0  0  0
   43.0530   18.8660   37.0750 C   0  0  0  0  0  0  0  0  0  0  0  0
   43.5580   20.1110   36.6510 C   0  0  0  0  0  0  0  0  0  0  0  0
   44.8920   20.2170   36.2970 C   0  0  0  0  0  0  0  0  0  0  0  0
   45.6500   19.0900   36.3830 N   0  0  0  0  0  0  0  0  0  0  0  0
   45.1570   17.9020   36.7900 C   0  0  0  0  0  0  0  0  0  0  0  0
   43.8610   17.8010   37.1330 N   0  0  0  0  0  0  0  0  0  0  0  0
   43.8923   22.7401   35.4025 H   0  0  0  0  0  0  0  0  0  0  0  0
   41.7158   24.2495   35.8109 H   0  0  0  0  0  0  0  0  0  0  0  0
   39.6225   23.0856   39.5417 H   0  0  0  0  0  0  0  0  0  0  0  0
   37.1059   23.9009   39.1449 H   0  0  0  0  0  0  0  0  0  0  0  0
   36.6821   23.9294   36.5742 H   0  0  0  0  0  0  0  0  0  0  0  0
   41.9945   18.7694   37.3584 H   0  0  0  0  0  0  0  0  0  0  0  0
   45.3214   21.1721   35.9603 H   0  0  0  0  0  0  0  0  0  0  0  0
   45.8124   17.0200   36.8410 H   0  0  0  0  0  0  0  0  0  0  0  0
  1 12  1  0
  1  5  2  0
  2  3  2  0
  2  1  1  0
  3  4  1  0
  4  5  1  0
  4  6  1  0
  6  7  1  0
  8  7  2  0
  9  8  1  0
 10  9  1  0
 10  6  2  0
 11 16  2  0
 12 11  1  0
 13 14  1  0
 13 12  2  0
 14 15  2  0
 15 16  1  0
  2 17  1  0
  3 18  1  0
  7 19  1  0
  8 20  1  0
  9 21  1  0
 11 22  1  0
 13 23  1  0
 15 24  1  0
M  ISO  8  17  14  18  14  19  14  20  14  21   9  22  14  23  14  24  14
M  END
>  <minimizedAffinity>  (1) 
-3.97762728

>  <minimizedRMSD>  (1) 
6.37245464

$$$$
