
     RDKit          3D

 30 32  0  0  0  0  0  0  0  0999 V2000
   38.3280   23.6890   33.5730 C   0  0  0  0  0  0  0  0  0  0  0  0
   38.1940   22.6580   34.4780 C   0  0  0  0  0  0  0  0  0  0  0  0
   39.4330   22.5610   35.0790 C   0  0  0  0  0  0  0  0  0  0  0  0
   40.2800   23.4850   34.5690 N   0  0  0  0  0  0  0  0  0  0  0  0
   39.5800   24.1420   33.6710 N   0  0  0  0  0  0  0  0  0  0  0  0
   36.5180   23.2910   31.9320 C   0  0  0  0  0  0  0  0  0  0  0  0
   37.2930   24.1690   32.6990 C   0  0  0  0  0  0  0  0  0  0  0  0
   37.0440   25.5270   32.6010 C   0  0  0  0  0  0  0  0  0  0  0  0
   36.0500   25.9350   31.7550 N   0  0  0  0  0  0  0  0  0  0  0  0
   35.3230   25.0530   31.0310 C   0  0  0  0  0  0  0  0  0  0  0  0
   35.5600   23.7390   31.1230 N   0  0  0  0  0  0  0  0  0  0  0  0
   41.6360   23.6640   34.9630 C   0  0  0  0  0  0  0  0  0  0  0  0
   41.9230   23.1640   36.3670 C   0  0  0  0  0  0  0  0  0  0  0  0
   43.3540   23.6660   36.5570 C   0  0  0  0  0  0  0  0  0  0  0  0
   43.4890   24.8830   35.6620 C   0  0  0  0  0  0  0  0  0  0  0  0
   42.0980   25.0930   35.0520 C   0  0  0  0  0  0  0  0  0  0  0  0
   37.2999   22.0489   34.6768 H   0  0  0  0  0  0  0  0  0  0  0  0
   39.6950   21.8346   35.8624 H   0  0  0  0  0  0  0  0  0  0  0  0
   36.7043   22.2090   31.9990 H   0  0  0  0  0  0  0  0  0  0  0  0
   37.6269   26.2546   33.1848 H   0  0  0  0  0  0  0  0  0  0  0  0
   34.5307   25.4189   30.3613 H   0  0  0  0  0  0  0  0  0  0  0  0
   42.1502   23.1068   34.1661 H   0  0  0  0  0  0  0  0  0  0  0  0
   41.2365   23.6069   37.1036 H   0  0  0  0  0  0  0  0  0  0  0  0
   41.7971   22.0795   36.5010 H   0  0  0  0  0  0  0  0  0  0  0  0
   43.5263   23.9425   37.6076 H   0  0  0  0  0  0  0  0  0  0  0  0
   44.0915   22.8914   36.3000 H   0  0  0  0  0  0  0  0  0  0  0  0
   43.7884   25.7628   36.2505 H   0  0  0  0  0  0  0  0  0  0  0  0
   44.2585   24.7402   34.8890 H   0  0  0  0  0  0  0  0  0  0  0  0
   42.1537   25.5669   34.0609 H   0  0  0  0  0  0  0  0  0  0  0  0
   41.4362   25.7601   35.6239 H   0  0  0  0  0  0  0  0  0  0  0  0
  1  5  2  0
  1  2  1  0
  2  3  2  0
  4 12  1  0
  4  3  1  0
  5  4  1  0
  6  7  2  0
  7  1  1  0
  8  7  1  0
  9  8  2  0
 10 11  2  0
 10  9  1  0
 11  6  1  0
 12 16  1  0
 12 13  1  0
 13 14  1  0
 15 14  1  0
 16 15  1  0
  2 17  1  0
  3 18  1  0
  6 19  1  0
  8 20  1  0
 10 21  1  0
 12 22  1  0
 13 23  1  0
 13 24  1  0
 14 25  1  0
 14 26  1  0
 15 27  1  0
 15 28  1  0
 16 29  1  0
 16 30  1  0
M  ISO  8  17  14  18  14  19  14  20  14  21  14  22  13  23  13  24  13
M  ISO  6  25  13  26  13  27  13  28  13  29  13  30  13
M  END
>  <minimizedAffinity>  (1) 
-3.80030823

>  <minimizedRMSD>  (1) 
5.67736912

$$$$
