
     RDKit          3D

 25 27  0  0  0  0  0  0  0  0999 V2000
   40.9770   22.0780   36.3250 C   0  0  0  0  0  0  0  0  0  0  0  0
   41.4590   22.1780   35.0450 C   0  0  0  0  0  0  0  0  0  0  0  0
   42.4720   21.2480   34.9510 C   0  0  0  0  0  0  0  0  0  0  0  0
   42.6030   20.6030   36.1340 N   0  0  0  0  0  0  0  0  0  0  0  0
   41.6880   21.1370   36.9160 N   0  0  0  0  0  0  0  0  0  0  0  0
   39.0340   23.5790   36.0860 C   0  0  0  0  0  0  0  0  0  0  0  0
   39.9120   22.8440   36.9060 C   0  0  0  0  0  0  0  0  0  0  0  0
   39.7170   22.8860   38.2720 C   0  0  0  0  0  0  0  0  0  0  0  0
   38.6890   23.6310   38.7660 N   0  0  0  0  0  0  0  0  0  0  0  0
   37.8590   24.3300   37.9410 C   0  0  0  0  0  0  0  0  0  0  0  0
   38.0390   24.2970   36.6100 N   0  0  0  0  0  0  0  0  0  0  0  0
   43.5040   19.5610   36.5360 C   0  0  0  0  0  0  0  0  0  0  0  0
   44.8890   19.7370   36.4420 C   0  0  0  0  0  0  0  0  0  0  0  0
   45.6440   18.6590   36.8620 C   0  0  0  0  0  0  0  0  0  0  0  0
   45.1070   17.5170   37.3310 N   0  0  0  0  0  0  0  0  0  0  0  0
   43.7690   17.3860   37.4060 C   0  0  0  0  0  0  0  0  0  0  0  0
   42.9880   18.4100   37.0080 N   0  0  0  0  0  0  0  0  0  0  0  0
   41.1093   22.8599   34.2559 H   0  0  0  0  0  0  0  0  0  0  0  0
   43.0798   21.0592   34.0538 H   0  0  0  0  0  0  0  0  0  0  0  0
   39.1709   23.5608   34.9947 H   0  0  0  0  0  0  0  0  0  0  0  0
   40.3799   22.3278   38.9495 H   0  0  0  0  0  0  0  0  0  0  0  0
   37.0374   24.9243   38.3673 H   0  0  0  0  0  0  0  0  0  0  0  0
   45.3426   20.6643   36.0621 H   0  0  0  0  0  0  0  0  0  0  0  0
   46.7400   18.7378   36.8106 H   0  0  0  0  0  0  0  0  0  0  0  0
   43.3198   16.4568   37.7865 H   0  0  0  0  0  0  0  0  0  0  0  0
  1  7  1  0
  1  5  2  0
  2  1  1  0
  3  2  2  0
  3  4  1  0
  4 12  1  0
  4  5  1  0
  6 11  2  0
  6  7  1  0
  7  8  2  0
  8  9  1  0
 10  9  2  0
 11 10  1  0
 12 17  1  0
 13 12  2  0
 13 14  1  0
 14 15  2  0
 15 16  1  0
 17 16  2  0
  2 18  1  0
  3 19  1  0
  6 20  1  0
  8 21  1  0
 10 22  1  0
 13 23  1  0
 14 24  1  0
 16 25  1  0
M  ISO  8  18  14  19  14  20  14  21  14  22  14  23  14  24  14  25  14
M  END
>  <minimizedAffinity>  (1) 
-3.66081262

>  <minimizedRMSD>  (1) 
1.50665092

$$$$
