
     RDKit          3D

 24 26  0  0  0  0  0  0  0  0999 V2000
   37.8950   21.9430   34.2410 C   0  0  0  0  0  0  0  0  0  0  0  0
   39.2580   22.0150   34.0720 C   0  0  0  0  0  0  0  0  0  0  0  0
   39.7010   22.7350   35.1670 C   0  0  0  0  0  0  0  0  0  0  0  0
   38.6580   23.0820   35.9640 N   0  0  0  0  0  0  0  0  0  0  0  0
   37.5950   22.5880   35.3710 N   0  0  0  0  0  0  0  0  0  0  0  0
   37.2020   21.2430   31.9790 C   0  0  0  0  0  0  0  0  0  0  0  0
   36.9540   21.2920   33.3630 C   0  0  0  0  0  0  0  0  0  0  0  0
   35.7980   20.7060   33.8690 C   0  0  0  0  0  0  0  0  0  0  0  0
   34.9710   20.1160   32.9630 N   0  0  0  0  0  0  0  0  0  0  0  0
   35.2270   20.0810   31.6410 C   0  0  0  0  0  0  0  0  0  0  0  0
   36.3320   20.6400   31.1540 N   0  0  0  0  0  0  0  0  0  0  0  0
   38.6940   23.8340   37.1990 C   0  0  0  0  0  0  0  0  0  0  0  0
   39.2210   23.2070   38.4420 C   0  0  0  0  0  0  0  0  0  0  0  0
   37.7390   23.4340   38.2680 C   0  0  0  0  0  0  0  0  0  0  0  0
   39.8594   21.5953   33.2522 H   0  0  0  0  0  0  0  0  0  0  0  0
   40.7524   22.9909   35.3646 H   0  0  0  0  0  0  0  0  0  0  0  0
   38.1146   21.7017   31.5706 H   0  0  0  0  0  0  0  0  0  0  0  0
   35.5648   20.7188   34.9439 H   0  0  0  0  0  0  0  0  0  0  0  0
   34.5183   19.5873   30.9598 H   0  0  0  0  0  0  0  0  0  0  0  0
   38.9341   24.7633   36.6617 H   0  0  0  0  0  0  0  0  0  0  0  0
   39.6294   22.1860   38.4141 H   0  0  0  0  0  0  0  0  0  0  0  0
   39.9695   23.4837   39.1991 H   0  0  0  0  0  0  0  0  0  0  0  0
   37.2253   24.2026   38.8641 H   0  0  0  0  0  0  0  0  0  0  0  0
   36.8414   22.7999   38.3154 H   0  0  0  0  0  0  0  0  0  0  0  0
  1  5  2  0
  2  1  1  0
  2  3  2  0
  3  4  1  0
  4 12  1  0
  5  4  1  0
  6  7  2  0
  7  8  1  0
  7  1  1  0
  9  8  2  0
 10  9  1  0
 11 10  2  0
 11  6  1  0
 12 14  1  0
 12 13  1  0
 14 13  1  0
  2 15  1  0
  3 16  1  0
  6 17  1  0
  8 18  1  0
 10 19  1  0
 12 20  1  0
 13 21  1  0
 13 22  1  0
 14 23  1  0
 14 24  1  0
M  ISO  8  15  14  16  14  17  14  18  14  19  14  20  13  21  13  22  13
M  ISO  2  23  13  24  13
M  END
>  <minimizedAffinity>  (1) 
-3.65673113

>  <minimizedRMSD>  (1) 
5.78783989

$$$$
