
     RDKit          3D

 20 21  0  0  0  0  0  0  0  0999 V2000
   39.2100   23.7150   36.0030 C   0  0  0  0  0  0  0  0  0  0  0  0
   39.9070   22.9030   36.9180 C   0  0  0  0  0  0  0  0  0  0  0  0
   39.5440   22.9280   38.2530 C   0  0  0  0  0  0  0  0  0  0  0  0
   38.5160   23.7530   38.6000 N   0  0  0  0  0  0  0  0  0  0  0  0
   37.8610   24.5240   37.7060 C   0  0  0  0  0  0  0  0  0  0  0  0
   38.2140   24.4960   36.4220 N   0  0  0  0  0  0  0  0  0  0  0  0
   40.9930   22.0470   36.4850 C   0  0  0  0  0  0  0  0  0  0  0  0
   41.5010   21.9980   35.2100 C   0  0  0  0  0  0  0  0  0  0  0  0
   42.5020   21.0500   35.2900 C   0  0  0  0  0  0  0  0  0  0  0  0
   42.6080   20.5410   36.5400 N   0  0  0  0  0  0  0  0  0  0  0  0
   41.6740   21.1830   37.2040 N   0  0  0  0  0  0  0  0  0  0  0  0
   43.5330   19.5310   37.0220 C   0  0  0  0  0  0  0  0  0  0  0  0
   39.4882   23.7050   34.9388 H   0  0  0  0  0  0  0  0  0  0  0  0
   40.0620   22.3096   39.0009 H   0  0  0  0  0  0  0  0  0  0  0  0
   37.0376   25.1739   38.0373 H   0  0  0  0  0  0  0  0  0  0  0  0
   41.1846   22.5782   34.3307 H   0  0  0  0  0  0  0  0  0  0  0  0
   43.1348   20.7461   34.4431 H   0  0  0  0  0  0  0  0  0  0  0  0
   43.5341   19.5298   38.1220 H   0  0  0  0  0  0  0  0  0  0  0  0
   43.2205   18.5424   36.6546 H   0  0  0  0  0  0  0  0  0  0  0  0
   44.5452   19.7556   36.6546 H   0  0  0  0  0  0  0  0  0  0  0  0
  1  6  2  0
  1  2  1  0
  2  3  2  0
  3  4  1  0
  5  4  2  0
  6  5  1  0
  7  2  1  0
  7 11  2  0
  8  9  2  0
  8  7  1  0
  9 10  1  0
 10 12  1  0
 10 11  1  0
  1 13  1  0
  3 14  1  0
  5 15  1  0
  8 16  1  0
  9 17  1  0
 12 18  1  0
 12 19  1  0
 12 20  1  0
M  ISO  8  13  14  14  14  15  14  16  14  17  14  18   8  19   8  20   8
M  END
>  <minimizedAffinity>  (1) 
-3.15668297

>  <minimizedRMSD>  (1) 
0.67524761

$$$$
