
     RDKit          3D

 40 44  0  0  0  0  0  0  0  0999 V2000
   44.6610   24.8460   37.1720 C   0  0  0  0  0  0  0  0  0  0  0  0
   44.5540   25.7480   38.2080 C   0  0  0  0  0  0  0  0  0  0  0  0
   45.6660   25.9520   39.0320 C   0  0  0  0  0  0  0  0  0  0  0  0
   46.8360   25.2400   38.7800 C   0  0  0  0  0  0  0  0  0  0  0  0
   46.9180   24.3450   37.7400 C   0  0  0  0  0  0  0  0  0  0  0  0
   45.8200   24.1770   36.9670 N   0  0  0  0  0  0  0  0  0  0  0  0
   48.1300   23.5960   37.4670 C   0  0  0  0  0  0  0  0  0  0  0  0
   48.5170   22.9870   36.3050 C   0  0  0  0  0  0  0  0  0  0  0  0
   49.7180   22.4030   36.4880 N   0  0  0  0  0  0  0  0  0  0  0  0
   50.1500   22.6090   37.7630 C   0  0  0  0  0  0  0  0  0  0  0  0
   51.2720   22.2500   38.4750 C   0  0  0  0  0  0  0  0  0  0  0  0
   51.4480   22.6140   39.8090 C   0  0  0  0  0  0  0  0  0  0  0  0
   50.4400   23.3680   40.4200 C   0  0  0  0  0  0  0  0  0  0  0  0
   49.3260   23.7120   39.6740 C   0  0  0  0  0  0  0  0  0  0  0  0
   49.1460   23.3560   38.3590 C   0  0  0  0  0  0  0  0  0  0  0  0
   41.7210   23.7810   35.4410 C   0  0  0  0  0  0  0  0  0  0  0  0
   42.4120   24.2600   34.3650 C   0  0  0  0  0  0  0  0  0  0  0  0
   43.5980   24.7140   34.9040 C   0  0  0  0  0  0  0  0  0  0  0  0
   43.6400   24.5250   36.2520 N   0  0  0  0  0  0  0  0  0  0  0  0
   42.4890   23.9640   36.5080 N   0  0  0  0  0  0  0  0  0  0  0  0
   39.9410   22.4950   34.2920 C   0  0  0  0  0  0  0  0  0  0  0  0
   40.4060   23.1920   35.4040 C   0  0  0  0  0  0  0  0  0  0  0  0
   39.5620   23.3120   36.5040 C   0  0  0  0  0  0  0  0  0  0  0  0
   38.3260   22.7340   36.4170 N   0  0  0  0  0  0  0  0  0  0  0  0
   37.9210   22.0730   35.3250 C   0  0  0  0  0  0  0  0  0  0  0  0
   38.7250   21.9500   34.2610 N   0  0  0  0  0  0  0  0  0  0  0  0
   43.6159   26.2951   38.3832 H   0  0  0  0  0  0  0  0  0  0  0  0
   45.6168   26.6654   39.8679 H   0  0  0  0  0  0  0  0  0  0  0  0
   47.7122   25.3970   39.4262 H   0  0  0  0  0  0  0  0  0  0  0  0
   47.9393   22.9756   35.3690 H   0  0  0  0  0  0  0  0  0  0  0  0
   50.2340   21.8773   35.7681 H   0  0  0  0  0  0  0  0  0  0  0  0
   52.0534   21.6579   37.9762 H   0  0  0  0  0  0  0  0  0  0  0  0
   52.3506   22.3179   40.3637 H   0  0  0  0  0  0  0  0  0  0  0  0
   50.5309   23.6807   41.4707 H   0  0  0  0  0  0  0  0  0  0  0  0
   48.5387   24.3050   40.1623 H   0  0  0  0  0  0  0  0  0  0  0  0
   42.0959   24.2794   33.3116 H   0  0  0  0  0  0  0  0  0  0  0  0
   44.4087   25.1716   34.3180 H   0  0  0  0  0  0  0  0  0  0  0  0
   40.5957   22.3912   33.4142 H   0  0  0  0  0  0  0  0  0  0  0  0
   39.8774   23.8515   37.4093 H   0  0  0  0  0  0  0  0  0  0  0  0
   36.9162   21.6259   35.3017 H   0  0  0  0  0  0  0  0  0  0  0  0
  1  2  2  0
  2  3  1  0
  4  3  2  0
  5  4  1  0
  6  1  1  0
  6  5  2  0
  7  5  1  0
  7 15  1  0
  8  9  1  0
  8  7  2  0
  9 10  1  0
 10 15  2  0
 10 11  1  0
 11 12  2  0
 12 13  1  0
 14 13  2  0
 15 14  1  0
 16 20  2  0
 17 18  2  0
 17 16  1  0
 18 19  1  0
 19 20  1  0
 19  1  1  0
 21 22  2  0
 22 16  1  0
 22 23  1  0
 24 23  2  0
 25 24  1  0
 26 21  1  0
 26 25  2  0
  2 27  1  0
  3 28  1  0
  4 29  1  0
  8 30  1  0
  9 31  1  0
 11 32  1  0
 12 33  1  0
 13 34  1  0
 14 35  1  0
 17 36  1  0
 18 37  1  0
 21 38  1  0
 23 39  1  0
 25 40  1  0
M  ISO  8  27  14  28  14  29  14  30  14  31   9  32  14  33  14  34  14
M  ISO  6  35  14  36  14  37  14  38  14  39  14  40  14
M  END
>  <minimizedAffinity>  (1) 
-5.18761349

>  <minimizedRMSD>  (1) 
1.03575814

$$$$
