
     RDKit          3D

 40 43  0  0  0  0  0  0  0  0999 V2000
   41.6620   24.0900   35.4050 C   0  0  0  0  0  0  0  0  0  0  0  0
   42.1600   25.0030   34.5120 C   0  0  0  0  0  0  0  0  0  0  0  0
   43.3600   25.4000   35.0660 C   0  0  0  0  0  0  0  0  0  0  0  0
   43.5960   24.7740   36.2330 N   0  0  0  0  0  0  0  0  0  0  0  0
   42.5390   23.9960   36.3870 N   0  0  0  0  0  0  0  0  0  0  0  0
   44.6930   24.8820   37.1220 C   0  0  0  0  0  0  0  0  0  0  0  0
   44.7350   25.6800   38.2490 C   0  0  0  0  0  0  0  0  0  0  0  0
   45.8900   25.6770   39.0220 C   0  0  0  0  0  0  0  0  0  0  0  0
   46.9600   24.8920   38.6620 C   0  0  0  0  0  0  0  0  0  0  0  0
   46.8900   24.1090   37.5360 C   0  0  0  0  0  0  0  0  0  0  0  0
   45.7700   24.1060   36.7770 N   0  0  0  0  0  0  0  0  0  0  0  0
   47.9720   23.2820   37.1280 N   0  0  0  0  0  0  0  0  0  0  0  0
   48.0170   22.4170   35.9640 C   0  0  0  0  0  0  0  0  0  0  0  0
   48.0370   21.0040   36.5120 C   0  0  0  0  0  0  0  0  0  0  0  0
   49.2480   20.8320   37.2530 N   0  0  0  0  0  0  0  0  0  0  0  0
   50.0160   22.0220   37.4390 C   0  0  0  0  0  0  0  0  0  0  0  0
   49.2100   23.2240   37.8810 C   0  0  0  0  0  0  0  0  0  0  0  0
   40.1550   22.5400   34.1800 C   0  0  0  0  0  0  0  0  0  0  0  0
   40.4150   23.3880   35.2620 C   0  0  0  0  0  0  0  0  0  0  0  0
   39.4230   23.5500   36.2260 C   0  0  0  0  0  0  0  0  0  0  0  0
   38.2580   22.8690   36.0540 N   0  0  0  0  0  0  0  0  0  0  0  0
   38.0390   22.0530   34.9910 C   0  0  0  0  0  0  0  0  0  0  0  0
   38.9970   21.9000   34.0650 N   0  0  0  0  0  0  0  0  0  0  0  0
   41.7065   25.3419   33.5689 H   0  0  0  0  0  0  0  0  0  0  0  0
   44.0385   26.1362   34.6103 H   0  0  0  0  0  0  0  0  0  0  0  0
   43.8733   26.3040   38.5284 H   0  0  0  0  0  0  0  0  0  0  0  0
   45.9483   26.3041   39.9239 H   0  0  0  0  0  0  0  0  0  0  0  0
   47.8725   24.8912   39.2763 H   0  0  0  0  0  0  0  0  0  0  0  0
   48.9240   22.6135   35.3735 H   0  0  0  0  0  0  0  0  0  0  0  0
   47.1586   22.5845   35.2969 H   0  0  0  0  0  0  0  0  0  0  0  0
   47.1708   20.8476   37.1717 H   0  0  0  0  0  0  0  0  0  0  0  0
   47.9868   20.2755   35.6894 H   0  0  0  0  0  0  0  0  0  0  0  0
   49.0040   20.4606   38.1822 H   0  0  0  0  0  0  0  0  0  0  0  0
   50.7815   21.8214   38.2030 H   0  0  0  0  0  0  0  0  0  0  0  0
   50.4447   22.2752   36.4581 H   0  0  0  0  0  0  0  0  0  0  0  0
   49.7910   24.1406   37.7017 H   0  0  0  0  0  0  0  0  0  0  0  0
   48.9819   23.1371   38.9536 H   0  0  0  0  0  0  0  0  0  0  0  0
   40.9261   22.4004   33.4081 H   0  0  0  0  0  0  0  0  0  0  0  0
   39.5761   24.2056   37.0959 H   0  0  0  0  0  0  0  0  0  0  0  0
   37.0817   21.5207   34.8900 H   0  0  0  0  0  0  0  0  0  0  0  0
  1  5  2  0
  2  3  2  0
  2  1  1  0
  3  4  1  0
  4  5  1  0
  4  6  1  0
  6  7  2  0
  7  8  1  0
  9  8  2  0
 10  9  1  0
 11  6  1  0
 11 10  2  0
 12 10  1  0
 12 17  1  0
 13 14  1  0
 13 12  1  0
 14 15  1  0
 15 16  1  0
 16 17  1  0
 18 19  2  0
 19  1  1  0
 19 20  1  0
 21 20  2  0
 22 21  1  0
 23 18  1  0
 23 22  2  0
  2 24  1  0
  3 25  1  0
  7 26  1  0
  8 27  1  0
  9 28  1  0
 13 29  1  0
 13 30  1  0
 14 31  1  0
 14 32  1  0
 15 33  1  0
 16 34  1  0
 16 35  1  0
 17 36  1  0
 17 37  1  0
 18 38  1  0
 20 39  1  0
 22 40  1  0
M  ISO  8  24  14  25  14  26  14  27  14  28  14  29  13  30  13  31  13
M  ISO  8  32  13  33   5  34  13  35  13  36  13  37  13  38  14  39  14
M  ISO  1  40  14
M  END
>  <minimizedAffinity>  (1) 
-4.95976114

>  <minimizedRMSD>  (1) 
0.310396016

$$$$
