
     RDKit          3D

 38 41  0  0  0  0  0  0  0  0999 V2000
   41.6750   24.0780   35.4040 C   0  0  0  0  0  0  0  0  0  0  0  0
   42.1840   24.9820   34.5060 C   0  0  0  0  0  0  0  0  0  0  0  0
   43.3810   25.3850   35.0640 C   0  0  0  0  0  0  0  0  0  0  0  0
   43.6060   24.7660   36.2430 N   0  0  0  0  0  0  0  0  0  0  0  0
   42.5480   23.9920   36.3980 N   0  0  0  0  0  0  0  0  0  0  0  0
   44.7000   24.8890   37.1340 C   0  0  0  0  0  0  0  0  0  0  0  0
   44.7200   25.6620   38.2760 C   0  0  0  0  0  0  0  0  0  0  0  0
   45.8830   25.6780   39.0550 C   0  0  0  0  0  0  0  0  0  0  0  0
   46.9680   24.9120   38.6430 C   0  0  0  0  0  0  0  0  0  0  0  0
   46.9290   24.1450   37.4990 C   0  0  0  0  0  0  0  0  0  0  0  0
   45.7870   24.1580   36.7740 N   0  0  0  0  0  0  0  0  0  0  0  0
   48.0330   23.3600   37.0700 N   0  0  0  0  0  0  0  0  0  0  0  0
   49.4320   23.8100   37.0370 C   0  0  0  0  0  0  0  0  0  0  0  0
   50.2340   22.6510   36.5590 C   0  0  0  0  0  0  0  0  0  0  0  0
   49.3760   21.4460   36.7670 C   0  0  0  0  0  0  0  0  0  0  0  0
   47.9740   21.9910   36.5960 C   0  0  0  0  0  0  0  0  0  0  0  0
   40.1800   22.5360   34.1810 C   0  0  0  0  0  0  0  0  0  0  0  0
   40.4290   23.3790   35.2570 C   0  0  0  0  0  0  0  0  0  0  0  0
   39.4370   23.5460   36.2180 C   0  0  0  0  0  0  0  0  0  0  0  0
   38.2690   22.8610   36.0360 N   0  0  0  0  0  0  0  0  0  0  0  0
   38.0530   22.0510   34.9830 C   0  0  0  0  0  0  0  0  0  0  0  0
   39.0200   21.8980   34.0610 N   0  0  0  0  0  0  0  0  0  0  0  0
   41.7388   25.3115   33.5556 H   0  0  0  0  0  0  0  0  0  0  0  0
   44.0637   26.1164   34.6069 H   0  0  0  0  0  0  0  0  0  0  0  0
   43.8402   26.2538   38.5687 H   0  0  0  0  0  0  0  0  0  0  0  0
   45.9374   26.2828   39.9722 H   0  0  0  0  0  0  0  0  0  0  0  0
   47.8859   24.9186   39.2492 H   0  0  0  0  0  0  0  0  0  0  0  0
   49.5424   24.6596   36.3471 H   0  0  0  0  0  0  0  0  0  0  0  0
   49.7671   24.1450   38.0297 H   0  0  0  0  0  0  0  0  0  0  0  0
   51.1639   22.5635   37.1400 H   0  0  0  0  0  0  0  0  0  0  0  0
   50.5201   22.7658   35.5031 H   0  0  0  0  0  0  0  0  0  0  0  0
   49.5933   20.6719   36.0163 H   0  0  0  0  0  0  0  0  0  0  0  0
   49.5369   20.9630   37.7421 H   0  0  0  0  0  0  0  0  0  0  0  0
   47.6765   21.9627   35.5374 H   0  0  0  0  0  0  0  0  0  0  0  0
   47.2334   21.3971   37.1517 H   0  0  0  0  0  0  0  0  0  0  0  0
   40.9565   22.3940   33.4149 H   0  0  0  0  0  0  0  0  0  0  0  0
   39.5868   24.2022   37.0881 H   0  0  0  0  0  0  0  0  0  0  0  0
   37.0956   21.5197   34.8777 H   0  0  0  0  0  0  0  0  0  0  0  0
  1  5  2  0
  2  3  2  0
  2  1  1  0
  3  4  1  0
  4  5  1  0
  4  6  1  0
  6  7  2  0
  7  8  1  0
  9  8  2  0
 10  9  1  0
 11  6  1  0
 11 10  2  0
 12 10  1  0
 13 12  1  0
 14 15  1  0
 14 13  1  0
 16 15  1  0
 16 12  1  0
 17 18  2  0
 18  1  1  0
 18 19  1  0
 20 19  2  0
 21 20  1  0
 22 17  1  0
 22 21  2  0
  2 23  1  0
  3 24  1  0
  7 25  1  0
  8 26  1  0
  9 27  1  0
 13 28  1  0
 13 29  1  0
 14 30  1  0
 14 31  1  0
 15 32  1  0
 15 33  1  0
 16 34  1  0
 16 35  1  0
 17 36  1  0
 19 37  1  0
 21 38  1  0
M  ISO  8  23  14  24  14  25  14  26  14  27  14  28  13  29  13  30  13
M  ISO  8  31  13  32  13  33  13  34  13  35  13  36  14  37  14  38  14
M  END
>  <minimizedAffinity>  (1) 
-4.8684516

>  <minimizedRMSD>  (1) 
0.244819641

$$$$
