
     RDKit          3D

 36 39  0  0  0  0  0  0  0  0999 V2000
   44.6980   24.8670   37.1460 C   0  0  0  0  0  0  0  0  0  0  0  0
   44.7000   25.6850   38.2600 C   0  0  0  0  0  0  0  0  0  0  0  0
   45.8620   25.7240   39.0400 C   0  0  0  0  0  0  0  0  0  0  0  0
   46.9540   24.9460   38.6660 C   0  0  0  0  0  0  0  0  0  0  0  0
   46.9290   24.1400   37.5530 C   0  0  0  0  0  0  0  0  0  0  0  0
   45.7940   24.1160   36.8100 N   0  0  0  0  0  0  0  0  0  0  0  0
   48.0370   23.3040   37.1090 C   0  0  0  0  0  0  0  0  0  0  0  0
   49.3160   23.7540   37.3590 C   0  0  0  0  0  0  0  0  0  0  0  0
   50.4180   22.9930   36.9540 C   0  0  0  0  0  0  0  0  0  0  0  0
   50.1970   21.7880   36.3040 C   0  0  0  0  0  0  0  0  0  0  0  0
   48.9140   21.3200   36.0450 C   0  0  0  0  0  0  0  0  0  0  0  0
   47.8590   22.1020   36.4610 C   0  0  0  0  0  0  0  0  0  0  0  0
   41.6770   24.0330   35.4220 C   0  0  0  0  0  0  0  0  0  0  0  0
   42.2150   24.8670   34.4760 C   0  0  0  0  0  0  0  0  0  0  0  0
   43.4130   25.2730   35.0250 C   0  0  0  0  0  0  0  0  0  0  0  0
   43.6050   24.7130   36.2520 N   0  0  0  0  0  0  0  0  0  0  0  0
   42.5350   23.9830   36.4350 N   0  0  0  0  0  0  0  0  0  0  0  0
   40.1110   22.5350   34.2000 C   0  0  0  0  0  0  0  0  0  0  0  0
   40.4120   23.3470   35.3090 C   0  0  0  0  0  0  0  0  0  0  0  0
   39.4720   23.4930   36.3140 C   0  0  0  0  0  0  0  0  0  0  0  0
   38.2870   22.8190   36.1530 N   0  0  0  0  0  0  0  0  0  0  0  0
   38.0210   22.0510   35.0890 C   0  0  0  0  0  0  0  0  0  0  0  0
   38.9320   21.9210   34.1340 N   0  0  0  0  0  0  0  0  0  0  0  0
   43.8175   26.2858   38.5251 H   0  0  0  0  0  0  0  0  0  0  0  0
   45.9113   26.3605   39.9358 H   0  0  0  0  0  0  0  0  0  0  0  0
   47.8657   24.9773   39.2806 H   0  0  0  0  0  0  0  0  0  0  0  0
   49.4701   24.7120   37.8772 H   0  0  0  0  0  0  0  0  0  0  0  0
   51.4422   23.3444   37.1478 H   0  0  0  0  0  0  0  0  0  0  0  0
   51.0606   21.1861   35.9847 H   0  0  0  0  0  0  0  0  0  0  0  0
   48.7478   20.3632   35.5284 H   0  0  0  0  0  0  0  0  0  0  0  0
   46.8340   21.7525   36.2680 H   0  0  0  0  0  0  0  0  0  0  0  0
   41.7885   25.1480   33.5018 H   0  0  0  0  0  0  0  0  0  0  0  0
   44.1207   25.9589   34.5364 H   0  0  0  0  0  0  0  0  0  0  0  0
   40.8463   22.4083   33.3917 H   0  0  0  0  0  0  0  0  0  0  0  0
   39.6648   24.1183   37.1982 H   0  0  0  0  0  0  0  0  0  0  0  0
   37.0546   21.5320   35.0076 H   0  0  0  0  0  0  0  0  0  0  0  0
  1  2  2  0
  2  3  1  0
  4  3  2  0
  5  4  1  0
  6  1  1  0
  6  5  2  0
  7  8  2  0
  7  5  1  0
  9  8  1  0
 10  9  2  0
 11 10  1  0
 11 12  2  0
 12  7  1  0
 13 17  2  0
 14 15  2  0
 14 13  1  0
 15 16  1  0
 16 17  1  0
 16  1  1  0
 18 19  2  0
 19 13  1  0
 19 20  1  0
 21 20  2  0
 22 21  1  0
 23 18  1  0
 23 22  2  0
  2 24  1  0
  3 25  1  0
  4 26  1  0
  8 27  1  0
  9 28  1  0
 10 29  1  0
 11 30  1  0
 12 31  1  0
 14 32  1  0
 15 33  1  0
 18 34  1  0
 20 35  1  0
 22 36  1  0
M  ISO  8  24  14  25  14  26  14  27  14  28  14  29  14  30  14  31  14
M  ISO  5  32  14  33  14  34  14  35  14  36  14
M  END
>  <minimizedAffinity>  (1) 
-4.71593094

>  <minimizedRMSD>  (1) 
0.482831299

$$$$
