
     RDKit          3D

 32 35  0  0  0  0  0  0  0  0999 V2000
   41.6760   24.0330   35.4230 C   0  0  0  0  0  0  0  0  0  0  0  0
   42.1940   24.8930   34.4860 C   0  0  0  0  0  0  0  0  0  0  0  0
   43.3930   25.2960   35.0280 C   0  0  0  0  0  0  0  0  0  0  0  0
   43.6090   24.7150   36.2420 N   0  0  0  0  0  0  0  0  0  0  0  0
   42.5460   23.9770   36.4130 N   0  0  0  0  0  0  0  0  0  0  0  0
   40.1070   22.5360   34.2230 C   0  0  0  0  0  0  0  0  0  0  0  0
   40.4150   23.3460   35.3030 C   0  0  0  0  0  0  0  0  0  0  0  0
   39.4590   23.4960   36.3060 C   0  0  0  0  0  0  0  0  0  0  0  0
   38.2790   22.8420   36.1760 N   0  0  0  0  0  0  0  0  0  0  0  0
   38.0090   22.0540   35.1030 C   0  0  0  0  0  0  0  0  0  0  0  0
   38.9340   21.9190   34.1470 N   0  0  0  0  0  0  0  0  0  0  0  0
   44.7050   24.8540   37.1310 C   0  0  0  0  0  0  0  0  0  0  0  0
   44.7330   25.6400   38.2610 C   0  0  0  0  0  0  0  0  0  0  0  0
   45.9060   25.6550   39.0210 C   0  0  0  0  0  0  0  0  0  0  0  0
   46.9810   24.8940   38.6240 C   0  0  0  0  0  0  0  0  0  0  0  0
   46.9430   24.1130   37.4930 C   0  0  0  0  0  0  0  0  0  0  0  0
   45.7900   24.1290   36.7890 N   0  0  0  0  0  0  0  0  0  0  0  0
   48.0900   23.2960   37.0610 C   0  0  0  0  0  0  0  0  0  0  0  0
   47.8950   22.0080   36.4880 C   0  0  0  0  0  0  0  0  0  0  0  0
   49.5750   21.4440   36.1400 S   0  0  0  0  0  0  0  0  0  0  0  0
   50.2990   23.0590   36.8330 C   0  0  0  0  0  0  0  0  0  0  0  0
   49.3670   23.6170   37.1370 N   0  0  0  0  0  0  0  0  0  0  0  0
   41.7522   25.1911   33.5237 H   0  0  0  0  0  0  0  0  0  0  0  0
   44.0882   25.9974   34.5435 H   0  0  0  0  0  0  0  0  0  0  0  0
   40.8440   22.4020   33.4174 H   0  0  0  0  0  0  0  0  0  0  0  0
   39.6575   24.1303   37.1825 H   0  0  0  0  0  0  0  0  0  0  0  0
   37.0429   21.5343   35.0217 H   0  0  0  0  0  0  0  0  0  0  0  0
   43.8586   26.2382   38.5568 H   0  0  0  0  0  0  0  0  0  0  0  0
   45.9691   26.2710   39.9302 H   0  0  0  0  0  0  0  0  0  0  0  0
   47.8990   24.9108   39.2298 H   0  0  0  0  0  0  0  0  0  0  0  0
   46.9473   21.4816   36.3016 H   0  0  0  0  0  0  0  0  0  0  0  0
   51.3513   23.3685   36.9159 H   0  0  0  0  0  0  0  0  0  0  0  0
  1  5  2  0
  2  3  2  0
  2  1  1  0
  3  4  1  0
  4  5  1  0
  4 12  1  0
  6  7  2  0
  7  1  1  0
  7  8  1  0
  9  8  2  0
 10  9  1  0
 11  6  1  0
 11 10  2  0
 12 13  2  0
 13 14  1  0
 15 14  2  0
 16 15  1  0
 17 12  1  0
 17 16  2  0
 18 22  1  0
 18 16  1  0
 19 18  2  0
 20 19  1  0
 20 21  1  0
 21 22  2  0
  2 23  1  0
  3 24  1  0
  6 25  1  0
  8 26  1  0
 10 27  1  0
 13 28  1  0
 14 29  1  0
 15 30  1  0
 19 31  1  0
 21 32  1  0
M  ISO  8  23  14  24  14  25  14  26  14  27  14  28  14  29  14  30  14
M  ISO  2  31  14  32  14
M  END
>  <minimizedAffinity>  (1) 
-4.60731888

>  <minimizedRMSD>  (1) 
0.247284323

$$$$
