
     RDKit          3D

 29 31  0  0  0  0  0  0  0  0999 V2000
   41.6940   24.0520   35.4710 C   0  0  0  0  0  0  0  0  0  0  0  0
   42.1590   24.9970   34.5770 C   0  0  0  0  0  0  0  0  0  0  0  0
   43.3800   25.3760   35.1020 C   0  0  0  0  0  0  0  0  0  0  0  0
   43.6440   24.6980   36.2540 N   0  0  0  0  0  0  0  0  0  0  0  0
   42.5950   23.9240   36.4190 N   0  0  0  0  0  0  0  0  0  0  0  0
   40.1440   22.5480   34.2500 C   0  0  0  0  0  0  0  0  0  0  0  0
   40.4330   23.3600   35.3420 C   0  0  0  0  0  0  0  0  0  0  0  0
   39.4770   23.5090   36.3410 C   0  0  0  0  0  0  0  0  0  0  0  0
   38.3000   22.8410   36.1860 N   0  0  0  0  0  0  0  0  0  0  0  0
   38.0460   22.0550   35.1080 C   0  0  0  0  0  0  0  0  0  0  0  0
   38.9780   21.9200   34.1520 N   0  0  0  0  0  0  0  0  0  0  0  0
   44.7780   24.7870   37.1030 C   0  0  0  0  0  0  0  0  0  0  0  0
   44.8470   25.5290   38.2760 C   0  0  0  0  0  0  0  0  0  0  0  0
   46.0440   25.5050   38.9920 C   0  0  0  0  0  0  0  0  0  0  0  0
   47.1140   24.7540   38.5180 C   0  0  0  0  0  0  0  0  0  0  0  0
   47.0200   24.0300   37.3550 C   0  0  0  0  0  0  0  0  0  0  0  0
   45.8430   24.0580   36.6580 N   0  0  0  0  0  0  0  0  0  0  0  0
   48.1840   23.2360   36.8740 C   0  0  0  0  0  0  0  0  0  0  0  0
   41.6714   25.3624   33.6612 H   0  0  0  0  0  0  0  0  0  0  0  0
   44.0484   26.1240   34.6507 H   0  0  0  0  0  0  0  0  0  0  0  0
   40.8937   22.4241   33.4546 H   0  0  0  0  0  0  0  0  0  0  0  0
   39.6639   24.1413   37.2215 H   0  0  0  0  0  0  0  0  0  0  0  0
   37.0822   21.5323   35.0191 H   0  0  0  0  0  0  0  0  0  0  0  0
   43.9860   26.1160   38.6283 H   0  0  0  0  0  0  0  0  0  0  0  0
   46.1409   26.0771   39.9265 H   0  0  0  0  0  0  0  0  0  0  0  0
   48.0555   24.7396   39.0866 H   0  0  0  0  0  0  0  0  0  0  0  0
   48.7474   22.8517   37.7370 H   0  0  0  0  0  0  0  0  0  0  0  0
   47.8262   22.3929   36.2648 H   0  0  0  0  0  0  0  0  0  0  0  0
   48.8384   23.8768   36.2648 H   0  0  0  0  0  0  0  0  0  0  0  0
  1  5  2  0
  2  3  2  0
  2  1  1  0
  3  4  1  0
  4  5  1  0
  4 12  1  0
  6  7  2  0
  7  1  1  0
  7  8  1  0
  9  8  2  0
 10  9  1  0
 11  6  1  0
 11 10  2  0
 12 13  2  0
 13 14  1  0
 15 14  2  0
 16 15  1  0
 17 12  1  0
 17 16  2  0
 18 16  1  0
  2 19  1  0
  3 20  1  0
  6 21  1  0
  8 22  1  0
 10 23  1  0
 13 24  1  0
 14 25  1  0
 15 26  1  0
 18 27  1  0
 18 28  1  0
 18 29  1  0
M  ISO  8  19  14  20  14  21  14  22  14  23  14  24  14  25  14  26  14
M  ISO  3  27   8  28   8  29   8
M  END
>  <minimizedAffinity>  (1) 
-4.60102224

>  <minimizedRMSD>  (1) 
0.0559070073

$$$$
