
     RDKit          3D

 32 34  0  0  0  0  0  0  0  0999 V2000
   41.7040   24.0910   35.3980 C   0  0  0  0  0  0  0  0  0  0  0  0
   42.2090   24.9970   34.4930 C   0  0  0  0  0  0  0  0  0  0  0  0
   43.4030   25.3900   35.0550 C   0  0  0  0  0  0  0  0  0  0  0  0
   43.6300   24.7650   36.2420 N   0  0  0  0  0  0  0  0  0  0  0  0
   42.5710   23.9910   36.4010 N   0  0  0  0  0  0  0  0  0  0  0  0
   40.1930   22.5450   34.1650 C   0  0  0  0  0  0  0  0  0  0  0  0
   40.4500   23.3850   35.2610 C   0  0  0  0  0  0  0  0  0  0  0  0
   39.4660   23.5270   36.2230 C   0  0  0  0  0  0  0  0  0  0  0  0
   38.2990   22.8460   36.0590 N   0  0  0  0  0  0  0  0  0  0  0  0
   38.0810   22.0440   34.9920 C   0  0  0  0  0  0  0  0  0  0  0  0
   39.0280   21.9020   34.0590 N   0  0  0  0  0  0  0  0  0  0  0  0
   44.7290   24.8820   37.1370 C   0  0  0  0  0  0  0  0  0  0  0  0
   44.7340   25.6680   38.2840 C   0  0  0  0  0  0  0  0  0  0  0  0
   45.9000   25.6700   39.0550 C   0  0  0  0  0  0  0  0  0  0  0  0
   46.9870   24.9020   38.6540 C   0  0  0  0  0  0  0  0  0  0  0  0
   46.9460   24.1340   37.5100 C   0  0  0  0  0  0  0  0  0  0  0  0
   45.8060   24.1430   36.7720 N   0  0  0  0  0  0  0  0  0  0  0  0
   48.0910   23.3010   37.0530 C   0  0  0  0  0  0  0  0  0  0  0  0
   49.1690   23.1960   38.0830 C   0  0  0  0  0  0  0  0  0  0  0  0
   41.7633   25.3291   33.5437 H   0  0  0  0  0  0  0  0  0  0  0  0
   44.0891   26.1197   34.6002 H   0  0  0  0  0  0  0  0  0  0  0  0
   40.9592   22.4158   33.3864 H   0  0  0  0  0  0  0  0  0  0  0  0
   39.6228   24.1741   37.0986 H   0  0  0  0  0  0  0  0  0  0  0  0
   37.1252   21.5089   34.8919 H   0  0  0  0  0  0  0  0  0  0  0  0
   43.8559   26.2641   38.5730 H   0  0  0  0  0  0  0  0  0  0  0  0
   45.9569   26.2747   39.9721 H   0  0  0  0  0  0  0  0  0  0  0  0
   47.9021   24.9072   39.2644 H   0  0  0  0  0  0  0  0  0  0  0  0
   47.7226   22.2902   36.8236 H   0  0  0  0  0  0  0  0  0  0  0  0
   48.5232   23.7850   36.1648 H   0  0  0  0  0  0  0  0  0  0  0  0
   48.7221   23.2395   39.0872 H   0  0  0  0  0  0  0  0  0  0  0  0
   49.7020   22.2417   37.9599 H   0  0  0  0  0  0  0  0  0  0  0  0
   49.8762   24.0295   37.9599 H   0  0  0  0  0  0  0  0  0  0  0  0
  1  5  2  0
  2  3  2  0
  2  1  1  0
  3  4  1  0
  4  5  1  0
  4 12  1  0
  6  7  2  0
  7  1  1  0
  7  8  1  0
  9  8  2  0
 10  9  1  0
 11  6  1  0
 11 10  2  0
 12 13  2  0
 13 14  1  0
 15 14  2  0
 16 15  1  0
 17 12  1  0
 17 16  2  0
 18 16  1  0
 18 19  1  0
  2 20  1  0
  3 21  1  0
  6 22  1  0
  8 23  1  0
 10 24  1  0
 13 25  1  0
 14 26  1  0
 15 27  1  0
 18 28  1  0
 18 29  1  0
 19 30  1  0
 19 31  1  0
 19 32  1  0
M  ISO  8  20  14  21  14  22  14  23  14  24  14  25  14  26  14  27  14
M  ISO  5  28   8  29   8  30   8  31   8  32   8
M  END
>  <minimizedAffinity>  (1) 
-4.54273415

>  <minimizedRMSD>  (1) 
0.202301234

$$$$
