
     RDKit          3D

 39 42  0  0  0  0  0  0  0  0999 V2000
   44.6970   24.8830   37.1490 C   0  0  0  0  0  0  0  0  0  0  0  0
   44.7000   25.6870   38.2670 C   0  0  0  0  0  0  0  0  0  0  0  0
   45.8680   25.7090   39.0440 C   0  0  0  0  0  0  0  0  0  0  0  0
   46.9610   24.9330   38.6640 C   0  0  0  0  0  0  0  0  0  0  0  0
   46.9270   24.1410   37.5430 C   0  0  0  0  0  0  0  0  0  0  0  0
   45.7830   24.1480   36.8200 N   0  0  0  0  0  0  0  0  0  0  0  0
   41.6810   24.0430   35.4160 C   0  0  0  0  0  0  0  0  0  0  0  0
   42.2190   24.8700   34.4680 C   0  0  0  0  0  0  0  0  0  0  0  0
   43.4180   25.2790   35.0150 C   0  0  0  0  0  0  0  0  0  0  0  0
   43.6150   24.7320   36.2470 N   0  0  0  0  0  0  0  0  0  0  0  0
   42.5280   23.9990   36.4240 N   0  0  0  0  0  0  0  0  0  0  0  0
   40.1100   22.5370   34.2190 C   0  0  0  0  0  0  0  0  0  0  0  0
   40.4170   23.3580   35.3110 C   0  0  0  0  0  0  0  0  0  0  0  0
   39.4630   23.4950   36.2990 C   0  0  0  0  0  0  0  0  0  0  0  0
   38.2830   22.8310   36.1610 N   0  0  0  0  0  0  0  0  0  0  0  0
   38.0290   22.0500   35.0920 C   0  0  0  0  0  0  0  0  0  0  0  0
   38.9410   21.9080   34.1290 N   0  0  0  0  0  0  0  0  0  0  0  0
   50.1370   21.6390   36.2510 C   0  0  0  0  0  0  0  0  0  0  0  0
   50.3480   22.8440   36.8860 C   0  0  0  0  0  0  0  0  0  0  0  0
   49.3660   23.6820   37.3190 C   0  0  0  0  0  0  0  0  0  0  0  0
   48.0530   23.3190   37.1180 C   0  0  0  0  0  0  0  0  0  0  0  0
   47.8160   22.1170   36.4850 C   0  0  0  0  0  0  0  0  0  0  0  0
   48.8240   21.2750   36.0490 C   0  0  0  0  0  0  0  0  0  0  0  0
   51.3990   20.5660   35.6960 S   0  0  0  0  0  0  0  0  0  0  0  0
   50.9300   19.7960   34.4880 O   0  0  0  0  0  0  0  0  0  0  0  0
   51.5710   19.5350   36.7950 O   0  0  0  0  0  0  0  0  0  0  0  0
   43.8207   26.2887   38.5403 H   0  0  0  0  0  0  0  0  0  0  0  0
   45.9205   26.3347   39.9472 H   0  0  0  0  0  0  0  0  0  0  0  0
   47.8739   24.9554   39.2774 H   0  0  0  0  0  0  0  0  0  0  0  0
   41.7928   25.1459   33.4922 H   0  0  0  0  0  0  0  0  0  0  0  0
   44.1251   25.9603   34.5191 H   0  0  0  0  0  0  0  0  0  0  0  0
   40.8522   22.4092   33.4173 H   0  0  0  0  0  0  0  0  0  0  0  0
   39.6523   24.1272   37.1790 H   0  0  0  0  0  0  0  0  0  0  0  0
   37.0645   21.5270   35.0134 H   0  0  0  0  0  0  0  0  0  0  0  0
   51.3901   23.1525   37.0561 H   0  0  0  0  0  0  0  0  0  0  0  0
   49.6164   24.6293   37.8190 H   0  0  0  0  0  0  0  0  0  0  0  0
   46.7724   21.8119   36.3181 H   0  0  0  0  0  0  0  0  0  0  0  0
   48.5797   20.3270   35.5474 H   0  0  0  0  0  0  0  0  0  0  0  0
   52.5324   21.2760   35.3993 H   0  0  0  0  0  0  0  0  0  0  0  0
  1  2  2  0
  2  3  1  0
  4  3  2  0
  5  4  1  0
  6  1  1  0
  6  5  2  0
  7 11  2  0
  8  9  2  0
  8  7  1  0
  9 10  1  0
 10 11  1  0
 10  1  1  0
 12 13  2  0
 13  7  1  0
 13 14  1  0
 15 14  2  0
 16 15  1  0
 17 12  1  0
 17 16  2  0
 18 19  2  0
 19 20  1  0
 21 20  2  0
 21  5  1  0
 22 21  1  0
 23 18  1  0
 23 22  2  0
 24 18  1  0
 24 26  2  0
 25 24  2  0
  2 27  1  0
  3 28  1  0
  4 29  1  0
  8 30  1  0
  9 31  1  0
 12 32  1  0
 14 33  1  0
 16 34  1  0
 19 35  1  0
 20 36  1  0
 22 37  1  0
 23 38  1  0
 24 39  1  0
M  ISO  8  27  14  28  14  29  14  30  14  31  14  32  14  33  14  34  14
M  ISO  5  35  14  36  14  37  14  38  14  39  11
M  END
>  <minimizedAffinity>  (1) 
-4.520473

>  <minimizedRMSD>  (1) 
0.41406557

$$$$
