
     RDKit          3D

 28 30  0  0  0  0  0  0  0  0999 V2000
   41.6370   23.9510   35.4610 C   0  0  0  0  0  0  0  0  0  0  0  0
   42.1790   24.7440   34.4700 C   0  0  0  0  0  0  0  0  0  0  0  0
   43.3920   25.1540   34.9870 C   0  0  0  0  0  0  0  0  0  0  0  0
   43.5880   24.6420   36.2300 N   0  0  0  0  0  0  0  0  0  0  0  0
   42.5000   23.9270   36.4640 N   0  0  0  0  0  0  0  0  0  0  0  0
   39.9710   22.5660   34.2610 C   0  0  0  0  0  0  0  0  0  0  0  0
   40.3660   23.2880   35.3890 C   0  0  0  0  0  0  0  0  0  0  0  0
   39.4920   23.3500   36.4500 C   0  0  0  0  0  0  0  0  0  0  0  0
   38.2950   22.7080   36.3460 N   0  0  0  0  0  0  0  0  0  0  0  0
   37.9510   22.0160   35.2300 C   0  0  0  0  0  0  0  0  0  0  0  0
   38.7950   21.9580   34.2090 N   0  0  0  0  0  0  0  0  0  0  0  0
   44.6880   24.8070   37.1130 C   0  0  0  0  0  0  0  0  0  0  0  0
   44.6990   25.6100   38.2360 C   0  0  0  0  0  0  0  0  0  0  0  0
   45.8700   25.6620   39.0060 C   0  0  0  0  0  0  0  0  0  0  0  0
   46.9590   24.9190   38.6160 C   0  0  0  0  0  0  0  0  0  0  0  0
   46.9370   24.1220   37.4960 C   0  0  0  0  0  0  0  0  0  0  0  0
   45.7860   24.0960   36.7760 N   0  0  0  0  0  0  0  0  0  0  0  0
   48.1040   23.3320   37.0880 C   0  0  0  0  0  0  0  0  0  0  0  0
   48.9660   23.0690   37.9540 O   0  0  0  0  0  0  0  0  0  0  0  0
   41.7437   24.9929   33.4909 H   0  0  0  0  0  0  0  0  0  0  0  0
   44.1044   25.8078   34.4625 H   0  0  0  0  0  0  0  0  0  0  0  0
   40.6500   22.5007   33.3980 H   0  0  0  0  0  0  0  0  0  0  0  0
   39.7542   23.9059   37.3623 H   0  0  0  0  0  0  0  0  0  0  0  0
   36.9778   21.5064   35.1730 H   0  0  0  0  0  0  0  0  0  0  0  0
   43.8114   26.1945   38.5198 H   0  0  0  0  0  0  0  0  0  0  0  0
   45.9165   26.2883   39.9091 H   0  0  0  0  0  0  0  0  0  0  0  0
   47.8776   24.9636   39.2195 H   0  0  0  0  0  0  0  0  0  0  0  0
   48.2169   22.9818   36.0514 H   0  0  0  0  0  0  0  0  0  0  0  0
  1  5  2  0
  2  3  2  0
  2  1  1  0
  3  4  1  0
  4  5  1  0
  4 12  1  0
  6  7  2  0
  7  1  1  0
  7  8  1  0
  9  8  2  0
 10  9  1  0
 11  6  1  0
 11 10  2  0
 12 13  2  0
 13 14  1  0
 15 14  2  0
 16 15  1  0
 17 12  1  0
 17 16  2  0
 18 16  1  0
 18 19  2  0
  2 20  1  0
  3 21  1  0
  6 22  1  0
  8 23  1  0
 10 24  1  0
 13 25  1  0
 14 26  1  0
 15 27  1  0
 18 28  1  0
M  ISO  8  20  14  21  14  22  14  23  14  24  14  25  14  26  14  27  14
M  ISO  1  28   6
M  END
>  <minimizedAffinity>  (1) 
-4.46191263

>  <minimizedRMSD>  (1) 
0.335061878

$$$$
