
     RDKit          3D

 31 34  0  0  0  0  0  0  0  0999 V2000
   42.3930   23.6560   34.3070 C   0  0  0  0  0  0  0  0  0  0  0  0
   41.6510   23.8420   35.4990 C   0  0  0  0  0  0  0  0  0  0  0  0
   40.2740   23.5620   35.4170 C   0  0  0  0  0  0  0  0  0  0  0  0
   39.7370   23.1400   34.2400 N   0  0  0  0  0  0  0  0  0  0  0  0
   40.5080   22.9820   33.1300 C   0  0  0  0  0  0  0  0  0  0  0  0
   41.8330   23.2410   33.1740 N   0  0  0  0  0  0  0  0  0  0  0  0
   39.4410   23.7230   36.5740 N   0  0  0  0  0  0  0  0  0  0  0  0
   39.5420   22.8940   37.6180 C   0  0  0  0  0  0  0  0  0  0  0  0
   38.6060   23.3440   38.5210 C   0  0  0  0  0  0  0  0  0  0  0  0
   37.9660   24.4210   38.0120 N   0  0  0  0  0  0  0  0  0  0  0  0
   38.4890   24.6660   36.7810 C   0  0  0  0  0  0  0  0  0  0  0  0
   38.1440   25.6930   35.8540 N   0  0  0  0  0  0  0  0  0  0  0  0
   38.0560   27.0250   35.9490 C   0  0  0  0  0  0  0  0  0  0  0  0
   37.6810   27.5220   34.7540 N   0  0  0  0  0  0  0  0  0  0  0  0
   37.5360   26.4970   33.9130 C   0  0  0  0  0  0  0  0  0  0  0  0
   37.1650   26.4480   32.5650 C   0  0  0  0  0  0  0  0  0  0  0  0
   36.9010   27.5090   31.9450 O   0  0  0  0  0  0  0  0  0  0  0  0
   37.0760   25.2770   31.8830 N   0  0  0  0  0  0  0  0  0  0  0  0
   37.3710   24.1520   32.5960 C   0  0  0  0  0  0  0  0  0  0  0  0
   37.2830   22.9140   31.9010 N   0  0  0  0  0  0  0  0  0  0  0  0
   37.7300   24.1730   33.8940 N   0  0  0  0  0  0  0  0  0  0  0  0
   37.8250   25.3270   34.5940 C   0  0  0  0  0  0  0  0  0  0  0  0
   43.4734   23.8626   34.3186 H   0  0  0  0  0  0  0  0  0  0  0  0
   42.1222   24.1845   36.4321 H   0  0  0  0  0  0  0  0  0  0  0  0
   40.0491   22.6410   32.1903 H   0  0  0  0  0  0  0  0  0  0  0  0
   40.2245   22.0387   37.7307 H   0  0  0  0  0  0  0  0  0  0  0  0
   38.4087   22.8961   39.5061 H   0  0  0  0  0  0  0  0  0  0  0  0
   38.2568   27.6170   36.8541 H   0  0  0  0  0  0  0  0  0  0  0  0
   36.8031   25.2406   30.8905 H   0  0  0  0  0  0  0  0  0  0  0  0
   37.4947   22.0326   32.3901 H   0  0  0  0  0  0  0  0  0  0  0  0
   37.0075   22.8989   30.9086 H   0  0  0  0  0  0  0  0  0  0  0  0
  1  2  2  0
  3  2  1  0
  3  7  1  0
  4  3  2  0
  5  6  2  0
  5  4  1  0
  6  1  1  0
  7 11  1  0
  7  8  1  0
  8  9  2  0
 10  9  1  0
 11 10  2  0
 12 13  1  0
 12 11  1  0
 14 13  2  0
 15 22  2  0
 15 14  1  0
 16 15  1  0
 17 16  2  0
 18 16  1  0
 18 19  1  0
 19 21  2  0
 20 19  1  0
 21 22  1  0
 22 12  1  0
  1 23  1  0
  2 24  1  0
  5 25  1  0
  8 26  1  0
  9 27  1  0
 13 28  1  0
 18 29  1  0
 20 30  1  0
 20 31  1  0
M  ISO  7  23  14  24  14  25  14  26  14  27  14  28  14  29   9
M  END
>  <minimizedAffinity>  (1) 
-5.3477087

>  <minimizedRMSD>  (1) 
4.44433594

$$$$
