
     RDKit          3D

 31 34  0  0  0  0  0  0  0  0999 V2000
   41.6770   21.4840   37.3970 C   0  0  0  0  0  0  0  0  0  0  0  0
   41.6200   22.8290   36.9640 C   0  0  0  0  0  0  0  0  0  0  0  0
   42.1740   23.0940   35.6990 C   0  0  0  0  0  0  0  0  0  0  0  0
   42.7070   22.0740   35.0050 N   0  0  0  0  0  0  0  0  0  0  0  0
   42.7440   20.8070   35.4490 C   0  0  0  0  0  0  0  0  0  0  0  0
   42.2190   20.5250   36.6610 N   0  0  0  0  0  0  0  0  0  0  0  0
   42.1720   24.4410   35.1710 N   0  0  0  0  0  0  0  0  0  0  0  0
   41.0330   25.0260   34.8020 C   0  0  0  0  0  0  0  0  0  0  0  0
   41.3780   26.2640   34.3680 C   0  0  0  0  0  0  0  0  0  0  0  0
   42.6950   26.3950   34.4820 N   0  0  0  0  0  0  0  0  0  0  0  0
   43.2300   25.2460   34.9920 C   0  0  0  0  0  0  0  0  0  0  0  0
   44.5570   24.7700   35.3440 C   0  0  0  0  0  0  0  0  0  0  0  0
   45.3720   24.1050   34.5040 N   0  0  0  0  0  0  0  0  0  0  0  0
   46.5950   23.6600   34.8090 C   0  0  0  0  0  0  0  0  0  0  0  0
   47.1350   23.8400   36.0160 N   0  0  0  0  0  0  0  0  0  0  0  0
   46.4020   24.4930   36.9280 C   0  0  0  0  0  0  0  0  0  0  0  0
   46.9410   24.6900   38.1780 C   0  0  0  0  0  0  0  0  0  0  0  0
   46.2360   25.3540   39.1600 C   0  0  0  0  0  0  0  0  0  0  0  0
   44.9560   25.8210   38.8420 C   0  0  0  0  0  0  0  0  0  0  0  0
   44.4780   25.5930   37.5820 C   0  0  0  0  0  0  0  0  0  0  0  0
   45.1460   24.9360   36.5740 C   0  0  0  0  0  0  0  0  0  0  0  0
   41.2564   21.2248   38.3798 H   0  0  0  0  0  0  0  0  0  0  0  0
   41.1691   23.6209   37.5801 H   0  0  0  0  0  0  0  0  0  0  0  0
   43.1943   20.0124   34.8359 H   0  0  0  0  0  0  0  0  0  0  0  0
   40.0220   24.5942   34.8412 H   0  0  0  0  0  0  0  0  0  0  0  0
   40.6854   27.0289   33.9867 H   0  0  0  0  0  0  0  0  0  0  0  0
   47.1750   23.1283   34.0403 H   0  0  0  0  0  0  0  0  0  0  0  0
   47.9503   24.3120   38.3980 H   0  0  0  0  0  0  0  0  0  0  0  0
   46.6659   25.5112   40.1602 H   0  0  0  0  0  0  0  0  0  0  0  0
   44.3501   26.3578   39.5868 H   0  0  0  0  0  0  0  0  0  0  0  0
   43.4695   25.9681   37.3532 H   0  0  0  0  0  0  0  0  0  0  0  0
  2  1  2  0
  3  2  1  0
  4  5  1  0
  4  3  2  0
  5  6  2  0
  6  1  1  0
  7  3  1  0
  8  7  1  0
  9 10  1  0
  9  8  2  0
 10 11  2  0
 11  7  1  0
 11 12  1  0
 12 21  2  0
 13 14  2  0
 13 12  1  0
 14 15  1  0
 15 16  2  0
 16 17  1  0
 17 18  2  0
 19 18  1  0
 20 19  2  0
 21 16  1  0
 21 20  1  0
  1 22  1  0
  2 23  1  0
  5 24  1  0
  8 25  1  0
  9 26  1  0
 14 27  1  0
 17 28  1  0
 18 29  1  0
 19 30  1  0
 20 31  1  0
M  ISO  8  22  14  23  14  24  14  25  14  26  14  27  14  28  14  29  14
M  ISO  2  30  14  31  14
M  END
>  <minimizedAffinity>  (1) 
-5.08863735

>  <minimizedRMSD>  (1) 
2.96570492

$$$$
