
     RDKit          3D

 30 32  0  0  0  0  0  0  0  0999 V2000
   41.9600   21.1480   37.4740 C   0  0  0  0  0  0  0  0  0  0  0  0
   41.0410   22.1900   37.3030 C   0  0  0  0  0  0  0  0  0  0  0  0
   40.7870   22.6290   35.9970 C   0  0  0  0  0  0  0  0  0  0  0  0
   41.4470   22.0160   34.9950 N   0  0  0  0  0  0  0  0  0  0  0  0
   42.3290   21.0140   35.1770 C   0  0  0  0  0  0  0  0  0  0  0  0
   42.5830   20.5820   36.4270 N   0  0  0  0  0  0  0  0  0  0  0  0
   39.8640   23.6860   35.7360 N   0  0  0  0  0  0  0  0  0  0  0  0
   38.5360   23.5020   35.9270 C   0  0  0  0  0  0  0  0  0  0  0  0
   37.9570   24.6870   35.5890 C   0  0  0  0  0  0  0  0  0  0  0  0
   38.9190   25.5610   35.2040 N   0  0  0  0  0  0  0  0  0  0  0  0
   40.1210   24.9230   35.2980 C   0  0  0  0  0  0  0  0  0  0  0  0
   41.3970   25.4710   34.9900 N   0  0  0  0  0  0  0  0  0  0  0  0
   42.6160   24.9610   35.2420 C   0  0  0  0  0  0  0  0  0  0  0  0
   43.7450   25.6560   34.8570 C   0  0  0  0  0  0  0  0  0  0  0  0
   45.0470   24.9900   35.1900 C   0  0  0  0  0  0  0  0  0  0  0  0
   43.6880   26.8710   34.2160 C   0  0  0  0  0  0  0  0  0  0  0  0
   44.7630   27.4610   33.8880 O   0  0  0  0  0  0  0  0  0  0  0  0
   42.4520   27.3520   33.9800 N   0  0  0  0  0  0  0  0  0  0  0  0
   41.3550   26.6780   34.3520 C   0  0  0  0  0  0  0  0  0  0  0  0
   40.2470   27.2450   34.0680 O   0  0  0  0  0  0  0  0  0  0  0  0
   42.1770   20.7842   38.4892 H   0  0  0  0  0  0  0  0  0  0  0  0
   40.5351   22.6488   38.1653 H   0  0  0  0  0  0  0  0  0  0  0  0
   42.8354   20.5545   34.3153 H   0  0  0  0  0  0  0  0  0  0  0  0
   38.0326   22.5899   36.2799 H   0  0  0  0  0  0  0  0  0  0  0  0
   36.8786   24.9014   35.6230 H   0  0  0  0  0  0  0  0  0  0  0  0
   42.7130   23.9922   35.7538 H   0  0  0  0  0  0  0  0  0  0  0  0
   45.1603   24.9320   36.2826 H   0  0  0  0  0  0  0  0  0  0  0  0
   45.0588   23.9752   34.7658 H   0  0  0  0  0  0  0  0  0  0  0  0
   45.8768   25.5744   34.7658 H   0  0  0  0  0  0  0  0  0  0  0  0
   42.3477   28.2587   33.5026 H   0  0  0  0  0  0  0  0  0  0  0  0
  2  1  2  0
  3  2  1  0
  4  5  1  0
  4  3  2  0
  5  6  2  0
  6  1  1  0
  7  8  1  0
  7  3  1  0
  9  8  2  0
 10 11  2  0
 10  9  1  0
 11  7  1  0
 12 13  1  0
 12 11  1  0
 14 15  1  0
 14 13  2  0
 16 14  1  0
 17 16  2  0
 18 16  1  0
 18 19  1  0
 19 12  1  0
 20 19  2  0
  1 21  1  0
  2 22  1  0
  5 23  1  0
  8 24  1  0
  9 25  1  0
 13 26  1  0
 15 27  1  0
 15 28  1  0
 15 29  1  0
 18 30  1  0
M  ISO  8  21  14  22  14  23  14  24  14  25  14  26  14  27   8  28   8
M  ISO  2  29   8  30   9
M  END
>  <minimizedAffinity>  (1) 
-4.95363617

>  <minimizedRMSD>  (1) 
0.270435035

$$$$
