
     RDKit          3D

 30 33  0  0  0  0  0  0  0  0999 V2000
   43.0460   22.8110   35.8150 C   0  0  0  0  0  0  0  0  0  0  0  0
   41.9500   23.3050   36.5300 C   0  0  0  0  0  0  0  0  0  0  0  0
   40.6710   22.9330   36.1240 C   0  0  0  0  0  0  0  0  0  0  0  0
   40.5500   22.1060   35.0530 N   0  0  0  0  0  0  0  0  0  0  0  0
   41.6290   21.6430   34.3800 C   0  0  0  0  0  0  0  0  0  0  0  0
   42.8700   21.9980   34.7650 N   0  0  0  0  0  0  0  0  0  0  0  0
   39.5100   23.4040   36.8120 N   0  0  0  0  0  0  0  0  0  0  0  0
   39.2300   22.9700   38.0660 C   0  0  0  0  0  0  0  0  0  0  0  0
   38.0740   23.6070   38.4160 C   0  0  0  0  0  0  0  0  0  0  0  0
   37.6780   24.3960   37.3990 N   0  0  0  0  0  0  0  0  0  0  0  0
   38.5790   24.2700   36.3880 C   0  0  0  0  0  0  0  0  0  0  0  0
   38.5500   24.9230   35.1280 N   0  0  0  0  0  0  0  0  0  0  0  0
   39.0240   26.1890   35.0100 C   0  0  0  0  0  0  0  0  0  0  0  0
   38.9020   26.6150   33.7290 N   0  0  0  0  0  0  0  0  0  0  0  0
   38.3430   25.5870   33.0610 C   0  0  0  0  0  0  0  0  0  0  0  0
   37.9720   25.4100   31.7390 C   0  0  0  0  0  0  0  0  0  0  0  0
   37.4270   24.2380   31.3830 N   0  0  0  0  0  0  0  0  0  0  0  0
   37.2200   23.2200   32.2440 C   0  0  0  0  0  0  0  0  0  0  0  0
   37.5730   23.3560   33.5550 N   0  0  0  0  0  0  0  0  0  0  0  0
   38.1240   24.5350   33.9280 C   0  0  0  0  0  0  0  0  0  0  0  0
   38.1840   26.4750   30.8190 N   0  0  0  0  0  0  0  0  0  0  0  0
   44.0648   23.0935   36.1186 H   0  0  0  0  0  0  0  0  0  0  0  0
   42.0950   23.9717   37.3928 H   0  0  0  0  0  0  0  0  0  0  0  0
   41.4922   20.9753   33.5166 H   0  0  0  0  0  0  0  0  0  0  0  0
   39.8098   22.2576   38.6713 H   0  0  0  0  0  0  0  0  0  0  0  0
   37.5495   23.4937   39.3762 H   0  0  0  0  0  0  0  0  0  0  0  0
   39.4459   26.7831   35.8340 H   0  0  0  0  0  0  0  0  0  0  0  0
   36.7675   22.2821   31.8897 H   0  0  0  0  0  0  0  0  0  0  0  0
   37.9149   26.3634   29.8311 H   0  0  0  0  0  0  0  0  0  0  0  0
   38.6065   27.3574   31.1411 H   0  0  0  0  0  0  0  0  0  0  0  0
  1  2  2  0
  3  2  1  0
  3  7  1  0
  4  3  2  0
  5  6  2  0
  5  4  1  0
  6  1  1  0
  7  8  1  0
  8  9  2  0
 10  9  1  0
 11  7  1  0
 11 10  2  0
 12 11  1  0
 13 12  1  0
 14 13  2  0
 15 14  1  0
 15 20  2  0
 16 15  1  0
 17 16  2  0
 17 18  1  0
 18 19  2  0
 19 20  1  0
 20 12  1  0
 21 16  1  0
  1 22  1  0
  2 23  1  0
  5 24  1  0
  8 25  1  0
  9 26  1  0
 13 27  1  0
 18 28  1  0
 21 29  1  0
 21 30  1  0
M  ISO  7  22  14  23  14  24  14  25  14  26  14  27  14  28  14
M  END
>  <minimizedAffinity>  (1) 
-4.90292835

>  <minimizedRMSD>  (1) 
3.79495263

$$$$
