
     RDKit          3D

 27 29  0  0  0  0  0  0  0  0999 V2000
   41.2020   21.8370   37.4610 C   0  0  0  0  0  0  0  0  0  0  0  0
   41.4690   23.0640   36.8110 C   0  0  0  0  0  0  0  0  0  0  0  0
   42.6850   23.1430   36.1110 C   0  0  0  0  0  0  0  0  0  0  0  0
   43.5010   22.0700   36.1050 N   0  0  0  0  0  0  0  0  0  0  0  0
   43.2070   20.9170   36.7390 C   0  0  0  0  0  0  0  0  0  0  0  0
   42.0460   20.8170   37.4190 N   0  0  0  0  0  0  0  0  0  0  0  0
   43.0410   24.3490   35.4200 N   0  0  0  0  0  0  0  0  0  0  0  0
   42.3920   24.7360   34.3190 C   0  0  0  0  0  0  0  0  0  0  0  0
   42.9890   25.9050   33.9410 C   0  0  0  0  0  0  0  0  0  0  0  0
   43.9780   26.2050   34.8050 N   0  0  0  0  0  0  0  0  0  0  0  0
   44.0150   25.2240   35.7420 C   0  0  0  0  0  0  0  0  0  0  0  0
   44.9230   25.1550   36.8520 C   0  0  0  0  0  0  0  0  0  0  0  0
   46.1280   24.4760   36.6340 C   0  0  0  0  0  0  0  0  0  0  0  0
   47.1030   24.3300   37.6190 C   0  0  0  0  0  0  0  0  0  0  0  0
   46.8570   24.8800   38.8510 C   0  0  0  0  0  0  0  0  0  0  0  0
   45.6910   25.5530   39.1070 C   0  0  0  0  0  0  0  0  0  0  0  0
   44.7470   25.6800   38.1120 C   0  0  0  0  0  0  0  0  0  0  0  0
   40.2615   21.7257   38.0205 H   0  0  0  0  0  0  0  0  0  0  0  0
   40.7652   23.9084   36.8510 H   0  0  0  0  0  0  0  0  0  0  0  0
   43.9054   20.0679   36.7023 H   0  0  0  0  0  0  0  0  0  0  0  0
   41.5552   24.2229   33.8224 H   0  0  0  0  0  0  0  0  0  0  0  0
   42.7058   26.5084   33.0660 H   0  0  0  0  0  0  0  0  0  0  0  0
   46.3132   24.0387   35.6418 H   0  0  0  0  0  0  0  0  0  0  0  0
   48.0399   23.7909   37.4149 H   0  0  0  0  0  0  0  0  0  0  0  0
   47.6088   24.7792   39.6476 H   0  0  0  0  0  0  0  0  0  0  0  0
   45.5101   25.9889   40.1006 H   0  0  0  0  0  0  0  0  0  0  0  0
   43.8159   26.2223   38.3331 H   0  0  0  0  0  0  0  0  0  0  0  0
  2  1  2  0
  3  2  1  0
  4  3  2  0
  4  5  1  0
  5  6  2  0
  6  1  1  0
  7 11  1  0
  7  3  1  0
  8  7  1  0
  9  8  2  0
  9 10  1  0
 10 11  2  0
 11 12  1  0
 12 17  1  0
 13 12  2  0
 13 14  1  0
 14 15  2  0
 15 16  1  0
 17 16  2  0
  1 18  1  0
  2 19  1  0
  5 20  1  0
  8 21  1  0
  9 22  1  0
 13 23  1  0
 14 24  1  0
 15 25  1  0
 16 26  1  0
 17 27  1  0
M  ISO  8  18  14  19  14  20  14  21  14  22  14  23  14  24  14  25  14
M  ISO  2  26  14  27  14
M  END
>  <minimizedAffinity>  (1) 
-4.89916468

>  <minimizedRMSD>  (1) 
4.04298544

$$$$
