
     RDKit          3D

 31 34  0  0  0  0  0  0  0  0999 V2000
   41.8040   21.2730   37.4670 C   0  0  0  0  0  0  0  0  0  0  0  0
   41.5790   22.6080   37.0730 C   0  0  0  0  0  0  0  0  0  0  0  0
   42.0370   22.9810   35.7930 C   0  0  0  0  0  0  0  0  0  0  0  0
   42.6560   22.0420   35.0320 N   0  0  0  0  0  0  0  0  0  0  0  0
   42.8560   20.7810   35.4330 C   0  0  0  0  0  0  0  0  0  0  0  0
   42.4260   20.3960   36.6580 N   0  0  0  0  0  0  0  0  0  0  0  0
   41.8530   24.3160   35.3160 N   0  0  0  0  0  0  0  0  0  0  0  0
   40.6220   24.7720   35.0080 C   0  0  0  0  0  0  0  0  0  0  0  0
   40.8050   26.0540   34.5910 C   0  0  0  0  0  0  0  0  0  0  0  0
   42.1030   26.3470   34.6510 N   0  0  0  0  0  0  0  0  0  0  0  0
   42.7870   25.2490   35.1120 C   0  0  0  0  0  0  0  0  0  0  0  0
   44.2240   25.1990   35.3100 C   0  0  0  0  0  0  0  0  0  0  0  0
   45.2910   25.0290   34.4840 C   0  0  0  0  0  0  0  0  0  0  0  0
   46.4650   25.0650   35.1360 N   0  0  0  0  0  0  0  0  0  0  0  0
   46.2020   25.2600   36.4250 C   0  0  0  0  0  0  0  0  0  0  0  0
   47.0830   25.3670   37.4800 C   0  0  0  0  0  0  0  0  0  0  0  0
   46.5380   25.5700   38.7310 C   0  0  0  0  0  0  0  0  0  0  0  0
   45.1810   25.6670   38.9440 C   0  0  0  0  0  0  0  0  0  0  0  0
   44.3880   25.5500   37.8420 C   0  0  0  0  0  0  0  0  0  0  0  0
   44.8440   25.3430   36.5460 C   0  0  0  0  0  0  0  0  0  0  0  0
   41.4632   20.9408   38.4587 H   0  0  0  0  0  0  0  0  0  0  0  0
   41.0698   23.3251   37.7337 H   0  0  0  0  0  0  0  0  0  0  0  0
   43.3654   20.0633   34.7731 H   0  0  0  0  0  0  0  0  0  0  0  0
   39.6711   24.2236   35.0789 H   0  0  0  0  0  0  0  0  0  0  0  0
   40.0101   26.7376   34.2583 H   0  0  0  0  0  0  0  0  0  0  0  0
   45.2022   24.8781   33.3980 H   0  0  0  0  0  0  0  0  0  0  0  0
   47.3989   24.9606   34.7143 H   0  0  0  0  0  0  0  0  0  0  0  0
   48.1704   25.2939   37.3311 H   0  0  0  0  0  0  0  0  0  0  0  0
   47.2150   25.6580   39.5935 H   0  0  0  0  0  0  0  0  0  0  0  0
   44.7607   25.8298   39.9474 H   0  0  0  0  0  0  0  0  0  0  0  0
   43.3006   25.6254   37.9903 H   0  0  0  0  0  0  0  0  0  0  0  0
  2  1  2  0
  3  2  1  0
  4  5  1  0
  4  3  2  0
  5  6  2  0
  6  1  1  0
  7  3  1  0
  8  7  1  0
  9 10  1  0
  9  8  2  0
 10 11  2  0
 11 12  1  0
 11  7  1  0
 12 20  1  0
 13 14  1  0
 13 12  2  0
 14 15  1  0
 15 20  2  0
 15 16  1  0
 16 17  2  0
 17 18  1  0
 19 18  2  0
 20 19  1  0
  1 21  1  0
  2 22  1  0
  5 23  1  0
  8 24  1  0
  9 25  1  0
 13 26  1  0
 14 27  1  0
 16 28  1  0
 17 29  1  0
 18 30  1  0
 19 31  1  0
M  ISO  8  21  14  22  14  23  14  24  14  25  14  26  14  27   9  28  14
M  ISO  3  29  14  30  14  31  14
M  END
>  <minimizedAffinity>  (1) 
-4.84931707

>  <minimizedRMSD>  (1) 
2.64953494

$$$$
