
     RDKit          3D

 27 29  0  0  0  0  0  0  0  0999 V2000
   41.4600   21.6260   37.4220 C   0  0  0  0  0  0  0  0  0  0  0  0
   41.6860   22.8860   36.8380 C   0  0  0  0  0  0  0  0  0  0  0  0
   42.8420   23.0370   36.0520 C   0  0  0  0  0  0  0  0  0  0  0  0
   43.6690   21.9710   35.8990 N   0  0  0  0  0  0  0  0  0  0  0  0
   43.4070   20.7760   36.4830 C   0  0  0  0  0  0  0  0  0  0  0  0
   42.3020   20.6110   37.2410 N   0  0  0  0  0  0  0  0  0  0  0  0
   43.1490   24.2840   35.4230 N   0  0  0  0  0  0  0  0  0  0  0  0
   42.4060   24.7150   34.3800 C   0  0  0  0  0  0  0  0  0  0  0  0
   42.9710   25.9220   34.0300 C   0  0  0  0  0  0  0  0  0  0  0  0
   44.0130   26.1840   34.8500 N   0  0  0  0  0  0  0  0  0  0  0  0
   44.1200   25.1540   35.7200 C   0  0  0  0  0  0  0  0  0  0  0  0
   45.1080   25.0190   36.7820 C   0  0  0  0  0  0  0  0  0  0  0  0
   44.7070   25.6980   37.9360 C   0  0  0  0  0  0  0  0  0  0  0  0
   45.4860   25.7120   39.0790 C   0  0  0  0  0  0  0  0  0  0  0  0
   46.6910   25.0280   39.0550 C   0  0  0  0  0  0  0  0  0  0  0  0
   47.0920   24.3570   37.9190 C   0  0  0  0  0  0  0  0  0  0  0  0
   46.3100   24.3470   36.7830 C   0  0  0  0  0  0  0  0  0  0  0  0
   40.5651   21.4759   38.0437 H   0  0  0  0  0  0  0  0  0  0  0  0
   40.9856   23.7204   36.9904 H   0  0  0  0  0  0  0  0  0  0  0  0
   44.1001   19.9342   36.3382 H   0  0  0  0  0  0  0  0  0  0  0  0
   41.5438   24.2147   33.9148 H   0  0  0  0  0  0  0  0  0  0  0  0
   42.6276   26.5711   33.2110 H   0  0  0  0  0  0  0  0  0  0  0  0
   43.7471   26.2352   37.9353 H   0  0  0  0  0  0  0  0  0  0  0  0
   45.1585   26.2503   39.9806 H   0  0  0  0  0  0  0  0  0  0  0  0
   47.3323   25.0203   39.9487 H   0  0  0  0  0  0  0  0  0  0  0  0
   48.0522   23.8204   37.9189 H   0  0  0  0  0  0  0  0  0  0  0  0
   46.6438   23.8066   35.8849 H   0  0  0  0  0  0  0  0  0  0  0  0
  2  1  2  0
  3  2  1  0
  4  3  2  0
  4  5  1  0
  5  6  2  0
  6  1  1  0
  7 11  1  0
  7  3  1  0
  8  7  1  0
  9  8  2  0
  9 10  1  0
 10 11  2  0
 11 12  1  0
 12 17  1  0
 12 13  2  0
 13 14  1  0
 15 14  2  0
 16 15  1  0
 17 16  2  0
  1 18  1  0
  2 19  1  0
  5 20  1  0
  8 21  1  0
  9 22  1  0
 13 23  1  0
 14 24  1  0
 15 25  1  0
 16 26  1  0
 17 27  1  0
M  ISO  8  18  14  19  14  20  14  21  14  22  14  23  14  24  14  25  14
M  ISO  2  26  14  27  14
M  END
>  <minimizedAffinity>  (1) 
-4.82633209

>  <minimizedRMSD>  (1) 
4.03922176

$$$$
