
     RDKit          3D

 29 31  0  0  0  0  0  0  0  0999 V2000
   42.4660   21.4950   36.8300 C   0  0  0  0  0  0  0  0  0  0  0  0
   41.3600   22.3080   37.1500 C   0  0  0  0  0  0  0  0  0  0  0  0
   40.4890   22.6410   36.1000 C   0  0  0  0  0  0  0  0  0  0  0  0
   40.7690   22.1640   34.8730 N   0  0  0  0  0  0  0  0  0  0  0  0
   41.8270   21.3890   34.5790 C   0  0  0  0  0  0  0  0  0  0  0  0
   42.6830   21.0520   35.5780 N   0  0  0  0  0  0  0  0  0  0  0  0
   39.3440   23.4580   36.3250 N   0  0  0  0  0  0  0  0  0  0  0  0
   38.2870   22.9770   37.0240 C   0  0  0  0  0  0  0  0  0  0  0  0
   37.3830   24.0010   37.0500 C   0  0  0  0  0  0  0  0  0  0  0  0
   37.8870   25.0490   36.3900 N   0  0  0  0  0  0  0  0  0  0  0  0
   39.1230   24.7150   35.9300 C   0  0  0  0  0  0  0  0  0  0  0  0
   39.9910   25.5540   35.1790 N   0  0  0  0  0  0  0  0  0  0  0  0
   39.7300   26.9180   34.7690 C   0  0  0  0  0  0  0  0  0  0  0  0
   40.7480   27.1920   33.6520 C   0  0  0  0  0  0  0  0  0  0  0  0
   41.9440   26.4500   34.2130 C   0  0  0  0  0  0  0  0  0  0  0  0
   41.3010   25.1690   34.6930 C   0  0  0  0  0  0  0  0  0  0  0  0
   43.1716   21.2148   37.6260 H   0  0  0  0  0  0  0  0  0  0  0  0
   41.1869   22.6655   38.1758 H   0  0  0  0  0  0  0  0  0  0  0  0
   41.9959   21.0353   33.5512 H   0  0  0  0  0  0  0  0  0  0  0  0
   38.1802   21.9785   37.4730 H   0  0  0  0  0  0  0  0  0  0  0  0
   36.3970   23.9685   37.5366 H   0  0  0  0  0  0  0  0  0  0  0  0
   38.7022   27.0191   34.3903 H   0  0  0  0  0  0  0  0  0  0  0  0
   39.8266   27.6286   35.6031 H   0  0  0  0  0  0  0  0  0  0  0  0
   40.9500   28.2671   33.5361 H   0  0  0  0  0  0  0  0  0  0  0  0
   40.4334   26.8784   32.6457 H   0  0  0  0  0  0  0  0  0  0  0  0
   42.6977   26.2554   33.4358 H   0  0  0  0  0  0  0  0  0  0  0  0
   42.4889   27.0002   34.9943 H   0  0  0  0  0  0  0  0  0  0  0  0
   41.2084   24.4511   33.8647 H   0  0  0  0  0  0  0  0  0  0  0  0
   41.8996   24.6791   35.4751 H   0  0  0  0  0  0  0  0  0  0  0  0
  1  2  2  0
  3  7  1  0
  3  2  1  0
  4  3  2  0
  5  4  1  0
  5  6  2  0
  6  1  1  0
  7  8  1  0
  8  9  2  0
 10  9  1  0
 11  7  1  0
 11 10  2  0
 12 11  1  0
 13 12  1  0
 14 15  1  0
 14 13  1  0
 15 16  1  0
 16 12  1  0
  1 17  1  0
  2 18  1  0
  5 19  1  0
  8 20  1  0
  9 21  1  0
 13 22  1  0
 13 23  1  0
 14 24  1  0
 14 25  1  0
 15 26  1  0
 15 27  1  0
 16 28  1  0
 16 29  1  0
M  ISO  8  17  14  18  14  19  14  20  14  21  14  22  13  23  13  24  13
M  ISO  5  25  13  26  13  27  13  28  13  29  13
M  END
>  <minimizedAffinity>  (1) 
-4.25683928

>  <minimizedRMSD>  (1) 
1.20111024

$$$$
