
     RDKit          3D

 31 33  0  0  0  0  0  0  0  0999 V2000
   42.7350   22.9780   34.9490 C   0  0  0  0  0  0  0  0  0  0  0  0
   41.8050   23.4380   35.8980 C   0  0  0  0  0  0  0  0  0  0  0  0
   40.4910   22.9930   35.7630 C   0  0  0  0  0  0  0  0  0  0  0  0
   40.2030   22.1630   34.7440 N   0  0  0  0  0  0  0  0  0  0  0  0
   41.0960   21.7290   33.8410 C   0  0  0  0  0  0  0  0  0  0  0  0
   42.3810   22.1480   33.9510 N   0  0  0  0  0  0  0  0  0  0  0  0
   39.4710   23.4040   36.6790 N   0  0  0  0  0  0  0  0  0  0  0  0
   39.4880   22.9510   37.9540 C   0  0  0  0  0  0  0  0  0  0  0  0
   38.3780   23.5360   38.5260 C   0  0  0  0  0  0  0  0  0  0  0  0
   37.7430   24.2980   37.6230 N   0  0  0  0  0  0  0  0  0  0  0  0
   38.4220   24.2240   36.4520 C   0  0  0  0  0  0  0  0  0  0  0  0
   38.0740   24.8930   35.2500 N   0  0  0  0  0  0  0  0  0  0  0  0
   37.3520   26.1500   35.3310 C   0  0  0  0  0  0  0  0  0  0  0  0
   37.8710   27.1860   34.3940 C   0  0  0  0  0  0  0  0  0  0  0  0
   37.5760   26.6520   33.0530 N   0  0  0  0  0  0  0  0  0  0  0  0
   38.4430   25.5300   32.8910 C   0  0  0  0  0  0  0  0  0  0  0  0
   38.3640   24.4630   33.9230 C   0  0  0  0  0  0  0  0  0  0  0  0
   43.7822   23.3062   35.0247 H   0  0  0  0  0  0  0  0  0  0  0  0
   42.1010   24.1182   36.7102 H   0  0  0  0  0  0  0  0  0  0  0  0
   40.7927   21.0495   33.0309 H   0  0  0  0  0  0  0  0  0  0  0  0
   40.2168   22.2744   38.4242 H   0  0  0  0  0  0  0  0  0  0  0  0
   38.0599   23.3980   39.5699 H   0  0  0  0  0  0  0  0  0  0  0  0
   36.2946   25.9618   35.0934 H   0  0  0  0  0  0  0  0  0  0  0  0
   37.4832   26.5374   36.3521 H   0  0  0  0  0  0  0  0  0  0  0  0
   37.3570   28.1456   34.5520 H   0  0  0  0  0  0  0  0  0  0  0  0
   38.9436   27.3817   34.5395 H   0  0  0  0  0  0  0  0  0  0  0  0
   36.5909   26.3577   32.9913 H   0  0  0  0  0  0  0  0  0  0  0  0
   38.2122   25.0696   31.9190 H   0  0  0  0  0  0  0  0  0  0  0  0
   39.4602   25.9392   32.9797 H   0  0  0  0  0  0  0  0  0  0  0  0
   37.5757   23.7588   33.6183 H   0  0  0  0  0  0  0  0  0  0  0  0
   39.3708   24.0224   33.9692 H   0  0  0  0  0  0  0  0  0  0  0  0
  1  2  2  0
  3  2  1  0
  3  7  1  0
  4  3  2  0
  5  6  2  0
  5  4  1  0
  6  1  1  0
  7  8  1  0
  8  9  2  0
 10  9  1  0
 11  7  1  0
 11 10  2  0
 12 13  1  0
 12 11  1  0
 14 13  1  0
 15 14  1  0
 16 15  1  0
 16 17  1  0
 17 12  1  0
  1 18  1  0
  2 19  1  0
  5 20  1  0
  8 21  1  0
  9 22  1  0
 13 23  1  0
 13 24  1  0
 14 25  1  0
 14 26  1  0
 15 27  1  0
 16 28  1  0
 16 29  1  0
 17 30  1  0
 17 31  1  0
M  ISO  8  18  14  19  14  20  14  21  14  22  14  23  13  24  13  25  13
M  ISO  6  26  13  27   5  28  13  29  13  30  13  31  13
M  END
>  <minimizedAffinity>  (1) 
-4.25077248

>  <minimizedRMSD>  (1) 
3.36831188

$$$$
