
     RDKit          3D

 26 28  0  0  0  0  0  0  0  0999 V2000
   43.0880   22.4010   36.1700 C   0  0  0  0  0  0  0  0  0  0  0  0
   41.9670   23.0330   36.7220 C   0  0  0  0  0  0  0  0  0  0  0  0
   40.7550   22.9400   36.0130 C   0  0  0  0  0  0  0  0  0  0  0  0
   40.7400   22.2550   34.8540 N   0  0  0  0  0  0  0  0  0  0  0  0
   41.8370   21.6510   34.3370 C   0  0  0  0  0  0  0  0  0  0  0  0
   43.0180   21.7340   35.0150 N   0  0  0  0  0  0  0  0  0  0  0  0
   39.5720   23.5550   36.5090 N   0  0  0  0  0  0  0  0  0  0  0  0
   38.9560   23.0950   37.6050 C   0  0  0  0  0  0  0  0  0  0  0  0
   37.8720   23.9020   37.7970 C   0  0  0  0  0  0  0  0  0  0  0  0
   37.8410   24.8400   36.8220 N   0  0  0  0  0  0  0  0  0  0  0  0
   38.9080   24.6250   36.0100 C   0  0  0  0  0  0  0  0  0  0  0  0
   39.2930   25.3800   34.8240 C   0  0  0  0  0  0  0  0  0  0  0  0
   40.1310   26.4640   34.9760 C   0  0  0  0  0  0  0  0  0  0  0  0
   40.4550   27.1340   33.8160 C   0  0  0  0  0  0  0  0  0  0  0  0
   39.9780   26.7510   32.5800 C   0  0  0  0  0  0  0  0  0  0  0  0
   39.1290   25.6450   32.4610 C   0  0  0  0  0  0  0  0  0  0  0  0
   38.8360   25.0190   33.6110 N   0  0  0  0  0  0  0  0  0  0  0  0
   44.0500   22.4552   36.7007 H   0  0  0  0  0  0  0  0  0  0  0  0
   42.0313   23.5812   37.6735 H   0  0  0  0  0  0  0  0  0  0  0  0
   41.7764   21.1023   33.3855 H   0  0  0  0  0  0  0  0  0  0  0  0
   39.2616   22.2396   38.2254 H   0  0  0  0  0  0  0  0  0  0  0  0
   37.1410   23.8054   38.6132 H   0  0  0  0  0  0  0  0  0  0  0  0
   40.5159   26.7739   35.9588 H   0  0  0  0  0  0  0  0  0  0  0  0
   41.1198   28.0081   33.8784 H   0  0  0  0  0  0  0  0  0  0  0  0
   40.2665   27.3181   31.6827 H   0  0  0  0  0  0  0  0  0  0  0  0
   38.7295   25.3119   31.4918 H   0  0  0  0  0  0  0  0  0  0  0  0
  1  2  2  0
  3  7  1  0
  3  2  1  0
  4  3  2  0
  5  4  1  0
  5  6  2  0
  6  1  1  0
  7  8  1  0
  8  9  2  0
 10  9  1  0
 11  7  1  0
 11 10  2  0
 12 13  2  0
 12 11  1  0
 14 13  1  0
 15 14  2  0
 16 15  1  0
 16 17  2  0
 17 12  1  0
  1 18  1  0
  2 19  1  0
  5 20  1  0
  8 21  1  0
  9 22  1  0
 13 23  1  0
 14 24  1  0
 15 25  1  0
 16 26  1  0
M  ISO  8  18  14  19  14  20  14  21  14  22  14  23  14  24  14  25  14
M  ISO  1  26  14
M  END
>  <minimizedAffinity>  (1) 
-4.2390027

>  <minimizedRMSD>  (1) 
2.29102898

$$$$
