
     RDKit          3D

 24 25  0  0  0  0  0  0  0  0999 V2000
   40.3020   22.2820   37.5240 C   0  0  0  0  0  0  0  0  0  0  0  0
   39.6240   23.4770   37.2050 C   0  0  0  0  0  0  0  0  0  0  0  0
   39.7360   23.9320   35.8790 C   0  0  0  0  0  0  0  0  0  0  0  0
   40.4690   23.2120   35.0110 N   0  0  0  0  0  0  0  0  0  0  0  0
   41.1090   22.0700   35.3430 C   0  0  0  0  0  0  0  0  0  0  0  0
   41.0200   21.6080   36.6100 N   0  0  0  0  0  0  0  0  0  0  0  0
   39.0840   25.1320   35.4670 N   0  0  0  0  0  0  0  0  0  0  0  0
   37.7500   25.1990   35.3720 C   0  0  0  0  0  0  0  0  0  0  0  0
   37.4880   26.4830   34.9550 C   0  0  0  0  0  0  0  0  0  0  0  0
   38.6520   27.1610   34.8060 N   0  0  0  0  0  0  0  0  0  0  0  0
   39.6570   26.3130   35.1280 C   0  0  0  0  0  0  0  0  0  0  0  0
   41.0420   26.6110   35.1120 N   0  0  0  0  0  0  0  0  0  0  0  0
   41.7600   26.7060   33.8700 C   0  0  0  0  0  0  0  0  0  0  0  0
   41.3420   25.9250   32.9110 N   0  0  0  0  0  0  0  0  0  0  0  0
   42.8540   27.6450   33.8180 N   0  0  0  0  0  0  0  0  0  0  0  0
   41.8480   25.9780   32.0010 H   0  0  0  0  0  0  0  0  0  0  0  0
   40.2412   21.8907   38.5503 H   0  0  0  0  0  0  0  0  0  0  0  0
   39.0368   24.0258   37.9560 H   0  0  0  0  0  0  0  0  0  0  0  0
   41.6959   21.5223   34.5910 H   0  0  0  0  0  0  0  0  0  0  0  0
   37.0225   24.4011   35.5817 H   0  0  0  0  0  0  0  0  0  0  0  0
   36.4857   26.8970   34.7704 H   0  0  0  0  0  0  0  0  0  0  0  0
   41.5405   26.7614   36.0007 H   0  0  0  0  0  0  0  0  0  0  0  0
   43.4006   27.7514   32.9515 H   0  0  0  0  0  0  0  0  0  0  0  0
   43.0885   28.2090   34.6474 H   0  0  0  0  0  0  0  0  0  0  0  0
  2  1  2  0
  3  2  1  0
  4  5  1  0
  4  3  2  0
  5  6  2  0
  6  1  1  0
  7  3  1  0
  8  7  1  0
  9  8  2  0
 10  9  1  0
 10 11  2  0
 11  7  1  0
 12 11  1  0
 13 12  1  0
 14 13  2  0
 15 13  1  0
 16 14  1  0
  1 17  1  0
  2 18  1  0
  5 19  1  0
  8 20  1  0
  9 21  1  0
 12 22  1  0
 15 23  1  0
 15 24  1  0
M  ISO  5  17  14  18  14  19  14  20  14  21  14
M  END
>  <minimizedAffinity>  (1) 
-4.13894939

>  <minimizedRMSD>  (1) 
1.47024131

$$$$
