
     RDKit          3D

 24 25  0  0  0  0  0  0  0  0999 V2000
   39.0690   24.8480   34.7250 C   0  0  0  0  0  0  0  0  0  0  0  0
   39.7670   22.8130   37.7790 C   0  0  0  0  0  0  0  0  0  0  0  0
   38.8060   23.3130   38.6780 C   0  0  0  0  0  0  0  0  0  0  0  0
   37.9430   24.3310   38.2230 C   0  0  0  0  0  0  0  0  0  0  0  0
   38.0820   24.7770   36.9430 N   0  0  0  0  0  0  0  0  0  0  0  0
   39.0240   24.2650   36.1100 C   0  0  0  0  0  0  0  0  0  0  0  0
   39.8470   23.3050   36.5200 N   0  0  0  0  0  0  0  0  0  0  0  0
   39.3050   26.3330   34.8050 C   0  0  0  0  0  0  0  0  0  0  0  0
   38.2420   27.1200   34.1260 C   0  0  0  0  0  0  0  0  0  0  0  0
   37.2330   27.6950   34.8740 C   0  0  0  0  0  0  0  0  0  0  0  0
   36.1930   28.4510   34.3260 C   0  0  0  0  0  0  0  0  0  0  0  0
   36.1970   28.6130   32.9760 N   0  0  0  0  0  0  0  0  0  0  0  0
   37.1860   28.0510   32.2280 C   0  0  0  0  0  0  0  0  0  0  0  0
   38.1730   27.3270   32.8140 N   0  0  0  0  0  0  0  0  0  0  0  0
   38.1122   24.6570   34.2170 H   0  0  0  0  0  0  0  0  0  0  0  0
   39.8883   24.3796   34.1598 H   0  0  0  0  0  0  0  0  0  0  0  0
   40.4564   22.0186   38.1009 H   0  0  0  0  0  0  0  0  0  0  0  0
   38.7307   22.9218   39.7033 H   0  0  0  0  0  0  0  0  0  0  0  0
   37.1750   24.7555   38.8863 H   0  0  0  0  0  0  0  0  0  0  0  0
   39.3386   26.6275   35.8643 H   0  0  0  0  0  0  0  0  0  0  0  0
   40.2550   26.5466   34.2932 H   0  0  0  0  0  0  0  0  0  0  0  0
   37.2490   27.5494   35.9642 H   0  0  0  0  0  0  0  0  0  0  0  0
   35.4084   28.8940   34.9570 H   0  0  0  0  0  0  0  0  0  0  0  0
   37.1851   28.1853   31.1362 H   0  0  0  0  0  0  0  0  0  0  0  0
  1  8  1  0
  1  6  1  0
  2  3  2  0
  4  3  1  0
  5  4  2  0
  6  7  2  0
  6  5  1  0
  7  2  1  0
  9  8  1  0
  9 10  2  0
 11 10  1  0
 12 11  2  0
 13 14  2  0
 13 12  1  0
 14  9  1  0
  1 15  1  0
  1 16  1  0
  2 17  1  0
  3 18  1  0
  4 19  1  0
  8 20  1  0
  8 21  1  0
 10 22  1  0
 11 23  1  0
 13 24  1  0
M  ISO  8  15   8  16   8  17  14  18  14  19  14  20   8  21   8  22  14
M  ISO  2  23  14  24  14
M  END
>  <minimizedAffinity>  (1) 
-3.95879436

>  <minimizedRMSD>  (1) 
1.78490198

$$$$
