
     RDKit          3D

 30 32  0  0  0  0  0  0  0  0999 V2000
   42.5310   21.4430   36.9290 C   0  0  0  0  0  0  0  0  0  0  0  0
   41.4270   22.2780   37.1600 C   0  0  0  0  0  0  0  0  0  0  0  0
   40.5500   22.5150   36.1080 C   0  0  0  0  0  0  0  0  0  0  0  0
   40.8040   21.9290   34.9220 N   0  0  0  0  0  0  0  0  0  0  0  0
   41.8740   21.1270   34.7170 C   0  0  0  0  0  0  0  0  0  0  0  0
   42.7400   20.8850   35.7260 N   0  0  0  0  0  0  0  0  0  0  0  0
   39.4040   23.3570   36.2800 N   0  0  0  0  0  0  0  0  0  0  0  0
   38.3680   22.9660   37.0250 C   0  0  0  0  0  0  0  0  0  0  0  0
   37.4720   24.0050   36.9630 C   0  0  0  0  0  0  0  0  0  0  0  0
   37.9790   24.9950   36.1890 N   0  0  0  0  0  0  0  0  0  0  0  0
   39.1950   24.5880   35.7570 C   0  0  0  0  0  0  0  0  0  0  0  0
   40.1020   25.3460   34.8920 C   0  0  0  0  0  0  0  0  0  0  0  0
   39.9770   26.8390   35.0280 C   0  0  0  0  0  0  0  0  0  0  0  0
   40.3900   27.2820   33.6200 C   0  0  0  0  0  0  0  0  0  0  0  0
   39.4610   26.3850   32.8000 C   0  0  0  0  0  0  0  0  0  0  0  0
   39.7370   25.0510   33.4520 C   0  0  0  0  0  0  0  0  0  0  0  0
   43.2374   21.2422   37.7479 H   0  0  0  0  0  0  0  0  0  0  0  0
   41.2601   22.7329   38.1475 H   0  0  0  0  0  0  0  0  0  0  0  0
   42.0392   20.6719   33.7293 H   0  0  0  0  0  0  0  0  0  0  0  0
   38.2560   22.0173   37.5704 H   0  0  0  0  0  0  0  0  0  0  0  0
   36.4933   24.0297   37.4645 H   0  0  0  0  0  0  0  0  0  0  0  0
   41.1189   25.0440   35.1829 H   0  0  0  0  0  0  0  0  0  0  0  0
   38.9455   27.1407   35.2627 H   0  0  0  0  0  0  0  0  0  0  0  0
   40.5747   27.2774   35.8408 H   0  0  0  0  0  0  0  0  0  0  0  0
   40.1884   28.3497   33.4486 H   0  0  0  0  0  0  0  0  0  0  0  0
   41.4615   27.1857   33.3908 H   0  0  0  0  0  0  0  0  0  0  0  0
   39.7332   26.3820   31.7342 H   0  0  0  0  0  0  0  0  0  0  0  0
   38.4042   26.6902   32.8012 H   0  0  0  0  0  0  0  0  0  0  0  0
   38.8411   24.4142   33.4095 H   0  0  0  0  0  0  0  0  0  0  0  0
   40.5481   24.5156   32.9368 H   0  0  0  0  0  0  0  0  0  0  0  0
  1  2  2  0
  3  7  1  0
  3  2  1  0
  4  3  2  0
  5  4  1  0
  5  6  2  0
  6  1  1  0
  7  8  1  0
  9  8  2  0
 10  9  1  0
 11 10  2  0
 11  7  1  0
 12 13  1  0
 12 11  1  0
 14 13  1  0
 15 16  1  0
 15 14  1  0
 16 12  1  0
  1 17  1  0
  2 18  1  0
  5 19  1  0
  8 20  1  0
  9 21  1  0
 12 22  1  0
 13 23  1  0
 13 24  1  0
 14 25  1  0
 14 26  1  0
 15 27  1  0
 15 28  1  0
 16 29  1  0
 16 30  1  0
M  ISO  8  17  14  18  14  19  14  20  14  21  14  22  13  23  13  24  13
M  ISO  6  25  13  26  13  27  13  28  13  29  13  30  13
M  END
>  <minimizedAffinity>  (1) 
-4.00431585

>  <minimizedRMSD>  (1) 
1.40490186

$$$$
