
     RDKit          3D

 26 27  0  0  0  0  0  0  0  0999 V2000
   40.5370   22.1610   37.4910 C   0  0  0  0  0  0  0  0  0  0  0  0
   39.5330   22.6970   36.6570 C   0  0  0  0  0  0  0  0  0  0  0  0
   39.9680   23.4500   35.5710 C   0  0  0  0  0  0  0  0  0  0  0  0
   41.3060   23.6250   35.3740 N   0  0  0  0  0  0  0  0  0  0  0  0
   42.2330   23.0900   36.2040 C   0  0  0  0  0  0  0  0  0  0  0  0
   41.8360   22.3540   37.2670 N   0  0  0  0  0  0  0  0  0  0  0  0
   39.0280   24.0420   34.6580 N   0  0  0  0  0  0  0  0  0  0  0  0
   38.2990   23.2830   33.8310 C   0  0  0  0  0  0  0  0  0  0  0  0
   37.5240   24.1530   33.1150 C   0  0  0  0  0  0  0  0  0  0  0  0
   37.7920   25.4000   33.5140 N   0  0  0  0  0  0  0  0  0  0  0  0
   38.7410   25.3400   34.4860 C   0  0  0  0  0  0  0  0  0  0  0  0
   39.3420   26.4650   35.2170 C   0  0  0  0  0  0  0  0  0  0  0  0
   40.4890   27.1020   34.4670 C   0  0  0  0  0  0  0  0  0  0  0  0
   38.3130   27.4730   35.6300 C   0  0  0  0  0  0  0  0  0  0  0  0
   40.2350   21.5596   38.3611 H   0  0  0  0  0  0  0  0  0  0  0  0
   38.4641   22.5286   36.8548 H   0  0  0  0  0  0  0  0  0  0  0  0
   43.3041   23.2534   36.0144 H   0  0  0  0  0  0  0  0  0  0  0  0
   38.3191   22.1865   33.7451 H   0  0  0  0  0  0  0  0  0  0  0  0
   36.7984   23.8722   32.3375 H   0  0  0  0  0  0  0  0  0  0  0  0
   39.7733   26.0435   36.1370 H   0  0  0  0  0  0  0  0  0  0  0  0
   41.2172   27.5064   35.1854 H   0  0  0  0  0  0  0  0  0  0  0  0
   40.9784   26.3464   33.8348 H   0  0  0  0  0  0  0  0  0  0  0  0
   40.1063   27.9168   33.8348 H   0  0  0  0  0  0  0  0  0  0  0  0
   38.2654   27.5196   36.7280 H   0  0  0  0  0  0  0  0  0  0  0  0
   38.5876   28.4613   35.2326 H   0  0  0  0  0  0  0  0  0  0  0  0
   37.3306   27.1781   35.2326 H   0  0  0  0  0  0  0  0  0  0  0  0
  2  1  2  0
  3  2  1  0
  4  3  2  0
  4  5  1  0
  5  6  2  0
  6  1  1  0
  7  3  1  0
  8  7  1  0
  9 10  1  0
  9  8  2  0
 10 11  2  0
 11  7  1  0
 11 12  1  0
 12 14  1  0
 13 12  1  0
  1 15  1  0
  2 16  1  0
  5 17  1  0
  8 18  1  0
  9 19  1  0
 12 20  1  0
 13 21  1  0
 13 22  1  0
 13 23  1  0
 14 24  1  0
 14 25  1  0
 14 26  1  0
M  ISO  8  15  14  16  14  17  14  18  14  19  14  20   8  21   8  22   8
M  ISO  4  23   8  24   8  25   8  26   8
M  END
>  <minimizedAffinity>  (1) 
-3.8444767

>  <minimizedRMSD>  (1) 
2.03665566

$$$$
