
     RDKit          3D

 24 26  0  0  0  0  0  0  0  0999 V2000
   42.4350   21.4600   36.8190 C   0  0  0  0  0  0  0  0  0  0  0  0
   41.3400   22.3040   37.1260 C   0  0  0  0  0  0  0  0  0  0  0  0
   40.5000   22.6540   36.0530 C   0  0  0  0  0  0  0  0  0  0  0  0
   40.7930   22.1670   34.8180 N   0  0  0  0  0  0  0  0  0  0  0  0
   41.8440   21.3670   34.5680 C   0  0  0  0  0  0  0  0  0  0  0  0
   42.6660   21.0140   35.5730 N   0  0  0  0  0  0  0  0  0  0  0  0
   39.3690   23.4960   36.2510 N   0  0  0  0  0  0  0  0  0  0  0  0
   38.2840   23.0360   36.9280 C   0  0  0  0  0  0  0  0  0  0  0  0
   37.3990   24.0840   36.9220 C   0  0  0  0  0  0  0  0  0  0  0  0
   37.9490   25.1330   36.2610 N   0  0  0  0  0  0  0  0  0  0  0  0
   39.1840   24.7530   35.8450 C   0  0  0  0  0  0  0  0  0  0  0  0
   40.0650   25.6360   35.1020 C   0  0  0  0  0  0  0  0  0  0  0  0
   39.8990   26.8370   34.4670 C   0  0  0  0  0  0  0  0  0  0  0  0
   41.0560   27.2460   33.9040 N   0  0  0  0  0  0  0  0  0  0  0  0
   41.9790   26.3170   34.1690 C   0  0  0  0  0  0  0  0  0  0  0  0
   41.3630   25.3560   34.8910 N   0  0  0  0  0  0  0  0  0  0  0  0
   43.1185   21.1599   37.6269 H   0  0  0  0  0  0  0  0  0  0  0  0
   41.1562   22.6664   38.1482 H   0  0  0  0  0  0  0  0  0  0  0  0
   42.0310   21.0028   33.5470 H   0  0  0  0  0  0  0  0  0  0  0  0
   38.1461   22.0430   37.3806 H   0  0  0  0  0  0  0  0  0  0  0  0
   36.3996   24.0751   37.3814 H   0  0  0  0  0  0  0  0  0  0  0  0
   38.9513   27.3936   34.4215 H   0  0  0  0  0  0  0  0  0  0  0  0
   43.0345   26.3319   33.8596 H   0  0  0  0  0  0  0  0  0  0  0  0
   41.8326   24.5080   35.2392 H   0  0  0  0  0  0  0  0  0  0  0  0
  1  2  2  0
  3  7  1  0
  3  2  1  0
  4  3  2  0
  5  4  1  0
  5  6  2  0
  6  1  1  0
  7  8  1  0
  9  8  2  0
 10  9  1  0
 11  7  1  0
 11 10  2  0
 12 11  1  0
 13 12  2  0
 14 15  2  0
 14 13  1  0
 15 16  1  0
 16 12  1  0
  1 17  1  0
  2 18  1  0
  5 19  1  0
  8 20  1  0
  9 21  1  0
 13 22  1  0
 15 23  1  0
 16 24  1  0
M  ISO  8  17  14  18  14  19  14  20  14  21  14  22  14  23  14  24   9
M  END
>  <minimizedAffinity>  (1) 
-3.81144905

>  <minimizedRMSD>  (1) 
1.10851288

$$$$
