
     RDKit          3D

 29 30  0  0  0  0  0  0  0  0999 V2000
   42.8520   21.9660   36.3230 C   0  0  0  0  0  0  0  0  0  0  0  0
   41.7850   22.7370   36.7900 C   0  0  0  0  0  0  0  0  0  0  0  0
   40.6520   22.8680   36.0000 C   0  0  0  0  0  0  0  0  0  0  0  0
   40.6440   22.2250   34.7950 N   0  0  0  0  0  0  0  0  0  0  0  0
   41.6900   21.4820   34.3620 C   0  0  0  0  0  0  0  0  0  0  0  0
   42.8020   21.3580   35.1450 N   0  0  0  0  0  0  0  0  0  0  0  0
   39.5230   23.6360   36.4050 N   0  0  0  0  0  0  0  0  0  0  0  0
   38.7540   23.1960   37.4320 C   0  0  0  0  0  0  0  0  0  0  0  0
   37.7670   24.1530   37.5620 C   0  0  0  0  0  0  0  0  0  0  0  0
   37.9610   25.1160   36.6360 N   0  0  0  0  0  0  0  0  0  0  0  0
   39.0700   24.7900   35.9050 C   0  0  0  0  0  0  0  0  0  0  0  0
   39.6420   25.5630   34.7920 C   0  0  0  0  0  0  0  0  0  0  0  0
   39.1910   25.0110   33.4430 C   0  0  0  0  0  0  0  0  0  0  0  0
   41.1390   25.6870   34.8790 C   0  0  0  0  0  0  0  0  0  0  0  0
   39.1100   27.0010   34.8660 C   0  0  0  0  0  0  0  0  0  0  0  0
   43.7529   21.8607   36.9453 H   0  0  0  0  0  0  0  0  0  0  0  0
   41.8422   23.2332   37.7701 H   0  0  0  0  0  0  0  0  0  0  0  0
   41.6442   20.9806   33.3840 H   0  0  0  0  0  0  0  0  0  0  0  0
   38.8869   22.2812   38.0282 H   0  0  0  0  0  0  0  0  0  0  0  0
   36.9530   24.1337   38.3017 H   0  0  0  0  0  0  0  0  0  0  0  0
   38.5025   24.1683   33.6033 H   0  0  0  0  0  0  0  0  0  0  0  0
   38.6772   25.8016   32.8765 H   0  0  0  0  0  0  0  0  0  0  0  0
   40.0682   24.6651   32.8765 H   0  0  0  0  0  0  0  0  0  0  0  0
   41.4440   25.7123   35.9356 H   0  0  0  0  0  0  0  0  0  0  0  0
   41.6078   24.8246   34.3825 H   0  0  0  0  0  0  0  0  0  0  0  0
   41.4595   26.6148   34.3825 H   0  0  0  0  0  0  0  0  0  0  0  0
   39.0003   27.2976   35.9196 H   0  0  0  0  0  0  0  0  0  0  0  0
   39.8166   27.6796   34.3657 H   0  0  0  0  0  0  0  0  0  0  0  0
   38.1319   27.0563   34.3657 H   0  0  0  0  0  0  0  0  0  0  0  0
  1  2  2  0
  3  7  1  0
  3  2  1  0
  4  3  2  0
  5  4  1  0
  5  6  2  0
  6  1  1  0
  7  8  1  0
  8  9  2  0
 10  9  1  0
 11  7  1  0
 11 10  2  0
 12 15  1  0
 12 14  1  0
 12 11  1  0
 13 12  1  0
  1 16  1  0
  2 17  1  0
  5 18  1  0
  8 19  1  0
  9 20  1  0
 13 21  1  0
 13 22  1  0
 13 23  1  0
 14 24  1  0
 14 25  1  0
 14 26  1  0
 15 27  1  0
 15 28  1  0
 15 29  1  0
M  ISO  8  16  14  17  14  18  14  19  14  20  14  21   8  22   8  23   8
M  ISO  6  24   8  25   8  26   8  27   8  28   8  29   8
M  END
>  <minimizedAffinity>  (1) 
-3.77097321

>  <minimizedRMSD>  (1) 
1.61806321

$$$$
