
     RDKit          3D

 19 19  0  0  0  0  0  0  0  0999 V2000
   39.6070   22.9250   37.2330 C   0  0  0  0  0  0  0  0  0  0  0  0
   38.7750   23.1710   38.3570 C   0  0  0  0  0  0  0  0  0  0  0  0
   37.9500   24.3050   38.3100 C   0  0  0  0  0  0  0  0  0  0  0  0
   38.0040   25.0940   37.1860 N   0  0  0  0  0  0  0  0  0  0  0  0
   38.8080   24.8210   36.1480 C   0  0  0  0  0  0  0  0  0  0  0  0
   39.6030   23.7460   36.1680 N   0  0  0  0  0  0  0  0  0  0  0  0
   38.8500   25.6820   34.9480 C   0  0  0  0  0  0  0  0  0  0  0  0
   39.0910   27.1170   35.3990 C   0  0  0  0  0  0  0  0  0  0  0  0
   37.5700   25.6790   34.1650 C   0  0  0  0  0  0  0  0  0  0  0  0
   40.2678   22.0456   37.2334 H   0  0  0  0  0  0  0  0  0  0  0  0
   38.7771   22.5002   39.2288 H   0  0  0  0  0  0  0  0  0  0  0  0
   37.2809   24.5547   39.1466 H   0  0  0  0  0  0  0  0  0  0  0  0
   39.6478   25.2880   34.3012 H   0  0  0  0  0  0  0  0  0  0  0  0
   39.0982   27.1596   36.4982 H   0  0  0  0  0  0  0  0  0  0  0  0
   40.0602   27.4650   35.0123 H   0  0  0  0  0  0  0  0  0  0  0  0
   38.2887   27.7625   35.0123 H   0  0  0  0  0  0  0  0  0  0  0  0
   36.7160   25.6770   34.8584 H   0  0  0  0  0  0  0  0  0  0  0  0
   37.5257   26.5770   33.5313 H   0  0  0  0  0  0  0  0  0  0  0  0
   37.5299   24.7808   33.5313 H   0  0  0  0  0  0  0  0  0  0  0  0
  1  2  2  0
  3  2  1  0
  4  3  2  0
  5  6  2  0
  5  4  1  0
  6  1  1  0
  7  8  1  0
  7  5  1  0
  9  7  1  0
  1 10  1  0
  2 11  1  0
  3 12  1  0
  7 13  1  0
  8 14  1  0
  8 15  1  0
  8 16  1  0
  9 17  1  0
  9 18  1  0
  9 19  1  0
M  ISO  8  10  14  11  14  12  14  13   8  14   8  15   8  16   8  17   8
M  ISO  2  18   8  19   8
M  END
>  <minimizedAffinity>  (1) 
-3.11945009

>  <minimizedRMSD>  (1) 
3.10299253

$$$$
