
     RDKit          3D

 19 20  0  0  0  0  0  0  0  0999 V2000
   41.9170   21.3130   37.4270 C   0  0  0  0  0  0  0  0  0  0  0  0
   41.0030   22.3640   37.2940 C   0  0  0  0  0  0  0  0  0  0  0  0
   40.6480   22.7950   36.0200 C   0  0  0  0  0  0  0  0  0  0  0  0
   41.2130   22.1680   34.9660 N   0  0  0  0  0  0  0  0  0  0  0  0
   42.0970   21.1530   35.1030 C   0  0  0  0  0  0  0  0  0  0  0  0
   42.4440   20.7300   36.3380 N   0  0  0  0  0  0  0  0  0  0  0  0
   39.7220   23.8610   35.8220 N   0  0  0  0  0  0  0  0  0  0  0  0
   38.4110   23.6980   36.1230 C   0  0  0  0  0  0  0  0  0  0  0  0
   37.8210   24.8950   35.8160 C   0  0  0  0  0  0  0  0  0  0  0  0
   38.7610   25.7420   35.3450 N   0  0  0  0  0  0  0  0  0  0  0  0
   39.9450   25.0930   35.3510 C   0  0  0  0  0  0  0  0  0  0  0  0
   41.1890   25.6150   34.9370 N   0  0  0  0  0  0  0  0  0  0  0  0
   42.2055   20.9624   38.4289 H   0  0  0  0  0  0  0  0  0  0  0  0
   40.5710   22.8430   38.1850 H   0  0  0  0  0  0  0  0  0  0  0  0
   42.5311   20.6744   34.2128 H   0  0  0  0  0  0  0  0  0  0  0  0
   37.9251   22.7977   36.5271 H   0  0  0  0  0  0  0  0  0  0  0  0
   36.7527   25.1289   35.9342 H   0  0  0  0  0  0  0  0  0  0  0  0
   42.0348   25.0290   34.9840 H   0  0  0  0  0  0  0  0  0  0  0  0
   41.2512   26.5820   34.5878 H   0  0  0  0  0  0  0  0  0  0  0  0
  2  1  2  0
  3  2  1  0
  4  5  1  0
  4  3  2  0
  5  6  2  0
  6  1  1  0
  7  3  1  0
  7  8  1  0
  9  8  2  0
 10 11  2  0
 10  9  1  0
 11  7  1  0
 12 11  1  0
  1 13  1  0
  2 14  1  0
  5 15  1  0
  8 16  1  0
  9 17  1  0
 12 18  1  0
 12 19  1  0
M  ISO  5  13  14  14  14  15  14  16  14  17  14
M  END
>  <minimizedAffinity>  (1) 
-2.93224859

>  <minimizedRMSD>  (1) 
0.0599522814

$$$$
