
     RDKit          3D

 18 19  0  0  0  0  0  0  0  0999 V2000
   41.9240   21.4100   37.3660 C   0  0  0  0  0  0  0  0  0  0  0  0
   41.0140   22.4800   37.2920 C   0  0  0  0  0  0  0  0  0  0  0  0
   40.5930   22.8710   36.0110 C   0  0  0  0  0  0  0  0  0  0  0  0
   41.0780   22.2090   34.9340 N   0  0  0  0  0  0  0  0  0  0  0  0
   41.9500   21.1870   35.0530 C   0  0  0  0  0  0  0  0  0  0  0  0
   42.3700   20.7920   36.2690 N   0  0  0  0  0  0  0  0  0  0  0  0
   39.6670   23.9520   35.8420 N   0  0  0  0  0  0  0  0  0  0  0  0
   38.3790   23.8190   36.2050 C   0  0  0  0  0  0  0  0  0  0  0  0
   37.7930   25.0120   35.9110 C   0  0  0  0  0  0  0  0  0  0  0  0
   38.7060   25.8430   35.3840 N   0  0  0  0  0  0  0  0  0  0  0  0
   39.8920   25.1720   35.3390 C   0  0  0  0  0  0  0  0  0  0  0  0
   41.4360   25.7970   34.7320 S   0  0  0  0  0  0  0  0  0  0  0  0
   42.2772   21.0737   38.3520 H   0  0  0  0  0  0  0  0  0  0  0  0
   40.6487   22.9875   38.1970 H   0  0  0  0  0  0  0  0  0  0  0  0
   42.3193   20.6743   34.1526 H   0  0  0  0  0  0  0  0  0  0  0  0
   37.8998   22.9328   36.6465 H   0  0  0  0  0  0  0  0  0  0  0  0
   36.7340   25.2573   36.0794 H   0  0  0  0  0  0  0  0  0  0  0  0
   42.2436   26.1239   35.7892 H   0  0  0  0  0  0  0  0  0  0  0  0
  2  1  2  0
  3  2  1  0
  4  5  1  0
  4  3  2  0
  5  6  2  0
  6  1  1  0
  7  3  1  0
  7  8  1  0
  9  8  2  0
 10  9  1  0
 11 10  2  0
 11  7  1  0
 12 11  1  0
  1 13  1  0
  2 14  1  0
  5 15  1  0
  8 16  1  0
  9 17  1  0
 12 18  1  0
M  ISO  6  13  14  14  14  15  14  16  14  17  14  18  11
M  END
>  <minimizedAffinity>  (1) 
-2.91998529

>  <minimizedRMSD>  (1) 
0.170523718

$$$$
