
     RDKit          3D

 23 24  0  0  0  0  0  0  0  0999 V2000
   39.8570   22.6630   37.4340 C   0  0  0  0  0  0  0  0  0  0  0  0
   39.0120   23.2600   36.4950 C   0  0  0  0  0  0  0  0  0  0  0  0
   39.5760   23.8680   35.3850 C   0  0  0  0  0  0  0  0  0  0  0  0
   40.9180   23.8400   35.2850 N   0  0  0  0  0  0  0  0  0  0  0  0
   41.7330   23.2640   36.1900 C   0  0  0  0  0  0  0  0  0  0  0  0
   41.1910   22.6690   37.2760 N   0  0  0  0  0  0  0  0  0  0  0  0
   38.7840   24.5000   34.3800 N   0  0  0  0  0  0  0  0  0  0  0  0
   38.0090   23.7740   33.5590 C   0  0  0  0  0  0  0  0  0  0  0  0
   37.3980   24.6750   32.7360 C   0  0  0  0  0  0  0  0  0  0  0  0
   37.8070   25.9230   33.0680 N   0  0  0  0  0  0  0  0  0  0  0  0
   38.6740   25.8070   34.0990 C   0  0  0  0  0  0  0  0  0  0  0  0
   39.4340   26.8200   34.8710 C   0  0  0  0  0  0  0  0  0  0  0  0
   38.5630   27.3510   35.9890 C   0  0  0  0  0  0  0  0  0  0  0  0
   39.4213   22.1785   38.3202 H   0  0  0  0  0  0  0  0  0  0  0  0
   37.9209   23.2476   36.6342 H   0  0  0  0  0  0  0  0  0  0  0  0
   42.8236   23.2777   36.0473 H   0  0  0  0  0  0  0  0  0  0  0  0
   37.8909   22.6804   33.5512 H   0  0  0  0  0  0  0  0  0  0  0  0
   36.6882   24.4278   31.9329 H   0  0  0  0  0  0  0  0  0  0  0  0
   40.3367   26.3571   35.2962 H   0  0  0  0  0  0  0  0  0  0  0  0
   39.7274   27.6465   34.2071 H   0  0  0  0  0  0  0  0  0  0  0  0
   39.0061   27.0809   36.9589 H   0  0  0  0  0  0  0  0  0  0  0  0
   38.4924   28.4459   35.9104 H   0  0  0  0  0  0  0  0  0  0  0  0
   37.5574   26.9122   35.9104 H   0  0  0  0  0  0  0  0  0  0  0  0
  2  1  2  0
  3  2  1  0
  4  3  2  0
  4  5  1  0
  5  6  2  0
  6  1  1  0
  7  3  1  0
  8  7  1  0
  9 10  1  0
  9  8  2  0
 10 11  2  0
 11  7  1  0
 11 12  1  0
 12 13  1  0
  1 14  1  0
  2 15  1  0
  5 16  1  0
  8 17  1  0
  9 18  1  0
 12 19  1  0
 12 20  1  0
 13 21  1  0
 13 22  1  0
 13 23  1  0
M  ISO  8  14  14  15  14  16  14  17  14  18  14  19   8  20   8  21   8
M  ISO  2  22   8  23   8
M  END
>  <minimizedAffinity>  (1) 
-3.6762979

>  <minimizedRMSD>  (1) 
2.590873

$$$$
