
     RDKit          3D

 24 25  0  0  0  0  0  0  0  0999 V2000
   38.7320   23.0760   37.8690 C   0  0  0  0  0  0  0  0  0  0  0  0
   38.2110   23.5960   36.6760 C   0  0  0  0  0  0  0  0  0  0  0  0
   39.0920   23.7920   35.6160 C   0  0  0  0  0  0  0  0  0  0  0  0
   40.3750   23.4710   35.8130 N   0  0  0  0  0  0  0  0  0  0  0  0
   40.8700   22.9720   36.9600 C   0  0  0  0  0  0  0  0  0  0  0  0
   40.0450   22.7710   38.0010 N   0  0  0  0  0  0  0  0  0  0  0  0
   38.6450   24.3170   34.3640 N   0  0  0  0  0  0  0  0  0  0  0  0
   37.8660   23.5990   33.5540 C   0  0  0  0  0  0  0  0  0  0  0  0
   37.6310   24.3880   32.4640 C   0  0  0  0  0  0  0  0  0  0  0  0
   38.2760   25.5750   32.6370 N   0  0  0  0  0  0  0  0  0  0  0  0
   38.9090   25.5270   33.8240 C   0  0  0  0  0  0  0  0  0  0  0  0
   39.7490   26.5050   34.5250 C   0  0  0  0  0  0  0  0  0  0  0  0
   38.9450   27.1870   35.6170 C   0  0  0  0  0  0  0  0  0  0  0  0
   37.3160   27.6770   35.0190 S   0  0  0  0  0  0  0  0  0  0  0  0
   38.0561   22.9112   38.7211 H   0  0  0  0  0  0  0  0  0  0  0  0
   37.1428   23.8408   36.5807 H   0  0  0  0  0  0  0  0  0  0  0  0
   41.9399   22.7309   37.0447 H   0  0  0  0  0  0  0  0  0  0  0  0
   37.4898   22.5801   33.7280 H   0  0  0  0  0  0  0  0  0  0  0  0
   37.0218   24.1106   31.5911 H   0  0  0  0  0  0  0  0  0  0  0  0
   40.6111   25.9901   34.9741 H   0  0  0  0  0  0  0  0  0  0  0  0
   40.1004   27.2612   33.8076 H   0  0  0  0  0  0  0  0  0  0  0  0
   38.8232   26.4914   36.4604 H   0  0  0  0  0  0  0  0  0  0  0  0
   39.4856   28.0909   35.9343 H   0  0  0  0  0  0  0  0  0  0  0  0
   36.4932   27.9245   36.0861 H   0  0  0  0  0  0  0  0  0  0  0  0
  1  6  2  0
  2  1  1  0
  3  4  1  0
  3  2  2  0
  4  5  2  0
  5  6  1  0
  7  3  1  0
  8  7  1  0
  9 10  1  0
  9  8  2  0
 10 11  2  0
 11  7  1  0
 11 12  1  0
 12 13  1  0
 14 13  1  0
  1 15  1  0
  2 16  1  0
  5 17  1  0
  8 18  1  0
  9 19  1  0
 12 20  1  0
 12 21  1  0
 13 22  1  0
 13 23  1  0
 14 24  1  0
M  ISO  8  15  14  16  14  17  14  18  14  19  14  20   8  21   8  22   8
M  ISO  2  23   8  24  11
M  END
>  <minimizedAffinity>  (1) 
-3.56939054

>  <minimizedRMSD>  (1) 
0.79009825

$$$$
