
     RDKit          3D

 27 28  0  0  0  0  0  0  0  0999 V2000
   37.0190   23.4990   32.5570 N   0  0  0  0  0  0  0  0  0  0  0  0
   36.0200   23.1400   31.7440 C   0  0  0  0  0  0  0  0  0  0  0  0
   35.7380   21.8470   32.0340 C   0  0  0  0  0  0  0  0  0  0  0  0
   36.5690   21.4320   33.0230 N   0  0  0  0  0  0  0  0  0  0  0  0
   37.3730   22.4700   33.3520 C   0  0  0  0  0  0  0  0  0  0  0  0
   39.1050   26.4450   31.7040 C   0  0  0  0  0  0  0  0  0  0  0  0
   38.6170   25.1380   31.6790 C   0  0  0  0  0  0  0  0  0  0  0  0
   37.5690   24.8060   32.5240 C   0  0  0  0  0  0  0  0  0  0  0  0
   37.0970   25.7820   33.3110 N   0  0  0  0  0  0  0  0  0  0  0  0
   37.5640   27.0370   33.3370 C   0  0  0  0  0  0  0  0  0  0  0  0
   38.5770   27.3850   32.5300 N   0  0  0  0  0  0  0  0  0  0  0  0
   38.4400   22.5960   34.3330 C   0  0  0  0  0  0  0  0  0  0  0  0
   37.8820   22.5030   35.7460 C   0  0  0  0  0  0  0  0  0  0  0  0
   37.9840   24.1060   36.5810 S   0  0  0  0  0  0  0  0  0  0  0  0
   38.2280   23.7650   38.3620 C   0  0  0  0  0  0  0  0  0  0  0  0
   37.2600   22.8410   38.7270 F   0  0  0  0  0  0  0  0  0  0  0  0
   38.0750   24.9310   39.1200 F   0  0  0  0  0  0  0  0  0  0  0  0
   39.5010   23.3220   38.5720 F   0  0  0  0  0  0  0  0  0  0  0  0
   35.5254   23.7694   30.9896 H   0  0  0  0  0  0  0  0  0  0  0  0
   34.9637   21.2351   31.5482 H   0  0  0  0  0  0  0  0  0  0  0  0
   39.9369   26.7205   31.0391 H   0  0  0  0  0  0  0  0  0  0  0  0
   39.0541   24.3876   31.0038 H   0  0  0  0  0  0  0  0  0  0  0  0
   37.1189   27.7785   34.0168 H   0  0  0  0  0  0  0  0  0  0  0  0
   39.1702   21.7879   34.1787 H   0  0  0  0  0  0  0  0  0  0  0  0
   38.9242   23.5756   34.2066 H   0  0  0  0  0  0  0  0  0  0  0  0
   36.8295   22.1869   35.6985 H   0  0  0  0  0  0  0  0  0  0  0  0
   38.4752   21.7705   36.3130 H   0  0  0  0  0  0  0  0  0  0  0  0
  1  5  1  0
  2  3  2  0
  2  1  1  0
  3  4  1  0
  4  5  2  0
  5 12  1  0
  6 11  2  0
  7  6  1  0
  7  8  2  0
  8  1  1  0
  8  9  1  0
  9 10  2  0
 11 10  1  0
 12 13  1  0
 13 14  1  0
 14 15  1  0
 15 18  1  0
 15 16  1  0
 15 17  1  0
  2 19  1  0
  3 20  1  0
  6 21  1  0
  7 22  1  0
 10 23  1  0
 12 24  1  0
 12 25  1  0
 13 26  1  0
 13 27  1  0
M  ISO  8  19  14  20  14  21  14  22  14  23  14  24   8  25   8  26   8
M  ISO  1  27   8
M  END
>  <minimizedAffinity>  (1) 
-4.38136959

>  <minimizedRMSD>  (1) 
5.04549599

$$$$
