
     RDKit          3D

 31 33  0  0  0  0  0  0  0  0999 V2000
   38.2600   25.7830   34.1960 N   0  0  0  0  0  0  0  0  0  0  0  0
   37.2610   25.8510   33.3090 C   0  0  0  0  0  0  0  0  0  0  0  0
   37.6180   26.8190   32.4250 C   0  0  0  0  0  0  0  0  0  0  0  0
   38.8340   27.3310   32.7860 N   0  0  0  0  0  0  0  0  0  0  0  0
   39.2240   26.6790   33.8890 C   0  0  0  0  0  0  0  0  0  0  0  0
   37.9810   24.3180   37.6050 C   0  0  0  0  0  0  0  0  0  0  0  0
   38.0050   25.2860   36.5990 C   0  0  0  0  0  0  0  0  0  0  0  0
   38.2190   24.8570   35.2850 C   0  0  0  0  0  0  0  0  0  0  0  0
   38.3880   23.5430   35.0800 N   0  0  0  0  0  0  0  0  0  0  0  0
   38.3620   22.6150   36.0590 C   0  0  0  0  0  0  0  0  0  0  0  0
   38.1580   23.0000   37.3280 N   0  0  0  0  0  0  0  0  0  0  0  0
   40.4380   26.8010   34.7180 C   0  0  0  0  0  0  0  0  0  0  0  0
   41.6030   26.1490   33.9970 C   0  0  0  0  0  0  0  0  0  0  0  0
   41.9970   24.5510   34.7130 S   0  0  0  0  0  0  0  0  0  0  0  0
   43.4320   24.7990   35.7870 C   0  0  0  0  0  0  0  0  0  0  0  0
   44.0440   24.2710   36.9070 C   0  0  0  0  0  0  0  0  0  0  0  0
   45.1730   25.0460   37.1440 C   0  0  0  0  0  0  0  0  0  0  0  0
   45.1850   26.0110   36.1470 C   0  0  0  0  0  0  0  0  0  0  0  0
   44.1290   25.8270   35.3600 O   0  0  0  0  0  0  0  0  0  0  0  0
   36.3410   25.2481   33.2977 H   0  0  0  0  0  0  0  0  0  0  0  0
   37.0236   27.1400   31.5569 H   0  0  0  0  0  0  0  0  0  0  0  0
   37.8148   24.6301   38.6466 H   0  0  0  0  0  0  0  0  0  0  0  0
   37.8603   26.3512   36.8322 H   0  0  0  0  0  0  0  0  0  0  0  0
   38.5069   21.5514   35.8187 H   0  0  0  0  0  0  0  0  0  0  0  0
   40.6606   27.8644   34.8899 H   0  0  0  0  0  0  0  0  0  0  0  0
   40.2764   26.3022   35.6850 H   0  0  0  0  0  0  0  0  0  0  0  0
   42.4838   26.8034   34.0734 H   0  0  0  0  0  0  0  0  0  0  0  0
   41.3213   25.9991   32.9443 H   0  0  0  0  0  0  0  0  0  0  0  0
   43.7043   23.4064   37.4961 H   0  0  0  0  0  0  0  0  0  0  0  0
   45.9058   24.9203   37.9546 H   0  0  0  0  0  0  0  0  0  0  0  0
   45.9434   26.7987   36.0273 H   0  0  0  0  0  0  0  0  0  0  0  0
  1  8  1  0
  2  1  1  0
  3  4  1  0
  3  2  2  0
  4  5  2  0
  5  1  1  0
  5 12  1  0
  7  6  2  0
  8  7  1  0
  9  8  2  0
  9 10  1  0
 10 11  2  0
 11  6  1  0
 13 14  1  0
 13 12  1  0
 14 15  1  0
 15 16  2  0
 16 17  1  0
 18 17  2  0
 19 15  1  0
 19 18  1  0
  2 20  1  0
  3 21  1  0
  6 22  1  0
  7 23  1  0
 10 24  1  0
 12 25  1  0
 12 26  1  0
 13 27  1  0
 13 28  1  0
 16 29  1  0
 17 30  1  0
 18 31  1  0
M  ISO  8  20  14  21  14  22  14  23  14  24  14  25   8  26   8  27   8
M  ISO  4  28   8  29  14  30  14  31  14
M  END
>  <minimizedAffinity>  (1) 
-4.2478137

>  <minimizedRMSD>  (1) 
5.09777403

$$$$
