
     RDKit          3D

 33 34  0  0  0  0  0  0  0  0999 V2000
   38.5450   24.2850   34.7500 N   0  0  0  0  0  0  0  0  0  0  0  0
   37.9980   23.4560   33.8610 C   0  0  0  0  0  0  0  0  0  0  0  0
   38.0340   24.1140   32.6640 C   0  0  0  0  0  0  0  0  0  0  0  0
   38.6040   25.3360   32.8540 N   0  0  0  0  0  0  0  0  0  0  0  0
   38.9330   25.4350   34.1560 C   0  0  0  0  0  0  0  0  0  0  0  0
   37.9110   23.8050   38.3820 C   0  0  0  0  0  0  0  0  0  0  0  0
   37.6940   24.1950   37.0520 C   0  0  0  0  0  0  0  0  0  0  0  0
   38.6860   23.9110   36.1220 C   0  0  0  0  0  0  0  0  0  0  0  0
   39.7770   23.2750   36.5610 N   0  0  0  0  0  0  0  0  0  0  0  0
   39.9750   22.8870   37.8330 C   0  0  0  0  0  0  0  0  0  0  0  0
   39.0380   23.1550   38.7570 N   0  0  0  0  0  0  0  0  0  0  0  0
   39.5710   26.5110   34.9230 C   0  0  0  0  0  0  0  0  0  0  0  0
   38.5110   27.4070   35.5370 C   0  0  0  0  0  0  0  0  0  0  0  0
   36.9160   27.1650   34.7380 S   0  0  0  0  0  0  0  0  0  0  0  0
   36.5180   28.4390   33.5330 C   0  0  0  0  0  0  0  0  0  0  0  0
   36.0730   27.8950   32.2080 C   0  0  0  0  0  0  0  0  0  0  0  0
   35.5240   29.4360   34.1020 C   0  0  0  0  0  0  0  0  0  0  0  0
   37.5994   22.4487   34.0519 H   0  0  0  0  0  0  0  0  0  0  0  0
   37.6638   23.7215   31.7054 H   0  0  0  0  0  0  0  0  0  0  0  0
   37.1464   24.0330   39.1392 H   0  0  0  0  0  0  0  0  0  0  0  0
   36.7680   24.7092   36.7551 H   0  0  0  0  0  0  0  0  0  0  0  0
   40.8958   22.3550   38.1142 H   0  0  0  0  0  0  0  0  0  0  0  0
   40.1864   26.0733   35.7228 H   0  0  0  0  0  0  0  0  0  0  0  0
   40.2045   27.1082   34.2507 H   0  0  0  0  0  0  0  0  0  0  0  0
   38.4164   27.1704   36.6071 H   0  0  0  0  0  0  0  0  0  0  0  0
   38.8159   28.4547   35.3983 H   0  0  0  0  0  0  0  0  0  0  0  0
   37.4573   28.9725   33.3253 H   0  0  0  0  0  0  0  0  0  0  0  0
   35.3841   27.0529   32.3701 H   0  0  0  0  0  0  0  0  0  0  0  0
   35.5591   28.6853   31.6411 H   0  0  0  0  0  0  0  0  0  0  0  0
   36.9494   27.5479   31.6411 H   0  0  0  0  0  0  0  0  0  0  0  0
   35.5584   29.4015   35.2009 H   0  0  0  0  0  0  0  0  0  0  0  0
   35.7828   30.4485   33.7586 H   0  0  0  0  0  0  0  0  0  0  0  0
   34.5108   29.1802   33.7586 H   0  0  0  0  0  0  0  0  0  0  0  0
  1  8  1  0
  2  1  1  0
  3  4  1  0
  3  2  2  0
  4  5  2  0
  5  1  1  0
  5 12  1  0
  6 11  2  0
  7  6  1  0
  8  9  1  0
  8  7  2  0
  9 10  2  0
 10 11  1  0
 12 13  1  0
 14 13  1  0
 15 17  1  0
 15 14  1  0
 16 15  1  0
  2 18  1  0
  3 19  1  0
  6 20  1  0
  7 21  1  0
 10 22  1  0
 12 23  1  0
 12 24  1  0
 13 25  1  0
 13 26  1  0
 15 27  1  0
 16 28  1  0
 16 29  1  0
 16 30  1  0
 17 31  1  0
 17 32  1  0
 17 33  1  0
M  ISO  8  18  14  19  14  20  14  21  14  22  14  23   8  24   8  25   8
M  ISO  8  26   8  27   8  28   8  29   8  30   8  31   8  32   8  33   8
M  END
>  <minimizedAffinity>  (1) 
-4.11572266

>  <minimizedRMSD>  (1) 
1.38259459

$$$$
