
     RDKit          3D

 36 37  0  0  0  0  0  0  0  0999 V2000
   36.6980   23.3490   32.2510 N   0  0  0  0  0  0  0  0  0  0  0  0
   36.0800   24.3980   31.6910 C   0  0  0  0  0  0  0  0  0  0  0  0
   36.6700   25.5110   32.2440 C   0  0  0  0  0  0  0  0  0  0  0  0
   37.6350   25.1010   33.1280 N   0  0  0  0  0  0  0  0  0  0  0  0
   37.6430   23.7640   33.1250 C   0  0  0  0  0  0  0  0  0  0  0  0
   34.9690   20.0600   32.0940 C   0  0  0  0  0  0  0  0  0  0  0  0
   35.2520   21.3760   32.5090 C   0  0  0  0  0  0  0  0  0  0  0  0
   36.3300   22.0160   31.9020 C   0  0  0  0  0  0  0  0  0  0  0  0
   37.0170   21.3390   30.9710 N   0  0  0  0  0  0  0  0  0  0  0  0
   36.7320   20.0810   30.5860 C   0  0  0  0  0  0  0  0  0  0  0  0
   35.7020   19.4320   31.1490 N   0  0  0  0  0  0  0  0  0  0  0  0
   38.4570   22.7950   33.8660 C   0  0  0  0  0  0  0  0  0  0  0  0
   38.7650   23.3470   35.2520 C   0  0  0  0  0  0  0  0  0  0  0  0
   40.4310   24.0060   35.3420 S   0  0  0  0  0  0  0  0  0  0  0  0
   41.4540   22.7750   36.2160 C   0  0  0  0  0  0  0  0  0  0  0  0
   42.7840   23.3840   36.5880 C   0  0  0  0  0  0  0  0  0  0  0  0
   41.7150   21.6070   35.2890 C   0  0  0  0  0  0  0  0  0  0  0  0
   40.7270   22.2360   37.4310 C   0  0  0  0  0  0  0  0  0  0  0  0
   35.2711   24.3741   30.9459 H   0  0  0  0  0  0  0  0  0  0  0  0
   36.4110   26.5553   32.0153 H   0  0  0  0  0  0  0  0  0  0  0  0
   34.1241   19.5267   32.5542 H   0  0  0  0  0  0  0  0  0  0  0  0
   34.6475   21.8769   33.2795 H   0  0  0  0  0  0  0  0  0  0  0  0
   37.3406   19.5878   29.8137 H   0  0  0  0  0  0  0  0  0  0  0  0
   37.9041   21.8490   33.9624 H   0  0  0  0  0  0  0  0  0  0  0  0
   39.3977   22.6157   33.3248 H   0  0  0  0  0  0  0  0  0  0  0  0
   38.0500   24.1501   35.4839 H   0  0  0  0  0  0  0  0  0  0  0  0
   38.6794   22.5248   35.9777 H   0  0  0  0  0  0  0  0  0  0  0  0
   42.8747   23.4255   37.6835 H   0  0  0  0  0  0  0  0  0  0  0  0
   43.5972   22.7685   36.1758 H   0  0  0  0  0  0  0  0  0  0  0  0
   42.8494   24.4018   36.1758 H   0  0  0  0  0  0  0  0  0  0  0  0
   41.9167   20.7043   35.8844 H   0  0  0  0  0  0  0  0  0  0  0  0
   40.8324   21.4381   34.6545 H   0  0  0  0  0  0  0  0  0  0  0  0
   42.5855   21.8299   34.6545 H   0  0  0  0  0  0  0  0  0  0  0  0
   41.2192   22.6009   38.3446 H   0  0  0  0  0  0  0  0  0  0  0  0
   39.6821   22.5794   37.4153 H   0  0  0  0  0  0  0  0  0  0  0  0
   40.7519   21.1364   37.4153 H   0  0  0  0  0  0  0  0  0  0  0  0
  1  5  1  0
  2  3  2  0
  2  1  1  0
  3  4  1  0
  5  4  2  0
  5 12  1  0
  6  7  2  0
  8  1  1  0
  8  7  1  0
  9  8  2  0
 10  9  1  0
 10 11  2  0
 11  6  1  0
 12 13  1  0
 13 14  1  0
 14 15  1  0
 15 16  1  0
 15 18  1  0
 17 15  1  0
  2 19  1  0
  3 20  1  0
  6 21  1  0
  7 22  1  0
 10 23  1  0
 12 24  1  0
 12 25  1  0
 13 26  1  0
 13 27  1  0
 16 28  1  0
 16 29  1  0
 16 30  1  0
 17 31  1  0
 17 32  1  0
 17 33  1  0
 18 34  1  0
 18 35  1  0
 18 36  1  0
M  ISO  8  19  14  20  14  21  14  22  14  23  14  24   8  25   8  26   8
M  ISO  8  27   8  28   8  29   8  30   8  31   8  32   8  33   8  34   8
M  ISO  2  35   8  36   8
M  END
>  <minimizedAffinity>  (1) 
-3.93010855

>  <minimizedRMSD>  (1) 
6.0342288

$$$$
