
     RDKit          3D

 37 39  0  0  0  0  0  0  0  0999 V2000
   38.8940   24.6030   35.7850 N   0  0  0  0  0  0  0  0  0  0  0  0
   37.9690   25.0280   36.6530 C   0  0  0  0  0  0  0  0  0  0  0  0
   37.8240   24.0220   37.5630 C   0  0  0  0  0  0  0  0  0  0  0  0
   38.6660   23.0080   37.2230 N   0  0  0  0  0  0  0  0  0  0  0  0
   39.3320   23.3720   36.1170 C   0  0  0  0  0  0  0  0  0  0  0  0
   39.1860   26.1280   32.4030 C   0  0  0  0  0  0  0  0  0  0  0  0
   38.7350   25.2840   33.4210 C   0  0  0  0  0  0  0  0  0  0  0  0
   39.2970   25.4300   34.6780 C   0  0  0  0  0  0  0  0  0  0  0  0
   40.2300   26.3660   34.8280 N   0  0  0  0  0  0  0  0  0  0  0  0
   40.6620   27.1740   33.8550 C   0  0  0  0  0  0  0  0  0  0  0  0
   40.1360   27.0570   32.6250 N   0  0  0  0  0  0  0  0  0  0  0  0
   40.3470   22.6960   35.3150 C   0  0  0  0  0  0  0  0  0  0  0  0
   41.6450   22.5700   36.1060 C   0  0  0  0  0  0  0  0  0  0  0  0
   42.7000   23.9990   35.8230 S   0  0  0  0  0  0  0  0  0  0  0  0
   44.2180   23.9270   36.8250 C   0  0  0  0  0  0  0  0  0  0  0  0
   44.4650   25.2750   37.4680 C   0  0  0  0  0  0  0  0  0  0  0  0
   45.9490   25.4720   37.2390 C   0  0  0  0  0  0  0  0  0  0  0  0
   46.0640   25.0200   35.7930 C   0  0  0  0  0  0  0  0  0  0  0  0
   45.4260   23.6330   35.9510 C   0  0  0  0  0  0  0  0  0  0  0  0
   37.4356   25.9899   36.6364 H   0  0  0  0  0  0  0  0  0  0  0  0
   37.1418   24.0291   38.4259 H   0  0  0  0  0  0  0  0  0  0  0  0
   38.7548   26.0316   31.3956 H   0  0  0  0  0  0  0  0  0  0  0  0
   37.9588   24.5283   33.2301 H   0  0  0  0  0  0  0  0  0  0  0  0
   41.4388   27.9256   34.0592 H   0  0  0  0  0  0  0  0  0  0  0  0
   40.5339   23.2774   34.4001 H   0  0  0  0  0  0  0  0  0  0  0  0
   39.9868   21.6901   35.0535 H   0  0  0  0  0  0  0  0  0  0  0  0
   41.4096   22.5011   37.1783 H   0  0  0  0  0  0  0  0  0  0  0  0
   42.1762   21.6657   35.7741 H   0  0  0  0  0  0  0  0  0  0  0  0
   44.0847   23.1359   37.5776 H   0  0  0  0  0  0  0  0  0  0  0  0
   43.8774   26.0647   36.9769 H   0  0  0  0  0  0  0  0  0  0  0  0
   44.1722   25.3190   38.5274 H   0  0  0  0  0  0  0  0  0  0  0  0
   46.2432   26.5249   37.3607 H   0  0  0  0  0  0  0  0  0  0  0  0
   46.5988   24.9315   37.9430 H   0  0  0  0  0  0  0  0  0  0  0  0
   47.1097   24.9617   35.4567 H   0  0  0  0  0  0  0  0  0  0  0  0
   45.6040   25.6802   35.0430 H   0  0  0  0  0  0  0  0  0  0  0  0
   45.1219   23.2216   34.9772 H   0  0  0  0  0  0  0  0  0  0  0  0
   46.1064   22.8825   36.3797 H   0  0  0  0  0  0  0  0  0  0  0  0
  1  5  1  0
  1  2  1  0
  2  3  2  0
  4  3  1  0
  5  4  2  0
  6 11  2  0
  6  7  1  0
  7  8  2  0
  8  9  1  0
  8  1  1  0
 10  9  2  0
 11 10  1  0
 12 13  1  0
 12  5  1  0
 14 13  1  0
 14 15  1  0
 15 16  1  0
 17 16  1  0
 18 19  1  0
 18 17  1  0
 19 15  1  0
  2 20  1  0
  3 21  1  0
  6 22  1  0
  7 23  1  0
 10 24  1  0
 12 25  1  0
 12 26  1  0
 13 27  1  0
 13 28  1  0
 15 29  1  0
 16 30  1  0
 16 31  1  0
 17 32  1  0
 17 33  1  0
 18 34  1  0
 18 35  1  0
 19 36  1  0
 19 37  1  0
M  ISO  8  20  14  21  14  22  14  23  14  24  14  25   8  26   8  27   8
M  ISO  8  28   8  29  13  30  13  31  13  32  13  33  13  34  13  35  13
M  ISO  2  36  13  37  13
M  END
>  <minimizedAffinity>  (1) 
-3.78501177

>  <minimizedRMSD>  (1) 
6.82184172

$$$$
