
     RDKit          3D

 36 38  0  0  1  0  0  0  0  0999 V2000
   38.5600   24.2720   34.7570 N   0  0  0  0  0  0  0  0  0  0  0  0
   37.9950   23.4430   33.8660 C   0  0  0  0  0  0  0  0  0  0  0  0
   38.0270   24.1020   32.6740 C   0  0  0  0  0  0  0  0  0  0  0  0
   38.6120   25.3280   32.8540 N   0  0  0  0  0  0  0  0  0  0  0  0
   38.9400   25.4220   34.1560 C   0  0  0  0  0  0  0  0  0  0  0  0
   37.9140   23.7670   38.3830 C   0  0  0  0  0  0  0  0  0  0  0  0
   37.6990   24.1720   37.0510 C   0  0  0  0  0  0  0  0  0  0  0  0
   38.6940   23.8970   36.1280 C   0  0  0  0  0  0  0  0  0  0  0  0
   39.7860   23.2680   36.5680 N   0  0  0  0  0  0  0  0  0  0  0  0
   39.9880   22.8840   37.8380 C   0  0  0  0  0  0  0  0  0  0  0  0
   39.0480   23.1340   38.7550 N   0  0  0  0  0  0  0  0  0  0  0  0
   39.5820   26.4840   34.9230 C   0  0  0  0  0  0  0  0  0  0  0  0
   38.5410   27.3810   35.5570 C   0  0  0  0  0  0  0  0  0  0  0  0
   36.9220   27.1210   34.7820 S   0  0  0  0  0  0  0  0  0  0  0  0
   36.9610   27.9500   32.1830 N   0  0  0  0  0  0  0  0  0  0  0  0
   36.0830   28.7520   31.3550 C   0  0  0  0  0  0  0  0  0  0  0  0
   35.0290   29.3560   32.2380 C   0  0  0  0  0  0  0  0  0  0  0  0
   35.5010   29.1310   33.6600 C   0  0  0  0  0  0  0  0  0  0  0  0
   36.8120   28.4320   33.5300 C   0  0  1  0  0  0  0  0  0  0  0  0
   37.5897   22.4386   34.0583 H   0  0  0  0  0  0  0  0  0  0  0  0
   37.6442   23.7121   31.7193 H   0  0  0  0  0  0  0  0  0  0  0  0
   37.1404   23.9710   39.1379 H   0  0  0  0  0  0  0  0  0  0  0  0
   36.7739   24.6882   36.7547 H   0  0  0  0  0  0  0  0  0  0  0  0
   40.9176   22.3688   38.1215 H   0  0  0  0  0  0  0  0  0  0  0  0
   40.2034   26.0360   35.7124 H   0  0  0  0  0  0  0  0  0  0  0  0
   40.2062   27.0855   34.2458 H   0  0  0  0  0  0  0  0  0  0  0  0
   38.4698   27.1506   36.6302 H   0  0  0  0  0  0  0  0  0  0  0  0
   38.8400   28.4298   35.4134 H   0  0  0  0  0  0  0  0  0  0  0  0
   37.9374   28.0576   31.8733 H   0  0  0  0  0  0  0  0  0  0  0  0
   36.6598   29.5498   30.8642 H   0  0  0  0  0  0  0  0  0  0  0  0
   35.6167   28.1274   30.5788 H   0  0  0  0  0  0  0  0  0  0  0  0
   34.9291   30.4322   32.0336 H   0  0  0  0  0  0  0  0  0  0  0  0
   34.0439   28.8993   32.0620 H   0  0  0  0  0  0  0  0  0  0  0  0
   35.6258   30.0914   34.1817 H   0  0  0  0  0  0  0  0  0  0  0  0
   34.7780   28.5440   34.2455 H   0  0  0  0  0  0  0  0  0  0  0  0
   37.6490   29.1207   33.7172 H   0  0  0  0  0  0  0  0  0  0  0  0
  1  8  1  0
  2  1  1  0
  3  4  1  0
  3  2  2  0
  4  5  2  0
  5  1  1  0
  5 12  1  0
  6 11  2  0
  7  6  1  0
  8  9  1  0
  8  7  2  0
  9 10  2  0
 10 11  1  0
 12 13  1  0
 14 13  1  0
 15 19  1  0
 16 15  1  0
 16 17  1  0
 17 18  1  0
 19 18  1  0
 19 14  1  0
  2 20  1  0
  3 21  1  0
  6 22  1  0
  7 23  1  0
 10 24  1  0
 12 25  1  0
 12 26  1  0
 13 27  1  0
 13 28  1  0
 15 29  1  0
 16 30  1  0
 16 31  1  0
 17 32  1  0
 17 33  1  0
 18 34  1  0
 18 35  1  0
 19 36  1  1
M  ISO  8  20  14  21  14  22  14  23  14  24  14  25   8  26   8  27   8
M  ISO  8  28   8  29   5  30  13  31  13  32  13  33  13  34  13  35  13
M  ISO  1  36  13
M  END
>  <minimizedAffinity>  (1) 
-4.30267477

>  <minimizedRMSD>  (1) 
1.0480808

$$$$
