
     RDKit          3D

 43 46  0  0  1  0  0  0  0  0999 V2000
   38.6000   24.6830   33.7260 C   0  0  0  0  0  0  0  0  0  0  0  0
   37.7930   22.6260   34.7820 N   0  0  0  0  0  0  0  0  0  0  0  0
   37.1520   21.4910   34.5030 C   0  0  0  0  0  0  0  0  0  0  0  0
   36.8780   21.5510   33.1680 C   0  0  0  0  0  0  0  0  0  0  0  0
   37.3620   22.7340   32.6510 N   0  0  0  0  0  0  0  0  0  0  0  0
   37.9280   23.3900   33.6670 C   0  0  0  0  0  0  0  0  0  0  0  0
   37.9650   23.8060   38.3050 C   0  0  0  0  0  0  0  0  0  0  0  0
   37.4430   23.5740   37.0180 C   0  0  0  0  0  0  0  0  0  0  0  0
   38.2410   22.9040   36.1150 C   0  0  0  0  0  0  0  0  0  0  0  0
   39.4520   22.5240   36.5320 N   0  0  0  0  0  0  0  0  0  0  0  0
   39.9460   22.7460   37.7590 C   0  0  0  0  0  0  0  0  0  0  0  0
   39.2010   23.3890   38.6530 N   0  0  0  0  0  0  0  0  0  0  0  0
   37.5810   25.7850   33.9170 C   0  0  0  0  0  0  0  0  0  0  0  0
   36.7800   26.1860   32.3720 S   0  0  0  0  0  0  0  0  0  0  0  0
   34.9440   28.1600   32.1320 N   0  0  0  0  0  0  0  0  0  0  0  0
   34.4780   29.2480   32.9750 C   0  0  0  0  0  0  0  0  0  0  0  0
   35.3630   29.3170   34.1690 C   0  0  0  0  0  0  0  0  0  0  0  0
   36.5270   28.4020   33.8770 C   0  0  0  0  0  0  0  0  0  0  0  0
   36.3390   27.9420   32.4760 C   0  0  1  0  0  0  0  0  0  0  0  0
   37.1380   28.7930   31.5440 C   0  0  0  0  0  0  0  0  0  0  0  0
   38.1570   28.2630   30.6120 C   0  0  0  0  0  0  0  0  0  0  0  0
   36.9260   28.9060   30.0770 C   0  0  0  0  0  0  0  0  0  0  0  0
   39.1485   24.8521   32.7876 H   0  0  0  0  0  0  0  0  0  0  0  0
   39.3017   24.6880   34.5731 H   0  0  0  0  0  0  0  0  0  0  0  0
   36.8981   20.6792   35.2005 H   0  0  0  0  0  0  0  0  0  0  0  0
   36.3519   20.7750   32.5926 H   0  0  0  0  0  0  0  0  0  0  0  0
   37.3507   24.3400   39.0449 H   0  0  0  0  0  0  0  0  0  0  0  0
   36.4342   23.9152   36.7427 H   0  0  0  0  0  0  0  0  0  0  0  0
   40.9563   22.3999   38.0227 H   0  0  0  0  0  0  0  0  0  0  0  0
   36.8221   25.4525   34.6406 H   0  0  0  0  0  0  0  0  0  0  0  0
   38.0984   26.6820   34.2882 H   0  0  0  0  0  0  0  0  0  0  0  0
   34.8583   28.4175   31.1384 H   0  0  0  0  0  0  0  0  0  0  0  0
   34.5253   30.1966   32.4201 H   0  0  0  0  0  0  0  0  0  0  0  0
   33.4360   29.0741   33.2816 H   0  0  0  0  0  0  0  0  0  0  0  0
   35.7161   30.3472   34.3241 H   0  0  0  0  0  0  0  0  0  0  0  0
   34.8312   29.0136   35.0829 H   0  0  0  0  0  0  0  0  0  0  0  0
   37.4772   28.9471   33.9769 H   0  0  0  0  0  0  0  0  0  0  0  0
   36.5633   27.5562   34.5794 H   0  0  0  0  0  0  0  0  0  0  0  0
   37.1284   29.5093   32.3788 H   0  0  0  0  0  0  0  0  0  0  0  0
   39.1286   28.7693   30.5140 H   0  0  0  0  0  0  0  0  0  0  0  0
   38.6495   27.2896   30.4707 H   0  0  0  0  0  0  0  0  0  0  0  0
   36.9865   29.8883   29.5856 H   0  0  0  0  0  0  0  0  0  0  0  0
   36.1304   28.6072   29.3786 H   0  0  0  0  0  0  0  0  0  0  0  0
  1 13  1  0
  2  9  1  0
  3  2  1  0
  4  3  2  0
  5  4  1  0
  5  6  2  0
  6  1  1  0
  6  2  1  0
  7 12  2  0
  8  7  1  0
  9 10  1  0
  9  8  2  0
 10 11  2  0
 11 12  1  0
 14 13  1  0
 15 19  1  0
 15 16  1  0
 16 17  1  0
 18 17  1  0
 19 14  1  1
 19 18  1  0
 20 19  1  0
 21 20  1  0
 22 21  1  0
 22 20  1  0
  1 23  1  0
  1 24  1  0
  3 25  1  0
  4 26  1  0
  7 27  1  0
  8 28  1  0
 11 29  1  0
 13 30  1  0
 13 31  1  0
 15 32  1  0
 16 33  1  0
 16 34  1  0
 17 35  1  0
 17 36  1  0
 18 37  1  0
 18 38  1  0
 20 39  1  0
 21 40  1  0
 21 41  1  0
 22 42  1  0
 22 43  1  0
M  ISO  8  23   8  24   8  25  14  26  14  27  14  28  14  29  14  30   8
M  ISO  8  31   8  32   5  33  13  34  13  35  13  36  13  37  13  38  13
M  ISO  5  39  13  40  13  41  13  42  13  43  13
M  END
>  <minimizedAffinity>  (1) 
-4.74798059

>  <minimizedRMSD>  (1) 
2.07098889

$$$$
