
     RDKit          3D

 42 44  0  0  1  0  0  0  0  0999 V2000
   38.6560   24.5340   33.6420 C   0  0  0  0  0  0  0  0  0  0  0  0
   37.7820   22.5680   34.7700 N   0  0  0  0  0  0  0  0  0  0  0  0
   37.1000   21.4370   34.5310 C   0  0  0  0  0  0  0  0  0  0  0  0
   36.8260   21.4410   33.2040 C   0  0  0  0  0  0  0  0  0  0  0  0
   37.3420   22.5710   32.6490 N   0  0  0  0  0  0  0  0  0  0  0  0
   37.9350   23.2640   33.6320 C   0  0  0  0  0  0  0  0  0  0  0  0
   37.9480   23.8830   38.2460 C   0  0  0  0  0  0  0  0  0  0  0  0
   37.4390   23.6090   36.9610 C   0  0  0  0  0  0  0  0  0  0  0  0
   38.2300   22.8830   36.0850 C   0  0  0  0  0  0  0  0  0  0  0  0
   39.4200   22.5030   36.5390 N   0  0  0  0  0  0  0  0  0  0  0  0
   39.9100   22.7600   37.7580 C   0  0  0  0  0  0  0  0  0  0  0  0
   39.1730   23.4540   38.6190 N   0  0  0  0  0  0  0  0  0  0  0  0
   38.3700   25.3070   32.3900 C   0  0  0  0  0  0  0  0  0  0  0  0
   36.6200   25.7020   32.2350 S   0  0  0  0  0  0  0  0  0  0  0  0
   35.2670   28.0800   32.1350 N   0  0  0  0  0  0  0  0  0  0  0  0
   35.0490   29.1630   33.0890 C   0  0  0  0  0  0  0  0  0  0  0  0
   35.9290   28.9410   34.2700 C   0  0  0  0  0  0  0  0  0  0  0  0
   36.8330   27.7700   33.9250 C   0  0  0  0  0  0  0  0  0  0  0  0
   36.5160   27.5010   32.4580 C   0  0  1  0  0  0  0  0  0  0  0  0
   37.6200   28.2540   31.7280 C   0  0  0  0  0  0  0  0  0  0  0  0
   37.3910   28.3760   30.2580 C   0  0  0  0  0  0  0  0  0  0  0  0
   38.3374   25.1248   34.5135 H   0  0  0  0  0  0  0  0  0  0  0  0
   39.7357   24.3310   33.6972 H   0  0  0  0  0  0  0  0  0  0  0  0
   36.8206   20.6647   35.2628 H   0  0  0  0  0  0  0  0  0  0  0  0
   36.2754   20.6574   32.6629 H   0  0  0  0  0  0  0  0  0  0  0  0
   37.3366   24.4566   38.9581 H   0  0  0  0  0  0  0  0  0  0  0  0
   36.4411   23.9617   36.6614 H   0  0  0  0  0  0  0  0  0  0  0  0
   40.9100   22.4013   38.0434 H   0  0  0  0  0  0  0  0  0  0  0  0
   38.9463   26.2437   32.4101 H   0  0  0  0  0  0  0  0  0  0  0  0
   38.6582   24.6847   31.5299 H   0  0  0  0  0  0  0  0  0  0  0  0
   35.2853   28.4512   31.1744 H   0  0  0  0  0  0  0  0  0  0  0  0
   35.2960   30.1263   32.6188 H   0  0  0  0  0  0  0  0  0  0  0  0
   33.9951   29.1797   33.4038 H   0  0  0  0  0  0  0  0  0  0  0  0
   36.5314   29.8397   34.4685 H   0  0  0  0  0  0  0  0  0  0  0  0
   35.3358   28.7313   35.1723 H   0  0  0  0  0  0  0  0  0  0  0  0
   37.8918   28.0377   34.0565 H   0  0  0  0  0  0  0  0  0  0  0  0
   36.6662   26.8937   34.5687 H   0  0  0  0  0  0  0  0  0  0  0  0
   37.6907   29.2658   32.1538 H   0  0  0  0  0  0  0  0  0  0  0  0
   38.5467   27.6769   31.8626 H   0  0  0  0  0  0  0  0  0  0  0  0
   36.4334   28.8862   30.0772 H   0  0  0  0  0  0  0  0  0  0  0  0
   38.2077   28.9585   29.8068 H   0  0  0  0  0  0  0  0  0  0  0  0
   37.3631   27.3732   29.8068 H   0  0  0  0  0  0  0  0  0  0  0  0
  2  9  1  0
  3  2  1  0
  4  3  2  0
  5  4  1  0
  5  6  2  0
  6  1  1  0
  6  2  1  0
  7 12  2  0
  8  7  1  0
  9 10  1  0
  9  8  2  0
 10 11  2  0
 11 12  1  0
 13  1  1  0
 14 13  1  0
 19 14  1  1
 15 19  1  0
 15 16  1  0
 16 17  1  0
 18 17  1  0
 19 20  1  0
 19 18  1  0
 21 20  1  0
  1 22  1  0
  1 23  1  0
  3 24  1  0
  4 25  1  0
  7 26  1  0
  8 27  1  0
 11 28  1  0
 13 29  1  0
 13 30  1  0
 15 31  1  0
 16 32  1  0
 16 33  1  0
 17 34  1  0
 17 35  1  0
 18 36  1  0
 18 37  1  0
 20 38  1  0
 20 39  1  0
 21 40  1  0
 21 41  1  0
 21 42  1  0
M  ISO  8  22   8  23   8  24  14  25  14  26  14  27  14  28  14  29   8
M  ISO  8  30   8  31   5  32  13  33  13  34  13  35  13  36  13  37  13
M  ISO  5  38   8  39   8  40   8  41   8  42   8
M  END
>  <minimizedAffinity>  (1) 
-4.50392818

>  <minimizedRMSD>  (1) 
2.17000747

$$$$
