
     RDKit          3D

 37 39  0  0  1  0  0  0  0  0999 V2000
   38.1810   26.5430   34.6380 C   0  0  0  0  0  0  0  0  0  0  0  0
   38.0430   24.1050   34.5330 N   0  0  0  0  0  0  0  0  0  0  0  0
   37.7840   23.1090   33.6750 C   0  0  0  0  0  0  0  0  0  0  0  0
   37.5110   23.7060   32.4830 C   0  0  0  0  0  0  0  0  0  0  0  0
   37.6080   25.0530   32.6360 N   0  0  0  0  0  0  0  0  0  0  0  0
   37.9380   25.2990   33.9070 C   0  0  0  0  0  0  0  0  0  0  0  0
   37.9310   23.8990   38.2460 C   0  0  0  0  0  0  0  0  0  0  0  0
   37.5310   24.1990   36.9280 C   0  0  0  0  0  0  0  0  0  0  0  0
   38.3730   23.8370   35.9010 C   0  0  0  0  0  0  0  0  0  0  0  0
   39.5130   23.2230   36.2290 N   0  0  0  0  0  0  0  0  0  0  0  0
   39.8900   22.9380   37.4910 C   0  0  0  0  0  0  0  0  0  0  0  0
   39.0950   23.2780   38.5030 N   0  0  0  0  0  0  0  0  0  0  0  0
   36.8920   27.2720   34.8580 C   0  0  0  0  0  0  0  0  0  0  0  0
   36.4270   28.2640   33.4220 S   0  0  0  0  0  0  0  0  0  0  0  0
   35.6420   30.8750   33.2510 N   0  0  0  0  0  0  0  0  0  0  0  0
   34.3880   31.5810   33.5000 C   0  0  0  0  0  0  0  0  0  0  0  0
   33.4300   30.6300   34.1330 C   0  0  0  0  0  0  0  0  0  0  0  0
   34.2250   29.3840   34.4750 C   0  0  0  0  0  0  0  0  0  0  0  0
   35.6580   29.7600   34.1240 C   0  0  1  0  0  0  0  0  0  0  0  0
   36.2000   30.1060   35.3720 O   0  0  0  0  0  0  0  0  0  0  0  0
   38.8638   27.1793   34.0559 H   0  0  0  0  0  0  0  0  0  0  0  0
   38.6304   26.3049   35.6134 H   0  0  0  0  0  0  0  0  0  0  0  0
   37.7907   22.0302   33.8900 H   0  0  0  0  0  0  0  0  0  0  0  0
   37.2541   23.1843   31.5493 H   0  0  0  0  0  0  0  0  0  0  0  0
   37.2754   24.1796   39.0835 H   0  0  0  0  0  0  0  0  0  0  0  0
   36.5760   24.7064   36.7266 H   0  0  0  0  0  0  0  0  0  0  0  0
   40.8460   22.4290   37.6831 H   0  0  0  0  0  0  0  0  0  0  0  0
   36.0972   26.5377   35.0556 H   0  0  0  0  0  0  0  0  0  0  0  0
   37.0255   27.9509   35.7131 H   0  0  0  0  0  0  0  0  0  0  0  0
   35.6842   30.5600   32.2712 H   0  0  0  0  0  0  0  0  0  0  0  0
   34.5679   32.4311   34.1745 H   0  0  0  0  0  0  0  0  0  0  0  0
   33.9741   31.9609   32.5543 H   0  0  0  0  0  0  0  0  0  0  0  0
   33.0032   31.0713   35.0458 H   0  0  0  0  0  0  0  0  0  0  0  0
   32.5947   30.3965   33.4564 H   0  0  0  0  0  0  0  0  0  0  0  0
   34.1340   29.1422   35.5442 H   0  0  0  0  0  0  0  0  0  0  0  0
   33.8740   28.4933   33.9333 H   0  0  0  0  0  0  0  0  0  0  0  0
   35.6280   29.7409   36.0929 H   0  0  0  0  0  0  0  0  0  0  0  0
  1 13  1  0
  2  9  1  0
  3  2  1  0
  4  5  1  0
  4  3  2  0
  5  6  2  0
  6  2  1  0
  6  1  1  0
  7 12  2  0
  8  7  1  0
  9 10  1  0
  9  8  2  0
 10 11  2  0
 11 12  1  0
 14 13  1  0
 15 16  1  0
 15 19  1  0
 16 17  1  0
 17 18  1  0
 19 14  1  0
 19 18  1  0
 19 20  1  1
  1 21  1  0
  1 22  1  0
  3 23  1  0
  4 24  1  0
  7 25  1  0
  8 26  1  0
 11 27  1  0
 13 28  1  0
 13 29  1  0
 15 30  1  0
 16 31  1  0
 16 32  1  0
 17 33  1  0
 17 34  1  0
 18 35  1  0
 18 36  1  0
 20 37  1  0
M  ISO  8  21   8  22   8  23  14  24  14  25  14  26  14  27  14  28   8
M  ISO  8  29   8  30   5  31  13  32  13  33  13  34  13  35  13  36  13
M  ISO  1  37   3
M  END
>  <minimizedAffinity>  (1) 
-4.20918036

>  <minimizedRMSD>  (1) 
1.70514274

$$$$
