
     RDKit          3D

 39 41  0  0  1  0  0  0  0  0999 V2000
   38.1610   26.5620   34.6660 C   0  0  0  0  0  0  0  0  0  0  0  0
   38.0420   24.1360   34.5460 N   0  0  0  0  0  0  0  0  0  0  0  0
   37.7950   23.1400   33.6830 C   0  0  0  0  0  0  0  0  0  0  0  0
   37.5190   23.7370   32.4930 C   0  0  0  0  0  0  0  0  0  0  0  0
   37.6020   25.0910   32.6450 N   0  0  0  0  0  0  0  0  0  0  0  0
   37.9280   25.3280   33.9250 C   0  0  0  0  0  0  0  0  0  0  0  0
   37.9180   23.9160   38.2580 C   0  0  0  0  0  0  0  0  0  0  0  0
   37.5250   24.2260   36.9330 C   0  0  0  0  0  0  0  0  0  0  0  0
   38.3670   23.8610   35.9070 C   0  0  0  0  0  0  0  0  0  0  0  0
   39.5030   23.2380   36.2370 N   0  0  0  0  0  0  0  0  0  0  0  0
   39.8880   22.9390   37.4890 C   0  0  0  0  0  0  0  0  0  0  0  0
   39.0860   23.2810   38.5100 N   0  0  0  0  0  0  0  0  0  0  0  0
   36.8760   27.3100   34.8560 C   0  0  0  0  0  0  0  0  0  0  0  0
   36.4660   28.3030   33.3980 S   0  0  0  0  0  0  0  0  0  0  0  0
   35.5200   30.8570   33.1700 N   0  0  0  0  0  0  0  0  0  0  0  0
   34.2370   31.4970   33.3980 C   0  0  0  0  0  0  0  0  0  0  0  0
   33.3120   30.4820   34.0140 C   0  0  0  0  0  0  0  0  0  0  0  0
   34.1880   29.3090   34.4210 C   0  0  0  0  0  0  0  0  0  0  0  0
   35.5930   29.7530   34.0620 C   0  0  1  0  0  0  0  0  0  0  0  0
   36.1940   30.2260   35.3740 C   0  0  0  0  0  0  0  0  0  0  0  0
   38.8677   27.1925   34.1064 H   0  0  0  0  0  0  0  0  0  0  0  0
   38.5765   26.3115   35.6532 H   0  0  0  0  0  0  0  0  0  0  0  0
   37.8121   22.0607   33.8945 H   0  0  0  0  0  0  0  0  0  0  0  0
   37.2691   23.2133   31.5585 H   0  0  0  0  0  0  0  0  0  0  0  0
   37.2629   24.1961   39.0960 H   0  0  0  0  0  0  0  0  0  0  0  0
   36.5755   24.7429   36.7300 H   0  0  0  0  0  0  0  0  0  0  0  0
   40.8421   22.4238   37.6740 H   0  0  0  0  0  0  0  0  0  0  0  0
   36.0656   26.5886   35.0368 H   0  0  0  0  0  0  0  0  0  0  0  0
   36.9944   27.9881   35.7140 H   0  0  0  0  0  0  0  0  0  0  0  0
   35.5849   30.5302   32.1954 H   0  0  0  0  0  0  0  0  0  0  0  0
   34.3620   32.3505   34.0806 H   0  0  0  0  0  0  0  0  0  0  0  0
   33.8208   31.8660   32.4490 H   0  0  0  0  0  0  0  0  0  0  0  0
   32.8099   30.9078   34.8952 H   0  0  0  0  0  0  0  0  0  0  0  0
   32.5266   30.1725   33.3087 H   0  0  0  0  0  0  0  0  0  0  0  0
   34.1038   29.1151   35.5005 H   0  0  0  0  0  0  0  0  0  0  0  0
   33.9001   28.3735   33.9190 H   0  0  0  0  0  0  0  0  0  0  0  0
   35.6350   29.7861   36.2131 H   0  0  0  0  0  0  0  0  0  0  0  0
   37.2466   29.9115   35.4296 H   0  0  0  0  0  0  0  0  0  0  0  0
   36.1357   31.3230   35.4296 H   0  0  0  0  0  0  0  0  0  0  0  0
  1 13  1  0
  2  9  1  0
  3  2  1  0
  4  5  1  0
  4  3  2  0
  5  6  2  0
  6  2  1  0
  6  1  1  0
  7 12  2  0
  8  7  1  0
  9 10  1  0
  9  8  2  0
 10 11  2  0
 11 12  1  0
 19 14  1  6
 14 13  1  0
 15 16  1  0
 15 19  1  0
 16 17  1  0
 17 18  1  0
 19 18  1  0
 19 20  1  0
  1 21  1  0
  1 22  1  0
  3 23  1  0
  4 24  1  0
  7 25  1  0
  8 26  1  0
 11 27  1  0
 13 28  1  0
 13 29  1  0
 15 30  1  0
 16 31  1  0
 16 32  1  0
 17 33  1  0
 17 34  1  0
 18 35  1  0
 18 36  1  0
 20 37  1  0
 20 38  1  0
 20 39  1  0
M  ISO  8  21   8  22   8  23  14  24  14  25  14  26  14  27  14  28   8
M  ISO  8  29   8  30   5  31  13  32  13  33  13  34  13  35  13  36  13
M  ISO  3  37   8  38   8  39   8
M  END
>  <minimizedAffinity>  (1) 
-4.16394091

>  <minimizedRMSD>  (1) 
1.70714509

$$$$
