
     RDKit          3D

 27 29  0  0  0  0  0  0  0  0999 V2000
   38.1410   24.0720   35.2560 N   0  0  0  0  0  0  0  0  0  0  0  0
   38.1600   25.0170   36.2230 C   0  0  0  0  0  0  0  0  0  0  0  0
   37.7530   26.1920   35.6930 N   0  0  0  0  0  0  0  0  0  0  0  0
   37.4770   25.9970   34.3920 C   0  0  0  0  0  0  0  0  0  0  0  0
   37.0320   26.9270   33.4800 C   0  0  0  0  0  0  0  0  0  0  0  0
   36.8290   28.1290   33.7970 O   0  0  0  0  0  0  0  0  0  0  0  0
   36.8140   26.5210   32.2180 N   0  0  0  0  0  0  0  0  0  0  0  0
   37.0450   25.2270   31.9240 C   0  0  0  0  0  0  0  0  0  0  0  0
   36.8260   24.7520   30.5940 N   0  0  0  0  0  0  0  0  0  0  0  0
   37.4830   24.3050   32.8220 N   0  0  0  0  0  0  0  0  0  0  0  0
   37.7200   24.6660   34.1160 C   0  0  0  0  0  0  0  0  0  0  0  0
   38.4840   22.6550   35.2980 C   0  0  0  0  0  0  0  0  0  0  0  0
   41.6640   22.0060   37.2540 C   0  0  0  0  0  0  0  0  0  0  0  0
   40.3050   22.0190   36.9190 C   0  0  0  0  0  0  0  0  0  0  0  0
   39.9170   22.6080   35.7130 C   0  0  0  0  0  0  0  0  0  0  0  0
   40.9080   23.1400   34.9310 N   0  0  0  0  0  0  0  0  0  0  0  0
   42.2020   23.1160   35.2720 C   0  0  0  0  0  0  0  0  0  0  0  0
   42.5730   22.5460   36.4380 N   0  0  0  0  0  0  0  0  0  0  0  0
   38.4579   24.8559   37.2696 H   0  0  0  0  0  0  0  0  0  0  0  0
   36.4809   27.1783   31.4983 H   0  0  0  0  0  0  0  0  0  0  0  0
   37.0014   23.7632   30.3649 H   0  0  0  0  0  0  0  0  0  0  0  0
   36.4928   25.3984   29.8646 H   0  0  0  0  0  0  0  0  0  0  0  0
   37.8537   22.1277   36.0292 H   0  0  0  0  0  0  0  0  0  0  0  0
   38.3225   22.1653   34.3263 H   0  0  0  0  0  0  0  0  0  0  0  0
   41.9868   21.5460   38.1996 H   0  0  0  0  0  0  0  0  0  0  0  0
   39.5572   21.5742   37.5920 H   0  0  0  0  0  0  0  0  0  0  0  0
   42.9582   23.5579   34.6065 H   0  0  0  0  0  0  0  0  0  0  0  0
  1 12  1  0
  1  2  1  0
  3  2  2  0
  4  3  1  0
  5  6  2  0
  5  4  1  0
  7  5  1  0
  8  7  1  0
  8 10  2  0
  9  8  1  0
 10 11  1  0
 11  4  2  0
 11  1  1  0
 12 15  1  0
 14 13  2  0
 15 14  1  0
 16 17  1  0
 16 15  2  0
 17 18  2  0
 18 13  1  0
  2 19  1  0
  7 20  1  0
  9 21  1  0
  9 22  1  0
 12 23  1  0
 12 24  1  0
 13 25  1  0
 14 26  1  0
 17 27  1  0
M  ISO  7  19  14  20   9  23   8  24   8  25  14  26  14  27  14
M  END
>  <minimizedAffinity>  (1) 
-4.14098835

>  <minimizedRMSD>  (1) 
3.1861217

$$$$
