
     RDKit          3D

 22 23  0  0  0  0  0  0  0  0999 V2000
   37.7300   24.0240   36.8130 C   0  0  0  0  0  0  0  0  0  0  0  0
   40.8900   22.0960   37.6220 C   0  0  0  0  0  0  0  0  0  0  0  0
   39.7250   22.8460   37.8110 C   0  0  0  0  0  0  0  0  0  0  0  0
   38.9840   23.2220   36.6820 C   0  0  0  0  0  0  0  0  0  0  0  0
   39.4450   22.8320   35.4540 N   0  0  0  0  0  0  0  0  0  0  0  0
   40.5790   22.1060   35.3200 C   0  0  0  0  0  0  0  0  0  0  0  0
   41.2920   21.7440   36.4000 N   0  0  0  0  0  0  0  0  0  0  0  0
   37.8540   25.2270   35.9490 C   0  0  0  0  0  0  0  0  0  0  0  0
   38.3810   26.4350   36.3920 C   0  0  0  0  0  0  0  0  0  0  0  0
   38.4770   27.5350   35.5430 C   0  0  0  0  0  0  0  0  0  0  0  0
   38.0240   27.3770   34.2330 C   0  0  0  0  0  0  0  0  0  0  0  0
   37.5020   26.1810   33.7950 C   0  0  0  0  0  0  0  0  0  0  0  0
   37.4410   25.1670   34.6700 N   0  0  0  0  0  0  0  0  0  0  0  0
   36.8678   23.4217   36.4908 H   0  0  0  0  0  0  0  0  0  0  0  0
   37.5789   24.3233   37.8606 H   0  0  0  0  0  0  0  0  0  0  0  0
   41.4848   21.7913   38.4957 H   0  0  0  0  0  0  0  0  0  0  0  0
   39.3980   23.1339   38.8210 H   0  0  0  0  0  0  0  0  0  0  0  0
   40.9205   21.8093   34.3173 H   0  0  0  0  0  0  0  0  0  0  0  0
   38.7284   26.5236   37.4319 H   0  0  0  0  0  0  0  0  0  0  0  0
   38.8939   28.4913   35.8919 H   0  0  0  0  0  0  0  0  0  0  0  0
   38.0852   28.2256   33.5358 H   0  0  0  0  0  0  0  0  0  0  0  0
   37.1465   26.0611   32.7609 H   0  0  0  0  0  0  0  0  0  0  0  0
  2  3  2  0
  4  1  1  0
  4  3  1  0
  5  4  2  0
  6  5  1  0
  6  7  2  0
  7  2  1  0
  8  9  2  0
  8  1  1  0
 10  9  1  0
 11 10  2  0
 12 11  1  0
 12 13  2  0
 13  8  1  0
  1 14  1  0
  1 15  1  0
  2 16  1  0
  3 17  1  0
  6 18  1  0
  9 19  1  0
 10 20  1  0
 11 21  1  0
 12 22  1  0
M  ISO  8  14   8  15   8  16  14  17  14  18  14  19  14  20  14  21  14
M  ISO  1  22  14
M  END
>  <minimizedAffinity>  (1) 
-3.77110648

>  <minimizedRMSD>  (1) 
2.33179522

$$$$
