
     RDKit          3D

 26 28  0  0  0  0  0  0  0  0999 V2000
   38.3750   24.9290   34.4500 C   0  0  0  0  0  0  0  0  0  0  0  0
   37.6620   22.7410   37.4650 C   0  0  0  0  0  0  0  0  0  0  0  0
   37.8660   23.1020   36.1240 C   0  0  0  0  0  0  0  0  0  0  0  0
   38.1410   24.4460   35.8560 C   0  0  0  0  0  0  0  0  0  0  0  0
   38.1940   25.3260   36.9130 N   0  0  0  0  0  0  0  0  0  0  0  0
   37.9910   24.9330   38.1780 C   0  0  0  0  0  0  0  0  0  0  0  0
   37.7240   23.6340   38.4460 N   0  0  0  0  0  0  0  0  0  0  0  0
   39.6210   25.6400   34.3460 N   0  0  0  0  0  0  0  0  0  0  0  0
   39.6140   26.9240   33.8970 C   0  0  0  0  0  0  0  0  0  0  0  0
   40.8670   27.4250   33.8670 N   0  0  0  0  0  0  0  0  0  0  0  0
   41.6690   26.4270   34.3070 C   0  0  0  0  0  0  0  0  0  0  0  0
   43.0420   26.2640   34.5220 C   0  0  0  0  0  0  0  0  0  0  0  0
   43.5590   25.1240   34.9780 N   0  0  0  0  0  0  0  0  0  0  0  0
   42.7290   24.0990   35.2400 C   0  0  0  0  0  0  0  0  0  0  0  0
   41.3760   24.1450   35.0690 N   0  0  0  0  0  0  0  0  0  0  0  0
   40.8930   25.3060   34.6090 C   0  0  0  0  0  0  0  0  0  0  0  0
   43.7870   27.4560   34.1920 N   0  0  0  0  0  0  0  0  0  0  0  0
   38.3981   24.0630   33.7721 H   0  0  0  0  0  0  0  0  0  0  0  0
   37.5588   25.6137   34.1760 H   0  0  0  0  0  0  0  0  0  0  0  0
   37.4451   21.6908   37.7098 H   0  0  0  0  0  0  0  0  0  0  0  0
   37.8116   22.3571   35.3164 H   0  0  0  0  0  0  0  0  0  0  0  0
   38.0414   25.6654   38.9972 H   0  0  0  0  0  0  0  0  0  0  0  0
   38.7114   27.4778   33.5993 H   0  0  0  0  0  0  0  0  0  0  0  0
   43.1689   23.1636   35.6162 H   0  0  0  0  0  0  0  0  0  0  0  0
   44.8107   27.4712   34.3046 H   0  0  0  0  0  0  0  0  0  0  0  0
   43.2947   28.2911   33.8440 H   0  0  0  0  0  0  0  0  0  0  0  0
  1  4  1  0
  2  7  2  0
  3  2  1  0
  4  3  2  0
  4  5  1  0
  5  6  2  0
  6  7  1  0
  8  1  1  0
  8 16  1  0
  9  8  1  0
 10  9  2  0
 10 11  1  0
 11 12  2  0
 11 16  1  0
 12 13  1  0
 13 14  2  0
 15 14  1  0
 16 15  2  0
 17 12  1  0
  1 18  1  0
  1 19  1  0
  2 20  1  0
  3 21  1  0
  6 22  1  0
  9 23  1  0
 14 24  1  0
 17 25  1  0
 17 26  1  0
M  ISO  7  18   8  19   8  20  14  21  14  22  14  23  14  24  14
M  END
>  <minimizedAffinity>  (1) 
-3.7639389

>  <minimizedRMSD>  (1) 
7.95862627

$$$$
