
     RDKit          3D

 20 21  0  0  0  0  0  0  0  0999 V2000
   37.6750   23.7380   36.6860 C   0  0  0  0  0  0  0  0  0  0  0  0
   38.5980   27.2720   35.6920 C   0  0  0  0  0  0  0  0  0  0  0  0
   38.3310   26.1580   36.5030 C   0  0  0  0  0  0  0  0  0  0  0  0
   37.9720   24.9610   35.8800 C   0  0  0  0  0  0  0  0  0  0  0  0
   37.8980   24.9360   34.5090 N   0  0  0  0  0  0  0  0  0  0  0  0
   38.1620   26.0240   33.7700 C   0  0  0  0  0  0  0  0  0  0  0  0
   38.5080   27.1840   34.3530 N   0  0  0  0  0  0  0  0  0  0  0  0
   38.9400   23.0300   36.8990 N   0  0  0  0  0  0  0  0  0  0  0  0
   39.4620   22.2980   35.9160 N   0  0  0  0  0  0  0  0  0  0  0  0
   40.6190   21.7380   36.3260 C   0  0  0  0  0  0  0  0  0  0  0  0
   40.7950   22.1690   37.6400 C   0  0  0  0  0  0  0  0  0  0  0  0
   39.7250   22.9760   37.9660 C   0  0  0  0  0  0  0  0  0  0  0  0
   36.9706   23.0919   36.1416 H   0  0  0  0  0  0  0  0  0  0  0  0
   37.2183   24.0112   37.6487 H   0  0  0  0  0  0  0  0  0  0  0  0
   38.8839   28.2272   36.1565 H   0  0  0  0  0  0  0  0  0  0  0  0
   38.4025   26.2260   37.5986 H   0  0  0  0  0  0  0  0  0  0  0  0
   38.0944   25.9658   32.6736 H   0  0  0  0  0  0  0  0  0  0  0  0
   41.2831   21.0803   35.7460 H   0  0  0  0  0  0  0  0  0  0  0  0
   41.6370   21.9114   38.2993 H   0  0  0  0  0  0  0  0  0  0  0  0
   39.5551   23.4795   38.9291 H   0  0  0  0  0  0  0  0  0  0  0  0
  1  8  1  0
  2  3  2  0
  4  3  1  0
  4  1  1  0
  5  4  2  0
  6  7  2  0
  6  5  1  0
  7  2  1  0
  8 12  1  0
  9 10  2  0
  9  8  1  0
 10 11  1  0
 11 12  2  0
  1 13  1  0
  1 14  1  0
  2 15  1  0
  3 16  1  0
  6 17  1  0
 10 18  1  0
 11 19  1  0
 12 20  1  0
M  ISO  8  13   8  14   8  15  14  16  14  17  14  18  14  19  14  20  14
M  END
>  <minimizedAffinity>  (1) 
-3.44787312

>  <minimizedRMSD>  (1) 
4.47385406

$$$$
