
     RDKit          3D

 32 35  0  0  0  0  0  0  0  0999 V2000
   40.9160   25.1760   34.6290 C   0  0  0  0  0  0  0  0  0  0  0  0
   41.0590   26.5120   34.5170 N   0  0  0  0  0  0  0  0  0  0  0  0
   42.3240   26.7680   34.6010 O   0  0  0  0  0  0  0  0  0  0  0  0
   43.0130   25.6570   34.7630 C   0  0  0  0  0  0  0  0  0  0  0  0
   42.1360   24.6420   34.7830 N   0  0  0  0  0  0  0  0  0  0  0  0
   44.4660   25.8420   34.8700 C   0  0  0  0  0  0  0  0  0  0  0  0
   45.2940   26.0920   33.8290 N   0  0  0  0  0  0  0  0  0  0  0  0
   46.6130   26.2580   33.9430 C   0  0  0  0  0  0  0  0  0  0  0  0
   47.2390   26.1890   35.1270 N   0  0  0  0  0  0  0  0  0  0  0  0
   46.4930   25.9420   36.2320 C   0  0  0  0  0  0  0  0  0  0  0  0
   47.1440   25.8720   37.4430 C   0  0  0  0  0  0  0  0  0  0  0  0
   46.4310   25.6220   38.5970 C   0  0  0  0  0  0  0  0  0  0  0  0
   45.0640   25.4510   38.4760 C   0  0  0  0  0  0  0  0  0  0  0  0
   44.4790   25.5320   37.2400 C   0  0  0  0  0  0  0  0  0  0  0  0
   45.1340   25.7750   36.0750 C   0  0  0  0  0  0  0  0  0  0  0  0
   39.6610   24.3870   34.5980 C   0  0  0  0  0  0  0  0  0  0  0  0
   37.9390   24.3040   37.9780 C   0  0  0  0  0  0  0  0  0  0  0  0
   38.2260   24.6620   36.6680 C   0  0  0  0  0  0  0  0  0  0  0  0
   39.3010   24.0360   36.0220 C   0  0  0  0  0  0  0  0  0  0  0  0
   40.0210   23.1000   36.7060 N   0  0  0  0  0  0  0  0  0  0  0  0
   39.7010   22.7840   37.9830 C   0  0  0  0  0  0  0  0  0  0  0  0
   38.6670   23.3880   38.6050 N   0  0  0  0  0  0  0  0  0  0  0  0
   47.2053   26.4576   33.0378 H   0  0  0  0  0  0  0  0  0  0  0  0
   48.2336   26.0155   37.4904 H   0  0  0  0  0  0  0  0  0  0  0  0
   46.9302   25.5610   39.5753 H   0  0  0  0  0  0  0  0  0  0  0  0
   44.4503   25.2512   39.3667 H   0  0  0  0  0  0  0  0  0  0  0  0
   43.3897   25.3885   37.1865 H   0  0  0  0  0  0  0  0  0  0  0  0
   38.8554   24.9831   34.1444 H   0  0  0  0  0  0  0  0  0  0  0  0
   39.7959   23.4739   33.9996 H   0  0  0  0  0  0  0  0  0  0  0  0
   37.0996   24.7843   38.5021 H   0  0  0  0  0  0  0  0  0  0  0  0
   37.6228   25.4207   36.1479 H   0  0  0  0  0  0  0  0  0  0  0  0
   40.2907   22.0262   38.5197 H   0  0  0  0  0  0  0  0  0  0  0  0
  1  5  1  0
  2  3  1  0
  2  1  2  0
  3  4  1  0
  4  5  2  0
  4  6  1  0
  6 15  2  0
  7  8  2  0
  7  6  1  0
  8  9  1  0
  9 10  2  0
 10 11  1  0
 11 12  2  0
 13 12  1  0
 14 13  2  0
 15 10  1  0
 15 14  1  0
 16  1  1  0
 16 19  1  0
 17 22  2  0
 18 17  1  0
 19 18  2  0
 19 20  1  0
 20 21  2  0
 21 22  1  0
  8 23  1  0
 11 24  1  0
 12 25  1  0
 13 26  1  0
 14 27  1  0
 16 28  1  0
 16 29  1  0
 17 30  1  0
 18 31  1  0
 21 32  1  0
M  ISO  8  23  14  24  14  25  14  26  14  27  14  28   8  29   8  30  14
M  ISO  2  31  14  32  14
M  END
>  <minimizedAffinity>  (1) 
-5.25702238

>  <minimizedRMSD>  (1) 
3.96500421

$$$$
