
     RDKit          3D

 29 32  0  0  0  0  0  0  0  0999 V2000
   41.2120   24.9820   34.6940 C   0  0  0  0  0  0  0  0  0  0  0  0
   41.5260   26.2580   34.3690 N   0  0  0  0  0  0  0  0  0  0  0  0
   42.8100   26.4150   34.5640 O   0  0  0  0  0  0  0  0  0  0  0  0
   43.3110   25.2860   34.9990 C   0  0  0  0  0  0  0  0  0  0  0  0
   42.3400   24.3470   35.0980 N   0  0  0  0  0  0  0  0  0  0  0  0
   44.6440   24.8820   35.3730 N   0  0  0  0  0  0  0  0  0  0  0  0
   45.6760   24.3080   34.7250 C   0  0  0  0  0  0  0  0  0  0  0  0
   46.6910   24.1540   35.5640 N   0  0  0  0  0  0  0  0  0  0  0  0
   46.3840   24.6140   36.7930 C   0  0  0  0  0  0  0  0  0  0  0  0
   47.0210   24.7120   38.0140 C   0  0  0  0  0  0  0  0  0  0  0  0
   46.4210   25.2430   39.0990 N   0  0  0  0  0  0  0  0  0  0  0  0
   45.1480   25.6840   38.9400 C   0  0  0  0  0  0  0  0  0  0  0  0
   44.5100   25.5980   37.7590 N   0  0  0  0  0  0  0  0  0  0  0  0
   45.0710   25.0730   36.6440 C   0  0  0  0  0  0  0  0  0  0  0  0
   39.8650   24.3640   34.6260 C   0  0  0  0  0  0  0  0  0  0  0  0
   37.9560   24.3180   37.8890 C   0  0  0  0  0  0  0  0  0  0  0  0
   38.3270   24.6630   36.5970 C   0  0  0  0  0  0  0  0  0  0  0  0
   39.4220   24.0300   36.0160 C   0  0  0  0  0  0  0  0  0  0  0  0
   40.0910   23.0890   36.7500 N   0  0  0  0  0  0  0  0  0  0  0  0
   39.7080   22.7750   38.0010 C   0  0  0  0  0  0  0  0  0  0  0  0
   38.6480   23.3890   38.5590 N   0  0  0  0  0  0  0  0  0  0  0  0
   45.6766   24.0131   33.6653 H   0  0  0  0  0  0  0  0  0  0  0  0
   48.0537   24.3443   38.1051 H   0  0  0  0  0  0  0  0  0  0  0  0
   44.6230   26.1241   39.8007 H   0  0  0  0  0  0  0  0  0  0  0  0
   39.1556   25.0708   34.1708 H   0  0  0  0  0  0  0  0  0  0  0  0
   39.9010   23.4510   34.0135 H   0  0  0  0  0  0  0  0  0  0  0  0
   37.0927   24.8084   38.3626 H   0  0  0  0  0  0  0  0  0  0  0  0
   37.7636   25.4260   36.0399 H   0  0  0  0  0  0  0  0  0  0  0  0
   40.2628   22.0141   38.5696 H   0  0  0  0  0  0  0  0  0  0  0  0
  1  5  1  0
  2  3  1  0
  2  1  2  0
  3  4  1  0
  4  5  2  0
  4  6  1  0
  6 14  1  0
  7  6  1  0
  7  8  2  0
  8  9  1  0
  9 10  2  0
 10 11  1  0
 12 11  2  0
 13 12  1  0
 14  9  1  0
 14 13  2  0
 15  1  1  0
 15 18  1  0
 16 21  2  0
 17 16  1  0
 18 17  2  0
 18 19  1  0
 19 20  2  0
 20 21  1  0
  7 22  1  0
 10 23  1  0
 12 24  1  0
 15 25  1  0
 15 26  1  0
 16 27  1  0
 17 28  1  0
 20 29  1  0
M  ISO  8  22  14  23  14  24  14  25   8  26   8  27  14  28  14  29  14
M  END
>  <minimizedAffinity>  (1) 
-5.0097146

>  <minimizedRMSD>  (1) 
3.52486706

$$$$
