
     RDKit          3D

 28 30  0  0  0  0  0  0  0  0999 V2000
   40.4900   25.3520   34.5760 C   0  0  0  0  0  0  0  0  0  0  0  0
   40.5040   26.6640   34.2570 N   0  0  0  0  0  0  0  0  0  0  0  0
   41.7580   27.0540   34.2920 O   0  0  0  0  0  0  0  0  0  0  0  0
   42.5170   26.0340   34.6200 C   0  0  0  0  0  0  0  0  0  0  0  0
   41.7590   24.9280   34.8120 N   0  0  0  0  0  0  0  0  0  0  0  0
   43.9000   26.3920   34.6760 N   0  0  0  0  0  0  0  0  0  0  0  0
   44.5640   27.2220   33.8470 C   0  0  0  0  0  0  0  0  0  0  0  0
   45.9100   27.4380   34.0740 C   0  0  0  0  0  0  0  0  0  0  0  0
   46.5560   26.8210   35.1250 C   0  0  0  0  0  0  0  0  0  0  0  0
   47.7740   27.0410   35.2990 O   0  0  0  0  0  0  0  0  0  0  0  0
   45.8510   26.0030   35.9240 N   0  0  0  0  0  0  0  0  0  0  0  0
   44.5320   25.7910   35.7000 C   0  0  0  0  0  0  0  0  0  0  0  0
   44.0380   25.0000   36.5460 O   0  0  0  0  0  0  0  0  0  0  0  0
   39.2890   24.4860   34.6640 C   0  0  0  0  0  0  0  0  0  0  0  0
   37.9390   24.3710   38.1980 C   0  0  0  0  0  0  0  0  0  0  0  0
   38.1010   24.7520   36.8740 C   0  0  0  0  0  0  0  0  0  0  0  0
   39.0730   24.1100   36.1070 C   0  0  0  0  0  0  0  0  0  0  0  0
   39.8230   23.1350   36.6920 N   0  0  0  0  0  0  0  0  0  0  0  0
   39.6470   22.7860   37.9770 C   0  0  0  0  0  0  0  0  0  0  0  0
   38.7050   23.4060   38.7220 N   0  0  0  0  0  0  0  0  0  0  0  0
   44.0473   27.7152   33.0105 H   0  0  0  0  0  0  0  0  0  0  0  0
   46.4726   28.1097   33.4089 H   0  0  0  0  0  0  0  0  0  0  0  0
   46.3171   25.5332   36.7133 H   0  0  0  0  0  0  0  0  0  0  0  0
   38.4107   25.0308   34.2874 H   0  0  0  0  0  0  0  0  0  0  0  0
   39.4332   23.5801   34.0569 H   0  0  0  0  0  0  0  0  0  0  0  0
   37.1776   24.8640   38.8203 H   0  0  0  0  0  0  0  0  0  0  0  0
   37.4753   25.5446   36.4378 H   0  0  0  0  0  0  0  0  0  0  0  0
   40.2692   21.9960   38.4228 H   0  0  0  0  0  0  0  0  0  0  0  0
  1 14  1  0
  1  5  1  0
  2  3  1  0
  2  1  2  0
  3  4  1  0
  4  6  1  0
  4  5  2  0
  6 12  1  0
  7  8  2  0
  7  6  1  0
  8  9  1  0
  9 10  2  0
  9 11  1  0
 12 11  1  0
 12 13  2  0
 14 17  1  0
 15 20  2  0
 16 15  1  0
 17 18  1  0
 17 16  2  0
 18 19  2  0
 19 20  1  0
  7 21  1  0
  8 22  1  0
 11 23  1  0
 14 24  1  0
 14 25  1  0
 15 26  1  0
 16 27  1  0
 19 28  1  0
M  ISO  8  21  14  22  14  23   9  24   8  25   8  26  14  27  14  28  14
M  END
>  <minimizedAffinity>  (1) 
-4.55707598

>  <minimizedRMSD>  (1) 
2.36602664

$$$$
