
     RDKit          3D

 31 33  0  0  0  0  0  0  0  0999 V2000
   39.5380   25.3770   34.3800 C   0  0  0  0  0  0  0  0  0  0  0  0
   39.1910   26.6250   33.9990 N   0  0  0  0  0  0  0  0  0  0  0  0
   40.2960   27.3050   33.8130 O   0  0  0  0  0  0  0  0  0  0  0  0
   41.3190   26.5260   34.0660 C   0  0  0  0  0  0  0  0  0  0  0  0
   40.8850   25.2950   34.4290 N   0  0  0  0  0  0  0  0  0  0  0  0
   42.7260   26.7970   34.0090 N   0  0  0  0  0  0  0  0  0  0  0  0
   43.6840   26.3020   34.8130 C   0  0  0  0  0  0  0  0  0  0  0  0
   45.0010   26.6840   34.6000 C   0  0  0  0  0  0  0  0  0  0  0  0
   46.0230   26.1230   35.4980 C   0  0  0  0  0  0  0  0  0  0  0  0
   45.3560   27.5490   33.5960 C   0  0  0  0  0  0  0  0  0  0  0  0
   46.5840   27.8440   33.4750 O   0  0  0  0  0  0  0  0  0  0  0  0
   44.3590   28.0250   32.8100 N   0  0  0  0  0  0  0  0  0  0  0  0
   43.0850   27.6520   33.0180 C   0  0  0  0  0  0  0  0  0  0  0  0
   42.2720   28.1880   32.1930 O   0  0  0  0  0  0  0  0  0  0  0  0
   38.6110   24.2620   34.7000 C   0  0  0  0  0  0  0  0  0  0  0  0
   37.9650   24.3100   38.4220 C   0  0  0  0  0  0  0  0  0  0  0  0
   37.8410   24.6170   37.0720 C   0  0  0  0  0  0  0  0  0  0  0  0
   38.6900   23.9780   36.1670 C   0  0  0  0  0  0  0  0  0  0  0  0
   39.5970   23.0840   36.6470 N   0  0  0  0  0  0  0  0  0  0  0  0
   39.6900   22.8090   37.9640 C   0  0  0  0  0  0  0  0  0  0  0  0
   38.8630   23.4320   38.8440 N   0  0  0  0  0  0  0  0  0  0  0  0
   43.4279   25.6062   35.6256 H   0  0  0  0  0  0  0  0  0  0  0  0
   45.7229   26.2877   36.5434 H   0  0  0  0  0  0  0  0  0  0  0  0
   46.1228   25.0436   35.3109 H   0  0  0  0  0  0  0  0  0  0  0  0
   46.9872   26.6183   35.3109 H   0  0  0  0  0  0  0  0  0  0  0  0
   44.5804   28.6791   32.0458 H   0  0  0  0  0  0  0  0  0  0  0  0
   37.5827   24.5474   34.4331 H   0  0  0  0  0  0  0  0  0  0  0  0
   38.8927   23.3650   34.1290 H   0  0  0  0  0  0  0  0  0  0  0  0
   37.3068   24.8041   39.1519 H   0  0  0  0  0  0  0  0  0  0  0  0
   37.0927   25.3451   36.7257 H   0  0  0  0  0  0  0  0  0  0  0  0
   40.4331   22.0826   38.3248 H   0  0  0  0  0  0  0  0  0  0  0  0
  1  5  1  0
  1 15  1  0
  2  1  2  0
  3  2  1  0
  3  4  1  0
  4  5  2  0
  6  4  1  0
  6  7  1  0
  8  7  2  0
  8  9  1  0
 10  8  1  0
 11 10  2  0
 12 13  1  0
 12 10  1  0
 13  6  1  0
 14 13  2  0
 15 18  1  0
 16 21  2  0
 17 16  1  0
 18 19  1  0
 18 17  2  0
 19 20  2  0
 20 21  1  0
  7 22  1  0
  9 23  1  0
  9 24  1  0
  9 25  1  0
 12 26  1  0
 15 27  1  0
 15 28  1  0
 16 29  1  0
 17 30  1  0
 20 31  1  0
M  ISO  8  22  14  23   8  24   8  25   8  26   9  27   8  28   8  29  14
M  ISO  2  30  14  31  14
M  END
>  <minimizedAffinity>  (1) 
-4.48775244

>  <minimizedRMSD>  (1) 
2.05806279

$$$$
