
     RDKit          3D

 29 31  0  0  0  0  0  0  0  0999 V2000
   40.2130   25.3380   34.5390 C   0  0  0  0  0  0  0  0  0  0  0  0
   40.1520   26.6320   34.1530 N   0  0  0  0  0  0  0  0  0  0  0  0
   41.3660   27.1000   34.1160 O   0  0  0  0  0  0  0  0  0  0  0  0
   42.1970   26.1380   34.4690 C   0  0  0  0  0  0  0  0  0  0  0  0
   41.5060   25.0060   34.7450 N   0  0  0  0  0  0  0  0  0  0  0  0
   43.6070   26.3300   34.5280 N   0  0  0  0  0  0  0  0  0  0  0  0
   44.1440   25.6100   35.5560 C   0  0  0  0  0  0  0  0  0  0  0  0
   45.5130   25.6450   35.8070 C   0  0  0  0  0  0  0  0  0  0  0  0
   46.3030   26.4260   34.9880 C   0  0  0  0  0  0  0  0  0  0  0  0
   47.7110   26.5110   35.1830 N   0  0  0  0  0  0  0  0  0  0  0  0
   45.7260   27.1040   34.0040 N   0  0  0  0  0  0  0  0  0  0  0  0
   44.4020   27.0740   33.7580 C   0  0  0  0  0  0  0  0  0  0  0  0
   43.7860   27.6880   32.8470 O   0  0  0  0  0  0  0  0  0  0  0  0
   39.0710   24.4190   34.7160 C   0  0  0  0  0  0  0  0  0  0  0  0
   37.9280   24.3620   38.3210 C   0  0  0  0  0  0  0  0  0  0  0  0
   38.0020   24.7220   36.9780 C   0  0  0  0  0  0  0  0  0  0  0  0
   38.9390   24.0790   36.1750 C   0  0  0  0  0  0  0  0  0  0  0  0
   39.7540   23.1190   36.7300 N   0  0  0  0  0  0  0  0  0  0  0  0
   39.6450   22.8080   38.0320 C   0  0  0  0  0  0  0  0  0  0  0  0
   38.7390   23.4230   38.8220 N   0  0  0  0  0  0  0  0  0  0  0  0
   43.4890   24.9964   36.1920 H   0  0  0  0  0  0  0  0  0  0  0  0
   45.9520   25.0672   36.6337 H   0  0  0  0  0  0  0  0  0  0  0  0
   48.2825   27.0998   34.5604 H   0  0  0  0  0  0  0  0  0  0  0  0
   48.1579   25.9837   35.9466 H   0  0  0  0  0  0  0  0  0  0  0  0
   38.1485   24.9050   34.3655 H   0  0  0  0  0  0  0  0  0  0  0  0
   39.2385   23.5009   34.1337 H   0  0  0  0  0  0  0  0  0  0  0  0
   37.1952   24.8547   38.9770 H   0  0  0  0  0  0  0  0  0  0  0  0
   37.3375   25.4941   36.5629 H   0  0  0  0  0  0  0  0  0  0  0  0
   40.3046   22.0397   38.4618 H   0  0  0  0  0  0  0  0  0  0  0  0
  1 14  1  0
  1  5  1  0
  2  1  2  0
  3  2  1  0
  3  4  1  0
  4  6  1  0
  4  5  2  0
  6  7  1  0
  7  8  2  0
  9 10  1  0
  9  8  1  0
 11  9  2  0
 12 11  1  0
 12  6  1  0
 13 12  2  0
 14 17  1  0
 15 20  2  0
 16 15  1  0
 17 18  1  0
 17 16  2  0
 18 19  2  0
 19 20  1  0
  7 21  1  0
  8 22  1  0
 10 23  1  0
 10 24  1  0
 14 25  1  0
 14 26  1  0
 15 27  1  0
 16 28  1  0
 19 29  1  0
M  ISO  7  21  14  22  14  25   8  26   8  27  14  28  14  29  14
M  END
>  <minimizedAffinity>  (1) 
-4.40782928

>  <minimizedRMSD>  (1) 
2.29027081

$$$$
