
     RDKit          3D

 31 33  0  0  0  0  0  0  0  0999 V2000
   39.1590   24.6530   34.7170 C   0  0  0  0  0  0  0  0  0  0  0  0
   40.4220   25.4170   34.6250 C   0  0  0  0  0  0  0  0  0  0  0  0
   40.5910   26.7540   34.4350 N   0  0  0  0  0  0  0  0  0  0  0  0
   41.8780   26.9860   34.4190 O   0  0  0  0  0  0  0  0  0  0  0  0
   42.5210   25.8540   34.5910 C   0  0  0  0  0  0  0  0  0  0  0  0
   41.6440   24.8250   34.7270 N   0  0  0  0  0  0  0  0  0  0  0  0
   43.9640   25.9760   34.5930 N   0  0  0  0  0  0  0  0  0  0  0  0
   44.4570   26.9670   33.6540 C   0  0  0  0  0  0  0  0  0  0  0  0
   45.4210   27.8490   34.4610 C   0  0  0  0  0  0  0  0  0  0  0  0
   46.4450   26.9950   34.9250 O   0  0  0  0  0  0  0  0  0  0  0  0
   45.9240   26.2190   35.9500 C   0  0  0  0  0  0  0  0  0  0  0  0
   44.9230   25.2420   35.3820 C   0  0  0  0  0  0  0  0  0  0  0  0
   37.9210   24.3430   38.2760 C   0  0  0  0  0  0  0  0  0  0  0  0
   38.0180   24.8170   36.9600 C   0  0  0  0  0  0  0  0  0  0  0  0
   38.9770   24.2180   36.1380 C   0  0  0  0  0  0  0  0  0  0  0  0
   39.7730   23.2080   36.6370 N   0  0  0  0  0  0  0  0  0  0  0  0
   39.6290   22.7950   37.9200 C   0  0  0  0  0  0  0  0  0  0  0  0
   38.7110   23.3570   38.7290 N   0  0  0  0  0  0  0  0  0  0  0  0
   39.2087   23.7712   34.0612 H   0  0  0  0  0  0  0  0  0  0  0  0
   38.3123   25.2797   34.4004 H   0  0  0  0  0  0  0  0  0  0  0  0
   43.6258   27.5683   33.2572 H   0  0  0  0  0  0  0  0  0  0  0  0
   44.9544   26.5009   32.7907 H   0  0  0  0  0  0  0  0  0  0  0  0
   45.8434   28.6369   33.8201 H   0  0  0  0  0  0  0  0  0  0  0  0
   44.9049   28.3450   35.2962 H   0  0  0  0  0  0  0  0  0  0  0  0
   46.7380   25.6660   36.4414 H   0  0  0  0  0  0  0  0  0  0  0  0
   45.4262   26.8685   36.6851 H   0  0  0  0  0  0  0  0  0  0  0  0
   44.4074   24.7203   36.2018 H   0  0  0  0  0  0  0  0  0  0  0  0
   45.4364   24.4981   34.7551 H   0  0  0  0  0  0  0  0  0  0  0  0
   37.1791   24.7903   38.9539 H   0  0  0  0  0  0  0  0  0  0  0  0
   37.3684   25.6243   36.5908 H   0  0  0  0  0  0  0  0  0  0  0  0
   40.2711   21.9894   38.3057 H   0  0  0  0  0  0  0  0  0  0  0  0
  1 15  1  0
  2  1  1  0
  2  6  1  0
  3  2  2  0
  4  3  1  0
  4  5  1  0
  5  7  1  0
  5  6  2  0
  7 12  1  0
  8  9  1  0
  8  7  1  0
  9 10  1  0
 10 11  1  0
 12 11  1  0
 13 18  2  0
 14 13  1  0
 15 16  1  0
 15 14  2  0
 16 17  2  0
 17 18  1  0
  1 19  1  0
  1 20  1  0
  8 21  1  0
  8 22  1  0
  9 23  1  0
  9 24  1  0
 11 25  1  0
 11 26  1  0
 12 27  1  0
 12 28  1  0
 13 29  1  0
 14 30  1  0
 17 31  1  0
M  ISO  8  19   8  20   8  21  13  22  13  23  13  24  13  25  13  26  13
M  ISO  5  27  13  28  13  29  14  30  14  31  14
M  END
>  <minimizedAffinity>  (1) 
-4.30124712

>  <minimizedRMSD>  (1) 
1.80492604

$$$$
