
     RDKit          3D

 32 34  0  0  0  0  0  0  0  0999 V2000
   38.8440   24.6360   34.7580 C   0  0  0  0  0  0  0  0  0  0  0  0
   40.0480   25.4730   34.5260 C   0  0  0  0  0  0  0  0  0  0  0  0
   40.0680   26.8280   34.4300 N   0  0  0  0  0  0  0  0  0  0  0  0
   41.3160   27.1800   34.2230 O   0  0  0  0  0  0  0  0  0  0  0  0
   42.0520   26.1080   34.1890 C   0  0  0  0  0  0  0  0  0  0  0  0
   41.3100   24.9920   34.3740 N   0  0  0  0  0  0  0  0  0  0  0  0
   43.4610   26.0830   33.9860 N   0  0  0  0  0  0  0  0  0  0  0  0
   44.1950   24.8360   33.9650 C   0  0  0  0  0  0  0  0  0  0  0  0
   45.5820   25.0220   34.5390 C   0  0  0  0  0  0  0  0  0  0  0  0
   45.5220   26.1210   35.4790 N   0  0  0  0  0  0  0  0  0  0  0  0
   45.3450   27.4060   34.8280 C   0  0  0  0  0  0  0  0  0  0  0  0
   44.2460   27.2690   33.7900 C   0  0  0  0  0  0  0  0  0  0  0  0
   37.9710   24.2900   38.4150 C   0  0  0  0  0  0  0  0  0  0  0  0
   37.9400   24.7370   37.0990 C   0  0  0  0  0  0  0  0  0  0  0  0
   38.8330   24.1940   36.1840 C   0  0  0  0  0  0  0  0  0  0  0  0
   39.7010   23.2410   36.6270 N   0  0  0  0  0  0  0  0  0  0  0  0
   39.7110   22.8250   37.9070 C   0  0  0  0  0  0  0  0  0  0  0  0
   38.8470   23.3520   38.7930 N   0  0  0  0  0  0  0  0  0  0  0  0
   38.8727   23.7562   34.0984 H   0  0  0  0  0  0  0  0  0  0  0  0
   37.9364   25.2181   34.5400 H   0  0  0  0  0  0  0  0  0  0  0  0
   43.6538   24.0884   34.5635 H   0  0  0  0  0  0  0  0  0  0  0  0
   44.2863   24.4970   32.9225 H   0  0  0  0  0  0  0  0  0  0  0  0
   45.9009   24.1042   35.0546 H   0  0  0  0  0  0  0  0  0  0  0  0
   46.3059   25.2365   33.7391 H   0  0  0  0  0  0  0  0  0  0  0  0
   44.7305   25.9642   36.1192 H   0  0  0  0  0  0  0  0  0  0  0  0
   45.0604   28.1639   35.5728 H   0  0  0  0  0  0  0  0  0  0  0  0
   46.2833   27.7185   34.3464 H   0  0  0  0  0  0  0  0  0  0  0  0
   44.7049   27.2292   32.7911 H   0  0  0  0  0  0  0  0  0  0  0  0
   43.5776   28.1370   33.8887 H   0  0  0  0  0  0  0  0  0  0  0  0
   37.2701   24.7106   39.1510 H   0  0  0  0  0  0  0  0  0  0  0  0
   37.2201   25.5081   36.7874 H   0  0  0  0  0  0  0  0  0  0  0  0
   40.4262   22.0536   38.2287 H   0  0  0  0  0  0  0  0  0  0  0  0
  1 15  1  0
  2  1  1  0
  3  2  2  0
  4  3  1  0
  5  4  1  0
  5  6  2  0
  6  2  1  0
  7  5  1  0
  8  7  1  0
  8  9  1  0
  9 10  1  0
 11 10  1  0
 12  7  1  0
 12 11  1  0
 13 18  2  0
 14 13  1  0
 15 16  1  0
 15 14  2  0
 16 17  2  0
 17 18  1  0
  1 19  1  0
  1 20  1  0
  8 21  1  0
  8 22  1  0
  9 23  1  0
  9 24  1  0
 10 25  1  0
 11 26  1  0
 11 27  1  0
 12 28  1  0
 12 29  1  0
 13 30  1  0
 14 31  1  0
 17 32  1  0
M  ISO  8  19   8  20   8  21  13  22  13  23  13  24  13  25   5  26  13
M  ISO  6  27  13  28  13  29  13  30  14  31  14  32  14
M  END
>  <minimizedAffinity>  (1) 
-4.2182107

>  <minimizedRMSD>  (1) 
1.49395239

$$$$
