
     RDKit          3D

 25 27  0  0  0  0  0  0  0  0999 V2000
   38.9590   24.4870   34.6260 C   0  0  0  0  0  0  0  0  0  0  0  0
   37.9660   24.3150   38.2690 C   0  0  0  0  0  0  0  0  0  0  0  0
   37.9780   24.7060   36.9390 C   0  0  0  0  0  0  0  0  0  0  0  0
   38.9000   24.1040   36.0770 C   0  0  0  0  0  0  0  0  0  0  0  0
   39.7460   23.1640   36.5820 N   0  0  0  0  0  0  0  0  0  0  0  0
   39.6990   22.8150   37.8870 C   0  0  0  0  0  0  0  0  0  0  0  0
   38.8180   23.3850   38.7200 N   0  0  0  0  0  0  0  0  0  0  0  0
   40.0300   25.4840   34.4470 C   0  0  0  0  0  0  0  0  0  0  0  0
   39.8720   26.8150   34.2740 N   0  0  0  0  0  0  0  0  0  0  0  0
   41.0660   27.3390   34.1540 O   0  0  0  0  0  0  0  0  0  0  0  0
   41.9570   26.3930   34.2440 C   0  0  0  0  0  0  0  0  0  0  0  0
   41.3610   25.1900   34.4320 N   0  0  0  0  0  0  0  0  0  0  0  0
   43.4030   26.6110   34.1550 C   0  0  0  0  0  0  0  0  0  0  0  0
   44.3230   25.7720   33.5550 C   0  0  0  0  0  0  0  0  0  0  0  0
   45.5760   26.2550   33.6410 N   0  0  0  0  0  0  0  0  0  0  0  0
   45.4390   27.4300   34.3130 C   0  0  0  0  0  0  0  0  0  0  0  0
   44.1280   27.6440   34.6240 N   0  0  0  0  0  0  0  0  0  0  0  0
   39.1749   23.5973   34.0162 H   0  0  0  0  0  0  0  0  0  0  0  0
   37.9943   24.9100   34.3090 H   0  0  0  0  0  0  0  0  0  0  0  0
   37.2472   24.7747   38.9632 H   0  0  0  0  0  0  0  0  0  0  0  0
   37.2791   25.4714   36.5706 H   0  0  0  0  0  0  0  0  0  0  0  0
   40.3934   22.0528   38.2702 H   0  0  0  0  0  0  0  0  0  0  0  0
   44.0619   24.8222   33.0653 H   0  0  0  0  0  0  0  0  0  0  0  0
   46.2657   28.1092   34.5686 H   0  0  0  0  0  0  0  0  0  0  0  0
   43.7555   28.4588   35.1321 H   0  0  0  0  0  0  0  0  0  0  0  0
  1  4  1  0
  2  7  2  0
  3  2  1  0
  4  5  1  0
  4  3  2  0
  5  6  2  0
  6  7  1  0
  8  1  1  0
  9  8  2  0
 10 11  1  0
 10  9  1  0
 11 12  2  0
 12  8  1  0
 13 11  1  0
 13 17  1  0
 14 15  1  0
 14 13  2  0
 15 16  2  0
 16 17  1  0
  1 18  1  0
  1 19  1  0
  2 20  1  0
  3 21  1  0
  6 22  1  0
 14 23  1  0
 16 24  1  0
 17 25  1  0
M  ISO  8  18   8  19   8  20  14  21  14  22  14  23  14  24  14  25   9
M  END
>  <minimizedAffinity>  (1) 
-4.20018482

>  <minimizedRMSD>  (1) 
1.50596786

$$$$
