
     RDKit          3D

 31 33  0  0  0  0  0  0  0  0999 V2000
   37.6290   25.6330   35.7530 C   0  0  0  0  0  0  0  0  0  0  0  0
   38.7570   23.3890   38.5740 C   0  0  0  0  0  0  0  0  0  0  0  0
   38.0330   24.3580   37.8780 C   0  0  0  0  0  0  0  0  0  0  0  0
   38.3780   24.5980   36.5510 C   0  0  0  0  0  0  0  0  0  0  0  0
   39.3970   23.8820   35.9890 N   0  0  0  0  0  0  0  0  0  0  0  0
   40.0680   22.9550   36.7040 C   0  0  0  0  0  0  0  0  0  0  0  0
   39.7440   22.7150   37.9870 N   0  0  0  0  0  0  0  0  0  0  0  0
   38.5610   26.2280   34.7700 C   0  0  0  0  0  0  0  0  0  0  0  0
   39.6250   27.0140   35.0540 N   0  0  0  0  0  0  0  0  0  0  0  0
   40.1920   27.3360   33.9150 O   0  0  0  0  0  0  0  0  0  0  0  0
   39.5300   26.7860   32.9370 C   0  0  0  0  0  0  0  0  0  0  0  0
   38.4870   26.0740   33.4270 N   0  0  0  0  0  0  0  0  0  0  0  0
   39.8590   26.9140   31.4920 C   0  0  0  0  0  0  0  0  0  0  0  0
   38.9080   27.8280   30.7560 C   0  0  0  0  0  0  0  0  0  0  0  0
   39.6680   28.4550   29.6130 C   0  0  0  0  0  0  0  0  0  0  0  0
   41.1030   28.0360   29.8380 C   0  0  0  0  0  0  0  0  0  0  0  0
   41.1870   27.6120   31.2830 C   0  0  0  0  0  0  0  0  0  0  0  0
   36.7870   25.1592   35.2272 H   0  0  0  0  0  0  0  0  0  0  0  0
   37.2347   26.4131   36.4208 H   0  0  0  0  0  0  0  0  0  0  0  0
   38.5083   23.1786   39.6246 H   0  0  0  0  0  0  0  0  0  0  0  0
   37.2165   24.9139   38.3621 H   0  0  0  0  0  0  0  0  0  0  0  0
   40.8868   22.3909   36.2335 H   0  0  0  0  0  0  0  0  0  0  0  0
   39.8316   25.8771   31.1257 H   0  0  0  0  0  0  0  0  0  0  0  0
   38.0571   27.2492   30.3675 H   0  0  0  0  0  0  0  0  0  0  0  0
   38.5182   28.6037   31.4315 H   0  0  0  0  0  0  0  0  0  0  0  0
   39.5743   29.5507   29.6384 H   0  0  0  0  0  0  0  0  0  0  0  0
   39.2875   28.1346   28.6319 H   0  0  0  0  0  0  0  0  0  0  0  0
   41.3649   27.1967   29.1769 H   0  0  0  0  0  0  0  0  0  0  0  0
   41.8029   28.8549   29.6156 H   0  0  0  0  0  0  0  0  0  0  0  0
   42.0291   26.9238   31.4480 H   0  0  0  0  0  0  0  0  0  0  0  0
   41.3600   28.4470   31.9778 H   0  0  0  0  0  0  0  0  0  0  0  0
  1  4  1  0
  3  2  2  0
  4  3  1  0
  5  4  2  0
  5  6  1  0
  6  7  2  0
  7  2  1  0
  8  9  2  0
  8  1  1  0
 10  9  1  0
 11 12  2  0
 11 10  1  0
 12  8  1  0
 13 11  1  0
 14 13  1  0
 15 16  1  0
 15 14  1  0
 16 17  1  0
 17 13  1  0
  1 18  1  0
  1 19  1  0
  2 20  1  0
  3 21  1  0
  6 22  1  0
 13 23  1  0
 14 24  1  0
 14 25  1  0
 15 26  1  0
 15 27  1  0
 16 28  1  0
 16 29  1  0
 17 30  1  0
 17 31  1  0
M  ISO  8  18   8  19   8  20  14  21  14  22  14  23  13  24  13  25  13
M  ISO  6  26  13  27  13  28  13  29  13  30  13  31  13
M  END
>  <minimizedAffinity>  (1) 
-4.15529728

>  <minimizedRMSD>  (1) 
2.16847897

$$$$
