
     RDKit          3D

 39 41  0  0  0  0  0  0  0  0999 V2000
   39.3990   26.3440   34.8730 C   0  0  0  0  0  0  0  0  0  0  0  0
   38.3340   27.1220   34.1810 C   0  0  0  0  0  0  0  0  0  0  0  0
   37.2910   27.6470   34.9200 C   0  0  0  0  0  0  0  0  0  0  0  0
   36.2500   28.3860   34.3720 C   0  0  0  0  0  0  0  0  0  0  0  0
   36.2780   28.5950   33.0190 N   0  0  0  0  0  0  0  0  0  0  0  0
   37.2960   28.0830   32.2940 C   0  0  0  0  0  0  0  0  0  0  0  0
   38.2760   27.3750   32.8870 N   0  0  0  0  0  0  0  0  0  0  0  0
   37.2710   28.3310   30.8950 N   0  0  0  0  0  0  0  0  0  0  0  0
   38.1230   27.5530   30.0210 C   0  0  0  0  0  0  0  0  0  0  0  0
   38.9660   28.4290   29.1260 C   0  0  0  0  0  0  0  0  0  0  0  0
   38.1640   29.5400   28.5360 C   0  0  0  0  0  0  0  0  0  0  0  0
   37.4360   30.3040   29.6150 C   0  0  0  0  0  0  0  0  0  0  0  0
   36.4410   29.3270   30.2490 C   0  0  0  0  0  0  0  0  0  0  0  0
   39.1810   24.8520   34.7550 C   0  0  0  0  0  0  0  0  0  0  0  0
   39.7970   22.7920   37.8050 C   0  0  0  0  0  0  0  0  0  0  0  0
   38.8170   23.2800   38.6740 C   0  0  0  0  0  0  0  0  0  0  0  0
   37.9480   24.3110   38.2220 C   0  0  0  0  0  0  0  0  0  0  0  0
   38.1250   24.7660   36.9470 N   0  0  0  0  0  0  0  0  0  0  0  0
   39.0990   24.2560   36.1340 C   0  0  0  0  0  0  0  0  0  0  0  0
   39.9070   23.2940   36.5640 N   0  0  0  0  0  0  0  0  0  0  0  0
   40.3712   26.5970   34.4248 H   0  0  0  0  0  0  0  0  0  0  0  0
   39.3713   26.6071   35.9407 H   0  0  0  0  0  0  0  0  0  0  0  0
   37.2846   27.4694   36.0056 H   0  0  0  0  0  0  0  0  0  0  0  0
   35.4385   28.7859   34.9978 H   0  0  0  0  0  0  0  0  0  0  0  0
   38.7883   26.9296   30.6364 H   0  0  0  0  0  0  0  0  0  0  0  0
   37.4776   26.9341   29.3803 H   0  0  0  0  0  0  0  0  0  0  0  0
   39.7890   28.8570   29.7172 H   0  0  0  0  0  0  0  0  0  0  0  0
   39.3550   27.8099   28.3042 H   0  0  0  0  0  0  0  0  0  0  0  0
   38.8366   30.2254   27.9994 H   0  0  0  0  0  0  0  0  0  0  0  0
   37.4232   29.1127   27.8442 H   0  0  0  0  0  0  0  0  0  0  0  0
   38.1487   30.6640   30.3716 H   0  0  0  0  0  0  0  0  0  0  0  0
   36.9194   31.1817   29.1993 H   0  0  0  0  0  0  0  0  0  0  0  0
   35.8068   29.8417   30.9858 H   0  0  0  0  0  0  0  0  0  0  0  0
   35.7587   28.8855   29.5077 H   0  0  0  0  0  0  0  0  0  0  0  0
   38.2432   24.6584   34.2137 H   0  0  0  0  0  0  0  0  0  0  0  0
   40.0176   24.3976   34.2040 H   0  0  0  0  0  0  0  0  0  0  0  0
   40.4791   21.9958   38.1379 H   0  0  0  0  0  0  0  0  0  0  0  0
   38.7195   22.8731   39.6913 H   0  0  0  0  0  0  0  0  0  0  0  0
   37.1646   24.7253   38.8736 H   0  0  0  0  0  0  0  0  0  0  0  0
  2  1  1  0
  2  3  2  0
  4  3  1  0
  5  4  2  0
  6  7  2  0
  6  5  1  0
  7  2  1  0
  8  6  1  0
  9  8  1  0
 10  9  1  0
 11 10  1  0
 11 12  1  0
 12 13  1  0
 13  8  1  0
 14  1  1  0
 14 19  1  0
 15 16  2  0
 17 16  1  0
 18 17  2  0
 19 20  2  0
 19 18  1  0
 20 15  1  0
  1 21  1  0
  1 22  1  0
  3 23  1  0
  4 24  1  0
  9 25  1  0
  9 26  1  0
 10 27  1  0
 10 28  1  0
 11 29  1  0
 11 30  1  0
 12 31  1  0
 12 32  1  0
 13 33  1  0
 13 34  1  0
 14 35  1  0
 14 36  1  0
 15 37  1  0
 16 38  1  0
 17 39  1  0
M  ISO  8  21   8  22   8  23  14  24  14  25  13  26  13  27  13  28  13
M  ISO  8  29  13  30  13  31  13  32  13  33  13  34  13  35   8  36   8
M  ISO  3  37  14  38  14  39  14
M  END
>  <minimizedAffinity>  (1) 
-5.01911354

>  <minimizedRMSD>  (1) 
0.132903084

$$$$
