
     RDKit          3D

 28 30  0  0  0  0  0  0  0  0999 V2000
   39.0510   25.3710   34.3800 C   0  0  0  0  0  0  0  0  0  0  0  0
   39.4210   26.3650   35.2170 N   0  0  0  0  0  0  0  0  0  0  0  0
   40.1270   27.2210   34.5170 O   0  0  0  0  0  0  0  0  0  0  0  0
   40.2120   26.8030   33.2840 C   0  0  0  0  0  0  0  0  0  0  0  0
   39.5430   25.6310   33.1490 N   0  0  0  0  0  0  0  0  0  0  0  0
   40.8880   27.4090   32.1430 C   0  0  0  0  0  0  0  0  0  0  0  0
   40.3470   27.5340   30.8800 C   0  0  0  0  0  0  0  0  0  0  0  0
   41.0300   28.1170   29.8310 C   0  0  0  0  0  0  0  0  0  0  0  0
   42.2910   28.6000   30.0160 C   0  0  0  0  0  0  0  0  0  0  0  0
   42.8670   28.4890   31.2790 C   0  0  0  0  0  0  0  0  0  0  0  0
   42.1740   27.9060   32.3150 C   0  0  0  0  0  0  0  0  0  0  0  0
   38.2390   24.1820   34.7320 C   0  0  0  0  0  0  0  0  0  0  0  0
   37.8950   23.8600   38.4890 C   0  0  0  0  0  0  0  0  0  0  0  0
   37.6100   24.2010   37.1740 C   0  0  0  0  0  0  0  0  0  0  0  0
   38.4970   23.8390   36.1700 C   0  0  0  0  0  0  0  0  0  0  0  0
   39.6290   23.1530   36.5350 N   0  0  0  0  0  0  0  0  0  0  0  0
   39.8700   22.8420   37.8180 C   0  0  0  0  0  0  0  0  0  0  0  0
   39.0110   23.1920   38.7840 N   0  0  0  0  0  0  0  0  0  0  0  0
   39.3304   27.1538   30.7014 H   0  0  0  0  0  0  0  0  0  0  0  0
   40.5544   28.1919   28.8420 H   0  0  0  0  0  0  0  0  0  0  0  0
   42.8415   29.0671   29.1861 H   0  0  0  0  0  0  0  0  0  0  0  0
   43.8845   28.8706   31.4499 H   0  0  0  0  0  0  0  0  0  0  0  0
   42.6500   27.8316   33.3039 H   0  0  0  0  0  0  0  0  0  0  0  0
   37.1715   24.4061   34.5896 H   0  0  0  0  0  0  0  0  0  0  0  0
   38.5125   23.3340   34.0870 H   0  0  0  0  0  0  0  0  0  0  0  0
   37.1973   24.1420   39.2913 H   0  0  0  0  0  0  0  0  0  0  0  0
   36.6901   24.7527   36.9301 H   0  0  0  0  0  0  0  0  0  0  0  0
   40.7859   22.2919   38.0799 H   0  0  0  0  0  0  0  0  0  0  0  0
  1 12  1  0
  1  2  2  0
  3  2  1  0
  4  3  1  0
  5  4  2  0
  5  1  1  0
  6 11  1  0
  6  4  1  0
  7  6  2  0
  8  9  2  0
  8  7  1  0
  9 10  1  0
 10 11  2  0
 12 15  1  0
 13 18  2  0
 14 13  1  0
 15 16  1  0
 15 14  2  0
 16 17  2  0
 17 18  1  0
  7 19  1  0
  8 20  1  0
  9 21  1  0
 10 22  1  0
 11 23  1  0
 12 24  1  0
 12 25  1  0
 13 26  1  0
 14 27  1  0
 17 28  1  0
M  ISO  8  19  14  20  14  21  14  22  14  23  14  24   8  25   8  26  14
M  ISO  2  27  14  28  14
M  END
>  <minimizedAffinity>  (1) 
-4.08132553

>  <minimizedRMSD>  (1) 
1.85519075

$$$$
