
     RDKit          3D

 25 27  0  0  0  0  0  0  0  0999 V2000
   38.9410   24.4140   34.6200 C   0  0  0  0  0  0  0  0  0  0  0  0
   40.0210   25.4100   34.4210 C   0  0  0  0  0  0  0  0  0  0  0  0
   39.8760   26.6750   33.9700 N   0  0  0  0  0  0  0  0  0  0  0  0
   41.0650   27.2230   33.9400 O   0  0  0  0  0  0  0  0  0  0  0  0
   41.9460   26.3530   34.3530 C   0  0  0  0  0  0  0  0  0  0  0  0
   41.3380   25.1850   34.6710 N   0  0  0  0  0  0  0  0  0  0  0  0
   43.3760   26.4160   34.5190 N   0  0  0  0  0  0  0  0  0  0  0  0
   43.9210   25.5940   35.4210 N   0  0  0  0  0  0  0  0  0  0  0  0
   45.2540   25.7730   35.4560 C   0  0  0  0  0  0  0  0  0  0  0  0
   45.5330   26.7650   34.5180 C   0  0  0  0  0  0  0  0  0  0  0  0
   44.3280   27.1620   33.9310 C   0  0  0  0  0  0  0  0  0  0  0  0
   37.9630   24.3310   38.2780 C   0  0  0  0  0  0  0  0  0  0  0  0
   37.9760   24.6950   36.9280 C   0  0  0  0  0  0  0  0  0  0  0  0
   38.8810   24.0640   36.0790 C   0  0  0  0  0  0  0  0  0  0  0  0
   39.7180   23.1150   36.6060 N   0  0  0  0  0  0  0  0  0  0  0  0
   39.6700   22.7960   37.9100 C   0  0  0  0  0  0  0  0  0  0  0  0
   38.7960   23.4070   38.7260 N   0  0  0  0  0  0  0  0  0  0  0  0
   39.1555   23.5108   34.0299 H   0  0  0  0  0  0  0  0  0  0  0  0
   37.9775   24.8310   34.2918 H   0  0  0  0  0  0  0  0  0  0  0  0
   45.9765   25.2440   36.0949 H   0  0  0  0  0  0  0  0  0  0  0  0
   46.5293   27.1663   34.2805 H   0  0  0  0  0  0  0  0  0  0  0  0
   44.1878   27.9250   33.1512 H   0  0  0  0  0  0  0  0  0  0  0  0
   37.2575   24.8149   38.9695 H   0  0  0  0  0  0  0  0  0  0  0  0
   37.2869   25.4624   36.5456 H   0  0  0  0  0  0  0  0  0  0  0  0
   40.3502   22.0303   38.3114 H   0  0  0  0  0  0  0  0  0  0  0  0
  1 14  1  0
  2  1  1  0
  2  6  1  0
  3  2  2  0
  4  3  1  0
  4  5  1  0
  5  7  1  0
  5  6  2  0
  7  8  1  0
  8  9  2  0
 10  9  1  0
 11 10  2  0
 11  7  1  0
 12 17  2  0
 13 12  1  0
 14 15  1  0
 14 13  2  0
 15 16  2  0
 16 17  1  0
  1 18  1  0
  1 19  1  0
  9 20  1  0
 10 21  1  0
 11 22  1  0
 12 23  1  0
 13 24  1  0
 16 25  1  0
M  ISO  8  18   8  19   8  20  14  21  14  22  14  23  14  24  14  25  14
M  END
>  <minimizedAffinity>  (1) 
-4.07418013

>  <minimizedRMSD>  (1) 
1.90936005

$$$$
