
     RDKit          3D

 25 27  0  0  0  0  0  0  0  0999 V2000
   38.8100   24.4450   34.6880 C   0  0  0  0  0  0  0  0  0  0  0  0
   37.9630   24.2930   38.3700 C   0  0  0  0  0  0  0  0  0  0  0  0
   37.9300   24.6590   37.0340 C   0  0  0  0  0  0  0  0  0  0  0  0
   38.8140   24.0770   36.1370 C   0  0  0  0  0  0  0  0  0  0  0  0
   39.6940   23.1540   36.6160 N   0  0  0  0  0  0  0  0  0  0  0  0
   39.7030   22.8160   37.9290 C   0  0  0  0  0  0  0  0  0  0  0  0
   38.8430   23.3850   38.7870 N   0  0  0  0  0  0  0  0  0  0  0  0
   39.8660   25.4640   34.4580 C   0  0  0  0  0  0  0  0  0  0  0  0
   39.6760   26.7860   34.2670 N   0  0  0  0  0  0  0  0  0  0  0  0
   40.8450   27.3280   34.1020 O   0  0  0  0  0  0  0  0  0  0  0  0
   41.7660   26.4090   34.1790 C   0  0  0  0  0  0  0  0  0  0  0  0
   41.1970   25.2020   34.4050 N   0  0  0  0  0  0  0  0  0  0  0  0
   43.2040   26.6410   34.0430 C   0  0  0  0  0  0  0  0  0  0  0  0
   44.1910   26.0160   34.7790 C   0  0  0  0  0  0  0  0  0  0  0  0
   45.3940   26.5310   34.3270 C   0  0  0  0  0  0  0  0  0  0  0  0
   45.0900   27.4310   33.3520 C   0  0  0  0  0  0  0  0  0  0  0  0
   43.7940   27.4720   33.2110 O   0  0  0  0  0  0  0  0  0  0  0  0
   39.0158   23.5531   34.0780 H   0  0  0  0  0  0  0  0  0  0  0  0
   37.8273   24.8498   34.4045 H   0  0  0  0  0  0  0  0  0  0  0  0
   37.2637   24.7516   39.0846 H   0  0  0  0  0  0  0  0  0  0  0  0
   37.2048   25.4091   36.6855 H   0  0  0  0  0  0  0  0  0  0  0  0
   40.4223   22.0681   38.2941 H   0  0  0  0  0  0  0  0  0  0  0  0
   44.0499   25.2608   35.5662 H   0  0  0  0  0  0  0  0  0  0  0  0
   46.3992   26.2649   34.6857 H   0  0  0  0  0  0  0  0  0  0  0  0
   45.8167   28.0250   32.7783 H   0  0  0  0  0  0  0  0  0  0  0  0
  1  4  1  0
  2  7  2  0
  3  2  1  0
  4  5  1  0
  4  3  2  0
  5  6  2  0
  6  7  1  0
  8  1  1  0
  9  8  2  0
 10 11  1  0
 10  9  1  0
 11 12  2  0
 12  8  1  0
 13 11  1  0
 13 14  2  0
 15 14  1  0
 16 15  2  0
 17 16  1  0
 17 13  1  0
  1 18  1  0
  1 19  1  0
  2 20  1  0
  3 21  1  0
  6 22  1  0
 14 23  1  0
 15 24  1  0
 16 25  1  0
M  ISO  8  18   8  19   8  20  14  21  14  22  14  23  14  24  14  25  14
M  END
>  <minimizedAffinity>  (1) 
-3.80837274

>  <minimizedRMSD>  (1) 
1.34348953

$$$$
