
     RDKit          3D

 23 25  0  0  0  0  0  0  0  0999 V2000
   38.8640   24.4030   34.6670 C   0  0  0  0  0  0  0  0  0  0  0  0
   37.9700   24.2870   38.3370 C   0  0  0  0  0  0  0  0  0  0  0  0
   37.9350   24.6520   36.9990 C   0  0  0  0  0  0  0  0  0  0  0  0
   38.8480   24.0500   36.1330 C   0  0  0  0  0  0  0  0  0  0  0  0
   39.7270   23.1340   36.6370 N   0  0  0  0  0  0  0  0  0  0  0  0
   39.7300   22.8080   37.9360 C   0  0  0  0  0  0  0  0  0  0  0  0
   38.8410   23.3960   38.7760 N   0  0  0  0  0  0  0  0  0  0  0  0
   39.8990   25.4420   34.4440 C   0  0  0  0  0  0  0  0  0  0  0  0
   39.6870   26.7630   34.2620 N   0  0  0  0  0  0  0  0  0  0  0  0
   40.8470   27.3240   34.1030 O   0  0  0  0  0  0  0  0  0  0  0  0
   41.7850   26.4230   34.1750 C   0  0  0  0  0  0  0  0  0  0  0  0
   41.2290   25.2070   34.3910 N   0  0  0  0  0  0  0  0  0  0  0  0
   43.2200   26.6570   34.0450 C   0  0  0  0  0  0  0  0  0  0  0  0
   43.8470   27.3910   33.1080 N   0  0  0  0  0  0  0  0  0  0  0  0
   45.1400   27.3630   33.3230 O   0  0  0  0  0  0  0  0  0  0  0  0
   45.3970   26.6190   34.3930 C   0  0  0  0  0  0  0  0  0  0  0  0
   44.1910   26.1710   34.8500 N   0  0  0  0  0  0  0  0  0  0  0  0
   39.1021   23.5086   34.0726 H   0  0  0  0  0  0  0  0  0  0  0  0
   37.8779   24.7815   34.3598 H   0  0  0  0  0  0  0  0  0  0  0  0
   37.2621   24.7462   39.0427 H   0  0  0  0  0  0  0  0  0  0  0  0
   37.2097   25.3932   36.6323 H   0  0  0  0  0  0  0  0  0  0  0  0
   40.4483   22.0685   38.3195 H   0  0  0  0  0  0  0  0  0  0  0  0
   46.3858   26.4060   34.8253 H   0  0  0  0  0  0  0  0  0  0  0  0
  1  4  1  0
  2  7  2  0
  3  2  1  0
  4  5  1  0
  4  3  2  0
  5  6  2  0
  6  7  1  0
  8  1  1  0
  9  8  2  0
 10 11  1  0
 10  9  1  0
 11 12  2  0
 12  8  1  0
 13 11  1  0
 13 17  1  0
 14 15  1  0
 14 13  2  0
 15 16  1  0
 16 17  2  0
  1 18  1  0
  1 19  1  0
  2 20  1  0
  3 21  1  0
  6 22  1  0
 16 23  1  0
M  ISO  6  18   8  19   8  20  14  21  14  22  14  23  14
M  END
>  <minimizedAffinity>  (1) 
-3.7747488

>  <minimizedRMSD>  (1) 
1.37520576

$$$$
