
     RDKit          3D

 24 26  0  0  0  0  0  0  0  0999 V2000
   38.9350   24.5210   34.6930 C   0  0  0  0  0  0  0  0  0  0  0  0
   37.9610   24.2680   38.3490 C   0  0  0  0  0  0  0  0  0  0  0  0
   37.9640   24.6720   37.0240 C   0  0  0  0  0  0  0  0  0  0  0  0
   38.8860   24.1210   36.1400 C   0  0  0  0  0  0  0  0  0  0  0  0
   39.7550   23.1940   36.6400 N   0  0  0  0  0  0  0  0  0  0  0  0
   39.7300   22.8200   37.9320 C   0  0  0  0  0  0  0  0  0  0  0  0
   38.8310   23.3630   38.7720 N   0  0  0  0  0  0  0  0  0  0  0  0
   40.0690   25.4570   34.5080 C   0  0  0  0  0  0  0  0  0  0  0  0
   40.0210   26.8080   34.5490 N   0  0  0  0  0  0  0  0  0  0  0  0
   41.2230   27.2400   34.3400 O   0  0  0  0  0  0  0  0  0  0  0  0
   42.0510   26.2210   34.1640 C   0  0  0  0  0  0  0  0  0  0  0  0
   41.3330   25.0540   34.2660 N   0  0  0  0  0  0  0  0  0  0  0  0
   43.5140   26.2570   33.8950 C   0  0  0  0  0  0  0  0  0  0  0  0
   44.1700   25.3240   33.0580 C   0  0  0  0  0  0  0  0  0  0  0  0
   45.8760   25.8590   33.1180 S   0  0  0  0  0  0  0  0  0  0  0  0
   45.4560   27.2970   34.2890 C   0  0  0  0  0  0  0  0  0  0  0  0
   44.3220   27.1860   34.4330 N   0  0  0  0  0  0  0  0  0  0  0  0
   39.0820   23.6297   34.0653 H   0  0  0  0  0  0  0  0  0  0  0  0
   37.9916   25.0056   34.4012 H   0  0  0  0  0  0  0  0  0  0  0  0
   37.2338   24.7001   39.0522 H   0  0  0  0  0  0  0  0  0  0  0  0
   37.2418   25.4238   36.6730 H   0  0  0  0  0  0  0  0  0  0  0  0
   40.4449   22.0700   38.3014 H   0  0  0  0  0  0  0  0  0  0  0  0
   43.7371   24.4770   32.5056 H   0  0  0  0  0  0  0  0  0  0  0  0
   46.1320   28.0492   34.7216 H   0  0  0  0  0  0  0  0  0  0  0  0
  1  4  1  0
  2  7  2  0
  3  2  1  0
  4  5  1  0
  4  3  2  0
  5  6  2  0
  6  7  1  0
  8  9  2  0
  8  1  1  0
 10  9  1  0
 11 12  2  0
 11 10  1  0
 12  8  1  0
 13 11  1  0
 13 17  1  0
 14 15  1  0
 14 13  2  0
 15 16  1  0
 16 17  2  0
  1 18  1  0
  1 19  1  0
  2 20  1  0
  3 21  1  0
  6 22  1  0
 14 23  1  0
 16 24  1  0
M  ISO  7  18   8  19   8  20  14  21  14  22  14  23  14  24  14
M  END
>  <minimizedAffinity>  (1) 
-3.71010852

>  <minimizedRMSD>  (1) 
1.28066492

$$$$
