
     RDKit          3D

 30 31  0  0  0  0  0  0  0  0999 V2000
   38.5830   24.5650   34.7050 C   0  0  0  0  0  0  0  0  0  0  0  0
   37.9720   24.1990   38.4170 C   0  0  0  0  0  0  0  0  0  0  0  0
   37.8220   24.6380   37.1090 C   0  0  0  0  0  0  0  0  0  0  0  0
   38.6830   24.1360   36.1430 C   0  0  0  0  0  0  0  0  0  0  0  0
   39.6430   23.2300   36.5250 N   0  0  0  0  0  0  0  0  0  0  0  0
   39.7480   22.8370   37.8000 C   0  0  0  0  0  0  0  0  0  0  0  0
   38.9110   23.3230   38.7500 N   0  0  0  0  0  0  0  0  0  0  0  0
   39.6560   25.5500   34.4310 C   0  0  0  0  0  0  0  0  0  0  0  0
   39.7800   26.7820   34.9670 N   0  0  0  0  0  0  0  0  0  0  0  0
   40.8470   27.3220   34.4720 O   0  0  0  0  0  0  0  0  0  0  0  0
   41.4170   26.4830   33.6350 C   0  0  0  0  0  0  0  0  0  0  0  0
   40.6900   25.3460   33.5820 N   0  0  0  0  0  0  0  0  0  0  0  0
   42.6790   26.7970   32.8840 C   0  0  0  0  0  0  0  0  0  0  0  0
   43.8240   27.0240   33.8410 C   0  0  0  0  0  0  0  0  0  0  0  0
   42.5120   28.0310   32.0230 C   0  0  0  0  0  0  0  0  0  0  0  0
   43.0680   25.6600   31.9640 C   0  0  0  0  0  0  0  0  0  0  0  0
   38.7052   23.6912   34.0480 H   0  0  0  0  0  0  0  0  0  0  0  0
   37.5988   25.0180   34.5150 H   0  0  0  0  0  0  0  0  0  0  0  0
   37.2973   24.5860   39.1949 H   0  0  0  0  0  0  0  0  0  0  0  0
   37.0404   25.3655   36.8445 H   0  0  0  0  0  0  0  0  0  0  0  0
   40.5239   22.1098   38.0813 H   0  0  0  0  0  0  0  0  0  0  0  0
   43.4572   26.9513   34.8755 H   0  0  0  0  0  0  0  0  0  0  0  0
   44.5993   26.2621   33.6725 H   0  0  0  0  0  0  0  0  0  0  0  0
   44.2500   28.0241   33.6725 H   0  0  0  0  0  0  0  0  0  0  0  0
   42.3925   28.9144   32.6675 H   0  0  0  0  0  0  0  0  0  0  0  0
   43.4011   28.1581   31.3879 H   0  0  0  0  0  0  0  0  0  0  0  0
   41.6211   27.9172   31.3879 H   0  0  0  0  0  0  0  0  0  0  0  0
   43.3663   24.7880   32.5646 H   0  0  0  0  0  0  0  0  0  0  0  0
   42.2104   25.3920   31.3294 H   0  0  0  0  0  0  0  0  0  0  0  0
   43.9100   25.9735   31.3294 H   0  0  0  0  0  0  0  0  0  0  0  0
  1  4  1  0
  2  7  2  0
  3  2  1  0
  4  5  1  0
  4  3  2  0
  5  6  2  0
  6  7  1  0
  8  1  1  0
  8  9  2  0
 10  9  1  0
 11 10  1  0
 12 11  2  0
 12  8  1  0
 13 11  1  0
 13 14  1  0
 15 13  1  0
 16 13  1  0
  1 17  1  0
  1 18  1  0
  2 19  1  0
  3 20  1  0
  6 21  1  0
 14 22  1  0
 14 23  1  0
 14 24  1  0
 15 25  1  0
 15 26  1  0
 15 27  1  0
 16 28  1  0
 16 29  1  0
 16 30  1  0
M  ISO  8  17   8  18   8  19  14  20  14  21  14  22   8  23   8  24   8
M  ISO  6  25   8  26   8  27   8  28   8  29   8  30   8
M  END
>  <minimizedAffinity>  (1) 
-3.63957977

>  <minimizedRMSD>  (1) 
0.545642316

$$$$
