
     RDKit          3D

 20 21  0  0  0  0  0  0  0  0999 V2000
   38.5280   24.6190   34.7380 C   0  0  0  0  0  0  0  0  0  0  0  0
   37.9780   24.2290   38.4550 C   0  0  0  0  0  0  0  0  0  0  0  0
   37.8200   24.6740   37.1520 C   0  0  0  0  0  0  0  0  0  0  0  0
   38.6570   24.1700   36.1660 C   0  0  0  0  0  0  0  0  0  0  0  0
   39.6140   23.2480   36.5120 N   0  0  0  0  0  0  0  0  0  0  0  0
   39.7340   22.8420   37.7940 C   0  0  0  0  0  0  0  0  0  0  0  0
   38.9160   23.3350   38.7510 N   0  0  0  0  0  0  0  0  0  0  0  0
   39.7120   25.4360   34.3860 C   0  0  0  0  0  0  0  0  0  0  0  0
   40.1090   26.5770   34.9940 N   0  0  0  0  0  0  0  0  0  0  0  0
   41.1830   26.9890   34.4000 O   0  0  0  0  0  0  0  0  0  0  0  0
   41.4890   26.1520   33.4330 C   0  0  0  0  0  0  0  0  0  0  0  0
   40.5790   25.1490   33.3890 N   0  0  0  0  0  0  0  0  0  0  0  0
   42.5720   26.1770   32.5070 N   0  0  0  0  0  0  0  0  0  0  0  0
   38.4752   23.7409   34.0776 H   0  0  0  0  0  0  0  0  0  0  0  0
   37.6121   25.2157   34.6150 H   0  0  0  0  0  0  0  0  0  0  0  0
   37.3233   24.6179   39.2488 H   0  0  0  0  0  0  0  0  0  0  0  0
   37.0448   25.4138   36.9035 H   0  0  0  0  0  0  0  0  0  0  0  0
   40.5040   22.1037   38.0623 H   0  0  0  0  0  0  0  0  0  0  0  0
   42.6647   25.4312   31.8027 H   0  0  0  0  0  0  0  0  0  0  0  0
   43.2620   26.9409   32.5421 H   0  0  0  0  0  0  0  0  0  0  0  0
  1  4  1  0
  2  7  2  0
  3  2  1  0
  4  5  1  0
  4  3  2  0
  5  6  2  0
  6  7  1  0
  8  1  1  0
  8  9  2  0
 10  9  1  0
 11 10  1  0
 12 11  2  0
 12  8  1  0
 13 11  1  0
  1 14  1  0
  1 15  1  0
  2 16  1  0
  3 17  1  0
  6 18  1  0
 13 19  1  0
 13 20  1  0
M  ISO  5  14   8  15   8  16  14  17  14  18  14
M  END
>  <minimizedAffinity>  (1) 
-3.3760221

>  <minimizedRMSD>  (1) 
0.0152879022

$$$$
