
     RDKit          3D

 45 49  0  0  0  0  0  0  0  0999 V2000
   37.9410   25.3970   35.3830 C   0  0  0  0  0  0  0  0  0  0  0  0
   39.0210   25.9960   34.5650 C   0  0  0  0  0  0  0  0  0  0  0  0
   39.8740   26.9990   34.8950 N   0  0  0  0  0  0  0  0  0  0  0  0
   40.6600   27.2000   33.8630 O   0  0  0  0  0  0  0  0  0  0  0  0
   40.3240   26.3560   32.9020 C   0  0  0  0  0  0  0  0  0  0  0  0
   39.2890   25.5740   33.3040 N   0  0  0  0  0  0  0  0  0  0  0  0
   41.1230   26.4820   31.7090 N   0  0  0  0  0  0  0  0  0  0  0  0
   41.5090   27.8430   31.3980 C   0  0  0  0  0  0  0  0  0  0  0  0
   43.0250   27.8040   31.1530 C   0  0  0  0  0  0  0  0  0  0  0  0
   43.2370   26.9320   30.0700 O   0  0  0  0  0  0  0  0  0  0  0  0
   43.0200   25.6410   30.5070 C   0  0  0  0  0  0  0  0  0  0  0  0
   41.5670   25.4320   30.8200 C   0  0  0  0  0  0  0  0  0  0  0  0
   38.6540   23.4270   38.5400 C   0  0  0  0  0  0  0  0  0  0  0  0
   37.9880   24.2910   37.6620 C   0  0  0  0  0  0  0  0  0  0  0  0
   38.5650   24.4940   36.4060 C   0  0  0  0  0  0  0  0  0  0  0  0
   39.7370   23.8610   36.0730 N   0  0  0  0  0  0  0  0  0  0  0  0
   40.3330   23.0310   36.9790 C   0  0  0  0  0  0  0  0  0  0  0  0
   39.7930   22.8250   38.1880 N   0  0  0  0  0  0  0  0  0  0  0  0
   41.5780   22.3520   36.6370 C   0  0  0  0  0  0  0  0  0  0  0  0
   41.7540   21.0080   36.3910 C   0  0  0  0  0  0  0  0  0  0  0  0
   43.0550   20.7790   36.1090 N   0  0  0  0  0  0  0  0  0  0  0  0
   43.7430   21.9270   36.1620 C   0  0  0  0  0  0  0  0  0  0  0  0
   45.0850   22.1600   35.9470 C   0  0  0  0  0  0  0  0  0  0  0  0
   45.5650   23.4430   36.0590 C   0  0  0  0  0  0  0  0  0  0  0  0
   44.6570   24.4380   36.3880 C   0  0  0  0  0  0  0  0  0  0  0  0
   43.3160   24.1930   36.6010 C   0  0  0  0  0  0  0  0  0  0  0  0
   42.8340   22.9060   36.4880 C   0  0  0  0  0  0  0  0  0  0  0  0
   37.2654   24.8161   34.7379 H   0  0  0  0  0  0  0  0  0  0  0  0
   37.3620   26.1884   35.8814 H   0  0  0  0  0  0  0  0  0  0  0  0
   40.9845   28.1932   30.4968 H   0  0  0  0  0  0  0  0  0  0  0  0
   41.2490   28.5335   32.2139 H   0  0  0  0  0  0  0  0  0  0  0  0
   43.3954   28.8103   30.9076 H   0  0  0  0  0  0  0  0  0  0  0  0
   43.5619   27.4597   32.0492 H   0  0  0  0  0  0  0  0  0  0  0  0
   43.3264   24.9357   29.7204 H   0  0  0  0  0  0  0  0  0  0  0  0
   43.6099   25.4692   31.4194 H   0  0  0  0  0  0  0  0  0  0  0  0
   40.9808   25.4635   29.8898 H   0  0  0  0  0  0  0  0  0  0  0  0
   41.4268   24.4527   31.3011 H   0  0  0  0  0  0  0  0  0  0  0  0
   38.2311   23.2407   39.5382 H   0  0  0  0  0  0  0  0  0  0  0  0
   37.0501   24.7889   37.9492 H   0  0  0  0  0  0  0  0  0  0  0  0
   40.9627   20.2445   36.4196 H   0  0  0  0  0  0  0  0  0  0  0  0
   43.4583   19.8578   35.8862 H   0  0  0  0  0  0  0  0  0  0  0  0
   45.7612   21.3314   35.6897 H   0  0  0  0  0  0  0  0  0  0  0  0
   46.6283   23.6716   35.8940 H   0  0  0  0  0  0  0  0  0  0  0  0
   45.0229   25.4709   36.4836 H   0  0  0  0  0  0  0  0  0  0  0  0
   42.6363   25.0184   36.8591 H   0  0  0  0  0  0  0  0  0  0  0  0
  1 15  1  0
  2  3  2  0
  2  1  1  0
  4  3  1  0
  5  6  2  0
  5  4  1  0
  6  2  1  0
  7  5  1  0
  8  7  1  0
  9  8  1  0
 10 11  1  0
 10  9  1  0
 11 12  1  0
 12  7  1  0
 14 13  2  0
 15 14  1  0
 16 15  2  0
 16 17  1  0
 17 18  2  0
 18 13  1  0
 19 17  1  0
 20 19  2  0
 21 22  1  0
 21 20  1  0
 22 27  2  0
 23 24  2  0
 23 22  1  0
 24 25  1  0
 25 26  2  0
 27 26  1  0
 27 19  1  0
  1 28  1  0
  1 29  1  0
  8 30  1  0
  8 31  1  0
  9 32  1  0
  9 33  1  0
 11 34  1  0
 11 35  1  0
 12 36  1  0
 12 37  1  0
 13 38  1  0
 14 39  1  0
 20 40  1  0
 21 41  1  0
 23 42  1  0
 24 43  1  0
 25 44  1  0
 26 45  1  0
M  ISO  8  28   8  29   8  30  13  31  13  32  13  33  13  34  13  35  13
M  ISO  8  36  13  37  13  38  14  39  14  40  14  41   9  42  14  43  14
M  ISO  2  44  14  45  14
M  END
>  <minimizedAffinity>  (1) 
-5.33754492

>  <minimizedRMSD>  (1) 
3.19615388

$$$$
