
     RDKit          3D

 42 46  0  0  0  0  0  0  0  0999 V2000
   37.9350   25.3860   35.1090 C   0  0  0  0  0  0  0  0  0  0  0  0
   39.0820   26.0330   34.4310 C   0  0  0  0  0  0  0  0  0  0  0  0
   39.7820   27.1290   34.8260 N   0  0  0  0  0  0  0  0  0  0  0  0
   40.7030   27.3470   33.9330 O   0  0  0  0  0  0  0  0  0  0  0  0
   40.6090   26.4310   32.9860 C   0  0  0  0  0  0  0  0  0  0  0  0
   39.5970   25.5810   33.2640 N   0  0  0  0  0  0  0  0  0  0  0  0
   41.5910   26.5710   31.9270 N   0  0  0  0  0  0  0  0  0  0  0  0
   41.8860   27.9380   31.5830 C   0  0  0  0  0  0  0  0  0  0  0  0
   43.4200   28.0480   31.5960 C   0  0  0  0  0  0  0  0  0  0  0  0
   43.8870   27.1390   30.6150 O   0  0  0  0  0  0  0  0  0  0  0  0
   43.7370   25.8550   31.1250 C   0  0  0  0  0  0  0  0  0  0  0  0
   42.2710   25.5250   31.2110 C   0  0  0  0  0  0  0  0  0  0  0  0
   38.3240   23.4640   38.3370 C   0  0  0  0  0  0  0  0  0  0  0  0
   37.7500   24.3030   37.3740 C   0  0  0  0  0  0  0  0  0  0  0  0
   38.4710   24.5030   36.1980 C   0  0  0  0  0  0  0  0  0  0  0  0
   39.6990   23.8860   36.0170 N   0  0  0  0  0  0  0  0  0  0  0  0
   40.1930   23.0900   36.9850 C   0  0  0  0  0  0  0  0  0  0  0  0
   39.5060   22.8850   38.1340 N   0  0  0  0  0  0  0  0  0  0  0  0
   41.4460   22.4470   36.8230 N   0  0  0  0  0  0  0  0  0  0  0  0
   41.7750   21.1770   37.1410 C   0  0  0  0  0  0  0  0  0  0  0  0
   43.0670   20.9240   36.8430 N   0  0  0  0  0  0  0  0  0  0  0  0
   43.5940   22.0370   36.3230 C   0  0  0  0  0  0  0  0  0  0  0  0
   44.8540   22.3960   35.8330 C   0  0  0  0  0  0  0  0  0  0  0  0
   45.0060   23.6690   35.3730 N   0  0  0  0  0  0  0  0  0  0  0  0
   43.9810   24.5480   35.3890 C   0  0  0  0  0  0  0  0  0  0  0  0
   42.7630   24.2180   35.8560 N   0  0  0  0  0  0  0  0  0  0  0  0
   42.5710   22.9760   36.3180 C   0  0  0  0  0  0  0  0  0  0  0  0
   37.3672   24.7823   34.3857 H   0  0  0  0  0  0  0  0  0  0  0  0
   37.2651   26.1484   35.5333 H   0  0  0  0  0  0  0  0  0  0  0  0
   41.4460   28.6232   32.3225 H   0  0  0  0  0  0  0  0  0  0  0  0
   41.4675   28.2096   30.6026 H   0  0  0  0  0  0  0  0  0  0  0  0
   43.7314   29.0729   31.3459 H   0  0  0  0  0  0  0  0  0  0  0  0
   43.8314   27.8142   32.5890 H   0  0  0  0  0  0  0  0  0  0  0  0
   44.2380   25.1347   30.4615 H   0  0  0  0  0  0  0  0  0  0  0  0
   44.1876   25.8003   32.1270 H   0  0  0  0  0  0  0  0  0  0  0  0
   41.8528   25.4415   30.1970 H   0  0  0  0  0  0  0  0  0  0  0  0
   42.1381   24.5693   31.7392 H   0  0  0  0  0  0  0  0  0  0  0  0
   37.7881   23.2795   39.2797 H   0  0  0  0  0  0  0  0  0  0  0  0
   36.7738   24.7827   37.5382 H   0  0  0  0  0  0  0  0  0  0  0  0
   41.0826   20.4459   37.5839 H   0  0  0  0  0  0  0  0  0  0  0  0
   45.6883   21.6793   35.8197 H   0  0  0  0  0  0  0  0  0  0  0  0
   44.1471   25.5665   35.0080 H   0  0  0  0  0  0  0  0  0  0  0  0
  1 15  1  0
  2  3  2  0
  2  1  1  0
  4  3  1  0
  5  6  2  0
  5  4  1  0
  6  2  1  0
  7  5  1  0
  8  9  1  0
  8  7  1  0
 10 11  1  0
 10  9  1  0
 11 12  1  0
 12  7  1  0
 14 13  2  0
 15 14  1  0
 16 15  2  0
 16 17  1  0
 17 18  2  0
 18 13  1  0
 19 17  1  0
 19 20  1  0
 21 20  2  0
 22 21  1  0
 23 22  2  0
 24 25  2  0
 24 23  1  0
 25 26  1  0
 26 27  2  0
 27 22  1  0
 27 19  1  0
  1 28  1  0
  1 29  1  0
  8 30  1  0
  8 31  1  0
  9 32  1  0
  9 33  1  0
 11 34  1  0
 11 35  1  0
 12 36  1  0
 12 37  1  0
 13 38  1  0
 14 39  1  0
 20 40  1  0
 23 41  1  0
 25 42  1  0
M  ISO  8  28   8  29   8  30  13  31  13  32  13  33  13  34  13  35  13
M  ISO  7  36  13  37  13  38  14  39  14  40  14  41  14  42  14
M  END
>  <minimizedAffinity>  (1) 
-5.1782856

>  <minimizedRMSD>  (1) 
2.93320513

$$$$
