
     RDKit          3D

 38 41  0  0  0  0  0  0  0  0999 V2000
   40.0550   25.9580   34.5680 C   0  0  0  0  0  0  0  0  0  0  0  0
   40.3250   27.2090   34.0860 N   0  0  0  0  0  0  0  0  0  0  0  0
   41.6210   27.3060   33.9890 O   0  0  0  0  0  0  0  0  0  0  0  0
   42.1780   26.1820   34.3830 C   0  0  0  0  0  0  0  0  0  0  0  0
   41.2270   25.2920   34.7620 N   0  0  0  0  0  0  0  0  0  0  0  0
   43.6220   26.1930   34.3120 N   0  0  0  0  0  0  0  0  0  0  0  0
   44.1550   26.9190   33.1910 C   0  0  0  0  0  0  0  0  0  0  0  0
   45.2160   27.8680   33.7560 C   0  0  0  0  0  0  0  0  0  0  0  0
   46.1940   27.0450   34.3760 O   0  0  0  0  0  0  0  0  0  0  0  0
   45.6510   26.5610   35.5520 C   0  0  0  0  0  0  0  0  0  0  0  0
   44.5490   25.5700   35.2180 C   0  0  0  0  0  0  0  0  0  0  0  0
   38.7360   25.3460   34.8600 C   0  0  0  0  0  0  0  0  0  0  0  0
   38.2340   23.7930   38.2630 C   0  0  0  0  0  0  0  0  0  0  0  0
   38.0230   24.6440   37.1620 C   0  0  0  0  0  0  0  0  0  0  0  0
   38.8800   24.4860   36.0810 C   0  0  0  0  0  0  0  0  0  0  0  0
   39.8670   23.5370   36.1290 N   0  0  0  0  0  0  0  0  0  0  0  0
   40.0260   22.7410   37.2190 C   0  0  0  0  0  0  0  0  0  0  0  0
   39.2170   22.8680   38.2760 N   0  0  0  0  0  0  0  0  0  0  0  0
   41.1040   21.8240   37.0710 N   0  0  0  0  0  0  0  0  0  0  0  0
   41.7360   20.9970   37.8730 N   0  0  0  0  0  0  0  0  0  0  0  0
   42.7090   20.3410   37.2140 C   0  0  0  0  0  0  0  0  0  0  0  0
   42.6940   20.7840   35.8870 C   0  0  0  0  0  0  0  0  0  0  0  0
   41.6690   21.7200   35.8350 C   0  0  0  0  0  0  0  0  0  0  0  0
   43.3577   27.4918   32.6947 H   0  0  0  0  0  0  0  0  0  0  0  0
   44.5868   26.2376   32.4432 H   0  0  0  0  0  0  0  0  0  0  0  0
   45.6711   28.4568   32.9460 H   0  0  0  0  0  0  0  0  0  0  0  0
   44.7777   28.5786   34.4722 H   0  0  0  0  0  0  0  0  0  0  0  0
   46.4332   26.0582   36.1397 H   0  0  0  0  0  0  0  0  0  0  0  0
   45.2362   27.3933   36.1396 H   0  0  0  0  0  0  0  0  0  0  0  0
   44.0244   25.2766   36.1393 H   0  0  0  0  0  0  0  0  0  0  0  0
   44.9825   24.6738   34.7502 H   0  0  0  0  0  0  0  0  0  0  0  0
   37.9920   26.1348   35.0454 H   0  0  0  0  0  0  0  0  0  0  0  0
   38.3998   24.7405   34.0054 H   0  0  0  0  0  0  0  0  0  0  0  0
   37.5771   23.8846   39.1406 H   0  0  0  0  0  0  0  0  0  0  0  0
   37.2201   25.3959   37.1581 H   0  0  0  0  0  0  0  0  0  0  0  0
   43.3922   19.5922   37.6413 H   0  0  0  0  0  0  0  0  0  0  0  0
   43.3501   20.4617   35.0650 H   0  0  0  0  0  0  0  0  0  0  0  0
   41.3632   22.2850   34.9421 H   0  0  0  0  0  0  0  0  0  0  0  0
  1  5  1  0
  1 12  1  0
  2  1  2  0
  3  2  1  0
  3  4  1  0
  4  5  2  0
  6  4  1  0
  6 11  1  0
  7  8  1  0
  7  6  1  0
  8  9  1  0
  9 10  1  0
 11 10  1  0
 12 15  1  0
 13 18  2  0
 14 13  1  0
 15 16  1  0
 15 14  2  0
 16 17  2  0
 17 18  1  0
 19 17  1  0
 19 20  1  0
 21 20  2  0
 22 21  1  0
 23 22  2  0
 23 19  1  0
  7 24  1  0
  7 25  1  0
  8 26  1  0
  8 27  1  0
 10 28  1  0
 10 29  1  0
 11 30  1  0
 11 31  1  0
 12 32  1  0
 12 33  1  0
 13 34  1  0
 14 35  1  0
 21 36  1  0
 22 37  1  0
 23 38  1  0
M  ISO  8  24  13  25  13  26  13  27  13  28  13  29  13  30  13  31  13
M  ISO  7  32   8  33   8  34  14  35  14  36  14  37  14  38  14
M  END
>  <minimizedAffinity>  (1) 
-5.15887737

>  <minimizedRMSD>  (1) 
0.990722179

$$$$
