
     RDKit          3D

 45 49  0  0  0  0  0  0  0  0999 V2000
   38.2840   23.8860   34.8940 C   0  0  0  0  0  0  0  0  0  0  0  0
   41.5700   22.6350   33.5300 C   0  0  0  0  0  0  0  0  0  0  0  0
   40.6690   23.4480   34.2180 C   0  0  0  0  0  0  0  0  0  0  0  0
   39.3280   23.0800   34.1880 C   0  0  0  0  0  0  0  0  0  0  0  0
   38.9670   21.9460   33.4890 N   0  0  0  0  0  0  0  0  0  0  0  0
   39.8800   21.1950   32.8400 C   0  0  0  0  0  0  0  0  0  0  0  0
   41.1770   21.5460   32.8660 N   0  0  0  0  0  0  0  0  0  0  0  0
   39.2630   20.0800   32.1940 N   0  0  0  0  0  0  0  0  0  0  0  0
   40.0090   19.0570   31.7120 C   0  0  0  0  0  0  0  0  0  0  0  0
   39.2340   18.0950   31.1340 N   0  0  0  0  0  0  0  0  0  0  0  0
   37.9600   18.5310   31.2610 C   0  0  0  0  0  0  0  0  0  0  0  0
   36.7120   18.0420   30.8960 C   0  0  0  0  0  0  0  0  0  0  0  0
   36.6320   16.9370   30.3000 O   0  0  0  0  0  0  0  0  0  0  0  0
   35.6380   18.7980   31.2090 N   0  0  0  0  0  0  0  0  0  0  0  0
   35.6730   19.9700   31.8370 C   0  0  0  0  0  0  0  0  0  0  0  0
   34.4470   20.6580   32.1010 N   0  0  0  0  0  0  0  0  0  0  0  0
   36.8920   20.4640   32.2020 N   0  0  0  0  0  0  0  0  0  0  0  0
   37.9960   19.7470   31.9120 C   0  0  0  0  0  0  0  0  0  0  0  0
   37.8840   25.0030   34.0110 C   0  0  0  0  0  0  0  0  0  0  0  0
   37.1750   26.1310   34.3200 N   0  0  0  0  0  0  0  0  0  0  0  0
   37.0630   26.8330   33.2200 O   0  0  0  0  0  0  0  0  0  0  0  0
   37.6700   26.1980   32.2380 C   0  0  0  0  0  0  0  0  0  0  0  0
   38.2130   25.0250   32.6810 N   0  0  0  0  0  0  0  0  0  0  0  0
   37.6210   26.8730   30.9590 N   0  0  0  0  0  0  0  0  0  0  0  0
   36.3790   27.5500   30.7080 C   0  0  0  0  0  0  0  0  0  0  0  0
   36.7580   28.9880   30.2850 C   0  0  0  0  0  0  0  0  0  0  0  0
   37.5300   28.8560   29.1120 O   0  0  0  0  0  0  0  0  0  0  0  0
   38.7740   28.3770   29.4770 C   0  0  0  0  0  0  0  0  0  0  0  0
   38.6460   26.9400   29.9430 C   0  0  0  0  0  0  0  0  0  0  0  0
   37.4108   23.2538   35.1128 H   0  0  0  0  0  0  0  0  0  0  0  0
   38.6831   24.2763   35.8418 H   0  0  0  0  0  0  0  0  0  0  0  0
   42.6377   22.8997   33.5349 H   0  0  0  0  0  0  0  0  0  0  0  0
   41.0052   24.3431   34.7618 H   0  0  0  0  0  0  0  0  0  0  0  0
   41.1059   19.0082   31.7787 H   0  0  0  0  0  0  0  0  0  0  0  0
   34.7124   18.4362   30.9383 H   0  0  0  0  0  0  0  0  0  0  0  0
   34.4604   21.5663   32.5865 H   0  0  0  0  0  0  0  0  0  0  0  0
   33.5508   20.2451   31.8056 H   0  0  0  0  0  0  0  0  0  0  0  0
   35.8254   27.0472   29.9013 H   0  0  0  0  0  0  0  0  0  0  0  0
   35.7312   27.5481   31.5970 H   0  0  0  0  0  0  0  0  0  0  0  0
   35.8522   29.5783   30.0823 H   0  0  0  0  0  0  0  0  0  0  0  0
   37.3149   29.5084   31.0781 H   0  0  0  0  0  0  0  0  0  0  0  0
   39.4526   28.4230   28.6125 H   0  0  0  0  0  0  0  0  0  0  0  0
   39.1784   28.9925   30.2940 H   0  0  0  0  0  0  0  0  0  0  0  0
   38.3680   26.2986   29.0937 H   0  0  0  0  0  0  0  0  0  0  0  0
   39.6051   26.5921   30.3542 H   0  0  0  0  0  0  0  0  0  0  0  0
  2  3  2  0
  4  3  1  0
  4  1  1  0
  5  4  2  0
  6  7  2  0
  6  5  1  0
  7  2  1  0
  8  6  1  0
  9  8  1  0
 10 11  1  0
 10  9  2  0
 11 18  2  0
 12 14  1  0
 12 11  1  0
 13 12  2  0
 14 15  1  0
 15 16  1  0
 15 17  2  0
 18  8  1  0
 18 17  1  0
 19 20  2  0
 19  1  1  0
 21 20  1  0
 22 23  2  0
 22 21  1  0
 23 19  1  0
 24 22  1  0
 25 24  1  0
 26 25  1  0
 27 28  1  0
 27 26  1  0
 28 29  1  0
 29 24  1  0
  1 30  1  0
  1 31  1  0
  2 32  1  0
  3 33  1  0
  9 34  1  0
 14 35  1  0
 16 36  1  0
 16 37  1  0
 25 38  1  0
 25 39  1  0
 26 40  1  0
 26 41  1  0
 28 42  1  0
 28 43  1  0
 29 44  1  0
 29 45  1  0
M  ISO  8  30   8  31   8  32  14  33  14  34  14  35   9  38  13  39  13
M  ISO  6  40  13  41  13  42  13  43  13  44  13  45  13
M  END
>  <minimizedAffinity>  (1) 
-5.15010929

>  <minimizedRMSD>  (1) 
7.3981986

$$$$
