
     RDKit          3D

 41 44  0  0  0  0  0  0  0  0999 V2000
   38.0980   25.1570   34.9400 C   0  0  0  0  0  0  0  0  0  0  0  0
   39.2520   25.8550   34.3580 C   0  0  0  0  0  0  0  0  0  0  0  0
   39.9440   26.9280   34.8540 N   0  0  0  0  0  0  0  0  0  0  0  0
   40.8890   27.2000   33.9900 O   0  0  0  0  0  0  0  0  0  0  0  0
   40.8240   26.3590   32.9830 C   0  0  0  0  0  0  0  0  0  0  0  0
   39.8070   25.4880   33.1670 N   0  0  0  0  0  0  0  0  0  0  0  0
   41.8330   26.5770   31.9660 N   0  0  0  0  0  0  0  0  0  0  0  0
   42.1490   27.9700   31.7430 C   0  0  0  0  0  0  0  0  0  0  0  0
   43.6790   28.0660   31.7980 C   0  0  0  0  0  0  0  0  0  0  0  0
   44.1560   27.2330   30.7600 O   0  0  0  0  0  0  0  0  0  0  0  0
   44.0040   25.9160   31.1700 C   0  0  0  0  0  0  0  0  0  0  0  0
   42.5250   25.5850   31.1850 C   0  0  0  0  0  0  0  0  0  0  0  0
   38.3580   23.6340   38.3880 C   0  0  0  0  0  0  0  0  0  0  0  0
   37.8290   24.3760   37.3300 C   0  0  0  0  0  0  0  0  0  0  0  0
   38.5610   24.3960   36.1520 C   0  0  0  0  0  0  0  0  0  0  0  0
   39.7410   23.7060   36.0800 N   0  0  0  0  0  0  0  0  0  0  0  0
   40.2150   22.9970   37.1400 C   0  0  0  0  0  0  0  0  0  0  0  0
   39.5090   22.9730   38.2890 N   0  0  0  0  0  0  0  0  0  0  0  0
   41.4530   22.3580   36.8510 N   0  0  0  0  0  0  0  0  0  0  0  0
   41.7000   21.0870   37.2070 C   0  0  0  0  0  0  0  0  0  0  0  0
   42.8630   20.3830   36.9730 C   0  0  0  0  0  0  0  0  0  0  0  0
   43.8370   21.1130   36.2990 C   0  0  0  0  0  0  0  0  0  0  0  0
   44.9380   20.5660   36.0350 O   0  0  0  0  0  0  0  0  0  0  0  0
   43.6400   22.3990   35.9180 N   0  0  0  0  0  0  0  0  0  0  0  0
   42.4560   23.0010   36.1980 C   0  0  0  0  0  0  0  0  0  0  0  0
   42.3100   24.1990   35.8260 O   0  0  0  0  0  0  0  0  0  0  0  0
   37.6763   24.4585   34.2022 H   0  0  0  0  0  0  0  0  0  0  0  0
   37.3229   25.8837   35.2250 H   0  0  0  0  0  0  0  0  0  0  0  0
   41.6976   28.5954   32.5273 H   0  0  0  0  0  0  0  0  0  0  0  0
   41.7557   28.3249   30.7790 H   0  0  0  0  0  0  0  0  0  0  0  0
   44.0035   29.1044   31.6353 H   0  0  0  0  0  0  0  0  0  0  0  0
   44.0687   27.7540   32.7782 H   0  0  0  0  0  0  0  0  0  0  0  0
   44.5270   25.2469   30.4708 H   0  0  0  0  0  0  0  0  0  0  0  0
   44.4305   25.7824   32.1751 H   0  0  0  0  0  0  0  0  0  0  0  0
   42.1356   25.5874   30.1562 H   0  0  0  0  0  0  0  0  0  0  0  0
   42.3704   24.5891   31.6259 H   0  0  0  0  0  0  0  0  0  0  0  0
   37.8036   23.5943   39.3373 H   0  0  0  0  0  0  0  0  0  0  0  0
   36.8771   24.9188   37.4262 H   0  0  0  0  0  0  0  0  0  0  0  0
   40.8962   20.5551   37.7371 H   0  0  0  0  0  0  0  0  0  0  0  0
   43.0072   19.3397   37.2903 H   0  0  0  0  0  0  0  0  0  0  0  0
   44.3810   22.9139   35.4213 H   0  0  0  0  0  0  0  0  0  0  0  0
  1 15  1  0
  2  3  2  0
  2  1  1  0
  4  3  1  0
  5  6  2  0
  5  4  1  0
  6  2  1  0
  7  5  1  0
  8  9  1  0
  8  7  1  0
 10 11  1  0
 10  9  1  0
 11 12  1  0
 12  7  1  0
 14 13  2  0
 15 14  1  0
 16 15  2  0
 16 17  1  0
 17 18  2  0
 18 13  1  0
 19 17  1  0
 19 20  1  0
 21 20  2  0
 22 21  1  0
 23 22  2  0
 24 25  1  0
 24 22  1  0
 25 19  1  0
 26 25  2  0
  1 27  1  0
  1 28  1  0
  8 29  1  0
  8 30  1  0
  9 31  1  0
  9 32  1  0
 11 33  1  0
 11 34  1  0
 12 35  1  0
 12 36  1  0
 13 37  1  0
 14 38  1  0
 20 39  1  0
 21 40  1  0
 24 41  1  0
M  ISO  8  27   8  28   8  29  13  30  13  31  13  32  13  33  13  34  13
M  ISO  7  35  13  36  13  37  14  38  14  39  14  40  14  41   9
M  END
>  <minimizedAffinity>  (1) 
-5.11593628

>  <minimizedRMSD>  (1) 
2.67740512

$$$$
