
     RDKit          3D

 31 33  0  0  0  0  0  0  0  0999 V2000
   39.2530   26.3890   34.8480 C   0  0  0  0  0  0  0  0  0  0  0  0
   38.2540   27.1450   34.0530 C   0  0  0  0  0  0  0  0  0  0  0  0
   37.1280   27.6440   34.6600 C   0  0  0  0  0  0  0  0  0  0  0  0
   36.1500   28.3660   33.9650 C   0  0  0  0  0  0  0  0  0  0  0  0
   36.3350   28.5700   32.6430 N   0  0  0  0  0  0  0  0  0  0  0  0
   37.4460   28.0810   32.0340 C   0  0  0  0  0  0  0  0  0  0  0  0
   38.3650   27.3890   32.7460 N   0  0  0  0  0  0  0  0  0  0  0  0
   37.7870   28.2100   30.6600 N   0  0  0  0  0  0  0  0  0  0  0  0
   38.8390   27.7010   29.9870 C   0  0  0  0  0  0  0  0  0  0  0  0
   38.7310   28.1050   28.6750 C   0  0  0  0  0  0  0  0  0  0  0  0
   37.6160   28.8520   28.5710 N   0  0  0  0  0  0  0  0  0  0  0  0
   37.0240   28.9270   29.7850 C   0  0  0  0  0  0  0  0  0  0  0  0
   39.0680   24.8950   34.7390 C   0  0  0  0  0  0  0  0  0  0  0  0
   39.7570   22.8070   37.7560 C   0  0  0  0  0  0  0  0  0  0  0  0
   38.7980   23.3050   38.6630 C   0  0  0  0  0  0  0  0  0  0  0  0
   37.9360   24.3390   38.2360 C   0  0  0  0  0  0  0  0  0  0  0  0
   38.0810   24.7980   36.9650 N   0  0  0  0  0  0  0  0  0  0  0  0
   39.0230   24.2900   36.1160 C   0  0  0  0  0  0  0  0  0  0  0  0
   39.8350   23.3190   36.5120 N   0  0  0  0  0  0  0  0  0  0  0  0
   40.2595   26.6470   34.4869 H   0  0  0  0  0  0  0  0  0  0  0  0
   39.1186   26.6661   35.9040 H   0  0  0  0  0  0  0  0  0  0  0  0
   36.9884   27.4693   35.7370 H   0  0  0  0  0  0  0  0  0  0  0  0
   35.2590   28.7548   34.4798 H   0  0  0  0  0  0  0  0  0  0  0  0
   39.6392   27.0758   30.4099 H   0  0  0  0  0  0  0  0  0  0  0  0
   39.4288   27.8616   27.8603 H   0  0  0  0  0  0  0  0  0  0  0  0
   36.0962   29.4677   30.0234 H   0  0  0  0  0  0  0  0  0  0  0  0
   38.1256   24.6802   34.2138 H   0  0  0  0  0  0  0  0  0  0  0  0
   39.9094   24.4628   34.1775 H   0  0  0  0  0  0  0  0  0  0  0  0
   40.4402   22.0018   38.0639 H   0  0  0  0  0  0  0  0  0  0  0  0
   38.7232   22.8964   39.6816 H   0  0  0  0  0  0  0  0  0  0  0  0
   37.1736   24.7584   38.9089 H   0  0  0  0  0  0  0  0  0  0  0  0
  2  3  2  0
  2  1  1  0
  4  3  1  0
  5  4  2  0
  6  5  1  0
  6  7  2  0
  7  2  1  0
  8  6  1  0
  9  8  1  0
 10  9  2  0
 11 10  1  0
 11 12  2  0
 12  8  1  0
 13  1  1  0
 13 18  1  0
 14 15  2  0
 16 15  1  0
 17 16  2  0
 18 19  2  0
 18 17  1  0
 19 14  1  0
  1 20  1  0
  1 21  1  0
  3 22  1  0
  4 23  1  0
  9 24  1  0
 10 25  1  0
 12 26  1  0
 13 27  1  0
 13 28  1  0
 14 29  1  0
 15 30  1  0
 16 31  1  0
M  ISO  8  20   8  21   8  22  14  23  14  24  14  25  14  26  14  27   8
M  ISO  4  28   8  29  14  30  14  31  14
M  END
>  <minimizedAffinity>  (1) 
-4.92984295

>  <minimizedRMSD>  (1) 
0.363234162

$$$$
