
     RDKit          3D

 42 45  0  0  0  0  0  0  0  0999 V2000
   37.6410   25.7220   35.7810 C   0  0  0  0  0  0  0  0  0  0  0  0
   38.5350   26.1710   34.6960 C   0  0  0  0  0  0  0  0  0  0  0  0
   39.5300   27.0870   34.7260 N   0  0  0  0  0  0  0  0  0  0  0  0
   40.0440   27.1530   33.5290 O   0  0  0  0  0  0  0  0  0  0  0  0
   39.4110   26.3100   32.7420 C   0  0  0  0  0  0  0  0  0  0  0  0
   38.4380   25.6560   33.4300 N   0  0  0  0  0  0  0  0  0  0  0  0
   39.8950   26.2900   31.3720 N   0  0  0  0  0  0  0  0  0  0  0  0
   40.2910   27.5900   30.8790 C   0  0  0  0  0  0  0  0  0  0  0  0
   41.7000   27.3930   30.2830 C   0  0  0  0  0  0  0  0  0  0  0  0
   41.5610   26.4480   29.2460 O   0  0  0  0  0  0  0  0  0  0  0  0
   41.3770   25.2040   29.8250 C   0  0  0  0  0  0  0  0  0  0  0  0
   40.0150   25.1560   30.4920 C   0  0  0  0  0  0  0  0  0  0  0  0
   38.6590   23.3510   38.5570 C   0  0  0  0  0  0  0  0  0  0  0  0
   37.9090   24.3340   37.8800 C   0  0  0  0  0  0  0  0  0  0  0  0
   38.3580   24.6890   36.5960 C   0  0  0  0  0  0  0  0  0  0  0  0
   39.4750   24.0860   36.0570 N   0  0  0  0  0  0  0  0  0  0  0  0
   40.1460   23.1500   36.7640 C   0  0  0  0  0  0  0  0  0  0  0  0
   39.7390   22.7860   38.0060 N   0  0  0  0  0  0  0  0  0  0  0  0
   41.2850   22.5860   36.1240 N   0  0  0  0  0  0  0  0  0  0  0  0
   42.5710   22.5650   36.5100 C   0  0  0  0  0  0  0  0  0  0  0  0
   43.5090   21.9500   35.7080 C   0  0  0  0  0  0  0  0  0  0  0  0
   43.1590   21.3550   34.5160 C   0  0  0  0  0  0  0  0  0  0  0  0
   44.1830   20.7400   33.7420 N   0  0  0  0  0  0  0  0  0  0  0  0
   41.8500   21.3860   34.1390 N   0  0  0  0  0  0  0  0  0  0  0  0
   40.9420   22.0000   34.9490 C   0  0  0  0  0  0  0  0  0  0  0  0
   39.7840   21.9290   34.4360 O   0  0  0  0  0  0  0  0  0  0  0  0
   36.7271   25.2859   35.3513 H   0  0  0  0  0  0  0  0  0  0  0  0
   37.3641   26.5759   36.4168 H   0  0  0  0  0  0  0  0  0  0  0  0
   39.5911   27.9370   30.1046 H   0  0  0  0  0  0  0  0  0  0  0  0
   40.2875   28.3474   31.6767 H   0  0  0  0  0  0  0  0  0  0  0  0
   42.0811   28.3443   29.8832 H   0  0  0  0  0  0  0  0  0  0  0  0
   42.4129   27.0479   31.0463 H   0  0  0  0  0  0  0  0  0  0  0  0
   41.4336   24.4260   29.0494 H   0  0  0  0  0  0  0  0  0  0  0  0
   42.1609   25.0285   30.5764 H   0  0  0  0  0  0  0  0  0  0  0  0
   39.2258   25.1954   29.7267 H   0  0  0  0  0  0  0  0  0  0  0  0
   39.9092   24.2227   31.0645 H   0  0  0  0  0  0  0  0  0  0  0  0
   38.3478   23.0403   39.5653 H   0  0  0  0  0  0  0  0  0  0  0  0
   37.0202   24.7983   38.3321 H   0  0  0  0  0  0  0  0  0  0  0  0
   42.8735   23.0343   37.4577 H   0  0  0  0  0  0  0  0  0  0  0  0
   44.5614   21.9342   36.0276 H   0  0  0  0  0  0  0  0  0  0  0  0
   43.9502   20.2875   32.8465 H   0  0  0  0  0  0  0  0  0  0  0  0
   45.1568   20.7475   34.0774 H   0  0  0  0  0  0  0  0  0  0  0  0
  1 15  1  0
  2  3  2  0
  2  1  1  0
  4  3  1  0
  5  6  2  0
  5  4  1  0
  6  2  1  0
  7  5  1  0
  8  7  1  0
  9  8  1  0
 10 11  1  0
 10  9  1  0
 11 12  1  0
 12  7  1  0
 14 13  2  0
 15 14  1  0
 16 15  2  0
 16 17  1  0
 17 18  2  0
 18 13  1  0
 19 20  1  0
 19 17  1  0
 21 20  2  0
 22 21  1  0
 23 22  1  0
 24 22  2  0
 24 25  1  0
 25 19  1  0
 26 25  2  0
  1 27  1  0
  1 28  1  0
  8 29  1  0
  8 30  1  0
  9 31  1  0
  9 32  1  0
 11 33  1  0
 11 34  1  0
 12 35  1  0
 12 36  1  0
 13 37  1  0
 14 38  1  0
 20 39  1  0
 21 40  1  0
 23 41  1  0
 23 42  1  0
M  ISO  8  27   8  28   8  29  13  30  13  31  13  32  13  33  13  34  13
M  ISO  6  35  13  36  13  37  14  38  14  39  14  40  14
M  END
>  <minimizedAffinity>  (1) 
-5.02729702

>  <minimizedRMSD>  (1) 
4.03113604

$$$$
