
     RDKit          3D

 41 44  0  0  0  0  0  0  0  0999 V2000
   38.7110   25.3510   33.6900 C   0  0  0  0  0  0  0  0  0  0  0  0
   40.0870   25.6390   34.1460 C   0  0  0  0  0  0  0  0  0  0  0  0
   40.6020   26.8230   34.5730 N   0  0  0  0  0  0  0  0  0  0  0  0
   41.8510   26.6120   34.8740 O   0  0  0  0  0  0  0  0  0  0  0  0
   42.1470   25.3420   34.6530 C   0  0  0  0  0  0  0  0  0  0  0  0
   41.0620   24.6820   34.1910 N   0  0  0  0  0  0  0  0  0  0  0  0
   43.5210   25.0000   34.9570 N   0  0  0  0  0  0  0  0  0  0  0  0
   44.4690   26.0410   34.6550 C   0  0  0  0  0  0  0  0  0  0  0  0
   45.3260   26.2090   35.9140 C   0  0  0  0  0  0  0  0  0  0  0  0
   45.9600   24.9670   36.1300 O   0  0  0  0  0  0  0  0  0  0  0  0
   45.0020   24.0950   36.6130 C   0  0  0  0  0  0  0  0  0  0  0  0
   44.0180   23.7700   35.5090 C   0  0  0  0  0  0  0  0  0  0  0  0
   37.7630   22.8200   36.3220 C   0  0  0  0  0  0  0  0  0  0  0  0
   38.2410   24.0080   35.7710 C   0  0  0  0  0  0  0  0  0  0  0  0
   38.2270   24.1300   34.3880 C   0  0  0  0  0  0  0  0  0  0  0  0
   37.7460   23.0770   33.6440 N   0  0  0  0  0  0  0  0  0  0  0  0
   37.2940   21.9450   34.2190 C   0  0  0  0  0  0  0  0  0  0  0  0
   37.3010   21.8120   35.5490 N   0  0  0  0  0  0  0  0  0  0  0  0
   36.8070   20.8950   33.3270 C   0  0  0  0  0  0  0  0  0  0  0  0
   35.5890   20.2680   33.5450 C   0  0  0  0  0  0  0  0  0  0  0  0
   35.1800   19.2820   32.6690 C   0  0  0  0  0  0  0  0  0  0  0  0
   35.9550   18.8970   31.5710 C   0  0  0  0  0  0  0  0  0  0  0  0
   37.1600   19.5400   31.3810 C   0  0  0  0  0  0  0  0  0  0  0  0
   37.6050   20.5430   32.2500 C   0  0  0  0  0  0  0  0  0  0  0  0
   38.0550   26.2005   33.9310 H   0  0  0  0  0  0  0  0  0  0  0  0
   38.7008   25.1914   32.6017 H   0  0  0  0  0  0  0  0  0  0  0  0
   45.0976   25.7496   33.8007 H   0  0  0  0  0  0  0  0  0  0  0  0
   43.9641   26.9796   34.3828 H   0  0  0  0  0  0  0  0  0  0  0  0
   46.0767   26.9984   35.7612 H   0  0  0  0  0  0  0  0  0  0  0  0
   44.7126   26.5007   36.7793 H   0  0  0  0  0  0  0  0  0  0  0  0
   45.4874   23.1696   36.9565 H   0  0  0  0  0  0  0  0  0  0  0  0
   44.4698   24.5621   37.4548 H   0  0  0  0  0  0  0  0  0  0  0  0
   43.1822   23.1840   35.9190 H   0  0  0  0  0  0  0  0  0  0  0  0
   44.5164   23.1818   34.7244 H   0  0  0  0  0  0  0  0  0  0  0  0
   37.7618   22.6997   37.4154 H   0  0  0  0  0  0  0  0  0  0  0  0
   38.6164   24.8209   36.4100 H   0  0  0  0  0  0  0  0  0  0  0  0
   34.9595   20.5515   34.4014 H   0  0  0  0  0  0  0  0  0  0  0  0
   34.2143   18.7840   32.8405 H   0  0  0  0  0  0  0  0  0  0  0  0
   35.6155   18.1089   30.8828 H   0  0  0  0  0  0  0  0  0  0  0  0
   37.7883   19.2571   30.5236 H   0  0  0  0  0  0  0  0  0  0  0  0
   38.5703   21.0426   32.0812 H   0  0  0  0  0  0  0  0  0  0  0  0
  1  2  1  0
  1 15  1  0
  2  6  1  0
  2  3  2  0
  3  4  1  0
  5  4  1  0
  5  7  1  0
  6  5  2  0
  7 12  1  0
  8  7  1  0
  8  9  1  0
  9 10  1  0
 10 11  1  0
 12 11  1  0
 14 13  2  0
 15 14  1  0
 16 17  1  0
 16 15  2  0
 17 18  2  0
 18 13  1  0
 19 20  2  0
 19 17  1  0
 21 20  1  0
 22 21  2  0
 23 22  1  0
 23 24  2  0
 24 19  1  0
  1 25  1  0
  1 26  1  0
  8 27  1  0
  8 28  1  0
  9 29  1  0
  9 30  1  0
 11 31  1  0
 11 32  1  0
 12 33  1  0
 12 34  1  0
 13 35  1  0
 14 36  1  0
 20 37  1  0
 21 38  1  0
 22 39  1  0
 23 40  1  0
 24 41  1  0
M  ISO  8  25   8  26   8  27  13  28  13  29  13  30  13  31  13  32  13
M  ISO  8  33  13  34  13  35  14  36  14  37  14  38  14  39  14  40  14
M  ISO  1  41  14
M  END
>  <minimizedAffinity>  (1) 
-5.02479076

>  <minimizedRMSD>  (1) 
4.51848888

$$$$
