
     RDKit          3D

 41 44  0  0  0  0  0  0  0  0999 V2000
   37.8770   25.4340   35.4040 C   0  0  0  0  0  0  0  0  0  0  0  0
   38.9970   26.0260   34.6310 C   0  0  0  0  0  0  0  0  0  0  0  0
   39.8200   27.0430   34.9730 N   0  0  0  0  0  0  0  0  0  0  0  0
   40.6570   27.2250   33.9890 O   0  0  0  0  0  0  0  0  0  0  0  0
   40.3860   26.3510   33.0350 C   0  0  0  0  0  0  0  0  0  0  0  0
   39.3400   25.5680   33.3980 N   0  0  0  0  0  0  0  0  0  0  0  0
   41.2580   26.4570   31.8810 N   0  0  0  0  0  0  0  0  0  0  0  0
   41.6310   27.8050   31.5510 C   0  0  0  0  0  0  0  0  0  0  0  0
   43.1530   27.8010   31.3930 C   0  0  0  0  0  0  0  0  0  0  0  0
   43.4350   26.8890   30.3440 O   0  0  0  0  0  0  0  0  0  0  0  0
   43.2420   25.6100   30.8320 C   0  0  0  0  0  0  0  0  0  0  0  0
   41.7660   25.3900   31.0660 C   0  0  0  0  0  0  0  0  0  0  0  0
   38.4020   23.4480   38.5660 C   0  0  0  0  0  0  0  0  0  0  0  0
   37.8030   24.3100   37.6460 C   0  0  0  0  0  0  0  0  0  0  0  0
   38.4490   24.5300   36.4360 C   0  0  0  0  0  0  0  0  0  0  0  0
   39.6380   23.8880   36.2130 N   0  0  0  0  0  0  0  0  0  0  0  0
   40.1870   23.0590   37.1320 C   0  0  0  0  0  0  0  0  0  0  0  0
   39.5700   22.8410   38.3020 N   0  0  0  0  0  0  0  0  0  0  0  0
   41.4530   22.3920   36.8600 C   0  0  0  0  0  0  0  0  0  0  0  0
   41.6390   21.0800   37.3080 C   0  0  0  0  0  0  0  0  0  0  0  0
   42.8470   20.4580   37.0440 C   0  0  0  0  0  0  0  0  0  0  0  0
   43.8500   21.1020   36.3590 C   0  0  0  0  0  0  0  0  0  0  0  0
   43.6640   22.4020   35.9170 C   0  0  0  0  0  0  0  0  0  0  0  0
   42.4650   23.0030   36.1850 C   0  0  0  0  0  0  0  0  0  0  0  0
   37.2216   24.8622   34.7306 H   0  0  0  0  0  0  0  0  0  0  0  0
   37.2848   26.2282   35.8820 H   0  0  0  0  0  0  0  0  0  0  0  0
   41.1510   28.1140   30.6108 H   0  0  0  0  0  0  0  0  0  0  0  0
   41.3111   28.5115   32.3311 H   0  0  0  0  0  0  0  0  0  0  0  0
   43.5127   28.8071   31.1317 H   0  0  0  0  0  0  0  0  0  0  0  0
   43.6542   27.5078   32.3273 H   0  0  0  0  0  0  0  0  0  0  0  0
   43.6128   24.8765   30.1009 H   0  0  0  0  0  0  0  0  0  0  0  0
   43.7905   25.4865   31.7775 H   0  0  0  0  0  0  0  0  0  0  0  0
   41.2373   25.3788   30.1015 H   0  0  0  0  0  0  0  0  0  0  0  0
   41.6097   24.4272   31.5744 H   0  0  0  0  0  0  0  0  0  0  0  0
   37.9055   23.2617   39.5297 H   0  0  0  0  0  0  0  0  0  0  0  0
   36.8455   24.8017   37.8729 H   0  0  0  0  0  0  0  0  0  0  0  0
   40.8438   20.5548   37.8573 H   0  0  0  0  0  0  0  0  0  0  0  0
   43.0079   19.4262   37.3897 H   0  0  0  0  0  0  0  0  0  0  0  0
   44.8007   20.5850   36.1617 H   0  0  0  0  0  0  0  0  0  0  0  0
   44.4553   22.9336   35.3682 H   0  0  0  0  0  0  0  0  0  0  0  0
   42.3102   24.0348   35.8366 H   0  0  0  0  0  0  0  0  0  0  0  0
  1 15  1  0
  2  3  2  0
  2  1  1  0
  4  3  1  0
  5  6  2  0
  5  4  1  0
  6  2  1  0
  7  5  1  0
  8  7  1  0
  9  8  1  0
 10 11  1  0
 10  9  1  0
 11 12  1  0
 12  7  1  0
 14 13  2  0
 15 14  1  0
 16 15  2  0
 16 17  1  0
 17 18  2  0
 18 13  1  0
 19 17  1  0
 19 20  2  0
 21 20  1  0
 22 21  2  0
 23 24  2  0
 23 22  1  0
 24 19  1  0
  1 25  1  0
  1 26  1  0
  8 27  1  0
  8 28  1  0
  9 29  1  0
  9 30  1  0
 11 31  1  0
 11 32  1  0
 12 33  1  0
 12 34  1  0
 13 35  1  0
 14 36  1  0
 20 37  1  0
 21 38  1  0
 22 39  1  0
 23 40  1  0
 24 41  1  0
M  ISO  8  25   8  26   8  27  13  28  13  29  13  30  13  31  13  32  13
M  ISO  8  33  13  34  13  35  14  36  14  37  14  38  14  39  14  40  14
M  ISO  1  41  14
M  END
>  <minimizedAffinity>  (1) 
-5.00792408

>  <minimizedRMSD>  (1) 
3.09589267

$$$$
