
     RDKit          3D

 39 42  0  0  0  0  0  0  0  0999 V2000
   41.2570   24.6110   34.8590 C   0  0  0  0  0  0  0  0  0  0  0  0
   41.8000   23.4620   35.3160 N   0  0  0  0  0  0  0  0  0  0  0  0
   42.9910   23.7500   35.7820 O   0  0  0  0  0  0  0  0  0  0  0  0
   43.2090   25.0380   35.6340 C   0  0  0  0  0  0  0  0  0  0  0  0
   42.1430   25.6280   35.0540 N   0  0  0  0  0  0  0  0  0  0  0  0
   44.5040   25.4690   36.1190 N   0  0  0  0  0  0  0  0  0  0  0  0
   44.9470   24.7840   37.3020 C   0  0  0  0  0  0  0  0  0  0  0  0
   46.3770   24.3040   37.0020 C   0  0  0  0  0  0  0  0  0  0  0  0
   47.1350   25.4700   36.7550 O   0  0  0  0  0  0  0  0  0  0  0  0
   46.7790   25.9520   35.5130 C   0  0  0  0  0  0  0  0  0  0  0  0
   45.3700   26.4810   35.5570 C   0  0  0  0  0  0  0  0  0  0  0  0
   39.9380   24.8400   34.2380 C   0  0  0  0  0  0  0  0  0  0  0  0
   37.7310   22.7930   36.5120 C   0  0  0  0  0  0  0  0  0  0  0  0
   38.6410   23.7730   36.1120 C   0  0  0  0  0  0  0  0  0  0  0  0
   38.9740   23.8300   34.7680 C   0  0  0  0  0  0  0  0  0  0  0  0
   38.4070   22.9370   33.8990 N   0  0  0  0  0  0  0  0  0  0  0  0
   37.5240   21.9960   34.3240 C   0  0  0  0  0  0  0  0  0  0  0  0
   37.1970   21.9360   35.6290 N   0  0  0  0  0  0  0  0  0  0  0  0
   36.9250   21.0470   33.3810 C   0  0  0  0  0  0  0  0  0  0  0  0
   35.6800   20.5100   33.6900 C   0  0  0  0  0  0  0  0  0  0  0  0
   35.1680   19.6130   32.7490 C   0  0  0  0  0  0  0  0  0  0  0  0
   35.8430   19.3010   31.6290 N   0  0  0  0  0  0  0  0  0  0  0  0
   37.0490   19.8470   31.3710 C   0  0  0  0  0  0  0  0  0  0  0  0
   37.5800   20.7180   32.2530 N   0  0  0  0  0  0  0  0  0  0  0  0
   44.9461   25.4684   38.1632 H   0  0  0  0  0  0  0  0  0  0  0  0
   44.2837   23.9433   37.5536 H   0  0  0  0  0  0  0  0  0  0  0  0
   46.7859   23.7579   37.8649 H   0  0  0  0  0  0  0  0  0  0  0  0
   46.4000   23.6187   36.1419 H   0  0  0  0  0  0  0  0  0  0  0  0
   46.8413   25.1395   34.7741 H   0  0  0  0  0  0  0  0  0  0  0  0
   47.4637   26.7645   35.2283 H   0  0  0  0  0  0  0  0  0  0  0  0
   45.3350   27.3851   36.1826 H   0  0  0  0  0  0  0  0  0  0  0  0
   45.0358   26.7325   34.5396 H   0  0  0  0  0  0  0  0  0  0  0  0
   40.0203   24.7350   33.1461 H   0  0  0  0  0  0  0  0  0  0  0  0
   39.5845   25.8542   34.4753 H   0  0  0  0  0  0  0  0  0  0  0  0
   37.4462   22.7221   37.5721 H   0  0  0  0  0  0  0  0  0  0  0  0
   39.0781   24.4748   36.8375 H   0  0  0  0  0  0  0  0  0  0  0  0
   35.1369   20.7727   34.6098 H   0  0  0  0  0  0  0  0  0  0  0  0
   34.1867   19.1499   32.9293 H   0  0  0  0  0  0  0  0  0  0  0  0
   37.5932   19.5848   30.4517 H   0  0  0  0  0  0  0  0  0  0  0  0
  1  5  1  0
  1  2  2  0
  2  3  1  0
  4  3  1  0
  4  6  1  0
  5  4  2  0
  6  7  1  0
  8  7  1  0
  9  8  1  0
 10 11  1  0
 10  9  1  0
 11  6  1  0
 12 15  1  0
 12  1  1  0
 14 13  2  0
 15 14  1  0
 16 17  1  0
 16 15  2  0
 17 18  2  0
 18 13  1  0
 19 20  2  0
 19 17  1  0
 21 20  1  0
 22 21  2  0
 23 22  1  0
 23 24  2  0
 24 19  1  0
  7 25  1  0
  7 26  1  0
  8 27  1  0
  8 28  1  0
 10 29  1  0
 10 30  1  0
 11 31  1  0
 11 32  1  0
 12 33  1  0
 12 34  1  0
 13 35  1  0
 14 36  1  0
 20 37  1  0
 21 38  1  0
 23 39  1  0
M  ISO  8  25  13  26  13  27  13  28  13  29  13  30  13  31  13  32  13
M  ISO  7  33   8  34   8  35  14  36  14  37  14  38  14  39  14
M  END
>  <minimizedAffinity>  (1) 
-4.94678593

>  <minimizedRMSD>  (1) 
4.73014402

$$$$
