
     RDKit          3D

 37 40  0  0  0  0  0  0  0  0999 V2000
   39.8310   26.7800   34.6160 C   0  0  0  0  0  0  0  0  0  0  0  0
   40.8430   27.4460   33.9790 N   0  0  0  0  0  0  0  0  0  0  0  0
   41.9210   26.7320   34.1330 O   0  0  0  0  0  0  0  0  0  0  0  0
   41.6340   25.6540   34.8330 C   0  0  0  0  0  0  0  0  0  0  0  0
   40.3250   25.6360   35.1640 N   0  0  0  0  0  0  0  0  0  0  0  0
   42.7730   24.7900   35.0600 N   0  0  0  0  0  0  0  0  0  0  0  0
   43.6970   24.7180   33.9530 C   0  0  0  0  0  0  0  0  0  0  0  0
   45.0850   24.9510   34.5420 C   0  0  0  0  0  0  0  0  0  0  0  0
   45.2940   23.9050   35.4750 O   0  0  0  0  0  0  0  0  0  0  0  0
   44.5180   24.1890   36.5920 C   0  0  0  0  0  0  0  0  0  0  0  0
   43.0700   24.0180   36.2340 C   0  0  0  0  0  0  0  0  0  0  0  0
   38.3990   27.1590   34.7460 C   0  0  0  0  0  0  0  0  0  0  0  0
   36.6570   27.2450   31.3990 C   0  0  0  0  0  0  0  0  0  0  0  0
   37.3090   27.7110   32.5390 C   0  0  0  0  0  0  0  0  0  0  0  0
   37.6950   26.7570   33.4940 C   0  0  0  0  0  0  0  0  0  0  0  0
   37.4220   25.4300   33.2760 N   0  0  0  0  0  0  0  0  0  0  0  0
   36.7850   25.0370   32.1500 C   0  0  0  0  0  0  0  0  0  0  0  0
   36.3990   25.9320   31.2090 N   0  0  0  0  0  0  0  0  0  0  0  0
   36.4590   23.7060   31.8330 N   0  0  0  0  0  0  0  0  0  0  0  0
   37.3320   22.7430   32.1690 C   0  0  0  0  0  0  0  0  0  0  0  0
   36.8850   21.5140   31.8020 N   0  0  0  0  0  0  0  0  0  0  0  0
   35.6760   21.7450   31.2110 C   0  0  0  0  0  0  0  0  0  0  0  0
   35.4610   23.0700   31.2510 N   0  0  0  0  0  0  0  0  0  0  0  0
   43.4629   25.4943   33.2096 H   0  0  0  0  0  0  0  0  0  0  0  0
   43.6361   23.7456   33.4423 H   0  0  0  0  0  0  0  0  0  0  0  0
   45.8474   24.9146   33.7499 H   0  0  0  0  0  0  0  0  0  0  0  0
   45.1590   25.9386   35.0207 H   0  0  0  0  0  0  0  0  0  0  0  0
   44.7803   23.5004   37.4087 H   0  0  0  0  0  0  0  0  0  0  0  0
   44.7013   25.2227   36.9203 H   0  0  0  0  0  0  0  0  0  0  0  0
   42.4426   24.3638   37.0687 H   0  0  0  0  0  0  0  0  0  0  0  0
   42.8640   22.9557   36.0362 H   0  0  0  0  0  0  0  0  0  0  0  0
   37.9531   26.6397   35.6071 H   0  0  0  0  0  0  0  0  0  0  0  0
   38.3058   28.2438   34.9028 H   0  0  0  0  0  0  0  0  0  0  0  0
   36.3430   27.9672   30.6310 H   0  0  0  0  0  0  0  0  0  0  0  0
   37.5128   28.7821   32.6846 H   0  0  0  0  0  0  0  0  0  0  0  0
   38.2898   22.9264   32.6780 H   0  0  0  0  0  0  0  0  0  0  0  0
   35.0037   20.9873   30.7822 H   0  0  0  0  0  0  0  0  0  0  0  0
  1 12  1  0
  1  5  1  0
  2  3  1  0
  2  1  2  0
  3  4  1  0
  4  6  1  0
  4  5  2  0
  6 11  1  0
  7  8  1  0
  7  6  1  0
  8  9  1  0
  9 10  1  0
 11 10  1  0
 13 14  2  0
 14 15  1  0
 15 12  1  0
 16 15  2  0
 17 16  1  0
 18 13  1  0
 18 17  2  0
 19 17  1  0
 19 20  1  0
 21 20  2  0
 22 23  2  0
 22 21  1  0
 23 19  1  0
  7 24  1  0
  7 25  1  0
  8 26  1  0
  8 27  1  0
 10 28  1  0
 10 29  1  0
 11 30  1  0
 11 31  1  0
 12 32  1  0
 12 33  1  0
 13 34  1  0
 14 35  1  0
 20 36  1  0
 22 37  1  0
M  ISO  8  24  13  25  13  26  13  27  13  28  13  29  13  30  13  31  13
M  ISO  6  32   8  33   8  34  14  35  14  36  14  37  14
M  END
>  <minimizedAffinity>  (1) 
-4.89155149

>  <minimizedRMSD>  (1) 
5.4526968

$$$$
