
     RDKit          3D

 44 48  0  0  0  0  0  0  0  0999 V2000
   40.7600   23.8460   35.8430 C   0  0  0  0  0  0  0  0  0  0  0  0
   42.0070   24.5610   35.4610 C   0  0  0  0  0  0  0  0  0  0  0  0
   43.2790   24.3120   35.8510 N   0  0  0  0  0  0  0  0  0  0  0  0
   44.0460   25.1860   35.2700 O   0  0  0  0  0  0  0  0  0  0  0  0
   43.3000   25.9830   34.5220 C   0  0  0  0  0  0  0  0  0  0  0  0
   41.9930   25.6230   34.6140 N   0  0  0  0  0  0  0  0  0  0  0  0
   44.0490   27.0070   33.8210 N   0  0  0  0  0  0  0  0  0  0  0  0
   45.1670   27.5310   34.5650 C   0  0  0  0  0  0  0  0  0  0  0  0
   46.3720   27.4550   33.6020 C   0  0  0  0  0  0  0  0  0  0  0  0
   46.0470   28.2610   32.5010 O   0  0  0  0  0  0  0  0  0  0  0  0
   45.0940   27.6040   31.7460 C   0  0  0  0  0  0  0  0  0  0  0  0
   43.7980   27.5330   32.5000 C   0  0  0  0  0  0  0  0  0  0  0  0
   40.5510   21.1070   33.2530 C   0  0  0  0  0  0  0  0  0  0  0  0
   41.0250   21.8300   34.3440 C   0  0  0  0  0  0  0  0  0  0  0  0
   40.3290   23.0020   34.6890 C   0  0  0  0  0  0  0  0  0  0  0  0
   39.2220   23.3890   33.9470 N   0  0  0  0  0  0  0  0  0  0  0  0
   38.8300   22.6290   32.9030 C   0  0  0  0  0  0  0  0  0  0  0  0
   39.4780   21.5090   32.5580 N   0  0  0  0  0  0  0  0  0  0  0  0
   37.7000   22.9930   32.1190 N   0  0  0  0  0  0  0  0  0  0  0  0
   36.9520   22.1990   31.3020 C   0  0  0  0  0  0  0  0  0  0  0  0
   35.9870   22.9410   30.7580 N   0  0  0  0  0  0  0  0  0  0  0  0
   36.1070   24.1860   31.2130 C   0  0  0  0  0  0  0  0  0  0  0  0
   35.4210   25.3640   31.0140 C   0  0  0  0  0  0  0  0  0  0  0  0
   35.7740   26.5290   31.6290 N   0  0  0  0  0  0  0  0  0  0  0  0
   36.8420   26.5530   32.4760 C   0  0  0  0  0  0  0  0  0  0  0  0
   37.5030   25.3990   32.6610 N   0  0  0  0  0  0  0  0  0  0  0  0
   37.1840   24.2330   32.0730 C   0  0  0  0  0  0  0  0  0  0  0  0
   34.3010   25.4100   30.1470 N   0  0  0  0  0  0  0  0  0  0  0  0
   40.9506   23.2085   36.7189 H   0  0  0  0  0  0  0  0  0  0  0  0
   39.9718   24.5699   36.0974 H   0  0  0  0  0  0  0  0  0  0  0  0
   44.9771   28.5729   34.8624 H   0  0  0  0  0  0  0  0  0  0  0  0
   45.3457   26.9626   35.4896 H   0  0  0  0  0  0  0  0  0  0  0  0
   47.2791   27.8330   34.0963 H   0  0  0  0  0  0  0  0  0  0  0  0
   46.5727   26.4184   33.2935 H   0  0  0  0  0  0  0  0  0  0  0  0
   45.4434   26.5844   31.5262 H   0  0  0  0  0  0  0  0  0  0  0  0
   44.9350   28.1555   30.8076 H   0  0  0  0  0  0  0  0  0  0  0  0
   43.3631   28.5401   32.5809 H   0  0  0  0  0  0  0  0  0  0  0  0
   43.0943   26.8767   31.9670 H   0  0  0  0  0  0  0  0  0  0  0  0
   41.0694   20.1839   32.9543 H   0  0  0  0  0  0  0  0  0  0  0  0
   41.9067   21.4985   34.9121 H   0  0  0  0  0  0  0  0  0  0  0  0
   37.1167   21.1264   31.1217 H   0  0  0  0  0  0  0  0  0  0  0  0
   37.1490   27.4780   32.9859 H   0  0  0  0  0  0  0  0  0  0  0  0
   33.7953   26.2961   30.0055 H   0  0  0  0  0  0  0  0  0  0  0  0
   33.9926   24.5573   29.6584 H   0  0  0  0  0  0  0  0  0  0  0  0
  2  1  1  0
  2  3  2  0
  4  3  1  0
  5  6  2  0
  5  4  1  0
  6  2  1  0
  7  5  1  0
  7  8  1  0
  9  8  1  0
 10  9  1  0
 11 12  1  0
 11 10  1  0
 12  7  1  0
 13 14  2  0
 14 15  1  0
 15  1  1  0
 16 15  2  0
 17 16  1  0
 18 17  2  0
 18 13  1  0
 19 17  1  0
 20 19  1  0
 21 22  1  0
 21 20  2  0
 22 27  2  0
 23 22  1  0
 23 24  2  0
 24 25  1  0
 25 26  2  0
 27 19  1  0
 27 26  1  0
 28 23  1  0
  1 29  1  0
  1 30  1  0
  8 31  1  0
  8 32  1  0
  9 33  1  0
  9 34  1  0
 11 35  1  0
 11 36  1  0
 12 37  1  0
 12 38  1  0
 13 39  1  0
 14 40  1  0
 20 41  1  0
 25 42  1  0
 28 43  1  0
 28 44  1  0
M  ISO  8  29   8  30   8  31  13  32  13  33  13  34  13  35  13  36  13
M  ISO  6  37  13  38  13  39  14  40  14  41  14  42  14
M  END
>  <minimizedAffinity>  (1) 
-4.87426949

>  <minimizedRMSD>  (1) 
6.79191875

$$$$
