
     RDKit          3D

 38 41  0  0  0  0  0  0  0  0999 V2000
   40.2970   25.9210   34.4150 C   0  0  0  0  0  0  0  0  0  0  0  0
   40.5650   27.1990   34.0700 N   0  0  0  0  0  0  0  0  0  0  0  0
   41.8640   27.3450   34.0180 O   0  0  0  0  0  0  0  0  0  0  0  0
   42.4270   26.1880   34.3220 C   0  0  0  0  0  0  0  0  0  0  0  0
   41.4800   25.2530   34.5820 N   0  0  0  0  0  0  0  0  0  0  0  0
   43.8790   26.2180   34.3000 N   0  0  0  0  0  0  0  0  0  0  0  0
   44.4280   27.0490   33.2550 C   0  0  0  0  0  0  0  0  0  0  0  0
   45.4670   27.9410   33.9350 C   0  0  0  0  0  0  0  0  0  0  0  0
   46.4310   27.0770   34.4910 O   0  0  0  0  0  0  0  0  0  0  0  0
   45.8620   26.4870   35.6120 C   0  0  0  0  0  0  0  0  0  0  0  0
   44.7920   25.5270   35.1790 C   0  0  0  0  0  0  0  0  0  0  0  0
   38.9960   25.2520   34.6070 C   0  0  0  0  0  0  0  0  0  0  0  0
   38.2890   23.8770   38.0520 C   0  0  0  0  0  0  0  0  0  0  0  0
   38.1600   24.6680   36.9140 C   0  0  0  0  0  0  0  0  0  0  0  0
   39.0490   24.4580   35.8680 C   0  0  0  0  0  0  0  0  0  0  0  0
   40.0190   23.4860   35.9910 N   0  0  0  0  0  0  0  0  0  0  0  0
   40.1000   22.7390   37.1280 C   0  0  0  0  0  0  0  0  0  0  0  0
   39.2450   22.9370   38.1410 N   0  0  0  0  0  0  0  0  0  0  0  0
   41.1550   21.7330   37.1730 C   0  0  0  0  0  0  0  0  0  0  0  0
   41.8620   21.5100   35.9880 C   0  0  0  0  0  0  0  0  0  0  0  0
   42.8190   20.5200   36.2350 C   0  0  0  0  0  0  0  0  0  0  0  0
   42.6520   20.1890   37.5470 N   0  0  0  0  0  0  0  0  0  0  0  0
   41.6670   20.9010   38.1180 N   0  0  0  0  0  0  0  0  0  0  0  0
   43.6373   27.6620   32.7978 H   0  0  0  0  0  0  0  0  0  0  0  0
   44.8758   26.4460   32.4513 H   0  0  0  0  0  0  0  0  0  0  0  0
   45.9355   28.6094   33.1976 H   0  0  0  0  0  0  0  0  0  0  0  0
   45.0051   28.5729   34.7079 H   0  0  0  0  0  0  0  0  0  0  0  0
   46.6362   25.9448   36.1747 H   0  0  0  0  0  0  0  0  0  0  0  0
   45.4216   27.2643   36.2537 H   0  0  0  0  0  0  0  0  0  0  0  0
   44.2482   25.1565   36.0605 H   0  0  0  0  0  0  0  0  0  0  0  0
   45.2446   24.6732   34.6535 H   0  0  0  0  0  0  0  0  0  0  0  0
   38.1986   26.0064   34.6777 H   0  0  0  0  0  0  0  0  0  0  0  0
   38.7858   24.5890   33.7548 H   0  0  0  0  0  0  0  0  0  0  0  0
   37.5960   24.0240   38.8935 H   0  0  0  0  0  0  0  0  0  0  0  0
   37.3766   25.4371   36.8452 H   0  0  0  0  0  0  0  0  0  0  0  0
   41.6951   22.0230   35.0294 H   0  0  0  0  0  0  0  0  0  0  0  0
   43.5473   20.1002   35.5255 H   0  0  0  0  0  0  0  0  0  0  0  0
   43.2128   19.4795   38.0400 H   0  0  0  0  0  0  0  0  0  0  0  0
  1  5  1  0
  1 12  1  0
  2  1  2  0
  3  2  1  0
  3  4  1  0
  4  5  2  0
  6  4  1  0
  6 11  1  0
  7  8  1  0
  7  6  1  0
  8  9  1  0
  9 10  1  0
 11 10  1  0
 12 15  1  0
 13 18  2  0
 14 13  1  0
 15 16  1  0
 15 14  2  0
 16 17  2  0
 17 19  1  0
 17 18  1  0
 19 23  2  0
 20 21  2  0
 20 19  1  0
 21 22  1  0
 22 23  1  0
  7 24  1  0
  7 25  1  0
  8 26  1  0
  8 27  1  0
 10 28  1  0
 10 29  1  0
 11 30  1  0
 11 31  1  0
 12 32  1  0
 12 33  1  0
 13 34  1  0
 14 35  1  0
 20 36  1  0
 21 37  1  0
 22 38  1  0
M  ISO  8  24  13  25  13  26  13  27  13  28  13  29  13  30  13  31  13
M  ISO  7  32   8  33   8  34  14  35  14  36  14  37  14  38   9
M  END
>  <minimizedAffinity>  (1) 
-4.83125162

>  <minimizedRMSD>  (1) 
0.954449296

$$$$
