
     RDKit          3D

 37 39  0  0  0  0  0  0  0  0999 V2000
   40.3030   25.8410   34.4440 C   0  0  0  0  0  0  0  0  0  0  0  0
   40.5660   27.1490   34.1360 N   0  0  0  0  0  0  0  0  0  0  0  0
   41.8660   27.2840   34.1150 O   0  0  0  0  0  0  0  0  0  0  0  0
   42.4200   26.1210   34.3940 C   0  0  0  0  0  0  0  0  0  0  0  0
   41.4770   25.1690   34.6110 N   0  0  0  0  0  0  0  0  0  0  0  0
   43.8690   26.1510   34.3980 N   0  0  0  0  0  0  0  0  0  0  0  0
   44.4450   27.0120   33.3920 C   0  0  0  0  0  0  0  0  0  0  0  0
   45.4570   27.9030   34.1340 C   0  0  0  0  0  0  0  0  0  0  0  0
   46.4150   27.0290   34.6820 O   0  0  0  0  0  0  0  0  0  0  0  0
   45.8310   26.3880   35.7630 C   0  0  0  0  0  0  0  0  0  0  0  0
   44.7760   25.4360   35.2700 C   0  0  0  0  0  0  0  0  0  0  0  0
   38.9860   25.1880   34.5870 C   0  0  0  0  0  0  0  0  0  0  0  0
   38.0500   24.1010   38.0930 C   0  0  0  0  0  0  0  0  0  0  0  0
   38.0010   24.8130   36.8800 C   0  0  0  0  0  0  0  0  0  0  0  0
   38.9530   24.4890   35.9100 C   0  0  0  0  0  0  0  0  0  0  0  0
   39.8720   23.5110   36.1800 N   0  0  0  0  0  0  0  0  0  0  0  0
   39.8740   22.8600   37.3580 C   0  0  0  0  0  0  0  0  0  0  0  0
   38.9790   23.1420   38.3100 N   0  0  0  0  0  0  0  0  0  0  0  0
   40.8930   21.7880   37.6360 C   0  0  0  0  0  0  0  0  0  0  0  0
   42.1160   21.9980   36.7680 C   0  0  0  0  0  0  0  0  0  0  0  0
   43.6642   27.6281   32.9221 H   0  0  0  0  0  0  0  0  0  0  0  0
   44.9263   26.4329   32.5901 H   0  0  0  0  0  0  0  0  0  0  0  0
   45.9351   28.6035   33.4335 H   0  0  0  0  0  0  0  0  0  0  0  0
   44.9678   28.5048   34.9141 H   0  0  0  0  0  0  0  0  0  0  0  0
   46.5995   25.8290   36.3170 H   0  0  0  0  0  0  0  0  0  0  0  0
   45.3706   27.1341   36.4273 H   0  0  0  0  0  0  0  0  0  0  0  0
   44.2193   25.0265   36.1258 H   0  0  0  0  0  0  0  0  0  0  0  0
   45.2484   24.6095   34.7189 H   0  0  0  0  0  0  0  0  0  0  0  0
   38.1886   25.9445   34.5454 H   0  0  0  0  0  0  0  0  0  0  0  0
   38.8285   24.4667   33.7716 H   0  0  0  0  0  0  0  0  0  0  0  0
   37.3174   24.3292   38.8812 H   0  0  0  0  0  0  0  0  0  0  0  0
   37.2448   25.5920   36.7030 H   0  0  0  0  0  0  0  0  0  0  0  0
   41.1865   21.8304   38.6953 H   0  0  0  0  0  0  0  0  0  0  0  0
   40.4540   20.8052   37.4094 H   0  0  0  0  0  0  0  0  0  0  0  0
   42.9980   22.1494   37.4077 H   0  0  0  0  0  0  0  0  0  0  0  0
   42.2712   21.1134   36.1329 H   0  0  0  0  0  0  0  0  0  0  0  0
   41.9672   22.8837   36.1329 H   0  0  0  0  0  0  0  0  0  0  0  0
  1 12  1  0
  1  5  1  0
  2  1  2  0
  3  2  1  0
  3  4  1  0
  4  6  1  0
  4  5  2  0
  6 11  1  0
  7  8  1  0
  7  6  1  0
  8  9  1  0
  9 10  1  0
 11 10  1  0
 12 15  1  0
 13 18  2  0
 14 13  1  0
 15 16  1  0
 15 14  2  0
 16 17  2  0
 17 19  1  0
 17 18  1  0
 20 19  1  0
  7 21  1  0
  7 22  1  0
  8 23  1  0
  8 24  1  0
 10 25  1  0
 10 26  1  0
 11 27  1  0
 11 28  1  0
 12 29  1  0
 12 30  1  0
 13 31  1  0
 14 32  1  0
 19 33  1  0
 19 34  1  0
 20 35  1  0
 20 36  1  0
 20 37  1  0
M  ISO  8  21  13  22  13  23  13  24  13  25  13  26  13  27  13  28  13
M  ISO  8  29   8  30   8  31  14  32  14  33   8  34   8  35   8  36   8
M  ISO  1  37   8
M  END
>  <minimizedAffinity>  (1) 
-4.67229509

>  <minimizedRMSD>  (1) 
0.489679545

$$$$
