
     RDKit          3D

 38 41  0  0  0  0  0  0  0  0999 V2000
   38.9990   26.0920   34.5960 C   0  0  0  0  0  0  0  0  0  0  0  0
   39.9070   27.0260   34.9960 N   0  0  0  0  0  0  0  0  0  0  0  0
   40.7310   27.2010   34.0030 O   0  0  0  0  0  0  0  0  0  0  0  0
   40.3820   26.4220   33.0030 C   0  0  0  0  0  0  0  0  0  0  0  0
   39.2810   25.6870   33.3190 N   0  0  0  0  0  0  0  0  0  0  0  0
   41.2350   26.5310   31.8300 N   0  0  0  0  0  0  0  0  0  0  0  0
   41.7070   27.8720   31.5820 C   0  0  0  0  0  0  0  0  0  0  0  0
   43.2310   27.7580   31.4080 C   0  0  0  0  0  0  0  0  0  0  0  0
   43.4200   26.9150   30.2820 O   0  0  0  0  0  0  0  0  0  0  0  0
   43.1310   25.6130   30.6790 C   0  0  0  0  0  0  0  0  0  0  0  0
   41.6460   25.4840   30.9230 C   0  0  0  0  0  0  0  0  0  0  0  0
   37.8510   25.5390   35.3560 C   0  0  0  0  0  0  0  0  0  0  0  0
   38.3900   23.6910   38.6130 C   0  0  0  0  0  0  0  0  0  0  0  0
   37.8460   24.5800   37.6900 C   0  0  0  0  0  0  0  0  0  0  0  0
   38.3840   24.6090   36.3990 C   0  0  0  0  0  0  0  0  0  0  0  0
   39.4190   23.7660   36.0910 N   0  0  0  0  0  0  0  0  0  0  0  0
   39.9140   22.9200   37.0240 C   0  0  0  0  0  0  0  0  0  0  0  0
   39.3980   22.8890   38.2710 N   0  0  0  0  0  0  0  0  0  0  0  0
   41.0140   22.0130   36.7250 C   0  0  0  0  0  0  0  0  0  0  0  0
   41.7240   21.1920   37.5820 C   0  0  0  0  0  0  0  0  0  0  0  0
   42.7330   20.4100   37.0900 C   0  0  0  0  0  0  0  0  0  0  0  0
   42.9990   20.4880   35.7040 C   0  0  0  0  0  0  0  0  0  0  0  0
   41.7600   21.7260   35.0750 S   0  0  0  0  0  0  0  0  0  0  0  0
   41.2469   28.2766   30.6684 H   0  0  0  0  0  0  0  0  0  0  0  0
   41.4447   28.5511   32.4067 H   0  0  0  0  0  0  0  0  0  0  0  0
   43.6726   28.7488   31.2254 H   0  0  0  0  0  0  0  0  0  0  0  0
   43.7162   27.3529   32.3082 H   0  0  0  0  0  0  0  0  0  0  0  0
   43.4359   24.9115   29.8885 H   0  0  0  0  0  0  0  0  0  0  0  0
   43.6783   25.3796   31.6042 H   0  0  0  0  0  0  0  0  0  0  0  0
   41.1040   25.5845   29.9711 H   0  0  0  0  0  0  0  0  0  0  0  0
   41.4210   24.4995   31.3590 H   0  0  0  0  0  0  0  0  0  0  0  0
   37.2940   26.3569   35.8363 H   0  0  0  0  0  0  0  0  0  0  0  0
   37.1717   25.0005   34.6788 H   0  0  0  0  0  0  0  0  0  0  0  0
   37.9839   23.6501   39.6345 H   0  0  0  0  0  0  0  0  0  0  0  0
   37.0138   25.2431   37.9689 H   0  0  0  0  0  0  0  0  0  0  0  0
   41.4786   21.1679   38.6540 H   0  0  0  0  0  0  0  0  0  0  0  0
   43.3144   19.7466   37.7472 H   0  0  0  0  0  0  0  0  0  0  0  0
   43.7623   19.9427   35.1296 H   0  0  0  0  0  0  0  0  0  0  0  0
  1  2  2  0
  1 12  1  0
  3  2  1  0
  4  5  2  0
  4  3  1  0
  5  1  1  0
  6  4  1  0
  7  6  1  0
  8  7  1  0
  9 10  1  0
  9  8  1  0
 10 11  1  0
 11  6  1  0
 12 15  1  0
 14 13  2  0
 15 14  1  0
 16 15  2  0
 16 17  1  0
 17 18  2  0
 18 13  1  0
 19 17  1  0
 19 20  2  0
 21 20  1  0
 22 21  2  0
 23 22  1  0
 23 19  1  0
  7 24  1  0
  7 25  1  0
  8 26  1  0
  8 27  1  0
 10 28  1  0
 10 29  1  0
 11 30  1  0
 11 31  1  0
 12 32  1  0
 12 33  1  0
 13 34  1  0
 14 35  1  0
 20 36  1  0
 21 37  1  0
 22 38  1  0
M  ISO  8  24  13  25  13  26  13  27  13  28  13  29  13  30  13  31  13
M  ISO  7  32   8  33   8  34  14  35  14  36  14  37  14  38  14
M  END
>  <minimizedAffinity>  (1) 
-4.65812397

>  <minimizedRMSD>  (1) 
3.04212523

$$$$
