
     RDKit          3D

 13 13  0  0  0  0  0  0  0  0999 V2000
   39.9660   22.7260   37.6760 C   0  0  0  0  0  0  0  0  0  0  0  0
   39.0750   23.3380   38.5710 C   0  0  0  0  0  0  0  0  0  0  0  0
   37.7410   23.5100   38.1360 C   0  0  0  0  0  0  0  0  0  0  0  0
   37.4040   23.0760   36.8900 N   0  0  0  0  0  0  0  0  0  0  0  0
   38.3110   22.4890   36.0700 C   0  0  0  0  0  0  0  0  0  0  0  0
   39.5800   22.3170   36.4630 N   0  0  0  0  0  0  0  0  0  0  0  0
   37.9740   22.0160   34.7310 C   0  0  0  0  0  0  0  0  0  0  0  0
   38.7350   22.0850   33.7530 O   0  0  0  0  0  0  0  0  0  0  0  0
   36.7490   21.4300   34.4070 O   0  0  0  0  0  0  0  0  0  0  0  0
   41.0124   22.5785   37.9813 H   0  0  0  0  0  0  0  0  0  0  0  0
   39.4006   23.6696   39.5680 H   0  0  0  0  0  0  0  0  0  0  0  0
   36.9927   23.9833   38.7887 H   0  0  0  0  0  0  0  0  0  0  0  0
   36.5748   21.1271   33.4807 H   0  0  0  0  0  0  0  0  0  0  0  0
  1  2  2  0
  3  2  1  0
  4  3  2  0
  5  6  2  0
  5  4  1  0
  6  1  1  0
  7  5  1  0
  8  7  2  0
  9  7  1  0
  1 10  1  0
  2 11  1  0
  3 12  1  0
  9 13  1  0
M  ISO  4  10  14  11  14  12  14  13   3
M  END
>  <minimizedAffinity>  (1) 
-2.9695766

>  <minimizedRMSD>  (1) 
0.519294441

$$$$
