
     RDKit          3D

 31 33  0  0  0  0  0  0  0  0999 V2000
   39.2410   26.2180   34.7520 C   0  0  0  0  0  0  0  0  0  0  0  0
   38.2280   27.0680   34.0640 C   0  0  0  0  0  0  0  0  0  0  0  0
   37.1550   27.5730   34.7560 C   0  0  0  0  0  0  0  0  0  0  0  0
   36.1750   28.3730   34.1770 C   0  0  0  0  0  0  0  0  0  0  0  0
   36.3120   28.6520   32.8620 N   0  0  0  0  0  0  0  0  0  0  0  0
   37.3680   28.1640   32.1500 C   0  0  0  0  0  0  0  0  0  0  0  0
   38.2930   27.3820   32.7850 N   0  0  0  0  0  0  0  0  0  0  0  0
   37.5410   28.4400   30.7600 N   0  0  0  0  0  0  0  0  0  0  0  0
   38.5880   27.7660   30.2740 N   0  0  0  0  0  0  0  0  0  0  0  0
   38.7380   28.0410   28.9490 C   0  0  0  0  0  0  0  0  0  0  0  0
   37.7060   28.9310   28.6660 C   0  0  0  0  0  0  0  0  0  0  0  0
   36.9630   29.1710   29.8190 C   0  0  0  0  0  0  0  0  0  0  0  0
   38.9050   24.7600   34.7230 C   0  0  0  0  0  0  0  0  0  0  0  0
   39.7650   22.8210   37.8060 C   0  0  0  0  0  0  0  0  0  0  0  0
   38.8240   23.3250   38.7290 C   0  0  0  0  0  0  0  0  0  0  0  0
   37.9270   24.3050   38.2790 C   0  0  0  0  0  0  0  0  0  0  0  0
   38.0040   24.7240   36.9860 N   0  0  0  0  0  0  0  0  0  0  0  0
   38.9300   24.2100   36.1250 C   0  0  0  0  0  0  0  0  0  0  0  0
   39.7920   23.2820   36.5230 N   0  0  0  0  0  0  0  0  0  0  0  0
   40.2128   26.3627   34.2573 H   0  0  0  0  0  0  0  0  0  0  0  0
   39.2644   26.5271   35.8074 H   0  0  0  0  0  0  0  0  0  0  0  0
   37.0654   27.3321   35.8256 H   0  0  0  0  0  0  0  0  0  0  0  0
   35.3281   28.7603   34.7624 H   0  0  0  0  0  0  0  0  0  0  0  0
   39.5005   27.6493   28.2597 H   0  0  0  0  0  0  0  0  0  0  0  0
   37.5073   29.3774   27.6805 H   0  0  0  0  0  0  0  0  0  0  0  0
   36.0857   29.8261   29.9252 H   0  0  0  0  0  0  0  0  0  0  0  0
   37.9015   24.6236   34.2937 H   0  0  0  0  0  0  0  0  0  0  0  0
   39.6435   24.2261   34.1069 H   0  0  0  0  0  0  0  0  0  0  0  0
   40.4824   22.0502   38.1240 H   0  0  0  0  0  0  0  0  0  0  0  0
   38.7949   22.9614   39.7668 H   0  0  0  0  0  0  0  0  0  0  0  0
   37.1736   24.7281   38.9598 H   0  0  0  0  0  0  0  0  0  0  0  0
  2  1  1  0
  2  3  2  0
  4  3  1  0
  5  4  2  0
  6  7  2  0
  6  5  1  0
  7  2  1  0
  8  6  1  0
  9  8  1  0
 10  9  2  0
 11 10  1  0
 11 12  2  0
 12  8  1  0
 13  1  1  0
 13 18  1  0
 14 15  2  0
 16 15  1  0
 17 16  2  0
 18 19  2  0
 18 17  1  0
 19 14  1  0
  1 20  1  0
  1 21  1  0
  3 22  1  0
  4 23  1  0
 10 24  1  0
 11 25  1  0
 12 26  1  0
 13 27  1  0
 13 28  1  0
 14 29  1  0
 15 30  1  0
 16 31  1  0
M  ISO  8  20   8  21   8  22  14  23  14  24  14  25  14  26  14  27   8
M  ISO  4  28   8  29  14  30  14  31  14
M  END
>  <minimizedAffinity>  (1) 
-4.90179443

>  <minimizedRMSD>  (1) 
0.281080335

$$$$
