
     RDKit          3D

 46 49  0  0  0  0  0  0  0  0999 V2000
   40.8660   24.5110   33.9770 C   0  0  0  0  0  0  0  0  0  0  0  0
   42.2100   24.9980   34.4130 C   0  0  0  0  0  0  0  0  0  0  0  0
   42.6440   26.2780   34.5090 N   0  0  0  0  0  0  0  0  0  0  0  0
   43.8860   26.2150   34.9320 O   0  0  0  0  0  0  0  0  0  0  0  0
   44.2230   24.9500   35.0960 C   0  0  0  0  0  0  0  0  0  0  0  0
   43.2080   24.1300   34.7860 N   0  0  0  0  0  0  0  0  0  0  0  0
   45.5860   24.7670   35.5660 N   0  0  0  0  0  0  0  0  0  0  0  0
   46.5300   25.7010   35.0070 C   0  0  0  0  0  0  0  0  0  0  0  0
   47.2860   26.2790   36.2360 C   0  0  0  0  0  0  0  0  0  0  0  0
   47.9380   25.1990   36.8330 O   0  0  0  0  0  0  0  0  0  0  0  0
   46.9720   24.4530   37.5020 C   0  0  0  0  0  0  0  0  0  0  0  0
   46.0820   23.7830   36.5010 C   0  0  0  0  0  0  0  0  0  0  0  0
   38.2240   24.0740   36.6460 C   0  0  0  0  0  0  0  0  0  0  0  0
   38.8620   24.5600   35.4890 C   0  0  0  0  0  0  0  0  0  0  0  0
   40.1210   24.0480   35.1870 C   0  0  0  0  0  0  0  0  0  0  0  0
   40.6970   23.1060   36.0030 N   0  0  0  0  0  0  0  0  0  0  0  0
   40.0150   22.6800   37.1130 C   0  0  0  0  0  0  0  0  0  0  0  0
   38.8010   23.1620   37.4200 N   0  0  0  0  0  0  0  0  0  0  0  0
   40.5330   21.7130   38.0100 N   0  0  0  0  0  0  0  0  0  0  0  0
   38.2490   25.5350   34.6570 N   0  0  0  0  0  0  0  0  0  0  0  0
   37.5400   25.0580   33.6050 C   0  0  0  0  0  0  0  0  0  0  0  0
   36.9050   25.9400   32.7370 C   0  0  0  0  0  0  0  0  0  0  0  0
   36.1150   25.4640   31.5690 C   0  0  0  0  0  0  0  0  0  0  0  0
   37.0040   27.2980   32.9590 C   0  0  0  0  0  0  0  0  0  0  0  0
   36.4260   28.0840   32.1690 O   0  0  0  0  0  0  0  0  0  0  0  0
   37.7200   27.7400   34.0190 N   0  0  0  0  0  0  0  0  0  0  0  0
   38.3330   26.8740   34.8550 C   0  0  0  0  0  0  0  0  0  0  0  0
   39.0060   27.2810   35.8520 O   0  0  0  0  0  0  0  0  0  0  0  0
   40.3139   25.3284   33.4901 H   0  0  0  0  0  0  0  0  0  0  0  0
   40.9761   23.6844   33.2597 H   0  0  0  0  0  0  0  0  0  0  0  0
   47.2275   25.1885   34.3281 H   0  0  0  0  0  0  0  0  0  0  0  0
   46.0382   26.4857   34.4134 H   0  0  0  0  0  0  0  0  0  0  0  0
   48.0169   27.0352   35.9135 H   0  0  0  0  0  0  0  0  0  0  0  0
   46.5956   26.7693   36.9381 H   0  0  0  0  0  0  0  0  0  0  0  0
   47.4628   23.6910   38.1252 H   0  0  0  0  0  0  0  0  0  0  0  0
   46.3721   25.1168   38.1420 H   0  0  0  0  0  0  0  0  0  0  0  0
   45.2352   23.3108   37.0207 H   0  0  0  0  0  0  0  0  0  0  0  0
   46.6522   23.0147   35.9582 H   0  0  0  0  0  0  0  0  0  0  0  0
   37.2283   24.4571   36.9141 H   0  0  0  0  0  0  0  0  0  0  0  0
   39.9820   21.4249   38.8312 H   0  0  0  0  0  0  0  0  0  0  0  0
   41.4605   21.2982   37.8408 H   0  0  0  0  0  0  0  0  0  0  0  0
   37.4668   23.9733   33.4376 H   0  0  0  0  0  0  0  0  0  0  0  0
   35.2232   24.9267   31.9240 H   0  0  0  0  0  0  0  0  0  0  0  0
   35.8054   26.3260   30.9599 H   0  0  0  0  0  0  0  0  0  0  0  0
   36.7325   24.7875   30.9599 H   0  0  0  0  0  0  0  0  0  0  0  0
   37.7987   28.7525   34.1909 H   0  0  0  0  0  0  0  0  0  0  0  0
  1  2  1  0
  1 15  1  0
  2  3  2  0
  2  6  1  0
  3  4  1  0
  4  5  1  0
  5  7  1  0
  6  5  2  0
  7 12  1  0
  8  7  1  0
  8  9  1  0
  9 10  1  0
 10 11  1  0
 12 11  1  0
 13 18  2  0
 14 13  1  0
 15 14  2  0
 15 16  1  0
 16 17  2  0
 17 18  1  0
 17 19  1  0
 20 27  1  0
 20 14  1  0
 21 20  1  0
 22 24  1  0
 22 21  2  0
 23 22  1  0
 24 26  1  0
 25 24  2  0
 26 27  1  0
 27 28  2  0
  1 29  1  0
  1 30  1  0
  8 31  1  0
  8 32  1  0
  9 33  1  0
  9 34  1  0
 11 35  1  0
 11 36  1  0
 12 37  1  0
 12 38  1  0
 13 39  1  0
 19 40  1  0
 19 41  1  0
 21 42  1  0
 23 43  1  0
 23 44  1  0
 23 45  1  0
 26 46  1  0
M  ISO  8  29   8  30   8  31  13  32  13  33  13  34  13  35  13  36  13
M  ISO  8  37  13  38  13  39  14  42  14  43   8  44   8  45   8  46   9
M  END
>  <minimizedAffinity>  (1) 
-5.88340187

>  <minimizedRMSD>  (1) 
2.62921548

$$$$
