
     RDKit          3D

 43 46  0  0  0  0  0  0  0  0999 V2000
   40.8080   22.7880   35.0780 C   0  0  0  0  0  0  0  0  0  0  0  0
   42.1250   23.4450   35.2990 C   0  0  0  0  0  0  0  0  0  0  0  0
   43.0130   23.9860   34.4250 N   0  0  0  0  0  0  0  0  0  0  0  0
   44.0170   24.4350   35.1140 O   0  0  0  0  0  0  0  0  0  0  0  0
   43.8100   24.2040   36.3900 C   0  0  0  0  0  0  0  0  0  0  0  0
   42.6330   23.5820   36.5620 N   0  0  0  0  0  0  0  0  0  0  0  0
   44.8760   24.6670   37.2510 N   0  0  0  0  0  0  0  0  0  0  0  0
   46.1960   24.5060   36.6940 C   0  0  0  0  0  0  0  0  0  0  0  0
   46.8860   25.8670   36.8430 C   0  0  0  0  0  0  0  0  0  0  0  0
   46.9430   26.1170   38.2220 O   0  0  0  0  0  0  0  0  0  0  0  0
   45.6550   26.4630   38.6310 C   0  0  0  0  0  0  0  0  0  0  0  0
   44.7730   25.2540   38.5650 C   0  0  0  0  0  0  0  0  0  0  0  0
   38.2230   25.0510   36.6550 C   0  0  0  0  0  0  0  0  0  0  0  0
   39.1560   24.5870   35.7100 C   0  0  0  0  0  0  0  0  0  0  0  0
   39.8070   23.3970   35.9960 C   0  0  0  0  0  0  0  0  0  0  0  0
   39.5350   22.7150   37.1690 N   0  0  0  0  0  0  0  0  0  0  0  0
   38.6180   23.2230   38.0430 C   0  0  0  0  0  0  0  0  0  0  0  0
   37.9700   24.3820   37.7820 N   0  0  0  0  0  0  0  0  0  0  0  0
   38.2760   22.5930   39.2690 N   0  0  0  0  0  0  0  0  0  0  0  0
   39.4220   25.3430   34.4950 C   0  0  0  0  0  0  0  0  0  0  0  0
   38.9750   25.2020   33.2020 C   0  0  0  0  0  0  0  0  0  0  0  0
   39.3890   26.0870   32.2300 C   0  0  0  0  0  0  0  0  0  0  0  0
   40.2500   27.1290   32.5030 C   0  0  0  0  0  0  0  0  0  0  0  0
   40.7030   27.2820   33.7840 C   0  0  0  0  0  0  0  0  0  0  0  0
   40.2950   26.3960   34.7860 C   0  0  0  0  0  0  0  0  0  0  0  0
   40.4914   22.9365   34.0351 H   0  0  0  0  0  0  0  0  0  0  0  0
   40.8905   21.7095   35.2781 H   0  0  0  0  0  0  0  0  0  0  0  0
   46.1313   24.2244   35.6326 H   0  0  0  0  0  0  0  0  0  0  0  0
   46.7564   23.7115   37.2085 H   0  0  0  0  0  0  0  0  0  0  0  0
   47.8999   25.8311   36.4179 H   0  0  0  0  0  0  0  0  0  0  0  0
   46.3393   26.6589   36.3100 H   0  0  0  0  0  0  0  0  0  0  0  0
   45.6862   26.8391   39.6642 H   0  0  0  0  0  0  0  0  0  0  0  0
   45.2564   27.2464   37.9697 H   0  0  0  0  0  0  0  0  0  0  0  0
   43.7304   25.5475   38.7569 H   0  0  0  0  0  0  0  0  0  0  0  0
   45.0883   24.5228   39.3238 H   0  0  0  0  0  0  0  0  0  0  0  0
   37.6869   25.9915   36.4597 H   0  0  0  0  0  0  0  0  0  0  0  0
   37.5760   23.0222   39.8908 H   0  0  0  0  0  0  0  0  0  0  0  0
   38.7280   21.7069   39.5363 H   0  0  0  0  0  0  0  0  0  0  0  0
   38.2873   24.3832   32.9438 H   0  0  0  0  0  0  0  0  0  0  0  0
   39.0202   25.9578   31.2018 H   0  0  0  0  0  0  0  0  0  0  0  0
   40.5652   27.8213   31.7084 H   0  0  0  0  0  0  0  0  0  0  0  0
   41.3910   28.1051   34.0273 H   0  0  0  0  0  0  0  0  0  0  0  0
   40.6645   26.5287   35.8135 H   0  0  0  0  0  0  0  0  0  0  0  0
  1  2  1  0
  1 15  1  0
  2  6  1  0
  3  4  1  0
  3  2  2  0
  4  5  1  0
  5  6  2  0
  5  7  1  0
  7 12  1  0
  8  9  1  0
  8  7  1  0
  9 10  1  0
 10 11  1  0
 12 11  1  0
 13 18  2  0
 14 15  2  0
 14 13  1  0
 15 16  1  0
 16 17  2  0
 17 19  1  0
 18 17  1  0
 20 25  1  0
 20 14  1  0
 21 20  2  0
 22 23  2  0
 22 21  1  0
 23 24  1  0
 24 25  2  0
  1 26  1  0
  1 27  1  0
  8 28  1  0
  8 29  1  0
  9 30  1  0
  9 31  1  0
 11 32  1  0
 11 33  1  0
 12 34  1  0
 12 35  1  0
 13 36  1  0
 19 37  1  0
 19 38  1  0
 21 39  1  0
 22 40  1  0
 23 41  1  0
 24 42  1  0
 25 43  1  0
M  ISO  8  26   8  27   8  28  13  29  13  30  13  31  13  32  13  33  13
M  ISO  8  34  13  35  13  36  14  39  14  40  14  41  14  42  14  43  14
M  END
>  <minimizedAffinity>  (1) 
-5.71515894

>  <minimizedRMSD>  (1) 
3.38726568

$$$$
