
     RDKit          3D

 42 45  0  0  0  0  0  0  0  0999 V2000
   40.2780   24.2550   33.7690 C   0  0  0  0  0  0  0  0  0  0  0  0
   41.3920   25.2420   33.8620 C   0  0  0  0  0  0  0  0  0  0  0  0
   41.3630   26.6060   33.9100 N   0  0  0  0  0  0  0  0  0  0  0  0
   42.6010   27.0060   33.9860 O   0  0  0  0  0  0  0  0  0  0  0  0
   43.4060   25.9480   33.9880 C   0  0  0  0  0  0  0  0  0  0  0  0
   42.6980   24.8030   33.9120 N   0  0  0  0  0  0  0  0  0  0  0  0
   44.8130   26.2770   34.0690 N   0  0  0  0  0  0  0  0  0  0  0  0
   45.1740   27.4780   33.3450 C   0  0  0  0  0  0  0  0  0  0  0  0
   45.9800   28.3300   34.3310 C   0  0  0  0  0  0  0  0  0  0  0  0
   47.1150   27.5610   34.6460 O   0  0  0  0  0  0  0  0  0  0  0  0
   46.6950   26.5480   35.5130 C   0  0  0  0  0  0  0  0  0  0  0  0
   45.8580   25.5730   34.7600 C   0  0  0  0  0  0  0  0  0  0  0  0
   38.2500   24.3240   36.9690 C   0  0  0  0  0  0  0  0  0  0  0  0
   38.6580   24.6810   35.6770 C   0  0  0  0  0  0  0  0  0  0  0  0
   39.7400   24.0150   35.1210 C   0  0  0  0  0  0  0  0  0  0  0  0
   40.3720   23.0280   35.8700 N   0  0  0  0  0  0  0  0  0  0  0  0
   39.9280   22.7310   37.1130 C   0  0  0  0  0  0  0  0  0  0  0  0
   38.8700   23.3780   37.6610 N   0  0  0  0  0  0  0  0  0  0  0  0
   40.5370   21.7310   37.9300 N   0  0  0  0  0  0  0  0  0  0  0  0
   37.9680   25.7300   34.9440 C   0  0  0  0  0  0  0  0  0  0  0  0
   37.8280   26.9790   35.5060 C   0  0  0  0  0  0  0  0  0  0  0  0
   37.2040   28.0480   34.9330 C   0  0  0  0  0  0  0  0  0  0  0  0
   36.6430   27.9140   33.6650 C   0  0  0  0  0  0  0  0  0  0  0  0
   36.7810   26.6800   33.1080 C   0  0  0  0  0  0  0  0  0  0  0  0
   37.4060   25.6870   33.7370 N   0  0  0  0  0  0  0  0  0  0  0  0
   39.4839   24.6541   33.1208 H   0  0  0  0  0  0  0  0  0  0  0  0
   40.6497   23.3117   33.3423 H   0  0  0  0  0  0  0  0  0  0  0  0
   45.7858   27.2267   32.4660 H   0  0  0  0  0  0  0  0  0  0  0  0
   44.2859   28.0131   32.9777 H   0  0  0  0  0  0  0  0  0  0  0  0
   46.2765   29.2813   33.8651 H   0  0  0  0  0  0  0  0  0  0  0  0
   45.3948   28.5829   35.2274 H   0  0  0  0  0  0  0  0  0  0  0  0
   47.5732   26.0335   35.9302 H   0  0  0  0  0  0  0  0  0  0  0  0
   46.1056   26.9847   36.3327 H   0  0  0  0  0  0  0  0  0  0  0  0
   45.4133   24.8518   35.4616 H   0  0  0  0  0  0  0  0  0  0  0  0
   46.4837   25.0358   34.0320 H   0  0  0  0  0  0  0  0  0  0  0  0
   37.3920   24.8426   37.4216 H   0  0  0  0  0  0  0  0  0  0  0  0
   40.1652   21.5381   38.8710 H   0  0  0  0  0  0  0  0  0  0  0  0
   41.3482   21.2025   37.5784 H   0  0  0  0  0  0  0  0  0  0  0  0
   38.2581   27.1283   36.5074 H   0  0  0  0  0  0  0  0  0  0  0  0
   37.1443   29.0075   35.4675 H   0  0  0  0  0  0  0  0  0  0  0  0
   36.1286   28.7411   33.1538 H   0  0  0  0  0  0  0  0  0  0  0  0
   36.3631   26.4974   32.1070 H   0  0  0  0  0  0  0  0  0  0  0  0
  1  2  1  0
  1 15  1  0
  2  3  2  0
  2  6  1  0
  3  4  1  0
  4  5  1  0
  5  7  1  0
  6  5  2  0
  7 12  1  0
  8  7  1  0
  8  9  1  0
  9 10  1  0
 10 11  1  0
 12 11  1  0
 13 18  2  0
 14 13  1  0
 15 14  2  0
 15 16  1  0
 16 17  2  0
 17 18  1  0
 17 19  1  0
 20 21  2  0
 20 14  1  0
 22 21  1  0
 23 22  2  0
 24 23  1  0
 24 25  2  0
 25 20  1  0
  1 26  1  0
  1 27  1  0
  8 28  1  0
  8 29  1  0
  9 30  1  0
  9 31  1  0
 11 32  1  0
 11 33  1  0
 12 34  1  0
 12 35  1  0
 13 36  1  0
 19 37  1  0
 19 38  1  0
 21 39  1  0
 22 40  1  0
 23 41  1  0
 24 42  1  0
M  ISO  8  26   8  27   8  28  13  29  13  30  13  31  13  32  13  33  13
M  ISO  7  34  13  35  13  36  14  39  14  40  14  41  14  42  14
M  END
>  <minimizedAffinity>  (1) 
-5.59928274

>  <minimizedRMSD>  (1) 
1.5491066

$$$$
