
     RDKit          3D

 40 43  0  0  0  0  0  0  0  0999 V2000
   40.6340   24.9320   34.3470 C   0  0  0  0  0  0  0  0  0  0  0  0
   42.0250   25.3710   34.6320 C   0  0  0  0  0  0  0  0  0  0  0  0
   42.7830   26.3660   34.0990 N   0  0  0  0  0  0  0  0  0  0  0  0
   43.9440   26.3360   34.6870 O   0  0  0  0  0  0  0  0  0  0  0  0
   43.9420   25.3490   35.5760 C   0  0  0  0  0  0  0  0  0  0  0  0
   42.7510   24.6980   35.5900 N   0  0  0  0  0  0  0  0  0  0  0  0
   45.1940   25.2150   36.3010 N   0  0  0  0  0  0  0  0  0  0  0  0
   46.3650   25.4540   35.4910 C   0  0  0  0  0  0  0  0  0  0  0  0
   47.2210   26.4490   36.2880 C   0  0  0  0  0  0  0  0  0  0  0  0
   47.5490   25.7970   37.4840 O   0  0  0  0  0  0  0  0  0  0  0  0
   46.4010   25.8020   38.2790 C   0  0  0  0  0  0  0  0  0  0  0  0
   45.3890   24.8800   37.6980 C   0  0  0  0  0  0  0  0  0  0  0  0
   38.5560   24.1730   37.4400 C   0  0  0  0  0  0  0  0  0  0  0  0
   38.9880   24.8850   36.2990 C   0  0  0  0  0  0  0  0  0  0  0  0
   40.0460   24.3380   35.5870 C   0  0  0  0  0  0  0  0  0  0  0  0
   40.6310   23.1500   36.0000 N   0  0  0  0  0  0  0  0  0  0  0  0
   40.1480   22.5240   37.1220 C   0  0  0  0  0  0  0  0  0  0  0  0
   39.1270   23.0410   37.8170 N   0  0  0  0  0  0  0  0  0  0  0  0
   40.6750   21.3090   37.6310 N   0  0  0  0  0  0  0  0  0  0  0  0
   38.3750   26.1440   35.8690 C   0  0  0  0  0  0  0  0  0  0  0  0
   37.3060   26.1000   34.9980 C   0  0  0  0  0  0  0  0  0  0  0  0
   36.8340   27.3490   34.6800 C   0  0  0  0  0  0  0  0  0  0  0  0
   37.6570   28.1370   35.3920 N   0  0  0  0  0  0  0  0  0  0  0  0
   38.5430   27.4530   36.0750 N   0  0  0  0  0  0  0  0  0  0  0  0
   40.0319   25.7968   34.0313 H   0  0  0  0  0  0  0  0  0  0  0  0
   40.6390   24.1819   33.5425 H   0  0  0  0  0  0  0  0  0  0  0  0
   46.0791   25.8848   34.5201 H   0  0  0  0  0  0  0  0  0  0  0  0
   46.9119   24.5231   35.2808 H   0  0  0  0  0  0  0  0  0  0  0  0
   48.1329   26.7043   35.7282 H   0  0  0  0  0  0  0  0  0  0  0  0
   46.6815   27.3894   36.4740 H   0  0  0  0  0  0  0  0  0  0  0  0
   46.6581   25.4699   39.2957 H   0  0  0  0  0  0  0  0  0  0  0  0
   45.9878   26.8207   38.3183 H   0  0  0  0  0  0  0  0  0  0  0  0
   44.4376   24.9877   38.2396 H   0  0  0  0  0  0  0  0  0  0  0  0
   45.7383   23.8407   37.7863 H   0  0  0  0  0  0  0  0  0  0  0  0
   37.7196   24.5719   38.0328 H   0  0  0  0  0  0  0  0  0  0  0  0
   40.2696   20.8868   38.4785 H   0  0  0  0  0  0  0  0  0  0  0  0
   41.4630   20.8492   37.1530 H   0  0  0  0  0  0  0  0  0  0  0  0
   36.8790   25.1668   34.6020 H   0  0  0  0  0  0  0  0  0  0  0  0
   36.0021   27.6304   34.0176 H   0  0  0  0  0  0  0  0  0  0  0  0
   37.5984   29.1653   35.4004 H   0  0  0  0  0  0  0  0  0  0  0  0
  1  2  1  0
  1 15  1  0
  2  6  1  0
  3  2  2  0
  3  4  1  0
  4  5  1  0
  5  6  2  0
  5  7  1  0
  7 12  1  0
  8  9  1  0
  8  7  1  0
  9 10  1  0
 10 11  1  0
 12 11  1  0
 13 18  2  0
 14 13  1  0
 15 16  1  0
 15 14  2  0
 16 17  2  0
 17 19  1  0
 17 18  1  0
 20 24  2  0
 20 14  1  0
 21 20  1  0
 22 21  2  0
 22 23  1  0
 23 24  1  0
  1 25  1  0
  1 26  1  0
  8 27  1  0
  8 28  1  0
  9 29  1  0
  9 30  1  0
 11 31  1  0
 11 32  1  0
 12 33  1  0
 12 34  1  0
 13 35  1  0
 19 36  1  0
 19 37  1  0
 21 38  1  0
 22 39  1  0
 23 40  1  0
M  ISO  8  25   8  26   8  27  13  28  13  29  13  30  13  31  13  32  13
M  ISO  6  33  13  34  13  35  14  38  14  39  14  40   9
M  END
>  <minimizedAffinity>  (1) 
-5.57643938

>  <minimizedRMSD>  (1) 
2.0047636

$$$$
