
     RDKit          3D

 41 44  0  0  0  0  0  0  0  0999 V2000
   40.7960   22.8120   35.0990 C   0  0  0  0  0  0  0  0  0  0  0  0
   42.1120   23.4810   35.2920 C   0  0  0  0  0  0  0  0  0  0  0  0
   42.9740   24.0290   34.4100 N   0  0  0  0  0  0  0  0  0  0  0  0
   43.9970   24.4780   35.0870 O   0  0  0  0  0  0  0  0  0  0  0  0
   43.8000   24.2260   36.3720 C   0  0  0  0  0  0  0  0  0  0  0  0
   42.6200   23.5950   36.5640 N   0  0  0  0  0  0  0  0  0  0  0  0
   44.8780   24.6830   37.2330 N   0  0  0  0  0  0  0  0  0  0  0  0
   46.1920   24.5250   36.6570 C   0  0  0  0  0  0  0  0  0  0  0  0
   46.8830   25.8840   36.8240 C   0  0  0  0  0  0  0  0  0  0  0  0
   46.9550   26.1060   38.2070 O   0  0  0  0  0  0  0  0  0  0  0  0
   45.6700   26.4530   38.6310 C   0  0  0  0  0  0  0  0  0  0  0  0
   44.7860   25.2570   38.5580 C   0  0  0  0  0  0  0  0  0  0  0  0
   38.2090   25.0780   36.6900 C   0  0  0  0  0  0  0  0  0  0  0  0
   39.1330   24.6410   35.7460 C   0  0  0  0  0  0  0  0  0  0  0  0
   39.7900   23.4460   36.0030 C   0  0  0  0  0  0  0  0  0  0  0  0
   39.5180   22.7390   37.1660 N   0  0  0  0  0  0  0  0  0  0  0  0
   38.5920   23.2400   38.0460 C   0  0  0  0  0  0  0  0  0  0  0  0
   37.9550   24.3970   37.7950 N   0  0  0  0  0  0  0  0  0  0  0  0
   38.2490   22.5830   39.2670 N   0  0  0  0  0  0  0  0  0  0  0  0
   39.3950   25.4120   34.5500 C   0  0  0  0  0  0  0  0  0  0  0  0
   40.2670   26.4730   34.6290 C   0  0  0  0  0  0  0  0  0  0  0  0
   40.6200   27.3060   33.5870 C   0  0  0  0  0  0  0  0  0  0  0  0
   40.0910   27.1030   32.3680 N   0  0  0  0  0  0  0  0  0  0  0  0
   39.2350   26.0740   32.2560 C   0  0  0  0  0  0  0  0  0  0  0  0
   38.9580   25.3370   33.2960 N   0  0  0  0  0  0  0  0  0  0  0  0
   40.4748   22.9252   34.0530 H   0  0  0  0  0  0  0  0  0  0  0  0
   40.8854   21.7415   35.3358 H   0  0  0  0  0  0  0  0  0  0  0  0
   46.1149   24.2620   35.5917 H   0  0  0  0  0  0  0  0  0  0  0  0
   46.7568   23.7187   37.1478 H   0  0  0  0  0  0  0  0  0  0  0  0
   47.8920   25.8575   36.3868 H   0  0  0  0  0  0  0  0  0  0  0  0
   46.3305   26.6859   36.3124 H   0  0  0  0  0  0  0  0  0  0  0  0
   45.7113   26.8162   39.6685 H   0  0  0  0  0  0  0  0  0  0  0  0
   45.2702   27.2459   37.9818 H   0  0  0  0  0  0  0  0  0  0  0  0
   43.7463   25.5541   38.7598 H   0  0  0  0  0  0  0  0  0  0  0  0
   45.1015   24.5156   39.3068 H   0  0  0  0  0  0  0  0  0  0  0  0
   37.6719   26.0212   36.5114 H   0  0  0  0  0  0  0  0  0  0  0  0
   37.5471   22.9986   39.8959 H   0  0  0  0  0  0  0  0  0  0  0  0
   38.7035   21.6936   39.5186 H   0  0  0  0  0  0  0  0  0  0  0  0
   40.7232   26.6753   35.6093 H   0  0  0  0  0  0  0  0  0  0  0  0
   41.3293   28.1303   33.7527 H   0  0  0  0  0  0  0  0  0  0  0  0
   38.7668   25.8524   31.2856 H   0  0  0  0  0  0  0  0  0  0  0  0
  1  2  1  0
  1 15  1  0
  2  6  1  0
  3  4  1  0
  3  2  2  0
  4  5  1  0
  5  6  2  0
  5  7  1  0
  7 12  1  0
  8  9  1  0
  8  7  1  0
  9 10  1  0
 10 11  1  0
 12 11  1  0
 13 18  2  0
 14 15  2  0
 14 13  1  0
 15 16  1  0
 16 17  2  0
 17 19  1  0
 18 17  1  0
 20 21  2  0
 20 14  1  0
 22 21  1  0
 23 22  2  0
 24 23  1  0
 24 25  2  0
 25 20  1  0
  1 26  1  0
  1 27  1  0
  8 28  1  0
  8 29  1  0
  9 30  1  0
  9 31  1  0
 11 32  1  0
 11 33  1  0
 12 34  1  0
 12 35  1  0
 13 36  1  0
 19 37  1  0
 19 38  1  0
 21 39  1  0
 22 40  1  0
 24 41  1  0
M  ISO  8  26   8  27   8  28  13  29  13  30  13  31  13  32  13  33  13
M  ISO  6  34  13  35  13  36  14  39  14  40  14  41  14
M  END
>  <minimizedAffinity>  (1) 
-5.51049185

>  <minimizedRMSD>  (1) 
3.39711022

$$$$
