
     RDKit          3D

 40 43  0  0  0  0  0  0  0  0999 V2000
   42.1400   25.1910   34.5170 C   0  0  0  0  0  0  0  0  0  0  0  0
   42.9130   26.1710   33.9950 N   0  0  0  0  0  0  0  0  0  0  0  0
   44.0370   26.1880   34.6700 O   0  0  0  0  0  0  0  0  0  0  0  0
   43.9780   25.2380   35.6010 C   0  0  0  0  0  0  0  0  0  0  0  0
   42.8050   24.5750   35.5540 N   0  0  0  0  0  0  0  0  0  0  0  0
   45.1770   25.1620   36.4160 N   0  0  0  0  0  0  0  0  0  0  0  0
   46.4040   25.4010   35.6990 C   0  0  0  0  0  0  0  0  0  0  0  0
   47.1700   26.4540   36.5180 C   0  0  0  0  0  0  0  0  0  0  0  0
   47.4150   25.8750   37.7580 O   0  0  0  0  0  0  0  0  0  0  0  0
   46.2100   25.8690   38.4650 C   0  0  0  0  0  0  0  0  0  0  0  0
   45.2730   24.8820   37.8240 C   0  0  0  0  0  0  0  0  0  0  0  0
   40.7770   24.7510   34.1260 C   0  0  0  0  0  0  0  0  0  0  0  0
   38.2840   24.5030   36.9780 C   0  0  0  0  0  0  0  0  0  0  0  0
   38.8870   24.9940   35.8120 C   0  0  0  0  0  0  0  0  0  0  0  0
   40.0310   24.3360   35.3560 C   0  0  0  0  0  0  0  0  0  0  0  0
   40.5220   23.2560   36.0390 N   0  0  0  0  0  0  0  0  0  0  0  0
   39.8870   22.8240   37.1750 C   0  0  0  0  0  0  0  0  0  0  0  0
   38.7790   23.4520   37.6270 N   0  0  0  0  0  0  0  0  0  0  0  0
   40.3170   21.7260   37.9420 N   0  0  0  0  0  0  0  0  0  0  0  0
   38.4750   26.1310   34.9830 C   0  0  0  0  0  0  0  0  0  0  0  0
   37.1200   26.7350   35.0990 C   0  0  0  0  0  0  0  0  0  0  0  0
   38.2820   27.4980   35.6060 C   0  0  0  0  0  0  0  0  0  0  0  0
   46.9905   24.4734   35.6237 H   0  0  0  0  0  0  0  0  0  0  0  0
   46.2122   25.7474   34.6727 H   0  0  0  0  0  0  0  0  0  0  0  0
   48.1180   26.7082   36.0214 H   0  0  0  0  0  0  0  0  0  0  0  0
   46.5921   27.3848   36.6164 H   0  0  0  0  0  0  0  0  0  0  0  0
   46.3961   25.5769   39.5091 H   0  0  0  0  0  0  0  0  0  0  0  0
   45.7623   26.8736   38.4464 H   0  0  0  0  0  0  0  0  0  0  0  0
   44.2777   24.9680   38.2844 H   0  0  0  0  0  0  0  0  0  0  0  0
   45.6561   23.8614   37.9712 H   0  0  0  0  0  0  0  0  0  0  0  0
   40.2475   25.5809   33.6352 H   0  0  0  0  0  0  0  0  0  0  0  0
   40.8444   23.9043   33.4270 H   0  0  0  0  0  0  0  0  0  0  0  0
   37.3811   24.9976   37.3655 H   0  0  0  0  0  0  0  0  0  0  0  0
   39.7950   21.4517   38.7865 H   0  0  0  0  0  0  0  0  0  0  0  0
   41.1538   21.1963   37.6591 H   0  0  0  0  0  0  0  0  0  0  0  0
   39.0684   25.7133   34.1563 H   0  0  0  0  0  0  0  0  0  0  0  0
   36.5950   27.0764   34.1947 H   0  0  0  0  0  0  0  0  0  0  0  0
   36.1655   26.4060   35.5356 H   0  0  0  0  0  0  0  0  0  0  0  0
   38.4215   27.6350   36.6885 H   0  0  0  0  0  0  0  0  0  0  0  0
   38.6942   28.5021   35.4274 H   0  0  0  0  0  0  0  0  0  0  0  0
  1  5  1  0
  2  1  2  0
  2  3  1  0
  3  4  1  0
  4  6  1  0
  5  4  2  0
  6 11  1  0
  7  6  1  0
  7  8  1  0
  8  9  1  0
  9 10  1  0
 11 10  1  0
 12  1  1  0
 12 15  1  0
 13 18  2  0
 14 13  1  0
 15 14  2  0
 15 16  1  0
 16 17  2  0
 17 18  1  0
 17 19  1  0
 20 21  1  0
 20 22  1  0
 20 14  1  0
 21 22  1  0
  7 23  1  0
  7 24  1  0
  8 25  1  0
  8 26  1  0
 10 27  1  0
 10 28  1  0
 11 29  1  0
 11 30  1  0
 12 31  1  0
 12 32  1  0
 13 33  1  0
 19 34  1  0
 19 35  1  0
 20 36  1  0
 21 37  1  0
 21 38  1  0
 22 39  1  0
 22 40  1  0
M  ISO  8  23  13  24  13  25  13  26  13  27  13  28  13  29  13  30  13
M  ISO  8  31   8  32   8  33  14  36  13  37  13  38  13  39  13  40  13
M  END
>  <minimizedAffinity>  (1) 
-5.49427843

>  <minimizedRMSD>  (1) 
2.08094287

$$$$
