
     RDKit          3D

 47 50  0  0  0  0  0  0  0  0999 V2000
   38.3450   25.7690   34.2500 C   0  0  0  0  0  0  0  0  0  0  0  0
   39.7910   26.1250   34.3210 C   0  0  0  0  0  0  0  0  0  0  0  0
   40.4210   27.2630   33.9620 N   0  0  0  0  0  0  0  0  0  0  0  0
   41.6910   27.0960   34.2140 O   0  0  0  0  0  0  0  0  0  0  0  0
   41.8770   25.8970   34.7160 C   0  0  0  0  0  0  0  0  0  0  0  0
   40.7070   25.2230   34.8120 N   0  0  0  0  0  0  0  0  0  0  0  0
   43.2590   25.6040   35.0350 N   0  0  0  0  0  0  0  0  0  0  0  0
   44.2090   26.1600   34.1070 C   0  0  0  0  0  0  0  0  0  0  0  0
   45.2590   26.8910   34.9720 C   0  0  0  0  0  0  0  0  0  0  0  0
   45.8460   25.9210   35.7880 O   0  0  0  0  0  0  0  0  0  0  0  0
   44.9180   25.5900   36.7730 C   0  0  0  0  0  0  0  0  0  0  0  0
   43.7750   24.8410   36.1400 C   0  0  0  0  0  0  0  0  0  0  0  0
   37.7760   22.0630   34.7520 C   0  0  0  0  0  0  0  0  0  0  0  0
   37.9510   23.2850   34.0740 C   0  0  0  0  0  0  0  0  0  0  0  0
   38.1470   24.4200   34.8440 C   0  0  0  0  0  0  0  0  0  0  0  0
   38.1650   24.3260   36.2170 N   0  0  0  0  0  0  0  0  0  0  0  0
   37.9880   23.1060   36.8120 C   0  0  0  0  0  0  0  0  0  0  0  0
   37.7950   21.9880   36.0770 N   0  0  0  0  0  0  0  0  0  0  0  0
   37.9900   22.9100   38.2180 N   0  0  0  0  0  0  0  0  0  0  0  0
   37.9330   23.3890   32.6540 N   0  0  0  0  0  0  0  0  0  0  0  0
   39.0300   23.3340   31.6890 C   0  0  0  0  0  0  0  0  0  0  0  0
   39.0430   24.7220   31.0400 C   0  0  0  0  0  0  0  0  0  0  0  0
   37.8890   24.7780   30.2010 N   0  0  0  0  0  0  0  0  0  0  0  0
   36.6570   24.5060   30.8460 C   0  0  0  0  0  0  0  0  0  0  0  0
   36.6730   23.5780   32.0020 C   0  0  0  0  0  0  0  0  0  0  0  0
   37.7554   26.5089   34.8112 H   0  0  0  0  0  0  0  0  0  0  0  0
   38.0153   25.7642   33.2006 H   0  0  0  0  0  0  0  0  0  0  0  0
   43.7121   26.8678   33.4272 H   0  0  0  0  0  0  0  0  0  0  0  0
   44.6693   25.3810   33.4815 H   0  0  0  0  0  0  0  0  0  0  0  0
   46.0202   27.3593   34.3306 H   0  0  0  0  0  0  0  0  0  0  0  0
   44.7949   27.6876   35.5721 H   0  0  0  0  0  0  0  0  0  0  0  0
   45.3978   24.9562   37.5333 H   0  0  0  0  0  0  0  0  0  0  0  0
   44.5416   26.5064   37.2511 H   0  0  0  0  0  0  0  0  0  0  0  0
   42.9793   24.6880   36.8840 H   0  0  0  0  0  0  0  0  0  0  0  0
   44.1300   23.8645   35.7790 H   0  0  0  0  0  0  0  0  0  0  0  0
   37.6191   21.1448   34.1669 H   0  0  0  0  0  0  0  0  0  0  0  0
   37.8514   21.9662   38.6066 H   0  0  0  0  0  0  0  0  0  0  0  0
   38.1300   23.7115   38.8495 H   0  0  0  0  0  0  0  0  0  0  0  0
   39.9848   23.1339   32.1973 H   0  0  0  0  0  0  0  0  0  0  0  0
   38.8967   22.5293   30.9509 H   0  0  0  0  0  0  0  0  0  0  0  0
   38.9924   25.5045   31.8114 H   0  0  0  0  0  0  0  0  0  0  0  0
   39.9660   24.8881   30.4652 H   0  0  0  0  0  0  0  0  0  0  0  0
   38.0114   24.0889   29.4453 H   0  0  0  0  0  0  0  0  0  0  0  0
   36.2535   25.4657   31.2011 H   0  0  0  0  0  0  0  0  0  0  0  0
   36.0532   23.9904   30.0847 H   0  0  0  0  0  0  0  0  0  0  0  0
   35.9647   23.9641   32.7499 H   0  0  0  0  0  0  0  0  0  0  0  0
   36.4100   22.5936   31.5876 H   0  0  0  0  0  0  0  0  0  0  0  0
  1  2  1  0
  1 15  1  0
  2  6  1  0
  3  4  1  0
  3  2  2  0
  4  5  1  0
  5  6  2  0
  5  7  1  0
  7 12  1  0
  8  9  1  0
  8  7  1  0
  9 10  1  0
 10 11  1  0
 12 11  1  0
 13 18  2  0
 14 13  1  0
 14 15  2  0
 15 16  1  0
 16 17  2  0
 17 19  1  0
 18 17  1  0
 20 14  1  0
 21 20  1  0
 22 21  1  0
 23 24  1  0
 23 22  1  0
 24 25  1  0
 25 20  1  0
  1 26  1  0
  1 27  1  0
  8 28  1  0
  8 29  1  0
  9 30  1  0
  9 31  1  0
 11 32  1  0
 11 33  1  0
 12 34  1  0
 12 35  1  0
 13 36  1  0
 19 37  1  0
 19 38  1  0
 21 39  1  0
 21 40  1  0
 22 41  1  0
 22 42  1  0
 23 43  1  0
 24 44  1  0
 24 45  1  0
 25 46  1  0
 25 47  1  0
M  ISO  8  26   8  27   8  28  13  29  13  30  13  31  13  32  13  33  13
M  ISO  8  34  13  35  13  36  14  39  13  40  13  41  13  42  13  43   5
M  ISO  4  44  13  45  13  46  13  47  13
M  END
>  <minimizedAffinity>  (1) 
-5.4769206

>  <minimizedRMSD>  (1) 
3.34354281

$$$$
