
     RDKit          3D

 42 44  0  0  0  0  0  0  0  0999 V2000
   41.0870   25.5190   34.1850 C   0  0  0  0  0  0  0  0  0  0  0  0
   41.3760   26.8310   34.0180 N   0  0  0  0  0  0  0  0  0  0  0  0
   42.6660   26.9600   34.1830 O   0  0  0  0  0  0  0  0  0  0  0  0
   43.1900   25.7650   34.4480 C   0  0  0  0  0  0  0  0  0  0  0  0
   42.2280   24.8280   34.4590 N   0  0  0  0  0  0  0  0  0  0  0  0
   44.6230   25.7970   34.6480 N   0  0  0  0  0  0  0  0  0  0  0  0
   45.3200   26.7240   33.7960 C   0  0  0  0  0  0  0  0  0  0  0  0
   46.2180   27.5670   34.7290 C   0  0  0  0  0  0  0  0  0  0  0  0
   47.1000   26.6550   35.3210 O   0  0  0  0  0  0  0  0  0  0  0  0
   46.3750   25.9270   36.2730 C   0  0  0  0  0  0  0  0  0  0  0  0
   45.3990   25.0240   35.5810 C   0  0  0  0  0  0  0  0  0  0  0  0
   39.7790   24.8060   34.1110 C   0  0  0  0  0  0  0  0  0  0  0  0
   38.0600   24.4550   37.4640 C   0  0  0  0  0  0  0  0  0  0  0  0
   38.3480   24.9470   36.1940 C   0  0  0  0  0  0  0  0  0  0  0  0
   39.3820   24.3650   35.4710 C   0  0  0  0  0  0  0  0  0  0  0  0
   40.0880   23.3300   36.0180 N   0  0  0  0  0  0  0  0  0  0  0  0
   39.7700   22.8780   37.2720 C   0  0  0  0  0  0  0  0  0  0  0  0
   38.7660   23.4400   37.9770 N   0  0  0  0  0  0  0  0  0  0  0  0
   40.4430   21.8110   37.9270 N   0  0  0  0  0  0  0  0  0  0  0  0
   37.5960   26.0510   35.6080 C   0  0  0  0  0  0  0  0  0  0  0  0
   38.3940   27.3190   35.8460 C   0  0  0  0  0  0  0  0  0  0  0  0
   37.4990   25.9070   34.0830 C   0  0  0  0  0  0  0  0  0  0  0  0
   45.9341   26.1813   33.0622 H   0  0  0  0  0  0  0  0  0  0  0  0
   44.6198   27.3567   33.2308 H   0  0  0  0  0  0  0  0  0  0  0  0
   46.7738   28.3199   34.1509 H   0  0  0  0  0  0  0  0  0  0  0  0
   45.6284   28.1123   35.4807 H   0  0  0  0  0  0  0  0  0  0  0  0
   47.0679   25.3226   36.8768 H   0  0  0  0  0  0  0  0  0  0  0  0
   45.8281   26.6234   36.9257 H   0  0  0  0  0  0  0  0  0  0  0  0
   44.7309   24.5648   36.3245 H   0  0  0  0  0  0  0  0  0  0  0  0
   45.9424   24.2321   35.0447 H   0  0  0  0  0  0  0  0  0  0  0  0
   39.0133   25.4844   33.7068 H   0  0  0  0  0  0  0  0  0  0  0  0
   39.8743   23.9296   33.4531 H   0  0  0  0  0  0  0  0  0  0  0  0
   37.2453   24.9042   38.0510 H   0  0  0  0  0  0  0  0  0  0  0  0
   40.1521   21.5213   38.8717 H   0  0  0  0  0  0  0  0  0  0  0  0
   41.2216   21.3275   37.4570 H   0  0  0  0  0  0  0  0  0  0  0  0
   36.5909   26.0662   36.0548 H   0  0  0  0  0  0  0  0  0  0  0  0
   38.5002   27.4878   36.9278 H   0  0  0  0  0  0  0  0  0  0  0  0
   39.3904   27.2160   35.3914 H   0  0  0  0  0  0  0  0  0  0  0  0
   37.8701   28.1727   35.3914 H   0  0  0  0  0  0  0  0  0  0  0  0
   36.9001   25.0180   33.8360 H   0  0  0  0  0  0  0  0  0  0  0  0
   37.0188   26.8017   33.6600 H   0  0  0  0  0  0  0  0  0  0  0  0
   38.5086   25.7981   33.6600 H   0  0  0  0  0  0  0  0  0  0  0  0
  1  5  1  0
  2  3  1  0
  2  1  2  0
  3  4  1  0
  4  5  2  0
  4  6  1  0
  6 11  1  0
  7  6  1  0
  7  8  1  0
  8  9  1  0
  9 10  1  0
 11 10  1  0
 12  1  1  0
 12 15  1  0
 13 18  2  0
 14 13  1  0
 15 16  1  0
 15 14  2  0
 16 17  2  0
 17 19  1  0
 17 18  1  0
 20 21  1  0
 20 14  1  0
 22 20  1  0
  7 23  1  0
  7 24  1  0
  8 25  1  0
  8 26  1  0
 10 27  1  0
 10 28  1  0
 11 29  1  0
 11 30  1  0
 12 31  1  0
 12 32  1  0
 13 33  1  0
 19 34  1  0
 19 35  1  0
 20 36  1  0
 21 37  1  0
 21 38  1  0
 21 39  1  0
 22 40  1  0
 22 41  1  0
 22 42  1  0
M  ISO  8  23  13  24  13  25  13  26  13  27  13  28  13  29  13  30  13
M  ISO  8  31   8  32   8  33  14  36   8  37   8  38   8  39   8  40   8
M  ISO  2  41   8  42   8
M  END
>  <minimizedAffinity>  (1) 
-5.37835598

>  <minimizedRMSD>  (1) 
0.894922972

$$$$
