
     RDKit          3D

 33 35  0  0  0  0  0  0  0  0999 V2000
   37.5960   26.7120   35.3520 C   0  0  0  0  0  0  0  0  0  0  0  0
   37.1560   27.5570   34.2070 C   0  0  0  0  0  0  0  0  0  0  0  0
   36.1240   28.4670   34.3610 C   0  0  0  0  0  0  0  0  0  0  0  0
   35.6520   29.2920   33.3490 C   0  0  0  0  0  0  0  0  0  0  0  0
   36.2600   29.1730   32.1440 N   0  0  0  0  0  0  0  0  0  0  0  0
   37.2690   28.2900   31.9730 C   0  0  0  0  0  0  0  0  0  0  0  0
   37.6890   27.5120   32.9900 N   0  0  0  0  0  0  0  0  0  0  0  0
   37.8780   28.2160   30.6500 C   0  0  0  0  0  0  0  0  0  0  0  0
   38.9460   27.3950   30.3690 C   0  0  0  0  0  0  0  0  0  0  0  0
   39.4330   27.4150   29.0790 C   0  0  0  0  0  0  0  0  0  0  0  0
   38.9390   28.1880   28.0520 C   0  0  0  0  0  0  0  0  0  0  0  0
   37.8620   28.9900   28.4080 C   0  0  0  0  0  0  0  0  0  0  0  0
   37.3830   28.9750   29.6660 N   0  0  0  0  0  0  0  0  0  0  0  0
   38.1850   25.4060   34.9310 C   0  0  0  0  0  0  0  0  0  0  0  0
   39.6730   22.8860   37.2520 C   0  0  0  0  0  0  0  0  0  0  0  0
   38.9950   23.1570   38.4450 C   0  0  0  0  0  0  0  0  0  0  0  0
   38.0410   24.1950   38.4390 C   0  0  0  0  0  0  0  0  0  0  0  0
   37.8260   24.8790   37.2790 N   0  0  0  0  0  0  0  0  0  0  0  0
   38.5130   24.5750   36.1470 C   0  0  0  0  0  0  0  0  0  0  0  0
   39.4100   23.6030   36.1470 N   0  0  0  0  0  0  0  0  0  0  0  0
   38.3528   27.2676   35.9252 H   0  0  0  0  0  0  0  0  0  0  0  0
   36.7026   26.4875   35.9531 H   0  0  0  0  0  0  0  0  0  0  0  0
   35.6470   28.5412   35.3494 H   0  0  0  0  0  0  0  0  0  0  0  0
   34.8296   30.0032   33.5163 H   0  0  0  0  0  0  0  0  0  0  0  0
   39.3922   26.7503   31.1405 H   0  0  0  0  0  0  0  0  0  0  0  0
   40.2865   26.7594   28.8516 H   0  0  0  0  0  0  0  0  0  0  0  0
   39.3612   28.1718   27.0364 H   0  0  0  0  0  0  0  0  0  0  0  0
   37.3964   29.6431   27.6552 H   0  0  0  0  0  0  0  0  0  0  0  0
   37.4614   24.8648   34.3037 H   0  0  0  0  0  0  0  0  0  0  0  0
   39.1065   25.5916   34.3597 H   0  0  0  0  0  0  0  0  0  0  0  0
   40.4241   22.0830   37.2186 H   0  0  0  0  0  0  0  0  0  0  0  0
   39.1995   22.5790   39.3583 H   0  0  0  0  0  0  0  0  0  0  0  0
   37.4814   24.4480   39.3516 H   0  0  0  0  0  0  0  0  0  0  0  0
  2  3  2  0
  2  1  1  0
  4  3  1  0
  5  4  2  0
  6  5  1  0
  6  7  2  0
  7  2  1  0
  8  6  1  0
  9  8  2  0
 10  9  1  0
 11 12  1  0
 11 10  2  0
 12 13  2  0
 13  8  1  0
 14  1  1  0
 14 19  1  0
 15 16  2  0
 17 16  1  0
 18 17  2  0
 19 20  2  0
 19 18  1  0
 20 15  1  0
  1 21  1  0
  1 22  1  0
  3 23  1  0
  4 24  1  0
  9 25  1  0
 10 26  1  0
 11 27  1  0
 12 28  1  0
 14 29  1  0
 14 30  1  0
 15 31  1  0
 16 32  1  0
 17 33  1  0
M  ISO  8  21   8  22   8  23  14  24  14  25  14  26  14  27  14  28  14
M  ISO  5  29   8  30   8  31  14  32  14  33  14
M  END
>  <minimizedAffinity>  (1) 
-4.84732199

>  <minimizedRMSD>  (1) 
1.29257655

$$$$
