
     RDKit          3D

 40 43  0  0  0  0  0  0  0  0999 V2000
   40.1400   24.3480   33.9610 C   0  0  0  0  0  0  0  0  0  0  0  0
   41.3210   25.2620   34.0170 C   0  0  0  0  0  0  0  0  0  0  0  0
   41.3240   26.6180   34.0600 N   0  0  0  0  0  0  0  0  0  0  0  0
   42.5850   26.9890   34.1010 O   0  0  0  0  0  0  0  0  0  0  0  0
   43.3500   25.9080   34.0850 C   0  0  0  0  0  0  0  0  0  0  0  0
   42.6060   24.7960   34.0320 N   0  0  0  0  0  0  0  0  0  0  0  0
   44.7590   26.2100   34.1270 N   0  0  0  0  0  0  0  0  0  0  0  0
   45.1560   27.3630   33.3760 C   0  0  0  0  0  0  0  0  0  0  0  0
   45.9980   28.2240   34.3520 C   0  0  0  0  0  0  0  0  0  0  0  0
   47.1050   27.4430   34.6960 O   0  0  0  0  0  0  0  0  0  0  0  0
   46.6620   26.4680   35.5800 C   0  0  0  0  0  0  0  0  0  0  0  0
   45.8010   25.4810   34.8370 C   0  0  0  0  0  0  0  0  0  0  0  0
   38.5480   24.2050   37.3860 C   0  0  0  0  0  0  0  0  0  0  0  0
   38.8210   24.6380   36.0690 C   0  0  0  0  0  0  0  0  0  0  0  0
   39.7930   23.9530   35.3550 C   0  0  0  0  0  0  0  0  0  0  0  0
   40.4410   22.9010   35.9400 N   0  0  0  0  0  0  0  0  0  0  0  0
   40.1380   22.5270   37.2090 C   0  0  0  0  0  0  0  0  0  0  0  0
   39.1950   23.1760   37.9290 N   0  0  0  0  0  0  0  0  0  0  0  0
   40.7660   21.4470   37.8840 N   0  0  0  0  0  0  0  0  0  0  0  0
   38.1240   25.7320   35.5080 N   0  0  0  0  0  0  0  0  0  0  0  0
   37.2330   25.9290   34.5540 N   0  0  0  0  0  0  0  0  0  0  0  0
   36.9150   27.2310   34.4560 C   0  0  0  0  0  0  0  0  0  0  0  0
   37.6590   27.9180   35.4210 C   0  0  0  0  0  0  0  0  0  0  0  0
   38.4090   26.9420   36.0660 C   0  0  0  0  0  0  0  0  0  0  0  0
   39.2882   24.8676   33.4979 H   0  0  0  0  0  0  0  0  0  0  0  0
   40.3761   23.4572   33.3604 H   0  0  0  0  0  0  0  0  0  0  0  0
   45.7604   27.0658   32.5063 H   0  0  0  0  0  0  0  0  0  0  0  0
   44.2877   27.9165   32.9890 H   0  0  0  0  0  0  0  0  0  0  0  0
   46.3231   29.1525   33.8598 H   0  0  0  0  0  0  0  0  0  0  0  0
   45.4163   28.5126   35.2399 H   0  0  0  0  0  0  0  0  0  0  0  0
   47.5267   25.9466   36.0164 H   0  0  0  0  0  0  0  0  0  0  0  0
   46.0767   26.9369   36.3847 H   0  0  0  0  0  0  0  0  0  0  0  0
   45.3420   24.7803   35.5500 H   0  0  0  0  0  0  0  0  0  0  0  0
   46.4144   24.9135   34.1217 H   0  0  0  0  0  0  0  0  0  0  0  0
   37.7830   24.7304   37.9764 H   0  0  0  0  0  0  0  0  0  0  0  0
   40.4909   21.2127   38.8485 H   0  0  0  0  0  0  0  0  0  0  0  0
   41.4966   20.8979   37.4091 H   0  0  0  0  0  0  0  0  0  0  0  0
   36.2007   27.6750   33.7470 H   0  0  0  0  0  0  0  0  0  0  0  0
   37.6519   28.9988   35.6254 H   0  0  0  0  0  0  0  0  0  0  0  0
   39.1157   27.1172   36.8905 H   0  0  0  0  0  0  0  0  0  0  0  0
  1  2  1  0
  1 15  1  0
  2  6  1  0
  2  3  2  0
  3  4  1  0
  5  4  1  0
  5  7  1  0
  6  5  2  0
  7 12  1  0
  8  7  1  0
  8  9  1  0
  9 10  1  0
 10 11  1  0
 12 11  1  0
 13 18  2  0
 14 13  1  0
 15 16  1  0
 15 14  2  0
 16 17  2  0
 17 19  1  0
 17 18  1  0
 20 24  1  0
 20 14  1  0
 21 20  1  0
 22 21  2  0
 22 23  1  0
 23 24  2  0
  1 25  1  0
  1 26  1  0
  8 27  1  0
  8 28  1  0
  9 29  1  0
  9 30  1  0
 11 31  1  0
 11 32  1  0
 12 33  1  0
 12 34  1  0
 13 35  1  0
 19 36  1  0
 19 37  1  0
 22 38  1  0
 23 39  1  0
 24 40  1  0
M  ISO  8  25   8  26   8  27  13  28  13  29  13  30  13  31  13  32  13
M  ISO  6  33  13  34  13  35  14  38  14  39  14  40  14
M  END
>  <minimizedAffinity>  (1) 
-5.31165028

>  <minimizedRMSD>  (1) 
1.19969261

$$$$
