
     RDKit          3D

 40 42  0  0  0  0  0  0  0  0999 V2000
   40.3010   24.1770   33.8080 C   0  0  0  0  0  0  0  0  0  0  0  0
   41.3680   25.1990   33.9020 C   0  0  0  0  0  0  0  0  0  0  0  0
   41.3050   26.5530   34.0330 N   0  0  0  0  0  0  0  0  0  0  0  0
   42.5300   27.0070   34.0630 O   0  0  0  0  0  0  0  0  0  0  0  0
   43.3630   25.9820   33.9560 C   0  0  0  0  0  0  0  0  0  0  0  0
   42.6790   24.8160   33.8510 N   0  0  0  0  0  0  0  0  0  0  0  0
   44.7610   26.3620   33.9770 N   0  0  0  0  0  0  0  0  0  0  0  0
   45.0400   27.6030   33.2890 C   0  0  0  0  0  0  0  0  0  0  0  0
   45.8790   28.4350   34.2600 C   0  0  0  0  0  0  0  0  0  0  0  0
   47.0450   27.7000   34.5050 O   0  0  0  0  0  0  0  0  0  0  0  0
   46.6980   26.6470   35.3490 C   0  0  0  0  0  0  0  0  0  0  0  0
   45.8730   25.6720   34.5820 C   0  0  0  0  0  0  0  0  0  0  0  0
   38.0890   24.4880   36.8820 C   0  0  0  0  0  0  0  0  0  0  0  0
   38.5670   24.7730   35.6100 C   0  0  0  0  0  0  0  0  0  0  0  0
   39.6610   24.0180   35.1560 C   0  0  0  0  0  0  0  0  0  0  0  0
   40.2220   23.0400   35.9630 N   0  0  0  0  0  0  0  0  0  0  0  0
   39.6900   22.8220   37.2080 C   0  0  0  0  0  0  0  0  0  0  0  0
   38.6320   23.5450   37.6590 N   0  0  0  0  0  0  0  0  0  0  0  0
   40.1860   21.8510   38.1110 N   0  0  0  0  0  0  0  0  0  0  0  0
   38.0180   25.7600   34.7620 N   0  0  0  0  0  0  0  0  0  0  0  0
   37.8530   27.1020   35.2020 C   0  0  0  0  0  0  0  0  0  0  0  0
   38.8450   27.6670   35.8330 N   0  0  0  0  0  0  0  0  0  0  0  0
   36.6500   27.8700   34.9850 N   0  0  0  0  0  0  0  0  0  0  0  0
   38.7880   28.6440   36.1800 H   0  0  0  0  0  0  0  0  0  0  0  0
   39.5454   24.4981   33.0759 H   0  0  0  0  0  0  0  0  0  0  0  0
   40.7308   23.2178   33.4837 H   0  0  0  0  0  0  0  0  0  0  0  0
   45.6028   27.4104   32.3637 H   0  0  0  0  0  0  0  0  0  0  0  0
   44.1152   28.1247   33.0017 H   0  0  0  0  0  0  0  0  0  0  0  0
   46.1295   29.4069   33.8099 H   0  0  0  0  0  0  0  0  0  0  0  0
   45.3298   28.6339   35.1921 H   0  0  0  0  0  0  0  0  0  0  0  0
   47.6088   26.1522   35.7172 H   0  0  0  0  0  0  0  0  0  0  0  0
   46.1260   27.0280   36.2079 H   0  0  0  0  0  0  0  0  0  0  0  0
   45.4966   24.8937   35.2622 H   0  0  0  0  0  0  0  0  0  0  0  0
   46.4876   25.2048   33.7984 H   0  0  0  0  0  0  0  0  0  0  0  0
   37.2309   25.0598   37.2651 H   0  0  0  0  0  0  0  0  0  0  0  0
   39.7444   21.7329   39.0340 H   0  0  0  0  0  0  0  0  0  0  0  0
   40.9885   21.2627   37.8450 H   0  0  0  0  0  0  0  0  0  0  0  0
   37.7317   25.5028   33.8066 H   0  0  0  0  0  0  0  0  0  0  0  0
   36.5891   28.8395   35.3275 H   0  0  0  0  0  0  0  0  0  0  0  0
   35.8526   27.4485   34.4877 H   0  0  0  0  0  0  0  0  0  0  0  0
  1  2  1  0
  1 15  1  0
  2  3  2  0
  3  4  1  0
  5  7  1  0
  5  4  1  0
  6  2  1  0
  6  5  2  0
  7 12  1  0
  8  7  1  0
  8  9  1  0
  9 10  1  0
 10 11  1  0
 12 11  1  0
 13 18  2  0
 14 13  1  0
 15 14  2  0
 15 16  1  0
 16 17  2  0
 17 18  1  0
 17 19  1  0
 20 21  1  0
 20 14  1  0
 21 22  2  0
 22 24  1  0
 23 21  1  0
  1 25  1  0
  1 26  1  0
  8 27  1  0
  8 28  1  0
  9 29  1  0
  9 30  1  0
 11 31  1  0
 11 32  1  0
 12 33  1  0
 12 34  1  0
 13 35  1  0
 19 36  1  0
 19 37  1  0
 20 38  1  0
 23 39  1  0
 23 40  1  0
M  ISO  8  25   8  26   8  27  13  28  13  29  13  30  13  31  13  32  13
M  ISO  3  33  13  34  13  35  14
M  END
>  <minimizedAffinity>  (1) 
-5.02244282

>  <minimizedRMSD>  (1) 
1.22607481

$$$$
