
     RDKit          3D

 35 37  0  0  0  0  0  0  0  0999 V2000
   40.8950   25.5190   34.1120 C   0  0  0  0  0  0  0  0  0  0  0  0
   41.0010   26.8690   34.0980 N   0  0  0  0  0  0  0  0  0  0  0  0
   42.2730   27.1550   34.1380 O   0  0  0  0  0  0  0  0  0  0  0  0
   42.9640   26.0360   34.1770 C   0  0  0  0  0  0  0  0  0  0  0  0
   42.1560   24.9630   34.1630 N   0  0  0  0  0  0  0  0  0  0  0  0
   44.4020   26.2380   34.2240 N   0  0  0  0  0  0  0  0  0  0  0  0
   44.8670   27.3410   33.4270 C   0  0  0  0  0  0  0  0  0  0  0  0
   45.7660   28.1770   34.3650 C   0  0  0  0  0  0  0  0  0  0  0  0
   46.8140   27.3410   34.7380 O   0  0  0  0  0  0  0  0  0  0  0  0
   46.3090   26.4280   35.6630 C   0  0  0  0  0  0  0  0  0  0  0  0
   45.3910   25.4730   34.9610 C   0  0  0  0  0  0  0  0  0  0  0  0
   39.6750   24.6620   34.0830 C   0  0  0  0  0  0  0  0  0  0  0  0
   38.1420   24.3990   37.5220 C   0  0  0  0  0  0  0  0  0  0  0  0
   38.3820   24.8480   36.2270 C   0  0  0  0  0  0  0  0  0  0  0  0
   39.3680   24.2320   35.4710 C   0  0  0  0  0  0  0  0  0  0  0  0
   40.0690   23.2010   36.0340 N   0  0  0  0  0  0  0  0  0  0  0  0
   39.8090   22.7900   37.2990 C   0  0  0  0  0  0  0  0  0  0  0  0
   38.8440   23.3960   38.0320 N   0  0  0  0  0  0  0  0  0  0  0  0
   40.5010   21.7230   37.9440 N   0  0  0  0  0  0  0  0  0  0  0  0
   37.5900   25.9450   35.7210 C   0  0  0  0  0  0  0  0  0  0  0  0
   37.8350   27.1680   35.7510 O   0  0  0  0  0  0  0  0  0  0  0  0
   45.4448   26.9760   32.5651 H   0  0  0  0  0  0  0  0  0  0  0  0
   44.0327   27.9346   33.0249 H   0  0  0  0  0  0  0  0  0  0  0  0
   46.1520   29.0611   33.8365 H   0  0  0  0  0  0  0  0  0  0  0  0
   45.2078   28.5385   35.2412 H   0  0  0  0  0  0  0  0  0  0  0  0
   47.1394   25.8708   36.1212 H   0  0  0  0  0  0  0  0  0  0  0  0
   45.7552   26.9643   36.4476 H   0  0  0  0  0  0  0  0  0  0  0  0
   44.8881   24.8317   35.6998 H   0  0  0  0  0  0  0  0  0  0  0  0
   45.9658   24.8383   34.2706 H   0  0  0  0  0  0  0  0  0  0  0  0
   38.8287   25.2350   33.6763 H   0  0  0  0  0  0  0  0  0  0  0  0
   39.8474   23.7824   33.4454 H   0  0  0  0  0  0  0  0  0  0  0  0
   37.3617   24.8811   38.1292 H   0  0  0  0  0  0  0  0  0  0  0  0
   40.2555   21.4587   38.9088 H   0  0  0  0  0  0  0  0  0  0  0  0
   41.2464   21.2166   37.4451 H   0  0  0  0  0  0  0  0  0  0  0  0
   36.6400   25.6633   35.2434 H   0  0  0  0  0  0  0  0  0  0  0  0
  1  5  1  0
  2  1  2  0
  2  3  1  0
  3  4  1  0
  4  6  1  0
  5  4  2  0
  6 11  1  0
  7  6  1  0
  7  8  1  0
  8  9  1  0
  9 10  1  0
 11 10  1  0
 12  1  1  0
 12 15  1  0
 13 18  2  0
 14 13  1  0
 15 16  1  0
 15 14  2  0
 16 17  2  0
 17 19  1  0
 17 18  1  0
 20 21  2  0
 20 14  1  0
  7 22  1  0
  7 23  1  0
  8 24  1  0
  8 25  1  0
 10 26  1  0
 10 27  1  0
 11 28  1  0
 11 29  1  0
 12 30  1  0
 12 31  1  0
 13 32  1  0
 19 33  1  0
 19 34  1  0
 20 35  1  0
M  ISO  8  22  13  23  13  24  13  25  13  26  13  27  13  28  13  29  13
M  ISO  4  30   8  31   8  32  14  35   6
M  END
>  <minimizedAffinity>  (1) 
-4.79625082

>  <minimizedRMSD>  (1) 
0.671608627

$$$$
