
     RDKit          3D

 19 20  0  0  0  0  0  0  0  0999 V2000
   42.4500   20.7910   37.2300 C   0  0  0  0  0  0  0  0  0  0  0  0
   43.3880   21.5130   36.4580 C   0  0  0  0  0  0  0  0  0  0  0  0
   42.9970   22.8010   36.0320 C   0  0  0  0  0  0  0  0  0  0  0  0
   41.7600   23.2510   36.3900 N   0  0  0  0  0  0  0  0  0  0  0  0
   40.9100   22.5160   37.1280 C   0  0  0  0  0  0  0  0  0  0  0  0
   41.2420   21.2910   37.5530 N   0  0  0  0  0  0  0  0  0  0  0  0
   39.6060   23.0470   37.4810 C   0  0  0  0  0  0  0  0  0  0  0  0
   38.7670   23.8060   36.6620 C   0  0  0  0  0  0  0  0  0  0  0  0
   37.6370   24.1090   37.3630 N   0  0  0  0  0  0  0  0  0  0  0  0
   37.7450   23.5560   38.6020 C   0  0  0  0  0  0  0  0  0  0  0  0
   38.9340   22.9310   38.6320 N   0  0  0  0  0  0  0  0  0  0  0  0
   42.8540   19.4840   37.6590 N   0  0  0  0  0  0  0  0  0  0  0  0
   44.3720   21.0931   36.2022 H   0  0  0  0  0  0  0  0  0  0  0  0
   43.6718   23.4250   35.4276 H   0  0  0  0  0  0  0  0  0  0  0  0
   38.9814   24.1084   35.6263 H   0  0  0  0  0  0  0  0  0  0  0  0
   37.0068   23.6100   39.4157 H   0  0  0  0  0  0  0  0  0  0  0  0
   39.2894   22.4185   39.4517 H   0  0  0  0  0  0  0  0  0  0  0  0
   43.7827   19.1213   37.4005 H   0  0  0  0  0  0  0  0  0  0  0  0
   42.2155   18.9077   38.2257 H   0  0  0  0  0  0  0  0  0  0  0  0
  1  6  2  0
  1 12  1  0
  2  1  1  0
  3  4  1  0
  3  2  2  0
  4  5  2  0
  5  7  1  0
  5  6  1  0
  7 11  1  0
  8  9  1  0
  8  7  2  0
  9 10  2  0
 10 11  1  0
  2 13  1  0
  3 14  1  0
  8 15  1  0
 10 16  1  0
 11 17  1  0
 12 18  1  0
 12 19  1  0
M  ISO  5  13  14  14  14  15  14  16  14  17   9
M  END
>  <minimizedAffinity>  (1) 
-4.29459953

>  <minimizedRMSD>  (1) 
4.08665848

$$$$
