
     RDKit          3D

 18 19  0  0  0  0  0  0  0  0999 V2000
   39.6530   22.5530   37.4540 C   0  0  0  0  0  0  0  0  0  0  0  0
   38.9920   23.3440   38.4130 C   0  0  0  0  0  0  0  0  0  0  0  0
   37.9770   24.1960   37.9820 C   0  0  0  0  0  0  0  0  0  0  0  0
   37.6860   24.2080   36.6500 N   0  0  0  0  0  0  0  0  0  0  0  0
   38.3370   23.4400   35.7690 C   0  0  0  0  0  0  0  0  0  0  0  0
   39.3150   22.6150   36.1500 N   0  0  0  0  0  0  0  0  0  0  0  0
   38.0140   23.4700   34.3760 N   0  0  0  0  0  0  0  0  0  0  0  0
   37.6910   24.3420   33.4150 C   0  0  0  0  0  0  0  0  0  0  0  0
   37.5030   23.7090   32.2640 N   0  0  0  0  0  0  0  0  0  0  0  0
   37.7110   22.4110   32.5020 C   0  0  0  0  0  0  0  0  0  0  0  0
   38.0280   22.2560   33.8040 N   0  0  0  0  0  0  0  0  0  0  0  0
   40.6870   21.6910   37.9120 N   0  0  0  0  0  0  0  0  0  0  0  0
   39.2699   23.2908   39.4760 H   0  0  0  0  0  0  0  0  0  0  0  0
   37.4304   24.8356   38.6906 H   0  0  0  0  0  0  0  0  0  0  0  0
   37.5949   25.4284   33.5581 H   0  0  0  0  0  0  0  0  0  0  0  0
   37.6362   21.6028   31.7595 H   0  0  0  0  0  0  0  0  0  0  0  0
   41.1954   21.0957   37.2427 H   0  0  0  0  0  0  0  0  0  0  0  0
   40.9276   21.6619   38.9131 H   0  0  0  0  0  0  0  0  0  0  0  0
  1 12  1  0
  1  2  2  0
  3  2  1  0
  4  3  2  0
  5  6  2  0
  5  4  1  0
  6  1  1  0
  7  5  1  0
  8  7  1  0
  9 10  1  0
  9  8  2  0
 10 11  2  0
 11  7  1  0
  2 13  1  0
  3 14  1  0
  8 15  1  0
 10 16  1  0
 12 17  1  0
 12 18  1  0
M  ISO  4  13  14  14  14  15  14  16  14
M  END
>  <minimizedAffinity>  (1) 
-4.11489725

>  <minimizedRMSD>  (1) 
4.95449781

$$$$
