
     RDKit          3D

 19 20  0  0  0  0  0  0  0  0999 V2000
   37.4120   21.9390   33.2630 C   0  0  0  0  0  0  0  0  0  0  0  0
   37.4310   23.0960   32.4380 C   0  0  0  0  0  0  0  0  0  0  0  0
   37.8000   24.2980   33.0360 C   0  0  0  0  0  0  0  0  0  0  0  0
   38.1220   24.3030   34.3690 N   0  0  0  0  0  0  0  0  0  0  0  0
   38.0880   23.1800   35.1060 C   0  0  0  0  0  0  0  0  0  0  0  0
   37.7390   22.0030   34.5710 N   0  0  0  0  0  0  0  0  0  0  0  0
   38.4360   23.2090   36.5230 C   0  0  0  0  0  0  0  0  0  0  0  0
   37.8650   23.8170   37.6200 C   0  0  0  0  0  0  0  0  0  0  0  0
   38.6300   23.4950   38.7250 C   0  0  0  0  0  0  0  0  0  0  0  0
   39.6400   22.7060   38.2950 N   0  0  0  0  0  0  0  0  0  0  0  0
   39.5240   22.5380   36.9910 N   0  0  0  0  0  0  0  0  0  0  0  0
   37.0360   20.7090   32.6620 N   0  0  0  0  0  0  0  0  0  0  0  0
   37.1654   23.0441   31.3718 H   0  0  0  0  0  0  0  0  0  0  0  0
   37.8327   25.2278   32.4492 H   0  0  0  0  0  0  0  0  0  0  0  0
   36.9624   24.4457   37.6167 H   0  0  0  0  0  0  0  0  0  0  0  0
   38.4506   23.8199   39.7605 H   0  0  0  0  0  0  0  0  0  0  0  0
   40.3791   22.3021   38.8879 H   0  0  0  0  0  0  0  0  0  0  0  0
   36.7895   20.6784   31.6624 H   0  0  0  0  0  0  0  0  0  0  0  0
   37.0097   19.8473   33.2256 H   0  0  0  0  0  0  0  0  0  0  0  0
  1  6  2  0
  2  3  2  0
  2  1  1  0
  3  4  1  0
  4  5  2  0
  5  7  1  0
  6  5  1  0
  7 11  2  0
  7  8  1  0
  8  9  2  0
 10  9  1  0
 11 10  1  0
 12  1  1  0
  2 13  1  0
  3 14  1  0
  8 15  1  0
  9 16  1  0
 10 17  1  0
 12 18  1  0
 12 19  1  0
M  ISO  5  13  14  14  14  15  14  16  14  17   9
M  END
>  <minimizedAffinity>  (1) 
-3.90870833

>  <minimizedRMSD>  (1) 
3.8243227

$$$$
