
     RDKit          3D

 15 15  0  0  0  0  0  0  0  0999 V2000
   39.6200   22.3160   35.2960 C   0  0  0  0  0  0  0  0  0  0  0  0
   40.9220   21.9100   35.6500 C   0  0  0  0  0  0  0  0  0  0  0  0
   41.3360   22.1110   36.9660 C   0  0  0  0  0  0  0  0  0  0  0  0
   40.4610   22.6860   37.8270 N   0  0  0  0  0  0  0  0  0  0  0  0
   39.2290   23.0590   37.4530 C   0  0  0  0  0  0  0  0  0  0  0  0
   38.8020   22.8790   36.1960 N   0  0  0  0  0  0  0  0  0  0  0  0
   38.3650   23.6800   38.4990 C   0  0  0  0  0  0  0  0  0  0  0  0
   37.3300   22.8730   38.8900 F   0  0  0  0  0  0  0  0  0  0  0  0
   37.9500   24.9260   38.0830 F   0  0  0  0  0  0  0  0  0  0  0  0
   39.1850   23.8660   39.6000 F   0  0  0  0  0  0  0  0  0  0  0  0
   39.2230   22.1010   33.9490 N   0  0  0  0  0  0  0  0  0  0  0  0
   41.5920   21.4481   34.9099 H   0  0  0  0  0  0  0  0  0  0  0  0
   42.3420   21.8121   37.2956 H   0  0  0  0  0  0  0  0  0  0  0  0
   38.2812   22.3799   33.6389 H   0  0  0  0  0  0  0  0  0  0  0  0
   39.8769   21.6662   33.2825 H   0  0  0  0  0  0  0  0  0  0  0  0
  1  2  2  0
  1  6  1  0
  2  3  1  0
  3  4  2  0
  5  4  1  0
  5  7  1  0
  6  5  2  0
  7  8  1  0
  7 10  1  0
  9  7  1  0
 11  1  1  0
  2 12  1  0
  3 13  1  0
 11 14  1  0
 11 15  1  0
M  ISO  2  12  14  13  14
M  END
>  <minimizedAffinity>  (1) 
-3.84913683

>  <minimizedRMSD>  (1) 
1.81685495

$$$$
