
     RDKit          3D

 22 23  0  0  0  0  0  0  0  0999 V2000
   38.5530   23.1690   37.9920 C   0  0  0  0  0  0  0  0  0  0  0  0
   37.6820   24.0330   37.3030 C   0  0  0  0  0  0  0  0  0  0  0  0
   38.1540   24.6180   36.1090 C   0  0  0  0  0  0  0  0  0  0  0  0
   39.4220   24.3060   35.7040 N   0  0  0  0  0  0  0  0  0  0  0  0
   40.2130   23.4770   36.3960 C   0  0  0  0  0  0  0  0  0  0  0  0
   39.7940   22.9030   37.5370 N   0  0  0  0  0  0  0  0  0  0  0  0
   41.5570   23.1900   35.9020 C   0  0  0  0  0  0  0  0  0  0  0  0
   41.9530   23.6120   34.6530 C   0  0  0  0  0  0  0  0  0  0  0  0
   43.1820   23.4140   34.0600 C   0  0  0  0  0  0  0  0  0  0  0  0
   44.0930   22.7090   34.8380 C   0  0  0  0  0  0  0  0  0  0  0  0
   43.7720   22.2570   36.0940 C   0  0  0  0  0  0  0  0  0  0  0  0
   42.5010   22.4980   36.6260 C   0  0  0  0  0  0  0  0  0  0  0  0
   38.0550   22.5940   39.1910 N   0  0  0  0  0  0  0  0  0  0  0  0
   36.6709   24.2444   37.6811 H   0  0  0  0  0  0  0  0  0  0  0  0
   37.5227   25.3025   35.5234 H   0  0  0  0  0  0  0  0  0  0  0  0
   41.2082   24.1674   34.0641 H   0  0  0  0  0  0  0  0  0  0  0  0
   43.4222   23.7841   33.0524 H   0  0  0  0  0  0  0  0  0  0  0  0
   45.0973   22.5080   34.4369 H   0  0  0  0  0  0  0  0  0  0  0  0
   44.5171   21.7033   36.6841 H   0  0  0  0  0  0  0  0  0  0  0  0
   42.2535   22.1308   37.6329 H   0  0  0  0  0  0  0  0  0  0  0  0
   38.6464   21.9533   39.7393 H   0  0  0  0  0  0  0  0  0  0  0  0
   37.1023   22.8176   39.5124 H   0  0  0  0  0  0  0  0  0  0  0  0
  1 13  1  0
  2  1  2  0
  3  2  1  0
  4  3  2  0
  4  5  1  0
  5  6  2  0
  6  1  1  0
  7  5  1  0
  7 12  1  0
  8  7  2  0
  9  8  1  0
  9 10  2  0
 10 11  1  0
 11 12  2  0
  2 14  1  0
  3 15  1  0
  8 16  1  0
  9 17  1  0
 10 18  1  0
 11 19  1  0
 12 20  1  0
 13 21  1  0
 13 22  1  0
M  ISO  7  14  14  15  14  16  14  17  14  18  14  19  14  20  14
M  END
>  <minimizedAffinity>  (1) 
-3.83626366

>  <minimizedRMSD>  (1) 
6.35993671

$$$$
