
     RDKit          3D

 22 23  0  0  0  0  0  0  0  0999 V2000
   39.5320   21.0090   32.6100 C   0  0  0  0  0  0  0  0  0  0  0  0
   40.7530   21.4640   32.0760 C   0  0  0  0  0  0  0  0  0  0  0  0
   41.3920   22.5460   32.6970 C   0  0  0  0  0  0  0  0  0  0  0  0
   40.7870   23.1000   33.7950 N   0  0  0  0  0  0  0  0  0  0  0  0
   39.6230   22.6330   34.2690 C   0  0  0  0  0  0  0  0  0  0  0  0
   38.9920   21.5910   33.6820 N   0  0  0  0  0  0  0  0  0  0  0  0
   39.0340   23.2560   35.4280 N   0  0  0  0  0  0  0  0  0  0  0  0
   38.1900   24.2740   35.5030 C   0  0  0  0  0  0  0  0  0  0  0  0
   37.7680   24.6880   36.7500 C   0  0  0  0  0  0  0  0  0  0  0  0
   38.2020   24.0690   37.9070 C   0  0  0  0  0  0  0  0  0  0  0  0
   37.7920   24.4780   39.0290 O   0  0  0  0  0  0  0  0  0  0  0  0
   39.0600   23.0380   37.7780 N   0  0  0  0  0  0  0  0  0  0  0  0
   39.4740   22.6330   36.5570 C   0  0  0  0  0  0  0  0  0  0  0  0
   40.2730   21.6580   36.6260 O   0  0  0  0  0  0  0  0  0  0  0  0
   38.9050   19.9140   31.9630 N   0  0  0  0  0  0  0  0  0  0  0  0
   41.1951   20.9814   31.1919 H   0  0  0  0  0  0  0  0  0  0  0  0
   42.3468   22.9373   32.3160 H   0  0  0  0  0  0  0  0  0  0  0  0
   37.8337   24.7778   34.5924 H   0  0  0  0  0  0  0  0  0  0  0  0
   37.0677   25.5330   36.8251 H   0  0  0  0  0  0  0  0  0  0  0  0
   39.4041   22.5533   38.6192 H   0  0  0  0  0  0  0  0  0  0  0  0
   39.3444   19.4836   31.1368 H   0  0  0  0  0  0  0  0  0  0  0  0
   38.0101   19.5490   32.3192 H   0  0  0  0  0  0  0  0  0  0  0  0
  1  6  2  0
  2  1  1  0
  2  3  2  0
  3  4  1  0
  4  5  2  0
  5  7  1  0
  6  5  1  0
  7  8  1  0
  7 13  1  0
  8  9  2  0
  9 10  1  0
 10 11  2  0
 12 10  1  0
 13 14  2  0
 13 12  1  0
 15  1  1  0
  2 16  1  0
  3 17  1  0
  8 18  1  0
  9 19  1  0
 12 20  1  0
 15 21  1  0
 15 22  1  0
M  ISO  5  16  14  17  14  18  14  19  14  20   9
M  END
>  <minimizedAffinity>  (1) 
-3.76991725

>  <minimizedRMSD>  (1) 
4.43940544

$$$$
