
     RDKit          3D

 17 18  0  0  0  0  0  0  0  0999 V2000
   39.8790   22.6640   37.2310 C   0  0  0  0  0  0  0  0  0  0  0  0
   39.1870   23.3310   38.2590 C   0  0  0  0  0  0  0  0  0  0  0  0
   37.8000   23.4310   38.1540 C   0  0  0  0  0  0  0  0  0  0  0  0
   37.1940   22.8760   37.0620 N   0  0  0  0  0  0  0  0  0  0  0  0
   37.8910   22.2450   36.1010 C   0  0  0  0  0  0  0  0  0  0  0  0
   39.2230   22.1400   36.1840 N   0  0  0  0  0  0  0  0  0  0  0  0
   37.0950   21.7010   34.9910 C   0  0  0  0  0  0  0  0  0  0  0  0
   37.2720   21.8480   33.6480 N   0  0  0  0  0  0  0  0  0  0  0  0
   36.3360   21.1960   33.0630 O   0  0  0  0  0  0  0  0  0  0  0  0
   35.5470   20.6240   33.9300 C   0  0  0  0  0  0  0  0  0  0  0  0
   36.0060   20.9290   35.1580 N   0  0  0  0  0  0  0  0  0  0  0  0
   41.2890   22.5630   37.3410 N   0  0  0  0  0  0  0  0  0  0  0  0
   39.7233   23.7600   39.1183 H   0  0  0  0  0  0  0  0  0  0  0  0
   37.2100   23.9425   38.9288 H   0  0  0  0  0  0  0  0  0  0  0  0
   34.6671   20.0053   33.6996 H   0  0  0  0  0  0  0  0  0  0  0  0
   41.8296   22.0819   36.6080 H   0  0  0  0  0  0  0  0  0  0  0  0
   41.7727   22.9707   38.1539 H   0  0  0  0  0  0  0  0  0  0  0  0
  1 12  1  0
  1  2  2  0
  3  2  1  0
  4  3  2  0
  5  6  2  0
  5  4  1  0
  6  1  1  0
  7 11  1  0
  7  5  1  0
  8  7  2  0
  9  8  1  0
  9 10  1  0
 10 11  2  0
  2 13  1  0
  3 14  1  0
 10 15  1  0
 12 16  1  0
 12 17  1  0
M  ISO  3  13  14  14  14  15  14
M  END
>  <minimizedAffinity>  (1) 
-3.75130224

>  <minimizedRMSD>  (1) 
4.91336823

$$$$
