
     RDKit          3D

 31 33  0  0  0  0  0  0  0  0999 V2000
   38.9970   26.2180   34.7770 C   0  0  0  0  0  0  0  0  0  0  0  0
   38.0970   27.0760   33.9680 C   0  0  0  0  0  0  0  0  0  0  0  0
   36.9780   27.6290   34.5370 C   0  0  0  0  0  0  0  0  0  0  0  0
   36.0590   28.4480   33.8890 C   0  0  0  0  0  0  0  0  0  0  0  0
   36.3070   28.7080   32.5880 N   0  0  0  0  0  0  0  0  0  0  0  0
   37.4160   28.1690   31.9980 C   0  0  0  0  0  0  0  0  0  0  0  0
   38.2740   27.3800   32.6790 N   0  0  0  0  0  0  0  0  0  0  0  0
   37.7480   28.4130   30.5760 C   0  0  0  0  0  0  0  0  0  0  0  0
   37.2800   29.2550   29.6710 C   0  0  0  0  0  0  0  0  0  0  0  0
   37.7620   29.2870   28.4020 C   0  0  0  0  0  0  0  0  0  0  0  0
   38.8090   28.3340   28.1500 C   0  0  0  0  0  0  0  0  0  0  0  0
   38.9890   27.4760   29.8090 S   0  0  0  0  0  0  0  0  0  0  0  0
   38.5590   24.7880   34.8050 C   0  0  0  0  0  0  0  0  0  0  0  0
   39.7260   22.8240   37.7480 C   0  0  0  0  0  0  0  0  0  0  0  0
   38.8800   23.2980   38.7710 C   0  0  0  0  0  0  0  0  0  0  0  0
   37.9330   24.2770   38.4220 C   0  0  0  0  0  0  0  0  0  0  0  0
   37.8840   24.7130   37.1270 N   0  0  0  0  0  0  0  0  0  0  0  0
   38.7250   24.2200   36.1830 C   0  0  0  0  0  0  0  0  0  0  0  0
   39.6300   23.2940   36.4820 N   0  0  0  0  0  0  0  0  0  0  0  0
   39.0154   26.6008   35.8081 H   0  0  0  0  0  0  0  0  0  0  0  0
   39.9939   26.2514   34.3132 H   0  0  0  0  0  0  0  0  0  0  0  0
   36.7912   27.4054   35.5977 H   0  0  0  0  0  0  0  0  0  0  0  0
   35.1806   28.8601   34.4072 H   0  0  0  0  0  0  0  0  0  0  0  0
   36.4762   29.9504   29.9543 H   0  0  0  0  0  0  0  0  0  0  0  0
   37.3853   29.9800   27.6353 H   0  0  0  0  0  0  0  0  0  0  0  0
   39.3650   28.1533   27.2182 H   0  0  0  0  0  0  0  0  0  0  0  0
   37.5004   24.7269   34.5124 H   0  0  0  0  0  0  0  0  0  0  0  0
   39.1779   24.2103   34.1028 H   0  0  0  0  0  0  0  0  0  0  0  0
   40.4789   22.0572   37.9829 H   0  0  0  0  0  0  0  0  0  0  0  0
   38.9575   22.9176   39.8002 H   0  0  0  0  0  0  0  0  0  0  0  0
   37.2444   24.6846   39.1768 H   0  0  0  0  0  0  0  0  0  0  0  0
  1 13  1  0
  2  3  2  0
  2  1  1  0
  4  3  1  0
  5  4  2  0
  6  5  1  0
  6  7  2  0
  7  2  1  0
  8  6  1  0
  9  8  2  0
 10  9  1  0
 11 10  2  0
 11 12  1  0
 12  8  1  0
 13 18  1  0
 14 15  2  0
 16 15  1  0
 17 16  2  0
 18 19  2  0
 18 17  1  0
 19 14  1  0
  1 20  1  0
  1 21  1  0
  3 22  1  0
  4 23  1  0
  9 24  1  0
 10 25  1  0
 11 26  1  0
 13 27  1  0
 13 28  1  0
 14 29  1  0
 15 30  1  0
 16 31  1  0
M  ISO  8  20   8  21   8  22  14  23  14  24  14  25  14  26  14  27   8
M  ISO  4  28   8  29  14  30  14  31  14
M  END
>  <minimizedAffinity>  (1) 
-4.7426405

>  <minimizedRMSD>  (1) 
0.836340845

$$$$
