
     RDKit          3D

 20 21  0  0  0  0  0  0  0  0999 V2000
   43.0260   20.8580   36.7130 C   0  0  0  0  0  0  0  0  0  0  0  0
   43.9040   21.8690   36.2590 C   0  0  0  0  0  0  0  0  0  0  0  0
   43.3750   23.1380   36.0300 C   0  0  0  0  0  0  0  0  0  0  0  0
   42.0500   23.3230   36.2550 N   0  0  0  0  0  0  0  0  0  0  0  0
   41.2400   22.3360   36.6880 C   0  0  0  0  0  0  0  0  0  0  0  0
   41.7300   21.1020   36.9160 N   0  0  0  0  0  0  0  0  0  0  0  0
   39.8150   22.5990   36.9140 C   0  0  0  0  0  0  0  0  0  0  0  0
   39.4140   23.1840   38.0970 C   0  0  0  0  0  0  0  0  0  0  0  0
   38.0510   23.3910   38.2180 C   0  0  0  0  0  0  0  0  0  0  0  0
   37.1640   23.0560   37.2700 N   0  0  0  0  0  0  0  0  0  0  0  0
   37.5690   22.4890   36.1280 C   0  0  0  0  0  0  0  0  0  0  0  0
   38.8800   22.2840   35.9980 N   0  0  0  0  0  0  0  0  0  0  0  0
   43.5820   19.5720   36.9410 N   0  0  0  0  0  0  0  0  0  0  0  0
   44.9711   21.6606   36.0918 H   0  0  0  0  0  0  0  0  0  0  0  0
   44.0115   23.9632   35.6781 H   0  0  0  0  0  0  0  0  0  0  0  0
   40.1259   23.4656   38.8869 H   0  0  0  0  0  0  0  0  0  0  0  0
   37.6751   23.8554   39.1416 H   0  0  0  0  0  0  0  0  0  0  0  0
   36.8578   22.2067   35.3378 H   0  0  0  0  0  0  0  0  0  0  0  0
   44.5856   19.4084   36.7770 H   0  0  0  0  0  0  0  0  0  0  0  0
   42.9818   18.8025   37.2704 H   0  0  0  0  0  0  0  0  0  0  0  0
  1  6  2  0
  1 13  1  0
  2  1  1  0
  3  4  1  0
  3  2  2  0
  4  5  2  0
  5  7  1  0
  5  6  1  0
  7  8  2  0
  8  9  1  0
 10  9  2  0
 11 10  1  0
 12 11  2  0
 12  7  1  0
  2 14  1  0
  3 15  1  0
  8 16  1  0
  9 17  1  0
 11 18  1  0
 13 19  1  0
 13 20  1  0
M  ISO  5  14  14  15  14  16  14  17  14  18  14
M  END
>  <minimizedAffinity>  (1) 
-3.60196877

>  <minimizedRMSD>  (1) 
4.56435823

$$$$
