
     RDKit          3D

 14 14  0  0  0  0  0  0  0  0999 V2000
   39.6470   22.7880   37.5510 C   0  0  0  0  0  0  0  0  0  0  0  0
   38.8920   23.2990   38.6320 C   0  0  0  0  0  0  0  0  0  0  0  0
   37.9480   24.3090   38.3310 C   0  0  0  0  0  0  0  0  0  0  0  0
   37.8290   24.7180   37.0440 N   0  0  0  0  0  0  0  0  0  0  0  0
   38.5720   24.1970   36.0570 C   0  0  0  0  0  0  0  0  0  0  0  0
   39.4840   23.2300   36.3060 N   0  0  0  0  0  0  0  0  0  0  0  0
   40.5960   21.7700   37.8650 N   0  0  0  0  0  0  0  0  0  0  0  0
   38.4710   24.6130   34.6560 C   0  0  0  0  0  0  0  0  0  0  0  0
   37.6610   25.4460   34.2170 O   0  0  0  0  0  0  0  0  0  0  0  0
   39.0320   22.9288   39.6583 H   0  0  0  0  0  0  0  0  0  0  0  0
   37.3255   24.7518   39.1224 H   0  0  0  0  0  0  0  0  0  0  0  0
   41.1757   21.3587   37.1195 H   0  0  0  0  0  0  0  0  0  0  0  0
   40.7014   21.4464   38.8371 H   0  0  0  0  0  0  0  0  0  0  0  0
   39.1655   24.1525   33.9380 H   0  0  0  0  0  0  0  0  0  0  0  0
  1  7  1  0
  1  2  2  0
  3  2  1  0
  4  3  2  0
  5  6  2  0
  5  4  1  0
  6  1  1  0
  8  5  1  0
  9  8  2  0
  2 10  1  0
  3 11  1  0
  7 12  1  0
  7 13  1  0
  8 14  1  0
M  ISO  3  10  14  11  14  14   6
M  END
>  <minimizedAffinity>  (1) 
-3.54370904

>  <minimizedRMSD>  (1) 
3.36019969

$$$$
