
     RDKit          3D

 25 27  0  0  0  0  0  0  0  0999 V2000
   38.0000   22.5690   36.2410 C   0  0  0  0  0  0  0  0  0  0  0  0
   37.8790   23.9760   36.1840 C   0  0  0  0  0  0  0  0  0  0  0  0
   39.0430   24.7300   35.9340 C   0  0  0  0  0  0  0  0  0  0  0  0
   40.2120   24.0380   35.7620 N   0  0  0  0  0  0  0  0  0  0  0  0
   40.2700   22.7010   35.8270 C   0  0  0  0  0  0  0  0  0  0  0  0
   39.1810   21.9640   36.0640 N   0  0  0  0  0  0  0  0  0  0  0  0
   41.5420   22.1010   35.6330 N   0  0  0  0  0  0  0  0  0  0  0  0
   42.5560   22.2590   36.5330 C   0  0  0  0  0  0  0  0  0  0  0  0
   43.6230   21.5600   36.0480 N   0  0  0  0  0  0  0  0  0  0  0  0
   43.2830   20.9860   34.8840 C   0  0  0  0  0  0  0  0  0  0  0  0
   43.8750   20.1950   33.9500 C   0  0  0  0  0  0  0  0  0  0  0  0
   43.2750   19.7520   32.8370 N   0  0  0  0  0  0  0  0  0  0  0  0
   41.9880   20.1030   32.6070 C   0  0  0  0  0  0  0  0  0  0  0  0
   41.3790   20.8830   33.5140 N   0  0  0  0  0  0  0  0  0  0  0  0
   41.9730   21.3260   34.6240 C   0  0  0  0  0  0  0  0  0  0  0  0
   36.8140   21.8350   36.4960 N   0  0  0  0  0  0  0  0  0  0  0  0
   45.2280   19.7930   34.1350 N   0  0  0  0  0  0  0  0  0  0  0  0
   36.9059   24.4675   36.3303 H   0  0  0  0  0  0  0  0  0  0  0  0
   39.0137   25.8283   35.8793 H   0  0  0  0  0  0  0  0  0  0  0  0
   42.5201   22.8375   37.4679 H   0  0  0  0  0  0  0  0  0  0  0  0
   41.4583   19.7601   31.7060 H   0  0  0  0  0  0  0  0  0  0  0  0
   36.8458   20.8068   36.5479 H   0  0  0  0  0  0  0  0  0  0  0  0
   35.9206   22.3300   36.6294 H   0  0  0  0  0  0  0  0  0  0  0  0
   45.6876   19.1938   33.4345 H   0  0  0  0  0  0  0  0  0  0  0  0
   45.7474   20.1013   34.9693 H   0  0  0  0  0  0  0  0  0  0  0  0
  1 16  1  0
  2  1  2  0
  3  2  1  0
  4  5  1  0
  4  3  2  0
  5  6  2  0
  6  1  1  0
  7  5  1  0
  7  8  1  0
  9  8  2  0
 10  9  1  0
 11 17  1  0
 11 10  2  0
 12 11  1  0
 13 12  2  0
 13 14  1  0
 14 15  2  0
 15 10  1  0
 15  7  1  0
  2 18  1  0
  3 19  1  0
  8 20  1  0
 13 21  1  0
 16 22  1  0
 16 23  1  0
 17 24  1  0
 17 25  1  0
M  ISO  4  18  14  19  14  20  14  21  14
M  END
>  <minimizedAffinity>  (1) 
-3.19882011

>  <minimizedRMSD>  (1) 
8.21222305

$$$$
