
     RDKit          3D

 13 13  0  0  0  0  0  0  0  0999 V2000
   38.5080   22.4750   35.9140 C   0  0  0  0  0  0  0  0  0  0  0  0
   39.8150   22.0220   36.2020 C   0  0  0  0  0  0  0  0  0  0  0  0
   40.3820   22.3970   37.4200 C   0  0  0  0  0  0  0  0  0  0  0  0
   39.6540   23.1720   38.2590 N   0  0  0  0  0  0  0  0  0  0  0  0
   38.4150   23.5820   37.9480 C   0  0  0  0  0  0  0  0  0  0  0  0
   37.8410   23.2420   36.7920 N   0  0  0  0  0  0  0  0  0  0  0  0
   37.9310   22.0940   34.6760 N   0  0  0  0  0  0  0  0  0  0  0  0
   37.6720   24.3840   38.8270 O   0  0  0  0  0  0  0  0  0  0  0  0
   40.3679   21.3935   35.4883 H   0  0  0  0  0  0  0  0  0  0  0  0
   41.3966   22.0710   37.6927 H   0  0  0  0  0  0  0  0  0  0  0  0
   36.9800   22.4063   34.4333 H   0  0  0  0  0  0  0  0  0  0  0  0
   38.4629   21.5050   34.0195 H   0  0  0  0  0  0  0  0  0  0  0  0
   36.7592   24.6761   38.5789 H   0  0  0  0  0  0  0  0  0  0  0  0
  1  2  2  0
  1  6  1  0
  2  3  1  0
  3  4  2  0
  5  4  1  0
  5  8  1  0
  6  5  2  0
  7  1  1  0
  2  9  1  0
  3 10  1  0
  7 11  1  0
  7 12  1  0
  8 13  1  0
M  ISO  3   9  14  10  14  13   3
M  END
>  <minimizedAffinity>  (1) 
-2.88828707

>  <minimizedRMSD>  (1) 
0.520296395

$$$$
