
     RDKit          3D

 13 13  0  0  0  0  0  0  0  0999 V2000
   39.7320   23.4140   35.5980 C   0  0  0  0  0  0  0  0  0  0  0  0
   38.7960   22.6400   36.3190 C   0  0  0  0  0  0  0  0  0  0  0  0
   37.7110   23.3380   36.8880 C   0  0  0  0  0  0  0  0  0  0  0  0
   37.6310   24.6790   36.7170 N   0  0  0  0  0  0  0  0  0  0  0  0
   38.5590   25.3650   36.0160 C   0  0  0  0  0  0  0  0  0  0  0  0
   39.5950   24.7320   35.4650 N   0  0  0  0  0  0  0  0  0  0  0  0
   40.8270   22.7030   35.0240 N   0  0  0  0  0  0  0  0  0  0  0  0
   38.4990   27.1350   35.7590 S   0  0  0  0  0  0  0  0  0  0  0  0
   38.9075   21.5514   36.4306 H   0  0  0  0  0  0  0  0  0  0  0  0
   36.9412   22.8014   37.4621 H   0  0  0  0  0  0  0  0  0  0  0  0
   41.5445   23.2094   34.4858 H   0  0  0  0  0  0  0  0  0  0  0  0
   40.9003   21.6831   35.1476 H   0  0  0  0  0  0  0  0  0  0  0  0
   38.4774   27.7721   36.9717 H   0  0  0  0  0  0  0  0  0  0  0  0
  1  2  2  0
  2  3  1  0
  4  3  2  0
  5  4  1  0
  6  1  1  0
  6  5  2  0
  7  1  1  0
  8  5  1  0
  2  9  1  0
  3 10  1  0
  7 11  1  0
  7 12  1  0
  8 13  1  0
M  ISO  3   9  14  10  14  13  11
M  END
>  <minimizedAffinity>  (1) 
-2.46830034

>  <minimizedRMSD>  (1) 
2.97657323

$$$$
