
     RDKit          3D

 31 33  0  0  0  0  0  0  0  0999 V2000
   39.0790   26.2760   34.7760 C   0  0  0  0  0  0  0  0  0  0  0  0
   38.1640   27.0900   33.9380 C   0  0  0  0  0  0  0  0  0  0  0  0
   37.0150   27.6240   34.4960 C   0  0  0  0  0  0  0  0  0  0  0  0
   36.1010   28.4010   33.7780 C   0  0  0  0  0  0  0  0  0  0  0  0
   36.3790   28.6290   32.4600 N   0  0  0  0  0  0  0  0  0  0  0  0
   37.4980   28.1120   31.9060 C   0  0  0  0  0  0  0  0  0  0  0  0
   38.3510   27.3670   32.6490 N   0  0  0  0  0  0  0  0  0  0  0  0
   37.8480   28.3230   30.5050 C   0  0  0  0  0  0  0  0  0  0  0  0
   37.2000   29.2420   29.7020 C   0  0  0  0  0  0  0  0  0  0  0  0
   37.8010   29.1540   28.4630 C   0  0  0  0  0  0  0  0  0  0  0  0
   38.7990   28.1790   28.5570 C   0  0  0  0  0  0  0  0  0  0  0  0
   38.7680   27.7330   29.7910 O   0  0  0  0  0  0  0  0  0  0  0  0
   38.7530   24.8090   34.7350 C   0  0  0  0  0  0  0  0  0  0  0  0
   39.7510   22.8210   37.7360 C   0  0  0  0  0  0  0  0  0  0  0  0
   38.8570   23.3000   38.7000 C   0  0  0  0  0  0  0  0  0  0  0  0
   37.9180   24.2970   38.3250 C   0  0  0  0  0  0  0  0  0  0  0  0
   37.9440   24.7320   37.0360 N   0  0  0  0  0  0  0  0  0  0  0  0
   38.8260   24.2450   36.1320 C   0  0  0  0  0  0  0  0  0  0  0  0
   39.7070   23.3090   36.4840 N   0  0  0  0  0  0  0  0  0  0  0  0
   40.1078   26.4181   34.4136 H   0  0  0  0  0  0  0  0  0  0  0  0
   38.9639   26.6128   35.8168 H   0  0  0  0  0  0  0  0  0  0  0  0
   36.8107   27.4268   35.5587 H   0  0  0  0  0  0  0  0  0  0  0  0
   35.1977   28.8108   34.2535 H   0  0  0  0  0  0  0  0  0  0  0  0
   36.3737   29.9079   29.9914 H   0  0  0  0  0  0  0  0  0  0  0  0
   37.5434   29.7408   27.5690 H   0  0  0  0  0  0  0  0  0  0  0  0
   39.4764   27.8506   27.7549 H   0  0  0  0  0  0  0  0  0  0  0  0
   37.7382   24.6688   34.3343 H   0  0  0  0  0  0  0  0  0  0  0  0
   39.4745   24.2882   34.0883 H   0  0  0  0  0  0  0  0  0  0  0  0
   40.4871   22.0480   38.0016 H   0  0  0  0  0  0  0  0  0  0  0  0
   38.8812   22.9116   39.7289 H   0  0  0  0  0  0  0  0  0  0  0  0
   37.1965   24.7025   39.0495 H   0  0  0  0  0  0  0  0  0  0  0  0
  2  3  2  0
  2  1  1  0
  4  3  1  0
  5  4  2  0
  6  5  1  0
  6  7  2  0
  7  2  1  0
  8  6  1  0
  9  8  2  0
 10 11  2  0
 10  9  1  0
 11 12  1  0
 12  8  1  0
 13  1  1  0
 13 18  1  0
 14 15  2  0
 16 15  1  0
 17 16  2  0
 18 19  2  0
 18 17  1  0
 19 14  1  0
  1 20  1  0
  1 21  1  0
  3 22  1  0
  4 23  1  0
  9 24  1  0
 10 25  1  0
 11 26  1  0
 13 27  1  0
 13 28  1  0
 14 29  1  0
 15 30  1  0
 16 31  1  0
M  ISO  8  20   8  21   8  22  14  23  14  24  14  25  14  26  14  27   8
M  ISO  4  28   8  29  14  30  14  31  14
M  END
>  <minimizedAffinity>  (1) 
-4.72513676

>  <minimizedRMSD>  (1) 
0.683948576

$$$$
