
     RDKit          3D

 33 36  0  0  1  0  0  0  0  0999 V2000
   37.9100   26.0280   35.5260 C   0  0  1  0  0  0  0  0  0  0  0  0
   38.7110   27.3450   35.6290 C   0  0  0  0  0  0  0  0  0  0  0  0
   38.9110   26.3800   34.5130 C   0  0  2  0  0  0  0  0  0  0  0  0
   38.5120   26.8110   33.1520 C   0  0  0  0  0  0  0  0  0  0  0  0
   39.2310   26.3940   32.0910 N   0  0  0  0  0  0  0  0  0  0  0  0
   38.9000   26.7650   30.8240 C   0  0  0  0  0  0  0  0  0  0  0  0
   37.8360   27.5660   30.6280 N   0  0  0  0  0  0  0  0  0  0  0  0
   37.0770   28.0160   31.6570 C   0  0  0  0  0  0  0  0  0  0  0  0
   35.9810   28.8390   31.4620 C   0  0  0  0  0  0  0  0  0  0  0  0
   35.2420   29.2700   32.5440 C   0  0  0  0  0  0  0  0  0  0  0  0
   35.5840   28.8880   33.8260 C   0  0  0  0  0  0  0  0  0  0  0  0
   36.6740   28.0690   34.0170 C   0  0  0  0  0  0  0  0  0  0  0  0
   37.4230   27.6310   32.9430 C   0  0  0  0  0  0  0  0  0  0  0  0
   39.2910   23.0230   37.1540 C   0  0  0  0  0  0  0  0  0  0  0  0
   38.8400   23.1410   38.4940 C   0  0  0  0  0  0  0  0  0  0  0  0
   38.0700   24.2740   38.8070 C   0  0  0  0  0  0  0  0  0  0  0  0
   37.8010   25.1760   37.8360 N   0  0  0  0  0  0  0  0  0  0  0  0
   38.2500   25.0210   36.5820 C   0  0  0  0  0  0  0  0  0  0  0  0
   39.0020   23.9370   36.2390 N   0  0  0  0  0  0  0  0  0  0  0  0
   40.0650   21.8660   36.8300 N   0  0  0  0  0  0  0  0  0  0  0  0
   36.8563   25.7178   35.4663 H   0  0  0  0  0  0  0  0  0  0  0  0
   38.2180   28.3113   35.4468 H   0  0  0  0  0  0  0  0  0  0  0  0
   39.3514   27.8237   36.3844 H   0  0  0  0  0  0  0  0  0  0  0  0
   39.7685   25.8280   34.1008 H   0  0  0  0  0  0  0  0  0  0  0  0
   39.4960   26.4138   29.9687 H   0  0  0  0  0  0  0  0  0  0  0  0
   35.6997   29.1490   30.4448 H   0  0  0  0  0  0  0  0  0  0  0  0
   34.3722   29.9241   32.3840 H   0  0  0  0  0  0  0  0  0  0  0  0
   34.9917   29.2344   34.6858 H   0  0  0  0  0  0  0  0  0  0  0  0
   36.9511   27.7604   35.0358 H   0  0  0  0  0  0  0  0  0  0  0  0
   39.0817   22.3815   39.2521 H   0  0  0  0  0  0  0  0  0  0  0  0
   37.6910   24.4253   39.8285 H   0  0  0  0  0  0  0  0  0  0  0  0
   40.4162   21.7334   35.8709 H   0  0  0  0  0  0  0  0  0  0  0  0
   40.2716   21.1648   37.5557 H   0  0  0  0  0  0  0  0  0  0  0  0
  1  2  1  0
  1 18  1  0
  3  1  1  0
  3  2  1  0
  4  3  1  0
  5  4  2  0
  6  5  1  0
  7  6  2  0
  7  8  1  0
  8 13  2  0
  9  8  1  0
  9 10  2  0
 10 11  1  0
 11 12  2  0
 13  4  1  0
 13 12  1  0
 14 15  2  0
 15 16  1  0
 17 16  2  0
 18 17  1  0
 19 18  2  0
 19 14  1  0
 20 14  1  0
  1 21  1  6
  2 22  1  0
  2 23  1  0
  3 24  1  6
  6 25  1  0
  9 26  1  0
 10 27  1  0
 11 28  1  0
 12 29  1  0
 15 30  1  0
 16 31  1  0
 20 32  1  0
 20 33  1  0
M  ISO  8  21  13  22  13  23  13  24  13  25  14  26  14  27  14  28  14
M  ISO  3  29  14  30  14  31  14
M  END
>  <minimizedAffinity>  (1) 
-5.78702497

>  <minimizedRMSD>  (1) 
2.59367466

$$$$
