
     RDKit          3D

 33 35  0  0  1  0  0  0  0  0999 V2000
   38.3390   25.3480   35.1480 C   0  0  1  0  0  0  0  0  0  0  0  0
   39.5210   26.2370   34.6970 C   0  0  0  0  0  0  0  0  0  0  0  0
   39.1490   24.9930   33.9770 C   0  0  2  0  0  0  0  0  0  0  0  0
   39.5810   22.9150   37.5930 C   0  0  0  0  0  0  0  0  0  0  0  0
   38.9070   23.2530   38.7790 C   0  0  0  0  0  0  0  0  0  0  0  0
   38.0220   24.3470   38.7200 C   0  0  0  0  0  0  0  0  0  0  0  0
   37.8750   24.9950   37.5440 N   0  0  0  0  0  0  0  0  0  0  0  0
   38.5420   24.6330   36.4450 C   0  0  0  0  0  0  0  0  0  0  0  0
   39.4050   23.5900   36.4470 N   0  0  0  0  0  0  0  0  0  0  0  0
   40.4690   21.7930   37.6570 N   0  0  0  0  0  0  0  0  0  0  0  0
   38.6440   25.0340   32.6260 N   0  0  0  0  0  0  0  0  0  0  0  0
   37.4480   25.8360   32.5350 C   0  0  0  0  0  0  0  0  0  0  0  0
   36.3330   25.2030   31.7750 C   0  0  0  0  0  0  0  0  0  0  0  0
   36.7470   24.6350   30.5180 N   0  0  0  0  0  0  0  0  0  0  0  0
   37.9800   23.8790   30.6470 C   0  0  0  0  0  0  0  0  0  0  0  0
   38.3520   23.7140   32.1060 C   0  0  0  0  0  0  0  0  0  0  0  0
   37.2569   25.4562   35.3134 H   0  0  0  0  0  0  0  0  0  0  0  0
   39.3344   27.2203   34.2406 H   0  0  0  0  0  0  0  0  0  0  0  0
   40.4328   26.6364   35.1651 H   0  0  0  0  0  0  0  0  0  0  0  0
   39.6872   24.0774   33.6906 H   0  0  0  0  0  0  0  0  0  0  0  0
   39.0635   22.6891   39.7104 H   0  0  0  0  0  0  0  0  0  0  0  0
   37.4629   24.6666   39.6118 H   0  0  0  0  0  0  0  0  0  0  0  0
   40.9897   21.4998   36.8180 H   0  0  0  0  0  0  0  0  0  0  0  0
   40.5869   21.2794   38.5420 H   0  0  0  0  0  0  0  0  0  0  0  0
   37.0941   26.0414   33.5561 H   0  0  0  0  0  0  0  0  0  0  0  0
   37.7243   26.7464   31.9829 H   0  0  0  0  0  0  0  0  0  0  0  0
   35.8999   24.4029   32.3933 H   0  0  0  0  0  0  0  0  0  0  0  0
   35.6039   25.9949   31.5488 H   0  0  0  0  0  0  0  0  0  0  0  0
   36.8924   25.3966   29.8399 H   0  0  0  0  0  0  0  0  0  0  0  0
   37.8447   22.8860   30.1936 H   0  0  0  0  0  0  0  0  0  0  0  0
   38.7863   24.4239   30.1341 H   0  0  0  0  0  0  0  0  0  0  0  0
   37.5134   23.2676   32.6605 H   0  0  0  0  0  0  0  0  0  0  0  0
   39.2227   23.0505   32.2141 H   0  0  0  0  0  0  0  0  0  0  0  0
  1  8  1  0
  2  1  1  0
  3  2  1  0
  3  1  1  0
  4 10  1  0
  4  5  2  0
  6  5  1  0
  7  6  2  0
  8  9  2  0
  8  7  1  0
  9  4  1  0
 11  3  1  0
 12 11  1  0
 13 12  1  0
 14 15  1  0
 14 13  1  0
 15 16  1  0
 16 11  1  0
  1 17  1  6
  2 18  1  0
  2 19  1  0
  3 20  1  1
  5 21  1  0
  6 22  1  0
 10 23  1  0
 10 24  1  0
 12 25  1  0
 12 26  1  0
 13 27  1  0
 13 28  1  0
 14 29  1  0
 15 30  1  0
 15 31  1  0
 16 32  1  0
 16 33  1  0
M  ISO  8  17  13  18  13  19  13  20  13  21  14  22  14  25  13  26  13
M  ISO  7  27  13  28  13  29   5  30  13  31  13  32  13  33  13
M  END
>  <minimizedAffinity>  (1) 
-4.79300117

>  <minimizedRMSD>  (1) 
1.85160172

$$$$
