
     RDKit          3D

 32 34  0  0  1  0  0  0  0  0999 V2000
   38.1180   24.9700   35.0100 C   0  0  1  0  0  0  0  0  0  0  0  0
   39.3330   25.6230   34.3130 C   0  0  0  0  0  0  0  0  0  0  0  0
   38.7240   24.3710   33.8140 C   0  0  2  0  0  0  0  0  0  0  0  0
   39.5940   22.8260   37.6260 C   0  0  0  0  0  0  0  0  0  0  0  0
   38.9760   23.2920   38.8150 C   0  0  0  0  0  0  0  0  0  0  0  0
   38.0560   24.3520   38.6810 C   0  0  0  0  0  0  0  0  0  0  0  0
   37.8140   24.8670   37.4540 N   0  0  0  0  0  0  0  0  0  0  0  0
   38.4260   24.3920   36.3590 C   0  0  0  0  0  0  0  0  0  0  0  0
   39.3210   23.3680   36.4430 N   0  0  0  0  0  0  0  0  0  0  0  0
   40.5160   21.7550   37.7510 N   0  0  0  0  0  0  0  0  0  0  0  0
   38.0270   24.2620   32.5670 N   0  0  0  0  0  0  0  0  0  0  0  0
   37.1000   23.1950   32.4470 C   0  0  0  0  0  0  0  0  0  0  0  0
   36.4450   23.3510   31.0690 C   0  0  0  0  0  0  0  0  0  0  0  0
   35.6560   24.4730   31.0290 O   0  0  0  0  0  0  0  0  0  0  0  0
   36.2160   25.5890   31.5990 C   0  0  0  0  0  0  0  0  0  0  0  0
   37.6970   25.4580   31.8950 C   0  0  0  0  0  0  0  0  0  0  0  0
   37.0867   25.2423   35.2787 H   0  0  0  0  0  0  0  0  0  0  0  0
   39.2130   26.5612   33.7514 H   0  0  0  0  0  0  0  0  0  0  0  0
   40.3399   25.9436   34.6188 H   0  0  0  0  0  0  0  0  0  0  0  0
   39.1346   23.3784   33.5769 H   0  0  0  0  0  0  0  0  0  0  0  0
   39.2038   22.8474   39.7950 H   0  0  0  0  0  0  0  0  0  0  0  0
   37.5406   24.7558   39.5649 H   0  0  0  0  0  0  0  0  0  0  0  0
   40.9896   21.3830   36.9154 H   0  0  0  0  0  0  0  0  0  0  0  0
   40.7118   21.3495   38.6773 H   0  0  0  0  0  0  0  0  0  0  0  0
   37.6203   22.2282   32.5147 H   0  0  0  0  0  0  0  0  0  0  0  0
   36.3512   23.2217   33.2524 H   0  0  0  0  0  0  0  0  0  0  0  0
   37.2306   23.4350   30.3037 H   0  0  0  0  0  0  0  0  0  0  0  0
   35.8153   22.4700   30.8760 H   0  0  0  0  0  0  0  0  0  0  0  0
   36.0751   26.4356   30.9109 H   0  0  0  0  0  0  0  0  0  0  0  0
   35.7121   25.7374   32.5654 H   0  0  0  0  0  0  0  0  0  0  0  0
   38.2475   25.4872   30.9431 H   0  0  0  0  0  0  0  0  0  0  0  0
   37.9723   26.2915   32.5580 H   0  0  0  0  0  0  0  0  0  0  0  0
  1  8  1  0
  2  1  1  0
  3  2  1  0
  3  1  1  0
  4 10  1  0
  4  5  2  0
  6  5  1  0
  7  6  2  0
  8  9  2  0
  8  7  1  0
  9  4  1  0
 11  3  1  0
 12 11  1  0
 13 12  1  0
 14 13  1  0
 14 15  1  0
 15 16  1  0
 16 11  1  0
  1 17  1  6
  2 18  1  0
  2 19  1  0
  3 20  1  1
  5 21  1  0
  6 22  1  0
 10 23  1  0
 10 24  1  0
 12 25  1  0
 12 26  1  0
 13 27  1  0
 13 28  1  0
 15 29  1  0
 15 30  1  0
 16 31  1  0
 16 32  1  0
M  ISO  8  17  13  18  13  19  13  20  13  21  14  22  14  25  13  26  13
M  ISO  6  27  13  28  13  29  13  30  13  31  13  32  13
M  END
>  <minimizedAffinity>  (1) 
-4.70321035

>  <minimizedRMSD>  (1) 
2.19867969

$$$$
