
     RDKit          3D

 22 23  0  0  1  0  0  0  0  0999 V2000
   39.5940   22.9530   37.5400 C   0  0  0  0  0  0  0  0  0  0  0  0
   38.7150   23.1480   38.6120 C   0  0  0  0  0  0  0  0  0  0  0  0
   37.8470   24.2440   38.5540 C   0  0  0  0  0  0  0  0  0  0  0  0
   37.9050   25.0490   37.4700 N   0  0  0  0  0  0  0  0  0  0  0  0
   38.7650   24.8250   36.4650 C   0  0  0  0  0  0  0  0  0  0  0  0
   39.6130   23.7850   36.4850 N   0  0  0  0  0  0  0  0  0  0  0  0
   38.7880   25.7150   35.2610 C   0  0  1  0  0  0  0  0  0  0  0  0
   38.7220   27.2270   35.5770 C   0  0  0  0  0  0  0  0  0  0  0  0
   39.9350   26.5910   35.0080 C   0  0  2  0  0  0  0  0  0  0  0  0
   40.3590   26.8500   33.5910 C   0  0  0  0  0  0  0  0  0  0  0  0
   40.7230   25.7160   32.9190 F   0  0  0  0  0  0  0  0  0  0  0  0
   39.3800   27.4900   32.8650 F   0  0  0  0  0  0  0  0  0  0  0  0
   41.4540   27.6910   33.6490 F   0  0  0  0  0  0  0  0  0  0  0  0
   40.4430   21.8210   37.6310 N   0  0  0  0  0  0  0  0  0  0  0  0
   38.7069   22.4620   39.4719 H   0  0  0  0  0  0  0  0  0  0  0  0
   37.1363   24.4450   39.3691 H   0  0  0  0  0  0  0  0  0  0  0  0
   38.2489   24.9850   34.6393 H   0  0  0  0  0  0  0  0  0  0  0  0
   38.1047   27.8973   34.9609 H   0  0  0  0  0  0  0  0  0  0  0  0
   38.4917   27.8406   36.4604 H   0  0  0  0  0  0  0  0  0  0  0  0
   40.9904   26.5882   35.3181 H   0  0  0  0  0  0  0  0  0  0  0  0
   41.1141   21.6186   36.8763 H   0  0  0  0  0  0  0  0  0  0  0  0
   40.3886   21.2011   38.4518 H   0  0  0  0  0  0  0  0  0  0  0  0
  1 14  1  0
  1  2  2  0
  3  2  1  0
  4  3  2  0
  5  6  2  0
  5  4  1  0
  6  1  1  0
  7  8  1  0
  7  5  1  0
  9  7  1  0
  9  8  1  0
 10 13  1  0
 10  9  1  0
 11 10  1  0
 12 10  1  0
  2 15  1  0
  3 16  1  0
  7 17  1  6
  8 18  1  0
  8 19  1  0
  9 20  1  1
 14 21  1  0
 14 22  1  0
M  ISO  6  15  14  16  14  17  13  18  13  19  13  20  13
M  END
>  <minimizedAffinity>  (1) 
-4.68511629

>  <minimizedRMSD>  (1) 
2.20963025

$$$$
