
     RDKit          3D

 29 31  0  0  1  0  0  0  0  0999 V2000
   38.4080   24.8800   34.8100 C   0  0  1  0  0  0  0  0  0  0  0  0
   39.0200   26.2750   34.5670 C   0  0  0  0  0  0  0  0  0  0  0  0
   39.5700   25.0640   33.9300 C   0  0  2  0  0  0  0  0  0  0  0  0
   39.2980   24.7340   32.5410 N   0  0  0  0  0  0  0  0  0  0  0  0
   38.0720   24.5290   32.0140 C   0  0  0  0  0  0  0  0  0  0  0  0
   37.9610   24.2230   30.6790 C   0  0  0  0  0  0  0  0  0  0  0  0
   39.0650   24.1230   29.8750 C   0  0  0  0  0  0  0  0  0  0  0  0
   39.0620   23.8480   28.6460 O   0  0  0  0  0  0  0  0  0  0  0  0
   40.2780   24.3320   30.4190 N   0  0  0  0  0  0  0  0  0  0  0  0
   40.3770   24.6290   31.7180 C   0  0  0  0  0  0  0  0  0  0  0  0
   41.5450   24.8180   32.1900 O   0  0  0  0  0  0  0  0  0  0  0  0
   39.6530   22.8260   37.5740 C   0  0  0  0  0  0  0  0  0  0  0  0
   38.8810   23.2630   38.6840 C   0  0  0  0  0  0  0  0  0  0  0  0
   37.9400   24.2860   38.4560 C   0  0  0  0  0  0  0  0  0  0  0  0
   37.8280   24.7880   37.1890 N   0  0  0  0  0  0  0  0  0  0  0  0
   38.5810   24.3370   36.1900 C   0  0  0  0  0  0  0  0  0  0  0  0
   39.4920   23.3660   36.3550 N   0  0  0  0  0  0  0  0  0  0  0  0
   40.5820   21.7850   37.8290 N   0  0  0  0  0  0  0  0  0  0  0  0
   37.4348   24.3829   34.6847 H   0  0  0  0  0  0  0  0  0  0  0  0
   38.4793   27.0211   33.9662 H   0  0  0  0  0  0  0  0  0  0  0  0
   39.4173   27.0824   35.1997 H   0  0  0  0  0  0  0  0  0  0  0  0
   40.6078   24.7038   33.8722 H   0  0  0  0  0  0  0  0  0  0  0  0
   37.1741   24.6059   32.6448 H   0  0  0  0  0  0  0  0  0  0  0  0
   36.9636   24.0547   30.2467 H   0  0  0  0  0  0  0  0  0  0  0  0
   41.1253   24.2634   29.8373 H   0  0  0  0  0  0  0  0  0  0  0  0
   39.0130   22.8198   39.6821 H   0  0  0  0  0  0  0  0  0  0  0  0
   37.3130   24.6702   39.2740 H   0  0  0  0  0  0  0  0  0  0  0  0
   41.1721   21.4231   37.0663 H   0  0  0  0  0  0  0  0  0  0  0  0
   40.6665   21.3909   38.7769 H   0  0  0  0  0  0  0  0  0  0  0  0
  1 16  1  0
  2  1  1  0
  3  2  1  0
  3  1  1  0
  4  3  1  0
  5  4  1  0
  6  5  2  0
  7  9  1  0
  7  6  1  0
  8  7  2  0
  9 10  1  0
 10 11  2  0
 10  4  1  0
 12 18  1  0
 12 13  2  0
 14 13  1  0
 15 14  2  0
 16 17  2  0
 16 15  1  0
 17 12  1  0
  1 19  1  6
  2 20  1  0
  2 21  1  0
  3 22  1  1
  5 23  1  0
  6 24  1  0
  9 25  1  0
 13 26  1  0
 14 27  1  0
 18 28  1  0
 18 29  1  0
M  ISO  8  19  13  20  13  21  13  22  13  23  14  24  14  25   9  26  14
M  ISO  1  27  14
M  END
>  <minimizedAffinity>  (1) 
-4.66165209

>  <minimizedRMSD>  (1) 
1.58744693

$$$$
