
     RDKit          3D

 29 31  0  0  1  0  0  0  0  0999 V2000
   38.4170   24.7010   34.7030 C   0  0  1  0  0  0  0  0  0  0  0  0
   38.8590   26.1520   34.4250 C   0  0  0  0  0  0  0  0  0  0  0  0
   39.5710   25.0070   33.8470 C   0  0  1  0  0  0  0  0  0  0  0  0
   40.9730   24.7070   34.2000 C   0  0  0  0  0  0  0  0  0  0  0  0
   41.6580   23.5300   33.8920 C   0  0  0  0  0  0  0  0  0  0  0  0
   42.9710   23.3030   34.2370 C   0  0  0  0  0  0  0  0  0  0  0  0
   43.6830   24.2610   34.9250 C   0  0  0  0  0  0  0  0  0  0  0  0
   43.0670   25.4460   35.2600 C   0  0  0  0  0  0  0  0  0  0  0  0
   41.7530   25.6140   34.8870 C   0  0  0  0  0  0  0  0  0  0  0  0
   39.6520   22.7750   37.5560 C   0  0  0  0  0  0  0  0  0  0  0  0
   38.9220   23.3010   38.6520 C   0  0  0  0  0  0  0  0  0  0  0  0
   38.0030   24.3350   38.3840 C   0  0  0  0  0  0  0  0  0  0  0  0
   37.8690   24.7660   37.1090 N   0  0  0  0  0  0  0  0  0  0  0  0
   38.5740   24.2450   36.1040 C   0  0  0  0  0  0  0  0  0  0  0  0
   39.4510   23.2630   36.3370 N   0  0  0  0  0  0  0  0  0  0  0  0
   40.5650   21.7280   37.8440 N   0  0  0  0  0  0  0  0  0  0  0  0
   37.5289   24.0667   34.5654 H   0  0  0  0  0  0  0  0  0  0  0  0
   38.2473   26.8050   33.7851 H   0  0  0  0  0  0  0  0  0  0  0  0
   39.1347   27.0222   35.0387 H   0  0  0  0  0  0  0  0  0  0  0  0
   39.8408   24.6973   32.8266 H   0  0  0  0  0  0  0  0  0  0  0  0
   41.1197   22.7422   33.3445 H   0  0  0  0  0  0  0  0  0  0  0  0
   43.4535   22.3534   33.9624 H   0  0  0  0  0  0  0  0  0  0  0  0
   44.7318   24.0812   35.2036 H   0  0  0  0  0  0  0  0  0  0  0  0
   43.6072   26.2323   35.8076 H   0  0  0  0  0  0  0  0  0  0  0  0
   41.2773   26.5663   35.1643 H   0  0  0  0  0  0  0  0  0  0  0  0
   39.0676   22.9166   39.6723 H   0  0  0  0  0  0  0  0  0  0  0  0
   37.4077   24.7818   39.1939 H   0  0  0  0  0  0  0  0  0  0  0  0
   41.1223   21.3078   37.0866 H   0  0  0  0  0  0  0  0  0  0  0  0
   40.6705   21.3881   38.8105 H   0  0  0  0  0  0  0  0  0  0  0  0
  1 14  1  0
  2  1  1  0
  3  4  1  0
  3  2  1  0
  3  1  1  0
  4  9  1  0
  5  4  2  0
  5  6  1  0
  6  7  2  0
  7  8  1  0
  9  8  2  0
 10 16  1  0
 10 11  2  0
 12 11  1  0
 13 12  2  0
 14 15  2  0
 14 13  1  0
 15 10  1  0
  1 17  1  6
  2 18  1  0
  2 19  1  0
  3 20  1  6
  5 21  1  0
  6 22  1  0
  7 23  1  0
  8 24  1  0
  9 25  1  0
 11 26  1  0
 12 27  1  0
 16 28  1  0
 16 29  1  0
M  ISO  8  17  13  18  13  19  13  20  13  21  14  22  14  23  14  24  14
M  ISO  3  25  14  26  14  27  14
M  END
>  <minimizedAffinity>  (1) 
-4.52963352

>  <minimizedRMSD>  (1) 
1.17638409

$$$$
