
     RDKit          3D

 30 32  0  0  0  0  0  0  0  0999 V2000
   39.0470   26.2960   34.8440 C   0  0  0  0  0  0  0  0  0  0  0  0
   38.1550   27.1020   33.9710 C   0  0  0  0  0  0  0  0  0  0  0  0
   36.9950   27.6470   34.4600 C   0  0  0  0  0  0  0  0  0  0  0  0
   36.1050   28.4160   33.7030 C   0  0  0  0  0  0  0  0  0  0  0  0
   36.4330   28.6210   32.4080 N   0  0  0  0  0  0  0  0  0  0  0  0
   37.5770   28.0910   31.9050 C   0  0  0  0  0  0  0  0  0  0  0  0
   38.4050   27.3530   32.6820 N   0  0  0  0  0  0  0  0  0  0  0  0
   37.8880   28.3460   30.4800 C   0  0  0  0  0  0  0  0  0  0  0  0
   38.9960   27.5630   30.0760 C   0  0  0  0  0  0  0  0  0  0  0  0
   39.2300   28.0130   28.2890 S   0  0  0  0  0  0  0  0  0  0  0  0
   37.7380   29.2160   28.4260 C   0  0  0  0  0  0  0  0  0  0  0  0
   37.4170   29.0970   29.4980 N   0  0  0  0  0  0  0  0  0  0  0  0
   38.7450   24.8330   34.8000 C   0  0  0  0  0  0  0  0  0  0  0  0
   39.7610   22.8240   37.7820 C   0  0  0  0  0  0  0  0  0  0  0  0
   38.8650   23.2880   38.7620 C   0  0  0  0  0  0  0  0  0  0  0  0
   37.9350   24.2740   38.3830 C   0  0  0  0  0  0  0  0  0  0  0  0
   37.9520   24.7270   37.0900 N   0  0  0  0  0  0  0  0  0  0  0  0
   38.8390   24.2440   36.1880 C   0  0  0  0  0  0  0  0  0  0  0  0
   39.7250   23.3130   36.5260 N   0  0  0  0  0  0  0  0  0  0  0  0
   40.0866   26.4488   34.5185 H   0  0  0  0  0  0  0  0  0  0  0  0
   38.8854   26.6332   35.8785 H   0  0  0  0  0  0  0  0  0  0  0  0
   36.7485   27.4675   35.5169 H   0  0  0  0  0  0  0  0  0  0  0  0
   35.1852   28.8326   34.1394 H   0  0  0  0  0  0  0  0  0  0  0  0
   39.5816   26.8538   30.6793 H   0  0  0  0  0  0  0  0  0  0  0  0
   37.3045   29.8619   27.6482 H   0  0  0  0  0  0  0  0  0  0  0  0
   37.7281   24.6826   34.4086 H   0  0  0  0  0  0  0  0  0  0  0  0
   39.4744   24.3333   34.1456 H   0  0  0  0  0  0  0  0  0  0  0  0
   40.5003   22.0526   38.0436 H   0  0  0  0  0  0  0  0  0  0  0  0
   38.8903   22.8940   39.7887 H   0  0  0  0  0  0  0  0  0  0  0  0
   37.2106   24.6721   39.1087 H   0  0  0  0  0  0  0  0  0  0  0  0
  2  3  2  0
  2  1  1  0
  4  3  1  0
  5  4  2  0
  6  5  1  0
  6  7  2  0
  7  2  1  0
  8  6  1  0
  9  8  2  0
 10 11  1  0
 10  9  1  0
 11 12  2  0
 12  8  1  0
 13  1  1  0
 13 18  1  0
 14 15  2  0
 16 15  1  0
 17 16  2  0
 18 19  2  0
 18 17  1  0
 19 14  1  0
  1 20  1  0
  1 21  1  0
  3 22  1  0
  4 23  1  0
  9 24  1  0
 11 25  1  0
 13 26  1  0
 13 27  1  0
 14 28  1  0
 15 29  1  0
 16 30  1  0
M  ISO  8  20   8  21   8  22  14  23  14  24  14  25  14  26   8  27   8
M  ISO  3  28  14  29  14  30  14
M  END
>  <minimizedAffinity>  (1) 
-4.64766073

>  <minimizedRMSD>  (1) 
0.818311274

$$$$
