
     RDKit          3D

 24 26  0  0  1  0  0  0  0  0999 V2000
   38.1620   24.7440   34.7960 C   0  0  1  0  0  0  0  0  0  0  0  0
   39.2310   25.7110   34.2440 C   0  0  0  0  0  0  0  0  0  0  0  0
   39.0410   24.3410   33.6920 C   0  0  2  0  0  0  0  0  0  0  0  0
   39.6050   22.8130   37.5740 C   0  0  0  0  0  0  0  0  0  0  0  0
   38.9290   23.2970   38.7090 C   0  0  0  0  0  0  0  0  0  0  0  0
   37.9740   24.3090   38.4860 C   0  0  0  0  0  0  0  0  0  0  0  0
   37.7600   24.7510   37.2280 N   0  0  0  0  0  0  0  0  0  0  0  0
   38.4410   24.2450   36.1810 C   0  0  0  0  0  0  0  0  0  0  0  0
   39.3740   23.2670   36.3530 N   0  0  0  0  0  0  0  0  0  0  0  0
   40.5630   21.7780   37.8110 N   0  0  0  0  0  0  0  0  0  0  0  0
   38.5180   24.2080   32.3020 C   0  0  0  0  0  0  0  0  0  0  0  0
   37.2490   24.4550   31.8770 N   0  0  0  0  0  0  0  0  0  0  0  0
   37.1480   24.2340   30.6010 O   0  0  0  0  0  0  0  0  0  0  0  0
   38.3100   23.8400   30.1220 C   0  0  0  0  0  0  0  0  0  0  0  0
   39.1440   23.8250   31.1680 N   0  0  0  0  0  0  0  0  0  0  0  0
   37.0707   24.7301   34.9330 H   0  0  0  0  0  0  0  0  0  0  0  0
   38.9332   26.5928   33.6577 H   0  0  0  0  0  0  0  0  0  0  0  0
   40.0705   26.2842   34.6643 H   0  0  0  0  0  0  0  0  0  0  0  0
   39.6913   23.4667   33.5412 H   0  0  0  0  0  0  0  0  0  0  0  0
   39.1349   22.9064   39.7165 H   0  0  0  0  0  0  0  0  0  0  0  0
   37.4086   24.7346   39.3281 H   0  0  0  0  0  0  0  0  0  0  0  0
   41.0941   21.3779   37.0244 H   0  0  0  0  0  0  0  0  0  0  0  0
   40.7219   21.4327   38.7683 H   0  0  0  0  0  0  0  0  0  0  0  0
   38.5455   23.5781   29.0799 H   0  0  0  0  0  0  0  0  0  0  0  0
  1  8  1  0
  2  1  1  0
  3  2  1  0
  3  1  1  0
  4 10  1  0
  4  5  2  0
  6  5  1  0
  7  6  2  0
  8  9  2  0
  8  7  1  0
  9  4  1  0
 11  3  1  0
 12 11  2  0
 13 12  1  0
 14 13  1  0
 14 15  2  0
 15 11  1  0
  1 16  1  6
  2 17  1  0
  2 18  1  0
  3 19  1  1
  5 20  1  0
  6 21  1  0
 10 22  1  0
 10 23  1  0
 14 24  1  0
M  ISO  7  16  13  17  13  18  13  19  13  20  14  21  14  24  14
M  END
>  <minimizedAffinity>  (1) 
-4.35885525

>  <minimizedRMSD>  (1) 
0.450692087

$$$$
