
     RDKit          3D

 26 28  0  0  1  0  0  0  0  0999 V2000
   38.2060   24.3140   34.5640 C   0  0  1  0  0  0  0  0  0  0  0  0
   38.4940   25.7610   34.1300 C   0  0  0  0  0  0  0  0  0  0  0  0
   39.3160   24.6250   33.6540 C   0  0  1  0  0  0  0  0  0  0  0  0
   39.6170   22.7290   37.5440 C   0  0  0  0  0  0  0  0  0  0  0  0
   38.9270   23.3560   38.6060 C   0  0  0  0  0  0  0  0  0  0  0  0
   37.9720   24.3380   38.2830 C   0  0  0  0  0  0  0  0  0  0  0  0
   37.7760   24.6180   36.9730 N   0  0  0  0  0  0  0  0  0  0  0  0
   38.4480   24.0060   36.0020 C   0  0  0  0  0  0  0  0  0  0  0  0
   39.3610   23.0680   36.2850 N   0  0  0  0  0  0  0  0  0  0  0  0
   40.5650   21.7370   37.9050 N   0  0  0  0  0  0  0  0  0  0  0  0
   40.7290   24.7130   34.0620 C   0  0  0  0  0  0  0  0  0  0  0  0
   41.3870   25.7120   34.7190 C   0  0  0  0  0  0  0  0  0  0  0  0
   42.7110   25.6150   35.0250 C   0  0  0  0  0  0  0  0  0  0  0  0
   43.3300   24.3570   34.5840 C   0  0  0  0  0  0  0  0  0  0  0  0
   41.9070   23.4500   33.7680 S   0  0  0  0  0  0  0  0  0  0  0  0
   37.3710   23.5995   34.5164 H   0  0  0  0  0  0  0  0  0  0  0  0
   37.8118   26.2798   33.4404 H   0  0  0  0  0  0  0  0  0  0  0  0
   38.6885   26.7141   34.6435 H   0  0  0  0  0  0  0  0  0  0  0  0
   39.5907   24.1448   32.7032 H   0  0  0  0  0  0  0  0  0  0  0  0
   39.1300   23.0849   39.6526 H   0  0  0  0  0  0  0  0  0  0  0  0
   37.4046   24.8599   39.0676 H   0  0  0  0  0  0  0  0  0  0  0  0
   41.0991   21.2450   37.1745 H   0  0  0  0  0  0  0  0  0  0  0  0
   40.7190   21.5088   38.8975 H   0  0  0  0  0  0  0  0  0  0  0  0
   40.8346   26.6180   35.0087 H   0  0  0  0  0  0  0  0  0  0  0  0
   43.2653   26.4049   35.5531 H   0  0  0  0  0  0  0  0  0  0  0  0
   44.3729   24.0283   34.7035 H   0  0  0  0  0  0  0  0  0  0  0  0
  1  8  1  0
  2  1  1  0
  3 11  1  0
  3  2  1  0
  3  1  1  0
  4 10  1  0
  4  5  2  0
  6  5  1  0
  7  6  2  0
  8  9  2  0
  8  7  1  0
  9  4  1  0
 11 12  2  0
 12 13  1  0
 14 13  2  0
 15 11  1  0
 15 14  1  0
  1 16  1  6
  2 17  1  0
  2 18  1  0
  3 19  1  6
  5 20  1  0
  6 21  1  0
 10 22  1  0
 10 23  1  0
 12 24  1  0
 13 25  1  0
 14 26  1  0
M  ISO  8  16  13  17  13  18  13  19  13  20  14  21  14  24  14  25  14
M  ISO  1  26  14
M  END
>  <minimizedAffinity>  (1) 
-4.31930637

>  <minimizedRMSD>  (1) 
1.12397146

$$$$
