
     RDKit          3D

 31 32  0  0  1  0  0  0  0  0999 V2000
   39.6260   22.9070   37.5660 C   0  0  0  0  0  0  0  0  0  0  0  0
   38.7350   23.1890   38.6290 C   0  0  0  0  0  0  0  0  0  0  0  0
   37.8760   24.2830   38.4730 C   0  0  0  0  0  0  0  0  0  0  0  0
   37.9470   25.0010   37.3180 N   0  0  0  0  0  0  0  0  0  0  0  0
   38.8010   24.6940   36.3490 C   0  0  0  0  0  0  0  0  0  0  0  0
   39.6540   23.6390   36.4620 N   0  0  0  0  0  0  0  0  0  0  0  0
   38.8380   25.4760   35.0760 C   0  0  1  0  0  0  0  0  0  0  0  0
   39.2970   26.9380   35.2010 C   0  0  0  0  0  0  0  0  0  0  0  0
   40.1260   25.9190   34.5250 C   0  0  2  0  0  0  0  0  0  0  0  0
   40.4230   25.8750   33.0730 C   0  0  0  0  0  0  0  0  0  0  0  0
   41.5450   24.8830   32.8570 C   0  0  0  0  0  0  0  0  0  0  0  0
   40.9490   27.2460   32.6400 C   0  0  0  0  0  0  0  0  0  0  0  0
   39.2620   25.5680   32.1710 C   0  0  0  0  0  0  0  0  0  0  0  0
   40.4910   21.7760   37.7300 N   0  0  0  0  0  0  0  0  0  0  0  0
   38.7183   22.5735   39.5405 H   0  0  0  0  0  0  0  0  0  0  0  0
   37.1615   24.5560   39.2635 H   0  0  0  0  0  0  0  0  0  0  0  0
   37.9783   24.9311   34.6589 H   0  0  0  0  0  0  0  0  0  0  0  0
   38.8014   27.7269   34.6162 H   0  0  0  0  0  0  0  0  0  0  0  0
   39.4420   27.6502   36.0266 H   0  0  0  0  0  0  0  0  0  0  0  0
   41.1758   25.6148   34.6494 H   0  0  0  0  0  0  0  0  0  0  0  0
   41.9278   24.5446   33.8311 H   0  0  0  0  0  0  0  0  0  0  0  0
   41.1665   24.0188   32.2914 H   0  0  0  0  0  0  0  0  0  0  0  0
   42.3563   25.3645   32.2914 H   0  0  0  0  0  0  0  0  0  0  0  0
   41.1800   27.8482   33.5310 H   0  0  0  0  0  0  0  0  0  0  0  0
   41.8610   27.1157   32.0389 H   0  0  0  0  0  0  0  0  0  0  0  0
   40.1839   27.7591   32.0389 H   0  0  0  0  0  0  0  0  0  0  0  0
   38.3764   25.3338   32.7800 H   0  0  0  0  0  0  0  0  0  0  0  0
   39.0500   26.4410   31.5362 H   0  0  0  0  0  0  0  0  0  0  0  0
   39.5092   24.7044   31.5362 H   0  0  0  0  0  0  0  0  0  0  0  0
   41.1588   21.5263   36.9867 H   0  0  0  0  0  0  0  0  0  0  0  0
   40.4448   21.2129   38.5912 H   0  0  0  0  0  0  0  0  0  0  0  0
  1 14  1  0
  1  2  2  0
  3  2  1  0
  4  3  2  0
  5  6  2  0
  5  4  1  0
  6  1  1  0
  7  8  1  0
  7  5  1  0
  9  7  1  0
  9  8  1  0
 10  9  1  0
 11 10  1  0
 12 10  1  0
 13 10  1  0
  2 15  1  0
  3 16  1  0
  7 17  1  6
  8 18  1  0
  8 19  1  0
  9 20  1  1
 11 21  1  0
 11 22  1  0
 11 23  1  0
 12 24  1  0
 12 25  1  0
 12 26  1  0
 13 27  1  0
 13 28  1  0
 13 29  1  0
 14 30  1  0
 14 31  1  0
M  ISO  8  15  14  16  14  17  13  18  13  19  13  20  13  21   8  22   8
M  ISO  7  23   8  24   8  25   8  26   8  27   8  28   8  29   8
M  END
>  <minimizedAffinity>  (1) 
-4.30657005

>  <minimizedRMSD>  (1) 
1.60787594

$$$$
