
     RDKit          3D

 22 23  0  0  1  0  0  0  0  0999 V2000
   39.6120   22.9080   37.5600 C   0  0  0  0  0  0  0  0  0  0  0  0
   38.7710   23.2050   38.6620 C   0  0  0  0  0  0  0  0  0  0  0  0
   37.9000   24.3000   38.5220 C   0  0  0  0  0  0  0  0  0  0  0  0
   37.9040   25.0030   37.3680 N   0  0  0  0  0  0  0  0  0  0  0  0
   38.7220   24.6810   36.3510 C   0  0  0  0  0  0  0  0  0  0  0  0
   39.5790   23.6250   36.4530 N   0  0  0  0  0  0  0  0  0  0  0  0
   38.6930   25.4640   35.0760 C   0  0  1  0  0  0  0  0  0  0  0  0
   39.3700   26.8500   35.1670 C   0  0  0  0  0  0  0  0  0  0  0  0
   39.9490   25.7500   34.3740 C   0  0  2  0  0  0  0  0  0  0  0  0
   39.9300   25.7690   32.8850 C   0  0  0  0  0  0  0  0  0  0  0  0
   40.1770   26.7620   32.1430 O   0  0  0  0  0  0  0  0  0  0  0  0
   39.6250   24.6480   32.0990 O   0  0  0  0  0  0  0  0  0  0  0  0
   40.4790   21.7940   37.7110 N   0  0  0  0  0  0  0  0  0  0  0  0
   38.7986   22.6062   39.5844 H   0  0  0  0  0  0  0  0  0  0  0  0
   37.2232   24.5811   39.3424 H   0  0  0  0  0  0  0  0  0  0  0  0
   37.7267   25.0456   34.7580 H   0  0  0  0  0  0  0  0  0  0  0  0
   38.9225   27.7206   34.6651 H   0  0  0  0  0  0  0  0  0  0  0  0
   39.7184   27.5061   35.9782 H   0  0  0  0  0  0  0  0  0  0  0  0
   40.9532   25.3012   34.3609 H   0  0  0  0  0  0  0  0  0  0  0  0
   39.6279   24.7201   31.1116 H   0  0  0  0  0  0  0  0  0  0  0  0
   41.1141   21.5282   36.9449 H   0  0  0  0  0  0  0  0  0  0  0  0
   40.4729   21.2516   38.5866 H   0  0  0  0  0  0  0  0  0  0  0  0
  1 13  1  0
  1  2  2  0
  3  2  1  0
  4  3  2  0
  5  6  2  0
  5  4  1  0
  6  1  1  0
  7  8  1  0
  7  5  1  0
  9  7  1  0
  9  8  1  0
 10  9  1  0
 11 10  2  0
 12 10  1  0
  2 14  1  0
  3 15  1  0
  7 16  1  6
  8 17  1  0
  8 18  1  0
  9 19  1  6
 12 20  1  0
 13 21  1  0
 13 22  1  0
M  ISO  7  14  14  15  14  16  13  17  13  18  13  19  13  20   3
M  END
>  <minimizedAffinity>  (1) 
-4.01666307

>  <minimizedRMSD>  (1) 
1.22915244

$$$$
