
     RDKit          3D

 22 23  0  0  1  0  0  0  0  0999 V2000
   39.6960   22.8810   37.5530 C   0  0  0  0  0  0  0  0  0  0  0  0
   38.7430   23.2120   38.5400 C   0  0  0  0  0  0  0  0  0  0  0  0
   37.9070   24.3000   38.2720 C   0  0  0  0  0  0  0  0  0  0  0  0
   38.0510   24.9660   37.1060 N   0  0  0  0  0  0  0  0  0  0  0  0
   38.9740   24.6140   36.1980 C   0  0  0  0  0  0  0  0  0  0  0  0
   39.8000   23.5790   36.4080 N   0  0  0  0  0  0  0  0  0  0  0  0
   39.0890   25.3380   34.9010 C   0  0  1  0  0  0  0  0  0  0  0  0
   39.6780   26.7610   34.9920 C   0  0  0  0  0  0  0  0  0  0  0  0
   40.4100   25.6480   34.3440 C   0  0  2  0  0  0  0  0  0  0  0  0
   40.5700   25.5150   32.8680 C   0  0  0  0  0  0  0  0  0  0  0  0
   40.5250   21.7630   37.8290 N   0  0  0  0  0  0  0  0  0  0  0  0
   38.6618   22.6406   39.4764 H   0  0  0  0  0  0  0  0  0  0  0  0
   37.1429   24.6092   39.0004 H   0  0  0  0  0  0  0  0  0  0  0  0
   38.1899   24.8548   34.4909 H   0  0  0  0  0  0  0  0  0  0  0  0
   39.2568   27.5764   34.3856 H   0  0  0  0  0  0  0  0  0  0  0  0
   39.8864   27.4791   35.7988 H   0  0  0  0  0  0  0  0  0  0  0  0
   41.4400   25.2874   34.4824 H   0  0  0  0  0  0  0  0  0  0  0  0
   41.3991   24.8258   32.6497 H   0  0  0  0  0  0  0  0  0  0  0  0
   39.6404   25.1198   32.4325 H   0  0  0  0  0  0  0  0  0  0  0  0
   40.7886   26.5012   32.4325 H   0  0  0  0  0  0  0  0  0  0  0  0
   41.2401   21.4714   37.1475 H   0  0  0  0  0  0  0  0  0  0  0  0
   40.4117   21.2431   38.7109 H   0  0  0  0  0  0  0  0  0  0  0  0
  1 11  1  0
  1  2  2  0
  3  2  1  0
  4  3  2  0
  5  6  2  0
  5  4  1  0
  6  1  1  0
  7  8  1  0
  7  5  1  0
  9  7  1  0
  9  8  1  0
 10  9  1  0
  2 12  1  0
  3 13  1  0
  7 14  1  6
  8 15  1  0
  8 16  1  0
  9 17  1  1
 10 18  1  0
 10 19  1  0
 10 20  1  0
 11 21  1  0
 11 22  1  0
M  ISO  8  12  14  13  14  14  13  15  13  16  13  17  13  18   8  19   8
M  ISO  1  20   8
M  END
>  <minimizedAffinity>  (1) 
-4.01401567

>  <minimizedRMSD>  (1) 
1.00807774

$$$$
