
     RDKit          3D

 20 21  0  0  1  0  0  0  0  0999 V2000
   39.6720   22.8680   37.5870 C   0  0  0  0  0  0  0  0  0  0  0  0
   38.7920   23.2260   38.6410 C   0  0  0  0  0  0  0  0  0  0  0  0
   37.9200   24.2990   38.4120 C   0  0  0  0  0  0  0  0  0  0  0  0
   37.9690   24.9230   37.2150 N   0  0  0  0  0  0  0  0  0  0  0  0
   38.8140   24.5520   36.2510 C   0  0  0  0  0  0  0  0  0  0  0  0
   39.6700   23.5310   36.4180 N   0  0  0  0  0  0  0  0  0  0  0  0
   38.8260   25.2370   34.9250 C   0  0  1  0  0  0  0  0  0  0  0  0
   39.6270   26.5460   34.8550 C   0  0  0  0  0  0  0  0  0  0  0  0
   40.0530   25.3210   34.1290 C   0  0  2  0  0  0  0  0  0  0  0  0
   40.0610   25.2980   32.7430 O   0  0  0  0  0  0  0  0  0  0  0  0
   40.5380   21.7690   37.8280 N   0  0  0  0  0  0  0  0  0  0  0  0
   38.7941   22.6838   39.5981 H   0  0  0  0  0  0  0  0  0  0  0  0
   37.2125   24.6253   39.1886 H   0  0  0  0  0  0  0  0  0  0  0  0
   37.8048   24.8965   34.6986 H   0  0  0  0  0  0  0  0  0  0  0  0
   39.2314   27.4105   34.3017 H   0  0  0  0  0  0  0  0  0  0  0  0
   40.0847   27.2316   35.5834 H   0  0  0  0  0  0  0  0  0  0  0  0
   40.9662   24.7084   34.1029 H   0  0  0  0  0  0  0  0  0  0  0  0
   40.3695   24.4111   32.4295 H   0  0  0  0  0  0  0  0  0  0  0  0
   41.1985   21.4642   37.0988 H   0  0  0  0  0  0  0  0  0  0  0  0
   40.5058   21.2765   38.7321 H   0  0  0  0  0  0  0  0  0  0  0  0
  1 11  1  0
  1  2  2  0
  3  2  1  0
  4  3  2  0
  5  6  2  0
  5  4  1  0
  6  1  1  0
  7  5  1  0
  8  7  1  0
  9  8  1  0
  9  7  1  0
 10  9  1  0
  2 12  1  0
  3 13  1  0
  7 14  1  6
  8 15  1  0
  8 16  1  0
  9 17  1  1
 10 18  1  0
 11 19  1  0
 11 20  1  0
M  ISO  7  12  14  13  14  14  13  15  13  16  13  17  13  18   3
M  END
>  <minimizedAffinity>  (1) 
-3.95162654

>  <minimizedRMSD>  (1) 
0.714508414

$$$$
