
     RDKit          3D

 41 44  0  0  1  0  0  0  0  0999 V2000
   38.9880   25.1980   34.8880 C   0  0  1  0  0  0  0  0  0  0  0  0
   39.7500   26.5450   34.7800 C   0  0  0  0  0  0  0  0  0  0  0  0
   40.2170   25.3370   34.0810 C   0  0  1  0  0  0  0  0  0  0  0  0
   41.4870   24.7920   34.6260 C   0  0  0  0  0  0  0  0  0  0  0  0
   41.6750   23.4550   34.3670 C   0  0  0  0  0  0  0  0  0  0  0  0
   42.8130   22.7450   34.7690 C   0  0  0  0  0  0  0  0  0  0  0  0
   43.7750   23.3950   35.4450 N   0  0  0  0  0  0  0  0  0  0  0  0
   43.5870   24.7050   35.6980 C   0  0  0  0  0  0  0  0  0  0  0  0
   42.4960   25.3610   35.3050 N   0  0  0  0  0  0  0  0  0  0  0  0
   44.5550   25.4770   36.4100 N   0  0  0  0  0  0  0  0  0  0  0  0
   45.6390   26.1910   35.8050 C   0  0  0  0  0  0  0  0  0  0  0  0
   46.9340   26.0670   36.5640 C   0  0  0  0  0  0  0  0  0  0  0  0
   46.7570   25.9950   37.9870 N   0  0  0  0  0  0  0  0  0  0  0  0
   45.7660   25.0250   38.3880 C   0  0  0  0  0  0  0  0  0  0  0  0
   44.4460   25.5520   37.8560 C   0  0  0  0  0  0  0  0  0  0  0  0
   39.7640   22.8360   37.5580 C   0  0  0  0  0  0  0  0  0  0  0  0
   38.9640   23.2690   38.6300 C   0  0  0  0  0  0  0  0  0  0  0  0
   38.1480   24.4080   38.4210 C   0  0  0  0  0  0  0  0  0  0  0  0
   38.1990   24.9980   37.1940 N   0  0  0  0  0  0  0  0  0  0  0  0
   38.9690   24.5520   36.2170 C   0  0  0  0  0  0  0  0  0  0  0  0
   39.7550   23.4840   36.3630 N   0  0  0  0  0  0  0  0  0  0  0  0
   40.5630   21.6910   37.7880 N   0  0  0  0  0  0  0  0  0  0  0  0
   37.9869   24.7968   34.6716 H   0  0  0  0  0  0  0  0  0  0  0  0
   39.3182   27.3822   34.2119 H   0  0  0  0  0  0  0  0  0  0  0  0
   40.1871   27.2612   35.4914 H   0  0  0  0  0  0  0  0  0  0  0  0
   40.4384   25.0667   33.0380 H   0  0  0  0  0  0  0  0  0  0  0  0
   40.8911   22.9152   33.8156 H   0  0  0  0  0  0  0  0  0  0  0  0
   42.9174   21.6751   34.5357 H   0  0  0  0  0  0  0  0  0  0  0  0
   45.7913   25.7982   34.7889 H   0  0  0  0  0  0  0  0  0  0  0  0
   45.3649   27.2563   35.8020 H   0  0  0  0  0  0  0  0  0  0  0  0
   47.4477   25.1534   36.2300 H   0  0  0  0  0  0  0  0  0  0  0  0
   47.5204   26.9740   36.3555 H   0  0  0  0  0  0  0  0  0  0  0  0
   47.6577   25.7396   38.4165 H   0  0  0  0  0  0  0  0  0  0  0  0
   45.9917   24.0412   37.9507 H   0  0  0  0  0  0  0  0  0  0  0  0
   45.7427   24.8921   39.4797 H   0  0  0  0  0  0  0  0  0  0  0  0
   44.2898   26.5926   38.1766 H   0  0  0  0  0  0  0  0  0  0  0  0
   43.5918   24.9700   38.2324 H   0  0  0  0  0  0  0  0  0  0  0  0
   38.9714   22.7425   39.5958 H   0  0  0  0  0  0  0  0  0  0  0  0
   37.4990   24.8005   39.2177 H   0  0  0  0  0  0  0  0  0  0  0  0
   41.1697   21.3275   37.0392 H   0  0  0  0  0  0  0  0  0  0  0  0
   40.5379   21.2211   38.7042 H   0  0  0  0  0  0  0  0  0  0  0  0
  1 20  1  0
  2  1  1  0
  3  4  1  0
  3  2  1  0
  3  1  1  0
  4  9  1  0
  5  4  2  0
  5  6  1  0
  6  7  2  0
  7  8  1  0
  8 10  1  0
  9  8  2  0
 10 15  1  0
 11 10  1  0
 11 12  1  0
 12 13  1  0
 13 14  1  0
 15 14  1  0
 16 22  1  0
 16 17  2  0
 18 17  1  0
 19 18  2  0
 20 21  2  0
 20 19  1  0
 21 16  1  0
  1 23  1  6
  2 24  1  0
  2 25  1  0
  3 26  1  6
  5 27  1  0
  6 28  1  0
 11 29  1  0
 11 30  1  0
 12 31  1  0
 12 32  1  0
 13 33  1  0
 14 34  1  0
 14 35  1  0
 15 36  1  0
 15 37  1  0
 17 38  1  0
 18 39  1  0
 22 40  1  0
 22 41  1  0
M  ISO  8  23  13  24  13  25  13  26  13  27  14  28  14  29  13  30  13
M  ISO  8  31  13  32  13  33   5  34  13  35  13  36  13  37  13  38  14
M  ISO  1  39  14
M  END
>  <minimizedAffinity>  (1) 
-5.75243425

>  <minimizedRMSD>  (1) 
1.57280016

$$$$
