
     RDKit          3D

 42 45  0  0  1  0  0  0  0  0999 V2000
   38.3150   24.5750   34.7440 C   0  0  1  0  0  0  0  0  0  0  0  0
   38.9870   25.8990   34.2900 C   0  0  0  0  0  0  0  0  0  0  0  0
   39.3940   24.6010   33.7370 C   0  0  1  0  0  0  0  0  0  0  0  0
   40.7510   24.1700   34.1410 C   0  0  0  0  0  0  0  0  0  0  0  0
   41.0530   22.8690   33.8230 C   0  0  0  0  0  0  0  0  0  0  0  0
   42.2900   22.2720   34.0970 C   0  0  0  0  0  0  0  0  0  0  0  0
   43.2360   22.9910   34.6970 N   0  0  0  0  0  0  0  0  0  0  0  0
   42.9460   24.2820   35.0170 C   0  0  0  0  0  0  0  0  0  0  0  0
   41.7590   24.8240   34.7440 N   0  0  0  0  0  0  0  0  0  0  0  0
   43.9050   25.1040   35.6570 N   0  0  0  0  0  0  0  0  0  0  0  0
   44.6380   26.1520   34.9720 C   0  0  0  0  0  0  0  0  0  0  0  0
   45.8970   26.5260   35.6800 C   0  0  0  0  0  0  0  0  0  0  0  0
   46.5220   25.2800   36.2590 C   0  0  0  0  0  0  0  0  0  0  0  0
   45.6530   24.6460   37.3150 C   0  0  0  0  0  0  0  0  0  0  0  0
   44.1840   24.9010   37.0750 C   0  0  0  0  0  0  0  0  0  0  0  0
   39.6430   22.7520   37.6100 C   0  0  0  0  0  0  0  0  0  0  0  0
   38.9760   23.3320   38.7150 C   0  0  0  0  0  0  0  0  0  0  0  0
   38.0620   24.3740   38.4480 C   0  0  0  0  0  0  0  0  0  0  0  0
   37.8880   24.7440   37.1490 N   0  0  0  0  0  0  0  0  0  0  0  0
   38.5390   24.1680   36.1490 C   0  0  0  0  0  0  0  0  0  0  0  0
   39.4120   23.1810   36.3430 N   0  0  0  0  0  0  0  0  0  0  0  0
   40.5500   21.7040   37.8960 N   0  0  0  0  0  0  0  0  0  0  0  0
   37.3130   24.1214   34.7632 H   0  0  0  0  0  0  0  0  0  0  0  0
   38.4326   26.6172   33.6681 H   0  0  0  0  0  0  0  0  0  0  0  0
   39.4961   26.7354   34.7913 H   0  0  0  0  0  0  0  0  0  0  0  0
   39.4631   24.1658   32.7291 H   0  0  0  0  0  0  0  0  0  0  0  0
   40.2815   22.2625   33.3260 H   0  0  0  0  0  0  0  0  0  0  0  0
   42.4771   21.2239   33.8203 H   0  0  0  0  0  0  0  0  0  0  0  0
   44.8928   25.8012   33.9611 H   0  0  0  0  0  0  0  0  0  0  0  0
   43.9948   27.0438   34.9408 H   0  0  0  0  0  0  0  0  0  0  0  0
   46.5950   26.9932   34.9697 H   0  0  0  0  0  0  0  0  0  0  0  0
   45.6727   27.2394   36.4867 H   0  0  0  0  0  0  0  0  0  0  0  0
   46.6813   24.5538   35.4482 H   0  0  0  0  0  0  0  0  0  0  0  0
   47.4730   25.5670   36.7314 H   0  0  0  0  0  0  0  0  0  0  0  0
   45.8288   23.5601   37.3131 H   0  0  0  0  0  0  0  0  0  0  0  0
   45.9191   25.0935   38.2840 H   0  0  0  0  0  0  0  0  0  0  0  0
   43.8808   25.7998   37.6319 H   0  0  0  0  0  0  0  0  0  0  0  0
   43.6189   24.0215   37.4173 H   0  0  0  0  0  0  0  0  0  0  0  0
   39.1625   22.9845   39.7419 H   0  0  0  0  0  0  0  0  0  0  0  0
   37.5100   24.8695   39.2602 H   0  0  0  0  0  0  0  0  0  0  0  0
   41.0640   21.2446   37.1307 H   0  0  0  0  0  0  0  0  0  0  0  0
   40.6961   21.4007   38.8694 H   0  0  0  0  0  0  0  0  0  0  0  0
  1 20  1  0
  2  1  1  0
  3  4  1  0
  3  2  1  0
  3  1  1  0
  4  9  2  0
  5  6  2  0
  5  4  1  0
  6  7  1  0
  7  8  2  0
  8 10  1  0
  9  8  1  0
 10 15  1  0
 11 10  1  0
 11 12  1  0
 12 13  1  0
 13 14  1  0
 15 14  1  0
 16 22  1  0
 16 17  2  0
 18 17  1  0
 19 18  2  0
 20 21  2  0
 20 19  1  0
 21 16  1  0
  1 23  1  6
  2 24  1  0
  2 25  1  0
  3 26  1  6
  5 27  1  0
  6 28  1  0
 11 29  1  0
 11 30  1  0
 12 31  1  0
 12 32  1  0
 13 33  1  0
 13 34  1  0
 14 35  1  0
 14 36  1  0
 15 37  1  0
 15 38  1  0
 17 39  1  0
 18 40  1  0
 22 41  1  0
 22 42  1  0
M  ISO  8  23  13  24  13  25  13  26  13  27  14  28  14  29  13  30  13
M  ISO  8  31  13  32  13  33  13  34  13  35  13  36  13  37  13  38  13
M  ISO  2  39  14  40  14
M  END
>  <minimizedAffinity>  (1) 
-5.49237823

>  <minimizedRMSD>  (1) 
1.34907973

$$$$
