
     RDKit          3D

 39 42  0  0  1  0  0  0  0  0999 V2000
   38.2900   24.3720   34.6610 C   0  0  1  0  0  0  0  0  0  0  0  0
   39.0950   25.5650   34.0780 C   0  0  0  0  0  0  0  0  0  0  0  0
   39.3200   24.1860   33.6210 C   0  0  1  0  0  0  0  0  0  0  0  0
   40.6370   23.6330   34.0170 C   0  0  0  0  0  0  0  0  0  0  0  0
   40.7760   22.2860   33.7910 C   0  0  0  0  0  0  0  0  0  0  0  0
   41.9480   21.5730   34.0740 C   0  0  0  0  0  0  0  0  0  0  0  0
   42.9940   22.2190   34.5890 N   0  0  0  0  0  0  0  0  0  0  0  0
   42.8660   23.5580   34.8180 C   0  0  0  0  0  0  0  0  0  0  0  0
   41.7370   24.2090   34.5380 N   0  0  0  0  0  0  0  0  0  0  0  0
   43.9280   24.3340   35.3650 N   0  0  0  0  0  0  0  0  0  0  0  0
   45.2660   24.5650   34.8540 C   0  0  0  0  0  0  0  0  0  0  0  0
   46.0830   24.8860   36.0800 C   0  0  0  0  0  0  0  0  0  0  0  0
   45.1470   24.7280   37.2610 C   0  0  0  0  0  0  0  0  0  0  0  0
   43.8150   25.0680   36.6250 C   0  0  0  0  0  0  0  0  0  0  0  0
   39.6430   22.7300   37.6230 C   0  0  0  0  0  0  0  0  0  0  0  0
   38.9740   23.3660   38.6940 C   0  0  0  0  0  0  0  0  0  0  0  0
   38.0530   24.3810   38.3690 C   0  0  0  0  0  0  0  0  0  0  0  0
   37.8760   24.6740   37.0510 N   0  0  0  0  0  0  0  0  0  0  0  0
   38.5240   24.0510   36.0860 C   0  0  0  0  0  0  0  0  0  0  0  0
   39.4110   23.0790   36.3310 N   0  0  0  0  0  0  0  0  0  0  0  0
   40.5610   21.7040   37.9660 N   0  0  0  0  0  0  0  0  0  0  0  0
   37.2426   24.0480   34.7502 H   0  0  0  0  0  0  0  0  0  0  0  0
   38.6043   26.2950   33.4174 H   0  0  0  0  0  0  0  0  0  0  0  0
   39.7210   26.3695   34.4915 H   0  0  0  0  0  0  0  0  0  0  0  0
   39.2918   23.6645   32.6529 H   0  0  0  0  0  0  0  0  0  0  0  0
   39.9224   21.7380   33.3654 H   0  0  0  0  0  0  0  0  0  0  0  0
   42.0045   20.4929   33.8736 H   0  0  0  0  0  0  0  0  0  0  0  0
   45.6524   23.6652   34.3529 H   0  0  0  0  0  0  0  0  0  0  0  0
   45.2967   25.3707   34.1058 H   0  0  0  0  0  0  0  0  0  0  0  0
   46.9297   24.1893   36.1679 H   0  0  0  0  0  0  0  0  0  0  0  0
   46.5000   25.9027   36.0305 H   0  0  0  0  0  0  0  0  0  0  0  0
   45.1577   23.6990   37.6495 H   0  0  0  0  0  0  0  0  0  0  0  0
   45.4057   25.3511   38.1298 H   0  0  0  0  0  0  0  0  0  0  0  0
   43.7093   26.1499   36.4570 H   0  0  0  0  0  0  0  0  0  0  0  0
   42.9361   24.8053   37.2321 H   0  0  0  0  0  0  0  0  0  0  0  0
   39.1650   23.0797   39.7388 H   0  0  0  0  0  0  0  0  0  0  0  0
   37.4968   24.9176   39.1517 H   0  0  0  0  0  0  0  0  0  0  0  0
   41.0769   21.2062   37.2265 H   0  0  0  0  0  0  0  0  0  0  0  0
   40.7115   21.4570   38.9545 H   0  0  0  0  0  0  0  0  0  0  0  0
  1 19  1  0
  2  1  1  0
  3  4  1  0
  3  2  1  0
  3  1  1  0
  4  9  1  0
  5  4  2  0
  5  6  1  0
  6  7  2  0
  7  8  1  0
  8 10  1  0
  9  8  2  0
 10 14  1  0
 11 10  1  0
 11 12  1  0
 12 13  1  0
 14 13  1  0
 15 21  1  0
 15 16  2  0
 17 16  1  0
 18 17  2  0
 19 20  2  0
 19 18  1  0
 20 15  1  0
  1 22  1  6
  2 23  1  0
  2 24  1  0
  3 25  1  6
  5 26  1  0
  6 27  1  0
 11 28  1  0
 11 29  1  0
 12 30  1  0
 12 31  1  0
 13 32  1  0
 13 33  1  0
 14 34  1  0
 14 35  1  0
 16 36  1  0
 17 37  1  0
 21 38  1  0
 21 39  1  0
M  ISO  8  22  13  23  13  24  13  25  13  26  14  27  14  28  13  29  13
M  ISO  8  30  13  31  13  32  13  33  13  34  13  35  13  36  14  37  14
M  END
>  <minimizedAffinity>  (1) 
-5.01591825

>  <minimizedRMSD>  (1) 
1.75750828

$$$$
