
     RDKit          3D

 36 38  0  0  1  0  0  0  0  0999 V2000
   38.4780   24.9540   34.8880 C   0  0  1  0  0  0  0  0  0  0  0  0
   39.1630   26.3180   34.6050 C   0  0  0  0  0  0  0  0  0  0  0  0
   39.5970   25.0820   33.9360 C   0  0  1  0  0  0  0  0  0  0  0  0
   39.6500   22.8040   37.5880 C   0  0  0  0  0  0  0  0  0  0  0  0
   38.9650   23.2890   38.7270 C   0  0  0  0  0  0  0  0  0  0  0  0
   38.0900   24.3870   38.5430 C   0  0  0  0  0  0  0  0  0  0  0  0
   37.9770   24.8890   37.2810 N   0  0  0  0  0  0  0  0  0  0  0  0
   38.6390   24.4000   36.2490 C   0  0  0  0  0  0  0  0  0  0  0  0
   39.4780   23.3650   36.3630 N   0  0  0  0  0  0  0  0  0  0  0  0
   40.5130   21.7020   37.7940 N   0  0  0  0  0  0  0  0  0  0  0  0
   40.9440   24.6170   34.3590 C   0  0  0  0  0  0  0  0  0  0  0  0
   41.2760   23.3710   33.8820 C   0  0  0  0  0  0  0  0  0  0  0  0
   42.5040   22.7490   34.1390 C   0  0  0  0  0  0  0  0  0  0  0  0
   43.4100   23.3960   34.8890 N   0  0  0  0  0  0  0  0  0  0  0  0
   43.0800   24.6170   35.3550 C   0  0  0  0  0  0  0  0  0  0  0  0
   41.9050   25.1890   35.0970 N   0  0  0  0  0  0  0  0  0  0  0  0
   44.0300   25.3980   36.1940 C   0  0  0  0  0  0  0  0  0  0  0  0
   44.8010   24.4300   37.1010 C   0  0  0  0  0  0  0  0  0  0  0  0
   44.9880   26.2320   35.3620 C   0  0  0  0  0  0  0  0  0  0  0  0
   37.4775   24.5025   34.8170 H   0  0  0  0  0  0  0  0  0  0  0  0
   38.6327   27.0981   34.0391 H   0  0  0  0  0  0  0  0  0  0  0  0
   39.6476   27.0969   35.2120 H   0  0  0  0  0  0  0  0  0  0  0  0
   39.7082   24.7502   32.8932 H   0  0  0  0  0  0  0  0  0  0  0  0
   39.1067   22.8309   39.7170 H   0  0  0  0  0  0  0  0  0  0  0  0
   37.5252   24.8168   39.3834 H   0  0  0  0  0  0  0  0  0  0  0  0
   41.0390   21.3048   37.0025 H   0  0  0  0  0  0  0  0  0  0  0  0
   40.6153   21.2970   38.7355 H   0  0  0  0  0  0  0  0  0  0  0  0
   40.5387   22.8348   33.2665 H   0  0  0  0  0  0  0  0  0  0  0  0
   42.7220   21.7497   33.7342 H   0  0  0  0  0  0  0  0  0  0  0  0
   43.4504   26.1074   36.8029 H   0  0  0  0  0  0  0  0  0  0  0  0
   44.6033   24.6782   38.1542 H   0  0  0  0  0  0  0  0  0  0  0  0
   44.4737   23.3993   36.8995 H   0  0  0  0  0  0  0  0  0  0  0  0
   45.8788   24.5185   36.8995 H   0  0  0  0  0  0  0  0  0  0  0  0
   45.6479   26.8065   36.0286 H   0  0  0  0  0  0  0  0  0  0  0  0
   45.5948   25.5694   34.7273 H   0  0  0  0  0  0  0  0  0  0  0  0
   44.4153   26.9242   34.7273 H   0  0  0  0  0  0  0  0  0  0  0  0
  1  8  1  0
  2  1  1  0
  3 11  1  0
  3  2  1  0
  3  1  1  0
  4 10  1  0
  4  5  2  0
  6  5  1  0
  7  6  2  0
  8  9  2  0
  8  7  1  0
  9  4  1  0
 11 16  2  0
 12 13  2  0
 12 11  1  0
 13 14  1  0
 14 15  2  0
 15 17  1  0
 16 15  1  0
 17 18  1  0
 19 17  1  0
  1 20  1  6
  2 21  1  0
  2 22  1  0
  3 23  1  6
  5 24  1  0
  6 25  1  0
 10 26  1  0
 10 27  1  0
 12 28  1  0
 13 29  1  0
 17 30  1  0
 18 31  1  0
 18 32  1  0
 18 33  1  0
 19 34  1  0
 19 35  1  0
 19 36  1  0
M  ISO  8  20  13  21  13  22  13  23  13  24  14  25  14  28  14  29  14
M  ISO  7  30   8  31   8  32   8  33   8  34   8  35   8  36   8
M  END
>  <minimizedAffinity>  (1) 
-4.95177317

>  <minimizedRMSD>  (1) 
1.16335177

$$$$
