
     RDKit          3D

 33 35  0  0  1  0  0  0  0  0999 V2000
   39.8130   24.9790   34.5170 C   0  0  1  0  0  0  0  0  0  0  0  0
   40.5770   26.3300   34.5350 C   0  0  0  0  0  0  0  0  0  0  0  0
   41.2040   25.0980   34.0370 C   0  0  1  0  0  0  0  0  0  0  0  0
   39.9010   22.7550   37.4040 C   0  0  0  0  0  0  0  0  0  0  0  0
   38.8550   23.2350   38.2300 C   0  0  0  0  0  0  0  0  0  0  0  0
   38.1220   24.3530   37.7690 C   0  0  0  0  0  0  0  0  0  0  0  0
   38.4810   24.8800   36.5640 N   0  0  0  0  0  0  0  0  0  0  0  0
   39.4640   24.3960   35.8300 C   0  0  0  0  0  0  0  0  0  0  0  0
   40.1820   23.3490   36.2190 N   0  0  0  0  0  0  0  0  0  0  0  0
   40.6150   21.6310   37.8800 N   0  0  0  0  0  0  0  0  0  0  0  0
   42.2970   24.5890   34.8980 C   0  0  0  0  0  0  0  0  0  0  0  0
   42.7050   23.3120   34.5920 C   0  0  0  0  0  0  0  0  0  0  0  0
   43.7390   22.6490   35.2670 C   0  0  0  0  0  0  0  0  0  0  0  0
   44.3700   23.2800   36.2640 N   0  0  0  0  0  0  0  0  0  0  0  0
   43.9690   24.5460   36.5720 C   0  0  0  0  0  0  0  0  0  0  0  0
   42.9810   25.1460   35.9090 N   0  0  0  0  0  0  0  0  0  0  0  0
   44.6230   25.2840   37.6540 C   0  0  0  0  0  0  0  0  0  0  0  0
   46.1010   24.8800   37.7080 C   0  0  0  0  0  0  0  0  0  0  0  0
   38.8981   24.5540   34.0783 H   0  0  0  0  0  0  0  0  0  0  0  0
   40.3001   27.1328   33.8358 H   0  0  0  0  0  0  0  0  0  0  0  0
   40.8218   27.0856   35.2960 H   0  0  0  0  0  0  0  0  0  0  0  0
   41.6808   24.7850   33.0964 H   0  0  0  0  0  0  0  0  0  0  0  0
   38.6220   22.7566   39.1927 H   0  0  0  0  0  0  0  0  0  0  0  0
   37.2967   24.7796   38.3580 H   0  0  0  0  0  0  0  0  0  0  0  0
   41.3865   21.2372   37.3227 H   0  0  0  0  0  0  0  0  0  0  0  0
   40.3635   21.2062   38.7840 H   0  0  0  0  0  0  0  0  0  0  0  0
   42.1930   22.7831   33.7746 H   0  0  0  0  0  0  0  0  0  0  0  0
   44.0271   21.6264   34.9817 H   0  0  0  0  0  0  0  0  0  0  0  0
   44.5422   26.3647   37.4653 H   0  0  0  0  0  0  0  0  0  0  0  0
   44.1371   25.0488   38.6124 H   0  0  0  0  0  0  0  0  0  0  0  0
   46.4192   24.7930   38.7574 H   0  0  0  0  0  0  0  0  0  0  0  0
   46.2353   23.9122   37.2027 H   0  0  0  0  0  0  0  0  0  0  0  0
   46.7089   25.6449   37.2027 H   0  0  0  0  0  0  0  0  0  0  0  0
  1  2  1  0
  1  8  1  0
  3  1  1  0
  3  2  1  0
  3 11  1  0
  4 10  1  0
  4  5  2  0
  6  5  1  0
  7  6  2  0
  8  9  2  0
  8  7  1  0
  9  4  1  0
 11 16  1  0
 12 11  2  0
 12 13  1  0
 13 14  2  0
 14 15  1  0
 15 17  1  0
 16 15  2  0
 17 18  1  0
  1 19  1  6
  2 20  1  0
  2 21  1  0
  3 22  1  6
  5 23  1  0
  6 24  1  0
 10 25  1  0
 10 26  1  0
 12 27  1  0
 13 28  1  0
 17 29  1  0
 17 30  1  0
 18 31  1  0
 18 32  1  0
 18 33  1  0
M  ISO  8  19  13  20  13  21  13  22  13  23  14  24  14  27  14  28  14
M  ISO  5  29   8  30   8  31   8  32   8  33   8
M  END
>  <minimizedAffinity>  (1) 
-4.8964119

>  <minimizedRMSD>  (1) 
1.86816216

$$$$
