
     RDKit          3D

 28 30  0  0  1  0  0  0  0  0999 V2000
   39.1970   25.1580   34.7720 C   0  0  1  0  0  0  0  0  0  0  0  0
   40.0210   26.4700   34.7160 C   0  0  0  0  0  0  0  0  0  0  0  0
   40.4860   25.2420   34.0560 C   0  0  1  0  0  0  0  0  0  0  0  0
   39.7350   22.8240   37.5220 C   0  0  0  0  0  0  0  0  0  0  0  0
   38.8220   23.2600   38.5130 C   0  0  0  0  0  0  0  0  0  0  0  0
   38.0220   24.3830   38.2130 C   0  0  0  0  0  0  0  0  0  0  0  0
   38.1860   24.9650   36.9940 N   0  0  0  0  0  0  0  0  0  0  0  0
   39.0550   24.5200   36.0980 C   0  0  0  0  0  0  0  0  0  0  0  0
   39.8310   23.4690   36.3300 N   0  0  0  0  0  0  0  0  0  0  0  0
   40.5230   21.6930   37.8380 N   0  0  0  0  0  0  0  0  0  0  0  0
   41.6850   24.6400   34.6890 C   0  0  0  0  0  0  0  0  0  0  0  0
   41.9790   23.3760   34.2400 C   0  0  0  0  0  0  0  0  0  0  0  0
   43.0830   22.6370   34.6890 C   0  0  0  0  0  0  0  0  0  0  0  0
   43.8990   23.1790   35.5990 N   0  0  0  0  0  0  0  0  0  0  0  0
   43.6150   24.4250   36.0460 C   0  0  0  0  0  0  0  0  0  0  0  0
   42.5560   25.1070   35.6020 N   0  0  0  0  0  0  0  0  0  0  0  0
   44.6370   25.2470   37.2610 S   0  0  0  0  0  0  0  0  0  0  0  0
   38.1981   24.7979   34.4849 H   0  0  0  0  0  0  0  0  0  0  0  0
   39.6671   27.3215   34.1163 H   0  0  0  0  0  0  0  0  0  0  0  0
   40.4354   27.1708   35.4557 H   0  0  0  0  0  0  0  0  0  0  0  0
   40.7728   24.9613   33.0318 H   0  0  0  0  0  0  0  0  0  0  0  0
   38.7396   22.7426   39.4802 H   0  0  0  0  0  0  0  0  0  0  0  0
   37.2926   24.7736   38.9379 H   0  0  0  0  0  0  0  0  0  0  0  0
   41.2037   21.3323   37.1543 H   0  0  0  0  0  0  0  0  0  0  0  0
   40.4162   21.2299   38.7518 H   0  0  0  0  0  0  0  0  0  0  0  0
   41.3152   22.9203   33.4905 H   0  0  0  0  0  0  0  0  0  0  0  0
   43.2748   21.6267   34.2984 H   0  0  0  0  0  0  0  0  0  0  0  0
   44.2140   24.9068   38.5189 H   0  0  0  0  0  0  0  0  0  0  0  0
  1  8  1  0
  2  1  1  0
  3 11  1  0
  3  2  1  0
  3  1  1  0
  4 10  1  0
  4  5  2  0
  6  5  1  0
  7  6  2  0
  8  9  2  0
  8  7  1  0
  9  4  1  0
 11 16  1  0
 12 11  2  0
 12 13  1  0
 13 14  2  0
 14 15  1  0
 15 17  1  0
 16 15  2  0
  1 18  1  6
  2 19  1  0
  2 20  1  0
  3 21  1  6
  5 22  1  0
  6 23  1  0
 10 24  1  0
 10 25  1  0
 12 26  1  0
 13 27  1  0
 17 28  1  0
M  ISO  8  18  13  19  13  20  13  21  13  22  14  23  14  26  14  27  14
M  ISO  1  28  11
M  END
>  <minimizedAffinity>  (1) 
-4.70962048

>  <minimizedRMSD>  (1) 
1.31315911

$$$$
