
     RDKit          3D

 35 38  0  0  1  0  0  0  0  0999 V2000
   39.4160   23.0800   35.1670 C   0  0  1  0  0  0  0  0  0  0  0  0
   37.9990   22.9490   35.7840 C   0  0  0  0  0  0  0  0  0  0  0  0
   38.3080   22.4260   34.4450 C   0  0  1  0  0  0  0  0  0  0  0  0
   41.3400   25.7860   33.6550 C   0  0  0  0  0  0  0  0  0  0  0  0
   40.8180   26.9470   34.2640 C   0  0  0  0  0  0  0  0  0  0  0  0
   39.7800   26.7800   35.2040 C   0  0  0  0  0  0  0  0  0  0  0  0
   39.3540   25.5150   35.4590 N   0  0  0  0  0  0  0  0  0  0  0  0
   39.8770   24.4520   34.8600 C   0  0  0  0  0  0  0  0  0  0  0  0
   40.8640   24.5510   33.9600 N   0  0  0  0  0  0  0  0  0  0  0  0
   42.3880   25.9710   32.7200 N   0  0  0  0  0  0  0  0  0  0  0  0
   37.6430   23.1690   33.3440 C   0  0  0  0  0  0  0  0  0  0  0  0
   37.1580   22.3720   32.3380 C   0  0  0  0  0  0  0  0  0  0  0  0
   36.4790   22.8700   31.2200 C   0  0  0  0  0  0  0  0  0  0  0  0
   36.2870   24.1860   31.1120 N   0  0  0  0  0  0  0  0  0  0  0  0
   36.7660   24.9850   32.1060 C   0  0  0  0  0  0  0  0  0  0  0  0
   37.4080   24.4750   33.1570 N   0  0  0  0  0  0  0  0  0  0  0  0
   36.6040   26.4350   32.0750 C   0  0  0  0  0  0  0  0  0  0  0  0
   36.4370   27.0610   30.8600 C   0  0  0  0  0  0  0  0  0  0  0  0
   36.2830   28.4260   30.8170 C   0  0  0  0  0  0  0  0  0  0  0  0
   36.2920   29.1800   31.9550 N   0  0  0  0  0  0  0  0  0  0  0  0
   36.4590   28.5370   33.1410 C   0  0  0  0  0  0  0  0  0  0  0  0
   36.6070   27.2060   33.1730 N   0  0  0  0  0  0  0  0  0  0  0  0
   40.4480   22.7752   35.3951 H   0  0  0  0  0  0  0  0  0  0  0  0
   37.8206   22.2584   36.6214 H   0  0  0  0  0  0  0  0  0  0  0  0
   37.2571   23.6427   36.2062 H   0  0  0  0  0  0  0  0  0  0  0  0
   38.2378   21.4469   33.9485 H   0  0  0  0  0  0  0  0  0  0  0  0
   41.2064   27.9455   34.0147 H   0  0  0  0  0  0  0  0  0  0  0  0
   39.3302   27.6448   35.7137 H   0  0  0  0  0  0  0  0  0  0  0  0
   42.7282   26.9200   32.5089 H   0  0  0  0  0  0  0  0  0  0  0  0
   42.8097   25.1565   32.2513 H   0  0  0  0  0  0  0  0  0  0  0  0
   37.3107   21.2853   32.4141 H   0  0  0  0  0  0  0  0  0  0  0  0
   36.1090   22.1864   30.4417 H   0  0  0  0  0  0  0  0  0  0  0  0
   36.4269   26.4728   29.9305 H   0  0  0  0  0  0  0  0  0  0  0  0
   36.1496   28.9219   29.8442 H   0  0  0  0  0  0  0  0  0  0  0  0
   36.4727   29.1122   34.0785 H   0  0  0  0  0  0  0  0  0  0  0  0
  1  2  1  0
  3  1  1  0
  3  2  1  0
  4  9  2  0
  4  5  1  0
  5  6  2  0
  6  7  1  0
  8  1  1  0
  8  7  2  0
  9  8  1  0
 10  4  1  0
 11  3  1  0
 12 11  2  0
 13 12  1  0
 14 13  2  0
 14 15  1  0
 15 16  2  0
 16 11  1  0
 17 15  1  0
 17 22  1  0
 18 17  2  0
 19 18  1  0
 19 20  2  0
 20 21  1  0
 21 22  2  0
  1 23  1  1
  2 24  1  0
  2 25  1  0
  3 26  1  1
  5 27  1  0
  6 28  1  0
 10 29  1  0
 10 30  1  0
 12 31  1  0
 13 32  1  0
 18 33  1  0
 19 34  1  0
 21 35  1  0
M  ISO  8  23  13  24  13  25  13  26  13  27  14  28  14  31  14  32  14
M  ISO  3  33  14  34  14  35  14
M  END
>  <minimizedAffinity>  (1) 
-4.51460075

>  <minimizedRMSD>  (1) 
6.13481379

$$$$
