
     RDKit          3D

 43 46  0  0  1  0  0  0  0  0999 V2000
   42.3040   24.5760   34.9740 C   0  0  0  0  0  0  0  0  0  0  0  0
   42.5090   23.2320   34.8710 C   0  0  0  0  0  0  0  0  0  0  0  0
   43.4830   22.5470   35.6130 C   0  0  0  0  0  0  0  0  0  0  0  0
   44.2540   23.2280   36.4650 N   0  0  0  0  0  0  0  0  0  0  0  0
   44.0520   24.5680   36.5710 C   0  0  0  0  0  0  0  0  0  0  0  0
   43.1220   25.1970   35.8580 N   0  0  0  0  0  0  0  0  0  0  0  0
   43.6670   21.1420   35.4770 N   0  0  0  0  0  0  0  0  0  0  0  0
   44.5740   20.4430   36.1890 C   0  0  0  0  0  0  0  0  0  0  0  0
   44.7070   19.0840   36.0150 C   0  0  0  0  0  0  0  0  0  0  0  0
   45.7030   18.2990   36.7920 C   0  0  0  0  0  0  0  0  0  0  0  0
   43.9260   18.3900   35.1140 C   0  0  0  0  0  0  0  0  0  0  0  0
   44.0000   17.1590   34.9110 O   0  0  0  0  0  0  0  0  0  0  0  0
   43.0150   19.1060   34.4010 N   0  0  0  0  0  0  0  0  0  0  0  0
   42.9100   20.4490   34.5990 C   0  0  0  0  0  0  0  0  0  0  0  0
   42.0330   21.0230   33.8890 O   0  0  0  0  0  0  0  0  0  0  0  0
   39.8300   25.0130   34.5490 C   0  0  1  0  0  0  0  0  0  0  0  0
   40.6380   26.3540   34.5550 C   0  0  0  0  0  0  0  0  0  0  0  0
   41.2330   25.1170   34.0770 C   0  0  1  0  0  0  0  0  0  0  0  0
   39.8150   22.8140   37.4470 C   0  0  0  0  0  0  0  0  0  0  0  0
   38.7630   23.3170   38.2410 C   0  0  0  0  0  0  0  0  0  0  0  0
   38.0600   24.4490   37.7510 C   0  0  0  0  0  0  0  0  0  0  0  0
   38.4520   24.9710   36.5460 N   0  0  0  0  0  0  0  0  0  0  0  0
   39.4440   24.4570   35.8510 C   0  0  0  0  0  0  0  0  0  0  0  0
   40.1440   23.3900   36.2630 N   0  0  0  0  0  0  0  0  0  0  0  0
   40.4900   21.6840   37.9430 N   0  0  0  0  0  0  0  0  0  0  0  0
   44.8670   25.4110   37.4910 C   0  0  0  0  0  0  0  0  0  0  0  0
   44.1660   25.7160   38.6120 F   0  0  0  0  0  0  0  0  0  0  0  0
   45.3510   26.5140   36.8180 F   0  0  0  0  0  0  0  0  0  0  0  0
   45.9630   24.6040   37.8520 F   0  0  0  0  0  0  0  0  0  0  0  0
   41.8814   22.6579   34.1735 H   0  0  0  0  0  0  0  0  0  0  0  0
   45.2141   20.9640   36.9162 H   0  0  0  0  0  0  0  0  0  0  0  0
   45.5230   18.4409   37.8679 H   0  0  0  0  0  0  0  0  0  0  0  0
   45.6054   17.2324   36.5414 H   0  0  0  0  0  0  0  0  0  0  0  0
   46.7173   18.6432   36.5414 H   0  0  0  0  0  0  0  0  0  0  0  0
   42.4080   18.6347   33.7152 H   0  0  0  0  0  0  0  0  0  0  0  0
   38.9125   24.5937   34.1103 H   0  0  0  0  0  0  0  0  0  0  0  0
   40.3844   27.1562   33.8463 H   0  0  0  0  0  0  0  0  0  0  0  0
   40.8987   27.1102   35.3101 H   0  0  0  0  0  0  0  0  0  0  0  0
   41.7145   24.8011   33.1398 H   0  0  0  0  0  0  0  0  0  0  0  0
   38.4980   22.8508   39.2014 H   0  0  0  0  0  0  0  0  0  0  0  0
   37.2289   24.8920   38.3193 H   0  0  0  0  0  0  0  0  0  0  0  0
   41.2671   21.2719   37.4071 H   0  0  0  0  0  0  0  0  0  0  0  0
   40.2072   21.2687   38.8421 H   0  0  0  0  0  0  0  0  0  0  0  0
  1  6  1  0
  2  1  2  0
  2  3  1  0
  3  4  2  0
  4  5  1  0
  5 26  1  0
  6  5  2  0
  7  3  1  0
  7  8  1  0
  9  8  2  0
  9 10  1  0
 11  9  1  0
 12 11  2  0
 13 14  1  0
 13 11  1  0
 14  7  1  0
 15 14  2  0
 16 17  1  0
 16 23  1  0
 18 16  1  0
 18 17  1  0
 18  1  1  0
 19 25  1  0
 19 20  2  0
 21 20  1  0
 22 21  2  0
 23 24  2  0
 23 22  1  0
 24 19  1  0
 26 29  1  0
 26 27  1  0
 28 26  1  0
  2 30  1  0
  8 31  1  0
 10 32  1  0
 10 33  1  0
 10 34  1  0
 13 35  1  0
 16 36  1  6
 17 37  1  0
 17 38  1  0
 18 39  1  6
 20 40  1  0
 21 41  1  0
 25 42  1  0
 25 43  1  0
M  ISO  8  30  14  31  14  32   8  33   8  34   8  35   9  36  13  37  13
M  ISO  4  38  13  39  13  40  14  41  14
M  END
>  <minimizedAffinity>  (1) 
-6.29978275

>  <minimizedRMSD>  (1) 
0.466881603

$$$$
