
     RDKit          3D

 36 39  0  0  1  0  0  0  0  0999 V2000
   39.8410   25.0270   34.5640 C   0  0  1  0  0  0  0  0  0  0  0  0
   40.6510   26.3660   34.5840 C   0  0  0  0  0  0  0  0  0  0  0  0
   41.2530   25.1300   34.1190 C   0  0  1  0  0  0  0  0  0  0  0  0
   42.3030   24.5890   35.0370 C   0  0  0  0  0  0  0  0  0  0  0  0
   42.4440   23.2320   35.0040 C   0  0  0  0  0  0  0  0  0  0  0  0
   43.3910   22.5420   35.7750 C   0  0  0  0  0  0  0  0  0  0  0  0
   44.2030   23.2300   36.5840 N   0  0  0  0  0  0  0  0  0  0  0  0
   44.0660   24.5780   36.6180 C   0  0  0  0  0  0  0  0  0  0  0  0
   43.1610   25.2160   35.8800 N   0  0  0  0  0  0  0  0  0  0  0  0
   43.5080   21.1230   35.7140 N   0  0  0  0  0  0  0  0  0  0  0  0
   43.9490   20.2930   34.7780 C   0  0  0  0  0  0  0  0  0  0  0  0
   43.8420   19.0410   35.2280 N   0  0  0  0  0  0  0  0  0  0  0  0
   43.3220   19.0720   36.4720 C   0  0  0  0  0  0  0  0  0  0  0  0
   43.1230   20.3820   36.7540 N   0  0  0  0  0  0  0  0  0  0  0  0
   44.9310   25.4330   37.4840 C   0  0  0  0  0  0  0  0  0  0  0  0
   44.2350   25.8880   38.5580 F   0  0  0  0  0  0  0  0  0  0  0  0
   45.5180   26.4300   36.7340 F   0  0  0  0  0  0  0  0  0  0  0  0
   45.9460   24.5730   37.9460 F   0  0  0  0  0  0  0  0  0  0  0  0
   39.7660   22.8350   37.4660 C   0  0  0  0  0  0  0  0  0  0  0  0
   38.7030   23.3400   38.2370 C   0  0  0  0  0  0  0  0  0  0  0  0
   38.0140   24.4720   37.7320 C   0  0  0  0  0  0  0  0  0  0  0  0
   38.4280   24.9900   36.5380 N   0  0  0  0  0  0  0  0  0  0  0  0
   39.4300   24.4740   35.8600 C   0  0  0  0  0  0  0  0  0  0  0  0
   40.1130   23.4110   36.2880 N   0  0  0  0  0  0  0  0  0  0  0  0
   40.4300   21.7000   37.9780 N   0  0  0  0  0  0  0  0  0  0  0  0
   38.9318   24.6078   34.1083 H   0  0  0  0  0  0  0  0  0  0  0  0
   40.4120   27.1679   33.8700 H   0  0  0  0  0  0  0  0  0  0  0  0
   40.8984   27.1223   35.3435 H   0  0  0  0  0  0  0  0  0  0  0  0
   41.7525   24.8138   33.1913 H   0  0  0  0  0  0  0  0  0  0  0  0
   41.7841   22.6523   34.3418 H   0  0  0  0  0  0  0  0  0  0  0  0
   44.3389   20.5881   33.7927 H   0  0  0  0  0  0  0  0  0  0  0  0
   43.1046   18.2121   37.1226 H   0  0  0  0  0  0  0  0  0  0  0  0
   38.4179   22.8757   39.1926 H   0  0  0  0  0  0  0  0  0  0  0  0
   37.1736   24.9183   38.2839 H   0  0  0  0  0  0  0  0  0  0  0  0
   41.2163   21.2851   37.4579 H   0  0  0  0  0  0  0  0  0  0  0  0
   40.1284   21.2865   38.8718 H   0  0  0  0  0  0  0  0  0  0  0  0
  1  2  1  0
  1 23  1  0
  3  1  1  0
  3  2  1  0
  3  4  1  0
  4  9  1  0
  5  4  2  0
  5  6  1  0
  6  7  2  0
  7  8  1  0
  8 15  1  0
  9  8  2  0
 10  6  1  0
 10 14  1  0
 11 12  2  0
 11 10  1  0
 12 13  1  0
 13 14  2  0
 15 18  1  0
 15 16  1  0
 17 15  1  0
 19 25  1  0
 19 20  2  0
 21 20  1  0
 22 21  2  0
 23 24  2  0
 23 22  1  0
 24 19  1  0
  1 26  1  6
  2 27  1  0
  2 28  1  0
  3 29  1  6
  5 30  1  0
 11 31  1  0
 13 32  1  0
 20 33  1  0
 21 34  1  0
 25 35  1  0
 25 36  1  0
M  ISO  8  26  13  27  13  28  13  29  13  30  14  31  14  32  14  33  14
M  ISO  1  34  14
M  END
>  <minimizedAffinity>  (1) 
-6.03088474

>  <minimizedRMSD>  (1) 
0.520043731

$$$$
