
     RDKit          3D

 44 47  0  0  1  0  0  0  0  0999 V2000
   39.7260   25.0040   34.5570 C   0  0  1  0  0  0  0  0  0  0  0  0
   40.5540   26.3340   34.5330 C   0  0  0  0  0  0  0  0  0  0  0  0
   41.1120   25.0880   34.0370 C   0  0  1  0  0  0  0  0  0  0  0  0
   42.2030   24.5320   34.8930 C   0  0  0  0  0  0  0  0  0  0  0  0
   42.4070   23.1880   34.7630 C   0  0  0  0  0  0  0  0  0  0  0  0
   43.4030   22.4990   35.4740 C   0  0  0  0  0  0  0  0  0  0  0  0
   44.1890   23.1640   36.3130 N   0  0  0  0  0  0  0  0  0  0  0  0
   43.9920   24.4920   36.4450 C   0  0  0  0  0  0  0  0  0  0  0  0
   43.0450   25.1370   35.7670 N   0  0  0  0  0  0  0  0  0  0  0  0
   43.5730   21.1130   35.3060 N   0  0  0  0  0  0  0  0  0  0  0  0
   43.4370   20.2090   36.4260 C   0  0  0  0  0  0  0  0  0  0  0  0
   44.1860   18.9170   36.2330 C   0  0  0  0  0  0  0  0  0  0  0  0
   43.5100   18.1930   35.1740 N   0  0  0  0  0  0  0  0  0  0  0  0
   43.1890   19.0410   34.0510 C   0  0  0  0  0  0  0  0  0  0  0  0
   43.8800   20.3870   34.1210 C   0  0  0  0  0  0  0  0  0  0  0  0
   44.8300   25.3250   37.3600 C   0  0  0  0  0  0  0  0  0  0  0  0
   44.1520   25.6230   38.5020 F   0  0  0  0  0  0  0  0  0  0  0  0
   45.3060   26.4340   36.6910 F   0  0  0  0  0  0  0  0  0  0  0  0
   45.9250   24.5120   37.6960 F   0  0  0  0  0  0  0  0  0  0  0  0
   39.7910   22.8270   37.4700 C   0  0  0  0  0  0  0  0  0  0  0  0
   38.7610   23.3350   38.2880 C   0  0  0  0  0  0  0  0  0  0  0  0
   38.0460   24.4620   37.8090 C   0  0  0  0  0  0  0  0  0  0  0  0
   38.4040   24.9760   36.5930 N   0  0  0  0  0  0  0  0  0  0  0  0
   39.3760   24.4580   35.8730 C   0  0  0  0  0  0  0  0  0  0  0  0
   40.0790   23.4010   36.2760 N   0  0  0  0  0  0  0  0  0  0  0  0
   40.4820   21.6960   37.9580 N   0  0  0  0  0  0  0  0  0  0  0  0
   38.7888   24.5959   34.1507 H   0  0  0  0  0  0  0  0  0  0  0  0
   40.2880   27.1392   33.8324 H   0  0  0  0  0  0  0  0  0  0  0  0
   40.8524   27.0871   35.2772 H   0  0  0  0  0  0  0  0  0  0  0  0
   41.5556   24.7647   33.0837 H   0  0  0  0  0  0  0  0  0  0  0  0
   41.7646   22.6216   34.0728 H   0  0  0  0  0  0  0  0  0  0  0  0
   43.8234   20.7070   37.3275 H   0  0  0  0  0  0  0  0  0  0  0  0
   42.3697   19.9599   36.5204 H   0  0  0  0  0  0  0  0  0  0  0  0
   45.2276   19.1228   35.9455 H   0  0  0  0  0  0  0  0  0  0  0  0
   44.2039   18.3294   37.1627 H   0  0  0  0  0  0  0  0  0  0  0  0
   44.1228   17.4313   34.8497 H   0  0  0  0  0  0  0  0  0  0  0  0
   42.1013   19.2040   34.0322 H   0  0  0  0  0  0  0  0  0  0  0  0
   43.5391   18.5338   33.1399 H   0  0  0  0  0  0  0  0  0  0  0  0
   44.9672   20.2244   34.0822 H   0  0  0  0  0  0  0  0  0  0  0  0
   43.5212   20.9837   33.2694 H   0  0  0  0  0  0  0  0  0  0  0  0
   38.5218   22.8757   39.2585 H   0  0  0  0  0  0  0  0  0  0  0  0
   37.2300   24.9084   38.3962 H   0  0  0  0  0  0  0  0  0  0  0  0
   41.2446   21.2800   37.4046 H   0  0  0  0  0  0  0  0  0  0  0  0
   40.2233   21.2872   38.8673 H   0  0  0  0  0  0  0  0  0  0  0  0
  1 24  1  0
  2  1  1  0
  3  2  1  0
  3  1  1  0
  3  4  1  0
  4  9  1  0
  5  4  2  0
  5  6  1  0
  6  7  2  0
  7  8  1  0
  8 16  1  0
  9  8  2  0
 10  6  1  0
 10 11  1  0
 12 11  1  0
 13 12  1  0
 14 15  1  0
 14 13  1  0
 15 10  1  0
 16 19  1  0
 16 17  1  0
 18 16  1  0
 20 26  1  0
 20 21  2  0
 22 21  1  0
 23 22  2  0
 24 25  2  0
 24 23  1  0
 25 20  1  0
  1 27  1  6
  2 28  1  0
  2 29  1  0
  3 30  1  6
  5 31  1  0
 11 32  1  0
 11 33  1  0
 12 34  1  0
 12 35  1  0
 13 36  1  0
 14 37  1  0
 14 38  1  0
 15 39  1  0
 15 40  1  0
 21 41  1  0
 22 42  1  0
 26 43  1  0
 26 44  1  0
M  ISO  8  27  13  28  13  29  13  30  13  31  14  32  13  33  13  34  13
M  ISO  8  35  13  36   5  37  13  38  13  39  13  40  13  41  14  42  14
M  END
>  <minimizedAffinity>  (1) 
-5.95866537

>  <minimizedRMSD>  (1) 
0.290858984

$$$$
