
     RDKit          3D

 43 46  0  0  1  0  0  0  0  0999 V2000
   42.1190   24.5630   34.9860 C   0  0  0  0  0  0  0  0  0  0  0  0
   42.2110   23.2010   34.9710 C   0  0  0  0  0  0  0  0  0  0  0  0
   43.1370   22.4780   35.7120 C   0  0  0  0  0  0  0  0  0  0  0  0
   44.0040   23.1500   36.4970 N   0  0  0  0  0  0  0  0  0  0  0  0
   43.9230   24.4900   36.5190 C   0  0  0  0  0  0  0  0  0  0  0  0
   43.0250   25.1600   35.8000 N   0  0  0  0  0  0  0  0  0  0  0  0
   39.6670   25.1130   34.5820 C   0  0  1  0  0  0  0  0  0  0  0  0
   40.5370   26.4130   34.5640 C   0  0  0  0  0  0  0  0  0  0  0  0
   41.0680   25.1430   34.0950 C   0  0  1  0  0  0  0  0  0  0  0  0
   39.5700   22.9470   37.5010 C   0  0  0  0  0  0  0  0  0  0  0  0
   38.5540   23.5110   38.3010 C   0  0  0  0  0  0  0  0  0  0  0  0
   37.9090   24.6720   37.8080 C   0  0  0  0  0  0  0  0  0  0  0  0
   38.3150   25.1580   36.5960 N   0  0  0  0  0  0  0  0  0  0  0  0
   39.2710   24.5880   35.8930 C   0  0  0  0  0  0  0  0  0  0  0  0
   39.9090   23.4980   36.3110 N   0  0  0  0  0  0  0  0  0  0  0  0
   40.1880   21.7870   38.0030 N   0  0  0  0  0  0  0  0  0  0  0  0
   43.3600   18.2100   35.7550 C   0  0  0  0  0  0  0  0  0  0  0  0
   43.4040   18.8850   34.5580 C   0  0  0  0  0  0  0  0  0  0  0  0
   43.3320   20.2630   34.5660 C   0  0  0  0  0  0  0  0  0  0  0  0
   43.2150   21.0420   35.6810 C   0  0  0  0  0  0  0  0  0  0  0  0
   43.1750   20.3170   36.8550 C   0  0  0  0  0  0  0  0  0  0  0  0
   43.2430   18.9410   36.9180 C   0  0  0  0  0  0  0  0  0  0  0  0
   43.4480   16.4670   35.8040 S   0  0  0  0  0  0  0  0  0  0  0  0
   44.3970   16.0540   36.9040 O   0  0  0  0  0  0  0  0  0  0  0  0
   42.0840   15.9270   36.0770 O   0  0  0  0  0  0  0  0  0  0  0  0
   44.8470   25.3070   37.3550 C   0  0  0  0  0  0  0  0  0  0  0  0
   44.2630   25.6310   38.5440 F   0  0  0  0  0  0  0  0  0  0  0  0
   45.2890   26.4030   36.6420 F   0  0  0  0  0  0  0  0  0  0  0  0
   45.9490   24.4730   37.6130 F   0  0  0  0  0  0  0  0  0  0  0  0
   41.5096   22.6425   34.3337 H   0  0  0  0  0  0  0  0  0  0  0  0
   38.7250   24.7354   34.1578 H   0  0  0  0  0  0  0  0  0  0  0  0
   40.3144   27.2180   33.8482 H   0  0  0  0  0  0  0  0  0  0  0  0
   40.8410   27.1647   35.3074 H   0  0  0  0  0  0  0  0  0  0  0  0
   41.5242   24.7931   33.1572 H   0  0  0  0  0  0  0  0  0  0  0  0
   38.2741   23.0675   39.2679 H   0  0  0  0  0  0  0  0  0  0  0  0
   37.1095   25.1653   38.3802 H   0  0  0  0  0  0  0  0  0  0  0  0
   40.9370   21.3285   37.4648 H   0  0  0  0  0  0  0  0  0  0  0  0
   39.8914   21.3963   38.9087 H   0  0  0  0  0  0  0  0  0  0  0  0
   43.4951   18.3355   33.6094 H   0  0  0  0  0  0  0  0  0  0  0  0
   43.3722   20.7761   33.5938 H   0  0  0  0  0  0  0  0  0  0  0  0
   43.0831   20.8720   37.8003 H   0  0  0  0  0  0  0  0  0  0  0  0
   43.2041   18.4295   37.8910 H   0  0  0  0  0  0  0  0  0  0  0  0
   43.9029   15.9757   34.6088 H   0  0  0  0  0  0  0  0  0  0  0  0
  1  6  1  0
  2  1  2  0
  2  3  1  0
  3  4  2  0
  4  5  1  0
  5 26  1  0
  6  5  2  0
  7 14  1  0
  8  7  1  0
  9  8  1  0
  9  7  1  0
  9  1  1  0
 10 16  1  0
 10 11  2  0
 12 11  1  0
 13 12  2  0
 14 15  2  0
 14 13  1  0
 15 10  1  0
 17 23  1  0
 17 22  2  0
 18 19  2  0
 18 17  1  0
 19 20  1  0
 20  3  1  0
 20 21  2  0
 21 22  1  0
 23 25  2  0
 23 24  2  0
 26 29  1  0
 26 27  1  0
 28 26  1  0
  2 30  1  0
  7 31  1  6
  8 32  1  0
  8 33  1  0
  9 34  1  6
 11 35  1  0
 12 36  1  0
 16 37  1  0
 16 38  1  0
 18 39  1  0
 19 40  1  0
 21 41  1  0
 22 42  1  0
 23 43  1  0
M  ISO  8  30  14  31  13  32  13  33  13  34  13  35  14  36  14  39  14
M  ISO  4  40  14  41  14  42  14  43  11
M  END
>  <minimizedAffinity>  (1) 
-5.94036436

>  <minimizedRMSD>  (1) 
0.886692345

$$$$
