
     RDKit          3D

 39 42  0  0  1  0  0  0  0  0999 V2000
   39.6640   25.0450   34.5660 C   0  0  1  0  0  0  0  0  0  0  0  0
   40.5150   26.3590   34.5400 C   0  0  0  0  0  0  0  0  0  0  0  0
   41.0610   25.0970   34.0690 C   0  0  1  0  0  0  0  0  0  0  0  0
   39.6300   22.8870   37.4920 C   0  0  0  0  0  0  0  0  0  0  0  0
   38.6110   23.4300   38.2970 C   0  0  0  0  0  0  0  0  0  0  0  0
   37.9370   24.5760   37.8050 C   0  0  0  0  0  0  0  0  0  0  0  0
   38.3260   25.0660   36.5920 N   0  0  0  0  0  0  0  0  0  0  0  0
   39.2880   24.5160   35.8820 C   0  0  0  0  0  0  0  0  0  0  0  0
   39.9550   23.4360   36.2990 N   0  0  0  0  0  0  0  0  0  0  0  0
   40.2800   21.7400   37.9860 N   0  0  0  0  0  0  0  0  0  0  0  0
   42.1270   24.5280   34.9490 C   0  0  0  0  0  0  0  0  0  0  0  0
   42.2540   23.1690   34.9080 C   0  0  0  0  0  0  0  0  0  0  0  0
   43.2050   22.4720   35.6370 C   0  0  0  0  0  0  0  0  0  0  0  0
   44.0550   23.1460   36.4350 N   0  0  0  0  0  0  0  0  0  0  0  0
   43.9320   24.4810   36.4780 C   0  0  0  0  0  0  0  0  0  0  0  0
   43.0150   25.1400   35.7720 N   0  0  0  0  0  0  0  0  0  0  0  0
   43.3420   21.0270   35.5960 C   0  0  0  0  0  0  0  0  0  0  0  0
   43.2910   20.1870   36.6860 C   0  0  0  0  0  0  0  0  0  0  0  0
   43.4220   18.8270   36.6410 C   0  0  0  0  0  0  0  0  0  0  0  0
   43.6220   18.2090   35.4400 C   0  0  0  0  0  0  0  0  0  0  0  0
   43.6740   19.0450   34.3440 C   0  0  0  0  0  0  0  0  0  0  0  0
   43.5400   20.3790   34.4350 N   0  0  0  0  0  0  0  0  0  0  0  0
   44.8340   25.3150   37.3290 C   0  0  0  0  0  0  0  0  0  0  0  0
   44.2350   25.6250   38.5120 F   0  0  0  0  0  0  0  0  0  0  0  0
   45.2670   26.4190   36.6210 F   0  0  0  0  0  0  0  0  0  0  0  0
   45.9480   24.4990   37.5910 F   0  0  0  0  0  0  0  0  0  0  0  0
   38.7248   24.6523   34.1492 H   0  0  0  0  0  0  0  0  0  0  0  0
   40.2752   27.1597   33.8248 H   0  0  0  0  0  0  0  0  0  0  0  0
   40.8132   27.1162   35.2801 H   0  0  0  0  0  0  0  0  0  0  0  0
   41.5167   24.7556   33.1278 H   0  0  0  0  0  0  0  0  0  0  0  0
   38.3486   22.9837   39.2675 H   0  0  0  0  0  0  0  0  0  0  0  0
   37.1297   25.0531   38.3801 H   0  0  0  0  0  0  0  0  0  0  0  0
   41.0337   21.2996   37.4394 H   0  0  0  0  0  0  0  0  0  0  0  0
   40.0018   21.3413   38.8940 H   0  0  0  0  0  0  0  0  0  0  0  0
   41.5676   22.5991   34.2646 H   0  0  0  0  0  0  0  0  0  0  0  0
   43.1321   20.6474   37.6723 H   0  0  0  0  0  0  0  0  0  0  0  0
   43.3667   18.2345   37.5661 H   0  0  0  0  0  0  0  0  0  0  0  0
   43.7341   17.1182   35.3524 H   0  0  0  0  0  0  0  0  0  0  0  0
   43.8323   18.5996   33.3507 H   0  0  0  0  0  0  0  0  0  0  0  0
  1  8  1  0
  2  1  1  0
  3  2  1  0
  3  1  1  0
  3 11  1  0
  4 10  1  0
  4  5  2  0
  6  5  1  0
  7  6  2  0
  8  9  2  0
  8  7  1  0
  9  4  1  0
 11 16  1  0
 12 11  2  0
 12 13  1  0
 13 14  2  0
 14 15  1  0
 15 23  1  0
 16 15  2  0
 17 13  1  0
 17 18  2  0
 19 18  1  0
 20 19  2  0
 21 22  2  0
 21 20  1  0
 22 17  1  0
 23 26  1  0
 23 24  1  0
 25 23  1  0
  1 27  1  6
  2 28  1  0
  2 29  1  0
  3 30  1  6
  5 31  1  0
  6 32  1  0
 10 33  1  0
 10 34  1  0
 12 35  1  0
 18 36  1  0
 19 37  1  0
 20 38  1  0
 21 39  1  0
M  ISO  8  27  13  28  13  29  13  30  13  31  14  32  14  35  14  36  14
M  ISO  3  37  14  38  14  39  14
M  END
>  <minimizedAffinity>  (1) 
-5.85334158

>  <minimizedRMSD>  (1) 
0.512032151

$$$$
