
     RDKit          3D

 25 26  0  0  0  0  0  0  0  0999 V2000
   39.0540   26.1550   34.6250 C   0  0  0  0  0  0  0  0  0  0  0  0
   38.0080   27.0440   34.0270 C   0  0  0  0  0  0  0  0  0  0  0  0
   37.1240   27.7090   34.8460 C   0  0  0  0  0  0  0  0  0  0  0  0
   36.1280   28.5480   34.3690 C   0  0  0  0  0  0  0  0  0  0  0  0
   36.0270   28.7150   33.0240 N   0  0  0  0  0  0  0  0  0  0  0  0
   36.8950   28.0620   32.2070 C   0  0  0  0  0  0  0  0  0  0  0  0
   37.8460   27.2580   32.7210 N   0  0  0  0  0  0  0  0  0  0  0  0
   36.8600   28.2040   30.4150 S   0  0  0  0  0  0  0  0  0  0  0  0
   38.6350   24.7190   34.6630 C   0  0  0  0  0  0  0  0  0  0  0  0
   39.7210   22.8230   37.6920 C   0  0  0  0  0  0  0  0  0  0  0  0
   38.8600   23.3300   38.6710 C   0  0  0  0  0  0  0  0  0  0  0  0
   37.9200   24.3100   38.2890 C   0  0  0  0  0  0  0  0  0  0  0  0
   37.8980   24.7140   36.9910 N   0  0  0  0  0  0  0  0  0  0  0  0
   38.7490   24.1970   36.0770 C   0  0  0  0  0  0  0  0  0  0  0  0
   39.6460   23.2720   36.4070 N   0  0  0  0  0  0  0  0  0  0  0  0
   39.2559   26.4905   35.6530 H   0  0  0  0  0  0  0  0  0  0  0  0
   39.9513   26.2238   33.9924 H   0  0  0  0  0  0  0  0  0  0  0  0
   37.2119   27.5679   35.9334 H   0  0  0  0  0  0  0  0  0  0  0  0
   35.4414   29.0621   35.0576 H   0  0  0  0  0  0  0  0  0  0  0  0
   36.5430   29.4900   30.0649 H   0  0  0  0  0  0  0  0  0  0  0  0
   37.5924   24.6324   34.3233 H   0  0  0  0  0  0  0  0  0  0  0  0
   39.2869   24.1297   34.0014 H   0  0  0  0  0  0  0  0  0  0  0  0
   40.4634   22.0571   37.9608 H   0  0  0  0  0  0  0  0  0  0  0  0
   38.9145   22.9742   39.7104 H   0  0  0  0  0  0  0  0  0  0  0  0
   37.2215   24.7371   39.0237 H   0  0  0  0  0  0  0  0  0  0  0  0
  1  9  1  0
  2  1  1  0
  2  3  2  0
  4  3  1  0
  5  4  2  0
  6  7  2  0
  6  5  1  0
  7  2  1  0
  8  6  1  0
  9 14  1  0
 10 11  2  0
 12 11  1  0
 13 12  2  0
 14 15  2  0
 14 13  1  0
 15 10  1  0
  1 16  1  0
  1 17  1  0
  3 18  1  0
  4 19  1  0
  8 20  1  0
  9 21  1  0
  9 22  1  0
 10 23  1  0
 11 24  1  0
 12 25  1  0
M  ISO  8  16   8  17   8  18  14  19  14  20  11  21   8  22   8  23  14
M  ISO  2  24  14  25  14
M  END
>  <minimizedAffinity>  (1) 
-4.17777777

>  <minimizedRMSD>  (1) 
0.269006729

$$$$
