
     RDKit          3D

 33 35  0  0  1  0  0  0  0  0999 V2000
   39.8460   25.0190   34.5580 C   0  0  1  0  0  0  0  0  0  0  0  0
   40.6430   26.3670   34.5810 C   0  0  0  0  0  0  0  0  0  0  0  0
   41.2430   25.1340   34.1030 C   0  0  1  0  0  0  0  0  0  0  0  0
   39.8050   22.8160   37.4530 C   0  0  0  0  0  0  0  0  0  0  0  0
   38.7440   23.3190   38.2370 C   0  0  0  0  0  0  0  0  0  0  0  0
   38.0480   24.4470   37.7420 C   0  0  0  0  0  0  0  0  0  0  0  0
   38.4450   24.9690   36.5510 N   0  0  0  0  0  0  0  0  0  0  0  0
   39.4430   24.4650   35.8540 C   0  0  0  0  0  0  0  0  0  0  0  0
   40.1370   23.4000   36.2750 N   0  0  0  0  0  0  0  0  0  0  0  0
   40.4840   21.6830   37.9550 N   0  0  0  0  0  0  0  0  0  0  0  0
   42.3060   24.5880   35.0010 C   0  0  0  0  0  0  0  0  0  0  0  0
   42.5030   23.2410   34.9000 C   0  0  0  0  0  0  0  0  0  0  0  0
   43.4700   22.5530   35.6450 C   0  0  0  0  0  0  0  0  0  0  0  0
   44.2440   23.2310   36.5010 N   0  0  0  0  0  0  0  0  0  0  0  0
   44.0490   24.5670   36.6020 C   0  0  0  0  0  0  0  0  0  0  0  0
   43.1250   25.2040   35.8870 N   0  0  0  0  0  0  0  0  0  0  0  0
   44.8680   25.4110   37.5230 C   0  0  0  0  0  0  0  0  0  0  0  0
   44.1600   25.7350   38.6400 F   0  0  0  0  0  0  0  0  0  0  0  0
   45.3740   26.5000   36.8450 F   0  0  0  0  0  0  0  0  0  0  0  0
   45.9490   24.5940   37.9030 F   0  0  0  0  0  0  0  0  0  0  0  0
   43.6530   21.0790   35.5040 C   0  0  0  0  0  0  0  0  0  0  0  0
   42.5580   20.5360   34.8400 F   0  0  0  0  0  0  0  0  0  0  0  0
   44.7780   20.8280   34.7850 F   0  0  0  0  0  0  0  0  0  0  0  0
   43.6870   20.4570   36.7560 F   0  0  0  0  0  0  0  0  0  0  0  0
   38.9401   24.5891   34.1058 H   0  0  0  0  0  0  0  0  0  0  0  0
   40.3919   27.1719   33.8745 H   0  0  0  0  0  0  0  0  0  0  0  0
   40.8929   27.1214   35.3416 H   0  0  0  0  0  0  0  0  0  0  0  0
   41.7339   24.8275   33.1675 H   0  0  0  0  0  0  0  0  0  0  0  0
   38.4694   22.8525   39.1946 H   0  0  0  0  0  0  0  0  0  0  0  0
   37.2113   24.8882   38.3035 H   0  0  0  0  0  0  0  0  0  0  0  0
   41.2662   21.2742   37.4240 H   0  0  0  0  0  0  0  0  0  0  0  0
   40.1967   21.2659   38.8519 H   0  0  0  0  0  0  0  0  0  0  0  0
   41.8738   22.6695   34.2018 H   0  0  0  0  0  0  0  0  0  0  0  0
  1  2  1  0
  1  8  1  0
  3  1  1  0
  3  2  1  0
  3 11  1  0
  4 10  1  0
  4  5  2  0
  6  5  1  0
  7  6  2  0
  8  9  2  0
  8  7  1  0
  9  4  1  0
 11 16  1  0
 12 11  2  0
 12 13  1  0
 13 14  2  0
 14 15  1  0
 15 17  1  0
 16 15  2  0
 17 20  1  0
 17 18  1  0
 19 17  1  0
 21 13  1  0
 21 24  1  0
 22 21  1  0
 23 21  1  0
  1 25  1  6
  2 26  1  0
  2 27  1  0
  3 28  1  6
  5 29  1  0
  6 30  1  0
 10 31  1  0
 10 32  1  0
 12 33  1  0
M  ISO  7  25  13  26  13  27  13  28  13  29  14  30  14  33  14
M  END
>  <minimizedAffinity>  (1) 
-5.6113534

>  <minimizedRMSD>  (1) 
0.368319362

$$$$
