
     RDKit          3D

 26 27  0  0  0  0  0  0  0  0999 V2000
   39.2800   26.3330   34.8150 C   0  0  0  0  0  0  0  0  0  0  0  0
   38.2280   27.1220   34.1220 C   0  0  0  0  0  0  0  0  0  0  0  0
   37.2260   27.6960   34.8650 C   0  0  0  0  0  0  0  0  0  0  0  0
   36.1810   28.4620   34.3280 C   0  0  0  0  0  0  0  0  0  0  0  0
   36.1970   28.6210   32.9740 N   0  0  0  0  0  0  0  0  0  0  0  0
   37.1740   28.0640   32.2220 C   0  0  0  0  0  0  0  0  0  0  0  0
   38.1510   27.3370   32.8180 N   0  0  0  0  0  0  0  0  0  0  0  0
   37.1500   28.2580   30.8090 N   0  0  0  0  0  0  0  0  0  0  0  0
   39.0480   24.8430   34.7190 C   0  0  0  0  0  0  0  0  0  0  0  0
   39.7670   22.8120   37.7780 C   0  0  0  0  0  0  0  0  0  0  0  0
   38.8100   23.3180   38.6670 C   0  0  0  0  0  0  0  0  0  0  0  0
   37.9380   24.3300   38.2340 C   0  0  0  0  0  0  0  0  0  0  0  0
   38.0730   24.7730   36.9460 N   0  0  0  0  0  0  0  0  0  0  0  0
   39.0050   24.2660   36.1140 C   0  0  0  0  0  0  0  0  0  0  0  0
   39.8400   23.3020   36.5150 N   0  0  0  0  0  0  0  0  0  0  0  0
   40.2535   26.5678   34.3599 H   0  0  0  0  0  0  0  0  0  0  0  0
   39.2532   26.6060   35.8802 H   0  0  0  0  0  0  0  0  0  0  0  0
   37.2441   27.5449   35.9544 H   0  0  0  0  0  0  0  0  0  0  0  0
   35.3977   28.9065   34.9596 H   0  0  0  0  0  0  0  0  0  0  0  0
   36.3977   28.8142   30.3782 H   0  0  0  0  0  0  0  0  0  0  0  0
   37.8850   27.8418   30.2195 H   0  0  0  0  0  0  0  0  0  0  0  0
   38.0925   24.6497   34.2094 H   0  0  0  0  0  0  0  0  0  0  0  0
   39.8615   24.3744   34.1457 H   0  0  0  0  0  0  0  0  0  0  0  0
   40.4573   22.0196   38.1030 H   0  0  0  0  0  0  0  0  0  0  0  0
   38.7423   22.9270   39.6929 H   0  0  0  0  0  0  0  0  0  0  0  0
   37.1748   24.7510   38.9050 H   0  0  0  0  0  0  0  0  0  0  0  0
  2  1  1  0
  2  3  2  0
  4  3  1  0
  5  4  2  0
  6  7  2  0
  6  5  1  0
  7  2  1  0
  8  6  1  0
  9  1  1  0
  9 14  1  0
 10 11  2  0
 12 11  1  0
 13 12  2  0
 14 15  2  0
 14 13  1  0
 15 10  1  0
  1 16  1  0
  1 17  1  0
  3 18  1  0
  4 19  1  0
  8 20  1  0
  8 21  1  0
  9 22  1  0
  9 23  1  0
 10 24  1  0
 11 25  1  0
 12 26  1  0
M  ISO  8  16   8  17   8  18  14  19  14  22   8  23   8  24  14  25  14
M  ISO  1  26  14
M  END
>  <minimizedAffinity>  (1) 
-4.12807178

>  <minimizedRMSD>  (1) 
0.019034924

$$$$
