
     RDKit          3D

 37 40  0  0  1  0  0  0  0  0999 V2000
   39.7630   24.9560   34.5330 C   0  0  1  0  0  0  0  0  0  0  0  0
   40.5700   26.2980   34.4910 C   0  0  0  0  0  0  0  0  0  0  0  0
   41.1330   25.0480   34.0130 C   0  0  1  0  0  0  0  0  0  0  0  0
   39.8310   22.8080   37.4660 C   0  0  0  0  0  0  0  0  0  0  0  0
   38.8080   23.3280   38.2840 C   0  0  0  0  0  0  0  0  0  0  0  0
   38.0990   24.4500   37.8000 C   0  0  0  0  0  0  0  0  0  0  0  0
   38.4470   24.9540   36.5780 N   0  0  0  0  0  0  0  0  0  0  0  0
   39.4120   24.4280   35.8550 C   0  0  0  0  0  0  0  0  0  0  0  0
   40.1180   23.3640   36.2680 N   0  0  0  0  0  0  0  0  0  0  0  0
   40.5280   21.6770   37.9520 N   0  0  0  0  0  0  0  0  0  0  0  0
   42.2350   24.5130   34.8750 C   0  0  0  0  0  0  0  0  0  0  0  0
   42.4990   23.1860   34.7040 C   0  0  0  0  0  0  0  0  0  0  0  0
   43.5100   22.5140   35.4060 C   0  0  0  0  0  0  0  0  0  0  0  0
   44.2560   23.1830   36.2840 N   0  0  0  0  0  0  0  0  0  0  0  0
   43.9970   24.5020   36.4570 C   0  0  0  0  0  0  0  0  0  0  0  0
   43.0330   25.1280   35.7830 N   0  0  0  0  0  0  0  0  0  0  0  0
   44.7820   25.3380   37.4130 C   0  0  0  0  0  0  0  0  0  0  0  0
   44.0530   25.6120   38.5270 F   0  0  0  0  0  0  0  0  0  0  0  0
   45.2710   26.4560   36.7730 F   0  0  0  0  0  0  0  0  0  0  0  0
   45.8780   24.5350   37.7830 F   0  0  0  0  0  0  0  0  0  0  0  0
   43.7670   21.0590   35.1890 C   0  0  0  0  0  0  0  0  0  0  0  0
   44.7360   20.3390   36.0400 C   0  0  0  0  0  0  0  0  0  0  0  0
   43.2780   20.1820   36.3230 C   0  0  0  0  0  0  0  0  0  0  0  0
   38.8332   24.5259   34.1325 H   0  0  0  0  0  0  0  0  0  0  0  0
   40.2933   27.0903   33.7799 H   0  0  0  0  0  0  0  0  0  0  0  0
   40.8619   27.0664   35.2220 H   0  0  0  0  0  0  0  0  0  0  0  0
   41.5749   24.7149   33.0623 H   0  0  0  0  0  0  0  0  0  0  0  0
   38.5712   22.8785   39.2597 H   0  0  0  0  0  0  0  0  0  0  0  0
   37.2898   24.9052   38.3899 H   0  0  0  0  0  0  0  0  0  0  0  0
   41.2847   21.2586   37.3923 H   0  0  0  0  0  0  0  0  0  0  0  0
   40.2788   21.2719   38.8656 H   0  0  0  0  0  0  0  0  0  0  0  0
   41.8922   22.6178   33.9837 H   0  0  0  0  0  0  0  0  0  0  0  0
   43.6474   21.1274   34.0977 H   0  0  0  0  0  0  0  0  0  0  0  0
   45.3060   19.4947   35.6249 H   0  0  0  0  0  0  0  0  0  0  0  0
   45.6084   20.6406   36.6383 H   0  0  0  0  0  0  0  0  0  0  0  0
   42.8370   20.6358   37.2228 H   0  0  0  0  0  0  0  0  0  0  0  0
   42.5835   19.3340   36.4159 H   0  0  0  0  0  0  0  0  0  0  0  0
  1  8  1  0
  2  1  1  0
  3  2  1  0
  3  1  1  0
  3 11  1  0
  4 10  1  0
  4  5  2  0
  6  5  1  0
  7  6  2  0
  8  9  2  0
  8  7  1  0
  9  4  1  0
 11 16  1  0
 12 11  2  0
 12 13  1  0
 13 14  2  0
 14 15  1  0
 15 17  1  0
 16 15  2  0
 17 20  1  0
 17 18  1  0
 19 17  1  0
 21 13  1  0
 21 22  1  0
 21 23  1  0
 22 23  1  0
  1 24  1  6
  2 25  1  0
  2 26  1  0
  3 27  1  6
  5 28  1  0
  6 29  1  0
 10 30  1  0
 10 31  1  0
 12 32  1  0
 21 33  1  0
 22 34  1  0
 22 35  1  0
 23 36  1  0
 23 37  1  0
M  ISO  8  24  13  25  13  26  13  27  13  28  14  29  14  32  14  33  13
M  ISO  4  34  13  35  13  36  13  37  13
M  END
>  <minimizedAffinity>  (1) 
-5.49328184

>  <minimizedRMSD>  (1) 
0.398055762

$$$$
