
     RDKit          3D

 31 33  0  0  1  0  0  0  0  0999 V2000
   39.5970   25.1260   34.6950 C   0  0  1  0  0  0  0  0  0  0  0  0
   40.4140   26.4620   34.6990 C   0  0  0  0  0  0  0  0  0  0  0  0
   40.9510   25.2430   34.1180 C   0  0  1  0  0  0  0  0  0  0  0  0
   39.8080   22.8180   37.4990 C   0  0  0  0  0  0  0  0  0  0  0  0
   38.8090   23.2720   38.3800 C   0  0  0  0  0  0  0  0  0  0  0  0
   38.0580   24.4130   37.9870 C   0  0  0  0  0  0  0  0  0  0  0  0
   38.3610   24.9860   36.7810 N   0  0  0  0  0  0  0  0  0  0  0  0
   39.3070   24.5180   35.9980 C   0  0  0  0  0  0  0  0  0  0  0  0
   40.0410   23.4500   36.3230 N   0  0  0  0  0  0  0  0  0  0  0  0
   40.5350   21.6760   37.9030 N   0  0  0  0  0  0  0  0  0  0  0  0
   42.0830   24.6530   34.8960 C   0  0  0  0  0  0  0  0  0  0  0  0
   42.3090   23.3270   34.6620 C   0  0  0  0  0  0  0  0  0  0  0  0
   43.3390   22.6060   35.2810 C   0  0  0  0  0  0  0  0  0  0  0  0
   44.1480   23.2250   36.1420 N   0  0  0  0  0  0  0  0  0  0  0  0
   43.9270   24.5440   36.3800 C   0  0  0  0  0  0  0  0  0  0  0  0
   42.9440   25.2120   35.7830 N   0  0  0  0  0  0  0  0  0  0  0  0
   44.7820   25.3240   37.3230 C   0  0  0  0  0  0  0  0  0  0  0  0
   44.1060   25.6010   38.4700 F   0  0  0  0  0  0  0  0  0  0  0  0
   45.2930   26.4350   36.6870 F   0  0  0  0  0  0  0  0  0  0  0  0
   45.8560   24.4690   37.6350 F   0  0  0  0  0  0  0  0  0  0  0  0
   43.5450   21.2630   35.0250 O   0  0  0  0  0  0  0  0  0  0  0  0
   38.6455   24.7290   34.3116 H   0  0  0  0  0  0  0  0  0  0  0  0
   40.1120   27.2984   34.0516 H   0  0  0  0  0  0  0  0  0  0  0  0
   40.7433   27.1809   35.4637 H   0  0  0  0  0  0  0  0  0  0  0  0
   41.3498   24.9681   33.1304 H   0  0  0  0  0  0  0  0  0  0  0  0
   38.6167   22.7634   39.3362 H   0  0  0  0  0  0  0  0  0  0  0  0
   37.2626   24.8207   38.6282 H   0  0  0  0  0  0  0  0  0  0  0  0
   41.2785   21.2984   37.2985 H   0  0  0  0  0  0  0  0  0  0  0  0
   40.3215   21.2210   38.8021 H   0  0  0  0  0  0  0  0  0  0  0  0
   41.6519   22.8000   33.9545 H   0  0  0  0  0  0  0  0  0  0  0  0
   44.2812   20.7800   35.4777 H   0  0  0  0  0  0  0  0  0  0  0  0
  1  2  1  0
  1  8  1  0
  3  1  1  0
  3  2  1  0
  3 11  1  0
  4 10  1  0
  4  5  2  0
  6  5  1  0
  7  6  2  0
  8  9  2  0
  8  7  1  0
  9  4  1  0
 11 16  1  0
 12 11  2  0
 12 13  1  0
 13 14  2  0
 14 15  1  0
 15 17  1  0
 16 15  2  0
 17 20  1  0
 17 18  1  0
 19 17  1  0
 21 13  1  0
  1 22  1  6
  2 23  1  0
  2 24  1  0
  3 25  1  6
  5 26  1  0
  6 27  1  0
 10 28  1  0
 10 29  1  0
 12 30  1  0
 21 31  1  0
M  ISO  8  22  13  23  13  24  13  25  13  26  14  27  14  30  14  31   3
M  END
>  <minimizedAffinity>  (1) 
-5.49165583

>  <minimizedRMSD>  (1) 
0.0268910993

$$$$
