
     RDKit          3D

 36 38  0  0  1  0  0  0  0  0999 V2000
   39.6170   25.1030   34.6820 C   0  0  1  0  0  0  0  0  0  0  0  0
   40.4430   26.4350   34.6840 C   0  0  0  0  0  0  0  0  0  0  0  0
   40.9850   25.2110   34.1170 C   0  0  1  0  0  0  0  0  0  0  0  0
   39.8010   22.8190   37.5070 C   0  0  0  0  0  0  0  0  0  0  0  0
   38.7910   23.2850   38.3750 C   0  0  0  0  0  0  0  0  0  0  0  0
   38.0490   24.4210   37.9630 C   0  0  0  0  0  0  0  0  0  0  0  0
   38.3650   24.9790   36.7600 N   0  0  0  0  0  0  0  0  0  0  0  0
   39.3190   24.5030   35.9880 C   0  0  0  0  0  0  0  0  0  0  0  0
   40.0470   23.4390   36.3280 N   0  0  0  0  0  0  0  0  0  0  0  0
   40.5190   21.6830   37.9200 N   0  0  0  0  0  0  0  0  0  0  0  0
   42.1070   24.6230   34.9120 C   0  0  0  0  0  0  0  0  0  0  0  0
   42.3200   23.2920   34.7060 C   0  0  0  0  0  0  0  0  0  0  0  0
   43.3390   22.5730   35.3450 C   0  0  0  0  0  0  0  0  0  0  0  0
   44.1500   23.2070   36.1980 N   0  0  0  0  0  0  0  0  0  0  0  0
   43.9430   24.5320   36.4080 C   0  0  0  0  0  0  0  0  0  0  0  0
   42.9680   25.1960   35.7910 N   0  0  0  0  0  0  0  0  0  0  0  0
   44.7990   25.3210   37.3360 C   0  0  0  0  0  0  0  0  0  0  0  0
   44.1290   25.6120   38.4820 F   0  0  0  0  0  0  0  0  0  0  0  0
   45.3060   26.4280   36.6870 F   0  0  0  0  0  0  0  0  0  0  0  0
   45.8740   24.4720   37.6560 F   0  0  0  0  0  0  0  0  0  0  0  0
   43.5530   21.1410   35.1090 C   0  0  0  0  0  0  0  0  0  0  0  0
   43.6130   20.3220   36.3590 C   0  0  0  0  0  0  0  0  0  0  0  0
   38.6660   24.7107   34.2924 H   0  0  0  0  0  0  0  0  0  0  0  0
   40.1519   27.2679   34.0271 H   0  0  0  0  0  0  0  0  0  0  0  0
   40.7667   27.1573   35.4479 H   0  0  0  0  0  0  0  0  0  0  0  0
   41.3950   24.9279   33.1363 H   0  0  0  0  0  0  0  0  0  0  0  0
   38.5871   22.7864   39.3341 H   0  0  0  0  0  0  0  0  0  0  0  0
   37.2475   24.8369   38.5913 H   0  0  0  0  0  0  0  0  0  0  0  0
   41.2671   21.3016   37.3235 H   0  0  0  0  0  0  0  0  0  0  0  0
   40.2969   21.2322   38.8191 H   0  0  0  0  0  0  0  0  0  0  0  0
   41.6612   22.7578   34.0056 H   0  0  0  0  0  0  0  0  0  0  0  0
   42.7263   20.7652   34.4883 H   0  0  0  0  0  0  0  0  0  0  0  0
   44.5312   21.0419   34.6157 H   0  0  0  0  0  0  0  0  0  0  0  0
   43.5644   20.9857   37.2349 H   0  0  0  0  0  0  0  0  0  0  0  0
   42.7636   19.6234   36.3807 H   0  0  0  0  0  0  0  0  0  0  0  0
   44.5551   19.7546   36.3807 H   0  0  0  0  0  0  0  0  0  0  0  0
  1  2  1  0
  1  8  1  0
  3  1  1  0
  3  2  1  0
  3 11  1  0
  4 10  1  0
  4  5  2  0
  6  5  1  0
  7  6  2  0
  8  9  2  0
  8  7  1  0
  9  4  1  0
 11 16  1  0
 12 11  2  0
 12 13  1  0
 13 14  2  0
 14 15  1  0
 15 17  1  0
 16 15  2  0
 17 20  1  0
 17 18  1  0
 19 17  1  0
 21 13  1  0
 21 22  1  0
  1 23  1  6
  2 24  1  0
  2 25  1  0
  3 26  1  6
  5 27  1  0
  6 28  1  0
 10 29  1  0
 10 30  1  0
 12 31  1  0
 21 32  1  0
 21 33  1  0
 22 34  1  0
 22 35  1  0
 22 36  1  0
M  ISO  8  23  13  24  13  25  13  26  13  27  14  28  14  31  14  32   8
M  ISO  4  33   8  34   8  35   8  36   8
M  END
>  <minimizedAffinity>  (1) 
-5.43775892

>  <minimizedRMSD>  (1) 
0.150432691

$$$$
