
     RDKit          3D

 43 46  0  0  1  0  0  0  0  0999 V2000
   42.3360   24.5970   35.0330 C   0  0  0  0  0  0  0  0  0  0  0  0
   42.4800   23.2510   35.0520 C   0  0  0  0  0  0  0  0  0  0  0  0
   43.4210   22.5760   35.8380 C   0  0  0  0  0  0  0  0  0  0  0  0
   44.2370   23.3040   36.6240 N   0  0  0  0  0  0  0  0  0  0  0  0
   44.1080   24.6410   36.6160 C   0  0  0  0  0  0  0  0  0  0  0  0
   43.2040   25.2510   35.8610 N   0  0  0  0  0  0  0  0  0  0  0  0
   43.4950   21.0910   35.7990 C   0  0  0  0  0  0  0  0  0  0  0  0
   44.0430   20.4070   34.7150 C   0  0  0  0  0  0  0  0  0  0  0  0
   43.8540   18.6390   35.2440 S   0  0  0  0  0  0  0  0  0  0  0  0
   43.0520   19.1790   36.8680 C   0  0  0  0  0  0  0  0  0  0  0  0
   43.0570   20.3370   36.7690 N   0  0  0  0  0  0  0  0  0  0  0  0
   42.6290   18.1830   37.8230 N   0  0  0  0  0  0  0  0  0  0  0  0
   43.1060   16.8300   37.6760 C   0  0  0  0  0  0  0  0  0  0  0  0
   43.2500   16.5070   36.4130 N   0  0  0  0  0  0  0  0  0  0  0  0
   43.3270   16.1080   38.9060 N   0  0  0  0  0  0  0  0  0  0  0  0
   43.5950   15.5360   36.2440 H   0  0  0  0  0  0  0  0  0  0  0  0
   39.8760   25.0010   34.5680 C   0  0  1  0  0  0  0  0  0  0  0  0
   40.6780   26.3610   34.5620 C   0  0  0  0  0  0  0  0  0  0  0  0
   41.2760   25.1330   34.1080 C   0  0  1  0  0  0  0  0  0  0  0  0
   39.7920   22.8220   37.4660 C   0  0  0  0  0  0  0  0  0  0  0  0
   38.7300   23.3320   38.2330 C   0  0  0  0  0  0  0  0  0  0  0  0
   38.0450   24.4670   37.7230 C   0  0  0  0  0  0  0  0  0  0  0  0
   38.4640   24.9850   36.5220 N   0  0  0  0  0  0  0  0  0  0  0  0
   39.4600   24.4640   35.8550 C   0  0  0  0  0  0  0  0  0  0  0  0
   40.1370   23.3980   36.2930 N   0  0  0  0  0  0  0  0  0  0  0  0
   40.4510   21.6840   37.9790 N   0  0  0  0  0  0  0  0  0  0  0  0
   44.9820   25.5150   37.4490 C   0  0  0  0  0  0  0  0  0  0  0  0
   44.2860   26.0660   38.4640 F   0  0  0  0  0  0  0  0  0  0  0  0
   45.6270   26.4440   36.6450 F   0  0  0  0  0  0  0  0  0  0  0  0
   45.9630   24.6610   37.9780 F   0  0  0  0  0  0  0  0  0  0  0  0
   41.8172   22.6514   34.4107 H   0  0  0  0  0  0  0  0  0  0  0  0
   44.4750   20.8106   33.7874 H   0  0  0  0  0  0  0  0  0  0  0  0
   41.9970   18.4343   38.5966 H   0  0  0  0  0  0  0  0  0  0  0  0
   43.6676   15.1363   38.8787 H   0  0  0  0  0  0  0  0  0  0  0  0
   43.1442   16.5644   39.8111 H   0  0  0  0  0  0  0  0  0  0  0  0
   38.9735   24.5517   34.1279 H   0  0  0  0  0  0  0  0  0  0  0  0
   40.4220   27.1521   33.8418 H   0  0  0  0  0  0  0  0  0  0  0  0
   40.9291   27.1294   35.3080 H   0  0  0  0  0  0  0  0  0  0  0  0
   41.7707   24.8261   33.1747 H   0  0  0  0  0  0  0  0  0  0  0  0
   38.4413   22.8709   39.1891 H   0  0  0  0  0  0  0  0  0  0  0  0
   37.2052   24.9170   38.2727 H   0  0  0  0  0  0  0  0  0  0  0  0
   41.2367   21.2663   37.4602 H   0  0  0  0  0  0  0  0  0  0  0  0
   40.1462   21.2713   38.8721 H   0  0  0  0  0  0  0  0  0  0  0  0
  1  2  2  0
  1  6  1  0
  2  3  1  0
  3  4  2  0
  5  4  1  0
  5 27  1  0
  6  5  2  0
  7  3  1  0
  7 11  1  0
  8  9  1  0
  8  7  2  0
  9 10  1  0
 10 12  1  0
 11 10  2  0
 13 12  1  0
 13 15  1  0
 14 13  2  0
 16 14  1  0
 17 24  1  0
 18 17  1  0
 19 18  1  0
 19 17  1  0
 19  1  1  0
 20 26  1  0
 20 21  2  0
 22 21  1  0
 23 22  2  0
 24 25  2  0
 24 23  1  0
 25 20  1  0
 27 30  1  0
 27 28  1  0
 29 27  1  0
  2 31  1  0
  8 32  1  0
 12 33  1  0
 15 34  1  0
 15 35  1  0
 17 36  1  6
 18 37  1  0
 18 38  1  0
 19 39  1  6
 21 40  1  0
 22 41  1  0
 26 42  1  0
 26 43  1  0
M  ISO  8  31  14  32  14  36  13  37  13  38  13  39  13  40  14  41  14
M  END
>  <minimizedAffinity>  (1) 
-6.79361773

>  <minimizedRMSD>  (1) 
0.095530577

$$$$
