
     RDKit          3D

 50 54  0  0  1  0  0  0  0  0999 V2000
   42.0200   24.6400   34.9200 C   0  0  0  0  0  0  0  0  0  0  0  0
   42.1760   23.3100   34.7290 C   0  0  0  0  0  0  0  0  0  0  0  0
   43.1720   22.5420   35.3380 C   0  0  0  0  0  0  0  0  0  0  0  0
   44.0350   23.1610   36.1670 N   0  0  0  0  0  0  0  0  0  0  0  0
   43.8960   24.4840   36.3670 C   0  0  0  0  0  0  0  0  0  0  0  0
   42.9370   25.1820   35.7740 N   0  0  0  0  0  0  0  0  0  0  0  0
   43.2570   21.0840   35.0750 C   0  0  0  0  0  0  0  0  0  0  0  0
   43.0290   20.5500   33.8050 C   0  0  0  0  0  0  0  0  0  0  0  0
   43.2710   18.7430   34.1030 S   0  0  0  0  0  0  0  0  0  0  0  0
   43.6490   19.0560   35.9510 C   0  0  0  0  0  0  0  0  0  0  0  0
   43.5470   20.2160   36.0060 N   0  0  0  0  0  0  0  0  0  0  0  0
   43.9380   17.9530   36.7740 N   0  0  0  0  0  0  0  0  0  0  0  0
   45.2960   17.6350   37.2370 C   0  0  0  0  0  0  0  0  0  0  0  0
   45.2340   16.6900   38.4260 C   0  0  0  0  0  0  0  0  0  0  0  0
   44.7170   15.4430   37.9060 N   0  0  0  0  0  0  0  0  0  0  0  0
   43.3840   15.6350   37.4410 C   0  0  0  0  0  0  0  0  0  0  0  0
   42.9300   17.0250   37.2470 C   0  0  0  0  0  0  0  0  0  0  0  0
   39.5470   25.1820   34.7580 C   0  0  1  0  0  0  0  0  0  0  0  0
   40.4100   26.5020   34.7560 C   0  0  0  0  0  0  0  0  0  0  0  0
   40.8930   25.2880   34.1550 C   0  0  1  0  0  0  0  0  0  0  0  0
   39.7390   22.8490   37.5280 C   0  0  0  0  0  0  0  0  0  0  0  0
   38.7330   23.2940   38.4060 C   0  0  0  0  0  0  0  0  0  0  0  0
   37.9880   24.4380   38.0170 C   0  0  0  0  0  0  0  0  0  0  0  0
   38.2990   25.0300   36.8160 N   0  0  0  0  0  0  0  0  0  0  0  0
   39.2470   24.5690   36.0440 C   0  0  0  0  0  0  0  0  0  0  0  0
   39.9760   23.4950   36.3670 N   0  0  0  0  0  0  0  0  0  0  0  0
   40.4540   21.7040   37.9220 N   0  0  0  0  0  0  0  0  0  0  0  0
   44.8190   25.2430   37.2610 C   0  0  0  0  0  0  0  0  0  0  0  0
   44.2200   25.5410   38.4310 F   0  0  0  0  0  0  0  0  0  0  0  0
   45.3230   26.3470   36.5900 F   0  0  0  0  0  0  0  0  0  0  0  0
   45.8940   24.3730   37.5030 F   0  0  0  0  0  0  0  0  0  0  0  0
   41.4746   22.8009   34.0516 H   0  0  0  0  0  0  0  0  0  0  0  0
   42.7721   21.0700   32.8703 H   0  0  0  0  0  0  0  0  0  0  0  0
   45.8561   17.1561   36.4203 H   0  0  0  0  0  0  0  0  0  0  0  0
   45.7997   18.5643   37.5413 H   0  0  0  0  0  0  0  0  0  0  0  0
   46.2376   16.5419   38.8514 H   0  0  0  0  0  0  0  0  0  0  0  0
   44.5992   17.0896   39.2305 H   0  0  0  0  0  0  0  0  0  0  0  0
   45.3097   15.1249   37.1260 H   0  0  0  0  0  0  0  0  0  0  0  0
   43.2939   15.1196   36.4734 H   0  0  0  0  0  0  0  0  0  0  0  0
   42.7446   15.2379   38.2431 H   0  0  0  0  0  0  0  0  0  0  0  0
   42.5545   17.3962   38.2120 H   0  0  0  0  0  0  0  0  0  0  0  0
   42.1647   16.9842   36.4579 H   0  0  0  0  0  0  0  0  0  0  0  0
   38.5805   24.8054   34.3917 H   0  0  0  0  0  0  0  0  0  0  0  0
   40.1174   27.3543   34.1251 H   0  0  0  0  0  0  0  0  0  0  0  0
   40.7786   27.2018   35.5205 H   0  0  0  0  0  0  0  0  0  0  0  0
   41.2679   25.0304   33.1535 H   0  0  0  0  0  0  0  0  0  0  0  0
   38.5321   22.7761   39.3555 H   0  0  0  0  0  0  0  0  0  0  0  0
   37.1872   24.8381   38.6563 H   0  0  0  0  0  0  0  0  0  0  0  0
   41.2022   21.3316   37.3200 H   0  0  0  0  0  0  0  0  0  0  0  0
   40.2295   21.2378   38.8126 H   0  0  0  0  0  0  0  0  0  0  0  0
  1  6  1  0
  2  1  2  0
  2  3  1  0
  3  4  2  0
  4  5  1  0
  5 28  1  0
  6  5  2  0
  7  3  1  0
  7 11  1  0
  8  9  1  0
  8  7  2  0
  9 10  1  0
 10 11  2  0
 10 12  1  0
 12 13  1  0
 12 17  1  0
 13 14  1  0
 15 14  1  0
 16 15  1  0
 17 16  1  0
 18 25  1  0
 19 18  1  0
 20 19  1  0
 20 18  1  0
 20  1  1  0
 21 27  1  0
 21 22  2  0
 23 22  1  0
 24 23  2  0
 25 26  2  0
 25 24  1  0
 26 21  1  0
 28 31  1  0
 28 29  1  0
 30 28  1  0
  2 32  1  0
  8 33  1  0
 13 34  1  0
 13 35  1  0
 14 36  1  0
 14 37  1  0
 15 38  1  0
 16 39  1  0
 16 40  1  0
 17 41  1  0
 17 42  1  0
 18 43  1  6
 19 44  1  0
 19 45  1  0
 20 46  1  6
 22 47  1  0
 23 48  1  0
 27 49  1  0
 27 50  1  0
M  ISO  8  32  14  33  14  34  13  35  13  36  13  37  13  38   5  39  13
M  ISO  8  40  13  41  13  42  13  43  13  44  13  45  13  46  13  47  14
M  ISO  1  48  14
M  END
>  <minimizedAffinity>  (1) 
-6.30872726

>  <minimizedRMSD>  (1) 
1.1184119

$$$$
