
     RDKit          3D

 48 52  0  0  1  0  0  0  0  0999 V2000
   42.1880   24.5410   34.9140 C   0  0  0  0  0  0  0  0  0  0  0  0
   42.3720   23.2080   34.8020 C   0  0  0  0  0  0  0  0  0  0  0  0
   43.3450   22.4720   35.4960 C   0  0  0  0  0  0  0  0  0  0  0  0
   44.1600   23.1560   36.3430 N   0  0  0  0  0  0  0  0  0  0  0  0
   43.9920   24.4800   36.4660 C   0  0  0  0  0  0  0  0  0  0  0  0
   43.0490   25.1400   35.7830 N   0  0  0  0  0  0  0  0  0  0  0  0
   43.4620   21.0090   35.3160 C   0  0  0  0  0  0  0  0  0  0  0  0
   43.2860   20.4080   34.0620 C   0  0  0  0  0  0  0  0  0  0  0  0
   43.5300   18.6160   34.4640 S   0  0  0  0  0  0  0  0  0  0  0  0
   43.8300   19.0270   36.2960 C   0  0  0  0  0  0  0  0  0  0  0  0
   43.7200   20.1880   36.2860 N   0  0  0  0  0  0  0  0  0  0  0  0
   44.0650   17.9240   37.1380 N   0  0  0  0  0  0  0  0  0  0  0  0
   42.8860   17.1100   37.4370 C   0  0  0  0  0  0  0  0  0  0  0  0
   43.5440   15.7490   37.6470 C   0  0  0  0  0  0  0  0  0  0  0  0
   44.6870   16.1650   38.5480 C   0  0  0  0  0  0  0  0  0  0  0  0
   45.2340   17.3650   37.8070 C   0  0  0  0  0  0  0  0  0  0  0  0
   39.7080   25.0310   34.5950 C   0  0  1  0  0  0  0  0  0  0  0  0
   40.5510   26.3650   34.5660 C   0  0  0  0  0  0  0  0  0  0  0  0
   41.0980   25.1300   34.0680 C   0  0  1  0  0  0  0  0  0  0  0  0
   39.7700   22.8330   37.4790 C   0  0  0  0  0  0  0  0  0  0  0  0
   38.7430   23.3240   38.2950 C   0  0  0  0  0  0  0  0  0  0  0  0
   38.0180   24.4570   37.8280 C   0  0  0  0  0  0  0  0  0  0  0  0
   38.3840   24.9810   36.6120 N   0  0  0  0  0  0  0  0  0  0  0  0
   39.3580   24.4770   35.8930 C   0  0  0  0  0  0  0  0  0  0  0  0
   40.0640   23.4130   36.2980 N   0  0  0  0  0  0  0  0  0  0  0  0
   40.4760   21.6950   37.9500 N   0  0  0  0  0  0  0  0  0  0  0  0
   44.8550   25.2950   37.3650 C   0  0  0  0  0  0  0  0  0  0  0  0
   44.1940   25.6220   38.4980 F   0  0  0  0  0  0  0  0  0  0  0  0
   45.3640   26.3890   36.6730 F   0  0  0  0  0  0  0  0  0  0  0  0
   45.9370   24.4610   37.6880 F   0  0  0  0  0  0  0  0  0  0  0  0
   41.7105   22.6583   34.1162 H   0  0  0  0  0  0  0  0  0  0  0  0
   43.0617   20.8775   33.0928 H   0  0  0  0  0  0  0  0  0  0  0  0
   42.3703   17.4576   38.3443 H   0  0  0  0  0  0  0  0  0  0  0  0
   42.1034   17.1299   36.6643 H   0  0  0  0  0  0  0  0  0  0  0  0
   42.8675   15.0376   38.1432 H   0  0  0  0  0  0  0  0  0  0  0  0
   43.8386   15.2228   36.7271 H   0  0  0  0  0  0  0  0  0  0  0  0
   44.3283   16.4411   39.5506 H   0  0  0  0  0  0  0  0  0  0  0  0
   45.4283   15.3723   38.7269 H   0  0  0  0  0  0  0  0  0  0  0  0
   45.9957   17.0594   37.0746 H   0  0  0  0  0  0  0  0  0  0  0  0
   45.7283   18.0872   38.4734 H   0  0  0  0  0  0  0  0  0  0  0  0
   38.7673   24.6240   34.1957 H   0  0  0  0  0  0  0  0  0  0  0  0
   40.2842   27.1726   33.8684 H   0  0  0  0  0  0  0  0  0  0  0  0
   40.8580   27.1147   35.3101 H   0  0  0  0  0  0  0  0  0  0  0  0
   41.5432   24.8272   33.1088 H   0  0  0  0  0  0  0  0  0  0  0  0
   38.5055   22.8523   39.2599 H   0  0  0  0  0  0  0  0  0  0  0  0
   37.1984   24.8948   38.4168 H   0  0  0  0  0  0  0  0  0  0  0  0
   41.2405   21.2942   37.3880 H   0  0  0  0  0  0  0  0  0  0  0  0
   40.2237   21.2701   38.8537 H   0  0  0  0  0  0  0  0  0  0  0  0
  1  6  1  0
  2  1  2  0
  2  3  1  0
  3  4  2  0
  4  5  1  0
  5 27  1  0
  6  5  2  0
  7  3  1  0
  7 11  1  0
  8  9  1  0
  8  7  2  0
  9 10  1  0
 10 12  1  0
 11 10  2  0
 12 13  1  0
 12 16  1  0
 13 14  1  0
 14 15  1  0
 16 15  1  0
 17 24  1  0
 18 17  1  0
 19 18  1  0
 19 17  1  0
 19  1  1  0
 20 26  1  0
 20 21  2  0
 22 21  1  0
 23 22  2  0
 24 25  2  0
 24 23  1  0
 25 20  1  0
 27 30  1  0
 27 28  1  0
 29 27  1  0
  2 31  1  0
  8 32  1  0
 13 33  1  0
 13 34  1  0
 14 35  1  0
 14 36  1  0
 15 37  1  0
 15 38  1  0
 16 39  1  0
 16 40  1  0
 17 41  1  6
 18 42  1  0
 18 43  1  0
 19 44  1  6
 21 45  1  0
 22 46  1  0
 26 47  1  0
 26 48  1  0
M  ISO  8  31  14  32  14  33  13  34  13  35  13  36  13  37  13  38  13
M  ISO  8  39  13  40  13  41  13  42  13  43  13  44  13  45  14  46  14
M  END
>  <minimizedAffinity>  (1) 
-6.30582285

>  <minimizedRMSD>  (1) 
0.892111421

$$$$
