
     RDKit          3D

 43 47  0  0  1  0  0  0  0  0999 V2000
   42.0320   24.6340   34.9140 C   0  0  0  0  0  0  0  0  0  0  0  0
   42.2090   23.3070   34.7150 C   0  0  0  0  0  0  0  0  0  0  0  0
   43.2160   22.5560   35.3300 C   0  0  0  0  0  0  0  0  0  0  0  0
   44.0600   23.1760   36.1650 N   0  0  0  0  0  0  0  0  0  0  0  0
   43.8980   24.4950   36.3750 C   0  0  0  0  0  0  0  0  0  0  0  0
   42.9340   25.1830   35.7790 N   0  0  0  0  0  0  0  0  0  0  0  0
   43.3250   21.0990   35.0530 C   0  0  0  0  0  0  0  0  0  0  0  0
   43.2010   20.5680   33.7760 C   0  0  0  0  0  0  0  0  0  0  0  0
   43.4240   18.7540   34.0760 S   0  0  0  0  0  0  0  0  0  0  0  0
   43.6510   19.0610   35.9400 C   0  0  0  0  0  0  0  0  0  0  0  0
   43.5440   20.2210   35.9980 N   0  0  0  0  0  0  0  0  0  0  0  0
   43.8830   18.0240   36.8760 N   0  0  0  0  0  0  0  0  0  0  0  0
   42.9160   17.1940   37.2910 N   0  0  0  0  0  0  0  0  0  0  0  0
   43.4430   16.3130   38.1810 C   0  0  0  0  0  0  0  0  0  0  0  0
   44.7930   16.6410   38.2960 C   0  0  0  0  0  0  0  0  0  0  0  0
   45.0560   17.7250   37.4650 C   0  0  0  0  0  0  0  0  0  0  0  0
   39.5560   25.1580   34.7460 C   0  0  1  0  0  0  0  0  0  0  0  0
   40.4110   26.4870   34.7410 C   0  0  0  0  0  0  0  0  0  0  0  0
   40.9020   25.2720   34.1480 C   0  0  1  0  0  0  0  0  0  0  0  0
   39.7550   22.8390   37.5290 C   0  0  0  0  0  0  0  0  0  0  0  0
   38.7480   23.2880   38.4040 C   0  0  0  0  0  0  0  0  0  0  0  0
   38.0010   24.4290   38.0100 C   0  0  0  0  0  0  0  0  0  0  0  0
   38.3120   25.0130   36.8090 N   0  0  0  0  0  0  0  0  0  0  0  0
   39.2590   24.5510   36.0380 C   0  0  0  0  0  0  0  0  0  0  0  0
   39.9900   23.4790   36.3650 N   0  0  0  0  0  0  0  0  0  0  0  0
   40.4720   21.6950   37.9220 N   0  0  0  0  0  0  0  0  0  0  0  0
   44.8030   25.2620   37.2810 C   0  0  0  0  0  0  0  0  0  0  0  0
   44.1940   25.5370   38.4510 F   0  0  0  0  0  0  0  0  0  0  0  0
   45.2900   26.3810   36.6240 F   0  0  0  0  0  0  0  0  0  0  0  0
   45.8940   24.4070   37.5180 F   0  0  0  0  0  0  0  0  0  0  0  0
   41.5213   22.7893   34.0301 H   0  0  0  0  0  0  0  0  0  0  0  0
   43.0169   21.0921   32.8265 H   0  0  0  0  0  0  0  0  0  0  0  0
   42.9119   15.5046   38.7048 H   0  0  0  0  0  0  0  0  0  0  0  0
   45.5266   16.1289   38.9360 H   0  0  0  0  0  0  0  0  0  0  0  0
   46.0212   18.2322   37.3195 H   0  0  0  0  0  0  0  0  0  0  0  0
   38.5943   24.7714   34.3777 H   0  0  0  0  0  0  0  0  0  0  0  0
   40.1151   27.3343   34.1049 H   0  0  0  0  0  0  0  0  0  0  0  0
   40.7726   27.1933   35.5028 H   0  0  0  0  0  0  0  0  0  0  0  0
   41.2810   25.0125   33.1485 H   0  0  0  0  0  0  0  0  0  0  0  0
   38.5477   22.7747   39.3561 H   0  0  0  0  0  0  0  0  0  0  0  0
   37.1994   24.8312   38.6469 H   0  0  0  0  0  0  0  0  0  0  0  0
   41.2199   21.3236   37.3190 H   0  0  0  0  0  0  0  0  0  0  0  0
   40.2493   21.2285   38.8129 H   0  0  0  0  0  0  0  0  0  0  0  0
  1  6  1  0
  2  1  2  0
  2  3  1  0
  3  4  2  0
  4  5  1  0
  5 27  1  0
  6  5  2  0
  7  3  1  0
  7 11  1  0
  8  9  1  0
  8  7  2  0
  9 10  1  0
 10 11  2  0
 10 12  1  0
 12 13  1  0
 12 16  1  0
 13 14  2  0
 14 15  1  0
 16 15  2  0
 17 24  1  0
 18 17  1  0
 19 18  1  0
 19 17  1  0
 19  1  1  0
 20 26  1  0
 20 21  2  0
 22 21  1  0
 23 22  2  0
 24 25  2  0
 24 23  1  0
 25 20  1  0
 27 30  1  0
 27 28  1  0
 29 27  1  0
  2 31  1  0
  8 32  1  0
 14 33  1  0
 15 34  1  0
 16 35  1  0
 17 36  1  6
 18 37  1  0
 18 38  1  0
 19 39  1  6
 21 40  1  0
 22 41  1  0
 26 42  1  0
 26 43  1  0
M  ISO  8  31  14  32  14  33  14  34  14  35  14  36  13  37  13  38  13
M  ISO  3  39  13  40  14  41  14
M  END
>  <minimizedAffinity>  (1) 
-6.30486536

>  <minimizedRMSD>  (1) 
0.981479704

$$$$
