
     RDKit          3D

 49 53  0  0  1  0  0  0  0  0999 V2000
   42.0790   24.6270   34.9200 C   0  0  0  0  0  0  0  0  0  0  0  0
   42.2650   23.2970   34.7450 C   0  0  0  0  0  0  0  0  0  0  0  0
   43.2650   22.5590   35.3850 C   0  0  0  0  0  0  0  0  0  0  0  0
   44.0970   23.2040   36.2240 N   0  0  0  0  0  0  0  0  0  0  0  0
   43.9270   24.5240   36.4070 C   0  0  0  0  0  0  0  0  0  0  0  0
   42.9670   25.1940   35.7860 N   0  0  0  0  0  0  0  0  0  0  0  0
   39.6040   25.1280   34.7040 C   0  0  1  0  0  0  0  0  0  0  0  0
   40.4460   26.4640   34.6990 C   0  0  0  0  0  0  0  0  0  0  0  0
   40.9540   25.2440   34.1300 C   0  0  1  0  0  0  0  0  0  0  0  0
   39.7650   22.8370   37.5130 C   0  0  0  0  0  0  0  0  0  0  0  0
   38.7500   23.2940   38.3720 C   0  0  0  0  0  0  0  0  0  0  0  0
   38.0120   24.4270   37.9570 C   0  0  0  0  0  0  0  0  0  0  0  0
   38.3340   25.0010   36.7530 N   0  0  0  0  0  0  0  0  0  0  0  0
   39.2890   24.5320   35.9960 C   0  0  0  0  0  0  0  0  0  0  0  0
   40.0160   23.4620   36.3470 N   0  0  0  0  0  0  0  0  0  0  0  0
   40.4810   21.6920   37.9330 N   0  0  0  0  0  0  0  0  0  0  0  0
   43.3850   21.0970   35.1390 C   0  0  0  0  0  0  0  0  0  0  0  0
   43.3580   20.5570   33.8560 C   0  0  0  0  0  0  0  0  0  0  0  0
   43.5450   18.7440   34.1980 S   0  0  0  0  0  0  0  0  0  0  0  0
   43.6260   19.0720   36.0560 C   0  0  0  0  0  0  0  0  0  0  0  0
   43.5210   20.2300   36.0990 N   0  0  0  0  0  0  0  0  0  0  0  0
   44.1930   15.9000   38.8010 C   0  0  0  0  0  0  0  0  0  0  0  0
   42.9350   16.1650   38.3010 C   0  0  0  0  0  0  0  0  0  0  0  0
   42.7100   17.1890   37.4050 C   0  0  0  0  0  0  0  0  0  0  0  0
   43.7840   17.9590   37.0100 C   0  0  0  0  0  0  0  0  0  0  0  0
   45.0390   17.6730   37.5270 C   0  0  0  0  0  0  0  0  0  0  0  0
   45.2870   16.6520   38.4240 C   0  0  0  0  0  0  0  0  0  0  0  0
   44.2620   14.5590   39.9220 S   0  0  0  0  0  0  0  0  0  0  0  0
   43.5020   14.8460   41.1820 O   0  0  0  0  0  0  0  0  0  0  0  0
   45.6870   14.1420   40.2110 O   0  0  0  0  0  0  0  0  0  0  0  0
   44.8160   25.3080   37.3110 C   0  0  0  0  0  0  0  0  0  0  0  0
   44.1840   25.6120   38.4630 F   0  0  0  0  0  0  0  0  0  0  0  0
   45.3190   26.4130   36.6370 F   0  0  0  0  0  0  0  0  0  0  0  0
   45.9000   24.4590   37.5880 F   0  0  0  0  0  0  0  0  0  0  0  0
   41.5891   22.7660   34.0586 H   0  0  0  0  0  0  0  0  0  0  0  0
   38.6517   24.7301   34.3234 H   0  0  0  0  0  0  0  0  0  0  0  0
   40.1548   27.3012   34.0476 H   0  0  0  0  0  0  0  0  0  0  0  0
   40.7888   27.1829   35.4577 H   0  0  0  0  0  0  0  0  0  0  0  0
   41.3498   24.9723   33.1403 H   0  0  0  0  0  0  0  0  0  0  0  0
   38.5386   22.7912   39.3272 H   0  0  0  0  0  0  0  0  0  0  0  0
   37.2037   24.8359   38.5811 H   0  0  0  0  0  0  0  0  0  0  0  0
   41.2359   21.3120   37.3442 H   0  0  0  0  0  0  0  0  0  0  0  0
   40.2476   21.2381   38.8277 H   0  0  0  0  0  0  0  0  0  0  0  0
   43.2530   21.0723   32.8898 H   0  0  0  0  0  0  0  0  0  0  0  0
   42.0882   15.5426   38.6258 H   0  0  0  0  0  0  0  0  0  0  0  0
   41.7004   17.3865   37.0155 H   0  0  0  0  0  0  0  0  0  0  0  0
   45.8863   18.2956   37.2039 H   0  0  0  0  0  0  0  0  0  0  0  0
   46.2956   16.4506   38.8142 H   0  0  0  0  0  0  0  0  0  0  0  0
   43.6462   13.4969   39.3140 H   0  0  0  0  0  0  0  0  0  0  0  0
  1  6  1  0
  2  1  2  0
  2  3  1  0
  3  4  2  0
  4  5  1  0
  5 31  1  0
  6  5  2  0
  7 14  1  0
  8  7  1  0
  9  8  1  0
  9  7  1  0
  9  1  1  0
 10 16  1  0
 10 11  2  0
 12 11  1  0
 13 12  2  0
 14 15  2  0
 14 13  1  0
 15 10  1  0
 17  3  1  0
 17 21  1  0
 18 19  1  0
 18 17  2  0
 19 20  1  0
 20 21  2  0
 20 25  1  0
 22 28  1  0
 23 22  2  0
 24 23  1  0
 25 24  2  0
 25 26  1  0
 26 27  2  0
 27 22  1  0
 28 30  2  0
 28 29  2  0
 31 34  1  0
 31 32  1  0
 33 31  1  0
  2 35  1  0
  7 36  1  6
  8 37  1  0
  8 38  1  0
  9 39  1  6
 11 40  1  0
 12 41  1  0
 16 42  1  0
 16 43  1  0
 18 44  1  0
 23 45  1  0
 24 46  1  0
 26 47  1  0
 27 48  1  0
 28 49  1  0
M  ISO  8  35  14  36  13  37  13  38  13  39  13  40  14  41  14  44  14
M  ISO  5  45  14  46  14  47  14  48  14  49  11
M  END
>  <minimizedAffinity>  (1) 
-6.258183

>  <minimizedRMSD>  (1) 
1.32472301

$$$$
