
     RDKit          3D

 38 41  0  0  1  0  0  0  0  0999 V2000
   42.3340   24.5850   35.0260 C   0  0  0  0  0  0  0  0  0  0  0  0
   42.4940   23.2410   35.0180 C   0  0  0  0  0  0  0  0  0  0  0  0
   43.4410   22.5660   35.7920 C   0  0  0  0  0  0  0  0  0  0  0  0
   44.2440   23.2850   36.5920 N   0  0  0  0  0  0  0  0  0  0  0  0
   44.1000   24.6190   36.6110 C   0  0  0  0  0  0  0  0  0  0  0  0
   43.1920   25.2340   35.8670 N   0  0  0  0  0  0  0  0  0  0  0  0
   43.5330   21.0840   35.7210 C   0  0  0  0  0  0  0  0  0  0  0  0
   44.1020   20.4210   34.6370 C   0  0  0  0  0  0  0  0  0  0  0  0
   43.9240   18.6460   35.1240 S   0  0  0  0  0  0  0  0  0  0  0  0
   43.0810   19.1440   36.7630 C   0  0  0  0  0  0  0  0  0  0  0  0
   43.0840   20.3040   36.6720 N   0  0  0  0  0  0  0  0  0  0  0  0
   42.6360   18.2040   37.7190 N   0  0  0  0  0  0  0  0  0  0  0  0
   39.8760   24.9990   34.5690 C   0  0  1  0  0  0  0  0  0  0  0  0
   40.6780   26.3590   34.5700 C   0  0  0  0  0  0  0  0  0  0  0  0
   41.2680   25.1310   34.1090 C   0  0  1  0  0  0  0  0  0  0  0  0
   39.8060   22.8130   37.4630 C   0  0  0  0  0  0  0  0  0  0  0  0
   38.7390   23.3140   38.2310 C   0  0  0  0  0  0  0  0  0  0  0  0
   38.0490   24.4390   37.7240 C   0  0  0  0  0  0  0  0  0  0  0  0
   38.4630   24.9660   36.5240 N   0  0  0  0  0  0  0  0  0  0  0  0
   39.4630   24.4570   35.8560 C   0  0  0  0  0  0  0  0  0  0  0  0
   40.1470   23.3910   36.2960 N   0  0  0  0  0  0  0  0  0  0  0  0
   40.4730   21.6780   37.9710 N   0  0  0  0  0  0  0  0  0  0  0  0
   44.9640   25.4890   37.4650 C   0  0  0  0  0  0  0  0  0  0  0  0
   44.2600   26.0130   38.4860 F   0  0  0  0  0  0  0  0  0  0  0  0
   45.6060   26.4310   36.6750 F   0  0  0  0  0  0  0  0  0  0  0  0
   45.9550   24.6300   37.9750 F   0  0  0  0  0  0  0  0  0  0  0  0
   41.8402   22.6455   34.3639 H   0  0  0  0  0  0  0  0  0  0  0  0
   44.5446   20.8450   33.7236 H   0  0  0  0  0  0  0  0  0  0  0  0
   42.1868   18.5265   38.5880 H   0  0  0  0  0  0  0  0  0  0  0  0
   42.7607   17.1961   37.5471 H   0  0  0  0  0  0  0  0  0  0  0  0
   38.9729   24.5522   34.1276 H   0  0  0  0  0  0  0  0  0  0  0  0
   40.4223   27.1546   33.8548 H   0  0  0  0  0  0  0  0  0  0  0  0
   40.9326   27.1236   35.3188 H   0  0  0  0  0  0  0  0  0  0  0  0
   41.7581   24.8274   33.1722 H   0  0  0  0  0  0  0  0  0  0  0  0
   38.4534   22.8496   39.1864 H   0  0  0  0  0  0  0  0  0  0  0  0
   37.2048   24.8800   38.2743 H   0  0  0  0  0  0  0  0  0  0  0  0
   41.2618   21.2683   37.4505 H   0  0  0  0  0  0  0  0  0  0  0  0
   40.1711   21.2592   38.8623 H   0  0  0  0  0  0  0  0  0  0  0  0
  1  6  1  0
  2  1  2  0
  2  3  1  0
  3  4  2  0
  4  5  1  0
  5 23  1  0
  6  5  2  0
  7  3  1  0
  7 11  1  0
  8  9  1  0
  8  7  2  0
  9 10  1  0
 10 12  1  0
 11 10  2  0
 13 14  1  0
 13 20  1  0
 15 13  1  0
 15 14  1  0
 15  1  1  0
 16 22  1  0
 16 17  2  0
 18 17  1  0
 19 18  2  0
 20 21  2  0
 20 19  1  0
 21 16  1  0
 23 26  1  0
 23 24  1  0
 25 23  1  0
  2 27  1  0
  8 28  1  0
 12 29  1  0
 12 30  1  0
 13 31  1  6
 14 32  1  0
 14 33  1  0
 15 34  1  6
 17 35  1  0
 18 36  1  0
 22 37  1  0
 22 38  1  0
M  ISO  8  27  14  28  14  31  13  32  13  33  13  34  13  35  14  36  14
M  END
>  <minimizedAffinity>  (1) 
-6.25531864

>  <minimizedRMSD>  (1) 
0.0150936814

$$$$
