
     RDKit          3D

 44 48  0  0  1  0  0  0  0  0999 V2000
   42.0830   24.6190   34.9260 C   0  0  0  0  0  0  0  0  0  0  0  0
   42.2660   23.2890   34.7530 C   0  0  0  0  0  0  0  0  0  0  0  0
   43.2620   22.5470   35.3920 C   0  0  0  0  0  0  0  0  0  0  0  0
   44.0950   23.1890   36.2320 N   0  0  0  0  0  0  0  0  0  0  0  0
   43.9280   24.5100   36.4150 C   0  0  0  0  0  0  0  0  0  0  0  0
   42.9710   25.1850   35.7940 N   0  0  0  0  0  0  0  0  0  0  0  0
   39.6070   25.1240   34.7110 C   0  0  1  0  0  0  0  0  0  0  0  0
   40.4540   26.4570   34.7020 C   0  0  0  0  0  0  0  0  0  0  0  0
   40.9610   25.2390   34.1320 C   0  0  1  0  0  0  0  0  0  0  0  0
   39.7620   22.8360   37.5200 C   0  0  0  0  0  0  0  0  0  0  0  0
   38.7470   23.2950   38.3760 C   0  0  0  0  0  0  0  0  0  0  0  0
   38.0100   24.4300   37.9600 C   0  0  0  0  0  0  0  0  0  0  0  0
   38.3330   25.0050   36.7550 N   0  0  0  0  0  0  0  0  0  0  0  0
   39.2900   24.5320   36.0010 C   0  0  0  0  0  0  0  0  0  0  0  0
   40.0150   23.4630   36.3510 N   0  0  0  0  0  0  0  0  0  0  0  0
   40.4740   21.6950   37.9420 N   0  0  0  0  0  0  0  0  0  0  0  0
   43.3800   21.0870   35.1460 C   0  0  0  0  0  0  0  0  0  0  0  0
   43.2910   20.5410   33.8690 C   0  0  0  0  0  0  0  0  0  0  0  0
   43.5060   18.7380   34.2070 S   0  0  0  0  0  0  0  0  0  0  0  0
   43.6790   19.0640   36.0620 C   0  0  0  0  0  0  0  0  0  0  0  0
   43.5710   20.2250   36.1120 N   0  0  0  0  0  0  0  0  0  0  0  0
   43.8910   17.9800   37.0120 C   0  0  0  0  0  0  0  0  0  0  0  0
   45.1290   17.6710   37.5030 C   0  0  0  0  0  0  0  0  0  0  0  0
   45.2270   16.6340   38.3910 C   0  0  0  0  0  0  0  0  0  0  0  0
   44.1620   15.9190   38.7940 N   0  0  0  0  0  0  0  0  0  0  0  0
   42.9430   16.2320   38.3040 C   0  0  0  0  0  0  0  0  0  0  0  0
   42.8280   17.2500   37.4270 N   0  0  0  0  0  0  0  0  0  0  0  0
   44.8190   25.2950   37.3200 C   0  0  0  0  0  0  0  0  0  0  0  0
   44.1880   25.5980   38.4740 F   0  0  0  0  0  0  0  0  0  0  0  0
   45.3210   26.3970   36.6490 F   0  0  0  0  0  0  0  0  0  0  0  0
   45.9020   24.4420   37.5980 F   0  0  0  0  0  0  0  0  0  0  0  0
   41.5884   22.7599   34.0668 H   0  0  0  0  0  0  0  0  0  0  0  0
   38.6534   24.7265   34.3332 H   0  0  0  0  0  0  0  0  0  0  0  0
   40.1627   27.2945   34.0510 H   0  0  0  0  0  0  0  0  0  0  0  0
   40.8000   27.1748   35.4603 H   0  0  0  0  0  0  0  0  0  0  0  0
   41.3566   24.9691   33.1417 H   0  0  0  0  0  0  0  0  0  0  0  0
   38.5335   22.7927   39.3311 H   0  0  0  0  0  0  0  0  0  0  0  0
   37.2019   24.8397   38.5838 H   0  0  0  0  0  0  0  0  0  0  0  0
   41.2294   21.3131   37.3552 H   0  0  0  0  0  0  0  0  0  0  0  0
   40.2388   21.2431   38.8372 H   0  0  0  0  0  0  0  0  0  0  0  0
   43.1334   21.0512   32.9073 H   0  0  0  0  0  0  0  0  0  0  0  0
   46.0192   18.2385   37.1938 H   0  0  0  0  0  0  0  0  0  0  0  0
   46.2182   16.3748   38.7916 H   0  0  0  0  0  0  0  0  0  0  0  0
   42.0547   15.6634   38.6165 H   0  0  0  0  0  0  0  0  0  0  0  0
  1  6  1  0
  2  1  2  0
  2  3  1  0
  3  4  2  0
  4  5  1  0
  5 28  1  0
  6  5  2  0
  7 14  1  0
  8  7  1  0
  9  8  1  0
  9  7  1  0
  9  1  1  0
 10 16  1  0
 10 11  2  0
 12 11  1  0
 13 12  2  0
 14 15  2  0
 14 13  1  0
 15 10  1  0
 17  3  1  0
 17 21  1  0
 18 19  1  0
 18 17  2  0
 19 20  1  0
 20 21  2  0
 20 22  1  0
 22 27  1  0
 22 23  2  0
 23 24  1  0
 24 25  2  0
 26 25  1  0
 27 26  2  0
 28 31  1  0
 28 29  1  0
 30 28  1  0
  2 32  1  0
  7 33  1  6
  8 34  1  0
  8 35  1  0
  9 36  1  6
 11 37  1  0
 12 38  1  0
 16 39  1  0
 16 40  1  0
 18 41  1  0
 23 42  1  0
 24 43  1  0
 26 44  1  0
M  ISO  8  32  14  33  13  34  13  35  13  36  13  37  14  38  14  41  14
M  ISO  3  42  14  43  14  44  14
M  END
>  <minimizedAffinity>  (1) 
-6.24739408

>  <minimizedRMSD>  (1) 
1.02613139

$$$$
