
     RDKit          3D

 37 40  0  0  1  0  0  0  0  0999 V2000
   42.3170   24.6070   34.9990 C   0  0  0  0  0  0  0  0  0  0  0  0
   42.4920   23.2660   34.9560 C   0  0  0  0  0  0  0  0  0  0  0  0
   43.4510   22.5830   35.7100 C   0  0  0  0  0  0  0  0  0  0  0  0
   44.2500   23.2880   36.5270 N   0  0  0  0  0  0  0  0  0  0  0  0
   44.0890   24.6170   36.5800 C   0  0  0  0  0  0  0  0  0  0  0  0
   43.1700   25.2420   35.8550 N   0  0  0  0  0  0  0  0  0  0  0  0
   39.8490   25.0240   34.5790 C   0  0  1  0  0  0  0  0  0  0  0  0
   40.6550   26.3810   34.5850 C   0  0  0  0  0  0  0  0  0  0  0  0
   41.2450   25.1610   34.1010 C   0  0  1  0  0  0  0  0  0  0  0  0
   39.8260   22.8020   37.4470 C   0  0  0  0  0  0  0  0  0  0  0  0
   38.7630   23.2860   38.2300 C   0  0  0  0  0  0  0  0  0  0  0  0
   38.0530   24.4210   37.7420 C   0  0  0  0  0  0  0  0  0  0  0  0
   38.4570   24.9580   36.5480 N   0  0  0  0  0  0  0  0  0  0  0  0
   39.4550   24.4630   35.8650 C   0  0  0  0  0  0  0  0  0  0  0  0
   40.1510   23.4010   36.2800 N   0  0  0  0  0  0  0  0  0  0  0  0
   40.5060   21.6670   37.9350 N   0  0  0  0  0  0  0  0  0  0  0  0
   43.5570   21.0970   35.6050 C   0  0  0  0  0  0  0  0  0  0  0  0
   44.1190   20.4790   34.4980 C   0  0  0  0  0  0  0  0  0  0  0  0
   43.9760   18.6860   34.9320 S   0  0  0  0  0  0  0  0  0  0  0  0
   43.1580   19.1270   36.5790 C   0  0  0  0  0  0  0  0  0  0  0  0
   43.1320   20.2910   36.5430 N   0  0  0  0  0  0  0  0  0  0  0  0
   42.5770   18.3990   37.8300 O   0  0  0  0  0  0  0  0  0  0  0  0
   44.9460   25.4740   37.4520 C   0  0  0  0  0  0  0  0  0  0  0  0
   44.2370   25.9710   38.4850 F   0  0  0  0  0  0  0  0  0  0  0  0
   45.5780   26.4430   36.6880 F   0  0  0  0  0  0  0  0  0  0  0  0
   45.9390   24.6180   37.9510 F   0  0  0  0  0  0  0  0  0  0  0  0
   41.8425   22.6795   34.2896 H   0  0  0  0  0  0  0  0  0  0  0  0
   38.9379   24.5868   34.1446 H   0  0  0  0  0  0  0  0  0  0  0  0
   40.3908   27.1852   33.8825 H   0  0  0  0  0  0  0  0  0  0  0  0
   40.9183   27.1353   35.3411 H   0  0  0  0  0  0  0  0  0  0  0  0
   41.7262   24.8697   33.1557 H   0  0  0  0  0  0  0  0  0  0  0  0
   38.4902   22.8072   39.1820 H   0  0  0  0  0  0  0  0  0  0  0  0
   37.2106   24.8507   38.3039 H   0  0  0  0  0  0  0  0  0  0  0  0
   41.2929   21.2695   37.4023 H   0  0  0  0  0  0  0  0  0  0  0  0
   40.2158   21.2355   38.8241 H   0  0  0  0  0  0  0  0  0  0  0  0
   44.5421   20.9380   33.5923 H   0  0  0  0  0  0  0  0  0  0  0  0
   42.1942   18.9256   38.5758 H   0  0  0  0  0  0  0  0  0  0  0  0
  1  6  1  0
  2  1  2  0
  2  3  1  0
  3  4  2  0
  4  5  1  0
  5 23  1  0
  6  5  2  0
  7  8  1  0
  7 14  1  0
  9  7  1  0
  9  8  1  0
  9  1  1  0
 10 16  1  0
 10 11  2  0
 12 11  1  0
 13 12  2  0
 14 15  2  0
 14 13  1  0
 15 10  1  0
 17  3  1  0
 17 21  1  0
 18 19  1  0
 18 17  2  0
 19 20  1  0
 20 22  1  0
 21 20  2  0
 23 26  1  0
 23 24  1  0
 25 23  1  0
  2 27  1  0
  7 28  1  6
  8 29  1  0
  8 30  1  0
  9 31  1  6
 11 32  1  0
 12 33  1  0
 16 34  1  0
 16 35  1  0
 18 36  1  0
 22 37  1  0
M  ISO  8  27  14  28  13  29  13  30  13  31  13  32  14  33  14  36  14
M  ISO  1  37   3
M  END
>  <minimizedAffinity>  (1) 
-6.21652794

>  <minimizedRMSD>  (1) 
0.0863116458

$$$$
