
     RDKit          3D

 43 47  0  0  1  0  0  0  0  0999 V2000
   42.0660   24.6290   34.9110 C   0  0  0  0  0  0  0  0  0  0  0  0
   42.2600   23.3030   34.7170 C   0  0  0  0  0  0  0  0  0  0  0  0
   43.2690   22.5620   35.3440 C   0  0  0  0  0  0  0  0  0  0  0  0
   44.0970   23.1960   36.1900 N   0  0  0  0  0  0  0  0  0  0  0  0
   43.9180   24.5130   36.3940 C   0  0  0  0  0  0  0  0  0  0  0  0
   42.9530   25.1870   35.7850 N   0  0  0  0  0  0  0  0  0  0  0  0
   39.5890   25.1330   34.7220 C   0  0  1  0  0  0  0  0  0  0  0  0
   40.4350   26.4670   34.7150 C   0  0  0  0  0  0  0  0  0  0  0  0
   40.9370   25.2520   34.1320 C   0  0  1  0  0  0  0  0  0  0  0  0
   39.7740   22.8280   37.5160 C   0  0  0  0  0  0  0  0  0  0  0  0
   38.7650   23.2780   38.3840 C   0  0  0  0  0  0  0  0  0  0  0  0
   38.0210   24.4140   37.9820 C   0  0  0  0  0  0  0  0  0  0  0  0
   38.3330   24.9970   36.7780 N   0  0  0  0  0  0  0  0  0  0  0  0
   39.2840   24.5310   36.0130 C   0  0  0  0  0  0  0  0  0  0  0  0
   40.0140   23.4620   36.3490 N   0  0  0  0  0  0  0  0  0  0  0  0
   40.4950   21.6860   37.9250 N   0  0  0  0  0  0  0  0  0  0  0  0
   43.3960   21.1060   35.0750 C   0  0  0  0  0  0  0  0  0  0  0  0
   43.4090   20.5890   33.7800 C   0  0  0  0  0  0  0  0  0  0  0  0
   43.5850   18.7670   34.0920 S   0  0  0  0  0  0  0  0  0  0  0  0
   43.6070   19.0610   35.9590 C   0  0  0  0  0  0  0  0  0  0  0  0
   43.5020   20.2200   36.0260 N   0  0  0  0  0  0  0  0  0  0  0  0
   43.7320   17.9830   36.9770 C   0  0  0  0  0  0  0  0  0  0  0  0
   42.8470   16.9980   37.3570 C   0  0  0  0  0  0  0  0  0  0  0  0
   43.4750   16.2860   38.3280 C   0  0  0  0  0  0  0  0  0  0  0  0
   44.7150   16.8160   38.5430 N   0  0  0  0  0  0  0  0  0  0  0  0
   44.8490   17.8440   37.7140 N   0  0  0  0  0  0  0  0  0  0  0  0
   44.8040   25.2920   37.3070 C   0  0  0  0  0  0  0  0  0  0  0  0
   44.1690   25.5860   38.4600 F   0  0  0  0  0  0  0  0  0  0  0  0
   45.3070   26.4020   36.6460 F   0  0  0  0  0  0  0  0  0  0  0  0
   45.8860   24.4400   37.5830 F   0  0  0  0  0  0  0  0  0  0  0  0
   41.5850   22.7769   34.0260 H   0  0  0  0  0  0  0  0  0  0  0  0
   38.6323   24.7379   34.3498 H   0  0  0  0  0  0  0  0  0  0  0  0
   40.1377   27.3088   34.0724 H   0  0  0  0  0  0  0  0  0  0  0  0
   40.7874   27.1799   35.4750 H   0  0  0  0  0  0  0  0  0  0  0  0
   41.3231   24.9879   33.1364 H   0  0  0  0  0  0  0  0  0  0  0  0
   38.5611   22.7685   39.3373 H   0  0  0  0  0  0  0  0  0  0  0  0
   37.2171   24.8175   38.6152 H   0  0  0  0  0  0  0  0  0  0  0  0
   41.2465   21.3106   37.3290 H   0  0  0  0  0  0  0  0  0  0  0  0
   40.2698   21.2278   38.8196 H   0  0  0  0  0  0  0  0  0  0  0  0
   43.3343   21.1228   32.8211 H   0  0  0  0  0  0  0  0  0  0  0  0
   41.8377   16.8238   36.9558 H   0  0  0  0  0  0  0  0  0  0  0  0
   43.0519   15.4196   38.8574 H   0  0  0  0  0  0  0  0  0  0  0  0
   45.4146   16.4812   39.2208 H   0  0  0  0  0  0  0  0  0  0  0  0
  1  6  1  0
  2  1  2  0
  2  3  1  0
  3  4  2  0
  4  5  1  0
  5 27  1  0
  6  5  2  0
  7 14  1  0
  8  7  1  0
  9  8  1  0
  9  7  1  0
  9  1  1  0
 10 16  1  0
 10 11  2  0
 12 11  1  0
 13 12  2  0
 14 15  2  0
 14 13  1  0
 15 10  1  0
 17  3  1  0
 17 21  1  0
 18 19  1  0
 18 17  2  0
 19 20  1  0
 20 21  2  0
 20 22  1  0
 22 23  1  0
 22 26  2  0
 23 24  2  0
 24 25  1  0
 26 25  1  0
 27 30  1  0
 27 28  1  0
 29 27  1  0
  2 31  1  0
  7 32  1  6
  8 33  1  0
  8 34  1  0
  9 35  1  6
 11 36  1  0
 12 37  1  0
 16 38  1  0
 16 39  1  0
 18 40  1  0
 23 41  1  0
 24 42  1  0
 25 43  1  0
M  ISO  8  31  14  32  13  33  13  34  13  35  13  36  14  37  14  40  14
M  ISO  3  41  14  42  14  43   9
M  END
>  <minimizedAffinity>  (1) 
-6.21521378

>  <minimizedRMSD>  (1) 
0.890333474

$$$$
