
     RDKit          3D

 41 45  0  0  1  0  0  0  0  0999 V2000
   42.0550   24.6350   34.9250 C   0  0  0  0  0  0  0  0  0  0  0  0
   42.2330   23.3060   34.7370 C   0  0  0  0  0  0  0  0  0  0  0  0
   43.2340   22.5580   35.3640 C   0  0  0  0  0  0  0  0  0  0  0  0
   44.0760   23.1900   36.2020 N   0  0  0  0  0  0  0  0  0  0  0  0
   43.9130   24.5060   36.3980 C   0  0  0  0  0  0  0  0  0  0  0  0
   42.9530   25.1900   35.7910 N   0  0  0  0  0  0  0  0  0  0  0  0
   39.5830   25.1510   34.7280 C   0  0  1  0  0  0  0  0  0  0  0  0
   40.4310   26.4830   34.7280 C   0  0  0  0  0  0  0  0  0  0  0  0
   40.9290   25.2660   34.1460 C   0  0  1  0  0  0  0  0  0  0  0  0
   39.7540   22.8420   37.5210 C   0  0  0  0  0  0  0  0  0  0  0  0
   38.7440   23.2900   38.3850 C   0  0  0  0  0  0  0  0  0  0  0  0
   38.0030   24.4260   37.9820 C   0  0  0  0  0  0  0  0  0  0  0  0
   38.3190   25.0110   36.7800 N   0  0  0  0  0  0  0  0  0  0  0  0
   39.2720   24.5470   36.0170 C   0  0  0  0  0  0  0  0  0  0  0  0
   40.0010   23.4740   36.3590 N   0  0  0  0  0  0  0  0  0  0  0  0
   40.4730   21.6950   37.9290 N   0  0  0  0  0  0  0  0  0  0  0  0
   43.3440   21.0990   35.1000 C   0  0  0  0  0  0  0  0  0  0  0  0
   43.2040   20.5610   33.8280 C   0  0  0  0  0  0  0  0  0  0  0  0
   43.4360   18.7500   34.1350 S   0  0  0  0  0  0  0  0  0  0  0  0
   43.6870   19.0710   35.9950 C   0  0  0  0  0  0  0  0  0  0  0  0
   43.5780   20.2290   36.0570 N   0  0  0  0  0  0  0  0  0  0  0  0
   43.9410   18.0160   36.9650 C   0  0  0  0  0  0  0  0  0  0  0  0
   43.1560   17.1100   37.5860 N   0  0  0  0  0  0  0  0  0  0  0  0
   43.8790   16.3750   38.3790 O   0  0  0  0  0  0  0  0  0  0  0  0
   45.1460   16.7500   38.3200 C   0  0  0  0  0  0  0  0  0  0  0  0
   45.1840   17.7710   37.4390 N   0  0  0  0  0  0  0  0  0  0  0  0
   44.8120   25.2800   37.3040 C   0  0  0  0  0  0  0  0  0  0  0  0
   44.1940   25.5700   38.4660 F   0  0  0  0  0  0  0  0  0  0  0  0
   45.3100   26.3900   36.6380 F   0  0  0  0  0  0  0  0  0  0  0  0
   45.8980   24.4240   37.5580 F   0  0  0  0  0  0  0  0  0  0  0  0
   41.5499   22.7842   34.0506 H   0  0  0  0  0  0  0  0  0  0  0  0
   38.6268   24.7595   34.3505 H   0  0  0  0  0  0  0  0  0  0  0  0
   40.1392   27.3268   34.0854 H   0  0  0  0  0  0  0  0  0  0  0  0
   40.7824   27.1942   35.4901 H   0  0  0  0  0  0  0  0  0  0  0  0
   41.3175   25.0020   33.1513 H   0  0  0  0  0  0  0  0  0  0  0  0
   38.5365   22.7792   39.3368 H   0  0  0  0  0  0  0  0  0  0  0  0
   37.1972   24.8291   38.6130 H   0  0  0  0  0  0  0  0  0  0  0  0
   41.2261   21.3208   37.3343 H   0  0  0  0  0  0  0  0  0  0  0  0
   40.2436   21.2337   38.8209 H   0  0  0  0  0  0  0  0  0  0  0  0
   43.0055   21.0793   32.8783 H   0  0  0  0  0  0  0  0  0  0  0  0
   45.9928   16.3189   38.8741 H   0  0  0  0  0  0  0  0  0  0  0  0
  1  6  1  0
  2  1  2  0
  2  3  1  0
  3  4  2  0
  4  5  1  0
  5 27  1  0
  6  5  2  0
  7  8  1  0
  7 14  1  0
  9  7  1  0
  9  8  1  0
  9  1  1  0
 10 16  1  0
 10 11  2  0
 12 11  1  0
 13 12  2  0
 14 15  2  0
 14 13  1  0
 15 10  1  0
 17  3  1  0
 17 21  1  0
 18 19  1  0
 18 17  2  0
 19 20  1  0
 20 21  2  0
 20 22  1  0
 22 26  1  0
 22 23  2  0
 23 24  1  0
 25 24  1  0
 26 25  2  0
 27 30  1  0
 27 28  1  0
 29 27  1  0
  2 31  1  0
  7 32  1  6
  8 33  1  0
  8 34  1  0
  9 35  1  6
 11 36  1  0
 12 37  1  0
 16 38  1  0
 16 39  1  0
 18 40  1  0
 25 41  1  0
M  ISO  8  31  14  32  13  33  13  34  13  35  13  36  14  37  14  40  14
M  ISO  1  41  14
M  END
>  <minimizedAffinity>  (1) 
-6.04062557

>  <minimizedRMSD>  (1) 
1.01064932

$$$$
