
     RDKit          3D

 49 53  0  0  1  0  0  0  0  0999 V2000
   41.7280   24.7410   34.7170 C   0  0  0  0  0  0  0  0  0  0  0  0
   41.9600   23.4610   34.3180 C   0  0  0  0  0  0  0  0  0  0  0  0
   43.0280   22.6890   34.7480 C   0  0  0  0  0  0  0  0  0  0  0  0
   43.9050   23.2410   35.6240 N   0  0  0  0  0  0  0  0  0  0  0  0
   43.6920   24.5030   36.0260 C   0  0  0  0  0  0  0  0  0  0  0  0
   42.6600   25.2140   35.5950 N   0  0  0  0  0  0  0  0  0  0  0  0
   43.1900   21.2970   34.2650 C   0  0  0  0  0  0  0  0  0  0  0  0
   43.4040   21.0010   32.9210 C   0  0  0  0  0  0  0  0  0  0  0  0
   43.5320   19.1630   32.9440 S   0  0  0  0  0  0  0  0  0  0  0  0
   43.2630   19.1160   34.8250 C   0  0  0  0  0  0  0  0  0  0  0  0
   43.1490   20.2590   35.0530 N   0  0  0  0  0  0  0  0  0  0  0  0
   43.2190   18.0080   35.7140 N   0  0  0  0  0  0  0  0  0  0  0  0
   43.1310   18.1100   37.1640 C   0  0  0  0  0  0  0  0  0  0  0  0
   42.9160   16.7160   37.7340 C   0  0  0  0  0  0  0  0  0  0  0  0
   43.8710   15.8250   37.3160 O   0  0  0  0  0  0  0  0  0  0  0  0
   43.9590   15.6600   35.9600 C   0  0  0  0  0  0  0  0  0  0  0  0
   43.2740   16.6800   35.1190 C   0  0  0  0  0  0  0  0  0  0  0  0
   39.2450   25.2630   34.8500 C   0  0  1  0  0  0  0  0  0  0  0  0
   40.1030   26.5920   34.8190 C   0  0  0  0  0  0  0  0  0  0  0  0
   40.5170   25.4050   34.1160 C   0  0  1  0  0  0  0  0  0  0  0  0
   39.7670   22.8250   37.4870 C   0  0  0  0  0  0  0  0  0  0  0  0
   38.8500   23.2130   38.4780 C   0  0  0  0  0  0  0  0  0  0  0  0
   38.0510   24.3460   38.2190 C   0  0  0  0  0  0  0  0  0  0  0  0
   38.2270   24.9870   37.0190 N   0  0  0  0  0  0  0  0  0  0  0  0
   39.0940   24.5880   36.1280 C   0  0  0  0  0  0  0  0  0  0  0  0
   39.8730   23.5150   36.3350 N   0  0  0  0  0  0  0  0  0  0  0  0
   40.5480   21.6800   37.7630 N   0  0  0  0  0  0  0  0  0  0  0  0
   44.6180   25.1870   36.9780 C   0  0  0  0  0  0  0  0  0  0  0  0
   44.0260   25.3590   38.1820 F   0  0  0  0  0  0  0  0  0  0  0  0
   45.1010   26.3560   36.4120 F   0  0  0  0  0  0  0  0  0  0  0  0
   45.7020   24.3080   37.1320 F   0  0  0  0  0  0  0  0  0  0  0  0
   41.2530   23.0087   33.6069 H   0  0  0  0  0  0  0  0  0  0  0  0
   43.4777   21.6882   32.0653 H   0  0  0  0  0  0  0  0  0  0  0  0
   44.0640   18.5343   37.5634 H   0  0  0  0  0  0  0  0  0  0  0  0
   42.2937   18.7655   37.4455 H   0  0  0  0  0  0  0  0  0  0  0  0
   42.9454   16.7754   38.8320 H   0  0  0  0  0  0  0  0  0  0  0  0
   41.9412   16.3545   37.3746 H   0  0  0  0  0  0  0  0  0  0  0  0
   45.0257   15.6675   35.6913 H   0  0  0  0  0  0  0  0  0  0  0  0
   43.4401   14.7134   35.7485 H   0  0  0  0  0  0  0  0  0  0  0  0
   42.2435   16.3410   34.9372 H   0  0  0  0  0  0  0  0  0  0  0  0
   43.8627   16.7731   34.1945 H   0  0  0  0  0  0  0  0  0  0  0  0
   38.2447   24.9002   34.5713 H   0  0  0  0  0  0  0  0  0  0  0  0
   39.7454   27.4705   34.2619 H   0  0  0  0  0  0  0  0  0  0  0  0
   40.5501   27.2592   35.5706 H   0  0  0  0  0  0  0  0  0  0  0  0
   40.7781   25.1881   33.0697 H   0  0  0  0  0  0  0  0  0  0  0  0
   38.7585   22.6539   39.4209 H   0  0  0  0  0  0  0  0  0  0  0  0
   37.3133   24.7028   38.9528 H   0  0  0  0  0  0  0  0  0  0  0  0
   41.2373   21.3483   37.0733 H   0  0  0  0  0  0  0  0  0  0  0  0
   40.4280   21.1772   38.6539 H   0  0  0  0  0  0  0  0  0  0  0  0
  1  6  1  0
  2  1  2  0
  2  3  1  0
  3  4  2  0
  4  5  1  0
  5 28  1  0
  6  5  2  0
  7  3  1  0
  7 11  1  0
  8  9  1  0
  8  7  2  0
  9 10  1  0
 10 11  2  0
 10 12  1  0
 12 13  1  0
 13 14  1  0
 15 14  1  0
 16 15  1  0
 17 12  1  0
 17 16  1  0
 18 25  1  0
 19 18  1  0
 20  1  1  0
 20 19  1  0
 20 18  1  0
 21 27  1  0
 21 22  2  0
 23 22  1  0
 24 23  2  0
 25 26  2  0
 25 24  1  0
 26 21  1  0
 28 31  1  0
 28 29  1  0
 30 28  1  0
  2 32  1  0
  8 33  1  0
 13 34  1  0
 13 35  1  0
 14 36  1  0
 14 37  1  0
 16 38  1  0
 16 39  1  0
 17 40  1  0
 17 41  1  0
 18 42  1  6
 19 43  1  0
 19 44  1  0
 20 45  1  6
 22 46  1  0
 23 47  1  0
 27 48  1  0
 27 49  1  0
M  ISO  8  32  14  33  14  34  13  35  13  36  13  37  13  38  13  39  13
M  ISO  8  40  13  41  13  42  13  43  13  44  13  45  13  46  14  47  14
M  END
>  <minimizedAffinity>  (1) 
-5.99657488

>  <minimizedRMSD>  (1) 
1.50184691

$$$$
