
     RDKit          3D

 39 42  0  0  1  0  0  0  0  0999 V2000
   42.2900   24.5790   34.9730 C   0  0  0  0  0  0  0  0  0  0  0  0
   42.5000   23.2450   34.8690 C   0  0  0  0  0  0  0  0  0  0  0  0
   43.4660   22.5480   35.6050 C   0  0  0  0  0  0  0  0  0  0  0  0
   44.2340   23.2360   36.4640 N   0  0  0  0  0  0  0  0  0  0  0  0
   44.0400   24.5610   36.5780 C   0  0  0  0  0  0  0  0  0  0  0  0
   43.1160   25.1940   35.8700 N   0  0  0  0  0  0  0  0  0  0  0  0
   39.8270   25.0290   34.5760 C   0  0  1  0  0  0  0  0  0  0  0  0
   40.6500   26.3770   34.5730 C   0  0  0  0  0  0  0  0  0  0  0  0
   41.2150   25.1490   34.0840 C   0  0  1  0  0  0  0  0  0  0  0  0
   39.8090   22.8220   37.4540 C   0  0  0  0  0  0  0  0  0  0  0  0
   38.7500   23.3150   38.2420 C   0  0  0  0  0  0  0  0  0  0  0  0
   38.0480   24.4450   37.7530 C   0  0  0  0  0  0  0  0  0  0  0  0
   38.4450   24.9790   36.5530 N   0  0  0  0  0  0  0  0  0  0  0  0
   39.4360   24.4770   35.8660 C   0  0  0  0  0  0  0  0  0  0  0  0
   40.1300   23.4130   36.2840 N   0  0  0  0  0  0  0  0  0  0  0  0
   40.4830   21.6890   37.9430 N   0  0  0  0  0  0  0  0  0  0  0  0
   43.6150   21.0840   35.4310 C   0  0  0  0  0  0  0  0  0  0  0  0
   42.8540   20.3570   34.5160 C   0  0  0  0  0  0  0  0  0  0  0  0
   43.4830   18.6330   34.7620 S   0  0  0  0  0  0  0  0  0  0  0  0
   44.6940   19.2320   36.0960 C   0  0  0  0  0  0  0  0  0  0  0  0
   44.4690   20.3760   36.1240 N   0  0  0  0  0  0  0  0  0  0  0  0
   45.6160   18.3170   36.8110 C   0  0  0  0  0  0  0  0  0  0  0  0
   45.8010   17.2070   36.0090 F   0  0  0  0  0  0  0  0  0  0  0  0
   46.8200   18.9410   37.0700 F   0  0  0  0  0  0  0  0  0  0  0  0
   44.9990   17.8900   37.9680 F   0  0  0  0  0  0  0  0  0  0  0  0
   44.8610   25.3970   37.5030 C   0  0  0  0  0  0  0  0  0  0  0  0
   44.1670   25.7070   38.6160 F   0  0  0  0  0  0  0  0  0  0  0  0
   45.3600   26.4990   36.8260 F   0  0  0  0  0  0  0  0  0  0  0  0
   45.9570   24.5880   37.8510 F   0  0  0  0  0  0  0  0  0  0  0  0
   41.8751   22.6758   34.1651 H   0  0  0  0  0  0  0  0  0  0  0  0
   38.9074   24.6003   34.1511 H   0  0  0  0  0  0  0  0  0  0  0  0
   40.3888   27.1844   33.8731 H   0  0  0  0  0  0  0  0  0  0  0  0
   40.9321   27.1285   35.3251 H   0  0  0  0  0  0  0  0  0  0  0  0
   41.6811   24.8518   33.1330 H   0  0  0  0  0  0  0  0  0  0  0  0
   38.4792   22.8422   39.1976 H   0  0  0  0  0  0  0  0  0  0  0  0
   37.2107   24.8805   38.3181 H   0  0  0  0  0  0  0  0  0  0  0  0
   41.2655   21.2849   37.4089 H   0  0  0  0  0  0  0  0  0  0  0  0
   40.1942   21.2632   38.8353 H   0  0  0  0  0  0  0  0  0  0  0  0
   42.0778   20.7163   33.8243 H   0  0  0  0  0  0  0  0  0  0  0  0
  1  6  1  0
  2  1  2  0
  2  3  1  0
  3  4  2  0
  4  5  1  0
  5 26  1  0
  6  5  2  0
  7 14  1  0
  8  7  1  0
  9  8  1  0
  9  7  1  0
  9  1  1  0
 10 16  1  0
 10 11  2  0
 12 11  1  0
 13 12  2  0
 14 15  2  0
 14 13  1  0
 15 10  1  0
 17  3  1  0
 17 21  1  0
 18 19  1  0
 18 17  2  0
 19 20  1  0
 20 21  2  0
 20 22  1  0
 22 24  1  0
 22 25  1  0
 23 22  1  0
 26 29  1  0
 26 27  1  0
 28 26  1  0
  2 30  1  0
  7 31  1  6
  8 32  1  0
  8 33  1  0
  9 34  1  6
 11 35  1  0
 12 36  1  0
 16 37  1  0
 16 38  1  0
 18 39  1  0
M  ISO  8  30  14  31  13  32  13  33  13  34  13  35  14  36  14  39  14
M  END
>  <minimizedAffinity>  (1) 
-5.84043741

>  <minimizedRMSD>  (1) 
1.41475916

$$$$
