
     RDKit          3D

 37 40  0  0  1  0  0  0  0  0999 V2000
   42.1010   24.7020   34.9360 C   0  0  0  0  0  0  0  0  0  0  0  0
   42.2860   23.3760   34.7340 C   0  0  0  0  0  0  0  0  0  0  0  0
   43.2980   22.6300   35.3510 C   0  0  0  0  0  0  0  0  0  0  0  0
   44.1340   23.2540   36.1900 N   0  0  0  0  0  0  0  0  0  0  0  0
   43.9640   24.5680   36.4020 C   0  0  0  0  0  0  0  0  0  0  0  0
   42.9980   25.2520   35.8060 N   0  0  0  0  0  0  0  0  0  0  0  0
   39.6190   25.1750   34.7380 C   0  0  1  0  0  0  0  0  0  0  0  0
   40.4420   26.5230   34.7900 C   0  0  0  0  0  0  0  0  0  0  0  0
   40.9700   25.3360   34.1690 C   0  0  1  0  0  0  0  0  0  0  0  0
   39.8230   22.7830   37.4590 C   0  0  0  0  0  0  0  0  0  0  0  0
   38.7890   23.1790   38.3240 C   0  0  0  0  0  0  0  0  0  0  0  0
   38.0210   24.3110   37.9480 C   0  0  0  0  0  0  0  0  0  0  0  0
   38.3380   24.9370   36.7690 N   0  0  0  0  0  0  0  0  0  0  0  0
   39.3120   24.5210   36.0040 C   0  0  0  0  0  0  0  0  0  0  0  0
   40.0660   23.4600   36.3170 N   0  0  0  0  0  0  0  0  0  0  0  0
   40.5660   21.6450   37.8410 N   0  0  0  0  0  0  0  0  0  0  0  0
   43.4130   21.1720   35.0700 C   0  0  0  0  0  0  0  0  0  0  0  0
   43.7300   20.6830   33.8130 C   0  0  0  0  0  0  0  0  0  0  0  0
   43.7240   18.8480   34.0920 S   0  0  0  0  0  0  0  0  0  0  0  0
   43.2810   19.1010   35.9130 C   0  0  0  0  0  0  0  0  0  0  0  0
   43.2240   20.2630   35.9920 N   0  0  0  0  0  0  0  0  0  0  0  0
   43.0420   17.7650   37.1040 S   0  0  0  0  0  0  0  0  0  0  0  0
   44.8630   25.3350   37.3120 C   0  0  0  0  0  0  0  0  0  0  0  0
   44.2330   25.6440   38.4640 F   0  0  0  0  0  0  0  0  0  0  0  0
   45.3810   26.4380   36.6470 F   0  0  0  0  0  0  0  0  0  0  0  0
   45.9320   24.4730   37.5930 F   0  0  0  0  0  0  0  0  0  0  0  0
   41.6030   22.8554   34.0466 H   0  0  0  0  0  0  0  0  0  0  0  0
   38.6730   24.7788   34.3403 H   0  0  0  0  0  0  0  0  0  0  0  0
   40.1381   27.3827   34.1748 H   0  0  0  0  0  0  0  0  0  0  0  0
   40.7739   27.2137   35.5791 H   0  0  0  0  0  0  0  0  0  0  0  0
   41.3711   25.1141   33.1691 H   0  0  0  0  0  0  0  0  0  0  0  0
   38.5830   22.6327   39.2563 H   0  0  0  0  0  0  0  0  0  0  0  0
   37.1983   24.6749   38.5810 H   0  0  0  0  0  0  0  0  0  0  0  0
   41.3361   21.3089   37.2452 H   0  0  0  0  0  0  0  0  0  0  0  0
   40.3380   21.1508   38.7155 H   0  0  0  0  0  0  0  0  0  0  0  0
   43.9333   21.2399   32.8865 H   0  0  0  0  0  0  0  0  0  0  0  0
   43.1316   18.2658   38.3761 H   0  0  0  0  0  0  0  0  0  0  0  0
  1  6  1  0
  2  1  2  0
  2  3  1  0
  3  4  2  0
  4  5  1  0
  5 23  1  0
  6  5  2  0
  7  8  1  0
  7 14  1  0
  9  7  1  0
  9  8  1  0
  9  1  1  0
 10 16  1  0
 10 11  2  0
 12 11  1  0
 13 12  2  0
 14 15  2  0
 14 13  1  0
 15 10  1  0
 17  3  1  0
 17 21  1  0
 18 19  1  0
 18 17  2  0
 19 20  1  0
 20 21  2  0
 20 22  1  0
 23 26  1  0
 23 24  1  0
 25 23  1  0
  2 27  1  0
  7 28  1  6
  8 29  1  0
  8 30  1  0
  9 31  1  6
 11 32  1  0
 12 33  1  0
 16 34  1  0
 16 35  1  0
 18 36  1  0
 22 37  1  0
M  ISO  8  27  14  28  13  29  13  30  13  31  13  32  14  33  14  36  14
M  ISO  1  37  11
M  END
>  <minimizedAffinity>  (1) 
-5.78448915

>  <minimizedRMSD>  (1) 
0.497519225

$$$$
