
     RDKit          3D

 12 12  0  0  0  0  0  0  0  0999 V2000
   39.8560   22.5540   37.1760 C   0  0  0  0  0  0  0  0  0  0  0  0
   39.3130   23.2070   38.2920 C   0  0  0  0  0  0  0  0  0  0  0  0
   37.9560   23.5370   38.2550 C   0  0  0  0  0  0  0  0  0  0  0  0
   37.2300   23.2110   37.1460 N   0  0  0  0  0  0  0  0  0  0  0  0
   37.8000   22.5800   36.0910 C   0  0  0  0  0  0  0  0  0  0  0  0
   39.0980   22.2570   36.1110 N   0  0  0  0  0  0  0  0  0  0  0  0
   41.2610   22.2430   37.2820 C   0  0  0  0  0  0  0  0  0  0  0  0
   41.7490   21.1650   37.6860 O   0  0  0  0  0  0  0  0  0  0  0  0
   39.9342   23.4510   39.1664 H   0  0  0  0  0  0  0  0  0  0  0  0
   37.4812   24.0503   39.1042 H   0  0  0  0  0  0  0  0  0  0  0  0
   37.1899   22.3311   35.2102 H   0  0  0  0  0  0  0  0  0  0  0  0
   41.9694   23.0281   36.9789 H   0  0  0  0  0  0  0  0  0  0  0  0
  1  7  1  0
  1  2  2  0
  3  2  1  0
  4  3  2  0
  5  6  2  0
  5  4  1  0
  6  1  1  0
  7  8  2  0
  2  9  1  0
  3 10  1  0
  5 11  1  0
  7 12  1  0
M  ISO  4   9  14  10  14  11  14  12   6
M  END
>  <minimizedAffinity>  (1) 
-2.8699348

>  <minimizedRMSD>  (1) 
0.75501579

$$$$
