
     RDKit          3D

 26 28  0  0  0  0  0  0  0  0999 V2000
   42.3250   23.4040   36.1960 C   0  0  0  0  0  0  0  0  0  0  0  0
   43.5680   23.0970   36.5820 N   0  0  0  0  0  0  0  0  0  0  0  0
   44.6180   23.8760   36.2360 C   0  0  0  0  0  0  0  0  0  0  0  0
   44.5010   24.9770   35.5040 N   0  0  0  0  0  0  0  0  0  0  0  0
   43.2710   25.3490   35.0760 C   0  0  0  0  0  0  0  0  0  0  0  0
   43.1310   26.4740   34.3250 C   0  0  0  0  0  0  0  0  0  0  0  0
   41.8870   26.8710   33.8790 C   0  0  0  0  0  0  0  0  0  0  0  0
   40.8020   26.0710   34.2340 C   0  0  0  0  0  0  0  0  0  0  0  0
   41.0250   24.9530   34.9920 C   0  0  0  0  0  0  0  0  0  0  0  0
   42.2310   24.5300   35.4500 C   0  0  0  0  0  0  0  0  0  0  0  0
   41.2100   22.5100   36.6070 C   0  0  0  0  0  0  0  0  0  0  0  0
   41.8320   21.4040   36.7980 O   0  0  0  0  0  0  0  0  0  0  0  0
   39.8010   22.6230   36.8010 C   0  0  0  0  0  0  0  0  0  0  0  0
   39.3790   23.2140   38.0180 C   0  0  0  0  0  0  0  0  0  0  0  0
   38.0240   23.3940   38.2600 C   0  0  0  0  0  0  0  0  0  0  0  0
   37.1440   22.9870   37.3020 N   0  0  0  0  0  0  0  0  0  0  0  0
   37.5650   22.4270   36.1540 C   0  0  0  0  0  0  0  0  0  0  0  0
   38.8760   22.2400   35.8940 N   0  0  0  0  0  0  0  0  0  0  0  0
   45.6209   23.5819   36.5790 H   0  0  0  0  0  0  0  0  0  0  0  0
   44.0177   27.0732   34.0707 H   0  0  0  0  0  0  0  0  0  0  0  0
   41.7573   27.7782   33.2705 H   0  0  0  0  0  0  0  0  0  0  0  0
   39.7839   26.3336   33.9106 H   0  0  0  0  0  0  0  0  0  0  0  0
   40.1481   24.3425   35.2535 H   0  0  0  0  0  0  0  0  0  0  0  0
   40.1211   23.5283   38.7667 H   0  0  0  0  0  0  0  0  0  0  0  0
   37.6713   23.8511   39.1963 H   0  0  0  0  0  0  0  0  0  0  0  0
   36.8210   22.1130   35.4071 H   0  0  0  0  0  0  0  0  0  0  0  0
  1  2  2  0
  1 11  1  0
  3  2  1  0
  4  3  2  0
  5 10  2  0
  5  4  1  0
  6  5  1  0
  7  8  1  0
  7  6  2  0
  8  9  2  0
  9 10  1  0
 10  1  1  0
 11 12  2  0
 11 13  1  0
 13 14  2  0
 14 15  1  0
 16 15  2  0
 17 16  1  0
 18 17  2  0
 18 13  1  0
  3 19  1  0
  6 20  1  0
  7 21  1  0
  8 22  1  0
  9 23  1  0
 14 24  1  0
 15 25  1  0
 17 26  1  0
M  ISO  8  19  14  20  14  21  14  22  14  23  14  24  14  25  14  26  14
M  END
>  <minimizedAffinity>  (1) 
-4.51172924

>  <minimizedRMSD>  (1) 
0.930115163

$$$$
