
     RDKit          3D

 23 25  0  0  0  0  0  0  0  0999 V2000
   40.8950   22.9560   35.7130 C   0  0  0  0  0  0  0  0  0  0  0  0
   40.8840   21.9490   34.9530 O   0  0  0  0  0  0  0  0  0  0  0  0
   43.3040   26.6920   34.5190 N   0  0  0  0  0  0  0  0  0  0  0  0
   42.0950   26.7430   33.9270 C   0  0  0  0  0  0  0  0  0  0  0  0
   41.4390   25.6260   34.3130 N   0  0  0  0  0  0  0  0  0  0  0  0
   42.2560   24.9180   35.1310 C   0  0  0  0  0  0  0  0  0  0  0  0
   42.1390   23.7180   35.8200 C   0  0  0  0  0  0  0  0  0  0  0  0
   43.1630   23.2710   36.5720 N   0  0  0  0  0  0  0  0  0  0  0  0
   44.3290   23.9510   36.6930 C   0  0  0  0  0  0  0  0  0  0  0  0
   44.4590   25.1270   36.0260 N   0  0  0  0  0  0  0  0  0  0  0  0
   43.4580   25.5900   35.2730 C   0  0  0  0  0  0  0  0  0  0  0  0
   39.7370   23.3880   36.4780 C   0  0  0  0  0  0  0  0  0  0  0  0
   39.7380   22.9430   37.8180 C   0  0  0  0  0  0  0  0  0  0  0  0
   38.6630   23.3150   38.6130 C   0  0  0  0  0  0  0  0  0  0  0  0
   37.6700   24.0830   38.0740 N   0  0  0  0  0  0  0  0  0  0  0  0
   37.7190   24.4800   36.7880 C   0  0  0  0  0  0  0  0  0  0  0  0
   38.7290   24.1450   35.9940 N   0  0  0  0  0  0  0  0  0  0  0  0
   44.0284   27.4156   34.4066 H   0  0  0  0  0  0  0  0  0  0  0  0
   41.7175   27.5346   33.2630 H   0  0  0  0  0  0  0  0  0  0  0  0
   45.1483   23.5609   37.3148 H   0  0  0  0  0  0  0  0  0  0  0  0
   40.5576   22.3265   38.2157 H   0  0  0  0  0  0  0  0  0  0  0  0
   38.6111   22.9954   39.6643 H   0  0  0  0  0  0  0  0  0  0  0  0
   36.9021   25.0970   36.3856 H   0  0  0  0  0  0  0  0  0  0  0  0
  1  7  1  0
  1 12  1  0
  2  1  2  0
  3 11  1  0
  4  5  2  0
  4  3  1  0
  5  6  1  0
  6 11  2  0
  6  7  1  0
  7  8  2  0
  8  9  1  0
 10  9  2  0
 11 10  1  0
 12 13  2  0
 13 14  1  0
 15 14  2  0
 16 15  1  0
 17 12  1  0
 17 16  2  0
  3 18  1  0
  4 19  1  0
  9 20  1  0
 13 21  1  0
 14 22  1  0
 16 23  1  0
M  ISO  6  18   9  19  14  20  14  21  14  22  14  23  14
M  END
>  <minimizedAffinity>  (1) 
-4.32711935

>  <minimizedRMSD>  (1) 
1.45094049

$$$$
