
     RDKit          3D

 22 23  0  0  0  0  0  0  0  0999 V2000
   41.2670   22.1320   36.7690 C   0  0  0  0  0  0  0  0  0  0  0  0
   41.8090   21.0440   37.0220 O   0  0  0  0  0  0  0  0  0  0  0  0
   39.8680   22.4400   36.8620 C   0  0  0  0  0  0  0  0  0  0  0  0
   39.5030   23.0990   38.0320 C   0  0  0  0  0  0  0  0  0  0  0  0
   38.1480   23.4400   38.2010 C   0  0  0  0  0  0  0  0  0  0  0  0
   37.2610   23.1030   37.2050 N   0  0  0  0  0  0  0  0  0  0  0  0
   37.6860   22.4560   36.0830 C   0  0  0  0  0  0  0  0  0  0  0  0
   38.9850   22.1280   35.9180 N   0  0  0  0  0  0  0  0  0  0  0  0
   42.1050   23.2610   36.3180 C   0  0  0  0  0  0  0  0  0  0  0  0
   41.5550   24.0520   35.3280 C   0  0  0  0  0  0  0  0  0  0  0  0
   42.2500   25.1530   34.8170 C   0  0  0  0  0  0  0  0  0  0  0  0
   43.5080   25.4540   35.3100 C   0  0  0  0  0  0  0  0  0  0  0  0
   44.0550   24.6470   36.3120 C   0  0  0  0  0  0  0  0  0  0  0  0
   43.3530   23.5660   36.8030 C   0  0  0  0  0  0  0  0  0  0  0  0
   40.2501   23.3457   38.8007 H   0  0  0  0  0  0  0  0  0  0  0  0
   37.8069   23.9628   39.1067 H   0  0  0  0  0  0  0  0  0  0  0  0
   36.9587   22.1970   35.2994 H   0  0  0  0  0  0  0  0  0  0  0  0
   40.5556   23.8124   34.9357 H   0  0  0  0  0  0  0  0  0  0  0  0
   41.8002   25.7751   34.0292 H   0  0  0  0  0  0  0  0  0  0  0  0
   44.0691   26.3156   34.9191 H   0  0  0  0  0  0  0  0  0  0  0  0
   45.0537   24.8761   36.7122 H   0  0  0  0  0  0  0  0  0  0  0  0
   43.7977   22.9414   37.5917 H   0  0  0  0  0  0  0  0  0  0  0  0
  1  3  1  0
  1  2  2  0
  3  4  2  0
  4  5  1  0
  6  5  2  0
  7  6  1  0
  8  7  2  0
  8  3  1  0
  9  1  1  0
  9 14  1  0
 10  9  2  0
 11 12  2  0
 11 10  1  0
 12 13  1  0
 13 14  2  0
  4 15  1  0
  5 16  1  0
  7 17  1  0
 10 18  1  0
 11 19  1  0
 12 20  1  0
 13 21  1  0
 14 22  1  0
M  ISO  8  15  14  16  14  17  14  18  14  19  14  20  14  21  14  22  14
M  END
>  <minimizedAffinity>  (1) 
-4.18780899

>  <minimizedRMSD>  (1) 
0.580035448

$$$$
