
     RDKit          3D

 21 22  0  0  0  0  0  0  0  0999 V2000
   39.8530   22.4930   36.9010 C   0  0  0  0  0  0  0  0  0  0  0  0
   39.4320   23.1410   38.0710 C   0  0  0  0  0  0  0  0  0  0  0  0
   38.0600   23.4250   38.1880 C   0  0  0  0  0  0  0  0  0  0  0  0
   37.2230   23.0650   37.1830 N   0  0  0  0  0  0  0  0  0  0  0  0
   37.6830   22.4410   36.0750 C   0  0  0  0  0  0  0  0  0  0  0  0
   38.9940   22.1600   35.9410 N   0  0  0  0  0  0  0  0  0  0  0  0
   41.2700   22.2380   36.8540 C   0  0  0  0  0  0  0  0  0  0  0  0
   41.8530   21.2080   37.2370 O   0  0  0  0  0  0  0  0  0  0  0  0
   42.1170   23.3120   36.2900 C   0  0  0  0  0  0  0  0  0  0  0  0
   43.4500   23.3550   36.7070 C   0  0  0  0  0  0  0  0  0  0  0  0
   44.3240   24.3360   36.2270 C   0  0  0  0  0  0  0  0  0  0  0  0
   43.8280   25.2580   35.3300 C   0  0  0  0  0  0  0  0  0  0  0  0
   42.5030   25.1620   34.9570 C   0  0  0  0  0  0  0  0  0  0  0  0
   41.6600   24.2230   35.4130 N   0  0  0  0  0  0  0  0  0  0  0  0
   40.1443   23.4153   38.8631 H   0  0  0  0  0  0  0  0  0  0  0  0
   37.6704   23.9325   39.0828 H   0  0  0  0  0  0  0  0  0  0  0  0
   36.9808   22.1604   35.2761 H   0  0  0  0  0  0  0  0  0  0  0  0
   43.8177   22.6059   37.4237 H   0  0  0  0  0  0  0  0  0  0  0  0
   45.3735   24.3707   36.5547 H   0  0  0  0  0  0  0  0  0  0  0  0
   44.4725   26.0505   34.9218 H   0  0  0  0  0  0  0  0  0  0  0  0
   42.1137   25.9012   34.2414 H   0  0  0  0  0  0  0  0  0  0  0  0
  1  2  2  0
  2  3  1  0
  4  3  2  0
  5  4  1  0
  6  5  2  0
  6  1  1  0
  7  1  1  0
  7  8  2  0
  9 10  2  0
  9  7  1  0
 11 10  1  0
 12 11  2  0
 13 12  1  0
 13 14  2  0
 14  9  1  0
  2 15  1  0
  3 16  1  0
  5 17  1  0
 10 18  1  0
 11 19  1  0
 12 20  1  0
 13 21  1  0
M  ISO  7  15  14  16  14  17  14  18  14  19  14  20  14  21  14
M  END
>  <minimizedAffinity>  (1) 
-4.03245544

>  <minimizedRMSD>  (1) 
0.590287149

$$$$
