
     RDKit          3D

 20 21  0  0  0  0  0  0  0  0999 V2000
   39.8450   22.4900   36.9440 C   0  0  0  0  0  0  0  0  0  0  0  0
   39.4150   23.1390   38.0950 C   0  0  0  0  0  0  0  0  0  0  0  0
   38.0450   23.4400   38.2050 C   0  0  0  0  0  0  0  0  0  0  0  0
   37.2060   23.0790   37.1770 N   0  0  0  0  0  0  0  0  0  0  0  0
   37.6990   22.4420   36.0740 C   0  0  0  0  0  0  0  0  0  0  0  0
   39.0110   22.1510   35.9640 N   0  0  0  0  0  0  0  0  0  0  0  0
   41.2550   22.2310   36.9330 C   0  0  0  0  0  0  0  0  0  0  0  0
   41.8470   21.2450   37.3980 O   0  0  0  0  0  0  0  0  0  0  0  0
   42.1500   23.2300   36.3050 C   0  0  0  0  0  0  0  0  0  0  0  0
   43.5220   23.2050   36.5790 C   0  0  0  0  0  0  0  0  0  0  0  0
   44.3120   24.1740   35.9540 C   0  0  0  0  0  0  0  0  0  0  0  0
   43.7700   25.0860   35.1290 N   0  0  0  0  0  0  0  0  0  0  0  0
   42.4330   25.0990   34.8720 C   0  0  0  0  0  0  0  0  0  0  0  0
   41.6670   24.1690   35.4700 N   0  0  0  0  0  0  0  0  0  0  0  0
   40.1220   23.4084   38.8934 H   0  0  0  0  0  0  0  0  0  0  0  0
   37.6530   23.9537   39.0952 H   0  0  0  0  0  0  0  0  0  0  0  0
   37.0134   22.1613   35.2608 H   0  0  0  0  0  0  0  0  0  0  0  0
   43.9592   22.4563   37.2559 H   0  0  0  0  0  0  0  0  0  0  0  0
   45.3959   24.1904   36.1406 H   0  0  0  0  0  0  0  0  0  0  0  0
   41.9928   25.8470   34.1962 H   0  0  0  0  0  0  0  0  0  0  0  0
  1  2  2  0
  2  3  1  0
  4  3  2  0
  5  4  1  0
  6  5  2  0
  6  1  1  0
  7  1  1  0
  7  8  2  0
  9 10  2  0
  9  7  1  0
 11 10  1  0
 12 11  2  0
 13 12  1  0
 13 14  2  0
 14  9  1  0
  2 15  1  0
  3 16  1  0
  5 17  1  0
 10 18  1  0
 11 19  1  0
 13 20  1  0
M  ISO  6  15  14  16  14  17  14  18  14  19  14  20  14
M  END
>  <minimizedAffinity>  (1) 
-3.8909955

>  <minimizedRMSD>  (1) 
0.674470246

$$$$
