
     RDKit          3D

 20 21  0  0  0  0  0  0  0  0999 V2000
   39.8790   22.5370   36.9570 C   0  0  0  0  0  0  0  0  0  0  0  0
   39.4120   23.1700   38.1110 C   0  0  0  0  0  0  0  0  0  0  0  0
   38.0300   23.4220   38.1940 C   0  0  0  0  0  0  0  0  0  0  0  0
   37.2200   23.0480   37.1750 N   0  0  0  0  0  0  0  0  0  0  0  0
   37.7230   22.4350   36.0720 C   0  0  0  0  0  0  0  0  0  0  0  0
   39.0330   22.1880   35.9730 N   0  0  0  0  0  0  0  0  0  0  0  0
   41.2940   22.2940   36.8970 C   0  0  0  0  0  0  0  0  0  0  0  0
   41.8580   21.2510   37.3390 O   0  0  0  0  0  0  0  0  0  0  0  0
   42.1990   23.2950   36.2900 C   0  0  0  0  0  0  0  0  0  0  0  0
   43.5490   23.2710   36.6000 C   0  0  0  0  0  0  0  0  0  0  0  0
   44.4100   24.1880   36.0490 C   0  0  0  0  0  0  0  0  0  0  0  0
   43.9020   25.1130   35.1980 N   0  0  0  0  0  0  0  0  0  0  0  0
   42.5700   25.1230   34.9040 C   0  0  0  0  0  0  0  0  0  0  0  0
   41.7070   24.2160   35.4440 N   0  0  0  0  0  0  0  0  0  0  0  0
   40.0965   23.4597   38.9219 H   0  0  0  0  0  0  0  0  0  0  0  0
   37.6103   23.9195   39.0808 H   0  0  0  0  0  0  0  0  0  0  0  0
   37.0480   22.1400   35.2551 H   0  0  0  0  0  0  0  0  0  0  0  0
   43.9350   22.5100   37.2942 H   0  0  0  0  0  0  0  0  0  0  0  0
   45.4828   24.1724   36.2916 H   0  0  0  0  0  0  0  0  0  0  0  0
   42.1812   25.8843   34.2117 H   0  0  0  0  0  0  0  0  0  0  0  0
  1  2  2  0
  2  3  1  0
  4  3  2  0
  5  4  1  0
  6  5  2  0
  6  1  1  0
  7  1  1  0
  7  8  2  0
  9 10  2  0
  9  7  1  0
 11 10  1  0
 12 11  2  0
 13 12  1  0
 13 14  2  0
 14  9  1  0
  2 15  1  0
  3 16  1  0
  5 17  1  0
 10 18  1  0
 11 19  1  0
 13 20  1  0
M  ISO  6  15  14  16  14  17  14  18  14  19  14  20  14
M  END
>  <minimizedAffinity>  (1) 
-3.87265229

>  <minimizedRMSD>  (1) 
0.458251715

$$$$
