
     RDKit          3D

 19 20  0  0  0  0  0  0  0  0999 V2000
   39.8650   22.4860   36.9510 C   0  0  0  0  0  0  0  0  0  0  0  0
   39.4370   23.1520   38.0950 C   0  0  0  0  0  0  0  0  0  0  0  0
   38.0650   23.4490   38.1810 C   0  0  0  0  0  0  0  0  0  0  0  0
   37.2330   23.0760   37.1510 N   0  0  0  0  0  0  0  0  0  0  0  0
   37.7280   22.4250   36.0570 C   0  0  0  0  0  0  0  0  0  0  0  0
   39.0430   22.1350   35.9670 N   0  0  0  0  0  0  0  0  0  0  0  0
   41.2720   22.2180   36.9170 C   0  0  0  0  0  0  0  0  0  0  0  0
   41.8580   21.1750   37.3100 O   0  0  0  0  0  0  0  0  0  0  0  0
   42.1130   23.2580   36.3710 C   0  0  0  0  0  0  0  0  0  0  0  0
   43.4480   23.6010   36.7620 C   0  0  0  0  0  0  0  0  0  0  0  0
   44.0540   24.6320   36.0990 C   0  0  0  0  0  0  0  0  0  0  0  0
   43.3370   25.2870   35.0820 C   0  0  0  0  0  0  0  0  0  0  0  0
   41.7380   24.3830   35.0890 S   0  0  0  0  0  0  0  0  0  0  0  0
   40.1384   23.4330   38.8944 H   0  0  0  0  0  0  0  0  0  0  0  0
   37.6624   23.9728   39.0605 H   0  0  0  0  0  0  0  0  0  0  0  0
   37.0487   22.1345   35.2420 H   0  0  0  0  0  0  0  0  0  0  0  0
   43.9657   23.0558   37.5649 H   0  0  0  0  0  0  0  0  0  0  0  0
   45.0780   24.9416   36.3551 H   0  0  0  0  0  0  0  0  0  0  0  0
   43.6530   26.1263   34.4450 H   0  0  0  0  0  0  0  0  0  0  0  0
  1  2  2  0
  2  3  1  0
  4  3  2  0
  5  4  1  0
  6  5  2  0
  6  1  1  0
  7  1  1  0
  7  8  2  0
  9 10  2  0
  9  7  1  0
 11 10  1  0
 12 13  1  0
 12 11  2  0
 13  9  1  0
  2 14  1  0
  3 15  1  0
  5 16  1  0
 10 17  1  0
 11 18  1  0
 12 19  1  0
M  ISO  6  14  14  15  14  16  14  17  14  18  14  19  14
M  END
>  <minimizedAffinity>  (1) 
-3.82533193

>  <minimizedRMSD>  (1) 
0.610113919

$$$$
