
     RDKit          3D

 17 18  0  0  0  0  0  0  0  0999 V2000
   39.8700   22.4920   37.0160 C   0  0  0  0  0  0  0  0  0  0  0  0
   39.3950   23.1460   38.1510 C   0  0  0  0  0  0  0  0  0  0  0  0
   38.0250   23.4570   38.1950 C   0  0  0  0  0  0  0  0  0  0  0  0
   37.2520   23.1050   37.1370 N   0  0  0  0  0  0  0  0  0  0  0  0
   37.7540   22.4750   36.0580 C   0  0  0  0  0  0  0  0  0  0  0  0
   39.0560   22.1720   36.0020 N   0  0  0  0  0  0  0  0  0  0  0  0
   41.2790   22.2050   37.0390 C   0  0  0  0  0  0  0  0  0  0  0  0
   41.8280   21.1790   37.5200 O   0  0  0  0  0  0  0  0  0  0  0  0
   42.2040   23.1810   36.4510 C   0  0  0  0  0  0  0  0  0  0  0  0
   41.9490   24.1260   35.5150 N   0  0  0  0  0  0  0  0  0  0  0  0
   43.0320   24.7990   35.2520 O   0  0  0  0  0  0  0  0  0  0  0  0
   44.0310   24.3520   35.9750 C   0  0  0  0  0  0  0  0  0  0  0  0
   43.5080   23.3530   36.7120 N   0  0  0  0  0  0  0  0  0  0  0  0
   40.0669   23.4090   38.9813 H   0  0  0  0  0  0  0  0  0  0  0  0
   37.5909   23.9723   39.0645 H   0  0  0  0  0  0  0  0  0  0  0  0
   37.0921   22.2088   35.2207 H   0  0  0  0  0  0  0  0  0  0  0  0
   45.0697   24.7141   35.9787 H   0  0  0  0  0  0  0  0  0  0  0  0
  1  7  1  0
  1  2  2  0
  2  3  1  0
  4  3  2  0
  5  4  1  0
  6  5  2  0
  6  1  1  0
  7  8  2  0
  9 13  1  0
  9  7  1  0
 10  9  2  0
 11 10  1  0
 11 12  1  0
 12 13  2  0
  2 14  1  0
  3 15  1  0
  5 16  1  0
 12 17  1  0
M  ISO  4  14  14  15  14  16  14  17  14
M  END
>  <minimizedAffinity>  (1) 
-3.67258334

>  <minimizedRMSD>  (1) 
0.436706066

$$$$
