
     RDKit          3D

 18 19  0  0  0  0  0  0  0  0999 V2000
   39.8310   22.5210   36.9050 C   0  0  0  0  0  0  0  0  0  0  0  0
   39.4200   23.1540   38.0740 C   0  0  0  0  0  0  0  0  0  0  0  0
   38.0440   23.4220   38.2180 C   0  0  0  0  0  0  0  0  0  0  0  0
   37.2040   23.0460   37.2020 N   0  0  0  0  0  0  0  0  0  0  0  0
   37.6750   22.4280   36.0820 C   0  0  0  0  0  0  0  0  0  0  0  0
   38.9830   22.1710   35.9400 N   0  0  0  0  0  0  0  0  0  0  0  0
   41.2530   22.3060   36.8610 C   0  0  0  0  0  0  0  0  0  0  0  0
   41.8870   21.3190   37.3350 O   0  0  0  0  0  0  0  0  0  0  0  0
   42.0500   23.3610   36.1850 C   0  0  0  0  0  0  0  0  0  0  0  0
   43.4420   23.2690   36.5740 C   0  0  0  0  0  0  0  0  0  0  0  0
   44.1410   24.7330   35.5420 S   0  0  0  0  0  0  0  0  0  0  0  0
   42.4330   25.1220   34.8390 C   0  0  0  0  0  0  0  0  0  0  0  0
   41.6570   24.2860   35.3430 N   0  0  0  0  0  0  0  0  0  0  0  0
   40.1414   23.4344   38.8556 H   0  0  0  0  0  0  0  0  0  0  0  0
   37.6553   23.9184   39.1194 H   0  0  0  0  0  0  0  0  0  0  0  0
   36.9740   22.1369   35.2859 H   0  0  0  0  0  0  0  0  0  0  0  0
   43.9482   22.5702   37.2562 H   0  0  0  0  0  0  0  0  0  0  0  0
   42.1749   25.9223   34.1299 H   0  0  0  0  0  0  0  0  0  0  0  0
  1  2  2  0
  2  3  1  0
  4  3  2  0
  5  4  1  0
  6  5  2  0
  6  1  1  0
  7  1  1  0
  7  8  2  0
  9 10  2  0
  9  7  1  0
 11 10  1  0
 12 13  2  0
 12 11  1  0
 13  9  1  0
  2 14  1  0
  3 15  1  0
  5 16  1  0
 10 17  1  0
 12 18  1  0
M  ISO  5  14  14  15  14  16  14  17  14  18  14
M  END
>  <minimizedAffinity>  (1) 
-3.59332275

>  <minimizedRMSD>  (1) 
0.824497938

$$$$
