
     RDKit          3D

 19 19  0  0  0  0  0  0  0  0999 V2000
   41.2770   22.1380   37.2490 C   0  0  0  0  0  0  0  0  0  0  0  0
   41.7350   21.0910   37.7290 O   0  0  0  0  0  0  0  0  0  0  0  0
   42.1070   23.1840   36.7480 N   0  0  0  0  0  0  0  0  0  0  0  0
   43.3450   22.7190   36.2230 C   0  0  0  0  0  0  0  0  0  0  0  0
   43.9080   21.5980   36.0830 N   0  0  0  0  0  0  0  0  0  0  0  0
   44.3410   23.5710   35.6650 N   0  0  0  0  0  0  0  0  0  0  0  0
   43.6230   20.6480   36.3200 H   0  0  0  0  0  0  0  0  0  0  0  0
   39.8800   22.4760   37.1170 C   0  0  0  0  0  0  0  0  0  0  0  0
   39.3520   23.1480   38.2300 C   0  0  0  0  0  0  0  0  0  0  0  0
   38.0100   23.5210   38.1940 C   0  0  0  0  0  0  0  0  0  0  0  0
   37.2860   23.2160   37.0890 N   0  0  0  0  0  0  0  0  0  0  0  0
   37.8390   22.5600   36.0270 C   0  0  0  0  0  0  0  0  0  0  0  0
   39.1230   22.1950   36.0450 N   0  0  0  0  0  0  0  0  0  0  0  0
   41.8369   24.1778   36.7646 H   0  0  0  0  0  0  0  0  0  0  0  0
   45.2172   23.1697   35.3014 H   0  0  0  0  0  0  0  0  0  0  0  0
   44.1850   24.5883   35.6251 H   0  0  0  0  0  0  0  0  0  0  0  0
   39.9791   23.3737   39.1051 H   0  0  0  0  0  0  0  0  0  0  0  0
   37.5492   24.0499   39.0413 H   0  0  0  0  0  0  0  0  0  0  0  0
   37.2201   22.3298   35.1473 H   0  0  0  0  0  0  0  0  0  0  0  0
  1  2  2  0
  3  1  1  0
  4  3  1  0
  5  4  2  0
  5  7  1  0
  6  4  1  0
  8  1  1  0
  8  9  2  0
 10  9  1  0
 11 10  2  0
 12 13  2  0
 12 11  1  0
 13  8  1  0
  3 14  1  0
  6 15  1  0
  6 16  1  0
  9 17  1  0
 10 18  1  0
 12 19  1  0
M  ISO  3  17  14  18  14  19  14
M  END
>  <minimizedAffinity>  (1) 
-3.59218597

>  <minimizedRMSD>  (1) 
0.21528542

$$$$
