
     RDKit          3D

 19 20  0  0  0  0  0  0  0  0999 V2000
   39.8650   22.4610   36.9830 C   0  0  0  0  0  0  0  0  0  0  0  0
   39.4410   23.1190   38.1330 C   0  0  0  0  0  0  0  0  0  0  0  0
   38.0840   23.4800   38.1930 C   0  0  0  0  0  0  0  0  0  0  0  0
   37.2720   23.1660   37.1320 N   0  0  0  0  0  0  0  0  0  0  0  0
   37.7540   22.5210   36.0400 C   0  0  0  0  0  0  0  0  0  0  0  0
   39.0520   22.1690   35.9690 N   0  0  0  0  0  0  0  0  0  0  0  0
   41.2830   22.1170   36.9870 C   0  0  0  0  0  0  0  0  0  0  0  0
   41.8190   21.2120   37.6900 O   0  0  0  0  0  0  0  0  0  0  0  0
   42.2250   22.8830   36.0910 C   0  0  0  0  0  0  0  0  0  0  0  0
   43.3080   23.6990   36.6230 C   0  0  0  0  0  0  0  0  0  0  0  0
   43.6460   22.3290   36.1820 C   0  0  0  0  0  0  0  0  0  0  0  0
   40.1346   23.3459   38.9560 H   0  0  0  0  0  0  0  0  0  0  0  0
   37.6809   24.0036   39.0724 H   0  0  0  0  0  0  0  0  0  0  0  0
   37.0784   22.2834   35.2050 H   0  0  0  0  0  0  0  0  0  0  0  0
   41.4529   23.1111   35.3415 H   0  0  0  0  0  0  0  0  0  0  0  0
   43.6726   24.5604   36.0442 H   0  0  0  0  0  0  0  0  0  0  0  0
   43.4527   24.2542   37.5615 H   0  0  0  0  0  0  0  0  0  0  0  0
   43.8934   21.5526   36.9209 H   0  0  0  0  0  0  0  0  0  0  0  0
   44.3649   21.8798   35.4810 H   0  0  0  0  0  0  0  0  0  0  0  0
  1  7  1  0
  1  2  2  0
  2  3  1  0
  4  3  2  0
  5  4  1  0
  6  5  2  0
  6  1  1  0
  7  8  2  0
  9 11  1  0
  9 10  1  0
  9  7  1  0
 11 10  1  0
  2 12  1  0
  3 13  1  0
  5 14  1  0
  9 15  1  0
 10 16  1  0
 10 17  1  0
 11 18  1  0
 11 19  1  0
M  ISO  8  12  14  13  14  14  14  15  13  16  13  17  13  18  13  19  13
M  END
>  <minimizedAffinity>  (1) 
-3.57552528

>  <minimizedRMSD>  (1) 
0.564305663

$$$$
