
     RDKit          3D

 36 38  0  0  0  0  0  0  0  0999 V2000
   42.1460   23.2220   36.3720 C   0  0  0  0  0  0  0  0  0  0  0  0
   43.5270   23.0940   36.6150 C   0  0  0  0  0  0  0  0  0  0  0  0
   44.4260   24.0080   36.0680 C   0  0  0  0  0  0  0  0  0  0  0  0
   43.9250   25.0310   35.2870 C   0  0  0  0  0  0  0  0  0  0  0  0
   42.5570   25.0920   35.0920 C   0  0  0  0  0  0  0  0  0  0  0  0
   41.6880   24.2250   35.6100 N   0  0  0  0  0  0  0  0  0  0  0  0
   42.0350   26.1450   34.2880 N   0  0  0  0  0  0  0  0  0  0  0  0
   42.8730   26.6650   33.2240 C   0  0  0  0  0  0  0  0  0  0  0  0
   42.1880   27.8760   32.5860 C   0  0  0  0  0  0  0  0  0  0  0  0
   40.8820   27.2980   32.0290 C   0  0  0  0  0  0  0  0  0  0  0  0
   39.9920   27.0160   33.1930 C   0  0  0  0  0  0  0  0  0  0  0  0
   40.7400   26.7180   34.4680 C   0  0  0  0  0  0  0  0  0  0  0  0
   41.2730   22.2020   36.9990 C   0  0  0  0  0  0  0  0  0  0  0  0
   41.8280   21.1960   37.4860 O   0  0  0  0  0  0  0  0  0  0  0  0
   39.8600   22.4760   36.9800 C   0  0  0  0  0  0  0  0  0  0  0  0
   39.3940   23.1340   38.1310 C   0  0  0  0  0  0  0  0  0  0  0  0
   38.0300   23.4430   38.2010 C   0  0  0  0  0  0  0  0  0  0  0  0
   37.2260   23.0930   37.1570 N   0  0  0  0  0  0  0  0  0  0  0  0
   37.7260   22.4630   36.0750 C   0  0  0  0  0  0  0  0  0  0  0  0
   39.0300   22.1630   35.9990 N   0  0  0  0  0  0  0  0  0  0  0  0
   43.8984   22.2683   37.2398 H   0  0  0  0  0  0  0  0  0  0  0  0
   45.5064   23.9169   36.2535 H   0  0  0  0  0  0  0  0  0  0  0  0
   44.5949   25.7761   34.8330 H   0  0  0  0  0  0  0  0  0  0  0  0
   43.8458   26.9690   33.6378 H   0  0  0  0  0  0  0  0  0  0  0  0
   43.0277   25.8860   32.4629 H   0  0  0  0  0  0  0  0  0  0  0  0
   41.9848   28.6534   33.3372 H   0  0  0  0  0  0  0  0  0  0  0  0
   42.8053   28.3595   31.8145 H   0  0  0  0  0  0  0  0  0  0  0  0
   40.4041   28.0260   31.3570 H   0  0  0  0  0  0  0  0  0  0  0  0
   41.0752   26.3803   31.4541 H   0  0  0  0  0  0  0  0  0  0  0  0
   39.3525   27.8948   33.3625 H   0  0  0  0  0  0  0  0  0  0  0  0
   39.4102   26.1165   32.9431 H   0  0  0  0  0  0  0  0  0  0  0  0
   40.1360   26.0163   35.0619 H   0  0  0  0  0  0  0  0  0  0  0  0
   40.8988   27.6865   34.9647 H   0  0  0  0  0  0  0  0  0  0  0  0
   40.0787   23.3978   38.9505 H   0  0  0  0  0  0  0  0  0  0  0  0
   37.6156   23.9577   39.0804 H   0  0  0  0  0  0  0  0  0  0  0  0
   37.0563   22.1922   35.2454 H   0  0  0  0  0  0  0  0  0  0  0  0
  1  2  2  0
  1 13  1  0
  3  2  1  0
  4  3  2  0
  5  4  1  0
  5  6  2  0
  6  1  1  0
  7 12  1  0
  7  5  1  0
  8  7  1  0
  9  8  1  0
 10  9  1  0
 10 11  1  0
 11 12  1  0
 13 14  2  0
 15 13  1  0
 15 16  2  0
 16 17  1  0
 18 17  2  0
 19 18  1  0
 20 19  2  0
 20 15  1  0
  2 21  1  0
  3 22  1  0
  4 23  1  0
  8 24  1  0
  8 25  1  0
  9 26  1  0
  9 27  1  0
 10 28  1  0
 10 29  1  0
 11 30  1  0
 11 31  1  0
 12 32  1  0
 12 33  1  0
 16 34  1  0
 17 35  1  0
 19 36  1  0
M  ISO  8  21  14  22  14  23  14  24  13  25  13  26  13  27  13  28  13
M  ISO  8  29  13  30  13  31  13  32  13  33  13  34  14  35  14  36  14
M  END
>  <minimizedAffinity>  (1) 
-5.27279711

>  <minimizedRMSD>  (1) 
0.301353574

$$$$
