
     RDKit          3D

 31 33  0  0  0  0  0  0  0  0999 V2000
   42.0800   23.3800   36.2510 C   0  0  0  0  0  0  0  0  0  0  0  0
   43.3340   23.6510   36.7790 C   0  0  0  0  0  0  0  0  0  0  0  0
   44.1610   24.6430   36.2430 C   0  0  0  0  0  0  0  0  0  0  0  0
   43.6990   25.3530   35.1670 C   0  0  0  0  0  0  0  0  0  0  0  0
   42.4400   25.0480   34.6740 C   0  0  0  0  0  0  0  0  0  0  0  0
   41.6380   24.0900   35.1910 N   0  0  0  0  0  0  0  0  0  0  0  0
   41.8100   25.7020   33.5510 N   0  0  0  0  0  0  0  0  0  0  0  0
   42.1170   25.5250   32.2480 C   0  0  0  0  0  0  0  0  0  0  0  0
   41.3890   26.2520   31.3320 C   0  0  0  0  0  0  0  0  0  0  0  0
   40.3870   27.1250   31.7160 C   0  0  0  0  0  0  0  0  0  0  0  0
   39.7240   27.7870   30.8640 O   0  0  0  0  0  0  0  0  0  0  0  0
   40.1050   27.2750   33.0390 N   0  0  0  0  0  0  0  0  0  0  0  0
   40.8350   26.5480   33.9320 C   0  0  0  0  0  0  0  0  0  0  0  0
   40.4890   26.7690   35.1180 O   0  0  0  0  0  0  0  0  0  0  0  0
   41.2750   22.3170   36.8810 C   0  0  0  0  0  0  0  0  0  0  0  0
   41.9010   21.3330   37.3080 O   0  0  0  0  0  0  0  0  0  0  0  0
   39.8550   22.5270   36.9340 C   0  0  0  0  0  0  0  0  0  0  0  0
   39.4100   23.1670   38.0930 C   0  0  0  0  0  0  0  0  0  0  0  0
   38.0330   23.3990   38.2000 C   0  0  0  0  0  0  0  0  0  0  0  0
   37.2000   23.0090   37.2130 N   0  0  0  0  0  0  0  0  0  0  0  0
   37.6810   22.3880   36.1050 C   0  0  0  0  0  0  0  0  0  0  0  0
   39.0000   22.1580   35.9850 N   0  0  0  0  0  0  0  0  0  0  0  0
   43.6875   23.0694   37.6432 H   0  0  0  0  0  0  0  0  0  0  0  0
   45.1528   24.8469   36.6727 H   0  0  0  0  0  0  0  0  0  0  0  0
   44.3101   26.1434   34.7067 H   0  0  0  0  0  0  0  0  0  0  0  0
   42.9114   24.8325   31.9327 H   0  0  0  0  0  0  0  0  0  0  0  0
   41.6115   26.1346   30.2612 H   0  0  0  0  0  0  0  0  0  0  0  0
   39.3642   27.9169   33.3553 H   0  0  0  0  0  0  0  0  0  0  0  0
   40.1087   23.4745   38.8850 H   0  0  0  0  0  0  0  0  0  0  0  0
   37.6293   23.9009   39.0917 H   0  0  0  0  0  0  0  0  0  0  0  0
   36.9922   22.0737   35.3070 H   0  0  0  0  0  0  0  0  0  0  0  0
  1  2  2  0
  1 15  1  0
  3  2  1  0
  4  3  2  0
  5  4  1  0
  5  6  2  0
  6  1  1  0
  7 13  1  0
  7  5  1  0
  8  7  1  0
  9 10  1  0
  9  8  2  0
 10 12  1  0
 11 10  2  0
 12 13  1  0
 13 14  2  0
 15 17  1  0
 15 16  2  0
 17 18  2  0
 18 19  1  0
 20 19  2  0
 21 20  1  0
 22 21  2  0
 22 17  1  0
  2 23  1  0
  3 24  1  0
  4 25  1  0
  8 26  1  0
  9 27  1  0
 12 28  1  0
 18 29  1  0
 19 30  1  0
 21 31  1  0
M  ISO  8  23  14  24  14  25  14  26  14  27  14  28   9  29  14  30  14
M  ISO  1  31  14
M  END
>  <minimizedAffinity>  (1) 
-5.22105598

>  <minimizedRMSD>  (1) 
0.608510733

$$$$
