
     RDKit          3D

 28 30  0  0  0  0  0  0  0  0999 V2000
   42.2220   23.1110   36.4330 C   0  0  0  0  0  0  0  0  0  0  0  0
   43.5750   23.0020   36.7430 C   0  0  0  0  0  0  0  0  0  0  0  0
   44.5160   23.9260   36.2600 C   0  0  0  0  0  0  0  0  0  0  0  0
   44.0640   24.9510   35.4650 C   0  0  0  0  0  0  0  0  0  0  0  0
   42.7210   25.0010   35.1980 C   0  0  0  0  0  0  0  0  0  0  0  0
   41.8140   24.1340   35.6460 N   0  0  0  0  0  0  0  0  0  0  0  0
   42.1330   26.0310   34.3770 N   0  0  0  0  0  0  0  0  0  0  0  0
   40.8300   26.1740   34.6280 N   0  0  0  0  0  0  0  0  0  0  0  0
   40.3480   27.1470   33.8300 C   0  0  0  0  0  0  0  0  0  0  0  0
   41.3830   27.6220   33.0590 C   0  0  0  0  0  0  0  0  0  0  0  0
   42.4980   26.9010   33.4240 C   0  0  0  0  0  0  0  0  0  0  0  0
   41.3140   22.0910   36.9880 C   0  0  0  0  0  0  0  0  0  0  0  0
   41.8300   21.0530   37.4270 O   0  0  0  0  0  0  0  0  0  0  0  0
   39.9080   22.4170   36.9600 C   0  0  0  0  0  0  0  0  0  0  0  0
   39.4550   23.1000   38.1100 C   0  0  0  0  0  0  0  0  0  0  0  0
   38.0940   23.4500   38.1500 C   0  0  0  0  0  0  0  0  0  0  0  0
   37.2940   23.1280   37.1150 N   0  0  0  0  0  0  0  0  0  0  0  0
   37.7770   22.4720   36.0330 C   0  0  0  0  0  0  0  0  0  0  0  0
   39.0740   22.1270   35.9730 N   0  0  0  0  0  0  0  0  0  0  0  0
   43.9148   22.1729   37.3811 H   0  0  0  0  0  0  0  0  0  0  0  0
   45.5829   23.8317   36.5108 H   0  0  0  0  0  0  0  0  0  0  0  0
   44.7548   25.7039   35.0577 H   0  0  0  0  0  0  0  0  0  0  0  0
   39.3067   27.5003   33.8004 H   0  0  0  0  0  0  0  0  0  0  0  0
   41.3307   28.4185   32.3022 H   0  0  0  0  0  0  0  0  0  0  0  0
   43.5093   27.0180   33.0075 H   0  0  0  0  0  0  0  0  0  0  0  0
   40.1365   23.3471   38.9374 H   0  0  0  0  0  0  0  0  0  0  0  0
   37.6850   23.9833   39.0208 H   0  0  0  0  0  0  0  0  0  0  0  0
   37.1044   22.2206   35.1997 H   0  0  0  0  0  0  0  0  0  0  0  0
  1  2  2  0
  1 12  1  0
  3  2  1  0
  4  3  2  0
  5  4  1  0
  5  6  2  0
  6  1  1  0
  7  8  1  0
  7  5  1  0
  9  8  2  0
 10 11  2  0
 10  9  1  0
 11  7  1  0
 12 13  2  0
 14 12  1  0
 14 15  2  0
 15 16  1  0
 17 16  2  0
 18 17  1  0
 19 18  2  0
 19 14  1  0
  2 20  1  0
  3 21  1  0
  4 22  1  0
  9 23  1  0
 10 24  1  0
 11 25  1  0
 15 26  1  0
 16 27  1  0
 18 28  1  0
M  ISO  8  20  14  21  14  22  14  23  14  24  14  25  14  26  14  27  14
M  ISO  1  28  14
M  END
>  <minimizedAffinity>  (1) 
-5.02492428

>  <minimizedRMSD>  (1) 
0.361720383

$$$$
