
     RDKit          3D

 33 35  0  0  0  0  0  0  0  0999 V2000
   42.1790   23.2010   36.3860 C   0  0  0  0  0  0  0  0  0  0  0  0
   43.4920   23.2490   36.8290 C   0  0  0  0  0  0  0  0  0  0  0  0
   44.4010   24.1700   36.3260 C   0  0  0  0  0  0  0  0  0  0  0  0
   43.9420   25.0420   35.3610 C   0  0  0  0  0  0  0  0  0  0  0  0
   42.6190   24.9660   34.9400 C   0  0  0  0  0  0  0  0  0  0  0  0
   41.7740   24.0620   35.4510 N   0  0  0  0  0  0  0  0  0  0  0  0
   42.1580   25.8680   33.9490 N   0  0  0  0  0  0  0  0  0  0  0  0
   42.8430   27.0950   33.5140 C   0  0  0  0  0  0  0  0  0  0  0  0
   41.8470   27.7940   32.6200 C   0  0  0  0  0  0  0  0  0  0  0  0
   40.5320   27.2290   33.1110 C   0  0  0  0  0  0  0  0  0  0  0  0
   40.9160   25.7450   33.1740 C   0  0  0  0  0  0  0  0  0  0  0  0
   41.2810   22.1820   36.9810 C   0  0  0  0  0  0  0  0  0  0  0  0
   41.8310   21.1620   37.4360 O   0  0  0  0  0  0  0  0  0  0  0  0
   39.8670   22.4720   36.9750 C   0  0  0  0  0  0  0  0  0  0  0  0
   39.4230   23.1430   38.1140 C   0  0  0  0  0  0  0  0  0  0  0  0
   38.0540   23.4530   38.1660 C   0  0  0  0  0  0  0  0  0  0  0  0
   37.2530   23.0960   37.1410 N   0  0  0  0  0  0  0  0  0  0  0  0
   37.7310   22.4480   36.0630 C   0  0  0  0  0  0  0  0  0  0  0  0
   39.0490   22.1350   35.9820 N   0  0  0  0  0  0  0  0  0  0  0  0
   43.8226   22.5377   37.6003 H   0  0  0  0  0  0  0  0  0  0  0  0
   45.4415   24.2028   36.6815 H   0  0  0  0  0  0  0  0  0  0  0  0
   44.6185   25.7930   34.9271 H   0  0  0  0  0  0  0  0  0  0  0  0
   43.0966   27.7251   34.3792 H   0  0  0  0  0  0  0  0  0  0  0  0
   43.7894   26.8817   32.9955 H   0  0  0  0  0  0  0  0  0  0  0  0
   42.0178   27.5470   31.5618 H   0  0  0  0  0  0  0  0  0  0  0  0
   41.9031   28.8916   32.6670 H   0  0  0  0  0  0  0  0  0  0  0  0
   40.2560   27.6258   34.0991 H   0  0  0  0  0  0  0  0  0  0  0  0
   39.6550   27.4645   32.4901 H   0  0  0  0  0  0  0  0  0  0  0  0
   40.1589   25.1439   33.6989 H   0  0  0  0  0  0  0  0  0  0  0  0
   41.0099   25.2366   32.2031 H   0  0  0  0  0  0  0  0  0  0  0  0
   40.1093   23.4154   38.9294 H   0  0  0  0  0  0  0  0  0  0  0  0
   37.6383   23.9828   39.0358 H   0  0  0  0  0  0  0  0  0  0  0  0
   37.0508   22.1709   35.2442 H   0  0  0  0  0  0  0  0  0  0  0  0
  1  2  2  0
  1 12  1  0
  3  2  1  0
  4  3  2  0
  5  4  1  0
  5  6  2  0
  6  1  1  0
  7  5  1  0
  8  7  1  0
  9 10  1  0
  9  8  1  0
 10 11  1  0
 11  7  1  0
 12 13  2  0
 14 12  1  0
 14 15  2  0
 15 16  1  0
 17 16  2  0
 18 17  1  0
 19 18  2  0
 19 14  1  0
  2 20  1  0
  3 21  1  0
  4 22  1  0
  8 23  1  0
  8 24  1  0
  9 25  1  0
  9 26  1  0
 10 27  1  0
 10 28  1  0
 11 29  1  0
 11 30  1  0
 15 31  1  0
 16 32  1  0
 18 33  1  0
M  ISO  8  20  14  21  14  22  14  23  13  24  13  25  13  26  13  27  13
M  ISO  6  28  13  29  13  30  13  31  14  32  14  33  14
M  END
>  <minimizedAffinity>  (1) 
-4.92348576

>  <minimizedRMSD>  (1) 
0.235822678

$$$$
