
     RDKit          3D

 27 29  0  0  0  0  0  0  0  0999 V2000
   42.1930   23.1420   36.4330 C   0  0  0  0  0  0  0  0  0  0  0  0
   43.5550   23.0240   36.7290 C   0  0  0  0  0  0  0  0  0  0  0  0
   44.4770   23.9450   36.2200 C   0  0  0  0  0  0  0  0  0  0  0  0
   44.0200   24.9630   35.4260 C   0  0  0  0  0  0  0  0  0  0  0  0
   42.6580   25.0280   35.1680 C   0  0  0  0  0  0  0  0  0  0  0  0
   41.7710   24.1470   35.6540 N   0  0  0  0  0  0  0  0  0  0  0  0
   42.0880   26.0530   34.3520 N   0  0  0  0  0  0  0  0  0  0  0  0
   40.7760   26.3980   34.2660 C   0  0  0  0  0  0  0  0  0  0  0  0
   40.7000   27.4160   33.3740 N   0  0  0  0  0  0  0  0  0  0  0  0
   41.9360   27.6970   32.9150 C   0  0  0  0  0  0  0  0  0  0  0  0
   42.7740   26.8390   33.5360 N   0  0  0  0  0  0  0  0  0  0  0  0
   41.2830   22.1370   37.0030 C   0  0  0  0  0  0  0  0  0  0  0  0
   41.8160   21.1010   37.4540 O   0  0  0  0  0  0  0  0  0  0  0  0
   39.8770   22.4430   36.9870 C   0  0  0  0  0  0  0  0  0  0  0  0
   39.4310   23.1080   38.1230 C   0  0  0  0  0  0  0  0  0  0  0  0
   38.0570   23.4440   38.1800 C   0  0  0  0  0  0  0  0  0  0  0  0
   37.2620   23.1000   37.1290 N   0  0  0  0  0  0  0  0  0  0  0  0
   37.7530   22.4570   36.0560 C   0  0  0  0  0  0  0  0  0  0  0  0
   39.0540   22.1270   35.9790 N   0  0  0  0  0  0  0  0  0  0  0  0
   43.9044   22.1995   37.3678 H   0  0  0  0  0  0  0  0  0  0  0  0
   45.5481   23.8533   36.4530 H   0  0  0  0  0  0  0  0  0  0  0  0
   44.7121   25.7072   35.0052 H   0  0  0  0  0  0  0  0  0  0  0  0
   39.9390   25.9403   34.8136 H   0  0  0  0  0  0  0  0  0  0  0  0
   42.2077   28.4704   32.1814 H   0  0  0  0  0  0  0  0  0  0  0  0
   40.1174   23.3627   38.9440 H   0  0  0  0  0  0  0  0  0  0  0  0
   37.6415   23.9702   39.0520 H   0  0  0  0  0  0  0  0  0  0  0  0
   37.0790   22.1963   35.2267 H   0  0  0  0  0  0  0  0  0  0  0  0
  1  2  2  0
  1 12  1  0
  3  2  1  0
  4  3  2  0
  5  4  1  0
  5  6  2  0
  6  1  1  0
  7  5  1  0
  8  7  1  0
  9  8  2  0
 10  9  1  0
 10 11  2  0
 11  7  1  0
 12 13  2  0
 14 12  1  0
 14 15  2  0
 15 16  1  0
 17 16  2  0
 18 17  1  0
 19 18  2  0
 19 14  1  0
  2 20  1  0
  3 21  1  0
  4 22  1  0
  8 23  1  0
 10 24  1  0
 15 25  1  0
 16 26  1  0
 18 27  1  0
M  ISO  8  20  14  21  14  22  14  23  14  24  14  25  14  26  14  27  14
M  END
>  <minimizedAffinity>  (1) 
-4.92172718

>  <minimizedRMSD>  (1) 
0.31846118

$$$$
