
     RDKit          3D

 28 30  0  0  0  0  0  0  0  0999 V2000
   42.2040   23.1310   36.4220 C   0  0  0  0  0  0  0  0  0  0  0  0
   43.5560   23.0200   36.7310 C   0  0  0  0  0  0  0  0  0  0  0  0
   44.4850   23.9300   36.2400 C   0  0  0  0  0  0  0  0  0  0  0  0
   44.0270   24.9600   35.4300 C   0  0  0  0  0  0  0  0  0  0  0  0
   42.6760   25.0130   35.1640 C   0  0  0  0  0  0  0  0  0  0  0  0
   41.7870   24.1380   35.6360 N   0  0  0  0  0  0  0  0  0  0  0  0
   42.2430   26.1170   34.3050 C   0  0  0  0  0  0  0  0  0  0  0  0
   40.9890   26.4100   33.8400 C   0  0  0  0  0  0  0  0  0  0  0  0
   41.0090   27.5270   33.0660 C   0  0  0  0  0  0  0  0  0  0  0  0
   42.3020   27.9170   33.0630 N   0  0  0  0  0  0  0  0  0  0  0  0
   43.0170   27.0800   33.7950 N   0  0  0  0  0  0  0  0  0  0  0  0
   41.2870   22.1150   36.9900 C   0  0  0  0  0  0  0  0  0  0  0  0
   41.8100   21.0790   37.4370 O   0  0  0  0  0  0  0  0  0  0  0  0
   39.8870   22.4290   36.9640 C   0  0  0  0  0  0  0  0  0  0  0  0
   39.4370   23.1110   38.1150 C   0  0  0  0  0  0  0  0  0  0  0  0
   38.0700   23.4500   38.1550 C   0  0  0  0  0  0  0  0  0  0  0  0
   37.2740   23.1160   37.1180 N   0  0  0  0  0  0  0  0  0  0  0  0
   37.7510   22.4650   36.0430 C   0  0  0  0  0  0  0  0  0  0  0  0
   39.0540   22.1250   35.9720 N   0  0  0  0  0  0  0  0  0  0  0  0
   43.8962   22.1965   37.3761 H   0  0  0  0  0  0  0  0  0  0  0  0
   45.5530   23.8365   36.4864 H   0  0  0  0  0  0  0  0  0  0  0  0
   44.7185   25.7080   35.0149 H   0  0  0  0  0  0  0  0  0  0  0  0
   40.0871   25.8209   34.0628 H   0  0  0  0  0  0  0  0  0  0  0  0
   40.1608   28.0067   32.5556 H   0  0  0  0  0  0  0  0  0  0  0  0
   42.6737   28.7396   32.5669 H   0  0  0  0  0  0  0  0  0  0  0  0
   40.1194   23.3651   38.9395 H   0  0  0  0  0  0  0  0  0  0  0  0
   37.6554   23.9822   39.0239 H   0  0  0  0  0  0  0  0  0  0  0  0
   37.0736   22.2078   35.2153 H   0  0  0  0  0  0  0  0  0  0  0  0
  1  2  2  0
  1 12  1  0
  3  2  1  0
  4  3  2  0
  5  4  1  0
  5  6  2  0
  6  1  1  0
  7  5  1  0
  8  7  1  0
  9  8  2  0
 10  9  1  0
 10 11  1  0
 11  7  2  0
 12 13  2  0
 14 12  1  0
 14 15  2  0
 15 16  1  0
 17 16  2  0
 18 17  1  0
 19 18  2  0
 19 14  1  0
  2 20  1  0
  3 21  1  0
  4 22  1  0
  8 23  1  0
  9 24  1  0
 10 25  1  0
 15 26  1  0
 16 27  1  0
 18 28  1  0
M  ISO  8  20  14  21  14  22  14  23  14  24  14  25   9  26  14  27  14
M  ISO  1  28  14
M  END
>  <minimizedAffinity>  (1) 
-4.86277246

>  <minimizedRMSD>  (1) 
0.311943471

$$$$
