
     RDKit          3D

 34 36  0  0  0  0  0  0  0  0999 V2000
   42.0920   23.3390   36.3240 C   0  0  0  0  0  0  0  0  0  0  0  0
   43.3660   23.5360   36.8300 C   0  0  0  0  0  0  0  0  0  0  0  0
   44.2130   24.5060   36.2850 C   0  0  0  0  0  0  0  0  0  0  0  0
   43.7370   25.2490   35.2380 C   0  0  0  0  0  0  0  0  0  0  0  0
   42.4710   25.0200   34.7700 C   0  0  0  0  0  0  0  0  0  0  0  0
   41.6650   24.0810   35.3050 N   0  0  0  0  0  0  0  0  0  0  0  0
   40.8810   27.2190   31.4550 C   0  0  0  0  0  0  0  0  0  0  0  0
   41.7700   27.8100   32.3260 C   0  0  0  0  0  0  0  0  0  0  0  0
   42.2860   27.1080   33.3960 C   0  0  0  0  0  0  0  0  0  0  0  0
   41.9550   25.8060   33.6550 C   0  0  0  0  0  0  0  0  0  0  0  0
   41.0530   25.2590   32.7460 C   0  0  0  0  0  0  0  0  0  0  0  0
   40.5010   25.9010   31.6610 C   0  0  0  0  0  0  0  0  0  0  0  0
   40.1890   28.0450   30.0850 S   0  0  0  0  0  0  0  0  0  0  0  0
   40.2490   27.1640   28.8630 O   0  0  0  0  0  0  0  0  0  0  0  0
   38.7520   28.3570   30.4090 O   0  0  0  0  0  0  0  0  0  0  0  0
   41.2470   22.2920   36.9500 C   0  0  0  0  0  0  0  0  0  0  0  0
   41.8540   21.3000   37.4110 O   0  0  0  0  0  0  0  0  0  0  0  0
   39.8240   22.5170   36.9660 C   0  0  0  0  0  0  0  0  0  0  0  0
   39.3800   23.1700   38.1210 C   0  0  0  0  0  0  0  0  0  0  0  0
   37.9940   23.4230   38.2050 C   0  0  0  0  0  0  0  0  0  0  0  0
   37.1870   23.0330   37.1930 N   0  0  0  0  0  0  0  0  0  0  0  0
   37.6770   22.4080   36.1060 C   0  0  0  0  0  0  0  0  0  0  0  0
   38.9890   22.1580   36.0080 N   0  0  0  0  0  0  0  0  0  0  0  0
   43.7164   22.9211   37.6721 H   0  0  0  0  0  0  0  0  0  0  0  0
   45.2257   24.6665   36.6833 H   0  0  0  0  0  0  0  0  0  0  0  0
   44.3669   26.0238   34.7765 H   0  0  0  0  0  0  0  0  0  0  0  0
   42.0725   28.8555   32.1663 H   0  0  0  0  0  0  0  0  0  0  0  0
   42.9927   27.6162   34.0686 H   0  0  0  0  0  0  0  0  0  0  0  0
   40.7529   24.2137   32.9109 H   0  0  0  0  0  0  0  0  0  0  0  0
   39.7927   25.3935   30.9896 H   0  0  0  0  0  0  0  0  0  0  0  0
   40.8881   29.1947   29.8274 H   0  0  0  0  0  0  0  0  0  0  0  0
   40.0736   23.4700   38.9203 H   0  0  0  0  0  0  0  0  0  0  0  0
   37.5746   23.9324   39.0851 H   0  0  0  0  0  0  0  0  0  0  0  0
   36.9981   22.1019   35.2964 H   0  0  0  0  0  0  0  0  0  0  0  0
  1  2  2  0
  1 16  1  0
  3  2  1  0
  4  3  2  0
  5  4  1  0
  5  6  2  0
  6  1  1  0
  7 12  2  0
  7  8  1  0
  8  9  2  0
  9 10  1  0
 10  5  1  0
 11 10  2  0
 12 11  1  0
 13 15  2  0
 13  7  1  0
 14 13  2  0
 16 18  1  0
 16 17  2  0
 18 19  2  0
 19 20  1  0
 21 20  2  0
 22 21  1  0
 23 22  2  0
 23 18  1  0
  2 24  1  0
  3 25  1  0
  4 26  1  0
  8 27  1  0
  9 28  1  0
 11 29  1  0
 12 30  1  0
 13 31  1  0
 19 32  1  0
 20 33  1  0
 22 34  1  0
M  ISO  8  24  14  25  14  26  14  27  14  28  14  29  14  30  14  31  11
M  ISO  3  32  14  33  14  34  14
M  END
>  <minimizedAffinity>  (1) 
-4.81269407

>  <minimizedRMSD>  (1) 
0.622507513

$$$$
