
     RDKit          3D

 31 33  0  0  0  0  0  0  0  0999 V2000
   42.1230   23.2730   36.3290 C   0  0  0  0  0  0  0  0  0  0  0  0
   43.4290   23.3700   36.8040 C   0  0  0  0  0  0  0  0  0  0  0  0
   44.3010   24.3180   36.2730 C   0  0  0  0  0  0  0  0  0  0  0  0
   43.8220   25.1450   35.2680 C   0  0  0  0  0  0  0  0  0  0  0  0
   42.5280   24.9950   34.8490 C   0  0  0  0  0  0  0  0  0  0  0  0
   41.6910   24.0820   35.3630 N   0  0  0  0  0  0  0  0  0  0  0  0
   41.9780   25.8410   33.7950 C   0  0  0  0  0  0  0  0  0  0  0  0
   40.9390   25.3830   32.9970 C   0  0  0  0  0  0  0  0  0  0  0  0
   40.3430   26.0940   31.9750 C   0  0  0  0  0  0  0  0  0  0  0  0
   40.8190   27.3680   31.7240 C   0  0  0  0  0  0  0  0  0  0  0  0
   41.8390   27.8550   32.4860 C   0  0  0  0  0  0  0  0  0  0  0  0
   42.3980   27.1170   33.4870 C   0  0  0  0  0  0  0  0  0  0  0  0
   41.2520   22.2360   36.9480 C   0  0  0  0  0  0  0  0  0  0  0  0
   41.8370   21.2280   37.4010 O   0  0  0  0  0  0  0  0  0  0  0  0
   39.8350   22.4940   36.9650 C   0  0  0  0  0  0  0  0  0  0  0  0
   39.3930   23.1540   38.1190 C   0  0  0  0  0  0  0  0  0  0  0  0
   38.0220   23.4370   38.2020 C   0  0  0  0  0  0  0  0  0  0  0  0
   37.2080   23.0630   37.1750 N   0  0  0  0  0  0  0  0  0  0  0  0
   37.6910   22.4300   36.0900 C   0  0  0  0  0  0  0  0  0  0  0  0
   39.0070   22.1520   35.9980 N   0  0  0  0  0  0  0  0  0  0  0  0
   43.7732   22.6953   37.6017 H   0  0  0  0  0  0  0  0  0  0  0  0
   45.3346   24.4075   36.6386 H   0  0  0  0  0  0  0  0  0  0  0  0
   44.4714   25.9087   34.8153 H   0  0  0  0  0  0  0  0  0  0  0  0
   40.5592   24.3699   33.1953 H   0  0  0  0  0  0  0  0  0  0  0  0
   39.5214   25.6641   31.3832 H   0  0  0  0  0  0  0  0  0  0  0  0
   40.3810   27.9793   30.9213 H   0  0  0  0  0  0  0  0  0  0  0  0
   42.2203   28.8677   32.2886 H   0  0  0  0  0  0  0  0  0  0  0  0
   43.2179   27.5582   34.0728 H   0  0  0  0  0  0  0  0  0  0  0  0
   40.0889   23.4370   38.9225 H   0  0  0  0  0  0  0  0  0  0  0  0
   37.6102   23.9527   39.0821 H   0  0  0  0  0  0  0  0  0  0  0  0
   37.0105   22.1388   35.2763 H   0  0  0  0  0  0  0  0  0  0  0  0
  1  2  2  0
  1 13  1  0
  3  2  1  0
  4  3  2  0
  5  4  1  0
  5  6  2  0
  6  1  1  0
  7  5  1  0
  8  7  2  0
  9  8  1  0
 10  9  2  0
 10 11  1  0
 11 12  2  0
 12  7  1  0
 13 15  1  0
 13 14  2  0
 15 16  2  0
 16 17  1  0
 18 17  2  0
 19 18  1  0
 20 19  2  0
 20 15  1  0
  2 21  1  0
  3 22  1  0
  4 23  1  0
  8 24  1  0
  9 25  1  0
 10 26  1  0
 11 27  1  0
 12 28  1  0
 16 29  1  0
 17 30  1  0
 19 31  1  0
M  ISO  8  21  14  22  14  23  14  24  14  25  14  26  14  27  14  28  14
M  ISO  3  29  14  30  14  31  14
M  END
>  <minimizedAffinity>  (1) 
-4.77077866

>  <minimizedRMSD>  (1) 
0.292146385

$$$$
