
     RDKit          3D

 24 25  0  0  0  0  0  0  0  0999 V2000
   42.1410   23.2440   36.2930 C   0  0  0  0  0  0  0  0  0  0  0  0
   43.4770   23.2210   36.6690 C   0  0  0  0  0  0  0  0  0  0  0  0
   44.3910   24.1950   36.2590 C   0  0  0  0  0  0  0  0  0  0  0  0
   43.8950   25.2020   35.4460 C   0  0  0  0  0  0  0  0  0  0  0  0
   42.5680   25.1780   35.1050 C   0  0  0  0  0  0  0  0  0  0  0  0
   41.7140   24.2370   35.5090 N   0  0  0  0  0  0  0  0  0  0  0  0
   41.2690   22.1650   36.7850 C   0  0  0  0  0  0  0  0  0  0  0  0
   41.8330   21.0940   37.1010 O   0  0  0  0  0  0  0  0  0  0  0  0
   39.8540   22.4530   36.8530 C   0  0  0  0  0  0  0  0  0  0  0  0
   39.4770   23.0980   38.0420 C   0  0  0  0  0  0  0  0  0  0  0  0
   38.1160   23.4110   38.1800 C   0  0  0  0  0  0  0  0  0  0  0  0
   37.2530   23.0850   37.1860 N   0  0  0  0  0  0  0  0  0  0  0  0
   37.6790   22.4700   36.0740 C   0  0  0  0  0  0  0  0  0  0  0  0
   38.9790   22.1520   35.9040 N   0  0  0  0  0  0  0  0  0  0  0  0
   42.0800   26.2530   34.2480 C   0  0  0  0  0  0  0  0  0  0  0  0
   41.0650   26.1640   33.5280 O   0  0  0  0  0  0  0  0  0  0  0  0
   42.7540   27.4880   34.1900 O   0  0  0  0  0  0  0  0  0  0  0  0
   43.8300   22.4038   37.3152 H   0  0  0  0  0  0  0  0  0  0  0  0
   45.4472   24.1643   36.5649 H   0  0  0  0  0  0  0  0  0  0  0  0
   44.5534   26.0044   35.0818 H   0  0  0  0  0  0  0  0  0  0  0  0
   40.2100   23.3449   38.8241 H   0  0  0  0  0  0  0  0  0  0  0  0
   37.7523   23.9165   39.0867 H   0  0  0  0  0  0  0  0  0  0  0  0
   36.9548   22.2197   35.2848 H   0  0  0  0  0  0  0  0  0  0  0  0
   42.4139   28.2105   33.6049 H   0  0  0  0  0  0  0  0  0  0  0  0
  1  2  2  0
  1  7  1  0
  3  2  1  0
  4  3  2  0
  5  4  1  0
  5  6  2  0
  6  1  1  0
  7  9  1  0
  7  8  2  0
  9 10  2  0
 10 11  1  0
 12 11  2  0
 13 12  1  0
 14 13  2  0
 14  9  1  0
 15  5  1  0
 16 15  2  0
 17 15  1  0
  2 18  1  0
  3 19  1  0
  4 20  1  0
 10 21  1  0
 11 22  1  0
 13 23  1  0
 17 24  1  0
M  ISO  7  18  14  19  14  20  14  21  14  22  14  23  14  24   3
M  END
>  <minimizedAffinity>  (1) 
-4.65182257

>  <minimizedRMSD>  (1) 
0.228910252

$$$$
