
     RDKit          3D

 24 25  0  0  0  0  0  0  0  0999 V2000
   42.0860   23.3520   36.2740 C   0  0  0  0  0  0  0  0  0  0  0  0
   43.4300   23.3350   36.6220 C   0  0  0  0  0  0  0  0  0  0  0  0
   44.2990   24.3490   36.1810 C   0  0  0  0  0  0  0  0  0  0  0  0
   43.7690   25.3590   35.3920 C   0  0  0  0  0  0  0  0  0  0  0  0
   42.4310   25.3020   35.0960 C   0  0  0  0  0  0  0  0  0  0  0  0
   41.6010   24.3360   35.5150 N   0  0  0  0  0  0  0  0  0  0  0  0
   41.8600   26.3970   34.2420 C   0  0  0  0  0  0  0  0  0  0  0  0
   41.3850   25.8670   33.0480 F   0  0  0  0  0  0  0  0  0  0  0  0
   42.8220   27.3530   34.0330 F   0  0  0  0  0  0  0  0  0  0  0  0
   40.7930   26.9120   34.9900 F   0  0  0  0  0  0  0  0  0  0  0  0
   41.2410   22.2460   36.7820 C   0  0  0  0  0  0  0  0  0  0  0  0
   41.8390   21.1910   37.0920 O   0  0  0  0  0  0  0  0  0  0  0  0
   39.8330   22.4930   36.8650 C   0  0  0  0  0  0  0  0  0  0  0  0
   39.4380   23.1240   38.0560 C   0  0  0  0  0  0  0  0  0  0  0  0
   38.0640   23.3950   38.1990 C   0  0  0  0  0  0  0  0  0  0  0  0
   37.2030   23.0490   37.2160 N   0  0  0  0  0  0  0  0  0  0  0  0
   37.6360   22.4410   36.0860 C   0  0  0  0  0  0  0  0  0  0  0  0
   38.9520   22.1630   35.9110 N   0  0  0  0  0  0  0  0  0  0  0  0
   43.8193   22.5196   37.2494 H   0  0  0  0  0  0  0  0  0  0  0  0
   45.3648   24.3413   36.4531 H   0  0  0  0  0  0  0  0  0  0  0  0
   44.4002   26.1778   35.0164 H   0  0  0  0  0  0  0  0  0  0  0  0
   40.1648   23.3926   38.8368 H   0  0  0  0  0  0  0  0  0  0  0  0
   37.6916   23.8876   39.1093 H   0  0  0  0  0  0  0  0  0  0  0  0
   36.9133   22.1699   35.3023 H   0  0  0  0  0  0  0  0  0  0  0  0
  1  2  2  0
  1 11  1  0
  3  2  1  0
  4  3  2  0
  5  4  1  0
  5  6  2  0
  6  1  1  0
  7 10  1  0
  7  5  1  0
  8  7  1  0
  9  7  1  0
 11 13  1  0
 11 12  2  0
 13 14  2  0
 14 15  1  0
 16 15  2  0
 17 16  1  0
 18 17  2  0
 18 13  1  0
  2 19  1  0
  3 20  1  0
  4 21  1  0
 14 22  1  0
 15 23  1  0
 17 24  1  0
M  ISO  6  19  14  20  14  21  14  22  14  23  14  24  14
M  END
>  <minimizedAffinity>  (1) 
-4.65125179

>  <minimizedRMSD>  (1) 
0.261516958

$$$$
