
     RDKit          3D

 27 29  0  0  0  0  0  0  0  0999 V2000
   42.2010   23.1120   36.4370 C   0  0  0  0  0  0  0  0  0  0  0  0
   43.5380   23.0520   36.7920 C   0  0  0  0  0  0  0  0  0  0  0  0
   44.4930   23.9350   36.3130 C   0  0  0  0  0  0  0  0  0  0  0  0
   44.0540   24.8980   35.4500 C   0  0  0  0  0  0  0  0  0  0  0  0
   42.7080   24.9500   35.1000 C   0  0  0  0  0  0  0  0  0  0  0  0
   41.8240   24.0690   35.5940 N   0  0  0  0  0  0  0  0  0  0  0  0
   42.2290   25.9940   34.1650 C   0  0  0  0  0  0  0  0  0  0  0  0
   43.1450   26.5990   33.2330 C   0  0  0  0  0  0  0  0  0  0  0  0
   42.0340   27.8200   32.3200 S   0  0  0  0  0  0  0  0  0  0  0  0
   40.5610   27.2680   33.3790 C   0  0  0  0  0  0  0  0  0  0  0  0
   40.9900   26.4750   34.0680 N   0  0  0  0  0  0  0  0  0  0  0  0
   41.2840   22.1120   37.0130 C   0  0  0  0  0  0  0  0  0  0  0  0
   41.8020   21.0780   37.4700 O   0  0  0  0  0  0  0  0  0  0  0  0
   39.8760   22.4420   36.9850 C   0  0  0  0  0  0  0  0  0  0  0  0
   39.4350   23.1250   38.1150 C   0  0  0  0  0  0  0  0  0  0  0  0
   38.0740   23.4700   38.1390 C   0  0  0  0  0  0  0  0  0  0  0  0
   37.2700   23.1310   37.0890 N   0  0  0  0  0  0  0  0  0  0  0  0
   37.7570   22.4700   36.0260 C   0  0  0  0  0  0  0  0  0  0  0  0
   39.0520   22.1320   35.9830 N   0  0  0  0  0  0  0  0  0  0  0  0
   43.8584   22.2639   37.4893 H   0  0  0  0  0  0  0  0  0  0  0  0
   45.5491   23.8638   36.6123 H   0  0  0  0  0  0  0  0  0  0  0  0
   44.7615   25.6298   35.0331 H   0  0  0  0  0  0  0  0  0  0  0  0
   44.2174   26.4002   33.0901 H   0  0  0  0  0  0  0  0  0  0  0  0
   39.5246   27.6339   33.3353 H   0  0  0  0  0  0  0  0  0  0  0  0
   40.1140   23.3799   38.9420 H   0  0  0  0  0  0  0  0  0  0  0  0
   37.6571   24.0116   39.0009 H   0  0  0  0  0  0  0  0  0  0  0  0
   37.0919   22.2062   35.1905 H   0  0  0  0  0  0  0  0  0  0  0  0
  1  2  2  0
  1 12  1  0
  3  2  1  0
  4  3  2  0
  5  4  1  0
  5  6  2  0
  6  1  1  0
  7  5  1  0
  8  7  2  0
  9  8  1  0
  9 10  1  0
 10 11  2  0
 11  7  1  0
 12 13  2  0
 14 12  1  0
 14 15  2  0
 15 16  1  0
 17 16  2  0
 18 17  1  0
 19 18  2  0
 19 14  1  0
  2 20  1  0
  3 21  1  0
  4 22  1  0
  8 23  1  0
 10 24  1  0
 15 25  1  0
 16 26  1  0
 18 27  1  0
M  ISO  8  20  14  21  14  22  14  23  14  24  14  25  14  26  14  27  14
M  END
>  <minimizedAffinity>  (1) 
-4.5136385

>  <minimizedRMSD>  (1) 
0.330595136

$$$$
