
     RDKit          3D

 24 25  0  0  0  0  0  0  0  0999 V2000
   41.2590   22.2280   36.7740 C   0  0  0  0  0  0  0  0  0  0  0  0
   41.8380   21.1780   37.0820 O   0  0  0  0  0  0  0  0  0  0  0  0
   39.8430   22.4880   36.8530 C   0  0  0  0  0  0  0  0  0  0  0  0
   39.4510   23.1240   38.0520 C   0  0  0  0  0  0  0  0  0  0  0  0
   38.0710   23.4050   38.1910 C   0  0  0  0  0  0  0  0  0  0  0  0
   37.2140   23.0650   37.2030 N   0  0  0  0  0  0  0  0  0  0  0  0
   37.6620   22.4540   36.0740 C   0  0  0  0  0  0  0  0  0  0  0  0
   38.9680   22.1730   35.9150 N   0  0  0  0  0  0  0  0  0  0  0  0
   42.1050   23.3340   36.2740 C   0  0  0  0  0  0  0  0  0  0  0  0
   43.4540   23.3320   36.6380 C   0  0  0  0  0  0  0  0  0  0  0  0
   44.3150   24.3430   36.2040 C   0  0  0  0  0  0  0  0  0  0  0  0
   43.7940   25.3390   35.4090 C   0  0  0  0  0  0  0  0  0  0  0  0
   42.4540   25.2840   35.0830 C   0  0  0  0  0  0  0  0  0  0  0  0
   41.6370   24.3170   35.5010 N   0  0  0  0  0  0  0  0  0  0  0  0
   41.8200   26.3280   34.2260 C   0  0  0  0  0  0  0  0  0  0  0  0
   40.1783   23.3863   38.8344 H   0  0  0  0  0  0  0  0  0  0  0  0
   37.6972   23.8985   39.1002 H   0  0  0  0  0  0  0  0  0  0  0  0
   36.9481   22.1862   35.2811 H   0  0  0  0  0  0  0  0  0  0  0  0
   43.8432   22.5238   37.2746 H   0  0  0  0  0  0  0  0  0  0  0  0
   45.3774   24.3432   36.4890 H   0  0  0  0  0  0  0  0  0  0  0  0
   44.4300   26.1584   35.0427 H   0  0  0  0  0  0  0  0  0  0  0  0
   41.3550   27.0937   34.8644 H   0  0  0  0  0  0  0  0  0  0  0  0
   42.5865   26.7962   33.5909 H   0  0  0  0  0  0  0  0  0  0  0  0
   41.0511   25.8638   33.5909 H   0  0  0  0  0  0  0  0  0  0  0  0
  1  3  1  0
  1  2  2  0
  3  4  2  0
  4  5  1  0
  6  5  2  0
  7  6  1  0
  8  7  2  0
  8  3  1  0
  9 10  2  0
  9  1  1  0
 11 10  1  0
 12 11  2  0
 13 12  1  0
 13 14  2  0
 14  9  1  0
 15 13  1  0
  4 16  1  0
  5 17  1  0
  7 18  1  0
 10 19  1  0
 11 20  1  0
 12 21  1  0
 15 22  1  0
 15 23  1  0
 15 24  1  0
M  ISO  8  16  14  17  14  18  14  19  14  20  14  21  14  22   8  23   8
M  ISO  1  24   8
M  END
>  <minimizedAffinity>  (1) 
-4.2509613

>  <minimizedRMSD>  (1) 
0.116037056

$$$$
