
     RDKit          3D

 22 23  0  0  0  0  0  0  0  0999 V2000
   41.2610   22.2360   36.7790 C   0  0  0  0  0  0  0  0  0  0  0  0
   41.8510   21.1810   37.0900 O   0  0  0  0  0  0  0  0  0  0  0  0
   39.8480   22.4940   36.8630 C   0  0  0  0  0  0  0  0  0  0  0  0
   39.4500   23.1210   38.0400 C   0  0  0  0  0  0  0  0  0  0  0  0
   38.0790   23.4040   38.1890 C   0  0  0  0  0  0  0  0  0  0  0  0
   37.2330   23.0600   37.2000 N   0  0  0  0  0  0  0  0  0  0  0  0
   37.6600   22.4550   36.0800 C   0  0  0  0  0  0  0  0  0  0  0  0
   38.9640   22.1820   35.9300 N   0  0  0  0  0  0  0  0  0  0  0  0
   42.1090   23.3330   36.2700 C   0  0  0  0  0  0  0  0  0  0  0  0
   43.4440   23.3370   36.6510 C   0  0  0  0  0  0  0  0  0  0  0  0
   44.3290   24.3330   36.2240 C   0  0  0  0  0  0  0  0  0  0  0  0
   43.8180   25.3240   35.3960 C   0  0  0  0  0  0  0  0  0  0  0  0
   42.4810   25.2640   35.0540 C   0  0  0  0  0  0  0  0  0  0  0  0
   41.6490   24.3010   35.4750 N   0  0  0  0  0  0  0  0  0  0  0  0
   41.8330   26.5440   33.9880 S   0  0  0  0  0  0  0  0  0  0  0  0
   40.1771   23.3847   38.8221 H   0  0  0  0  0  0  0  0  0  0  0  0
   37.7054   23.8978   39.0981 H   0  0  0  0  0  0  0  0  0  0  0  0
   36.9439   22.1848   35.2899 H   0  0  0  0  0  0  0  0  0  0  0  0
   43.8160   22.5355   37.3062 H   0  0  0  0  0  0  0  0  0  0  0  0
   45.3852   24.3312   36.5312 H   0  0  0  0  0  0  0  0  0  0  0  0
   44.4607   26.1349   35.0226 H   0  0  0  0  0  0  0  0  0  0  0  0
   41.3195   27.5583   34.7524 H   0  0  0  0  0  0  0  0  0  0  0  0
  1  3  1  0
  1  2  2  0
  3  4  2  0
  4  5  1  0
  6  5  2  0
  7  6  1  0
  8  7  2  0
  8  3  1  0
  9 10  2  0
  9  1  1  0
 11 10  1  0
 12 11  2  0
 13 12  1  0
 13 14  2  0
 14  9  1  0
 15 13  1  0
  4 16  1  0
  5 17  1  0
  7 18  1  0
 10 19  1  0
 11 20  1  0
 12 21  1  0
 15 22  1  0
M  ISO  7  16  14  17  14  18  14  19  14  20  14  21  14  22  11
M  END
>  <minimizedAffinity>  (1) 
-4.22571278

>  <minimizedRMSD>  (1) 
0.0984481573

$$$$
