
     RDKit          3D

 30 32  0  0  0  0  0  0  0  0999 V2000
   42.2310   23.0110   36.4850 C   0  0  0  0  0  0  0  0  0  0  0  0
   43.5840   22.8410   36.7820 C   0  0  0  0  0  0  0  0  0  0  0  0
   44.5590   23.6720   36.2400 C   0  0  0  0  0  0  0  0  0  0  0  0
   44.1430   24.6720   35.3980 C   0  0  0  0  0  0  0  0  0  0  0  0
   42.7930   24.8030   35.1340 C   0  0  0  0  0  0  0  0  0  0  0  0
   41.8460   24.0020   35.6550 N   0  0  0  0  0  0  0  0  0  0  0  0
   42.4060   25.8850   34.2300 C   0  0  0  0  0  0  0  0  0  0  0  0
   41.1180   26.3740   34.1490 C   0  0  0  0  0  0  0  0  0  0  0  0
   40.7480   27.3810   33.3090 C   0  0  0  0  0  0  0  0  0  0  0  0
   41.7620   27.8940   32.5270 C   0  0  0  0  0  0  0  0  0  0  0  0
   43.0850   27.4440   32.5600 C   0  0  0  0  0  0  0  0  0  0  0  0
   43.3050   26.4600   33.4230 N   0  0  0  0  0  0  0  0  0  0  0  0
   41.2720   22.0680   37.1170 C   0  0  0  0  0  0  0  0  0  0  0  0
   41.7560   21.0610   37.6580 O   0  0  0  0  0  0  0  0  0  0  0  0
   39.8840   22.4230   37.0340 C   0  0  0  0  0  0  0  0  0  0  0  0
   39.4120   23.1310   38.1410 C   0  0  0  0  0  0  0  0  0  0  0  0
   38.0630   23.5160   38.1410 C   0  0  0  0  0  0  0  0  0  0  0  0
   37.2840   23.1930   37.0840 N   0  0  0  0  0  0  0  0  0  0  0  0
   37.7980   22.5030   36.0330 C   0  0  0  0  0  0  0  0  0  0  0  0
   39.0820   22.1270   36.0170 N   0  0  0  0  0  0  0  0  0  0  0  0
   43.8867   22.0303   37.4611 H   0  0  0  0  0  0  0  0  0  0  0  0
   45.6239   23.5325   36.4777 H   0  0  0  0  0  0  0  0  0  0  0  0
   44.8716   25.3577   34.9409 H   0  0  0  0  0  0  0  0  0  0  0  0
   40.3495   25.9272   34.7968 H   0  0  0  0  0  0  0  0  0  0  0  0
   39.7157   27.7575   33.2581 H   0  0  0  0  0  0  0  0  0  0  0  0
   41.5134   28.7100   31.8325 H   0  0  0  0  0  0  0  0  0  0  0  0
   43.8762   27.8691   31.9249 H   0  0  0  0  0  0  0  0  0  0  0  0
   40.0746   23.3782   38.9835 H   0  0  0  0  0  0  0  0  0  0  0  0
   37.6438   24.0742   38.9911 H   0  0  0  0  0  0  0  0  0  0  0  0
   37.1488   22.2494   35.1820 H   0  0  0  0  0  0  0  0  0  0  0  0
  1  2  2  0
  1 13  1  0
  3  2  1  0
  4  3  2  0
  5  4  1  0
  5  6  2  0
  6  1  1  0
  7  5  1  0
  8  7  2  0
  9  8  1  0
 10 11  1  0
 10  9  2  0
 11 12  2  0
 12  7  1  0
 13 14  2  0
 15 13  1  0
 15 16  2  0
 16 17  1  0
 18 17  2  0
 19 18  1  0
 20 19  2  0
 20 15  1  0
  2 21  1  0
  3 22  1  0
  4 23  1  0
  8 24  1  0
  9 25  1  0
 10 26  1  0
 11 27  1  0
 16 28  1  0
 17 29  1  0
 19 30  1  0
M  ISO  8  21  14  22  14  23  14  24  14  25  14  26  14  27  14  28  14
M  ISO  2  29  14  30  14
M  END
>  <minimizedAffinity>  (1) 
-4.75093365

>  <minimizedRMSD>  (1) 
0.634070694

$$$$
