
     RDKit          3D

 44 48  0  0  0  0  0  0  0  0999 V2000
   39.9660   22.3590   37.0380 C   0  0  0  0  0  0  0  0  0  0  0  0
   39.4340   23.0800   38.1000 C   0  0  0  0  0  0  0  0  0  0  0  0
   38.0720   23.4060   38.0350 C   0  0  0  0  0  0  0  0  0  0  0  0
   37.3390   23.0200   36.9710 N   0  0  0  0  0  0  0  0  0  0  0  0
   37.9110   22.3190   35.9620 C   0  0  0  0  0  0  0  0  0  0  0  0
   39.2110   22.0020   36.0120 N   0  0  0  0  0  0  0  0  0  0  0  0
   37.1500   21.9050   34.8300 N   0  0  0  0  0  0  0  0  0  0  0  0
   36.1790   20.9470   34.8950 C   0  0  0  0  0  0  0  0  0  0  0  0
   35.5930   20.7220   33.6910 N   0  0  0  0  0  0  0  0  0  0  0  0
   36.2210   21.5690   32.8400 C   0  0  0  0  0  0  0  0  0  0  0  0
   36.0420   21.7840   31.4680 C   0  0  0  0  0  0  0  0  0  0  0  0
   35.1920   21.1570   30.7830 O   0  0  0  0  0  0  0  0  0  0  0  0
   36.8540   22.7240   30.9200 N   0  0  0  0  0  0  0  0  0  0  0  0
   37.7760   23.4200   31.6100 C   0  0  0  0  0  0  0  0  0  0  0  0
   38.5820   24.3900   30.9310 N   0  0  0  0  0  0  0  0  0  0  0  0
   37.9560   23.2160   32.9470 N   0  0  0  0  0  0  0  0  0  0  0  0
   37.1690   22.2870   33.5400 C   0  0  0  0  0  0  0  0  0  0  0  0
   41.3690   22.0640   37.1760 C   0  0  0  0  0  0  0  0  0  0  0  0
   41.8720   21.1020   37.7820 O   0  0  0  0  0  0  0  0  0  0  0  0
   42.3130   23.0170   36.5200 C   0  0  0  0  0  0  0  0  0  0  0  0
   43.6640   22.8530   36.8020 C   0  0  0  0  0  0  0  0  0  0  0  0
   44.6190   23.6880   36.2430 C   0  0  0  0  0  0  0  0  0  0  0  0
   44.1870   24.6830   35.4010 C   0  0  0  0  0  0  0  0  0  0  0  0
   42.8310   24.8060   35.1540 C   0  0  0  0  0  0  0  0  0  0  0  0
   41.9090   23.9960   35.6970 N   0  0  0  0  0  0  0  0  0  0  0  0
   42.4200   25.8810   34.2510 C   0  0  0  0  0  0  0  0  0  0  0  0
   41.1320   26.3500   34.1910 C   0  0  0  0  0  0  0  0  0  0  0  0
   40.7410   27.3530   33.3530 C   0  0  0  0  0  0  0  0  0  0  0  0
   41.7380   27.8780   32.5510 C   0  0  0  0  0  0  0  0  0  0  0  0
   43.0560   27.4410   32.5710 C   0  0  0  0  0  0  0  0  0  0  0  0
   43.3130   26.4540   33.4350 N   0  0  0  0  0  0  0  0  0  0  0  0
   40.0554   23.3823   38.9558 H   0  0  0  0  0  0  0  0  0  0  0  0
   37.6022   23.9756   38.8504 H   0  0  0  0  0  0  0  0  0  0  0  0
   35.9027   20.4173   35.8186 H   0  0  0  0  0  0  0  0  0  0  0  0
   36.7582   22.9165   29.9127 H   0  0  0  0  0  0  0  0  0  0  0  0
   39.2900   24.9269   31.4520 H   0  0  0  0  0  0  0  0  0  0  0  0
   38.4536   24.5506   29.9217 H   0  0  0  0  0  0  0  0  0  0  0  0
   43.9808   22.0470   37.4802 H   0  0  0  0  0  0  0  0  0  0  0  0
   45.6881   23.5577   36.4667 H   0  0  0  0  0  0  0  0  0  0  0  0
   44.9061   25.3701   34.9312 H   0  0  0  0  0  0  0  0  0  0  0  0
   40.3782   25.8953   34.8505 H   0  0  0  0  0  0  0  0  0  0  0  0
   39.7043   27.7189   33.3176 H   0  0  0  0  0  0  0  0  0  0  0  0
   41.4715   28.6888   31.8570 H   0  0  0  0  0  0  0  0  0  0  0  0
   43.8317   27.8753   31.9232 H   0  0  0  0  0  0  0  0  0  0  0  0
  1 18  1  0
  1  2  2  0
  3  2  1  0
  4  3  2  0
  5  6  2  0
  5  4  1  0
  6  1  1  0
  7  8  1  0
  7  5  1  0
  9  8  2  0
 10 17  2  0
 10  9  1  0
 11 10  1  0
 12 11  2  0
 13 11  1  0
 13 14  1  0
 14 16  2  0
 15 14  1  0
 16 17  1  0
 17  7  1  0
 18 19  2  0
 20 21  2  0
 20 18  1  0
 22 21  1  0
 23 22  2  0
 24 23  1  0
 24 25  2  0
 25 20  1  0
 26 24  1  0
 27 26  2  0
 28 27  1  0
 29 30  1  0
 29 28  2  0
 30 31  2  0
 31 26  1  0
  2 32  1  0
  3 33  1  0
  8 34  1  0
 13 35  1  0
 15 36  1  0
 15 37  1  0
 21 38  1  0
 22 39  1  0
 23 40  1  0
 27 41  1  0
 28 42  1  0
 29 43  1  0
 30 44  1  0
M  ISO  8  32  14  33  14  34  14  35   9  38  14  39  14  40  14  41  14
M  ISO  3  42  14  43  14  44  14
M  END
>  <minimizedAffinity>  (1) 
-6.63026762

>  <minimizedRMSD>  (1) 
0.270634949

$$$$
