
     RDKit          3D

 44 48  0  0  0  0  0  0  0  0999 V2000
   41.6880   22.4400   36.7010 C   0  0  0  0  0  0  0  0  0  0  0  0
   42.1870   21.4120   37.1850 O   0  0  0  0  0  0  0  0  0  0  0  0
   42.6360   23.5180   36.2900 C   0  0  0  0  0  0  0  0  0  0  0  0
   43.8600   23.5670   36.9590 C   0  0  0  0  0  0  0  0  0  0  0  0
   44.8110   24.5360   36.6450 C   0  0  0  0  0  0  0  0  0  0  0  0
   44.4960   25.4430   35.6550 C   0  0  0  0  0  0  0  0  0  0  0  0
   43.2700   25.3460   35.0290 C   0  0  0  0  0  0  0  0  0  0  0  0
   42.3540   24.4100   35.3330 N   0  0  0  0  0  0  0  0  0  0  0  0
   42.9880   26.3270   33.9910 C   0  0  0  0  0  0  0  0  0  0  0  0
   41.7330   26.8530   33.7650 C   0  0  0  0  0  0  0  0  0  0  0  0
   41.4680   27.7690   32.7970 C   0  0  0  0  0  0  0  0  0  0  0  0
   42.5440   28.1520   32.0360 C   0  0  0  0  0  0  0  0  0  0  0  0
   43.8470   27.6610   32.2070 C   0  0  0  0  0  0  0  0  0  0  0  0
   43.9740   26.7700   33.1880 N   0  0  0  0  0  0  0  0  0  0  0  0
   40.2890   22.7090   36.4920 C   0  0  0  0  0  0  0  0  0  0  0  0
   39.5790   22.9710   37.6620 C   0  0  0  0  0  0  0  0  0  0  0  0
   38.2110   23.2410   37.5380 C   0  0  0  0  0  0  0  0  0  0  0  0
   37.6400   23.2380   36.3080 N   0  0  0  0  0  0  0  0  0  0  0  0
   38.3800   22.9780   35.2080 C   0  0  0  0  0  0  0  0  0  0  0  0
   39.6950   22.7160   35.3100 N   0  0  0  0  0  0  0  0  0  0  0  0
   37.7580   22.9770   33.8860 C   0  0  0  0  0  0  0  0  0  0  0  0
   37.9130   23.8630   32.8340 C   0  0  0  0  0  0  0  0  0  0  0  0
   37.1510   23.4960   31.7830 N   0  0  0  0  0  0  0  0  0  0  0  0
   36.4830   22.3740   32.1090 C   0  0  0  0  0  0  0  0  0  0  0  0
   35.5950   21.6310   31.3750 C   0  0  0  0  0  0  0  0  0  0  0  0
   35.0370   20.5040   31.9470 C   0  0  0  0  0  0  0  0  0  0  0  0
   35.3920   20.1660   33.2300 C   0  0  0  0  0  0  0  0  0  0  0  0
   36.2960   20.9150   33.9860 C   0  0  0  0  0  0  0  0  0  0  0  0
   36.8540   22.0550   33.3990 C   0  0  0  0  0  0  0  0  0  0  0  0
   44.0772   22.8297   37.7459 H   0  0  0  0  0  0  0  0  0  0  0  0
   45.7780   24.5760   37.1679 H   0  0  0  0  0  0  0  0  0  0  0  0
   45.2095   26.2300   35.3694 H   0  0  0  0  0  0  0  0  0  0  0  0
   40.9031   26.5130   34.4019 H   0  0  0  0  0  0  0  0  0  0  0  0
   40.4591   28.1761   32.6343 H   0  0  0  0  0  0  0  0  0  0  0  0
   42.3737   28.8921   31.2402 H   0  0  0  0  0  0  0  0  0  0  0  0
   44.6928   27.9850   31.5828 H   0  0  0  0  0  0  0  0  0  0  0  0
   40.0739   22.9659   38.6443 H   0  0  0  0  0  0  0  0  0  0  0  0
   37.6044   23.4538   38.4306 H   0  0  0  0  0  0  0  0  0  0  0  0
   38.5684   24.7463   32.8524 H   0  0  0  0  0  0  0  0  0  0  0  0
   37.0906   23.9915   30.8820 H   0  0  0  0  0  0  0  0  0  0  0  0
   35.3314   21.9269   30.3488 H   0  0  0  0  0  0  0  0  0  0  0  0
   34.3204   19.8877   31.3843 H   0  0  0  0  0  0  0  0  0  0  0  0
   34.9454   19.2675   33.6809 H   0  0  0  0  0  0  0  0  0  0  0  0
   36.5610   20.6176   35.0113 H   0  0  0  0  0  0  0  0  0  0  0  0
  1  2  2  0
  3  1  1  0
  3  4  2  0
  5  4  1  0
  6  5  2  0
  7  8  2  0
  7  6  1  0
  8  3  1  0
  9  7  1  0
 10  9  2  0
 11 10  1  0
 12 13  1  0
 12 11  2  0
 13 14  2  0
 14  9  1  0
 15  1  1  0
 15 16  2  0
 17 16  1  0
 18 17  2  0
 19 20  2  0
 19 18  1  0
 20 15  1  0
 21 19  1  0
 22 21  2  0
 23 24  1  0
 23 22  1  0
 24 29  2  0
 25 26  2  0
 25 24  1  0
 26 27  1  0
 27 28  2  0
 29 21  1  0
 29 28  1  0
  4 30  1  0
  5 31  1  0
  6 32  1  0
 10 33  1  0
 11 34  1  0
 12 35  1  0
 13 36  1  0
 16 37  1  0
 17 38  1  0
 22 39  1  0
 23 40  1  0
 25 41  1  0
 26 42  1  0
 27 43  1  0
 28 44  1  0
M  ISO  8  30  14  31  14  32  14  33  14  34  14  35  14  36  14  37  14
M  ISO  7  38  14  39  14  40   9  41  14  42  14  43  14  44  14
M  END
>  <minimizedAffinity>  (1) 
-6.22131395

>  <minimizedRMSD>  (1) 
1.34066379

$$$$
