
     RDKit          3D

 40 43  0  0  0  0  0  0  0  0999 V2000
   42.3280   23.0400   36.5000 C   0  0  0  0  0  0  0  0  0  0  0  0
   43.6750   22.9280   36.8310 C   0  0  0  0  0  0  0  0  0  0  0  0
   44.6380   23.7930   36.3120 C   0  0  0  0  0  0  0  0  0  0  0  0
   44.2050   24.7730   35.4540 C   0  0  0  0  0  0  0  0  0  0  0  0
   42.8570   24.8510   35.1510 C   0  0  0  0  0  0  0  0  0  0  0  0
   41.9310   24.0170   35.6510 N   0  0  0  0  0  0  0  0  0  0  0  0
   42.4480   25.9150   34.2290 C   0  0  0  0  0  0  0  0  0  0  0  0
   41.1600   26.3930   34.1580 C   0  0  0  0  0  0  0  0  0  0  0  0
   40.7670   27.3830   33.3050 C   0  0  0  0  0  0  0  0  0  0  0  0
   41.7670   27.8790   32.5050 C   0  0  0  0  0  0  0  0  0  0  0  0
   43.0880   27.4420   32.5260 C   0  0  0  0  0  0  0  0  0  0  0  0
   43.3390   26.4740   33.4030 N   0  0  0  0  0  0  0  0  0  0  0  0
   41.3910   22.0650   37.1110 C   0  0  0  0  0  0  0  0  0  0  0  0
   41.9040   21.1000   37.6980 O   0  0  0  0  0  0  0  0  0  0  0  0
   39.9880   22.3450   36.9530 C   0  0  0  0  0  0  0  0  0  0  0  0
   39.4530   23.0700   38.0060 C   0  0  0  0  0  0  0  0  0  0  0  0
   38.0890   23.3940   37.9460 C   0  0  0  0  0  0  0  0  0  0  0  0
   37.3580   22.9940   36.8830 N   0  0  0  0  0  0  0  0  0  0  0  0
   37.9430   22.2830   35.8780 C   0  0  0  0  0  0  0  0  0  0  0  0
   39.2460   21.9710   35.9300 N   0  0  0  0  0  0  0  0  0  0  0  0
   37.1680   21.8360   34.7100 C   0  0  0  0  0  0  0  0  0  0  0  0
   36.1650   20.9000   34.9140 C   0  0  0  0  0  0  0  0  0  0  0  0
   35.4100   20.4490   33.8520 C   0  0  0  0  0  0  0  0  0  0  0  0
   35.6640   20.9420   32.5760 C   0  0  0  0  0  0  0  0  0  0  0  0
   36.6630   21.8780   32.3620 C   0  0  0  0  0  0  0  0  0  0  0  0
   37.4340   22.3400   33.4360 C   0  0  0  0  0  0  0  0  0  0  0  0
   43.9898   22.1330   37.5231 H   0  0  0  0  0  0  0  0  0  0  0  0
   45.7005   23.6940   36.5791 H   0  0  0  0  0  0  0  0  0  0  0  0
   44.9185   25.4853   35.0141 H   0  0  0  0  0  0  0  0  0  0  0  0
   40.4050   25.9527   34.8259 H   0  0  0  0  0  0  0  0  0  0  0  0
   39.7323   27.7539   33.2617 H   0  0  0  0  0  0  0  0  0  0  0  0
   41.5050   28.6790   31.7969 H   0  0  0  0  0  0  0  0  0  0  0  0
   43.8632   27.8637   31.8693 H   0  0  0  0  0  0  0  0  0  0  0  0
   40.0753   23.3803   38.8583 H   0  0  0  0  0  0  0  0  0  0  0  0
   37.6191   23.9688   38.7577 H   0  0  0  0  0  0  0  0  0  0  0  0
   35.9712   20.5161   35.9265 H   0  0  0  0  0  0  0  0  0  0  0  0
   34.6144   19.7065   34.0121 H   0  0  0  0  0  0  0  0  0  0  0  0
   35.0641   20.5842   31.7263 H   0  0  0  0  0  0  0  0  0  0  0  0
   36.8508   22.2587   31.3472 H   0  0  0  0  0  0  0  0  0  0  0  0
   38.2303   23.0825   33.2792 H   0  0  0  0  0  0  0  0  0  0  0  0
  1  2  2  0
  1 13  1  0
  3  2  1  0
  4  3  2  0
  5  4  1  0
  5  6  2  0
  6  1  1  0
  7  5  1  0
  8  7  2  0
  9  8  1  0
 10 11  1  0
 10  9  2  0
 11 12  2  0
 12  7  1  0
 13 14  2  0
 15 13  1  0
 15 16  2  0
 17 16  1  0
 18 17  2  0
 19 20  2  0
 19 18  1  0
 20 15  1  0
 21 22  2  0
 21 19  1  0
 23 22  1  0
 24 23  2  0
 25 24  1  0
 25 26  2  0
 26 21  1  0
  2 27  1  0
  3 28  1  0
  4 29  1  0
  8 30  1  0
  9 31  1  0
 10 32  1  0
 11 33  1  0
 16 34  1  0
 17 35  1  0
 22 36  1  0
 23 37  1  0
 24 38  1  0
 25 39  1  0
 26 40  1  0
M  ISO  8  27  14  28  14  29  14  30  14  31  14  32  14  33  14  34  14
M  ISO  6  35  14  36  14  37  14  38  14  39  14  40  14
M  END
>  <minimizedAffinity>  (1) 
-5.94815111

>  <minimizedRMSD>  (1) 
0.28842482

$$$$
