
     RDKit          3D

 39 42  0  0  0  0  0  0  0  0999 V2000
   42.3380   23.0250   36.5070 C   0  0  0  0  0  0  0  0  0  0  0  0
   43.6920   22.8840   36.8080 C   0  0  0  0  0  0  0  0  0  0  0  0
   44.6560   23.7250   36.2740 C   0  0  0  0  0  0  0  0  0  0  0  0
   44.2210   24.7160   35.4250 C   0  0  0  0  0  0  0  0  0  0  0  0
   42.8730   24.8180   35.1560 C   0  0  0  0  0  0  0  0  0  0  0  0
   41.9370   24.0080   35.6700 N   0  0  0  0  0  0  0  0  0  0  0  0
   42.4660   25.8940   34.2440 C   0  0  0  0  0  0  0  0  0  0  0  0
   41.1770   26.3830   34.1810 C   0  0  0  0  0  0  0  0  0  0  0  0
   40.7940   27.3820   33.3350 C   0  0  0  0  0  0  0  0  0  0  0  0
   41.7900   27.8810   32.5360 C   0  0  0  0  0  0  0  0  0  0  0  0
   43.1100   27.4360   32.5450 C   0  0  0  0  0  0  0  0  0  0  0  0
   43.3600   26.4540   33.4170 N   0  0  0  0  0  0  0  0  0  0  0  0
   41.3980   22.0680   37.1370 C   0  0  0  0  0  0  0  0  0  0  0  0
   41.8980   21.1190   37.7630 O   0  0  0  0  0  0  0  0  0  0  0  0
   39.9890   22.3410   36.9570 C   0  0  0  0  0  0  0  0  0  0  0  0
   39.4260   23.0570   38.0040 C   0  0  0  0  0  0  0  0  0  0  0  0
   38.0530   23.3580   37.8930 C   0  0  0  0  0  0  0  0  0  0  0  0
   37.3570   22.9490   36.8010 N   0  0  0  0  0  0  0  0  0  0  0  0
   37.9820   22.2530   35.8220 C   0  0  0  0  0  0  0  0  0  0  0  0
   39.2740   21.9530   35.8950 N   0  0  0  0  0  0  0  0  0  0  0  0
   37.1570   21.8540   34.6880 C   0  0  0  0  0  0  0  0  0  0  0  0
   36.1520   20.9020   34.8150 C   0  0  0  0  0  0  0  0  0  0  0  0
   35.3970   20.5610   33.6980 C   0  0  0  0  0  0  0  0  0  0  0  0
   35.6330   21.1610   32.4580 C   0  0  0  0  0  0  0  0  0  0  0  0
   36.6520   22.1130   32.3780 C   0  0  0  0  0  0  0  0  0  0  0  0
   37.3600   22.4130   33.4820 N   0  0  0  0  0  0  0  0  0  0  0  0
   44.0052   22.0803   37.4906 H   0  0  0  0  0  0  0  0  0  0  0  0
   45.7218   23.6051   36.5184 H   0  0  0  0  0  0  0  0  0  0  0  0
   44.9369   25.4153   34.9684 H   0  0  0  0  0  0  0  0  0  0  0  0
   40.4195   25.9446   34.8473 H   0  0  0  0  0  0  0  0  0  0  0  0
   39.7616   27.7596   33.2966 H   0  0  0  0  0  0  0  0  0  0  0  0
   41.5283   28.6902   31.8383 H   0  0  0  0  0  0  0  0  0  0  0  0
   43.8842   27.8585   31.8876 H   0  0  0  0  0  0  0  0  0  0  0  0
   40.0195   23.3730   38.8745 H   0  0  0  0  0  0  0  0  0  0  0  0
   37.5466   23.9230   38.6894 H   0  0  0  0  0  0  0  0  0  0  0  0
   35.9565   20.4246   35.7865 H   0  0  0  0  0  0  0  0  0  0  0  0
   34.6015   19.8071   33.7919 H   0  0  0  0  0  0  0  0  0  0  0  0
   35.0359   20.8924   31.5741 H   0  0  0  0  0  0  0  0  0  0  0  0
   36.8732   22.6119   31.4229 H   0  0  0  0  0  0  0  0  0  0  0  0
  1  2  2  0
  1 13  1  0
  3  2  1  0
  4  3  2  0
  5  4  1  0
  5  6  2  0
  6  1  1  0
  7  5  1  0
  8  7  2  0
  9  8  1  0
 10 11  1  0
 10  9  2  0
 11 12  2  0
 12  7  1  0
 13 14  2  0
 15 13  1  0
 15 16  2  0
 17 16  1  0
 18 17  2  0
 19 20  2  0
 19 18  1  0
 20 15  1  0
 21 22  2  0
 21 19  1  0
 23 22  1  0
 24 23  2  0
 25 24  1  0
 25 26  2  0
 26 21  1  0
  2 27  1  0
  3 28  1  0
  4 29  1  0
  8 30  1  0
  9 31  1  0
 10 32  1  0
 11 33  1  0
 16 34  1  0
 17 35  1  0
 22 36  1  0
 23 37  1  0
 24 38  1  0
 25 39  1  0
M  ISO  8  27  14  28  14  29  14  30  14  31  14  32  14  33  14  34  14
M  ISO  5  35  14  36  14  37  14  38  14  39  14
M  END
>  <minimizedAffinity>  (1) 
-5.89983988

>  <minimizedRMSD>  (1) 
0.464735836

$$$$
