
     RDKit          3D

 36 39  0  0  0  0  0  0  0  0999 V2000
   42.2730   23.0100   36.5080 C   0  0  0  0  0  0  0  0  0  0  0  0
   43.6340   22.8600   36.8020 C   0  0  0  0  0  0  0  0  0  0  0  0
   44.5940   23.7070   36.2580 C   0  0  0  0  0  0  0  0  0  0  0  0
   44.1550   24.6990   35.4200 C   0  0  0  0  0  0  0  0  0  0  0  0
   42.8070   24.8120   35.1560 C   0  0  0  0  0  0  0  0  0  0  0  0
   41.8710   23.9910   35.6830 N   0  0  0  0  0  0  0  0  0  0  0  0
   42.3950   25.8870   34.2560 C   0  0  0  0  0  0  0  0  0  0  0  0
   41.1020   26.3520   34.1780 C   0  0  0  0  0  0  0  0  0  0  0  0
   40.7110   27.3540   33.3410 C   0  0  0  0  0  0  0  0  0  0  0  0
   41.7100   27.8810   32.5640 C   0  0  0  0  0  0  0  0  0  0  0  0
   43.0440   27.4610   32.5890 C   0  0  0  0  0  0  0  0  0  0  0  0
   43.2880   26.4720   33.4550 N   0  0  0  0  0  0  0  0  0  0  0  0
   41.3340   22.0500   37.1430 C   0  0  0  0  0  0  0  0  0  0  0  0
   41.8490   21.0850   37.7480 O   0  0  0  0  0  0  0  0  0  0  0  0
   39.9440   22.3340   36.9920 C   0  0  0  0  0  0  0  0  0  0  0  0
   39.4170   23.1250   38.0120 C   0  0  0  0  0  0  0  0  0  0  0  0
   38.0570   23.4580   37.9520 C   0  0  0  0  0  0  0  0  0  0  0  0
   37.3110   23.0030   36.9120 N   0  0  0  0  0  0  0  0  0  0  0  0
   37.8790   22.2400   35.9540 C   0  0  0  0  0  0  0  0  0  0  0  0
   39.1700   21.9210   36.0080 N   0  0  0  0  0  0  0  0  0  0  0  0
   37.1050   21.7570   34.8600 N   0  0  0  0  0  0  0  0  0  0  0  0
   37.2390   21.9990   33.5420 C   0  0  0  0  0  0  0  0  0  0  0  0
   36.2820   21.3300   32.8630 N   0  0  0  0  0  0  0  0  0  0  0  0
   35.5420   20.6650   33.7490 C   0  0  0  0  0  0  0  0  0  0  0  0
   36.0660   20.9410   34.9660 N   0  0  0  0  0  0  0  0  0  0  0  0
   43.9514   22.0533   37.4791 H   0  0  0  0  0  0  0  0  0  0  0  0
   45.6622   23.5857   36.4909 H   0  0  0  0  0  0  0  0  0  0  0  0
   44.8712   25.3977   34.9629 H   0  0  0  0  0  0  0  0  0  0  0  0
   40.3430   25.8899   34.8264 H   0  0  0  0  0  0  0  0  0  0  0  0
   39.6723   27.7128   33.2925 H   0  0  0  0  0  0  0  0  0  0  0  0
   41.4433   28.6926   31.8710 H   0  0  0  0  0  0  0  0  0  0  0  0
   43.8234   27.9051   31.9524 H   0  0  0  0  0  0  0  0  0  0  0  0
   40.0501   23.4774   38.8396 H   0  0  0  0  0  0  0  0  0  0  0  0
   37.5999   24.0793   38.7363 H   0  0  0  0  0  0  0  0  0  0  0  0
   38.0082   22.6416   33.0889 H   0  0  0  0  0  0  0  0  0  0  0  0
   34.6772   20.0200   33.5342 H   0  0  0  0  0  0  0  0  0  0  0  0
  1  2  2  0
  1 13  1  0
  3  2  1  0
  4  3  2  0
  5  4  1  0
  5  6  2  0
  6  1  1  0
  7  5  1  0
  8  7  2  0
  9  8  1  0
 10 11  1  0
 10  9  2  0
 11 12  2  0
 12  7  1  0
 13 14  2  0
 15 13  1  0
 15 16  2  0
 17 16  1  0
 18 17  2  0
 19 20  2  0
 19 18  1  0
 20 15  1  0
 21 25  1  0
 21 19  1  0
 22 21  1  0
 23 22  2  0
 23 24  1  0
 24 25  2  0
  2 26  1  0
  3 27  1  0
  4 28  1  0
  8 29  1  0
  9 30  1  0
 10 31  1  0
 11 32  1  0
 16 33  1  0
 17 34  1  0
 22 35  1  0
 24 36  1  0
M  ISO  8  26  14  27  14  28  14  29  14  30  14  31  14  32  14  33  14
M  ISO  3  34  14  35  14  36  14
M  END
>  <minimizedAffinity>  (1) 
-5.83032608

>  <minimizedRMSD>  (1) 
0.275907785

$$$$
