
     RDKit          3D

 38 41  0  0  0  0  0  0  0  0999 V2000
   42.3520   23.0430   36.5030 C   0  0  0  0  0  0  0  0  0  0  0  0
   43.6950   22.9210   36.8290 C   0  0  0  0  0  0  0  0  0  0  0  0
   44.6560   23.7830   36.3060 C   0  0  0  0  0  0  0  0  0  0  0  0
   44.2190   24.7660   35.4480 C   0  0  0  0  0  0  0  0  0  0  0  0
   42.8730   24.8490   35.1530 C   0  0  0  0  0  0  0  0  0  0  0  0
   41.9430   24.0170   35.6570 N   0  0  0  0  0  0  0  0  0  0  0  0
   42.4670   25.9160   34.2330 C   0  0  0  0  0  0  0  0  0  0  0  0
   41.1770   26.4010   34.1730 C   0  0  0  0  0  0  0  0  0  0  0  0
   40.8000   27.3890   33.3220 C   0  0  0  0  0  0  0  0  0  0  0  0
   41.7990   27.8910   32.5040 C   0  0  0  0  0  0  0  0  0  0  0  0
   43.1190   27.4330   32.5280 C   0  0  0  0  0  0  0  0  0  0  0  0
   43.3540   26.4660   33.4040 N   0  0  0  0  0  0  0  0  0  0  0  0
   41.4110   22.0760   37.1130 C   0  0  0  0  0  0  0  0  0  0  0  0
   41.9150   21.1080   37.7090 O   0  0  0  0  0  0  0  0  0  0  0  0
   40.0090   22.3530   36.9560 C   0  0  0  0  0  0  0  0  0  0  0  0
   39.4450   23.0750   38.0190 C   0  0  0  0  0  0  0  0  0  0  0  0
   38.0810   23.3840   37.9370 C   0  0  0  0  0  0  0  0  0  0  0  0
   37.3770   22.9840   36.8610 N   0  0  0  0  0  0  0  0  0  0  0  0
   37.9700   22.2910   35.8650 C   0  0  0  0  0  0  0  0  0  0  0  0
   39.2770   21.9780   35.9120 N   0  0  0  0  0  0  0  0  0  0  0  0
   37.1820   21.8700   34.7120 C   0  0  0  0  0  0  0  0  0  0  0  0
   36.1830   20.9280   34.8420 C   0  0  0  0  0  0  0  0  0  0  0  0
   35.4360   20.5250   33.7620 C   0  0  0  0  0  0  0  0  0  0  0  0
   35.6790   21.0600   32.5430 N   0  0  0  0  0  0  0  0  0  0  0  0
   36.6660   21.9880   32.4260 C   0  0  0  0  0  0  0  0  0  0  0  0
   37.4200   22.4050   33.4780 N   0  0  0  0  0  0  0  0  0  0  0  0
   44.0089   22.1231   37.5181 H   0  0  0  0  0  0  0  0  0  0  0  0
   45.7196   23.6822   36.5679 H   0  0  0  0  0  0  0  0  0  0  0  0
   44.9322   25.4757   35.0034 H   0  0  0  0  0  0  0  0  0  0  0  0
   40.4207   25.9681   34.8442 H   0  0  0  0  0  0  0  0  0  0  0  0
   39.7676   27.7668   33.2843 H   0  0  0  0  0  0  0  0  0  0  0  0
   41.5392   28.6932   31.7976 H   0  0  0  0  0  0  0  0  0  0  0  0
   43.9013   27.8424   31.8719 H   0  0  0  0  0  0  0  0  0  0  0  0
   40.0504   23.3862   38.8831 H   0  0  0  0  0  0  0  0  0  0  0  0
   37.5899   23.9479   38.7437 H   0  0  0  0  0  0  0  0  0  0  0  0
   35.9803   20.4905   35.8307 H   0  0  0  0  0  0  0  0  0  0  0  0
   34.6445   19.7714   33.8873 H   0  0  0  0  0  0  0  0  0  0  0  0
   36.8636   22.4214   31.4345 H   0  0  0  0  0  0  0  0  0  0  0  0
  1  2  2  0
  1 13  1  0
  3  2  1  0
  4  3  2  0
  5  4  1  0
  5  6  2  0
  6  1  1  0
  7  5  1  0
  8  7  2  0
  9  8  1  0
 10 11  1  0
 10  9  2  0
 11 12  2  0
 12  7  1  0
 13 14  2  0
 15 13  1  0
 15 16  2  0
 17 16  1  0
 18 17  2  0
 19 20  2  0
 19 18  1  0
 20 15  1  0
 21 22  2  0
 21 19  1  0
 23 22  1  0
 24 23  2  0
 25 24  1  0
 25 26  2  0
 26 21  1  0
  2 27  1  0
  3 28  1  0
  4 29  1  0
  8 30  1  0
  9 31  1  0
 10 32  1  0
 11 33  1  0
 16 34  1  0
 17 35  1  0
 22 36  1  0
 23 37  1  0
 25 38  1  0
M  ISO  8  27  14  28  14  29  14  30  14  31  14  32  14  33  14  34  14
M  ISO  4  35  14  36  14  37  14  38  14
M  END
>  <minimizedAffinity>  (1) 
-5.6957016

>  <minimizedRMSD>  (1) 
0.30518207

$$$$
