
     RDKit          3D

 43 46  0  0  0  0  0  0  0  0999 V2000
   42.2910   23.0770   36.3960 C   0  0  0  0  0  0  0  0  0  0  0  0
   43.6210   23.0200   36.8100 C   0  0  0  0  0  0  0  0  0  0  0  0
   44.5740   23.9270   36.3550 C   0  0  0  0  0  0  0  0  0  0  0  0
   44.1470   24.8900   35.4720 C   0  0  0  0  0  0  0  0  0  0  0  0
   42.8190   24.9120   35.0870 C   0  0  0  0  0  0  0  0  0  0  0  0
   41.9070   24.0350   35.5300 N   0  0  0  0  0  0  0  0  0  0  0  0
   42.4290   25.9610   34.1470 C   0  0  0  0  0  0  0  0  0  0  0  0
   41.1180   26.4050   34.0220 C   0  0  0  0  0  0  0  0  0  0  0  0
   40.7580   27.3780   33.1490 C   0  0  0  0  0  0  0  0  0  0  0  0
   41.7830   27.9060   32.3830 C   0  0  0  0  0  0  0  0  0  0  0  0
   43.1080   27.4970   32.4690 C   0  0  0  0  0  0  0  0  0  0  0  0
   43.3260   26.5410   33.3590 N   0  0  0  0  0  0  0  0  0  0  0  0
   41.3660   22.0630   36.9460 C   0  0  0  0  0  0  0  0  0  0  0  0
   41.8810   21.0550   37.4680 O   0  0  0  0  0  0  0  0  0  0  0  0
   39.9680   22.3420   36.8210 C   0  0  0  0  0  0  0  0  0  0  0  0
   39.4140   23.0000   37.9200 C   0  0  0  0  0  0  0  0  0  0  0  0
   38.0460   23.3110   37.8760 C   0  0  0  0  0  0  0  0  0  0  0  0
   37.3230   22.9700   36.7940 N   0  0  0  0  0  0  0  0  0  0  0  0
   37.9080   22.3280   35.7430 C   0  0  0  0  0  0  0  0  0  0  0  0
   39.2120   22.0280   35.7790 N   0  0  0  0  0  0  0  0  0  0  0  0
   37.1650   21.9610   34.5940 N   0  0  0  0  0  0  0  0  0  0  0  0
   36.0220   21.0680   34.6370 C   0  0  0  0  0  0  0  0  0  0  0  0
   35.9270   20.4040   33.2770 C   0  0  0  0  0  0  0  0  0  0  0  0
   37.1640   20.2020   32.7150 O   0  0  0  0  0  0  0  0  0  0  0  0
   37.8450   21.3490   32.3890 C   0  0  0  0  0  0  0  0  0  0  0  0
   37.5520   22.4980   33.3030 C   0  0  0  0  0  0  0  0  0  0  0  0
   43.9265   22.2349   37.5173 H   0  0  0  0  0  0  0  0  0  0  0  0
   45.6214   23.8754   36.6871 H   0  0  0  0  0  0  0  0  0  0  0  0
   44.8534   25.6345   35.0762 H   0  0  0  0  0  0  0  0  0  0  0  0
   40.3427   25.9496   34.6556 H   0  0  0  0  0  0  0  0  0  0  0  0
   39.7185   27.7254   33.0555 H   0  0  0  0  0  0  0  0  0  0  0  0
   41.5331   28.6981   31.6618 H   0  0  0  0  0  0  0  0  0  0  0  0
   43.9078   27.9304   31.8505 H   0  0  0  0  0  0  0  0  0  0  0  0
   40.0293   23.2662   38.7921 H   0  0  0  0  0  0  0  0  0  0  0  0
   37.5685   23.8299   38.7202 H   0  0  0  0  0  0  0  0  0  0  0  0
   36.1655   20.3081   35.4193 H   0  0  0  0  0  0  0  0  0  0  0  0
   35.1000   21.6212   34.8691 H   0  0  0  0  0  0  0  0  0  0  0  0
   35.4257   19.4315   33.3909 H   0  0  0  0  0  0  0  0  0  0  0  0
   35.3570   21.0704   32.6129 H   0  0  0  0  0  0  0  0  0  0  0  0
   38.9236   21.1372   32.4307 H   0  0  0  0  0  0  0  0  0  0  0  0
   37.5165   21.6450   31.3818 H   0  0  0  0  0  0  0  0  0  0  0  0
   38.4495   23.1243   33.4138 H   0  0  0  0  0  0  0  0  0  0  0  0
   36.7416   23.1162   32.8895 H   0  0  0  0  0  0  0  0  0  0  0  0
  1  2  2  0
  1 13  1  0
  3  2  1  0
  4  3  2  0
  5  4  1  0
  5  6  2  0
  6  1  1  0
  7  5  1  0
  8  7  2  0
  9  8  1  0
 10 11  1  0
 10  9  2  0
 11 12  2  0
 12  7  1  0
 13 14  2  0
 15 13  1  0
 15 16  2  0
 17 16  1  0
 18 17  2  0
 19 20  2  0
 19 18  1  0
 20 15  1  0
 21 22  1  0
 21 19  1  0
 23 22  1  0
 24 23  1  0
 25 24  1  0
 25 26  1  0
 26 21  1  0
  2 27  1  0
  3 28  1  0
  4 29  1  0
  8 30  1  0
  9 31  1  0
 10 32  1  0
 11 33  1  0
 16 34  1  0
 17 35  1  0
 22 36  1  0
 22 37  1  0
 23 38  1  0
 23 39  1  0
 25 40  1  0
 25 41  1  0
 26 42  1  0
 26 43  1  0
M  ISO  8  27  14  28  14  29  14  30  14  31  14  32  14  33  14  34  14
M  ISO  8  35  14  36  13  37  13  38  13  39  13  40  13  41  13  42  13
M  ISO  1  43  13
M  END
>  <minimizedAffinity>  (1) 
-5.62707281

>  <minimizedRMSD>  (1) 
0.300075978

$$$$
