
     RDKit          3D

 37 40  0  0  0  0  0  0  0  0999 V2000
   42.3040   23.0520   36.5280 C   0  0  0  0  0  0  0  0  0  0  0  0
   43.6490   22.9440   36.8450 C   0  0  0  0  0  0  0  0  0  0  0  0
   44.5910   23.8150   36.3090 C   0  0  0  0  0  0  0  0  0  0  0  0
   44.1510   24.7900   35.4550 C   0  0  0  0  0  0  0  0  0  0  0  0
   42.8030   24.8590   35.1690 C   0  0  0  0  0  0  0  0  0  0  0  0
   41.8850   24.0170   35.6850 N   0  0  0  0  0  0  0  0  0  0  0  0
   42.3730   25.9140   34.2520 C   0  0  0  0  0  0  0  0  0  0  0  0
   41.0670   26.3620   34.1730 C   0  0  0  0  0  0  0  0  0  0  0  0
   40.6580   27.3450   33.3220 C   0  0  0  0  0  0  0  0  0  0  0  0
   41.6500   27.8790   32.5240 C   0  0  0  0  0  0  0  0  0  0  0  0
   42.9870   27.4710   32.5560 C   0  0  0  0  0  0  0  0  0  0  0  0
   43.2510   26.5050   33.4310 N   0  0  0  0  0  0  0  0  0  0  0  0
   41.3710   22.0680   37.1560 C   0  0  0  0  0  0  0  0  0  0  0  0
   41.9030   21.0980   37.7290 O   0  0  0  0  0  0  0  0  0  0  0  0
   39.9780   22.3450   37.0290 C   0  0  0  0  0  0  0  0  0  0  0  0
   39.4740   23.1810   38.0250 C   0  0  0  0  0  0  0  0  0  0  0  0
   38.1240   23.5270   38.0130 C   0  0  0  0  0  0  0  0  0  0  0  0
   37.3470   23.0360   37.0260 N   0  0  0  0  0  0  0  0  0  0  0  0
   37.8810   22.2240   36.0760 C   0  0  0  0  0  0  0  0  0  0  0  0
   39.1850   21.8840   36.0800 N   0  0  0  0  0  0  0  0  0  0  0  0
   37.0670   21.6750   34.9940 C   0  0  0  0  0  0  0  0  0  0  0  0
   36.9880   21.7020   33.6010 C   0  0  0  0  0  0  0  0  0  0  0  0
   35.9090   20.9020   33.2910 C   0  0  0  0  0  0  0  0  0  0  0  0
   35.3580   20.4160   34.4130 N   0  0  0  0  0  0  0  0  0  0  0  0
   36.0510   20.8780   35.4360 N   0  0  0  0  0  0  0  0  0  0  0  0
   43.9780   22.1529   37.5349 H   0  0  0  0  0  0  0  0  0  0  0  0
   45.6572   23.7233   36.5635 H   0  0  0  0  0  0  0  0  0  0  0  0
   44.8574   25.5037   35.0060 H   0  0  0  0  0  0  0  0  0  0  0  0
   40.3177   25.9000   34.8327 H   0  0  0  0  0  0  0  0  0  0  0  0
   39.6139   27.6878   33.2745 H   0  0  0  0  0  0  0  0  0  0  0  0
   41.3710   28.6756   31.8186 H   0  0  0  0  0  0  0  0  0  0  0  0
   43.7587   27.9137   31.9091 H   0  0  0  0  0  0  0  0  0  0  0  0
   40.1372   23.5645   38.8144 H   0  0  0  0  0  0  0  0  0  0  0  0
   37.7030   24.1837   38.7886 H   0  0  0  0  0  0  0  0  0  0  0  0
   37.6435   22.2433   32.9029 H   0  0  0  0  0  0  0  0  0  0  0  0
   35.5519   20.6927   32.2718 H   0  0  0  0  0  0  0  0  0  0  0  0
   34.5395   19.7930   34.4664 H   0  0  0  0  0  0  0  0  0  0  0  0
  1  2  2  0
  1 13  1  0
  3  2  1  0
  4  3  2  0
  5  4  1  0
  5  6  2  0
  6  1  1  0
  7  5  1  0
  8  7  2  0
  9  8  1  0
 10 11  1  0
 10  9  2  0
 11 12  2  0
 12  7  1  0
 13 14  2  0
 15 13  1  0
 15 16  2  0
 17 16  1  0
 18 17  2  0
 19 20  2  0
 19 18  1  0
 20 15  1  0
 21 25  2  0
 21 19  1  0
 22 21  1  0
 23 22  2  0
 23 24  1  0
 24 25  1  0
  2 26  1  0
  3 27  1  0
  4 28  1  0
  8 29  1  0
  9 30  1  0
 10 31  1  0
 11 32  1  0
 16 33  1  0
 17 34  1  0
 22 35  1  0
 23 36  1  0
 24 37  1  0
M  ISO  8  26  14  27  14  28  14  29  14  30  14  31  14  32  14  33  14
M  ISO  4  34  14  35  14  36  14  37   9
M  END
>  <minimizedAffinity>  (1) 
-5.61030531

>  <minimizedRMSD>  (1) 
0.314284444

$$$$
