
     RDKit          3D

 45 48  0  0  0  0  0  0  0  0999 V2000
   42.2190   23.1350   36.3340 C   0  0  0  0  0  0  0  0  0  0  0  0
   43.5270   22.9840   36.8030 C   0  0  0  0  0  0  0  0  0  0  0  0
   44.5520   23.8260   36.3840 C   0  0  0  0  0  0  0  0  0  0  0  0
   44.2360   24.8150   35.4900 C   0  0  0  0  0  0  0  0  0  0  0  0
   42.9310   24.9280   35.0520 C   0  0  0  0  0  0  0  0  0  0  0  0
   41.9390   24.1150   35.4560 N   0  0  0  0  0  0  0  0  0  0  0  0
   42.6500   26.0040   34.0970 C   0  0  0  0  0  0  0  0  0  0  0  0
   41.3870   26.5340   33.9150 C   0  0  0  0  0  0  0  0  0  0  0  0
   41.1120   27.5310   33.0330 C   0  0  0  0  0  0  0  0  0  0  0  0
   42.2040   27.9930   32.3100 C   0  0  0  0  0  0  0  0  0  0  0  0
   43.4970   27.4960   32.4530 C   0  0  0  0  0  0  0  0  0  0  0  0
   43.6250   26.5180   33.3540 N   0  0  0  0  0  0  0  0  0  0  0  0
   41.2020   22.1830   36.8460 C   0  0  0  0  0  0  0  0  0  0  0  0
   41.5910   21.3000   37.6230 O   0  0  0  0  0  0  0  0  0  0  0  0
   39.8650   22.3850   36.3850 C   0  0  0  0  0  0  0  0  0  0  0  0
   39.0190   22.9810   37.3340 C   0  0  0  0  0  0  0  0  0  0  0  0
   37.6870   23.2220   36.9780 C   0  0  0  0  0  0  0  0  0  0  0  0
   37.2660   22.8730   35.7340 N   0  0  0  0  0  0  0  0  0  0  0  0
   38.1230   22.3030   34.8620 C   0  0  0  0  0  0  0  0  0  0  0  0
   39.3900   22.0650   35.1780 N   0  0  0  0  0  0  0  0  0  0  0  0
   37.5850   21.9750   33.5860 N   0  0  0  0  0  0  0  0  0  0  0  0
   37.9120   22.7920   32.4330 C   0  0  0  0  0  0  0  0  0  0  0  0
   36.6100   23.3740   31.9370 C   0  0  0  0  0  0  0  0  0  0  0  0
   35.5190   22.3770   31.7510 C   0  0  0  0  0  0  0  0  0  0  0  0
   35.3800   21.3650   32.8440 C   0  0  0  0  0  0  0  0  0  0  0  0
   36.7050   20.8450   33.3480 C   0  0  0  0  0  0  0  0  0  0  0  0
   43.7511   22.1806   37.5202 H   0  0  0  0  0  0  0  0  0  0  0  0
   45.5794   23.7022   36.7571 H   0  0  0  0  0  0  0  0  0  0  0  0
   45.0093   25.5080   35.1269 H   0  0  0  0  0  0  0  0  0  0  0  0
   40.5601   26.1275   34.5158 H   0  0  0  0  0  0  0  0  0  0  0  0
   40.0999   27.9413   32.9017 H   0  0  0  0  0  0  0  0  0  0  0  0
   42.0377   28.7997   31.5809 H   0  0  0  0  0  0  0  0  0  0  0  0
   44.3471   27.8790   31.8693 H   0  0  0  0  0  0  0  0  0  0  0  0
   39.3937   23.2517   38.3322 H   0  0  0  0  0  0  0  0  0  0  0  0
   36.9924   23.6863   37.6935 H   0  0  0  0  0  0  0  0  0  0  0  0
   38.6029   23.5978   32.7218 H   0  0  0  0  0  0  0  0  0  0  0  0
   38.4053   22.1967   31.6506 H   0  0  0  0  0  0  0  0  0  0  0  0
   36.2693   24.1243   32.6657 H   0  0  0  0  0  0  0  0  0  0  0  0
   36.8161   23.8011   30.9445 H   0  0  0  0  0  0  0  0  0  0  0  0
   34.5684   22.9250   31.6733 H   0  0  0  0  0  0  0  0  0  0  0  0
   35.7784   21.8100   30.8448 H   0  0  0  0  0  0  0  0  0  0  0  0
   34.8448   21.8304   33.6848 H   0  0  0  0  0  0  0  0  0  0  0  0
   34.8309   20.5080   32.4269 H   0  0  0  0  0  0  0  0  0  0  0  0
   36.5530   20.2897   34.2853 H   0  0  0  0  0  0  0  0  0  0  0  0
   37.1522   20.1704   32.6031 H   0  0  0  0  0  0  0  0  0  0  0  0
  1  2  2  0
  1 13  1  0
  3  2  1  0
  4  3  2  0
  5  6  2  0
  5  4  1  0
  6  1  1  0
  7  5  1  0
  8  7  2  0
  9  8  1  0
 10 11  1  0
 10  9  2  0
 11 12  2  0
 12  7  1  0
 13 14  2  0
 15 13  1  0
 15 16  2  0
 17 16  1  0
 18 17  2  0
 19 20  2  0
 19 18  1  0
 20 15  1  0
 21 19  1  0
 22 21  1  0
 23 22  1  0
 24 23  1  0
 24 25  1  0
 25 26  1  0
 26 21  1  0
  2 27  1  0
  3 28  1  0
  4 29  1  0
  8 30  1  0
  9 31  1  0
 10 32  1  0
 11 33  1  0
 16 34  1  0
 17 35  1  0
 22 36  1  0
 22 37  1  0
 23 38  1  0
 23 39  1  0
 24 40  1  0
 24 41  1  0
 25 42  1  0
 25 43  1  0
 26 44  1  0
 26 45  1  0
M  ISO  8  27  14  28  14  29  14  30  14  31  14  32  14  33  14  34  14
M  ISO  8  35  14  36  13  37  13  38  13  39  13  40  13  41  13  42  13
M  ISO  3  43  13  44  13  45  13
M  END
>  <minimizedAffinity>  (1) 
-5.55811453

>  <minimizedRMSD>  (1) 
1.10180867

$$$$
