
     RDKit          3D

 37 39  0  0  0  0  0  0  0  0999 V2000
   42.1800   23.0780   36.4810 C   0  0  0  0  0  0  0  0  0  0  0  0
   43.5110   22.9480   36.8600 C   0  0  0  0  0  0  0  0  0  0  0  0
   44.5030   23.7930   36.3690 C   0  0  0  0  0  0  0  0  0  0  0  0
   44.1260   24.7720   35.4890 C   0  0  0  0  0  0  0  0  0  0  0  0
   42.7920   24.8670   35.1390 C   0  0  0  0  0  0  0  0  0  0  0  0
   41.8330   24.0550   35.6090 N   0  0  0  0  0  0  0  0  0  0  0  0
   42.4290   25.9270   34.1930 C   0  0  0  0  0  0  0  0  0  0  0  0
   41.1550   26.4060   34.0370 C   0  0  0  0  0  0  0  0  0  0  0  0
   40.8050   27.3820   33.1670 C   0  0  0  0  0  0  0  0  0  0  0  0
   41.8500   27.8860   32.4170 C   0  0  0  0  0  0  0  0  0  0  0  0
   43.1840   27.4500   32.5150 C   0  0  0  0  0  0  0  0  0  0  0  0
   43.3720   26.4820   33.4170 N   0  0  0  0  0  0  0  0  0  0  0  0
   41.2000   22.1290   37.0580 C   0  0  0  0  0  0  0  0  0  0  0  0
   41.6610   21.2320   37.7880 O   0  0  0  0  0  0  0  0  0  0  0  0
   39.8260   22.3410   36.7180 C   0  0  0  0  0  0  0  0  0  0  0  0
   39.1230   23.0820   37.6540 C   0  0  0  0  0  0  0  0  0  0  0  0
   37.7680   23.3450   37.4130 C   0  0  0  0  0  0  0  0  0  0  0  0
   37.2090   22.8690   36.2870 N   0  0  0  0  0  0  0  0  0  0  0  0
   37.9350   22.1410   35.3830 C   0  0  0  0  0  0  0  0  0  0  0  0
   39.2230   21.8940   35.6190 N   0  0  0  0  0  0  0  0  0  0  0  0
   37.2930   21.6610   34.2070 N   0  0  0  0  0  0  0  0  0  0  0  0
   36.0120   21.0590   34.3160 C   0  0  0  0  0  0  0  0  0  0  0  0
   35.6360   20.4700   35.3970 N   0  0  0  0  0  0  0  0  0  0  0  0
   35.1240   21.1080   33.2060 N   0  0  0  0  0  0  0  0  0  0  0  0
   34.6920   20.0250   35.4800 H   0  0  0  0  0  0  0  0  0  0  0  0
   43.7890   22.1541   37.5688 H   0  0  0  0  0  0  0  0  0  0  0  0
   45.5526   23.6781   36.6773 H   0  0  0  0  0  0  0  0  0  0  0  0
   44.8681   25.4674   35.0699 H   0  0  0  0  0  0  0  0  0  0  0  0
   40.3625   25.9675   34.6613 H   0  0  0  0  0  0  0  0  0  0  0  0
   39.7715   27.7447   33.0653 H   0  0  0  0  0  0  0  0  0  0  0  0
   41.6235   28.6830   31.6935 H   0  0  0  0  0  0  0  0  0  0  0  0
   43.9982   27.8679   31.9047 H   0  0  0  0  0  0  0  0  0  0  0  0
   39.6164   23.4546   38.5638 H   0  0  0  0  0  0  0  0  0  0  0  0
   37.1736   23.9293   38.1308 H   0  0  0  0  0  0  0  0  0  0  0  0
   37.7517   21.7492   33.2890 H   0  0  0  0  0  0  0  0  0  0  0  0
   34.1919   20.6749   33.2727 H   0  0  0  0  0  0  0  0  0  0  0  0
   35.4131   21.5766   32.3355 H   0  0  0  0  0  0  0  0  0  0  0  0
  1  2  2  0
  1 13  1  0
  3  2  1  0
  4  3  2  0
  5  4  1  0
  5  6  2  0
  6  1  1  0
  7  5  1  0
  8  7  2  0
  9  8  1  0
 10 11  1  0
 10  9  2  0
 11 12  2  0
 12  7  1  0
 13 14  2  0
 15 13  1  0
 15 16  2  0
 17 16  1  0
 18 17  2  0
 19 20  2  0
 19 18  1  0
 20 15  1  0
 21 22  1  0
 21 19  1  0
 22 23  2  0
 23 25  1  0
 24 22  1  0
  2 26  1  0
  3 27  1  0
  4 28  1  0
  8 29  1  0
  9 30  1  0
 10 31  1  0
 11 32  1  0
 16 33  1  0
 17 34  1  0
 21 35  1  0
 24 36  1  0
 24 37  1  0
M  ISO  8  26  14  27  14  28  14  29  14  30  14  31  14  32  14  33  14
M  ISO  1  34  14
M  END
>  <minimizedAffinity>  (1) 
-5.53271818

>  <minimizedRMSD>  (1) 
0.5921368

$$$$
