
     RDKit          3D

 33 35  0  0  0  0  0  0  0  0999 V2000
   42.4200   23.0670   36.4450 C   0  0  0  0  0  0  0  0  0  0  0  0
   43.7610   22.9490   36.8160 C   0  0  0  0  0  0  0  0  0  0  0  0
   44.7250   23.8160   36.3160 C   0  0  0  0  0  0  0  0  0  0  0  0
   44.3110   24.7920   35.4450 C   0  0  0  0  0  0  0  0  0  0  0  0
   42.9750   24.8690   35.1090 C   0  0  0  0  0  0  0  0  0  0  0  0
   42.0460   24.0350   35.5900 N   0  0  0  0  0  0  0  0  0  0  0  0
   42.6090   25.9300   34.1820 C   0  0  0  0  0  0  0  0  0  0  0  0
   41.3220   26.4440   34.1130 C   0  0  0  0  0  0  0  0  0  0  0  0
   40.9660   27.4370   33.2500 C   0  0  0  0  0  0  0  0  0  0  0  0
   41.9830   27.9100   32.4330 C   0  0  0  0  0  0  0  0  0  0  0  0
   43.2850   27.4270   32.4640 C   0  0  0  0  0  0  0  0  0  0  0  0
   43.4960   26.4630   33.3490 N   0  0  0  0  0  0  0  0  0  0  0  0
   41.4650   22.0880   37.0380 C   0  0  0  0  0  0  0  0  0  0  0  0
   41.9530   21.1400   37.6670 O   0  0  0  0  0  0  0  0  0  0  0  0
   40.0730   22.3530   36.8140 C   0  0  0  0  0  0  0  0  0  0  0  0
   39.4340   23.0020   37.8690 C   0  0  0  0  0  0  0  0  0  0  0  0
   38.0700   23.3060   37.7480 C   0  0  0  0  0  0  0  0  0  0  0  0
   37.4290   22.9610   36.6200 N   0  0  0  0  0  0  0  0  0  0  0  0
   38.1000   22.3280   35.6180 C   0  0  0  0  0  0  0  0  0  0  0  0
   39.4040   22.0330   35.7230 N   0  0  0  0  0  0  0  0  0  0  0  0
   37.4420   21.9180   34.3360 C   0  0  0  0  0  0  0  0  0  0  0  0
   38.3430   21.1180   33.6620 F   0  0  0  0  0  0  0  0  0  0  0  0
   36.3150   21.2130   34.6630 F   0  0  0  0  0  0  0  0  0  0  0  0
   37.1550   23.0170   33.5670 F   0  0  0  0  0  0  0  0  0  0  0  0
   44.0597   22.1554   37.5167 H   0  0  0  0  0  0  0  0  0  0  0  0
   45.7815   23.7232   36.6079 H   0  0  0  0  0  0  0  0  0  0  0  0
   45.0345   25.5035   35.0203 H   0  0  0  0  0  0  0  0  0  0  0  0
   40.5548   26.0316   34.7848 H   0  0  0  0  0  0  0  0  0  0  0  0
   39.9421   27.8363   33.2042 H   0  0  0  0  0  0  0  0  0  0  0  0
   41.7446   28.7132   31.7202 H   0  0  0  0  0  0  0  0  0  0  0  0
   44.0777   27.8136   31.8066 H   0  0  0  0  0  0  0  0  0  0  0  0
   39.9891   23.2709   38.7798 H   0  0  0  0  0  0  0  0  0  0  0  0
   37.5356   23.8175   38.5621 H   0  0  0  0  0  0  0  0  0  0  0  0
  1  2  2  0
  1 13  1  0
  3  2  1  0
  4  3  2  0
  5  4  1  0
  5  6  2  0
  6  1  1  0
  7  5  1  0
  8  7  2  0
  9  8  1  0
 10 11  1  0
 10  9  2  0
 11 12  2  0
 12  7  1  0
 13 14  2  0
 15 13  1  0
 15 16  2  0
 17 16  1  0
 18 17  2  0
 19 20  2  0
 19 18  1  0
 20 15  1  0
 21 23  1  0
 21 19  1  0
 22 21  1  0
 24 21  1  0
  2 25  1  0
  3 26  1  0
  4 27  1  0
  8 28  1  0
  9 29  1  0
 10 30  1  0
 11 31  1  0
 16 32  1  0
 17 33  1  0
M  ISO  8  25  14  26  14  27  14  28  14  29  14  30  14  31  14  32  14
M  ISO  1  33  14
M  END
>  <minimizedAffinity>  (1) 
-5.1021142

>  <minimizedRMSD>  (1) 
0.414176643

$$$$
