
     RDKit          3D

 33 35  0  0  0  0  0  0  0  0999 V2000
   41.8880   23.3650   36.2790 C   0  0  0  0  0  0  0  0  0  0  0  0
   43.1880   23.6010   36.7300 C   0  0  0  0  0  0  0  0  0  0  0  0
   43.9900   24.5890   36.1760 C   0  0  0  0  0  0  0  0  0  0  0  0
   43.4630   25.3400   35.1550 C   0  0  0  0  0  0  0  0  0  0  0  0
   42.1710   25.0760   34.7360 C   0  0  0  0  0  0  0  0  0  0  0  0
   41.3910   24.1180   35.2730 N   0  0  0  0  0  0  0  0  0  0  0  0
   41.6570   25.9040   33.6470 C   0  0  0  0  0  0  0  0  0  0  0  0
   40.3690   26.3940   33.6230 C   0  0  0  0  0  0  0  0  0  0  0  0
   39.8810   27.1660   32.6100 C   0  0  0  0  0  0  0  0  0  0  0  0
   40.7770   27.4320   31.5880 C   0  0  0  0  0  0  0  0  0  0  0  0
   42.0840   26.9660   31.5570 C   0  0  0  0  0  0  0  0  0  0  0  0
   42.4350   26.2210   32.6090 N   0  0  0  0  0  0  0  0  0  0  0  0
   41.1200   22.2890   36.9370 C   0  0  0  0  0  0  0  0  0  0  0  0
   41.7770   21.3620   37.4520 O   0  0  0  0  0  0  0  0  0  0  0  0
   39.6900   22.4240   36.9170 C   0  0  0  0  0  0  0  0  0  0  0  0
   39.1760   23.2040   37.9510 C   0  0  0  0  0  0  0  0  0  0  0  0
   37.7840   23.3830   38.0000 C   0  0  0  0  0  0  0  0  0  0  0  0
   37.0010   22.7990   37.0510 N   0  0  0  0  0  0  0  0  0  0  0  0
   37.5690   22.0570   36.0790 C   0  0  0  0  0  0  0  0  0  0  0  0
   38.8830   21.8700   36.0080 N   0  0  0  0  0  0  0  0  0  0  0  0
   36.6770   21.4570   35.0930 C   0  0  0  0  0  0  0  0  0  0  0  0
   36.8500   21.6220   33.8620 O   0  0  0  0  0  0  0  0  0  0  0  0
   35.5880   20.6720   35.4470 O   0  0  0  0  0  0  0  0  0  0  0  0
   43.5886   22.9855   37.5489 H   0  0  0  0  0  0  0  0  0  0  0  0
   45.0123   24.7641   36.5423 H   0  0  0  0  0  0  0  0  0  0  0  0
   44.0557   26.1354   34.6796 H   0  0  0  0  0  0  0  0  0  0  0  0
   39.7014   26.1503   34.4626 H   0  0  0  0  0  0  0  0  0  0  0  0
   38.8501   27.5497   32.6051 H   0  0  0  0  0  0  0  0  0  0  0  0
   40.4309   28.0518   30.7477 H   0  0  0  0  0  0  0  0  0  0  0  0
   42.7757   27.1920   30.7321 H   0  0  0  0  0  0  0  0  0  0  0  0
   39.8365   23.6628   38.7015 H   0  0  0  0  0  0  0  0  0  0  0  0
   37.3302   23.9894   38.7977 H   0  0  0  0  0  0  0  0  0  0  0  0
   35.0082   20.2841   34.7445 H   0  0  0  0  0  0  0  0  0  0  0  0
  1  2  2  0
  1 13  1  0
  3  2  1  0
  4  3  2  0
  5  4  1  0
  5  6  2  0
  6  1  1  0
  7  5  1  0
  8  7  2  0
  9  8  1  0
 10  9  2  0
 11 10  1  0
 11 12  2  0
 12  7  1  0
 13 14  2  0
 15 13  1  0
 15 16  2  0
 16 17  1  0
 18 17  2  0
 19 18  1  0
 20 19  2  0
 20 15  1  0
 21 23  1  0
 21 19  1  0
 22 21  2  0
  2 24  1  0
  3 25  1  0
  4 26  1  0
  8 27  1  0
  9 28  1  0
 10 29  1  0
 11 30  1  0
 16 31  1  0
 17 32  1  0
 23 33  1  0
M  ISO  8  24  14  25  14  26  14  27  14  28  14  29  14  30  14  31  14
M  ISO  2  32  14  33   3
M  END
>  <minimizedAffinity>  (1) 
-5.01864767

>  <minimizedRMSD>  (1) 
0.945554376

$$$$
