
     RDKit          3D

 36 38  0  0  0  0  0  0  0  0999 V2000
   42.2570   23.0000   36.5100 C   0  0  0  0  0  0  0  0  0  0  0  0
   43.6170   22.8590   36.7830 C   0  0  0  0  0  0  0  0  0  0  0  0
   44.5700   23.7040   36.2300 C   0  0  0  0  0  0  0  0  0  0  0  0
   44.1200   24.6920   35.3980 C   0  0  0  0  0  0  0  0  0  0  0  0
   42.7650   24.8040   35.1490 C   0  0  0  0  0  0  0  0  0  0  0  0
   41.8350   23.9900   35.6800 N   0  0  0  0  0  0  0  0  0  0  0  0
   42.3480   25.8830   34.2490 C   0  0  0  0  0  0  0  0  0  0  0  0
   41.0540   26.3400   34.1740 C   0  0  0  0  0  0  0  0  0  0  0  0
   40.6540   27.3370   33.3470 C   0  0  0  0  0  0  0  0  0  0  0  0
   41.6510   27.8740   32.5680 C   0  0  0  0  0  0  0  0  0  0  0  0
   42.9880   27.4650   32.5870 C   0  0  0  0  0  0  0  0  0  0  0  0
   43.2410   26.4790   33.4430 N   0  0  0  0  0  0  0  0  0  0  0  0
   41.3180   22.0480   37.1490 C   0  0  0  0  0  0  0  0  0  0  0  0
   41.8320   21.0730   37.7310 O   0  0  0  0  0  0  0  0  0  0  0  0
   39.9240   22.3460   37.0310 C   0  0  0  0  0  0  0  0  0  0  0  0
   39.4330   23.1440   38.0540 C   0  0  0  0  0  0  0  0  0  0  0  0
   38.0730   23.4930   38.0280 C   0  0  0  0  0  0  0  0  0  0  0  0
   37.2990   23.0370   37.0050 N   0  0  0  0  0  0  0  0  0  0  0  0
   37.8300   22.2580   36.0270 C   0  0  0  0  0  0  0  0  0  0  0  0
   39.1230   21.9320   36.0620 N   0  0  0  0  0  0  0  0  0  0  0  0
   37.0070   21.7420   34.8920 C   0  0  0  0  0  0  0  0  0  0  0  0
   35.9000   20.9050   35.4940 C   0  0  0  0  0  0  0  0  0  0  0  0
   43.9450   22.0539   37.4570 H   0  0  0  0  0  0  0  0  0  0  0  0
   45.6408   23.5840   36.4515 H   0  0  0  0  0  0  0  0  0  0  0  0
   44.8298   25.3909   34.9314 H   0  0  0  0  0  0  0  0  0  0  0  0
   40.2997   25.8699   34.8221 H   0  0  0  0  0  0  0  0  0  0  0  0
   39.6127   27.6888   33.3029 H   0  0  0  0  0  0  0  0  0  0  0  0
   41.3767   28.6859   31.8783 H   0  0  0  0  0  0  0  0  0  0  0  0
   43.7620   27.9185   31.9504 H   0  0  0  0  0  0  0  0  0  0  0  0
   40.0908   23.4938   38.8633 H   0  0  0  0  0  0  0  0  0  0  0  0
   37.6411   24.1231   38.8195 H   0  0  0  0  0  0  0  0  0  0  0  0
   37.6273   21.1250   34.2253 H   0  0  0  0  0  0  0  0  0  0  0  0
   36.5942   22.5704   34.2976 H   0  0  0  0  0  0  0  0  0  0  0  0
   35.9609   20.9510   36.5913 H   0  0  0  0  0  0  0  0  0  0  0  0
   34.9254   21.2941   35.1642 H   0  0  0  0  0  0  0  0  0  0  0  0
   36.0088   19.8613   35.1642 H   0  0  0  0  0  0  0  0  0  0  0  0
  1  2  2  0
  1 13  1  0
  3  2  1  0
  4  3  2  0
  5  4  1  0
  5  6  2  0
  6  1  1  0
  7  5  1  0
  8  7  2  0
  9  8  1  0
 10 11  1  0
 10  9  2  0
 11 12  2  0
 12  7  1  0
 13 14  2  0
 15 13  1  0
 15 16  2  0
 17 16  1  0
 18 17  2  0
 19 20  2  0
 19 18  1  0
 20 15  1  0
 21 22  1  0
 21 19  1  0
  2 23  1  0
  3 24  1  0
  4 25  1  0
  8 26  1  0
  9 27  1  0
 10 28  1  0
 11 29  1  0
 16 30  1  0
 17 31  1  0
 21 32  1  0
 21 33  1  0
 22 34  1  0
 22 35  1  0
 22 36  1  0
M  ISO  8  23  14  24  14  25  14  26  14  27  14  28  14  29  14  30  14
M  ISO  6  31  14  32   8  33   8  34   8  35   8  36   8
M  END
>  <minimizedAffinity>  (1) 
-4.95725536

>  <minimizedRMSD>  (1) 
0.152415827

$$$$
