
     RDKit          3D

 31 33  0  0  0  0  0  0  0  0999 V2000
   42.2870   23.0190   36.4970 C   0  0  0  0  0  0  0  0  0  0  0  0
   43.6400   22.8630   36.7990 C   0  0  0  0  0  0  0  0  0  0  0  0
   44.6060   23.7040   36.2600 C   0  0  0  0  0  0  0  0  0  0  0  0
   44.1830   24.6990   35.4160 C   0  0  0  0  0  0  0  0  0  0  0  0
   42.8380   24.8180   35.1440 C   0  0  0  0  0  0  0  0  0  0  0  0
   41.9000   24.0000   35.6690 N   0  0  0  0  0  0  0  0  0  0  0  0
   42.4340   25.8950   34.2360 C   0  0  0  0  0  0  0  0  0  0  0  0
   41.1480   26.3760   34.1800 C   0  0  0  0  0  0  0  0  0  0  0  0
   40.7790   27.3800   33.3300 C   0  0  0  0  0  0  0  0  0  0  0  0
   41.7700   27.8890   32.5300 C   0  0  0  0  0  0  0  0  0  0  0  0
   43.0820   27.4360   32.5520 C   0  0  0  0  0  0  0  0  0  0  0  0
   43.3220   26.4540   33.4200 N   0  0  0  0  0  0  0  0  0  0  0  0
   41.3450   22.0650   37.1290 C   0  0  0  0  0  0  0  0  0  0  0  0
   41.8430   21.0890   37.7140 O   0  0  0  0  0  0  0  0  0  0  0  0
   39.9500   22.3710   36.9970 C   0  0  0  0  0  0  0  0  0  0  0  0
   39.4280   23.1070   38.0500 C   0  0  0  0  0  0  0  0  0  0  0  0
   38.0660   23.4450   37.9910 C   0  0  0  0  0  0  0  0  0  0  0  0
   37.3270   23.0460   36.9250 N   0  0  0  0  0  0  0  0  0  0  0  0
   37.8880   22.3310   35.9280 C   0  0  0  0  0  0  0  0  0  0  0  0
   39.1810   22.0110   35.9860 N   0  0  0  0  0  0  0  0  0  0  0  0
   37.1590   21.9070   34.8230 O   0  0  0  0  0  0  0  0  0  0  0  0
   43.9492   22.0558   37.4793 H   0  0  0  0  0  0  0  0  0  0  0  0
   45.6715   23.5764   36.5015 H   0  0  0  0  0  0  0  0  0  0  0  0
   44.9074   25.3919   34.9629 H   0  0  0  0  0  0  0  0  0  0  0  0
   40.3883   25.9369   34.8434 H   0  0  0  0  0  0  0  0  0  0  0  0
   39.7469   27.7582   33.2896 H   0  0  0  0  0  0  0  0  0  0  0  0
   41.5112   28.7000   31.8333 H   0  0  0  0  0  0  0  0  0  0  0  0
   43.8640   27.8558   31.9023 H   0  0  0  0  0  0  0  0  0  0  0  0
   40.0565   23.4143   38.8989 H   0  0  0  0  0  0  0  0  0  0  0  0
   37.6028   24.0275   38.8010 H   0  0  0  0  0  0  0  0  0  0  0  0
   36.1968   22.1284   34.7501 H   0  0  0  0  0  0  0  0  0  0  0  0
  1  2  2  0
  1 13  1  0
  3  2  1  0
  4  3  2  0
  5  4  1  0
  5  6  2  0
  6  1  1  0
  7  5  1  0
  8  7  2  0
  9  8  1  0
 10 11  1  0
 10  9  2  0
 11 12  2  0
 12  7  1  0
 13 14  2  0
 15 13  1  0
 15 16  2  0
 17 16  1  0
 18 17  2  0
 19 20  2  0
 19 18  1  0
 20 15  1  0
 21 19  1  0
  2 22  1  0
  3 23  1  0
  4 24  1  0
  8 25  1  0
  9 26  1  0
 10 27  1  0
 11 28  1  0
 16 29  1  0
 17 30  1  0
 21 31  1  0
M  ISO  8  22  14  23  14  24  14  25  14  26  14  27  14  28  14  29  14
M  ISO  2  30  14  31   3
M  END
>  <minimizedAffinity>  (1) 
-4.911623

>  <minimizedRMSD>  (1) 
0.12005771

$$$$
