
     RDKit          3D

 33 35  0  0  0  0  0  0  0  0999 V2000
   42.3540   23.0440   36.4880 C   0  0  0  0  0  0  0  0  0  0  0  0
   43.6930   22.9390   36.8310 C   0  0  0  0  0  0  0  0  0  0  0  0
   44.6460   23.8120   36.3130 C   0  0  0  0  0  0  0  0  0  0  0  0
   44.2200   24.7900   35.4460 C   0  0  0  0  0  0  0  0  0  0  0  0
   42.8660   24.8520   35.1350 C   0  0  0  0  0  0  0  0  0  0  0  0
   41.9430   24.0120   35.6330 N   0  0  0  0  0  0  0  0  0  0  0  0
   42.4750   25.9080   34.2170 C   0  0  0  0  0  0  0  0  0  0  0  0
   41.1820   26.3960   34.1540 C   0  0  0  0  0  0  0  0  0  0  0  0
   40.8050   27.3940   33.2970 C   0  0  0  0  0  0  0  0  0  0  0  0
   41.8060   27.8930   32.4880 C   0  0  0  0  0  0  0  0  0  0  0  0
   43.1170   27.4400   32.5120 C   0  0  0  0  0  0  0  0  0  0  0  0
   43.3530   26.4710   33.3850 N   0  0  0  0  0  0  0  0  0  0  0  0
   41.4080   22.0680   37.0910 C   0  0  0  0  0  0  0  0  0  0  0  0
   41.9220   21.0890   37.6580 O   0  0  0  0  0  0  0  0  0  0  0  0
   40.0080   22.3600   36.9540 C   0  0  0  0  0  0  0  0  0  0  0  0
   39.4760   23.0810   38.0120 C   0  0  0  0  0  0  0  0  0  0  0  0
   38.1130   23.4090   37.9580 C   0  0  0  0  0  0  0  0  0  0  0  0
   37.3780   23.0110   36.8860 N   0  0  0  0  0  0  0  0  0  0  0  0
   37.9610   22.3080   35.8890 C   0  0  0  0  0  0  0  0  0  0  0  0
   39.2570   21.9870   35.9220 N   0  0  0  0  0  0  0  0  0  0  0  0
   37.2170   21.8400   34.6850 C   0  0  0  0  0  0  0  0  0  0  0  0
   44.0095   22.1487   37.5276 H   0  0  0  0  0  0  0  0  0  0  0  0
   45.7070   23.7219   36.5890 H   0  0  0  0  0  0  0  0  0  0  0  0
   44.9322   25.5055   35.0092 H   0  0  0  0  0  0  0  0  0  0  0  0
   40.4234   25.9626   34.8224 H   0  0  0  0  0  0  0  0  0  0  0  0
   39.7733   27.7732   33.2555 H   0  0  0  0  0  0  0  0  0  0  0  0
   41.5490   28.6972   31.7828 H   0  0  0  0  0  0  0  0  0  0  0  0
   43.8992   27.8526   31.8579 H   0  0  0  0  0  0  0  0  0  0  0  0
   40.1011   23.3854   38.8644 H   0  0  0  0  0  0  0  0  0  0  0  0
   37.6450   23.9810   38.7728 H   0  0  0  0  0  0  0  0  0  0  0  0
   36.3250   21.2789   35.0004 H   0  0  0  0  0  0  0  0  0  0  0  0
   36.9103   22.7081   34.0831 H   0  0  0  0  0  0  0  0  0  0  0  0
   37.8667   21.1876   34.0831 H   0  0  0  0  0  0  0  0  0  0  0  0
  1  2  2  0
  1 13  1  0
  3  2  1  0
  4  3  2  0
  5  4  1  0
  5  6  2  0
  6  1  1  0
  7  5  1  0
  8  7  2  0
  9  8  1  0
 10 11  1  0
 10  9  2  0
 11 12  2  0
 12  7  1  0
 13 14  2  0
 15 13  1  0
 15 16  2  0
 17 16  1  0
 18 17  2  0
 19 20  2  0
 19 18  1  0
 20 15  1  0
 21 19  1  0
  2 22  1  0
  3 23  1  0
  4 24  1  0
  8 25  1  0
  9 26  1  0
 10 27  1  0
 11 28  1  0
 16 29  1  0
 17 30  1  0
 21 31  1  0
 21 32  1  0
 21 33  1  0
M  ISO  8  22  14  23  14  24  14  25  14  26  14  27  14  28  14  29  14
M  ISO  4  30  14  31   8  32   8  33   8
M  END
>  <minimizedAffinity>  (1) 
-4.85211134

>  <minimizedRMSD>  (1) 
0.17616111

$$$$
