
     RDKit          3D

 42 44  0  0  0  0  0  0  0  0999 V2000
   42.4390   23.1670   36.3360 C   0  0  0  0  0  0  0  0  0  0  0  0
   43.7460   23.0840   36.8120 C   0  0  0  0  0  0  0  0  0  0  0  0
   44.7290   23.9740   36.3990 C   0  0  0  0  0  0  0  0  0  0  0  0
   44.3720   24.9470   35.4970 C   0  0  0  0  0  0  0  0  0  0  0  0
   43.0640   24.9900   35.0520 C   0  0  0  0  0  0  0  0  0  0  0  0
   42.1060   24.1330   35.4480 N   0  0  0  0  0  0  0  0  0  0  0  0
   42.7280   26.0480   34.0890 C   0  0  0  0  0  0  0  0  0  0  0  0
   41.4620   26.5660   33.9480 C   0  0  0  0  0  0  0  0  0  0  0  0
   41.1540   27.5400   33.0600 C   0  0  0  0  0  0  0  0  0  0  0  0
   42.1990   27.9930   32.2900 C   0  0  0  0  0  0  0  0  0  0  0  0
   43.5100   27.5120   32.3800 C   0  0  0  0  0  0  0  0  0  0  0  0
   43.6870   26.5510   33.2940 N   0  0  0  0  0  0  0  0  0  0  0  0
   41.4600   22.1660   36.8410 C   0  0  0  0  0  0  0  0  0  0  0  0
   41.9250   21.2180   37.4980 O   0  0  0  0  0  0  0  0  0  0  0  0
   40.0890   22.4010   36.5180 C   0  0  0  0  0  0  0  0  0  0  0  0
   39.3380   22.9800   37.5270 C   0  0  0  0  0  0  0  0  0  0  0  0
   37.9830   23.2370   37.2730 C   0  0  0  0  0  0  0  0  0  0  0  0
   37.4650   22.9150   36.0770 N   0  0  0  0  0  0  0  0  0  0  0  0
   38.2400   22.3430   35.1050 C   0  0  0  0  0  0  0  0  0  0  0  0
   39.5210   22.1080   35.3630 N   0  0  0  0  0  0  0  0  0  0  0  0
   37.6520   21.9920   33.7830 C   0  0  0  0  0  0  0  0  0  0  0  0
   36.4170   21.1460   34.0010 C   0  0  0  0  0  0  0  0  0  0  0  0
   37.3550   23.2070   32.9370 C   0  0  0  0  0  0  0  0  0  0  0  0
   38.6350   21.1350   32.9740 C   0  0  0  0  0  0  0  0  0  0  0  0
   44.0055   22.2943   37.5324 H   0  0  0  0  0  0  0  0  0  0  0  0
   45.7581   23.9024   36.7809 H   0  0  0  0  0  0  0  0  0  0  0  0
   45.1119   25.6768   35.1364 H   0  0  0  0  0  0  0  0  0  0  0  0
   40.6603   26.1694   34.5883 H   0  0  0  0  0  0  0  0  0  0  0  0
   40.1351   27.9425   32.9610 H   0  0  0  0  0  0  0  0  0  0  0  0
   41.9911   28.7850   31.5555 H   0  0  0  0  0  0  0  0  0  0  0  0
   44.3280   27.8928   31.7509 H   0  0  0  0  0  0  0  0  0  0  0  0
   39.7903   23.2306   38.4979 H   0  0  0  0  0  0  0  0  0  0  0  0
   37.3507   23.6979   38.0462 H   0  0  0  0  0  0  0  0  0  0  0  0
   36.2410   21.0254   35.0801 H   0  0  0  0  0  0  0  0  0  0  0  0
   35.5484   21.6397   33.5407 H   0  0  0  0  0  0  0  0  0  0  0  0
   36.5636   20.1577   33.5407 H   0  0  0  0  0  0  0  0  0  0  0  0
   37.1449   24.0664   33.5906 H   0  0  0  0  0  0  0  0  0  0  0  0
   38.2243   23.4331   32.3021 H   0  0  0  0  0  0  0  0  0  0  0  0
   36.4794   23.0066   32.3021 H   0  0  0  0  0  0  0  0  0  0  0  0
   39.2819   20.5710   33.6620 H   0  0  0  0  0  0  0  0  0  0  0  0
   38.0736   20.4329   32.3401 H   0  0  0  0  0  0  0  0  0  0  0  0
   39.2540   21.7869   32.3401 H   0  0  0  0  0  0  0  0  0  0  0  0
  1  2  2  0
  1 13  1  0
  3  2  1  0
  4  3  2  0
  5  6  2  0
  5  4  1  0
  6  1  1  0
  7  5  1  0
  8  7  2  0
  9  8  1  0
 10 11  1  0
 10  9  2  0
 11 12  2  0
 12  7  1  0
 13 14  2  0
 15 13  1  0
 15 16  2  0
 17 16  1  0
 18 17  2  0
 19 20  2  0
 19 18  1  0
 20 15  1  0
 21 22  1  0
 21 19  1  0
 23 21  1  0
 24 21  1  0
  2 25  1  0
  3 26  1  0
  4 27  1  0
  8 28  1  0
  9 29  1  0
 10 30  1  0
 11 31  1  0
 16 32  1  0
 17 33  1  0
 22 34  1  0
 22 35  1  0
 22 36  1  0
 23 37  1  0
 23 38  1  0
 23 39  1  0
 24 40  1  0
 24 41  1  0
 24 42  1  0
M  ISO  8  25  14  26  14  27  14  28  14  29  14  30  14  31  14  32  14
M  ISO  8  33  14  34   8  35   8  36   8  37   8  38   8  39   8  40   8
M  ISO  2  41   8  42   8
M  END
>  <minimizedAffinity>  (1) 
-4.84223747

>  <minimizedRMSD>  (1) 
0.867977738

$$$$
