
     RDKit          3D

 17 18  0  0  0  0  0  0  0  0999 V2000
   42.5460   20.7860   37.0380 C   0  0  0  0  0  0  0  0  0  0  0  0
   41.4400   21.4650   37.5780 C   0  0  0  0  0  0  0  0  0  0  0  0
   40.6060   22.1560   36.7000 C   0  0  0  0  0  0  0  0  0  0  0  0
   40.9090   22.1360   35.3590 N   0  0  0  0  0  0  0  0  0  0  0  0
   41.9790   21.4730   34.8910 C   0  0  0  0  0  0  0  0  0  0  0  0
   42.7940   20.8020   35.7150 N   0  0  0  0  0  0  0  0  0  0  0  0
   39.4550   22.8630   37.2520 C   0  0  0  0  0  0  0  0  0  0  0  0
   38.5970   23.6570   36.4870 C   0  0  0  0  0  0  0  0  0  0  0  0
   37.6610   24.1370   37.3560 N   0  0  0  0  0  0  0  0  0  0  0  0
   37.9630   23.6410   38.5790 C   0  0  0  0  0  0  0  0  0  0  0  0
   39.0400   22.8710   38.5360 N   0  0  0  0  0  0  0  0  0  0  0  0
   43.2203   20.2322   37.7078 H   0  0  0  0  0  0  0  0  0  0  0  0
   41.2388   21.4516   38.6594 H   0  0  0  0  0  0  0  0  0  0  0  0
   42.1898   21.4812   33.8114 H   0  0  0  0  0  0  0  0  0  0  0  0
   38.6625   23.8545   35.4069 H   0  0  0  0  0  0  0  0  0  0  0  0
   37.3871   23.8508   39.4924 H   0  0  0  0  0  0  0  0  0  0  0  0
   39.4752   22.3756   39.3273 H   0  0  0  0  0  0  0  0  0  0  0  0
  1  2  2  0
  3  7  1  0
  3  2  1  0
  4  3  2  0
  5  4  1  0
  5  6  2  0
  6  1  1  0
  7 11  1  0
  8  7  2  0
  8  9  1  0
  9 10  2  0
 11 10  1  0
  1 12  1  0
  2 13  1  0
  5 14  1  0
  8 15  1  0
 10 16  1  0
 11 17  1  0
M  ISO  6  12  14  13  14  14  14  15  14  16  14  17   9
M  END
>  <minimizedAffinity>  (1) 
-3.70678139

>  <minimizedRMSD>  (1) 
3.2817452

$$$$
