
     RDKit          3D

 20 21  0  0  0  0  0  0  0  0999 V2000
   39.5140   23.7580   36.1660 C   0  0  0  0  0  0  0  0  0  0  0  0
   39.1800   24.2710   34.8870 C   0  0  0  0  0  0  0  0  0  0  0  0
   37.9950   24.9380   35.0760 N   0  0  0  0  0  0  0  0  0  0  0  0
   37.6750   24.8070   36.3980 C   0  0  0  0  0  0  0  0  0  0  0  0
   38.5840   24.0940   37.0770 N   0  0  0  0  0  0  0  0  0  0  0  0
   43.1130   22.7980   36.2910 C   0  0  0  0  0  0  0  0  0  0  0  0
   41.9450   23.5360   36.0640 C   0  0  0  0  0  0  0  0  0  0  0  0
   40.7140   22.9870   36.4040 C   0  0  0  0  0  0  0  0  0  0  0  0
   40.6820   21.7100   36.9640 N   0  0  0  0  0  0  0  0  0  0  0  0
   41.8380   21.0460   37.1580 C   0  0  0  0  0  0  0  0  0  0  0  0
   43.0390   21.5610   36.8360 N   0  0  0  0  0  0  0  0  0  0  0  0
   38.3880   23.8340   38.4810 C   0  0  0  0  0  0  0  0  0  0  0  0
   37.8190   24.9740   39.1060 F   0  0  0  0  0  0  0  0  0  0  0  0
   37.4440   22.8450   38.7270 F   0  0  0  0  0  0  0  0  0  0  0  0
   39.5600   23.6640   39.1900 F   0  0  0  0  0  0  0  0  0  0  0  0
   39.7455   24.1592   33.9501 H   0  0  0  0  0  0  0  0  0  0  0  0
   36.7719   25.2387   36.8540 H   0  0  0  0  0  0  0  0  0  0  0  0
   44.0920   23.2239   36.0262 H   0  0  0  0  0  0  0  0  0  0  0  0
   42.0010   24.5411   35.6206 H   0  0  0  0  0  0  0  0  0  0  0  0
   41.7986   20.0390   37.5988 H   0  0  0  0  0  0  0  0  0  0  0  0
  1  8  1  0
  1  5  1  0
  2  3  1  0
  2  1  2  0
  3  4  2  0
  4  5  1  0
  5 12  1  0
  6 11  2  0
  7  6  1  0
  7  8  2  0
  8  9  1  0
  9 10  2  0
 11 10  1  0
 12 14  1  0
 12 13  1  0
 12 15  1  0
  2 16  1  0
  4 17  1  0
  6 18  1  0
  7 19  1  0
 10 20  1  0
M  ISO  5  16  14  17  14  18  14  19  14  20  14
M  END
>  <minimizedAffinity>  (1) 
-4.47853518

>  <minimizedRMSD>  (1) 
2.21632409

$$$$
