
     RDKit          3D

 26 28  0  0  0  0  0  0  0  0999 V2000
   39.3730   26.0210   33.1700 C   0  0  0  0  0  0  0  0  0  0  0  0
   40.1660   27.0670   32.6510 C   0  0  0  0  0  0  0  0  0  0  0  0
   41.0180   27.3940   33.6740 N   0  0  0  0  0  0  0  0  0  0  0  0
   40.7190   26.5730   34.7220 C   0  0  0  0  0  0  0  0  0  0  0  0
   39.7350   25.7480   34.4310 N   0  0  0  0  0  0  0  0  0  0  0  0
   37.7260   23.8560   30.6400 C   0  0  0  0  0  0  0  0  0  0  0  0
   38.7200   24.4770   31.4030 C   0  0  0  0  0  0  0  0  0  0  0  0
   38.3300   25.3790   32.3860 C   0  0  0  0  0  0  0  0  0  0  0  0
   36.9740   25.6270   32.5700 N   0  0  0  0  0  0  0  0  0  0  0  0
   36.0580   24.9980   31.8040 C   0  0  0  0  0  0  0  0  0  0  0  0
   36.4140   24.1280   30.8550 N   0  0  0  0  0  0  0  0  0  0  0  0
   39.2330   24.8000   35.3600 C   0  0  0  0  0  0  0  0  0  0  0  0
   38.3040   25.3300   36.2670 C   0  0  0  0  0  0  0  0  0  0  0  0
   37.7490   24.4940   37.2290 C   0  0  0  0  0  0  0  0  0  0  0  0
   38.1500   23.1700   37.2370 C   0  0  0  0  0  0  0  0  0  0  0  0
   39.0700   22.6530   36.3370 C   0  0  0  0  0  0  0  0  0  0  0  0
   39.5880   23.4860   35.4190 N   0  0  0  0  0  0  0  0  0  0  0  0
   40.1123   27.5188   31.6495 H   0  0  0  0  0  0  0  0  0  0  0  0
   41.2371   26.5974   35.6921 H   0  0  0  0  0  0  0  0  0  0  0  0
   38.0110   23.1386   29.8563 H   0  0  0  0  0  0  0  0  0  0  0  0
   39.7838   24.2571   31.2296 H   0  0  0  0  0  0  0  0  0  0  0  0
   34.9902   25.2073   31.9654 H   0  0  0  0  0  0  0  0  0  0  0  0
   38.0188   26.3912   36.2179 H   0  0  0  0  0  0  0  0  0  0  0  0
   37.0170   24.8718   37.9580 H   0  0  0  0  0  0  0  0  0  0  0  0
   37.7192   22.4960   37.9921 H   0  0  0  0  0  0  0  0  0  0  0  0
   39.3662   21.5943   36.3737 H   0  0  0  0  0  0  0  0  0  0  0  0
  1  5  1  0
  2  1  2  0
  2  3  1  0
  3  4  2  0
  5  4  1  0
  5 12  1  0
  6 11  2  0
  6  7  1  0
  7  8  2  0
  8  9  1  0
  8  1  1  0
 10  9  2  0
 11 10  1  0
 12 17  1  0
 12 13  2  0
 13 14  1  0
 14 15  2  0
 16 15  1  0
 17 16  2  0
  2 18  1  0
  4 19  1  0
  6 20  1  0
  7 21  1  0
 10 22  1  0
 13 23  1  0
 14 24  1  0
 15 25  1  0
 16 26  1  0
M  ISO  8  18  14  19  14  20  14  21  14  22  14  23  14  24  14  25  14
M  ISO  1  26  14
M  END
>  <minimizedAffinity>  (1) 
-4.15741444

>  <minimizedRMSD>  (1) 
6.26738596

$$$$
