
     RDKit          3D

 38 40  0  0  0  0  0  0  0  0999 V2000
   40.3750   26.7130   34.8470 C   0  0  0  0  0  0  0  0  0  0  0  0
   39.1130   27.1580   34.2220 C   0  0  0  0  0  0  0  0  0  0  0  0
   38.0170   27.3990   35.0360 C   0  0  0  0  0  0  0  0  0  0  0  0
   36.7600   27.8230   34.5770 C   0  0  0  0  0  0  0  0  0  0  0  0
   36.6510   28.0000   33.2260 N   0  0  0  0  0  0  0  0  0  0  0  0
   37.7280   27.7640   32.4250 C   0  0  0  0  0  0  0  0  0  0  0  0
   38.9180   27.3550   32.9250 N   0  0  0  0  0  0  0  0  0  0  0  0
   37.6130   27.9520   30.9890 C   0  0  0  0  0  0  0  0  0  0  0  0
   38.7740   28.1390   30.2300 C   0  0  0  0  0  0  0  0  0  0  0  0
   38.4010   28.2970   28.8920 C   0  0  0  0  0  0  0  0  0  0  0  0
   37.0490   28.2020   28.8790 N   0  0  0  0  0  0  0  0  0  0  0  0
   36.5830   27.9990   30.1120 N   0  0  0  0  0  0  0  0  0  0  0  0
   40.9690   25.5120   34.1360 C   0  0  0  0  0  0  0  0  0  0  0  0
   41.1500   22.1160   35.6820 C   0  0  0  0  0  0  0  0  0  0  0  0
   39.9550   22.1040   36.4150 C   0  0  0  0  0  0  0  0  0  0  0  0
   39.1050   23.2300   36.3840 C   0  0  0  0  0  0  0  0  0  0  0  0
   39.4770   24.2950   35.6390 N   0  0  0  0  0  0  0  0  0  0  0  0
   40.6550   24.2760   34.9300 C   0  0  0  0  0  0  0  0  0  0  0  0
   41.4670   23.2070   34.9570 N   0  0  0  0  0  0  0  0  0  0  0  0
   37.8840   23.2570   37.1150 N   0  0  0  0  0  0  0  0  0  0  0  0
   37.7870   22.8180   38.4670 C   0  0  0  0  0  0  0  0  0  0  0  0
   38.8300   23.0910   39.2120 N   0  0  0  0  0  0  0  0  0  0  0  0
   36.5750   22.1380   38.8510 N   0  0  0  0  0  0  0  0  0  0  0  0
   38.7760   22.7780   40.2000 H   0  0  0  0  0  0  0  0  0  0  0  0
   41.0993   27.5401   34.8124 H   0  0  0  0  0  0  0  0  0  0  0  0
   40.1553   26.4193   35.8841 H   0  0  0  0  0  0  0  0  0  0  0  0
   38.1412   27.2472   36.1184 H   0  0  0  0  0  0  0  0  0  0  0  0
   35.9169   28.0014   35.2606 H   0  0  0  0  0  0  0  0  0  0  0  0
   39.8027   28.1583   30.6192 H   0  0  0  0  0  0  0  0  0  0  0  0
   39.0650   28.4634   28.0310 H   0  0  0  0  0  0  0  0  0  0  0  0
   36.4634   28.2762   28.0349 H   0  0  0  0  0  0  0  0  0  0  0  0
   40.5337   25.4255   33.1295 H   0  0  0  0  0  0  0  0  0  0  0  0
   42.0587   25.6319   34.0460 H   0  0  0  0  0  0  0  0  0  0  0  0
   41.8213   21.2448   35.6984 H   0  0  0  0  0  0  0  0  0  0  0  0
   39.6813   21.2212   37.0114 H   0  0  0  0  0  0  0  0  0  0  0  0
   37.0360   23.6082   36.6476 H   0  0  0  0  0  0  0  0  0  0  0  0
   36.4573   21.8015   39.8174 H   0  0  0  0  0  0  0  0  0  0  0  0
   35.8269   21.9887   38.1590 H   0  0  0  0  0  0  0  0  0  0  0  0
  2  1  1  0
  2  3  2  0
  4  3  1  0
  5  4  2  0
  6  7  2  0
  6  5  1  0
  7  2  1  0
  8  6  1  0
  9  8  1  0
 10  9  2  0
 11 10  1  0
 11 12  1  0
 12  8  2  0
 13  1  1  0
 13 18  1  0
 14 15  2  0
 16 15  1  0
 16 20  1  0
 17 16  2  0
 18 19  2  0
 18 17  1  0
 19 14  1  0
 20 21  1  0
 21 23  1  0
 21 22  2  0
 22 24  1  0
  1 25  1  0
  1 26  1  0
  3 27  1  0
  4 28  1  0
  9 29  1  0
 10 30  1  0
 11 31  1  0
 13 32  1  0
 13 33  1  0
 14 34  1  0
 15 35  1  0
 20 36  1  0
 23 37  1  0
 23 38  1  0
M  ISO  8  25   8  26   8  27  14  28  14  29  14  30  14  31   9  32   8
M  ISO  3  33   8  34  14  35  14
M  END
>  <minimizedAffinity>  (1) 
-5.65868235

>  <minimizedRMSD>  (1) 
1.91207802

$$$$
