
     RDKit          3D

 33 36  0  0  0  0  0  0  0  0999 V2000
   35.9320   26.4660   31.5880 C   0  0  0  0  0  0  0  0  0  0  0  0
   35.1870   25.5560   30.8260 C   0  0  0  0  0  0  0  0  0  0  0  0
   35.5700   24.3180   31.2810 N   0  0  0  0  0  0  0  0  0  0  0  0
   36.4950   24.5140   32.2590 C   0  0  0  0  0  0  0  0  0  0  0  0
   36.7300   25.8060   32.4590 N   0  0  0  0  0  0  0  0  0  0  0  0
   37.6580   26.2690   33.4280 C   0  0  0  0  0  0  0  0  0  0  0  0
   37.2960   26.3890   34.7930 C   0  0  0  0  0  0  0  0  0  0  0  0
   38.1680   26.7720   35.7720 C   0  0  0  0  0  0  0  0  0  0  0  0
   39.4790   27.0600   35.4240 C   0  0  0  0  0  0  0  0  0  0  0  0
   39.8700   26.9590   34.1190 C   0  0  0  0  0  0  0  0  0  0  0  0
   38.9760   26.5710   33.1190 C   0  0  0  0  0  0  0  0  0  0  0  0
   39.5860   26.5410   31.7950 C   0  0  0  0  0  0  0  0  0  0  0  0
   40.2150   25.3600   31.4330 C   0  0  0  0  0  0  0  0  0  0  0  0
   40.7420   25.6330   29.7010 S   0  0  0  0  0  0  0  0  0  0  0  0
   39.9810   27.3970   29.7540 C   0  0  0  0  0  0  0  0  0  0  0  0
   39.5920   27.3970   30.8050 N   0  0  0  0  0  0  0  0  0  0  0  0
   34.8530   29.9730   32.2460 C   0  0  0  0  0  0  0  0  0  0  0  0
   35.0060   28.5930   32.3340 C   0  0  0  0  0  0  0  0  0  0  0  0
   35.8110   27.8890   31.4400 C   0  0  0  0  0  0  0  0  0  0  0  0
   36.4460   28.6250   30.4690 N   0  0  0  0  0  0  0  0  0  0  0  0
   36.2780   29.9700   30.4090 C   0  0  0  0  0  0  0  0  0  0  0  0
   35.4930   30.6360   31.2840 N   0  0  0  0  0  0  0  0  0  0  0  0
   34.4557   25.7834   30.0364 H   0  0  0  0  0  0  0  0  0  0  0  0
   36.9875   23.7029   32.8154 H   0  0  0  0  0  0  0  0  0  0  0  0
   36.2584   26.1618   35.0790 H   0  0  0  0  0  0  0  0  0  0  0  0
   37.8362   26.8506   36.8178 H   0  0  0  0  0  0  0  0  0  0  0  0
   40.2006   27.3683   36.1949 H   0  0  0  0  0  0  0  0  0  0  0  0
   40.9117   27.1883   33.8501 H   0  0  0  0  0  0  0  0  0  0  0  0
   40.3641   24.4605   32.0483 H   0  0  0  0  0  0  0  0  0  0  0  0
   39.9395   28.1775   28.9800 H   0  0  0  0  0  0  0  0  0  0  0  0
   34.2121   30.5095   32.9612 H   0  0  0  0  0  0  0  0  0  0  0  0
   34.4789   28.0442   33.1283 H   0  0  0  0  0  0  0  0  0  0  0  0
   36.7978   30.5366   29.6224 H   0  0  0  0  0  0  0  0  0  0  0  0
  1  5  1  0
  2  3  1  0
  2  1  2  0
  3  4  2  0
  4  5  1  0
  5  6  1  0
  6  7  2  0
  7  8  1  0
  9  8  2  0
 10  9  1  0
 11  6  1  0
 11 10  2  0
 12 11  1  0
 13 12  2  0
 14 15  1  0
 14 13  1  0
 15 16  2  0
 16 12  1  0
 17 18  2  0
 19  1  1  0
 19 18  1  0
 20 19  2  0
 21 20  1  0
 21 22  2  0
 22 17  1  0
  2 23  1  0
  4 24  1  0
  7 25  1  0
  8 26  1  0
  9 27  1  0
 10 28  1  0
 13 29  1  0
 15 30  1  0
 17 31  1  0
 18 32  1  0
 21 33  1  0
M  ISO  8  23  14  24  14  25  14  26  14  27  14  28  14  29  14  30  14
M  ISO  3  31  14  32  14  33  14
M  END
>  <minimizedAffinity>  (1) 
-5.02088547

>  <minimizedRMSD>  (1) 
6.09950066

$$$$
