
     RDKit          3D

 39 42  0  0  0  0  0  0  0  0999 V2000
   36.8010   26.4320   32.0910 C   0  0  0  0  0  0  0  0  0  0  0  0
   35.8790   25.5690   31.4720 C   0  0  0  0  0  0  0  0  0  0  0  0
   36.6110   24.4280   31.2210 N   0  0  0  0  0  0  0  0  0  0  0  0
   37.8660   24.6460   31.6750 C   0  0  0  0  0  0  0  0  0  0  0  0
   38.0120   25.8400   32.2020 N   0  0  0  0  0  0  0  0  0  0  0  0
   39.2300   26.2960   32.7430 C   0  0  0  0  0  0  0  0  0  0  0  0
   40.1320   27.0940   32.0280 C   0  0  0  0  0  0  0  0  0  0  0  0
   41.3250   27.5390   32.5580 C   0  0  0  0  0  0  0  0  0  0  0  0
   41.6680   27.1920   33.8570 C   0  0  0  0  0  0  0  0  0  0  0  0
   40.8140   26.4050   34.6090 C   0  0  0  0  0  0  0  0  0  0  0  0
   39.6270   25.9790   34.0400 C   0  0  0  0  0  0  0  0  0  0  0  0
   38.7960   25.1710   34.8720 N   0  0  0  0  0  0  0  0  0  0  0  0
   38.4990   23.7330   34.9620 C   0  0  0  0  0  0  0  0  0  0  0  0
   38.7990   23.5260   36.4520 C   0  0  0  0  0  0  0  0  0  0  0  0
   37.9350   24.6490   37.0240 C   0  0  0  0  0  0  0  0  0  0  0  0
   37.9680   25.6750   35.9400 C   0  0  0  0  0  0  0  0  0  0  0  0
   35.9080   29.2560   34.3510 C   0  0  0  0  0  0  0  0  0  0  0  0
   36.2570   27.9800   33.8950 C   0  0  0  0  0  0  0  0  0  0  0  0
   36.4400   27.7700   32.5290 C   0  0  0  0  0  0  0  0  0  0  0  0
   36.2680   28.8420   31.6810 N   0  0  0  0  0  0  0  0  0  0  0  0
   35.9310   30.0560   32.1660 C   0  0  0  0  0  0  0  0  0  0  0  0
   35.7530   30.2670   33.4770 N   0  0  0  0  0  0  0  0  0  0  0  0
   34.8204   25.7599   31.2418 H   0  0  0  0  0  0  0  0  0  0  0  0
   38.6759   23.9045   31.6100 H   0  0  0  0  0  0  0  0  0  0  0  0
   39.8773   27.3789   30.9965 H   0  0  0  0  0  0  0  0  0  0  0  0
   41.9998   28.1646   31.9552 H   0  0  0  0  0  0  0  0  0  0  0  0
   42.6175   27.5421   34.2882 H   0  0  0  0  0  0  0  0  0  0  0  0
   41.0739   26.1232   35.6400 H   0  0  0  0  0  0  0  0  0  0  0  0
   37.4499   23.5112   34.7166 H   0  0  0  0  0  0  0  0  0  0  0  0
   39.0594   23.0873   34.2698 H   0  0  0  0  0  0  0  0  0  0  0  0
   38.4757   22.5355   36.8048 H   0  0  0  0  0  0  0  0  0  0  0  0
   39.8627   23.5568   36.7306 H   0  0  0  0  0  0  0  0  0  0  0  0
   36.9078   24.3028   37.2110 H   0  0  0  0  0  0  0  0  0  0  0  0
   38.2954   25.0262   37.9924 H   0  0  0  0  0  0  0  0  0  0  0  0
   38.3900   26.6139   36.3278 H   0  0  0  0  0  0  0  0  0  0  0  0
   36.9506   25.8742   35.5723 H   0  0  0  0  0  0  0  0  0  0  0  0
   35.7600   29.4329   35.4266 H   0  0  0  0  0  0  0  0  0  0  0  0
   36.3856   27.1513   34.6069 H   0  0  0  0  0  0  0  0  0  0  0  0
   35.7990   30.8943   31.4661 H   0  0  0  0  0  0  0  0  0  0  0  0
  1  5  1  0
  1 19  1  0
  2  1  2  0
  3  2  1  0
  3  4  2  0
  4  5  1  0
  5  6  1  0
  6 11  2  0
  7  8  2  0
  7  6  1  0
  8  9  1  0
  9 10  2  0
 11 10  1  0
 11 12  1  0
 12 13  1  0
 12 16  1  0
 13 14  1  0
 14 15  1  0
 16 15  1  0
 18 17  2  0
 19 18  1  0
 20 21  1  0
 20 19  2  0
 21 22  2  0
 22 17  1  0
  2 23  1  0
  4 24  1  0
  7 25  1  0
  8 26  1  0
  9 27  1  0
 10 28  1  0
 13 29  1  0
 13 30  1  0
 14 31  1  0
 14 32  1  0
 15 33  1  0
 15 34  1  0
 16 35  1  0
 16 36  1  0
 17 37  1  0
 18 38  1  0
 21 39  1  0
M  ISO  8  23  14  24  14  25  14  26  14  27  14  28  14  29  13  30  13
M  ISO  8  31  13  32  13  33  13  34  13  35  13  36  13  37  14  38  14
M  ISO  1  39  14
M  END
>  <minimizedAffinity>  (1) 
-4.92914867

>  <minimizedRMSD>  (1) 
5.49837589

$$$$
