
     RDKit          3D

 43 46  0  0  0  0  0  0  0  0999 V2000
   39.3820   23.3580   34.9670 C   0  0  0  0  0  0  0  0  0  0  0  0
   38.5250   22.8420   33.9810 C   0  0  0  0  0  0  0  0  0  0  0  0
   39.3600   22.6040   32.9030 N   0  0  0  0  0  0  0  0  0  0  0  0
   40.6080   22.9710   33.2790 C   0  0  0  0  0  0  0  0  0  0  0  0
   40.6520   23.4260   34.5070 N   0  0  0  0  0  0  0  0  0  0  0  0
   41.8510   23.8620   35.0950 C   0  0  0  0  0  0  0  0  0  0  0  0
   42.5860   23.0380   35.9780 C   0  0  0  0  0  0  0  0  0  0  0  0
   43.7740   23.4590   36.5600 C   0  0  0  0  0  0  0  0  0  0  0  0
   44.2730   24.7190   36.2830 C   0  0  0  0  0  0  0  0  0  0  0  0
   43.5910   25.5470   35.4340 C   0  0  0  0  0  0  0  0  0  0  0  0
   42.4060   25.1300   34.8520 C   0  0  0  0  0  0  0  0  0  0  0  0
   41.7980   26.1310   33.9610 C   0  0  0  0  0  0  0  0  0  0  0  0
   40.6260   26.7560   34.6880 C   0  0  0  0  0  0  0  0  0  0  0  0
   39.3760   26.4800   33.8690 C   0  0  0  0  0  0  0  0  0  0  0  0
   39.5310   27.1580   32.5320 C   0  0  0  0  0  0  0  0  0  0  0  0
   40.8200   26.7650   31.8490 C   0  0  0  0  0  0  0  0  0  0  0  0
   41.3890   25.5540   32.6030 C   0  0  0  0  0  0  0  0  0  0  0  0
   38.9080   23.2430   38.6560 C   0  0  0  0  0  0  0  0  0  0  0  0
   39.3130   22.9320   37.3570 C   0  0  0  0  0  0  0  0  0  0  0  0
   38.9220   23.7340   36.2850 C   0  0  0  0  0  0  0  0  0  0  0  0
   38.1370   24.8230   36.5630 N   0  0  0  0  0  0  0  0  0  0  0  0
   37.7630   25.0920   37.8350 C   0  0  0  0  0  0  0  0  0  0  0  0
   38.1440   24.3130   38.8680 N   0  0  0  0  0  0  0  0  0  0  0  0
   37.4411   22.6674   34.0496 H   0  0  0  0  0  0  0  0  0  0  0  0
   41.4890   22.8954   32.6247 H   0  0  0  0  0  0  0  0  0  0  0  0
   42.2050   22.0327   36.2109 H   0  0  0  0  0  0  0  0  0  0  0  0
   44.3190   22.7899   37.2421 H   0  0  0  0  0  0  0  0  0  0  0  0
   45.2142   25.0538   36.7434 H   0  0  0  0  0  0  0  0  0  0  0  0
   43.9862   26.5494   35.2126 H   0  0  0  0  0  0  0  0  0  0  0  0
   42.5477   26.9002   33.7238 H   0  0  0  0  0  0  0  0  0  0  0  0
   40.5246   26.3104   35.6886 H   0  0  0  0  0  0  0  0  0  0  0  0
   40.7784   27.8389   34.8066 H   0  0  0  0  0  0  0  0  0  0  0  0
   39.2565   25.3960   33.7254 H   0  0  0  0  0  0  0  0  0  0  0  0
   38.4871   26.8652   34.3901 H   0  0  0  0  0  0  0  0  0  0  0  0
   38.6858   26.8730   31.8883 H   0  0  0  0  0  0  0  0  0  0  0  0
   39.5512   28.2448   32.7004 H   0  0  0  0  0  0  0  0  0  0  0  0
   40.6232   26.4965   30.8006 H   0  0  0  0  0  0  0  0  0  0  0  0
   41.5355   27.6004   31.8599 H   0  0  0  0  0  0  0  0  0  0  0  0
   40.6245   24.7722   32.7232 H   0  0  0  0  0  0  0  0  0  0  0  0
   42.2266   25.0770   32.0729 H   0  0  0  0  0  0  0  0  0  0  0  0
   39.2179   22.6083   39.4993 H   0  0  0  0  0  0  0  0  0  0  0  0
   39.9443   22.0492   37.1777 H   0  0  0  0  0  0  0  0  0  0  0  0
   37.1307   25.9703   38.0322 H   0  0  0  0  0  0  0  0  0  0  0  0
  1 20  1  0
  2  1  2  0
  3  4  2  0
  3  2  1  0
  4  5  1  0
  5  1  1  0
  5  6  1  0
  6  7  2  0
  7  8  1  0
  9  8  2  0
 10  9  1  0
 11  6  1  0
 11 10  2  0
 12 13  1  0
 12 11  1  0
 14 13  1  0
 15 14  1  0
 16 15  1  0
 16 17  1  0
 17 12  1  0
 18 23  2  0
 19 18  1  0
 20 21  1  0
 20 19  2  0
 21 22  2  0
 22 23  1  0
  2 24  1  0
  4 25  1  0
  7 26  1  0
  8 27  1  0
  9 28  1  0
 10 29  1  0
 12 30  1  0
 13 31  1  0
 13 32  1  0
 14 33  1  0
 14 34  1  0
 15 35  1  0
 15 36  1  0
 16 37  1  0
 16 38  1  0
 17 39  1  0
 17 40  1  0
 18 41  1  0
 19 42  1  0
 22 43  1  0
M  ISO  8  24  14  25  14  26  14  27  14  28  14  29  14  30  13  31  13
M  ISO  8  32  13  33  13  34  13  35  13  36  13  37  13  38  13  39  13
M  ISO  4  40  13  41  14  42  14  43  14
M  END
>  <minimizedAffinity>  (1) 
-4.91154003

>  <minimizedRMSD>  (1) 
2.03546572

$$$$
