
     RDKit          3D

 40 43  0  0  0  0  0  0  0  0999 V2000
   39.3790   24.0290   33.4470 C   0  0  0  0  0  0  0  0  0  0  0  0
   38.2820   23.1910   33.6990 C   0  0  0  0  0  0  0  0  0  0  0  0
   37.9190   22.7990   34.9710 C   0  0  0  0  0  0  0  0  0  0  0  0
   38.6330   23.2260   36.0610 C   0  0  0  0  0  0  0  0  0  0  0  0
   39.7190   24.0510   35.8730 C   0  0  0  0  0  0  0  0  0  0  0  0
   40.0710   24.4340   34.5960 C   0  0  0  0  0  0  0  0  0  0  0  0
   41.2020   25.2880   34.4580 N   0  0  0  0  0  0  0  0  0  0  0  0
   42.4150   24.6620   34.4070 C   0  0  0  0  0  0  0  0  0  0  0  0
   43.6110   25.3450   34.2740 C   0  0  0  0  0  0  0  0  0  0  0  0
   44.9080   24.6200   34.2230 C   0  0  0  0  0  0  0  0  0  0  0  0
   43.5510   26.7200   34.1920 C   0  0  0  0  0  0  0  0  0  0  0  0
   44.6070   27.4180   34.0700 O   0  0  0  0  0  0  0  0  0  0  0  0
   42.3420   27.3220   34.2440 N   0  0  0  0  0  0  0  0  0  0  0  0
   41.1880   26.6370   34.3730 C   0  0  0  0  0  0  0  0  0  0  0  0
   40.0610   27.1750   34.4240 O   0  0  0  0  0  0  0  0  0  0  0  0
   39.1930   25.3130   31.2900 C   0  0  0  0  0  0  0  0  0  0  0  0
   39.9360   25.3700   30.0940 C   0  0  0  0  0  0  0  0  0  0  0  0
   40.9620   24.4700   30.2930 N   0  0  0  0  0  0  0  0  0  0  0  0
   40.7950   23.9430   31.5370 C   0  0  0  0  0  0  0  0  0  0  0  0
   39.7500   24.4300   32.1470 N   0  0  0  0  0  0  0  0  0  0  0  0
   35.6200   26.3560   31.3770 C   0  0  0  0  0  0  0  0  0  0  0  0
   36.7750   25.5770   31.1710 C   0  0  0  0  0  0  0  0  0  0  0  0
   38.0070   26.1190   31.5030 C   0  0  0  0  0  0  0  0  0  0  0  0
   38.0330   27.4010   32.0200 N   0  0  0  0  0  0  0  0  0  0  0  0
   36.9070   28.1100   32.2010 C   0  0  0  0  0  0  0  0  0  0  0  0
   35.7120   27.5890   31.8810 N   0  0  0  0  0  0  0  0  0  0  0  0
   37.6866   22.8316   32.8467 H   0  0  0  0  0  0  0  0  0  0  0  0
   37.0503   22.1390   35.1118 H   0  0  0  0  0  0  0  0  0  0  0  0
   38.3413   22.9129   37.0743 H   0  0  0  0  0  0  0  0  0  0  0  0
   40.3026   24.4026   36.7366 H   0  0  0  0  0  0  0  0  0  0  0  0
   42.4423   23.5644   34.4748 H   0  0  0  0  0  0  0  0  0  0  0  0
   45.2589   24.4238   35.2469 H   0  0  0  0  0  0  0  0  0  0  0  0
   44.7741   23.6659   33.6922 H   0  0  0  0  0  0  0  0  0  0  0  0
   45.6506   25.2339   33.6922 H   0  0  0  0  0  0  0  0  0  0  0  0
   42.3005   28.3493   34.1824 H   0  0  0  0  0  0  0  0  0  0  0  0
   39.7423   25.9897   29.2060 H   0  0  0  0  0  0  0  0  0  0  0  0
   41.4658   23.1911   31.9781 H   0  0  0  0  0  0  0  0  0  0  0  0
   34.6326   25.9447   31.1202 H   0  0  0  0  0  0  0  0  0  0  0  0
   36.7012   24.5610   30.7559 H   0  0  0  0  0  0  0  0  0  0  0  0
   36.9645   29.1273   32.6154 H   0  0  0  0  0  0  0  0  0  0  0  0
  1  2  2  0
  1  6  1  0
  2  3  1  0
  3  4  2  0
  5  4  1  0
  6  5  2  0
  7  6  1  0
  8  7  1  0
  9  8  2  0
 10  9  1  0
 11 13  1  0
 11  9  1  0
 12 11  2  0
 13 14  1  0
 14 15  2  0
 14  7  1  0
 16 23  1  0
 16 20  1  0
 17 18  1  0
 17 16  2  0
 18 19  2  0
 19 20  1  0
 20  1  1  0
 21 26  2  0
 22 21  1  0
 22 23  2  0
 23 24  1  0
 24 25  2  0
 26 25  1  0
  2 27  1  0
  3 28  1  0
  4 29  1  0
  5 30  1  0
  8 31  1  0
 10 32  1  0
 10 33  1  0
 10 34  1  0
 13 35  1  0
 17 36  1  0
 19 37  1  0
 21 38  1  0
 22 39  1  0
 25 40  1  0
M  ISO  8  27  14  28  14  29  14  30  14  31  14  32   8  33   8  34   8
M  ISO  6  35   9  36  14  37  14  38  14  39  14  40  14
M  END
>  <minimizedAffinity>  (1) 
-4.77243567

>  <minimizedRMSD>  (1) 
3.99010444

$$$$
