
     RDKit          3D

 38 42  0  0  0  0  0  0  0  0999 V2000
   38.8840   22.9090   35.7750 C   0  0  0  0  0  0  0  0  0  0  0  0
   37.6130   23.0140   36.3370 C   0  0  0  0  0  0  0  0  0  0  0  0
   37.3830   23.2130   37.6760 C   0  0  0  0  0  0  0  0  0  0  0  0
   38.4420   23.3200   38.5370 C   0  0  0  0  0  0  0  0  0  0  0  0
   39.7280   23.2250   38.0500 C   0  0  0  0  0  0  0  0  0  0  0  0
   39.9180   23.0250   36.7000 C   0  0  0  0  0  0  0  0  0  0  0  0
   41.2700   22.9360   36.2640 N   0  0  0  0  0  0  0  0  0  0  0  0
   41.8660   23.9800   35.6170 C   0  0  0  0  0  0  0  0  0  0  0  0
   43.1410   23.6880   35.2930 N   0  0  0  0  0  0  0  0  0  0  0  0
   43.3810   22.4390   35.7350 C   0  0  0  0  0  0  0  0  0  0  0  0
   44.4330   21.5280   35.7510 C   0  0  0  0  0  0  0  0  0  0  0  0
   44.3410   20.3150   36.2920 N   0  0  0  0  0  0  0  0  0  0  0  0
   43.1830   19.9360   36.8570 C   0  0  0  0  0  0  0  0  0  0  0  0
   42.1040   20.7720   36.8830 N   0  0  0  0  0  0  0  0  0  0  0  0
   42.2200   21.9860   36.3310 C   0  0  0  0  0  0  0  0  0  0  0  0
   38.9760   23.5220   33.3390 C   0  0  0  0  0  0  0  0  0  0  0  0
   39.3310   22.8520   32.1450 C   0  0  0  0  0  0  0  0  0  0  0  0
   39.6860   21.5900   32.5620 N   0  0  0  0  0  0  0  0  0  0  0  0
   39.5370   21.5540   33.9200 C   0  0  0  0  0  0  0  0  0  0  0  0
   39.1120   22.7040   34.3990 N   0  0  0  0  0  0  0  0  0  0  0  0
   36.8540   26.5320   32.7840 C   0  0  0  0  0  0  0  0  0  0  0  0
   37.2920   25.1980   32.7800 C   0  0  0  0  0  0  0  0  0  0  0  0
   38.5310   24.9060   33.3470 C   0  0  0  0  0  0  0  0  0  0  0  0
   39.2670   25.9460   33.8850 N   0  0  0  0  0  0  0  0  0  0  0  0
   38.8030   27.2050   33.8630 C   0  0  0  0  0  0  0  0  0  0  0  0
   37.6140   27.5060   33.3220 N   0  0  0  0  0  0  0  0  0  0  0  0
   36.7431   22.9327   35.6687 H   0  0  0  0  0  0  0  0  0  0  0  0
   36.3529   23.2861   38.0550 H   0  0  0  0  0  0  0  0  0  0  0  0
   38.2677   23.4808   39.6111 H   0  0  0  0  0  0  0  0  0  0  0  0
   40.5896   23.3076   38.7289 H   0  0  0  0  0  0  0  0  0  0  0  0
   41.3700   24.9352   35.3898 H   0  0  0  0  0  0  0  0  0  0  0  0
   45.3884   21.8250   35.2938 H   0  0  0  0  0  0  0  0  0  0  0  0
   43.1026   18.9352   37.3063 H   0  0  0  0  0  0  0  0  0  0  0  0
   39.3247   23.2487   31.1191 H   0  0  0  0  0  0  0  0  0  0  0  0
   39.7472   20.6693   34.5390 H   0  0  0  0  0  0  0  0  0  0  0  0
   35.8787   26.7850   32.3426 H   0  0  0  0  0  0  0  0  0  0  0  0
   36.6722   24.4028   32.3400 H   0  0  0  0  0  0  0  0  0  0  0  0
   39.4131   28.0095   34.2995 H   0  0  0  0  0  0  0  0  0  0  0  0
  1  2  2  0
  1  6  1  0
  2  3  1  0
  3  4  2  0
  5  4  1  0
  6  5  2  0
  7 15  1  0
  7  6  1  0
  8  7  1  0
  9  8  2  0
  9 10  1  0
 10 11  2  0
 10 15  1  0
 11 12  1  0
 12 13  2  0
 13 14  1  0
 15 14  2  0
 16 23  1  0
 16 20  1  0
 17 18  1  0
 17 16  2  0
 18 19  2  0
 19 20  1  0
 20  1  1  0
 21 26  2  0
 22 21  1  0
 22 23  2  0
 23 24  1  0
 25 24  2  0
 26 25  1  0
  2 27  1  0
  3 28  1  0
  4 29  1  0
  5 30  1  0
  8 31  1  0
 11 32  1  0
 13 33  1  0
 17 34  1  0
 19 35  1  0
 21 36  1  0
 22 37  1  0
 25 38  1  0
M  ISO  8  27  14  28  14  29  14  30  14  31  14  32  14  33  14  34  14
M  ISO  4  35  14  36  14  37  14  38  14
M  END
>  <minimizedAffinity>  (1) 
-4.75897837

>  <minimizedRMSD>  (1) 
5.36261368

$$$$
