
     RDKit          3D

 39 41  0  0  0  0  0  0  0  0999 V2000
   39.7480   22.8460   35.0500 C   0  0  0  0  0  0  0  0  0  0  0  0
   39.0440   22.0560   34.1200 C   0  0  0  0  0  0  0  0  0  0  0  0
   40.0000   21.7510   33.1570 N   0  0  0  0  0  0  0  0  0  0  0  0
   41.1520   22.3420   33.5420 C   0  0  0  0  0  0  0  0  0  0  0  0
   41.0360   23.0050   34.6640 N   0  0  0  0  0  0  0  0  0  0  0  0
   42.1150   23.6900   35.2320 C   0  0  0  0  0  0  0  0  0  0  0  0
   43.0030   23.0380   36.1230 C   0  0  0  0  0  0  0  0  0  0  0  0
   44.0940   23.6650   36.6930 C   0  0  0  0  0  0  0  0  0  0  0  0
   44.3470   24.9910   36.3910 C   0  0  0  0  0  0  0  0  0  0  0  0
   43.5080   25.6750   35.5260 C   0  0  0  0  0  0  0  0  0  0  0  0
   42.4080   25.0400   34.9540 C   0  0  0  0  0  0  0  0  0  0  0  0
   41.6190   25.9030   34.0360 C   0  0  0  0  0  0  0  0  0  0  0  0
   40.9640   25.0840   32.9310 C   0  0  0  0  0  0  0  0  0  0  0  0
   42.2160   27.1930   33.6310 C   0  0  0  0  0  0  0  0  0  0  0  0
   40.3250   26.3690   34.8190 C   0  0  0  0  0  0  0  0  0  0  0  0
   39.0640   23.2930   38.6840 C   0  0  0  0  0  0  0  0  0  0  0  0
   39.5990   22.8520   37.4820 C   0  0  0  0  0  0  0  0  0  0  0  0
   39.1430   23.3400   36.2560 C   0  0  0  0  0  0  0  0  0  0  0  0
   38.1470   24.2700   36.2980 N   0  0  0  0  0  0  0  0  0  0  0  0
   37.6390   24.6860   37.4870 C   0  0  0  0  0  0  0  0  0  0  0  0
   38.0920   24.2030   38.6660 N   0  0  0  0  0  0  0  0  0  0  0  0
   37.9872   21.7520   34.1487 H   0  0  0  0  0  0  0  0  0  0  0  0
   42.0900   22.2731   32.9716 H   0  0  0  0  0  0  0  0  0  0  0  0
   42.8149   21.9833   36.3725 H   0  0  0  0  0  0  0  0  0  0  0  0
   44.7546   23.1156   37.3798 H   0  0  0  0  0  0  0  0  0  0  0  0
   45.2131   25.5018   36.8370 H   0  0  0  0  0  0  0  0  0  0  0  0
   43.7125   26.7295   35.2888 H   0  0  0  0  0  0  0  0  0  0  0  0
   40.3365   24.2994   33.3790 H   0  0  0  0  0  0  0  0  0  0  0  0
   40.3399   25.7416   32.3081 H   0  0  0  0  0  0  0  0  0  0  0  0
   41.7427   24.6197   32.3081 H   0  0  0  0  0  0  0  0  0  0  0  0
   42.4835   27.7709   34.5279 H   0  0  0  0  0  0  0  0  0  0  0  0
   43.1195   27.0069   33.0318 H   0  0  0  0  0  0  0  0  0  0  0  0
   41.4893   27.7613   33.0318 H   0  0  0  0  0  0  0  0  0  0  0  0
   40.5080   26.3031   35.9017 H   0  0  0  0  0  0  0  0  0  0  0  0
   40.0881   27.4089   34.5498 H   0  0  0  0  0  0  0  0  0  0  0  0
   39.4795   25.7189   34.5498 H   0  0  0  0  0  0  0  0  0  0  0  0
   39.4380   22.8960   39.6393 H   0  0  0  0  0  0  0  0  0  0  0  0
   40.4016   22.0999   37.4954 H   0  0  0  0  0  0  0  0  0  0  0  0
   36.8358   25.4376   37.4910 H   0  0  0  0  0  0  0  0  0  0  0  0
  1 18  1  0
  2  1  2  0
  3  4  2  0
  3  2  1  0
  4  5  1  0
  5  1  1  0
  5  6  1  0
  6  7  2  0
  7  8  1  0
  9  8  2  0
 10  9  1  0
 11  6  1  0
 11 10  2  0
 12 15  1  0
 12 11  1  0
 13 12  1  0
 14 12  1  0
 17 16  2  0
 18 19  2  0
 18 17  1  0
 19 20  1  0
 20 21  2  0
 21 16  1  0
  2 22  1  0
  4 23  1  0
  7 24  1  0
  8 25  1  0
  9 26  1  0
 10 27  1  0
 13 28  1  0
 13 29  1  0
 13 30  1  0
 14 31  1  0
 14 32  1  0
 14 33  1  0
 15 34  1  0
 15 35  1  0
 15 36  1  0
 16 37  1  0
 17 38  1  0
 20 39  1  0
M  ISO  8  22  14  23  14  24  14  25  14  26  14  27  14  28   8  29   8
M  ISO  8  30   8  31   8  32   8  33   8  34   8  35   8  36   8  37  14
M  ISO  2  38  14  39  14
M  END
>  <minimizedAffinity>  (1) 
-4.7021451

>  <minimizedRMSD>  (1) 
2.20324278

$$$$
