
     RDKit          3D

 41 44  0  0  0  0  0  0  0  0999 V2000
   41.9780   23.7320   35.1440 C   0  0  0  0  0  0  0  0  0  0  0  0
   42.6910   22.7220   35.7910 C   0  0  0  0  0  0  0  0  0  0  0  0
   43.8840   22.9470   36.4510 C   0  0  0  0  0  0  0  0  0  0  0  0
   44.4250   24.2210   36.4940 C   0  0  0  0  0  0  0  0  0  0  0  0
   43.7650   25.2500   35.8750 C   0  0  0  0  0  0  0  0  0  0  0  0
   42.5860   24.9820   35.2310 C   0  0  0  0  0  0  0  0  0  0  0  0
   39.4900   23.5150   34.8900 C   0  0  0  0  0  0  0  0  0  0  0  0
   38.6240   23.2020   33.8180 C   0  0  0  0  0  0  0  0  0  0  0  0
   39.4610   22.9970   32.7510 N   0  0  0  0  0  0  0  0  0  0  0  0
   40.7320   23.1830   33.1940 C   0  0  0  0  0  0  0  0  0  0  0  0
   40.7590   23.4930   34.4700 N   0  0  0  0  0  0  0  0  0  0  0  0
   38.9430   23.2010   38.5540 C   0  0  0  0  0  0  0  0  0  0  0  0
   39.3860   22.9510   37.2540 C   0  0  0  0  0  0  0  0  0  0  0  0
   39.0140   23.8050   36.2220 C   0  0  0  0  0  0  0  0  0  0  0  0
   38.2020   24.8950   36.5270 N   0  0  0  0  0  0  0  0  0  0  0  0
   37.7970   25.0990   37.7990 C   0  0  0  0  0  0  0  0  0  0  0  0
   38.1590   24.2660   38.8080 N   0  0  0  0  0  0  0  0  0  0  0  0
   41.9380   26.0980   34.6010 N   0  0  0  0  0  0  0  0  0  0  0  0
   42.6170   26.8820   33.5570 C   0  0  0  0  0  0  0  0  0  0  0  0
   42.0190   26.5120   32.1920 C   0  0  0  0  0  0  0  0  0  0  0  0
   40.6530   26.0740   32.4770 N   0  0  0  0  0  0  0  0  0  0  0  0
   40.1160   27.0450   33.3930 C   0  0  0  0  0  0  0  0  0  0  0  0
   40.6180   26.6940   34.7800 C   0  0  0  0  0  0  0  0  0  0  0  0
   42.2848   21.6999   35.7749 H   0  0  0  0  0  0  0  0  0  0  0  0
   44.4049   22.1125   36.9432 H   0  0  0  0  0  0  0  0  0  0  0  0
   45.3739   24.4049   37.0192 H   0  0  0  0  0  0  0  0  0  0  0  0
   44.1738   26.2710   35.8948 H   0  0  0  0  0  0  0  0  0  0  0  0
   37.5260   23.1374   33.8354 H   0  0  0  0  0  0  0  0  0  0  0  0
   41.6273   23.0860   32.5623 H   0  0  0  0  0  0  0  0  0  0  0  0
   39.2349   22.5267   39.3726 H   0  0  0  0  0  0  0  0  0  0  0  0
   40.0271   22.0814   37.0469 H   0  0  0  0  0  0  0  0  0  0  0  0
   37.1560   25.9642   38.0238 H   0  0  0  0  0  0  0  0  0  0  0  0
   42.4697   27.9555   33.7463 H   0  0  0  0  0  0  0  0  0  0  0  0
   43.6945   26.6608   33.5651 H   0  0  0  0  0  0  0  0  0  0  0  0
   42.5953   25.6991   31.7261 H   0  0  0  0  0  0  0  0  0  0  0  0
   42.0409   27.3591   31.4906 H   0  0  0  0  0  0  0  0  0  0  0  0
   40.0955   26.0502   31.6113 H   0  0  0  0  0  0  0  0  0  0  0  0
   40.4579   28.0527   33.1143 H   0  0  0  0  0  0  0  0  0  0  0  0
   39.0164   27.0344   33.3662 H   0  0  0  0  0  0  0  0  0  0  0  0
   39.9378   25.9752   35.2603 H   0  0  0  0  0  0  0  0  0  0  0  0
   40.6661   27.5843   35.4242 H   0  0  0  0  0  0  0  0  0  0  0  0
  1  6  1  0
  1  2  2  0
  2  3  1  0
  3  4  2  0
  5  4  1  0
  6  5  2  0
  7 14  1  0
  8  7  2  0
  9 10  2  0
  9  8  1  0
 10 11  1  0
 11  7  1  0
 11  1  1  0
 12 17  2  0
 13 12  1  0
 14 15  1  0
 14 13  2  0
 15 16  2  0
 16 17  1  0
 18 23  1  0
 18  6  1  0
 19 18  1  0
 20 21  1  0
 20 19  1  0
 21 22  1  0
 22 23  1  0
  2 24  1  0
  3 25  1  0
  4 26  1  0
  5 27  1  0
  8 28  1  0
 10 29  1  0
 12 30  1  0
 13 31  1  0
 16 32  1  0
 19 33  1  0
 19 34  1  0
 20 35  1  0
 20 36  1  0
 21 37  1  0
 22 38  1  0
 22 39  1  0
 23 40  1  0
 23 41  1  0
M  ISO  8  24  14  25  14  26  14  27  14  28  14  29  14  30  14  31  14
M  ISO  8  32  14  33  13  34  13  35  13  36  13  37   5  38  13  39  13
M  ISO  2  40  13  41  13
M  END
>  <minimizedAffinity>  (1) 
-4.61678028

>  <minimizedRMSD>  (1) 
2.11547899

$$$$
