
     RDKit          3D

 34 37  0  0  0  0  0  0  0  0999 V2000
   39.7370   22.7590   35.1120 C   0  0  0  0  0  0  0  0  0  0  0  0
   38.9850   21.9800   34.1980 C   0  0  0  0  0  0  0  0  0  0  0  0
   39.8940   21.6270   33.2350 N   0  0  0  0  0  0  0  0  0  0  0  0
   41.0870   22.1670   33.5760 C   0  0  0  0  0  0  0  0  0  0  0  0
   41.0200   22.8490   34.6950 N   0  0  0  0  0  0  0  0  0  0  0  0
   42.1330   23.5060   35.2570 C   0  0  0  0  0  0  0  0  0  0  0  0
   43.0600   22.8840   36.0910 C   0  0  0  0  0  0  0  0  0  0  0  0
   44.1480   23.5170   36.6460 C   0  0  0  0  0  0  0  0  0  0  0  0
   44.3550   24.8600   36.3690 C   0  0  0  0  0  0  0  0  0  0  0  0
   43.4770   25.5360   35.5500 C   0  0  0  0  0  0  0  0  0  0  0  0
   42.4060   24.8550   35.0240 C   0  0  0  0  0  0  0  0  0  0  0  0
   41.5410   25.6170   34.1890 N   0  0  0  0  0  0  0  0  0  0  0  0
   40.6350   26.4570   34.7520 C   0  0  0  0  0  0  0  0  0  0  0  0
   39.9100   27.0860   33.7560 C   0  0  0  0  0  0  0  0  0  0  0  0
   40.3990   26.6060   32.5780 N   0  0  0  0  0  0  0  0  0  0  0  0
   41.3810   25.7210   32.8420 C   0  0  0  0  0  0  0  0  0  0  0  0
   38.9460   23.3580   38.6970 C   0  0  0  0  0  0  0  0  0  0  0  0
   39.4990   22.8100   37.5340 C   0  0  0  0  0  0  0  0  0  0  0  0
   39.1540   23.3410   36.2990 C   0  0  0  0  0  0  0  0  0  0  0  0
   38.2700   24.3980   36.2790 N   0  0  0  0  0  0  0  0  0  0  0  0
   37.7510   24.9090   37.4070 C   0  0  0  0  0  0  0  0  0  0  0  0
   38.0910   24.3870   38.6130 N   0  0  0  0  0  0  0  0  0  0  0  0
   37.9177   21.7188   34.2495 H   0  0  0  0  0  0  0  0  0  0  0  0
   42.0063   22.0480   32.9838 H   0  0  0  0  0  0  0  0  0  0  0  0
   42.9123   21.8184   36.3203 H   0  0  0  0  0  0  0  0  0  0  0  0
   44.8421   22.9671   37.2985 H   0  0  0  0  0  0  0  0  0  0  0  0
   45.2190   25.3849   36.8025 H   0  0  0  0  0  0  0  0  0  0  0  0
   43.6307   26.6010   35.3216 H   0  0  0  0  0  0  0  0  0  0  0  0
   40.4987   26.6131   35.8323 H   0  0  0  0  0  0  0  0  0  0  0  0
   39.1039   27.8227   33.8878 H   0  0  0  0  0  0  0  0  0  0  0  0
   41.9614   25.1699   32.0874 H   0  0  0  0  0  0  0  0  0  0  0  0
   39.2131   22.9441   39.6805 H   0  0  0  0  0  0  0  0  0  0  0  0
   40.2011   21.9656   37.5982 H   0  0  0  0  0  0  0  0  0  0  0  0
   37.0480   25.7534   37.3536 H   0  0  0  0  0  0  0  0  0  0  0  0
  1 19  1  0
  2  1  2  0
  3  4  2  0
  3  2  1  0
  4  5  1  0
  5  1  1  0
  5  6  1  0
  6  7  2  0
  7  8  1  0
  9  8  2  0
 10  9  1  0
 11  6  1  0
 11 10  2  0
 12 13  1  0
 12 11  1  0
 14 13  2  0
 15 16  2  0
 15 14  1  0
 16 12  1  0
 18 17  2  0
 19 18  1  0
 20 19  2  0
 20 21  1  0
 21 22  2  0
 22 17  1  0
  2 23  1  0
  4 24  1  0
  7 25  1  0
  8 26  1  0
  9 27  1  0
 10 28  1  0
 13 29  1  0
 14 30  1  0
 16 31  1  0
 17 32  1  0
 18 33  1  0
 21 34  1  0
M  ISO  8  23  14  24  14  25  14  26  14  27  14  28  14  29  14  30  14
M  ISO  4  31  14  32  14  33  14  34  14
M  END
>  <minimizedAffinity>  (1) 
-4.58930445

>  <minimizedRMSD>  (1) 
2.39757013

$$$$
