
     RDKit          3D

 34 37  0  0  0  0  0  0  0  0999 V2000
   39.5040   24.0860   33.3630 C   0  0  0  0  0  0  0  0  0  0  0  0
   40.1130   24.8540   32.3580 C   0  0  0  0  0  0  0  0  0  0  0  0
   40.7840   25.8410   33.0290 N   0  0  0  0  0  0  0  0  0  0  0  0
   40.5720   25.6490   34.3490 C   0  0  0  0  0  0  0  0  0  0  0  0
   39.8010   24.5980   34.5800 N   0  0  0  0  0  0  0  0  0  0  0  0
   39.4330   24.1810   35.8880 C   0  0  0  0  0  0  0  0  0  0  0  0
   38.3110   24.7000   36.5550 C   0  0  0  0  0  0  0  0  0  0  0  0
   37.9210   24.2770   37.7970 C   0  0  0  0  0  0  0  0  0  0  0  0
   38.6380   23.3090   38.4340 C   0  0  0  0  0  0  0  0  0  0  0  0
   39.7400   22.7690   37.8340 C   0  0  0  0  0  0  0  0  0  0  0  0
   40.1550   23.1890   36.5710 C   0  0  0  0  0  0  0  0  0  0  0  0
   41.4100   22.6430   36.1200 C   0  0  0  0  0  0  0  0  0  0  0  0
   41.7970   21.5990   35.4150 C   0  0  0  0  0  0  0  0  0  0  0  0
   43.1040   21.4030   35.0980 C   0  0  0  0  0  0  0  0  0  0  0  0
   44.0450   22.3350   35.5350 C   0  0  0  0  0  0  0  0  0  0  0  0
   43.0360   23.5420   36.4320 S   0  0  0  0  0  0  0  0  0  0  0  0
   38.6450   20.5870   32.4060 C   0  0  0  0  0  0  0  0  0  0  0  0
   39.3570   21.7510   32.6830 C   0  0  0  0  0  0  0  0  0  0  0  0
   38.7090   22.9200   33.0820 C   0  0  0  0  0  0  0  0  0  0  0  0
   37.3420   22.8690   33.1890 N   0  0  0  0  0  0  0  0  0  0  0  0
   36.6790   21.7190   32.9120 C   0  0  0  0  0  0  0  0  0  0  0  0
   37.3200   20.5960   32.5260 N   0  0  0  0  0  0  0  0  0  0  0  0
   40.0623   24.6973   31.2704 H   0  0  0  0  0  0  0  0  0  0  0  0
   40.9905   26.2902   35.1388 H   0  0  0  0  0  0  0  0  0  0  0  0
   37.7190   25.4818   36.0567 H   0  0  0  0  0  0  0  0  0  0  0  0
   37.0343   24.7157   38.2779 H   0  0  0  0  0  0  0  0  0  0  0  0
   38.3294   22.9624   39.4313 H   0  0  0  0  0  0  0  0  0  0  0  0
   40.3109   21.9878   38.3573 H   0  0  0  0  0  0  0  0  0  0  0  0
   41.0459   20.8704   35.0758 H   0  0  0  0  0  0  0  0  0  0  0  0
   43.4133   20.5271   34.5088 H   0  0  0  0  0  0  0  0  0  0  0  0
   45.1332   22.3366   35.3742 H   0  0  0  0  0  0  0  0  0  0  0  0
   39.1705   19.6729   32.0924 H   0  0  0  0  0  0  0  0  0  0  0  0
   40.4526   21.7487   32.5852 H   0  0  0  0  0  0  0  0  0  0  0  0
   35.5831   21.7010   33.0050 H   0  0  0  0  0  0  0  0  0  0  0  0
  1  5  1  0
  2  3  1  0
  2  1  2  0
  3  4  2  0
  4  5  1  0
  5  6  1  0
  6  7  2  0
  6 11  1  0
  7  8  1  0
  8  9  2  0
 10  9  1  0
 11 10  2  0
 12 16  1  0
 12 11  1  0
 13 12  2  0
 14 13  1  0
 14 15  2  0
 15 16  1  0
 17 22  2  0
 17 18  1  0
 18 19  2  0
 19 20  1  0
 19  1  1  0
 21 20  2  0
 22 21  1  0
  2 23  1  0
  4 24  1  0
  7 25  1  0
  8 26  1  0
  9 27  1  0
 10 28  1  0
 13 29  1  0
 14 30  1  0
 15 31  1  0
 17 32  1  0
 18 33  1  0
 21 34  1  0
M  ISO  8  23  14  24  14  25  14  26  14  27  14  28  14  29  14  30  14
M  ISO  4  31  14  32  14  33  14  34  14
M  END
>  <minimizedAffinity>  (1) 
-4.57544994

>  <minimizedRMSD>  (1) 
4.44239044

$$$$
