
     RDKit          3D

 29 31  0  0  0  0  0  0  0  0999 V2000
   39.7220   24.1410   33.8380 C   0  0  0  0  0  0  0  0  0  0  0  0
   39.1220   24.3130   32.5730 C   0  0  0  0  0  0  0  0  0  0  0  0
   40.1800   24.4840   31.7150 N   0  0  0  0  0  0  0  0  0  0  0  0
   41.3130   24.4100   32.4640 C   0  0  0  0  0  0  0  0  0  0  0  0
   41.0560   24.2060   33.7310 N   0  0  0  0  0  0  0  0  0  0  0  0
   42.0730   24.0940   34.7000 C   0  0  0  0  0  0  0  0  0  0  0  0
   42.5090   22.8590   35.2210 C   0  0  0  0  0  0  0  0  0  0  0  0
   43.5010   22.7540   36.1670 C   0  0  0  0  0  0  0  0  0  0  0  0
   44.1220   23.8770   36.6520 C   0  0  0  0  0  0  0  0  0  0  0  0
   43.7390   25.1040   36.1820 C   0  0  0  0  0  0  0  0  0  0  0  0
   42.7470   25.1840   35.2400 C   0  0  0  0  0  0  0  0  0  0  0  0
   42.4050   26.4900   34.7990 N   0  0  0  0  0  0  0  0  0  0  0  0
   37.5590   22.4610   36.3620 C   0  0  0  0  0  0  0  0  0  0  0  0
   38.3230   22.6890   35.2090 C   0  0  0  0  0  0  0  0  0  0  0  0
   38.9340   23.9270   35.0440 C   0  0  0  0  0  0  0  0  0  0  0  0
   38.7600   24.8770   36.0280 N   0  0  0  0  0  0  0  0  0  0  0  0
   38.0180   24.6140   37.1190 C   0  0  0  0  0  0  0  0  0  0  0  0
   37.4250   23.4160   37.2810 N   0  0  0  0  0  0  0  0  0  0  0  0
   38.0494   24.3106   32.3292 H   0  0  0  0  0  0  0  0  0  0  0  0
   42.3281   24.5101   32.0523 H   0  0  0  0  0  0  0  0  0  0  0  0
   42.0339   21.9373   34.8540 H   0  0  0  0  0  0  0  0  0  0  0  0
   43.7990   21.7622   36.5378 H   0  0  0  0  0  0  0  0  0  0  0  0
   44.9166   23.7925   37.4080 H   0  0  0  0  0  0  0  0  0  0  0  0
   44.2231   26.0178   36.5570 H   0  0  0  0  0  0  0  0  0  0  0  0
   42.8935   27.3092   35.1877 H   0  0  0  0  0  0  0  0  0  0  0  0
   41.6685   26.6179   34.0904 H   0  0  0  0  0  0  0  0  0  0  0  0
   37.0674   21.4880   36.5087 H   0  0  0  0  0  0  0  0  0  0  0  0
   38.4371   21.9026   34.4484 H   0  0  0  0  0  0  0  0  0  0  0  0
   37.8940   25.3889   37.8898 H   0  0  0  0  0  0  0  0  0  0  0  0
  1 15  1  0
  2  1  2  0
  3  4  2  0
  3  2  1  0
  4  5  1  0
  5  1  1  0
  5  6  1  0
  6  7  2  0
  6 11  1  0
  7  8  1  0
  8  9  2  0
 10  9  1  0
 11 10  2  0
 12 11  1  0
 13 18  2  0
 14 13  1  0
 15 14  2  0
 15 16  1  0
 16 17  2  0
 17 18  1  0
  2 19  1  0
  4 20  1  0
  7 21  1  0
  8 22  1  0
  9 23  1  0
 10 24  1  0
 12 25  1  0
 12 26  1  0
 13 27  1  0
 14 28  1  0
 17 29  1  0
M  ISO  8  19  14  20  14  21  14  22  14  23  14  24  14  27  14  28  14
M  ISO  1  29  14
M  END
>  <minimizedAffinity>  (1) 
-4.03756046

>  <minimizedRMSD>  (1) 
0.66904068

$$$$
