
     RDKit          3D

 41 44  0  0  0  0  0  0  0  0999 V2000
   38.2220   24.7490   34.1880 C   0  0  0  0  0  0  0  0  0  0  0  0
   37.3440   25.8400   34.0950 C   0  0  0  0  0  0  0  0  0  0  0  0
   37.4910   26.5110   35.2800 N   0  0  0  0  0  0  0  0  0  0  0  0
   38.4170   25.8180   36.0070 C   0  0  0  0  0  0  0  0  0  0  0  0
   38.8550   24.7700   35.3620 N   0  0  0  0  0  0  0  0  0  0  0  0
   39.6500   22.9340   31.2600 C   0  0  0  0  0  0  0  0  0  0  0  0
   39.4900   23.8630   32.3040 C   0  0  0  0  0  0  0  0  0  0  0  0
   38.3670   23.7720   33.1100 C   0  0  0  0  0  0  0  0  0  0  0  0
   37.4440   22.7670   32.8570 N   0  0  0  0  0  0  0  0  0  0  0  0
   37.6520   21.9100   31.8470 C   0  0  0  0  0  0  0  0  0  0  0  0
   38.7350   21.9920   31.0640 N   0  0  0  0  0  0  0  0  0  0  0  0
   36.7040   20.8810   31.5910 N   0  0  0  0  0  0  0  0  0  0  0  0
   35.2980   21.0080   31.2540 C   0  0  0  0  0  0  0  0  0  0  0  0
   34.7060   20.0890   32.3260 C   0  0  0  0  0  0  0  0  0  0  0  0
   35.6920   18.9290   32.3060 C   0  0  0  0  0  0  0  0  0  0  0  0
   36.9250   19.4510   31.6100 C   0  0  0  0  0  0  0  0  0  0  0  0
   39.8240   23.8990   35.9190 C   0  0  0  0  0  0  0  0  0  0  0  0
   41.1970   23.9860   35.6130 C   0  0  0  0  0  0  0  0  0  0  0  0
   42.1350   23.1390   36.1550 C   0  0  0  0  0  0  0  0  0  0  0  0
   41.7610   22.1520   37.0360 C   0  0  0  0  0  0  0  0  0  0  0  0
   40.4380   22.0240   37.3670 C   0  0  0  0  0  0  0  0  0  0  0  0
   39.5210   22.8790   36.8150 C   0  0  0  0  0  0  0  0  0  0  0  0
   38.1630   22.6920   37.2010 N   0  0  0  0  0  0  0  0  0  0  0  0
   36.6829   26.0993   33.2549 H   0  0  0  0  0  0  0  0  0  0  0  0
   38.7531   26.1075   37.0136 H   0  0  0  0  0  0  0  0  0  0  0  0
   40.5329   22.9879   30.6061 H   0  0  0  0  0  0  0  0  0  0  0  0
   40.2422   24.6467   32.4771 H   0  0  0  0  0  0  0  0  0  0  0  0
   34.9418   22.0436   31.3571 H   0  0  0  0  0  0  0  0  0  0  0  0
   35.0369   20.7515   30.2167 H   0  0  0  0  0  0  0  0  0  0  0  0
   34.6834   20.5808   33.3097 H   0  0  0  0  0  0  0  0  0  0  0  0
   33.6625   19.7951   32.1397 H   0  0  0  0  0  0  0  0  0  0  0  0
   35.9350   18.6148   33.3318 H   0  0  0  0  0  0  0  0  0  0  0  0
   35.2755   18.0518   31.7892 H   0  0  0  0  0  0  0  0  0  0  0  0
   37.0034   19.0490   30.5891 H   0  0  0  0  0  0  0  0  0  0  0  0
   37.8613   19.1626   32.1102 H   0  0  0  0  0  0  0  0  0  0  0  0
   41.5323   24.7639   34.9113 H   0  0  0  0  0  0  0  0  0  0  0  0
   43.1943   23.2522   35.8811 H   0  0  0  0  0  0  0  0  0  0  0  0
   42.5128   21.4754   37.4685 H   0  0  0  0  0  0  0  0  0  0  0  0
   40.1148   21.2418   38.0697 H   0  0  0  0  0  0  0  0  0  0  0  0
   37.9142   21.9433   37.8632 H   0  0  0  0  0  0  0  0  0  0  0  0
   37.4296   23.3055   36.8180 H   0  0  0  0  0  0  0  0  0  0  0  0
  1  5  1  0
  2  1  2  0
  2  3  1  0
  3  4  2  0
  5 17  1  0
  5  4  1  0
  6  7  2  0
  7  8  1  0
  8  1  1  0
  9  8  2  0
 10  9  1  0
 11  6  1  0
 11 10  2  0
 12 16  1  0
 12 10  1  0
 13 12  1  0
 13 14  1  0
 15 14  1  0
 16 15  1  0
 17 22  1  0
 18 17  2  0
 18 19  1  0
 19 20  2  0
 20 21  1  0
 22 23  1  0
 22 21  2  0
  2 24  1  0
  4 25  1  0
  6 26  1  0
  7 27  1  0
 13 28  1  0
 13 29  1  0
 14 30  1  0
 14 31  1  0
 15 32  1  0
 15 33  1  0
 16 34  1  0
 16 35  1  0
 18 36  1  0
 19 37  1  0
 20 38  1  0
 21 39  1  0
 23 40  1  0
 23 41  1  0
M  ISO  8  24  14  25  14  26  14  27  14  28  13  29  13  30  13  31  13
M  ISO  8  32  13  33  13  34  13  35  13  36  14  37  14  38  14  39  14
M  END
>  <minimizedAffinity>  (1) 
-5.50573826

>  <minimizedRMSD>  (1) 
5.88317633

$$$$
