
     RDKit          3D

 35 38  0  0  0  0  0  0  0  0999 V2000
   37.7890   25.9700   34.0030 C   0  0  0  0  0  0  0  0  0  0  0  0
   37.1520   27.2340   33.9620 C   0  0  0  0  0  0  0  0  0  0  0  0
   37.4900   27.8210   35.1510 N   0  0  0  0  0  0  0  0  0  0  0  0
   38.2700   26.9430   35.8250 C   0  0  0  0  0  0  0  0  0  0  0  0
   38.4580   25.8280   35.1480 N   0  0  0  0  0  0  0  0  0  0  0  0
   38.2160   24.4280   30.6350 C   0  0  0  0  0  0  0  0  0  0  0  0
   38.3020   25.3240   31.7090 C   0  0  0  0  0  0  0  0  0  0  0  0
   37.6790   25.0200   32.9120 C   0  0  0  0  0  0  0  0  0  0  0  0
   36.9840   23.8230   33.0040 N   0  0  0  0  0  0  0  0  0  0  0  0
   36.9310   22.9960   31.9420 C   0  0  0  0  0  0  0  0  0  0  0  0
   37.5310   23.2840   30.7780 N   0  0  0  0  0  0  0  0  0  0  0  0
   36.2190   21.7690   32.0400 N   0  0  0  0  0  0  0  0  0  0  0  0
   36.7270   20.8360   32.8770 C   0  0  0  0  0  0  0  0  0  0  0  0
   35.9390   19.7300   32.8590 N   0  0  0  0  0  0  0  0  0  0  0  0
   34.9280   20.0060   31.9910 C   0  0  0  0  0  0  0  0  0  0  0  0
   35.1060   21.2520   31.4940 N   0  0  0  0  0  0  0  0  0  0  0  0
   39.2350   24.7670   35.6460 C   0  0  0  0  0  0  0  0  0  0  0  0
   40.5780   24.5380   35.2500 C   0  0  0  0  0  0  0  0  0  0  0  0
   41.3290   23.4970   35.7430 C   0  0  0  0  0  0  0  0  0  0  0  0
   40.8040   22.6250   36.6500 C   0  0  0  0  0  0  0  0  0  0  0  0
   39.5110   22.8000   37.0670 C   0  0  0  0  0  0  0  0  0  0  0  0
   38.7820   23.8380   36.5670 C   0  0  0  0  0  0  0  0  0  0  0  0
   37.4490   23.9470   37.0530 N   0  0  0  0  0  0  0  0  0  0  0  0
   36.5275   27.6495   33.1574 H   0  0  0  0  0  0  0  0  0  0  0  0
   38.6964   27.1374   36.8202 H   0  0  0  0  0  0  0  0  0  0  0  0
   38.7079   24.6619   29.6793 H   0  0  0  0  0  0  0  0  0  0  0  0
   38.8611   26.2649   31.5994 H   0  0  0  0  0  0  0  0  0  0  0  0
   37.6391   20.9548   33.4802 H   0  0  0  0  0  0  0  0  0  0  0  0
   34.1011   19.3272   31.7351 H   0  0  0  0  0  0  0  0  0  0  0  0
   41.0368   25.2205   34.5194 H   0  0  0  0  0  0  0  0  0  0  0  0
   42.3664   23.3662   35.4013 H   0  0  0  0  0  0  0  0  0  0  0  0
   41.4093   21.7938   37.0409 H   0  0  0  0  0  0  0  0  0  0  0  0
   39.0651   22.1097   37.7982 H   0  0  0  0  0  0  0  0  0  0  0  0
   37.0935   23.2655   37.7386 H   0  0  0  0  0  0  0  0  0  0  0  0
   36.8397   24.7074   36.7192 H   0  0  0  0  0  0  0  0  0  0  0  0
  1  5  1  0
  2  1  2  0
  2  3  1  0
  3  4  2  0
  5 17  1  0
  5  4  1  0
  6 11  2  0
  6  7  1  0
  7  8  2  0
  8  9  1  0
  8  1  1  0
 10 12  1  0
 10  9  2  0
 11 10  1  0
 12 13  1  0
 14 13  2  0
 15 14  1  0
 16 15  2  0
 16 12  1  0
 17 22  1  0
 18 17  2  0
 18 19  1  0
 19 20  2  0
 20 21  1  0
 22 23  1  0
 22 21  2  0
  2 24  1  0
  4 25  1  0
  6 26  1  0
  7 27  1  0
 13 28  1  0
 15 29  1  0
 18 30  1  0
 19 31  1  0
 20 32  1  0
 21 33  1  0
 23 34  1  0
 23 35  1  0
M  ISO  8  24  14  25  14  26  14  27  14  28  14  29  14  30  14  31  14
M  ISO  2  32  14  33  14
M  END
>  <minimizedAffinity>  (1) 
-5.4410677

>  <minimizedRMSD>  (1) 
5.79226589

$$$$
