
     RDKit          3D

 42 45  0  0  0  0  0  0  0  0999 V2000
   37.7540   25.8180   34.7510 C   0  0  0  0  0  0  0  0  0  0  0  0
   37.4580   27.1330   35.1650 C   0  0  0  0  0  0  0  0  0  0  0  0
   36.9870   27.7450   34.0390 N   0  0  0  0  0  0  0  0  0  0  0  0
   37.0190   26.8230   33.0460 C   0  0  0  0  0  0  0  0  0  0  0  0
   37.4770   25.6590   33.4570 N   0  0  0  0  0  0  0  0  0  0  0  0
   37.6010   24.5470   32.6040 C   0  0  0  0  0  0  0  0  0  0  0  0
   36.5070   23.7450   32.2170 C   0  0  0  0  0  0  0  0  0  0  0  0
   36.6330   22.6660   31.3880 C   0  0  0  0  0  0  0  0  0  0  0  0
   37.8700   22.3100   30.8860 C   0  0  0  0  0  0  0  0  0  0  0  0
   38.9600   23.0520   31.2300 C   0  0  0  0  0  0  0  0  0  0  0  0
   38.8200   24.1290   32.0610 C   0  0  0  0  0  0  0  0  0  0  0  0
   39.9950   24.8520   32.3730 N   0  0  0  0  0  0  0  0  0  0  0  0
   38.0670   23.6110   37.7320 C   0  0  0  0  0  0  0  0  0  0  0  0
   37.5670   24.5610   36.8370 C   0  0  0  0  0  0  0  0  0  0  0  0
   38.2910   24.8220   35.6770 C   0  0  0  0  0  0  0  0  0  0  0  0
   39.4650   24.1310   35.4620 N   0  0  0  0  0  0  0  0  0  0  0  0
   39.9030   23.2220   36.3620 C   0  0  0  0  0  0  0  0  0  0  0  0
   39.2000   22.9750   37.4810 N   0  0  0  0  0  0  0  0  0  0  0  0
   41.1820   22.5420   36.0210 C   0  0  0  0  0  0  0  0  0  0  0  0
   42.3380   23.4840   36.2720 C   0  0  0  0  0  0  0  0  0  0  0  0
   43.5110   22.5290   36.1420 C   0  0  0  0  0  0  0  0  0  0  0  0
   43.0240   21.2650   36.8160 C   0  0  0  0  0  0  0  0  0  0  0  0
   41.5030   21.3550   36.8580 C   0  0  0  0  0  0  0  0  0  0  0  0
   37.5791   27.5675   36.1682 H   0  0  0  0  0  0  0  0  0  0  0  0
   36.6985   27.0245   32.0132 H   0  0  0  0  0  0  0  0  0  0  0  0
   35.5076   23.9996   32.5997 H   0  0  0  0  0  0  0  0  0  0  0  0
   35.7438   22.0771   31.1186 H   0  0  0  0  0  0  0  0  0  0  0  0
   37.9734   21.4413   30.2192 H   0  0  0  0  0  0  0  0  0  0  0  0
   39.9528   22.7845   30.8391 H   0  0  0  0  0  0  0  0  0  0  0  0
   39.9455   25.6718   32.9945 H   0  0  0  0  0  0  0  0  0  0  0  0
   40.9002   24.5586   31.9787 H   0  0  0  0  0  0  0  0  0  0  0  0
   37.5123   23.3894   38.6557 H   0  0  0  0  0  0  0  0  0  0  0  0
   36.6247   25.0894   37.0441 H   0  0  0  0  0  0  0  0  0  0  0  0
   41.0499   22.2337   34.9734 H   0  0  0  0  0  0  0  0  0  0  0  0
   42.3806   24.2836   35.5178 H   0  0  0  0  0  0  0  0  0  0  0  0
   42.2900   24.0211   37.2308 H   0  0  0  0  0  0  0  0  0  0  0  0
   43.7490   22.3424   35.0844 H   0  0  0  0  0  0  0  0  0  0  0  0
   44.4330   22.9238   36.5938 H   0  0  0  0  0  0  0  0  0  0  0  0
   43.3366   20.3821   36.2391 H   0  0  0  0  0  0  0  0  0  0  0  0
   43.4446   21.1664   37.8276 H   0  0  0  0  0  0  0  0  0  0  0  0
   41.1495   21.4985   37.8897 H   0  0  0  0  0  0  0  0  0  0  0  0
   41.0174   20.4385   36.4915 H   0  0  0  0  0  0  0  0  0  0  0  0
  1  2  2  0
  1 15  1  0
  3  2  1  0
  4  5  1  0
  4  3  2  0
  5  1  1  0
  6  5  1  0
  7  6  2  0
  8  7  1  0
  9 10  1  0
  9  8  2  0
 10 11  2  0
 11 12  1  0
 11  6  1  0
 14 13  2  0
 15 14  1  0
 16 15  2  0
 16 17  1  0
 17 18  2  0
 18 13  1  0
 19 20  1  0
 19 17  1  0
 19 23  1  0
 21 20  1  0
 21 22  1  0
 22 23  1  0
  2 24  1  0
  4 25  1  0
  7 26  1  0
  8 27  1  0
  9 28  1  0
 10 29  1  0
 12 30  1  0
 12 31  1  0
 13 32  1  0
 14 33  1  0
 19 34  1  0
 20 35  1  0
 20 36  1  0
 21 37  1  0
 21 38  1  0
 22 39  1  0
 22 40  1  0
 23 41  1  0
 23 42  1  0
M  ISO  8  24  14  25  14  26  14  27  14  28  14  29  14  32  14  33  14
M  ISO  8  34  13  35  13  36  13  37  13  38  13  39  13  40  13  41  13
M  ISO  1  42  13
M  END
>  <minimizedAffinity>  (1) 
-5.22694349

>  <minimizedRMSD>  (1) 
5.45624161

$$$$
