
     RDKit          3D

 39 42  0  0  0  0  0  0  0  0999 V2000
   38.8140   22.9860   32.7160 C   0  0  0  0  0  0  0  0  0  0  0  0
   39.6640   22.2740   31.8550 C   0  0  0  0  0  0  0  0  0  0  0  0
   40.5890   21.7160   32.6840 N   0  0  0  0  0  0  0  0  0  0  0  0
   40.2810   22.0890   33.9540 C   0  0  0  0  0  0  0  0  0  0  0  0
   39.2160   22.8530   33.9890 N   0  0  0  0  0  0  0  0  0  0  0  0
   38.7010   23.3670   35.1960 C   0  0  0  0  0  0  0  0  0  0  0  0
   38.0030   22.5620   36.1310 C   0  0  0  0  0  0  0  0  0  0  0  0
   37.5010   23.0600   37.3060 C   0  0  0  0  0  0  0  0  0  0  0  0
   37.6620   24.3890   37.6250 C   0  0  0  0  0  0  0  0  0  0  0  0
   38.3240   25.2030   36.7610 C   0  0  0  0  0  0  0  0  0  0  0  0
   38.8180   24.6850   35.5900 C   0  0  0  0  0  0  0  0  0  0  0  0
   39.4970   25.5900   34.7370 N   0  0  0  0  0  0  0  0  0  0  0  0
   35.3940   23.7520   31.4490 C   0  0  0  0  0  0  0  0  0  0  0  0
   36.5100   23.0410   31.9170 C   0  0  0  0  0  0  0  0  0  0  0  0
   37.6650   23.7480   32.2310 C   0  0  0  0  0  0  0  0  0  0  0  0
   37.6570   25.1160   32.0670 N   0  0  0  0  0  0  0  0  0  0  0  0
   36.5680   25.7560   31.6170 C   0  0  0  0  0  0  0  0  0  0  0  0
   35.4470   25.0720   31.3130 N   0  0  0  0  0  0  0  0  0  0  0  0
   36.5930   27.2050   31.4560 C   0  0  0  0  0  0  0  0  0  0  0  0
   37.4750   27.7920   30.5700 C   0  0  0  0  0  0  0  0  0  0  0  0
   37.5270   29.1590   30.3920 C   0  0  0  0  0  0  0  0  0  0  0  0
   36.6500   29.9430   31.1430 C   0  0  0  0  0  0  0  0  0  0  0  0
   35.7580   29.3650   32.0360 C   0  0  0  0  0  0  0  0  0  0  0  0
   35.7380   28.0020   32.1850 C   0  0  0  0  0  0  0  0  0  0  0  0
   39.5979   22.1868   30.7605 H   0  0  0  0  0  0  0  0  0  0  0  0
   40.8544   21.7872   34.8429 H   0  0  0  0  0  0  0  0  0  0  0  0
   37.8582   21.4952   35.9050 H   0  0  0  0  0  0  0  0  0  0  0  0
   36.9662   22.3929   37.9980 H   0  0  0  0  0  0  0  0  0  0  0  0
   37.2597   24.7877   38.5680 H   0  0  0  0  0  0  0  0  0  0  0  0
   38.4627   26.2681   36.9983 H   0  0  0  0  0  0  0  0  0  0  0  0
   39.5969   26.5782   35.0096 H   0  0  0  0  0  0  0  0  0  0  0  0
   39.8907   25.2596   33.8444 H   0  0  0  0  0  0  0  0  0  0  0  0
   34.4700   23.2127   31.1934 H   0  0  0  0  0  0  0  0  0  0  0  0
   36.4715   21.9478   32.0328 H   0  0  0  0  0  0  0  0  0  0  0  0
   38.1553   27.1513   29.9898 H   0  0  0  0  0  0  0  0  0  0  0  0
   38.2344   29.6148   29.6835 H   0  0  0  0  0  0  0  0  0  0  0  0
   36.6658   31.0366   31.0254 H   0  0  0  0  0  0  0  0  0  0  0  0
   35.0720   29.9960   32.6201 H   0  0  0  0  0  0  0  0  0  0  0  0
   35.0332   27.5411   32.8927 H   0  0  0  0  0  0  0  0  0  0  0  0
  1  5  1  0
  2  3  1  0
  2  1  2  0
  3  4  2  0
  4  5  1  0
  5  6  1  0
  6 11  1  0
  6  7  2  0
  7  8  1  0
  8  9  2  0
 10  9  1  0
 11 10  2  0
 12 11  1  0
 13 14  2  0
 14 15  1  0
 15  1  1  0
 16 15  2  0
 17 16  1  0
 18 13  1  0
 18 17  2  0
 19 17  1  0
 19 24  1  0
 20 19  2  0
 21 20  1  0
 21 22  2  0
 22 23  1  0
 23 24  2  0
  2 25  1  0
  4 26  1  0
  7 27  1  0
  8 28  1  0
  9 29  1  0
 10 30  1  0
 12 31  1  0
 12 32  1  0
 13 33  1  0
 14 34  1  0
 20 35  1  0
 21 36  1  0
 22 37  1  0
 23 38  1  0
 24 39  1  0
M  ISO  8  25  14  26  14  27  14  28  14  29  14  30  14  33  14  34  14
M  ISO  5  35  14  36  14  37  14  38  14  39  14
M  END
>  <minimizedAffinity>  (1) 
-5.16776991

>  <minimizedRMSD>  (1) 
5.6197753

$$$$
