
     RDKit          3D

 32 34  0  0  0  0  0  0  0  0999 V2000
   39.6940   24.2930   33.6950 C   0  0  0  0  0  0  0  0  0  0  0  0
   39.1410   24.9760   32.5940 C   0  0  0  0  0  0  0  0  0  0  0  0
   40.2200   25.5340   31.9540 N   0  0  0  0  0  0  0  0  0  0  0  0
   41.3240   25.1840   32.6570 C   0  0  0  0  0  0  0  0  0  0  0  0
   41.0280   24.4410   33.7020 N   0  0  0  0  0  0  0  0  0  0  0  0
   42.0110   23.9560   34.5830 C   0  0  0  0  0  0  0  0  0  0  0  0
   42.2540   22.5700   34.7700 C   0  0  0  0  0  0  0  0  0  0  0  0
   43.2180   22.0940   35.6340 C   0  0  0  0  0  0  0  0  0  0  0  0
   43.9900   22.9630   36.3550 C   0  0  0  0  0  0  0  0  0  0  0  0
   43.7930   24.3130   36.2090 C   0  0  0  0  0  0  0  0  0  0  0  0
   42.8320   24.7690   35.3470 C   0  0  0  0  0  0  0  0  0  0  0  0
   42.6880   26.1720   35.2500 N   0  0  0  0  0  0  0  0  0  0  0  0
   37.2500   21.8270   35.0360 C   0  0  0  0  0  0  0  0  0  0  0  0
   38.0560   22.5570   34.1390 C   0  0  0  0  0  0  0  0  0  0  0  0
   38.8720   23.5540   34.6440 C   0  0  0  0  0  0  0  0  0  0  0  0
   38.8670   23.7970   36.0080 N   0  0  0  0  0  0  0  0  0  0  0  0
   38.0790   23.0690   36.8130 C   0  0  0  0  0  0  0  0  0  0  0  0
   37.2820   22.1010   36.3480 N   0  0  0  0  0  0  0  0  0  0  0  0
   38.1480   23.4030   38.2370 C   0  0  0  0  0  0  0  0  0  0  0  0
   38.0070   24.6080   38.5730 O   0  0  0  0  0  0  0  0  0  0  0  0
   38.3570   22.4960   39.2570 O   0  0  0  0  0  0  0  0  0  0  0  0
   38.0806   25.0466   32.3102 H   0  0  0  0  0  0  0  0  0  0  0  0
   42.3467   25.4852   32.3863 H   0  0  0  0  0  0  0  0  0  0  0  0
   41.6493   21.8467   34.2032 H   0  0  0  0  0  0  0  0  0  0  0  0
   43.3668   21.0097   35.7438 H   0  0  0  0  0  0  0  0  0  0  0  0
   44.7596   22.5841   37.0436 H   0  0  0  0  0  0  0  0  0  0  0  0
   44.4044   25.0257   36.7819 H   0  0  0  0  0  0  0  0  0  0  0  0
   43.2901   26.7915   35.8109 H   0  0  0  0  0  0  0  0  0  0  0  0
   41.9810   26.5747   34.6185 H   0  0  0  0  0  0  0  0  0  0  0  0
   36.5927   21.0300   34.6583 H   0  0  0  0  0  0  0  0  0  0  0  0
   38.0367   22.3388   33.0610 H   0  0  0  0  0  0  0  0  0  0  0  0
   38.3900   22.8065   40.1965 H   0  0  0  0  0  0  0  0  0  0  0  0
  1  5  1  0
  1 15  1  0
  2  1  2  0
  3  2  1  0
  3  4  2  0
  4  5  1  0
  5  6  1  0
  6  7  2  0
  6 11  1  0
  7  8  1  0
  8  9  2  0
 10  9  1  0
 11 10  2  0
 12 11  1  0
 13 18  2  0
 14 15  2  0
 14 13  1  0
 15 16  1  0
 16 17  2  0
 17 19  1  0
 18 17  1  0
 19 20  2  0
 19 21  1  0
  2 22  1  0
  4 23  1  0
  7 24  1  0
  8 25  1  0
  9 26  1  0
 10 27  1  0
 12 28  1  0
 12 29  1  0
 13 30  1  0
 14 31  1  0
 21 32  1  0
M  ISO  8  22  14  23  14  24  14  25  14  26  14  27  14  30  14  31  14
M  ISO  1  32   3
M  END
>  <minimizedAffinity>  (1) 
-4.82946301

>  <minimizedRMSD>  (1) 
1.32062519

$$$$
