
     RDKit          3D

 30 32  0  0  0  0  0  0  0  0999 V2000
   39.5080   24.3890   34.0660 C   0  0  0  0  0  0  0  0  0  0  0  0
   38.8550   24.7620   32.8710 C   0  0  0  0  0  0  0  0  0  0  0  0
   39.8730   25.1160   32.0260 N   0  0  0  0  0  0  0  0  0  0  0  0
   41.0440   24.9560   32.7010 C   0  0  0  0  0  0  0  0  0  0  0  0
   40.8370   24.5220   33.9190 N   0  0  0  0  0  0  0  0  0  0  0  0
   41.8960   24.2790   34.8140 C   0  0  0  0  0  0  0  0  0  0  0  0
   42.1850   23.0000   35.3440 C   0  0  0  0  0  0  0  0  0  0  0  0
   43.2140   22.7680   36.2140 C   0  0  0  0  0  0  0  0  0  0  0  0
   44.0310   23.8020   36.6170 C   0  0  0  0  0  0  0  0  0  0  0  0
   43.8030   25.0630   36.1390 C   0  0  0  0  0  0  0  0  0  0  0  0
   42.7710   25.2680   35.2740 C   0  0  0  0  0  0  0  0  0  0  0  0
   42.5870   26.5990   34.8140 N   0  0  0  0  0  0  0  0  0  0  0  0
   37.3700   22.2820   36.2570 C   0  0  0  0  0  0  0  0  0  0  0  0
   38.0810   22.7470   35.1530 C   0  0  0  0  0  0  0  0  0  0  0  0
   38.7810   23.9400   35.2360 C   0  0  0  0  0  0  0  0  0  0  0  0
   38.7390   24.6150   36.4270 N   0  0  0  0  0  0  0  0  0  0  0  0
   38.0480   24.1490   37.4780 C   0  0  0  0  0  0  0  0  0  0  0  0
   37.3680   22.9860   37.3860 N   0  0  0  0  0  0  0  0  0  0  0  0
   38.0100   24.8400   38.6820 O   0  0  0  0  0  0  0  0  0  0  0  0
   37.7744   24.7671   32.6654 H   0  0  0  0  0  0  0  0  0  0  0  0
   42.0375   25.1646   32.2774 H   0  0  0  0  0  0  0  0  0  0  0  0
   41.5524   22.1522   35.0422 H   0  0  0  0  0  0  0  0  0  0  0  0
   43.3905   21.7510   36.5941 H   0  0  0  0  0  0  0  0  0  0  0  0
   44.8589   23.6149   37.3167 H   0  0  0  0  0  0  0  0  0  0  0  0
   44.4448   25.9008   36.4491 H   0  0  0  0  0  0  0  0  0  0  0  0
   43.2171   27.3472   35.1367 H   0  0  0  0  0  0  0  0  0  0  0  0
   41.8235   26.8161   34.1576 H   0  0  0  0  0  0  0  0  0  0  0  0
   36.8121   21.3360   36.1956 H   0  0  0  0  0  0  0  0  0  0  0  0
   38.0867   22.1684   34.2175 H   0  0  0  0  0  0  0  0  0  0  0  0
   37.4935   24.4774   39.4448 H   0  0  0  0  0  0  0  0  0  0  0  0
  1 15  1  0
  2  1  2  0
  3  4  2  0
  3  2  1  0
  4  5  1  0
  5  1  1  0
  5  6  1  0
  6 11  1  0
  6  7  2  0
  7  8  1  0
  8  9  2  0
 10  9  1  0
 11 10  2  0
 12 11  1  0
 13 18  2  0
 14 15  2  0
 14 13  1  0
 15 16  1  0
 16 17  2  0
 17 19  1  0
 18 17  1  0
  2 20  1  0
  4 21  1  0
  7 22  1  0
  8 23  1  0
  9 24  1  0
 10 25  1  0
 12 26  1  0
 12 27  1  0
 13 28  1  0
 14 29  1  0
 19 30  1  0
M  ISO  8  20  14  21  14  22  14  23  14  24  14  25  14  28  14  29  14
M  ISO  1  30   3
M  END
>  <minimizedAffinity>  (1) 
-4.55278921

>  <minimizedRMSD>  (1) 
0.457725883

$$$$
