
     RDKit          3D

 35 37  0  0  0  0  0  0  0  0999 V2000
   39.3910   23.6810   34.1070 C   0  0  0  0  0  0  0  0  0  0  0  0
   40.5630   23.0740   34.5900 C   0  0  0  0  0  0  0  0  0  0  0  0
   41.3070   24.1190   35.0750 N   0  0  0  0  0  0  0  0  0  0  0  0
   40.5900   25.2540   34.8750 C   0  0  0  0  0  0  0  0  0  0  0  0
   39.4380   25.0120   34.2970 N   0  0  0  0  0  0  0  0  0  0  0  0
   38.5110   26.0350   33.9830 C   0  0  0  0  0  0  0  0  0  0  0  0
   37.5480   26.5050   34.8940 C   0  0  0  0  0  0  0  0  0  0  0  0
   36.6480   27.4970   34.5870 C   0  0  0  0  0  0  0  0  0  0  0  0
   36.6600   28.0800   33.3470 C   0  0  0  0  0  0  0  0  0  0  0  0
   37.5760   27.6620   32.4210 C   0  0  0  0  0  0  0  0  0  0  0  0
   38.4640   26.6710   32.7480 C   0  0  0  0  0  0  0  0  0  0  0  0
   39.3910   26.2830   31.7370 N   0  0  0  0  0  0  0  0  0  0  0  0
   37.1090   22.2960   31.5160 C   0  0  0  0  0  0  0  0  0  0  0  0
   38.1320   23.0180   32.1320 C   0  0  0  0  0  0  0  0  0  0  0  0
   38.3100   22.9110   33.4960 C   0  0  0  0  0  0  0  0  0  0  0  0
   37.4570   22.0840   34.2000 N   0  0  0  0  0  0  0  0  0  0  0  0
   36.4880   21.4100   33.5720 C   0  0  0  0  0  0  0  0  0  0  0  0
   36.3070   21.5090   32.2360 N   0  0  0  0  0  0  0  0  0  0  0  0
   35.6020   20.5300   34.4180 C   0  0  0  0  0  0  0  0  0  0  0  0
   35.8180   20.9460   35.8600 C   0  0  0  0  0  0  0  0  0  0  0  0
   40.8238   22.0054   34.5811 H   0  0  0  0  0  0  0  0  0  0  0  0
   40.9345   26.2580   35.1636 H   0  0  0  0  0  0  0  0  0  0  0  0
   37.5137   26.0579   35.8985 H   0  0  0  0  0  0  0  0  0  0  0  0
   35.9153   27.8242   35.3394 H   0  0  0  0  0  0  0  0  0  0  0  0
   35.9413   28.8750   33.0990 H   0  0  0  0  0  0  0  0  0  0  0  0
   37.5996   28.1184   31.4204 H   0  0  0  0  0  0  0  0  0  0  0  0
   40.0814   25.5428   31.9279 H   0  0  0  0  0  0  0  0  0  0  0  0
   39.3705   26.7428   30.8156 H   0  0  0  0  0  0  0  0  0  0  0  0
   36.9625   22.3762   30.4287 H   0  0  0  0  0  0  0  0  0  0  0  0
   38.7905   23.6665   31.5355 H   0  0  0  0  0  0  0  0  0  0  0  0
   34.5481   20.6721   34.1369 H   0  0  0  0  0  0  0  0  0  0  0  0
   35.8477   19.4676   34.2731 H   0  0  0  0  0  0  0  0  0  0  0  0
   35.4157   20.1713   36.5293 H   0  0  0  0  0  0  0  0  0  0  0  0
   36.8946   21.0704   36.0484 H   0  0  0  0  0  0  0  0  0  0  0  0
   35.3004   21.8981   36.0484 H   0  0  0  0  0  0  0  0  0  0  0  0
  1  5  1  0
  1  2  2  0
  2  3  1  0
  4  3  2  0
  5  4  1  0
  6  5  1  0
  6  7  2  0
  8  7  1  0
  9  8  2  0
 10 11  2  0
 10  9  1  0
 11  6  1  0
 12 11  1  0
 13 14  2  0
 13 18  1  0
 14 15  1  0
 15  1  1  0
 15 16  2  0
 17 16  1  0
 17 19  1  0
 18 17  2  0
 19 20  1  0
  2 21  1  0
  4 22  1  0
  7 23  1  0
  8 24  1  0
  9 25  1  0
 10 26  1  0
 12 27  1  0
 12 28  1  0
 13 29  1  0
 14 30  1  0
 19 31  1  0
 19 32  1  0
 20 33  1  0
 20 34  1  0
 20 35  1  0
M  ISO  8  21  14  22  14  23  14  24  14  25  14  26  14  29  14  30  14
M  ISO  5  31   8  32   8  33   8  34   8  35   8
M  END
>  <minimizedAffinity>  (1) 
-4.46920538

>  <minimizedRMSD>  (1) 
5.18572521

$$$$
