
     RDKit          3D

 31 33  0  0  0  0  0  0  0  0999 V2000
   39.5430   24.1660   33.6250 C   0  0  0  0  0  0  0  0  0  0  0  0
   38.9140   24.5440   32.4210 C   0  0  0  0  0  0  0  0  0  0  0  0
   39.9440   24.9670   31.6250 N   0  0  0  0  0  0  0  0  0  0  0  0
   41.0920   24.8310   32.3500 C   0  0  0  0  0  0  0  0  0  0  0  0
   40.8570   24.3540   33.5450 N   0  0  0  0  0  0  0  0  0  0  0  0
   41.8900   24.1270   34.4760 C   0  0  0  0  0  0  0  0  0  0  0  0
   42.3640   22.8410   34.8180 C   0  0  0  0  0  0  0  0  0  0  0  0
   43.3690   22.6360   35.7250 C   0  0  0  0  0  0  0  0  0  0  0  0
   43.9740   23.6820   36.3550 C   0  0  0  0  0  0  0  0  0  0  0  0
   43.5610   24.9450   36.0670 C   0  0  0  0  0  0  0  0  0  0  0  0
   42.5500   25.1470   35.1550 C   0  0  0  0  0  0  0  0  0  0  0  0
   42.1710   26.4950   34.9040 N   0  0  0  0  0  0  0  0  0  0  0  0
   37.3280   21.9390   35.6460 C   0  0  0  0  0  0  0  0  0  0  0  0
   38.0660   22.4610   34.5780 C   0  0  0  0  0  0  0  0  0  0  0  0
   38.7850   23.6500   34.7530 C   0  0  0  0  0  0  0  0  0  0  0  0
   38.7240   24.2570   36.0010 N   0  0  0  0  0  0  0  0  0  0  0  0
   38.0030   23.7120   36.9820 C   0  0  0  0  0  0  0  0  0  0  0  0
   37.3150   22.5770   36.8210 N   0  0  0  0  0  0  0  0  0  0  0  0
   37.9570   24.3710   38.2830 C   0  0  0  0  0  0  0  0  0  0  0  0
   38.7110   24.0520   39.2370 O   0  0  0  0  0  0  0  0  0  0  0  0
   37.8419   24.5074   32.1774 H   0  0  0  0  0  0  0  0  0  0  0  0
   42.0930   25.0908   31.9752 H   0  0  0  0  0  0  0  0  0  0  0  0
   41.9056   21.9658   34.3344 H   0  0  0  0  0  0  0  0  0  0  0  0
   43.6937   21.6092   35.9490 H   0  0  0  0  0  0  0  0  0  0  0  0
   44.7807   23.5079   37.0823 H   0  0  0  0  0  0  0  0  0  0  0  0
   44.0347   25.8052   36.5627 H   0  0  0  0  0  0  0  0  0  0  0  0
   42.6473   27.2641   35.3964 H   0  0  0  0  0  0  0  0  0  0  0  0
   41.4203   26.7019   34.2299 H   0  0  0  0  0  0  0  0  0  0  0  0
   36.7597   21.0057   35.5192 H   0  0  0  0  0  0  0  0  0  0  0  0
   38.0813   21.9415   33.6085 H   0  0  0  0  0  0  0  0  0  0  0  0
   37.2305   25.1827   38.4358 H   0  0  0  0  0  0  0  0  0  0  0  0
  1 15  1  0
  2  1  2  0
  3  4  2  0
  3  2  1  0
  4  5  1  0
  5  1  1  0
  5  6  1  0
  6  7  2  0
  6 11  1  0
  7  8  1  0
  8  9  2  0
 10  9  1  0
 11 10  2  0
 12 11  1  0
 13 18  2  0
 14 15  2  0
 14 13  1  0
 15 16  1  0
 16 17  2  0
 17 19  1  0
 18 17  1  0
 19 20  2  0
  2 21  1  0
  4 22  1  0
  7 23  1  0
  8 24  1  0
  9 25  1  0
 10 26  1  0
 12 27  1  0
 12 28  1  0
 13 29  1  0
 14 30  1  0
 19 31  1  0
M  ISO  8  21  14  22  14  23  14  24  14  25  14  26  14  29  14  30  14
M  ISO  1  31   6
M  END
>  <minimizedAffinity>  (1) 
-4.33278704

>  <minimizedRMSD>  (1) 
0.681948841

$$$$
