
     RDKit          3D

 31 33  0  0  0  0  0  0  0  0999 V2000
   39.4530   24.1200   33.7640 C   0  0  0  0  0  0  0  0  0  0  0  0
   38.8300   24.5290   32.5660 C   0  0  0  0  0  0  0  0  0  0  0  0
   39.8750   24.8850   31.7500 N   0  0  0  0  0  0  0  0  0  0  0  0
   41.0170   24.6870   32.4500 C   0  0  0  0  0  0  0  0  0  0  0  0
   40.7810   24.2330   33.6470 N   0  0  0  0  0  0  0  0  0  0  0  0
   37.2590   21.9900   35.8870 C   0  0  0  0  0  0  0  0  0  0  0  0
   37.9960   22.4560   34.7900 C   0  0  0  0  0  0  0  0  0  0  0  0
   38.6960   23.6560   34.9130 C   0  0  0  0  0  0  0  0  0  0  0  0
   38.6340   24.3370   36.1130 N   0  0  0  0  0  0  0  0  0  0  0  0
   37.9070   23.8390   37.1360 C   0  0  0  0  0  0  0  0  0  0  0  0
   37.2300   22.6810   37.0200 N   0  0  0  0  0  0  0  0  0  0  0  0
   37.9890   24.7020   38.2600 N   0  0  0  0  0  0  0  0  0  0  0  0
   41.8250   23.9500   34.5640 C   0  0  0  0  0  0  0  0  0  0  0  0
   42.2500   22.6530   34.8720 C   0  0  0  0  0  0  0  0  0  0  0  0
   43.2620   22.3800   35.7620 C   0  0  0  0  0  0  0  0  0  0  0  0
   43.9140   23.4110   36.4010 C   0  0  0  0  0  0  0  0  0  0  0  0
   43.5440   24.6930   36.1420 C   0  0  0  0  0  0  0  0  0  0  0  0
   42.5350   24.9390   35.2540 C   0  0  0  0  0  0  0  0  0  0  0  0
   42.2020   26.3010   35.0320 N   0  0  0  0  0  0  0  0  0  0  0  0
   37.7542   24.5563   32.3382 H   0  0  0  0  0  0  0  0  0  0  0  0
   42.0239   24.8860   32.0544 H   0  0  0  0  0  0  0  0  0  0  0  0
   36.7008   21.0454   35.8087 H   0  0  0  0  0  0  0  0  0  0  0  0
   38.0219   21.8860   33.8495 H   0  0  0  0  0  0  0  0  0  0  0  0
   37.4882   24.4656   39.1284 H   0  0  0  0  0  0  0  0  0  0  0  0
   38.5493   25.5647   38.2072 H   0  0  0  0  0  0  0  0  0  0  0  0
   41.7488   21.8083   34.3767 H   0  0  0  0  0  0  0  0  0  0  0  0
   43.5508   21.3379   35.9636 H   0  0  0  0  0  0  0  0  0  0  0  0
   44.7252   23.1994   37.1131 H   0  0  0  0  0  0  0  0  0  0  0  0
   44.0541   25.5280   36.6446 H   0  0  0  0  0  0  0  0  0  0  0  0
   42.7128   27.0439   35.5302 H   0  0  0  0  0  0  0  0  0  0  0  0
   41.4496   26.5464   34.3728 H   0  0  0  0  0  0  0  0  0  0  0  0
  1  8  1  0
  2  1  2  0
  3  4  2  0
  3  2  1  0
  4  5  1  0
  5  1  1  0
  5 13  1  0
  6 11  2  0
  7  8  2  0
  7  6  1  0
  8  9  1  0
  9 10  2  0
 10 12  1  0
 11 10  1  0
 13 14  2  0
 13 18  1  0
 14 15  1  0
 15 16  2  0
 17 16  1  0
 18 17  2  0
 19 18  1  0
  2 20  1  0
  4 21  1  0
  6 22  1  0
  7 23  1  0
 12 24  1  0
 12 25  1  0
 14 26  1  0
 15 27  1  0
 16 28  1  0
 17 29  1  0
 19 30  1  0
 19 31  1  0
M  ISO  8  20  14  21  14  22  14  23  14  26  14  27  14  28  14  29  14
M  END
>  <minimizedAffinity>  (1) 
-4.23582458

>  <minimizedRMSD>  (1) 
0.557696521

$$$$
