
     RDKit          3D

 11 11  0  0  0  0  0  0  0  0999 V2000
   39.7470   22.8160   37.6950 C   0  0  0  0  0  0  0  0  0  0  0  0
   38.9230   23.3330   38.7080 C   0  0  0  0  0  0  0  0  0  0  0  0
   37.8870   24.2080   38.3310 C   0  0  0  0  0  0  0  0  0  0  0  0
   37.7430   24.5030   36.9940 N   0  0  0  0  0  0  0  0  0  0  0  0
   38.5560   23.9830   36.0530 C   0  0  0  0  0  0  0  0  0  0  0  0
   39.5440   23.1510   36.4100 N   0  0  0  0  0  0  0  0  0  0  0  0
   38.3300   24.3950   34.3280 S   0  0  0  0  0  0  0  0  0  0  0  0
   40.5664   22.1302   37.9563 H   0  0  0  0  0  0  0  0  0  0  0  0
   39.0822   23.0627   39.7623 H   0  0  0  0  0  0  0  0  0  0  0  0
   37.2121   24.6434   39.0827 H   0  0  0  0  0  0  0  0  0  0  0  0
   37.6729   25.5929   34.2269 H   0  0  0  0  0  0  0  0  0  0  0  0
  1  2  2  0
  3  2  1  0
  4  3  2  0
  5  6  2  0
  5  4  1  0
  6  1  1  0
  7  5  1  0
  1  8  1  0
  2  9  1  0
  3 10  1  0
  7 11  1  0
M  ISO  4   8  14   9  14  10  14  11  11
M  END
>  <minimizedAffinity>  (1) 
-2.6271503

>  <minimizedRMSD>  (1) 
1.55410516

$$$$
