
     RDKit          3D

 33 35  0  0  0  0  0  0  0  0999 V2000
   39.5060   26.2060   35.0540 C   0  0  0  0  0  0  0  0  0  0  0  0
   38.4660   26.9660   34.3260 C   0  0  0  0  0  0  0  0  0  0  0  0
   37.4140   27.5270   35.0390 C   0  0  0  0  0  0  0  0  0  0  0  0
   36.3760   28.2640   34.4680 C   0  0  0  0  0  0  0  0  0  0  0  0
   36.4290   28.4260   33.1120 N   0  0  0  0  0  0  0  0  0  0  0  0
   37.4420   27.8880   32.4070 C   0  0  0  0  0  0  0  0  0  0  0  0
   38.4290   27.1760   33.0260 N   0  0  0  0  0  0  0  0  0  0  0  0
   37.5390   28.0350   30.9580 C   0  0  0  0  0  0  0  0  0  0  0  0
   38.7720   28.1180   30.3310 C   0  0  0  0  0  0  0  0  0  0  0  0
   38.5060   28.2510   28.9540 C   0  0  0  0  0  0  0  0  0  0  0  0
   37.1600   28.2440   28.8090 N   0  0  0  0  0  0  0  0  0  0  0  0
   36.5860   28.1160   29.9940 N   0  0  0  0  0  0  0  0  0  0  0  0
   39.7050   24.8190   34.4750 C   0  0  0  0  0  0  0  0  0  0  0  0
   41.6260   22.4040   36.5760 C   0  0  0  0  0  0  0  0  0  0  0  0
   40.7410   22.2320   37.6640 C   0  0  0  0  0  0  0  0  0  0  0  0
   39.5340   22.9270   37.6600 C   0  0  0  0  0  0  0  0  0  0  0  0
   39.2550   23.7420   36.6100 N   0  0  0  0  0  0  0  0  0  0  0  0
   40.1340   23.8880   35.5700 C   0  0  0  0  0  0  0  0  0  0  0  0
   41.3020   23.2330   35.5480 N   0  0  0  0  0  0  0  0  0  0  0  0
   38.5770   22.8320   38.6910 N   0  0  0  0  0  0  0  0  0  0  0  0
   40.4565   26.7563   34.9926 H   0  0  0  0  0  0  0  0  0  0  0  0
   39.1776   26.0947   36.0979 H   0  0  0  0  0  0  0  0  0  0  0  0
   37.3983   27.3800   36.1290 H   0  0  0  0  0  0  0  0  0  0  0  0
   35.5625   28.6898   35.0738 H   0  0  0  0  0  0  0  0  0  0  0  0
   39.7606   28.0864   30.8122 H   0  0  0  0  0  0  0  0  0  0  0  0
   39.2505   28.3430   28.1495 H   0  0  0  0  0  0  0  0  0  0  0  0
   36.6592   28.3259   27.9127 H   0  0  0  0  0  0  0  0  0  0  0  0
   38.7604   24.4632   34.0377 H   0  0  0  0  0  0  0  0  0  0  0  0
   40.4767   24.8511   33.6918 H   0  0  0  0  0  0  0  0  0  0  0  0
   42.5839   21.8634   36.5605 H   0  0  0  0  0  0  0  0  0  0  0  0
   41.0001   21.5626   38.4975 H   0  0  0  0  0  0  0  0  0  0  0  0
   37.7014   23.3712   38.6322 H   0  0  0  0  0  0  0  0  0  0  0  0
   38.7535   22.2234   39.5030 H   0  0  0  0  0  0  0  0  0  0  0  0
  2  3  2  0
  2  1  1  0
  4  3  1  0
  5  4  2  0
  6  7  2  0
  6  5  1  0
  7  2  1  0
  8  6  1  0
  9  8  1  0
 10  9  2  0
 11 10  1  0
 11 12  1  0
 12  8  2  0
 13  1  1  0
 13 18  1  0
 14 15  2  0
 16 15  1  0
 16 20  1  0
 17 16  2  0
 18 17  1  0
 19 18  2  0
 19 14  1  0
  1 21  1  0
  1 22  1  0
  3 23  1  0
  4 24  1  0
  9 25  1  0
 10 26  1  0
 11 27  1  0
 13 28  1  0
 13 29  1  0
 14 30  1  0
 15 31  1  0
 20 32  1  0
 20 33  1  0
M  ISO  8  21   8  22   8  23  14  24  14  25  14  26  14  27   9  28   8
M  ISO  3  29   8  30  14  31  14
M  END
>  <minimizedAffinity>  (1) 
-5.39228964

>  <minimizedRMSD>  (1) 
1.28146744

$$$$
