
     RDKit          3D

 45 49  0  0  0  0  0  0  0  0999 V2000
   38.1810   24.7690   36.7430 C   0  0  0  0  0  0  0  0  0  0  0  0
   39.0230   23.7950   36.1760 C   0  0  0  0  0  0  0  0  0  0  0  0
   39.3430   23.8720   34.8390 C   0  0  0  0  0  0  0  0  0  0  0  0
   38.8150   24.9190   34.1010 N   0  0  0  0  0  0  0  0  0  0  0  0
   38.0120   25.8330   34.6770 C   0  0  0  0  0  0  0  0  0  0  0  0
   37.6950   25.7590   35.9950 N   0  0  0  0  0  0  0  0  0  0  0  0
   37.4570   26.9350   33.8950 C   0  0  0  0  0  0  0  0  0  0  0  0
   36.5230   27.7750   34.4590 C   0  0  0  0  0  0  0  0  0  0  0  0
   36.0570   28.7910   33.6330 C   0  0  0  0  0  0  0  0  0  0  0  0
   36.4430   29.0130   32.3480 N   0  0  0  0  0  0  0  0  0  0  0  0
   37.3560   28.1510   31.8720 C   0  0  0  0  0  0  0  0  0  0  0  0
   37.8370   27.1570   32.6230 N   0  0  0  0  0  0  0  0  0  0  0  0
   37.8390   28.3000   30.5040 C   0  0  0  0  0  0  0  0  0  0  0  0
   37.3230   29.2610   29.6650 C   0  0  0  0  0  0  0  0  0  0  0  0
   37.7950   29.3890   28.3630 C   0  0  0  0  0  0  0  0  0  0  0  0
   38.7700   28.5530   27.9340 N   0  0  0  0  0  0  0  0  0  0  0  0
   39.2780   27.6180   28.7390 C   0  0  0  0  0  0  0  0  0  0  0  0
   38.8040   27.5120   29.9970 N   0  0  0  0  0  0  0  0  0  0  0  0
   40.2100   22.8570   34.2840 C   0  0  0  0  0  0  0  0  0  0  0  0
   39.7330   21.7740   33.5380 C   0  0  0  0  0  0  0  0  0  0  0  0
   40.8510   21.0520   33.2000 N   0  0  0  0  0  0  0  0  0  0  0  0
   41.9140   21.7090   33.7380 C   0  0  0  0  0  0  0  0  0  0  0  0
   41.5540   22.7850   34.3880 N   0  0  0  0  0  0  0  0  0  0  0  0
   42.4880   23.6300   35.0330 C   0  0  0  0  0  0  0  0  0  0  0  0
   43.0500   23.3370   36.2830 C   0  0  0  0  0  0  0  0  0  0  0  0
   43.9570   24.1720   36.8950 C   0  0  0  0  0  0  0  0  0  0  0  0
   44.3510   25.3340   36.3040 C   0  0  0  0  0  0  0  0  0  0  0  0
   43.8350   25.6580   35.0970 C   0  0  0  0  0  0  0  0  0  0  0  0
   42.9360   24.8360   34.4840 C   0  0  0  0  0  0  0  0  0  0  0  0
   42.4430   25.2400   33.2290 N   0  0  0  0  0  0  0  0  0  0  0  0
   37.9221   24.7130   37.8106 H   0  0  0  0  0  0  0  0  0  0  0  0
   39.4224   22.9786   36.7957 H   0  0  0  0  0  0  0  0  0  0  0  0
   36.1696   27.6504   35.4932 H   0  0  0  0  0  0  0  0  0  0  0  0
   35.3088   29.4771   34.0566 H   0  0  0  0  0  0  0  0  0  0  0  0
   36.5311   29.9332   30.0269 H   0  0  0  0  0  0  0  0  0  0  0  0
   37.3828   30.1573   27.6923 H   0  0  0  0  0  0  0  0  0  0  0  0
   40.0709   26.9443   28.3821 H   0  0  0  0  0  0  0  0  0  0  0  0
   38.6880   21.5493   33.2783 H   0  0  0  0  0  0  0  0  0  0  0  0
   42.9568   21.3735   33.6377 H   0  0  0  0  0  0  0  0  0  0  0  0
   42.7561   22.4075   36.7926 H   0  0  0  0  0  0  0  0  0  0  0  0
   44.3700   23.8965   37.8766 H   0  0  0  0  0  0  0  0  0  0  0  0
   45.0757   25.9968   36.7995 H   0  0  0  0  0  0  0  0  0  0  0  0
   44.1430   26.5926   34.6053 H   0  0  0  0  0  0  0  0  0  0  0  0
   42.7627   26.1253   32.8108 H   0  0  0  0  0  0  0  0  0  0  0  0
   41.7625   24.6503   32.7289 H   0  0  0  0  0  0  0  0  0  0  0  0
  2  1  2  0
  3  2  1  0
  4  5  1  0
  4  3  2  0
  5  6  2  0
  6  1  1  0
  7  8  2  0
  7  5  1  0
  9  8  1  0
 10  9  2  0
 11 10  1  0
 11 12  2  0
 12  7  1  0
 13 11  1  0
 14 13  2  0
 15 14  1  0
 16 15  2  0
 16 17  1  0
 17 18  2  0
 18 13  1  0
 19 23  1  0
 19  3  1  0
 20 19  2  0
 21 20  1  0
 21 22  2  0
 22 23  1  0
 23 24  1  0
 24 25  2  0
 25 26  1  0
 27 26  2  0
 28 27  1  0
 29 24  1  0
 29 28  2  0
 30 29  1  0
  1 31  1  0
  2 32  1  0
  8 33  1  0
  9 34  1  0
 14 35  1  0
 15 36  1  0
 17 37  1  0
 20 38  1  0
 22 39  1  0
 25 40  1  0
 26 41  1  0
 27 42  1  0
 28 43  1  0
 30 44  1  0
 30 45  1  0
M  ISO  8  31  14  32  14  33  14  34  14  35  14  36  14  37  14  38  14
M  ISO  5  39  14  40  14  41  14  42  14  43  14
M  END
>  <minimizedAffinity>  (1) 
-5.63754511

>  <minimizedRMSD>  (1) 
1.58775103

$$$$
