
     RDKit          3D

 44 48  0  0  0  0  0  0  0  0999 V2000
   37.7320   25.6620   34.8160 C   0  0  0  0  0  0  0  0  0  0  0  0
   37.3530   26.9700   35.1650 C   0  0  0  0  0  0  0  0  0  0  0  0
   36.9000   27.5280   34.0050 N   0  0  0  0  0  0  0  0  0  0  0  0
   37.0190   26.5690   33.0330 C   0  0  0  0  0  0  0  0  0  0  0  0
   37.5100   25.4620   33.5050 N   0  0  0  0  0  0  0  0  0  0  0  0
   37.7280   24.3210   32.6910 C   0  0  0  0  0  0  0  0  0  0  0  0
   36.6960   23.4810   32.2520 C   0  0  0  0  0  0  0  0  0  0  0  0
   36.9040   22.3820   31.4680 C   0  0  0  0  0  0  0  0  0  0  0  0
   38.1640   22.0460   31.0680 C   0  0  0  0  0  0  0  0  0  0  0  0
   39.2140   22.8230   31.4610 C   0  0  0  0  0  0  0  0  0  0  0  0
   38.9860   23.9230   32.2480 C   0  0  0  0  0  0  0  0  0  0  0  0
   40.1120   24.6820   32.6190 N   0  0  0  0  0  0  0  0  0  0  0  0
   37.9570   23.4310   37.7950 C   0  0  0  0  0  0  0  0  0  0  0  0
   37.4550   24.3440   36.8360 C   0  0  0  0  0  0  0  0  0  0  0  0
   38.2730   24.7280   35.7790 C   0  0  0  0  0  0  0  0  0  0  0  0
   39.5350   24.1900   35.7300 N   0  0  0  0  0  0  0  0  0  0  0  0
   39.9760   23.3280   36.6560 C   0  0  0  0  0  0  0  0  0  0  0  0
   39.1880   22.9510   37.6850 N   0  0  0  0  0  0  0  0  0  0  0  0
   41.3320   22.7760   36.5680 C   0  0  0  0  0  0  0  0  0  0  0  0
   41.5220   21.4070   36.6670 C   0  0  0  0  0  0  0  0  0  0  0  0
   42.8290   20.9790   36.5720 C   0  0  0  0  0  0  0  0  0  0  0  0
   43.9110   21.7600   36.3960 N   0  0  0  0  0  0  0  0  0  0  0  0
   43.6580   23.0840   36.3070 C   0  0  0  0  0  0  0  0  0  0  0  0
   42.4110   23.5720   36.3910 N   0  0  0  0  0  0  0  0  0  0  0  0
   44.8360   23.9820   36.1110 C   0  0  0  0  0  0  0  0  0  0  0  0
   44.6770   25.4410   36.1040 C   0  0  0  0  0  0  0  0  0  0  0  0
   45.1690   24.8060   37.3920 C   0  0  0  0  0  0  0  0  0  0  0  0
   37.4094   27.4412   36.1574 H   0  0  0  0  0  0  0  0  0  0  0  0
   36.7336   26.7181   31.9812 H   0  0  0  0  0  0  0  0  0  0  0  0
   35.6654   23.7188   32.5543 H   0  0  0  0  0  0  0  0  0  0  0  0
   36.0492   21.7635   31.1570 H   0  0  0  0  0  0  0  0  0  0  0  0
   38.3311   21.1605   30.4371 H   0  0  0  0  0  0  0  0  0  0  0  0
   40.2376   22.5689   31.1486 H   0  0  0  0  0  0  0  0  0  0  0  0
   39.9976   25.5182   33.2094 H   0  0  0  0  0  0  0  0  0  0  0  0
   41.0502   24.4011   32.3001 H   0  0  0  0  0  0  0  0  0  0  0  0
   37.3216   23.1180   38.6366 H   0  0  0  0  0  0  0  0  0  0  0  0
   36.4339   24.7432   36.9258 H   0  0  0  0  0  0  0  0  0  0  0  0
   40.6852   20.7079   36.8118 H   0  0  0  0  0  0  0  0  0  0  0  0
   43.0044   19.8957   36.6472 H   0  0  0  0  0  0  0  0  0  0  0  0
   45.3409   23.3008   35.4103 H   0  0  0  0  0  0  0  0  0  0  0  0
   45.3647   26.0580   35.5071 H   0  0  0  0  0  0  0  0  0  0  0  0
   43.8417   26.1135   35.8587 H   0  0  0  0  0  0  0  0  0  0  0  0
   44.5145   24.7546   38.2746 H   0  0  0  0  0  0  0  0  0  0  0  0
   46.0370   24.9262   38.0570 H   0  0  0  0  0  0  0  0  0  0  0  0
  1  2  2  0
  1 15  1  0
  3  2  1  0
  4  5  1  0
  4  3  2  0
  5  1  1  0
  6  5  1  0
  7  6  2  0
  8  7  1  0
  9 10  1  0
  9  8  2  0
 10 11  2  0
 11 12  1  0
 11  6  1  0
 14 13  2  0
 15 14  1  0
 16 15  2  0
 16 17  1  0
 17 18  2  0
 18 13  1  0
 19 17  1  0
 19 20  2  0
 21 20  1  0
 22 21  2  0
 23 24  2  0
 23 22  1  0
 24 19  1  0
 25 23  1  0
 25 27  1  0
 26 25  1  0
 26 27  1  0
  2 28  1  0
  4 29  1  0
  7 30  1  0
  8 31  1  0
  9 32  1  0
 10 33  1  0
 12 34  1  0
 12 35  1  0
 13 36  1  0
 14 37  1  0
 20 38  1  0
 21 39  1  0
 25 40  1  0
 26 41  1  0
 26 42  1  0
 27 43  1  0
 27 44  1  0
M  ISO  8  28  14  29  14  30  14  31  14  32  14  33  14  36  14  37  14
M  ISO  7  38  14  39  14  40  13  41  13  42  13  43  13  44  13
M  END
>  <minimizedAffinity>  (1) 
-5.58076859

>  <minimizedRMSD>  (1) 
7.37978077

$$$$
