
     RDKit          3D

 44 48  0  0  0  0  0  0  0  0999 V2000
   38.6690   23.6120   38.2330 C   0  0  0  0  0  0  0  0  0  0  0  0
   39.8260   22.8270   38.0520 C   0  0  0  0  0  0  0  0  0  0  0  0
   40.5100   22.8800   36.8490 C   0  0  0  0  0  0  0  0  0  0  0  0
   40.0100   23.7170   35.8780 N   0  0  0  0  0  0  0  0  0  0  0  0
   38.9190   24.4490   36.0690 C   0  0  0  0  0  0  0  0  0  0  0  0
   38.2400   24.4020   37.2490 N   0  0  0  0  0  0  0  0  0  0  0  0
   38.4020   25.3340   35.0210 C   0  0  0  0  0  0  0  0  0  0  0  0
   37.4590   26.2850   35.3070 C   0  0  0  0  0  0  0  0  0  0  0  0
   37.0300   27.0720   34.2700 C   0  0  0  0  0  0  0  0  0  0  0  0
   37.4600   26.9860   32.9910 N   0  0  0  0  0  0  0  0  0  0  0  0
   38.3940   26.0300   32.7600 C   0  0  0  0  0  0  0  0  0  0  0  0
   38.8340   25.2420   33.7610 N   0  0  0  0  0  0  0  0  0  0  0  0
   38.9890   25.7620   31.4900 N   0  0  0  0  0  0  0  0  0  0  0  0
   38.8970   26.8250   30.6380 C   0  0  0  0  0  0  0  0  0  0  0  0
   39.4950   26.4800   29.4400 C   0  0  0  0  0  0  0  0  0  0  0  0
   39.9350   25.2170   29.5910 N   0  0  0  0  0  0  0  0  0  0  0  0
   39.6270   24.7770   30.8390 C   0  0  0  0  0  0  0  0  0  0  0  0
   41.6860   22.0620   36.7030 C   0  0  0  0  0  0  0  0  0  0  0  0
   41.6820   20.6750   36.8940 C   0  0  0  0  0  0  0  0  0  0  0  0
   42.9570   20.2620   36.6690 N   0  0  0  0  0  0  0  0  0  0  0  0
   43.6760   21.3780   36.3570 C   0  0  0  0  0  0  0  0  0  0  0  0
   42.9410   22.4620   36.3700 N   0  0  0  0  0  0  0  0  0  0  0  0
   43.4530   23.7380   36.0810 C   0  0  0  0  0  0  0  0  0  0  0  0
   44.2400   24.4760   36.9830 C   0  0  0  0  0  0  0  0  0  0  0  0
   44.7400   25.7220   36.6980 C   0  0  0  0  0  0  0  0  0  0  0  0
   44.4840   26.3110   35.4910 C   0  0  0  0  0  0  0  0  0  0  0  0
   43.7230   25.6440   34.5690 C   0  0  0  0  0  0  0  0  0  0  0  0
   43.2330   24.4000   34.8700 C   0  0  0  0  0  0  0  0  0  0  0  0
   42.4540   23.7690   33.8700 N   0  0  0  0  0  0  0  0  0  0  0  0
   38.1207   23.5725   39.1858 H   0  0  0  0  0  0  0  0  0  0  0  0
   40.1838   22.1753   38.8627 H   0  0  0  0  0  0  0  0  0  0  0  0
   37.0628   26.4119   36.3253 H   0  0  0  0  0  0  0  0  0  0  0  0
   36.2730   27.8371   34.4972 H   0  0  0  0  0  0  0  0  0  0  0  0
   38.4265   27.7927   30.8662 H   0  0  0  0  0  0  0  0  0  0  0  0
   39.5917   27.1107   28.5440 H   0  0  0  0  0  0  0  0  0  0  0  0
   39.8608   23.7824   31.2466 H   0  0  0  0  0  0  0  0  0  0  0  0
   40.8219   20.0473   37.1700 H   0  0  0  0  0  0  0  0  0  0  0  0
   44.7504   21.3688   36.1214 H   0  0  0  0  0  0  0  0  0  0  0  0
   44.4658   24.0333   37.9643 H   0  0  0  0  0  0  0  0  0  0  0  0
   45.3505   26.2500   37.4453 H   0  0  0  0  0  0  0  0  0  0  0  0
   44.8850   27.3097   35.2633 H   0  0  0  0  0  0  0  0  0  0  0  0
   43.5063   26.1034   33.5933 H   0  0  0  0  0  0  0  0  0  0  0  0
   42.0589   22.8329   34.0392 H   0  0  0  0  0  0  0  0  0  0  0  0
   42.2824   24.2461   32.9734 H   0  0  0  0  0  0  0  0  0  0  0  0
  2  1  2  0
  3  2  1  0
  4  5  1  0
  4  3  2  0
  5  6  2  0
  6  1  1  0
  7  8  2  0
  7  5  1  0
  9  8  1  0
 10  9  2  0
 11 10  1  0
 11 12  2  0
 12  7  1  0
 13 11  1  0
 14 13  1  0
 15 16  1  0
 15 14  2  0
 16 17  2  0
 17 13  1  0
 18  3  1  0
 18 19  2  0
 20 19  1  0
 21 22  1  0
 21 20  2  0
 22 18  1  0
 23 22  1  0
 23 24  2  0
 25 24  1  0
 26 25  2  0
 27 28  2  0
 27 26  1  0
 28 23  1  0
 29 28  1  0
  1 30  1  0
  2 31  1  0
  8 32  1  0
  9 33  1  0
 14 34  1  0
 15 35  1  0
 17 36  1  0
 19 37  1  0
 21 38  1  0
 24 39  1  0
 25 40  1  0
 26 41  1  0
 27 42  1  0
 29 43  1  0
 29 44  1  0
M  ISO  8  30  14  31  14  32  14  33  14  34  14  35  14  36  14  37  14
M  ISO  5  38  14  39  14  40  14  41  14  42  14
M  END
>  <minimizedAffinity>  (1) 
-5.48800611

>  <minimizedRMSD>  (1) 
2.85286069

$$$$
