
     RDKit          3D

 43 47  0  0  0  0  0  0  0  0999 V2000
   38.1760   24.7940   36.7330 C   0  0  0  0  0  0  0  0  0  0  0  0
   39.0180   23.8140   36.1630 C   0  0  0  0  0  0  0  0  0  0  0  0
   39.3320   23.9000   34.8190 C   0  0  0  0  0  0  0  0  0  0  0  0
   38.8020   24.9460   34.1010 N   0  0  0  0  0  0  0  0  0  0  0  0
   38.0090   25.8540   34.6740 C   0  0  0  0  0  0  0  0  0  0  0  0
   37.6950   25.7800   35.9860 N   0  0  0  0  0  0  0  0  0  0  0  0
   37.4520   26.9610   33.8940 C   0  0  0  0  0  0  0  0  0  0  0  0
   36.4730   27.7700   34.4210 C   0  0  0  0  0  0  0  0  0  0  0  0
   36.0170   28.7860   33.6000 C   0  0  0  0  0  0  0  0  0  0  0  0
   36.4550   29.0420   32.3370 N   0  0  0  0  0  0  0  0  0  0  0  0
   37.4160   28.2140   31.8790 C   0  0  0  0  0  0  0  0  0  0  0  0
   37.8800   27.2190   32.6480 N   0  0  0  0  0  0  0  0  0  0  0  0
   37.9800   28.3450   30.5780 N   0  0  0  0  0  0  0  0  0  0  0  0
   38.5760   27.2760   30.0160 C   0  0  0  0  0  0  0  0  0  0  0  0
   39.0390   27.6200   28.7930 N   0  0  0  0  0  0  0  0  0  0  0  0
   38.7190   28.9340   28.6010 C   0  0  0  0  0  0  0  0  0  0  0  0
   38.0670   29.3510   29.7200 N   0  0  0  0  0  0  0  0  0  0  0  0
   40.2050   22.8710   34.2650 C   0  0  0  0  0  0  0  0  0  0  0  0
   39.7140   21.7870   33.5200 C   0  0  0  0  0  0  0  0  0  0  0  0
   40.8310   21.0700   33.1900 N   0  0  0  0  0  0  0  0  0  0  0  0
   41.8980   21.7180   33.7230 C   0  0  0  0  0  0  0  0  0  0  0  0
   41.5490   22.7930   34.3670 N   0  0  0  0  0  0  0  0  0  0  0  0
   42.4800   23.6380   35.0090 C   0  0  0  0  0  0  0  0  0  0  0  0
   43.0390   23.3360   36.2680 C   0  0  0  0  0  0  0  0  0  0  0  0
   43.9500   24.1660   36.8930 C   0  0  0  0  0  0  0  0  0  0  0  0
   44.3500   25.3290   36.3080 C   0  0  0  0  0  0  0  0  0  0  0  0
   43.8360   25.6590   35.0950 C   0  0  0  0  0  0  0  0  0  0  0  0
   42.9340   24.8440   34.4680 C   0  0  0  0  0  0  0  0  0  0  0  0
   42.4450   25.2530   33.2110 N   0  0  0  0  0  0  0  0  0  0  0  0
   37.9176   24.7399   37.8009 H   0  0  0  0  0  0  0  0  0  0  0  0
   39.4179   22.9948   36.7786 H   0  0  0  0  0  0  0  0  0  0  0  0
   36.0758   27.6184   35.4355 H   0  0  0  0  0  0  0  0  0  0  0  0
   35.2327   29.4437   34.0028 H   0  0  0  0  0  0  0  0  0  0  0  0
   38.6709   26.2822   30.4779 H   0  0  0  0  0  0  0  0  0  0  0  0
   38.9453   29.5397   27.7111 H   0  0  0  0  0  0  0  0  0  0  0  0
   38.6684   21.5648   33.2606 H   0  0  0  0  0  0  0  0  0  0  0  0
   42.9379   21.3738   33.6220 H   0  0  0  0  0  0  0  0  0  0  0  0
   42.7387   22.4051   36.7712 H   0  0  0  0  0  0  0  0  0  0  0  0
   44.3572   23.8839   37.8752 H   0  0  0  0  0  0  0  0  0  0  0  0
   45.0750   25.9880   36.8081 H   0  0  0  0  0  0  0  0  0  0  0  0
   44.1496   26.5951   34.6098 H   0  0  0  0  0  0  0  0  0  0  0  0
   42.7679   26.1387   32.7961 H   0  0  0  0  0  0  0  0  0  0  0  0
   41.7647   24.6662   32.7073 H   0  0  0  0  0  0  0  0  0  0  0  0
  2  1  2  0
  3  2  1  0
  4  5  1  0
  4  3  2  0
  5  6  2  0
  6  1  1  0
  7  8  2  0
  7  5  1  0
  9  8  1  0
 10  9  2  0
 11 10  1  0
 11 12  2  0
 12  7  1  0
 13 11  1  0
 14 13  1  0
 15 14  2  0
 16 15  1  0
 16 17  2  0
 17 13  1  0
 18 22  1  0
 18  3  1  0
 19 18  2  0
 20 19  1  0
 20 21  2  0
 21 22  1  0
 22 23  1  0
 23 24  2  0
 24 25  1  0
 26 25  2  0
 27 26  1  0
 28 23  1  0
 28 27  2  0
 29 28  1  0
  1 30  1  0
  2 31  1  0
  8 32  1  0
  9 33  1  0
 14 34  1  0
 16 35  1  0
 19 36  1  0
 21 37  1  0
 24 38  1  0
 25 39  1  0
 26 40  1  0
 27 41  1  0
 29 42  1  0
 29 43  1  0
M  ISO  8  30  14  31  14  32  14  33  14  34  14  35  14  36  14  37  14
M  ISO  4  38  14  39  14  40  14  41  14
M  END
>  <minimizedAffinity>  (1) 
-5.4540863

>  <minimizedRMSD>  (1) 
1.45901871

$$$$
