
     RDKit          3D

 46 49  0  0  0  0  0  0  0  0999 V2000
   41.1510   23.2250   36.1130 C   0  0  0  0  0  0  0  0  0  0  0  0
   42.0850   22.5490   36.9120 C   0  0  0  0  0  0  0  0  0  0  0  0
   43.2960   23.0980   36.5660 N   0  0  0  0  0  0  0  0  0  0  0  0
   43.0510   24.0360   35.6210 C   0  0  0  0  0  0  0  0  0  0  0  0
   41.7750   24.1310   35.3310 N   0  0  0  0  0  0  0  0  0  0  0  0
   41.2750   25.0340   34.3800 C   0  0  0  0  0  0  0  0  0  0  0  0
   41.1370   26.4050   34.6280 C   0  0  0  0  0  0  0  0  0  0  0  0
   40.6440   27.2810   33.6850 C   0  0  0  0  0  0  0  0  0  0  0  0
   40.2640   26.8440   32.4520 C   0  0  0  0  0  0  0  0  0  0  0  0
   40.3790   25.5220   32.1610 C   0  0  0  0  0  0  0  0  0  0  0  0
   40.8670   24.6560   33.0950 C   0  0  0  0  0  0  0  0  0  0  0  0
   40.9590   23.2970   32.7280 N   0  0  0  0  0  0  0  0  0  0  0  0
   37.6470   23.0800   37.3760 C   0  0  0  0  0  0  0  0  0  0  0  0
   39.0290   23.3410   37.2920 C   0  0  0  0  0  0  0  0  0  0  0  0
   39.7240   22.9390   36.1680 C   0  0  0  0  0  0  0  0  0  0  0  0
   39.0300   22.2950   35.1710 N   0  0  0  0  0  0  0  0  0  0  0  0
   37.7100   22.0630   35.2860 C   0  0  0  0  0  0  0  0  0  0  0  0
   37.0260   22.4530   36.3780 N   0  0  0  0  0  0  0  0  0  0  0  0
   36.9820   21.3750   34.2140 C   0  0  0  0  0  0  0  0  0  0  0  0
   35.8130   20.7150   34.4820 C   0  0  0  0  0  0  0  0  0  0  0  0
   35.1930   20.0940   33.4140 C   0  0  0  0  0  0  0  0  0  0  0  0
   35.6440   20.0870   32.1440 N   0  0  0  0  0  0  0  0  0  0  0  0
   36.8110   20.7570   31.9270 C   0  0  0  0  0  0  0  0  0  0  0  0
   37.4380   21.3730   32.9520 N   0  0  0  0  0  0  0  0  0  0  0  0
   37.4060   20.8180   30.5600 C   0  0  0  0  0  0  0  0  0  0  0  0
   38.9260   20.9650   30.6500 C   0  0  0  0  0  0  0  0  0  0  0  0
   37.1450   19.5380   29.7920 C   0  0  0  0  0  0  0  0  0  0  0  0
   41.8913   21.7568   37.6502 H   0  0  0  0  0  0  0  0  0  0  0  0
   43.8333   24.6491   35.1497 H   0  0  0  0  0  0  0  0  0  0  0  0
   41.4330   26.7976   35.6120 H   0  0  0  0  0  0  0  0  0  0  0  0
   40.5560   28.3493   33.9318 H   0  0  0  0  0  0  0  0  0  0  0  0
   39.8709   27.5493   31.7050 H   0  0  0  0  0  0  0  0  0  0  0  0
   40.0781   25.1494   31.1707 H   0  0  0  0  0  0  0  0  0  0  0  0
   41.3215   22.6055   33.3998 H   0  0  0  0  0  0  0  0  0  0  0  0
   40.6637   22.9962   31.7882 H   0  0  0  0  0  0  0  0  0  0  0  0
   37.0809   23.3939   38.2654 H   0  0  0  0  0  0  0  0  0  0  0  0
   39.5484   23.8588   38.1118 H   0  0  0  0  0  0  0  0  0  0  0  0
   35.3884   20.6806   35.4962 H   0  0  0  0  0  0  0  0  0  0  0  0
   34.2527   19.5608   33.6177 H   0  0  0  0  0  0  0  0  0  0  0  0
   36.9459   21.6774   30.0504 H   0  0  0  0  0  0  0  0  0  0  0  0
   39.2296   20.9944   31.7069 H   0  0  0  0  0  0  0  0  0  0  0  0
   39.4072   20.1092   30.1539 H   0  0  0  0  0  0  0  0  0  0  0  0
   39.2342   21.8971   30.1539 H   0  0  0  0  0  0  0  0  0  0  0  0
   36.9768   18.7133   30.5002 H   0  0  0  0  0  0  0  0  0  0  0  0
   36.2543   19.6652   29.1592 H   0  0  0  0  0  0  0  0  0  0  0  0
   38.0144   19.3063   29.1592 H   0  0  0  0  0  0  0  0  0  0  0  0
  1 15  1  0
  1  2  2  0
  3  2  1  0
  4  3  2  0
  5  4  1  0
  5  1  1  0
  6  7  2  0
  6  5  1  0
  8  7  1  0
  9  8  2  0
 10  9  1  0
 10 11  2  0
 11  6  1  0
 12 11  1  0
 14 13  2  0
 15 14  1  0
 16 17  1  0
 16 15  2  0
 17 18  2  0
 18 13  1  0
 19 20  2  0
 19 17  1  0
 21 20  1  0
 22 21  2  0
 23 22  1  0
 23 24  2  0
 24 19  1  0
 25 26  1  0
 25 23  1  0
 27 25  1  0
  2 28  1  0
  4 29  1  0
  7 30  1  0
  8 31  1  0
  9 32  1  0
 10 33  1  0
 12 34  1  0
 12 35  1  0
 13 36  1  0
 14 37  1  0
 20 38  1  0
 21 39  1  0
 25 40  1  0
 26 41  1  0
 26 42  1  0
 26 43  1  0
 27 44  1  0
 27 45  1  0
 27 46  1  0
M  ISO  8  28  14  29  14  30  14  31  14  32  14  33  14  36  14  37  14
M  ISO  8  38  14  39  14  40   8  41   8  42   8  43   8  44   8  45   8
M  ISO  1  46   8
M  END
>  <minimizedAffinity>  (1) 
-5.30492306

>  <minimizedRMSD>  (1) 
5.01524162

$$$$
