
     RDKit          3D

 50 54  0  0  0  0  0  0  0  0999 V2000
   38.0530   24.7120   36.0570 C   0  0  0  0  0  0  0  0  0  0  0  0
   38.9630   23.7010   35.6840 C   0  0  0  0  0  0  0  0  0  0  0  0
   39.5240   23.7280   34.4190 C   0  0  0  0  0  0  0  0  0  0  0  0
   39.1580   24.7590   33.5740 N   0  0  0  0  0  0  0  0  0  0  0  0
   38.2900   25.7040   33.9610 C   0  0  0  0  0  0  0  0  0  0  0  0
   37.7390   25.6830   35.1940 N   0  0  0  0  0  0  0  0  0  0  0  0
   37.9170   26.7850   33.0520 C   0  0  0  0  0  0  0  0  0  0  0  0
   36.7900   27.5390   33.3070 C   0  0  0  0  0  0  0  0  0  0  0  0
   36.5210   28.5370   32.3900 C   0  0  0  0  0  0  0  0  0  0  0  0
   37.2460   28.8280   31.3000 N   0  0  0  0  0  0  0  0  0  0  0  0
   38.3380   28.0540   31.1030 C   0  0  0  0  0  0  0  0  0  0  0  0
   38.6520   27.0730   31.9530 N   0  0  0  0  0  0  0  0  0  0  0  0
   39.1580   28.3020   29.9670 N   0  0  0  0  0  0  0  0  0  0  0  0
   40.6080   28.3520   30.0070 C   0  0  0  0  0  0  0  0  0  0  0  0
   41.0550   27.2720   29.0120 C   0  0  0  0  0  0  0  0  0  0  0  0
   40.6690   27.6880   27.7640 O   0  0  0  0  0  0  0  0  0  0  0  0
   39.3190   27.8210   27.5560 C   0  0  0  0  0  0  0  0  0  0  0  0
   38.5740   28.5260   28.6600 C   0  0  0  0  0  0  0  0  0  0  0  0
   40.4560   22.6730   34.0670 C   0  0  0  0  0  0  0  0  0  0  0  0
   40.0690   21.5180   33.3740 C   0  0  0  0  0  0  0  0  0  0  0  0
   41.2120   20.7850   33.2380 N   0  0  0  0  0  0  0  0  0  0  0  0
   42.2040   21.4950   33.8290 C   0  0  0  0  0  0  0  0  0  0  0  0
   41.7780   22.6200   34.3270 N   0  0  0  0  0  0  0  0  0  0  0  0
   42.6300   23.5370   34.9970 C   0  0  0  0  0  0  0  0  0  0  0  0
   43.1630   23.2910   36.2610 C   0  0  0  0  0  0  0  0  0  0  0  0
   43.9870   24.1720   36.9160 C   0  0  0  0  0  0  0  0  0  0  0  0
   44.3230   25.3560   36.3340 C   0  0  0  0  0  0  0  0  0  0  0  0
   43.8360   25.6570   35.1000 C   0  0  0  0  0  0  0  0  0  0  0  0
   43.0110   24.7660   34.4560 C   0  0  0  0  0  0  0  0  0  0  0  0
   42.5330   25.1260   33.1770 N   0  0  0  0  0  0  0  0  0  0  0  0
   37.6010   24.7013   37.0598 H   0  0  0  0  0  0  0  0  0  0  0  0
   39.2241   22.8997   36.3909 H   0  0  0  0  0  0  0  0  0  0  0  0
   36.1484   27.3577   34.1819 H   0  0  0  0  0  0  0  0  0  0  0  0
   35.6268   29.1514   32.5714 H   0  0  0  0  0  0  0  0  0  0  0  0
   40.9720   29.3423   29.6960 H   0  0  0  0  0  0  0  0  0  0  0  0
   41.0056   28.1808   31.0182 H   0  0  0  0  0  0  0  0  0  0  0  0
   42.1481   27.1542   29.0490 H   0  0  0  0  0  0  0  0  0  0  0  0
   40.6008   26.3009   29.2585 H   0  0  0  0  0  0  0  0  0  0  0  0
   39.1708   28.3898   26.6262 H   0  0  0  0  0  0  0  0  0  0  0  0
   38.9114   26.8003   27.5113 H   0  0  0  0  0  0  0  0  0  0  0  0
   38.5802   29.6064   28.4533 H   0  0  0  0  0  0  0  0  0  0  0  0
   37.5523   28.1190   28.6809 H   0  0  0  0  0  0  0  0  0  0  0  0
   39.0615   21.2584   33.0168 H   0  0  0  0  0  0  0  0  0  0  0  0
   43.2501   21.1589   33.8818 H   0  0  0  0  0  0  0  0  0  0  0  0
   42.9107   22.3431   36.7588 H   0  0  0  0  0  0  0  0  0  0  0  0
   44.3768   23.9208   37.9135 H   0  0  0  0  0  0  0  0  0  0  0  0
   44.9829   26.0635   36.8574 H   0  0  0  0  0  0  0  0  0  0  0  0
   44.1015   26.6101   34.6192 H   0  0  0  0  0  0  0  0  0  0  0  0
   42.8034   26.0289   32.7615 H   0  0  0  0  0  0  0  0  0  0  0  0
   41.9139   24.4857   32.6596 H   0  0  0  0  0  0  0  0  0  0  0  0
  2  1  2  0
  3  2  1  0
  4  5  1  0
  4  3  2  0
  5  6  2  0
  6  1  1  0
  7  8  2  0
  7  5  1  0
  9  8  1  0
 10  9  2  0
 11 10  1  0
 11 12  2  0
 12  7  1  0
 13 14  1  0
 13 11  1  0
 15 14  1  0
 16 15  1  0
 17 16  1  0
 17 18  1  0
 18 13  1  0
 19 23  1  0
 19  3  1  0
 20 19  2  0
 21 20  1  0
 21 22  2  0
 22 23  1  0
 23 24  1  0
 24 25  2  0
 25 26  1  0
 27 26  2  0
 28 27  1  0
 29 24  1  0
 29 28  2  0
 30 29  1  0
  1 31  1  0
  2 32  1  0
  8 33  1  0
  9 34  1  0
 14 35  1  0
 14 36  1  0
 15 37  1  0
 15 38  1  0
 17 39  1  0
 17 40  1  0
 18 41  1  0
 18 42  1  0
 20 43  1  0
 22 44  1  0
 25 45  1  0
 26 46  1  0
 27 47  1  0
 28 48  1  0
 30 49  1  0
 30 50  1  0
M  ISO  8  31  14  32  14  33  14  34  14  35  13  36  13  37  13  38  13
M  ISO  8  39  13  40  13  41  13  42  13  43  14  44  14  45  14  46  14
M  ISO  2  47  14  48  14
M  END
>  <minimizedAffinity>  (1) 
-5.17381907

>  <minimizedRMSD>  (1) 
2.38967729

$$$$
