
     RDKit          3D

 53 57  0  0  0  0  0  0  0  0999 V2000
   38.5330   24.5490   36.5730 C   0  0  0  0  0  0  0  0  0  0  0  0
   39.5060   23.6230   36.1630 C   0  0  0  0  0  0  0  0  0  0  0  0
   40.0020   23.6810   34.8620 C   0  0  0  0  0  0  0  0  0  0  0  0
   39.4980   24.6620   34.0480 N   0  0  0  0  0  0  0  0  0  0  0  0
   38.5760   25.5290   34.4620 C   0  0  0  0  0  0  0  0  0  0  0  0
   38.0960   25.4720   35.7190 N   0  0  0  0  0  0  0  0  0  0  0  0
   38.0620   26.5630   33.5630 C   0  0  0  0  0  0  0  0  0  0  0  0
   36.8660   27.1910   33.8480 C   0  0  0  0  0  0  0  0  0  0  0  0
   36.4710   28.1510   32.9360 C   0  0  0  0  0  0  0  0  0  0  0  0
   37.1270   28.5200   31.8240 N   0  0  0  0  0  0  0  0  0  0  0  0
   38.2980   27.8630   31.5970 C   0  0  0  0  0  0  0  0  0  0  0  0
   38.7280   26.9200   32.4550 N   0  0  0  0  0  0  0  0  0  0  0  0
   39.2090   28.0830   30.4420 C   0  0  0  0  0  0  0  0  0  0  0  0
   38.7170   29.1660   29.5030 C   0  0  0  0  0  0  0  0  0  0  0  0
   39.8770   29.6050   28.6560 C   0  0  0  0  0  0  0  0  0  0  0  0
   40.4310   28.4010   27.9330 C   0  0  0  0  0  0  0  0  0  0  0  0
   39.5630   27.1780   28.1340 C   0  0  0  0  0  0  0  0  0  0  0  0
   39.3790   26.8400   29.5970 C   0  0  0  0  0  0  0  0  0  0  0  0
   41.0050   22.7060   34.4770 C   0  0  0  0  0  0  0  0  0  0  0  0
   40.6810   21.5160   33.8090 C   0  0  0  0  0  0  0  0  0  0  0  0
   41.8690   20.8800   33.6250 N   0  0  0  0  0  0  0  0  0  0  0  0
   42.8370   21.6790   34.1680 C   0  0  0  0  0  0  0  0  0  0  0  0
   42.3380   22.7690   34.6780 N   0  0  0  0  0  0  0  0  0  0  0  0
   43.1340   23.7560   35.2990 C   0  0  0  0  0  0  0  0  0  0  0  0
   43.5960   23.6670   36.6150 C   0  0  0  0  0  0  0  0  0  0  0  0
   44.3700   24.6270   37.2140 C   0  0  0  0  0  0  0  0  0  0  0  0
   44.7330   25.7460   36.5290 C   0  0  0  0  0  0  0  0  0  0  0  0
   44.3160   25.8990   35.2350 C   0  0  0  0  0  0  0  0  0  0  0  0
   43.5420   24.9270   34.6520 C   0  0  0  0  0  0  0  0  0  0  0  0
   43.1480   25.1500   33.3170 N   0  0  0  0  0  0  0  0  0  0  0  0
   38.1331   24.5117   37.5970 H   0  0  0  0  0  0  0  0  0  0  0  0
   39.8736   22.8582   36.8630 H   0  0  0  0  0  0  0  0  0  0  0  0
   36.2694   26.9444   34.7386 H   0  0  0  0  0  0  0  0  0  0  0  0
   35.5212   28.6661   33.1422 H   0  0  0  0  0  0  0  0  0  0  0  0
   40.1618   28.3776   30.9061 H   0  0  0  0  0  0  0  0  0  0  0  0
   37.9155   28.7694   28.8624 H   0  0  0  0  0  0  0  0  0  0  0  0
   38.3169   30.0162   30.0750 H   0  0  0  0  0  0  0  0  0  0  0  0
   39.5387   30.3531   27.9240 H   0  0  0  0  0  0  0  0  0  0  0  0
   40.6562   30.0527   29.2904 H   0  0  0  0  0  0  0  0  0  0  0  0
   41.4401   28.1886   28.3159 H   0  0  0  0  0  0  0  0  0  0  0  0
   40.4571   28.6295   26.8573 H   0  0  0  0  0  0  0  0  0  0  0  0
   38.5757   27.3675   27.6876 H   0  0  0  0  0  0  0  0  0  0  0  0
   40.0645   26.3259   27.6518 H   0  0  0  0  0  0  0  0  0  0  0  0
   38.4847   26.2091   29.7072 H   0  0  0  0  0  0  0  0  0  0  0  0
   40.2797   26.3115   29.9424 H   0  0  0  0  0  0  0  0  0  0  0  0
   39.6827   21.1718   33.5008 H   0  0  0  0  0  0  0  0  0  0  0  0
   43.9087   21.4310   34.1735 H   0  0  0  0  0  0  0  0  0  0  0  0
   43.3236   22.7778   37.2025 H   0  0  0  0  0  0  0  0  0  0  0  0
   44.6998   24.4922   38.2547 H   0  0  0  0  0  0  0  0  0  0  0  0
   45.3533   26.5169   37.0095 H   0  0  0  0  0  0  0  0  0  0  0  0
   44.5995   26.7961   34.6650 H   0  0  0  0  0  0  0  0  0  0  0  0
   42.5663   24.4543   32.8286 H   0  0  0  0  0  0  0  0  0  0  0  0
   43.4418   26.0087   32.8299 H   0  0  0  0  0  0  0  0  0  0  0  0
  2  1  2  0
  3  2  1  0
  4  5  1  0
  4  3  2  0
  5  6  2  0
  6  1  1  0
  7  8  2  0
  7  5  1  0
  9  8  1  0
 10  9  2  0
 11 10  1  0
 11 12  2  0
 12  7  1  0
 13 11  1  0
 14 13  1  0
 15 14  1  0
 16 17  1  0
 16 15  1  0
 17 18  1  0
 18 13  1  0
 19 23  1  0
 19  3  1  0
 20 19  2  0
 21 20  1  0
 21 22  2  0
 22 23  1  0
 23 24  1  0
 24 25  2  0
 25 26  1  0
 27 26  2  0
 28 27  1  0
 29 28  2  0
 29 24  1  0
 30 29  1  0
  1 31  1  0
  2 32  1  0
  8 33  1  0
  9 34  1  0
 13 35  1  0
 14 36  1  0
 14 37  1  0
 15 38  1  0
 15 39  1  0
 16 40  1  0
 16 41  1  0
 17 42  1  0
 17 43  1  0
 18 44  1  0
 18 45  1  0
 20 46  1  0
 22 47  1  0
 25 48  1  0
 26 49  1  0
 27 50  1  0
 28 51  1  0
 30 52  1  0
 30 53  1  0
M  ISO  8  31  14  32  14  33  14  34  14  35  13  36  13  37  13  38  13
M  ISO  8  39  13  40  13  41  13  42  13  43  13  44  13  45  13  46  14
M  ISO  5  47  14  48  14  49  14  50  14  51  14
M  END
>  <minimizedAffinity>  (1) 
-5.06295395

>  <minimizedRMSD>  (1) 
2.36626959

$$$$
