
     RDKit          3D

 37 39  0  0  0  0  0  0  0  0999 V2000
   40.4070   26.4310   34.7910 C   0  0  0  0  0  0  0  0  0  0  0  0
   39.1310   26.9670   34.2290 C   0  0  0  0  0  0  0  0  0  0  0  0
   38.0640   27.2480   35.0850 C   0  0  0  0  0  0  0  0  0  0  0  0
   36.8410   27.7480   34.6560 C   0  0  0  0  0  0  0  0  0  0  0  0
   36.7020   27.9670   33.3150 N   0  0  0  0  0  0  0  0  0  0  0  0
   37.7360   27.6950   32.4830 C   0  0  0  0  0  0  0  0  0  0  0  0
   38.9260   27.2030   32.9480 N   0  0  0  0  0  0  0  0  0  0  0  0
   37.6260   27.9160   31.0460 C   0  0  0  0  0  0  0  0  0  0  0  0
   38.7490   28.1800   30.2780 C   0  0  0  0  0  0  0  0  0  0  0  0
   38.3280   28.3440   28.9510 C   0  0  0  0  0  0  0  0  0  0  0  0
   36.9840   28.1760   28.9660 N   0  0  0  0  0  0  0  0  0  0  0  0
   36.5550   27.9210   30.2020 N   0  0  0  0  0  0  0  0  0  0  0  0
   40.7000   25.0300   34.2980 C   0  0  0  0  0  0  0  0  0  0  0  0
   41.6020   22.4300   36.8210 C   0  0  0  0  0  0  0  0  0  0  0  0
   40.4430   22.4090   37.6110 C   0  0  0  0  0  0  0  0  0  0  0  0
   39.3910   23.2600   37.2820 C   0  0  0  0  0  0  0  0  0  0  0  0
   39.5290   24.0790   36.2100 N   0  0  0  0  0  0  0  0  0  0  0  0
   40.6740   24.0750   35.4620 C   0  0  0  0  0  0  0  0  0  0  0  0
   41.6780   23.2670   35.7680 N   0  0  0  0  0  0  0  0  0  0  0  0
   38.1860   23.2160   38.1300 C   0  0  0  0  0  0  0  0  0  0  0  0
   37.9000   24.5790   38.7230 C   0  0  0  0  0  0  0  0  0  0  0  0
   41.2328   27.0929   34.4911 H   0  0  0  0  0  0  0  0  0  0  0  0
   40.3059   26.3916   35.8856 H   0  0  0  0  0  0  0  0  0  0  0  0
   38.1998   27.0628   36.1608 H   0  0  0  0  0  0  0  0  0  0  0  0
   36.0240   27.9574   35.3622 H   0  0  0  0  0  0  0  0  0  0  0  0
   39.7841   28.2485   30.6438 H   0  0  0  0  0  0  0  0  0  0  0  0
   38.9592   28.5639   28.0773 H   0  0  0  0  0  0  0  0  0  0  0  0
   36.3768   28.2369   28.1362 H   0  0  0  0  0  0  0  0  0  0  0  0
   39.9381   24.7329   33.5623 H   0  0  0  0  0  0  0  0  0  0  0  0
   41.6931   25.0067   33.8255 H   0  0  0  0  0  0  0  0  0  0  0  0
   42.4455   21.7657   37.0603 H   0  0  0  0  0  0  0  0  0  0  0  0
   40.3665   21.7324   38.4749 H   0  0  0  0  0  0  0  0  0  0  0  0
   37.3267   22.8997   37.5205 H   0  0  0  0  0  0  0  0  0  0  0  0
   38.3556   22.5020   38.9494 H   0  0  0  0  0  0  0  0  0  0  0  0
   37.9142   24.5115   39.8208 H   0  0  0  0  0  0  0  0  0  0  0  0
   38.6680   25.2924   38.3896 H   0  0  0  0  0  0  0  0  0  0  0  0
   36.9100   24.9235   38.3896 H   0  0  0  0  0  0  0  0  0  0  0  0
  2  1  1  0
  2  3  2  0
  4  3  1  0
  5  4  2  0
  6  7  2  0
  6  5  1  0
  7  2  1  0
  8  6  1  0
  9  8  1  0
 10 11  1  0
 10  9  2  0
 11 12  1  0
 12  8  2  0
 13  1  1  0
 13 18  1  0
 14 15  2  0
 16 15  1  0
 16 20  1  0
 17 16  2  0
 18 19  2  0
 18 17  1  0
 19 14  1  0
 20 21  1  0
  1 22  1  0
  1 23  1  0
  3 24  1  0
  4 25  1  0
  9 26  1  0
 10 27  1  0
 11 28  1  0
 13 29  1  0
 13 30  1  0
 14 31  1  0
 15 32  1  0
 20 33  1  0
 20 34  1  0
 21 35  1  0
 21 36  1  0
 21 37  1  0
M  ISO  8  22   8  23   8  24  14  25  14  26  14  27  14  28   9  29   8
M  ISO  8  30   8  31  14  32  14  33   8  34   8  35   8  36   8  37   8
M  END
>  <minimizedAffinity>  (1) 
-5.3328557

>  <minimizedRMSD>  (1) 
1.4304142

$$$$
