
     RDKit          3D

 31 34  0  0  0  0  0  0  0  0999 V2000
   39.9260   22.9920   37.4290 C   0  0  0  0  0  0  0  0  0  0  0  0
   39.0780   23.1420   38.5460 C   0  0  0  0  0  0  0  0  0  0  0  0
   37.8300   23.7290   38.3190 C   0  0  0  0  0  0  0  0  0  0  0  0
   37.4780   24.1260   37.0660 N   0  0  0  0  0  0  0  0  0  0  0  0
   38.3240   23.9610   36.0230 C   0  0  0  0  0  0  0  0  0  0  0  0
   39.5350   23.3990   36.2090 N   0  0  0  0  0  0  0  0  0  0  0  0
   38.0020   24.3620   34.6940 N   0  0  0  0  0  0  0  0  0  0  0  0
   38.1510   23.5170   33.6550 C   0  0  0  0  0  0  0  0  0  0  0  0
   37.7670   24.1810   32.5320 N   0  0  0  0  0  0  0  0  0  0  0  0
   37.3830   25.4260   32.8530 C   0  0  0  0  0  0  0  0  0  0  0  0
   36.9060   26.5530   32.2050 C   0  0  0  0  0  0  0  0  0  0  0  0
   36.7660   26.4620   30.9480 O   0  0  0  0  0  0  0  0  0  0  0  0
   36.6140   27.6870   32.9240 N   0  0  0  0  0  0  0  0  0  0  0  0
   36.7780   27.7380   34.2410 C   0  0  0  0  0  0  0  0  0  0  0  0
   36.4320   28.9890   34.8060 N   0  0  0  0  0  0  0  0  0  0  0  0
   37.2430   26.6460   34.8930 N   0  0  0  0  0  0  0  0  0  0  0  0
   37.5330   25.5360   34.2210 C   0  0  0  0  0  0  0  0  0  0  0  0
   35.7750   30.0110   30.2820 N   0  0  0  0  0  0  0  0  0  0  0  0
   36.4160   28.9700   30.7380 N   0  0  0  0  0  0  0  0  0  0  0  0
   36.1360   28.7190   32.0390 C   0  0  0  0  0  0  0  0  0  0  0  0
   35.2460   29.7330   32.3160 C   0  0  0  0  0  0  0  0  0  0  0  0
   35.0150   30.5400   31.2350 C   0  0  0  0  0  0  0  0  0  0  0  0
   40.9190   22.5366   37.5577 H   0  0  0  0  0  0  0  0  0  0  0  0
   39.3847   22.8122   39.5496 H   0  0  0  0  0  0  0  0  0  0  0  0
   37.1302   23.8705   39.1558 H   0  0  0  0  0  0  0  0  0  0  0  0
   38.5161   22.4806   33.7058 H   0  0  0  0  0  0  0  0  0  0  0  0
   36.5213   29.1379   35.8213 H   0  0  0  0  0  0  0  0  0  0  0  0
   36.0910   29.7503   34.2018 H   0  0  0  0  0  0  0  0  0  0  0  0
   35.8478   30.3715   29.3199 H   0  0  0  0  0  0  0  0  0  0  0  0
   34.7728   29.8783   33.2983 H   0  0  0  0  0  0  0  0  0  0  0  0
   34.3562   31.4185   31.1704 H   0  0  0  0  0  0  0  0  0  0  0  0
  1  2  2  0
  3  2  1  0
  4  3  2  0
  5  6  2  0
  5  4  1  0
  6  1  1  0
  7  5  1  0
  8  7  1  0
  9 10  1  0
  9  8  2  0
 10 17  2  0
 11 10  1  0
 11 13  1  0
 12 11  2  0
 13 14  1  0
 14 15  1  0
 14 16  2  0
 17  7  1  0
 17 16  1  0
 18 19  1  0
 18 22  1  0
 19 20  2  0
 20 21  1  0
 20 13  1  0
 22 21  2  0
  1 23  1  0
  2 24  1  0
  3 25  1  0
  8 26  1  0
 15 27  1  0
 15 28  1  0
 18 29  1  0
 21 30  1  0
 22 31  1  0
M  ISO  7  23  14  24  14  25  14  26  14  29   9  30  14  31  14
M  END
>  <minimizedAffinity>  (1) 
-6.29485989

>  <minimizedRMSD>  (1) 
1.92642927

$$$$
