
     RDKit          3D

 29 32  0  0  0  0  0  0  0  0999 V2000
   39.9390   23.0090   37.4610 C   0  0  0  0  0  0  0  0  0  0  0  0
   39.0810   23.1520   38.5740 C   0  0  0  0  0  0  0  0  0  0  0  0
   37.8130   23.7290   38.3220 C   0  0  0  0  0  0  0  0  0  0  0  0
   37.4790   24.1120   37.0610 N   0  0  0  0  0  0  0  0  0  0  0  0
   38.3380   23.9540   36.0310 C   0  0  0  0  0  0  0  0  0  0  0  0
   39.5460   23.4090   36.2450 N   0  0  0  0  0  0  0  0  0  0  0  0
   38.0440   24.3360   34.6880 N   0  0  0  0  0  0  0  0  0  0  0  0
   38.2330   23.5010   33.6630 C   0  0  0  0  0  0  0  0  0  0  0  0
   37.8630   24.1600   32.5200 N   0  0  0  0  0  0  0  0  0  0  0  0
   37.4470   25.3970   32.8450 C   0  0  0  0  0  0  0  0  0  0  0  0
   36.9610   26.5190   32.1770 C   0  0  0  0  0  0  0  0  0  0  0  0
   36.8500   26.4370   30.9240 O   0  0  0  0  0  0  0  0  0  0  0  0
   36.6340   27.6260   32.8760 N   0  0  0  0  0  0  0  0  0  0  0  0
   36.7580   27.7000   34.2150 C   0  0  0  0  0  0  0  0  0  0  0  0
   36.3610   28.9490   34.7820 N   0  0  0  0  0  0  0  0  0  0  0  0
   37.2320   26.6100   34.8770 N   0  0  0  0  0  0  0  0  0  0  0  0
   37.5600   25.5100   34.2120 C   0  0  0  0  0  0  0  0  0  0  0  0
   36.1450   28.7220   32.0950 C   0  0  0  0  0  0  0  0  0  0  0  0
   34.9660   29.3640   32.1380 N   0  0  0  0  0  0  0  0  0  0  0  0
   34.9790   30.2840   31.2420 O   0  0  0  0  0  0  0  0  0  0  0  0
   36.0980   30.3090   30.5910 C   0  0  0  0  0  0  0  0  0  0  0  0
   36.8490   29.3400   31.1030 N   0  0  0  0  0  0  0  0  0  0  0  0
   40.9370   22.5659   37.5941 H   0  0  0  0  0  0  0  0  0  0  0  0
   39.3820   22.8322   39.5825 H   0  0  0  0  0  0  0  0  0  0  0  0
   37.0980   23.8674   39.1464 H   0  0  0  0  0  0  0  0  0  0  0  0
   38.6160   22.4717   33.7250 H   0  0  0  0  0  0  0  0  0  0  0  0
   36.4220   29.0952   35.7997 H   0  0  0  0  0  0  0  0  0  0  0  0
   36.0136   29.7037   34.1732 H   0  0  0  0  0  0  0  0  0  0  0  0
   36.3722   30.9956   29.7765 H   0  0  0  0  0  0  0  0  0  0  0  0
  1  2  2  0
  3  2  1  0
  4  3  2  0
  5  6  2  0
  5  4  1  0
  6  1  1  0
  7  5  1  0
  8  7  1  0
  9 10  1  0
  9  8  2  0
 10 17  2  0
 11 10  1  0
 11 13  1  0
 12 11  2  0
 13 14  1  0
 14 15  1  0
 14 16  2  0
 17  7  1  0
 17 16  1  0
 18 19  2  0
 18 13  1  0
 20 19  1  0
 21 22  2  0
 21 20  1  0
 22 18  1  0
  1 23  1  0
  2 24  1  0
  3 25  1  0
  8 26  1  0
 15 27  1  0
 15 28  1  0
 21 29  1  0
M  ISO  5  23  14  24  14  25  14  26  14  29  14
M  END
>  <minimizedAffinity>  (1) 
-6.04285669

>  <minimizedRMSD>  (1) 
1.87511063

$$$$
