
     RDKit          3D

 33 36  0  0  0  0  0  0  0  0999 V2000
   39.9740   22.9670   37.3330 C   0  0  0  0  0  0  0  0  0  0  0  0
   39.1540   23.1340   38.4830 C   0  0  0  0  0  0  0  0  0  0  0  0
   37.9050   23.7320   38.2960 C   0  0  0  0  0  0  0  0  0  0  0  0
   37.5260   24.1230   37.0520 N   0  0  0  0  0  0  0  0  0  0  0  0
   38.3480   23.9410   35.9730 C   0  0  0  0  0  0  0  0  0  0  0  0
   39.5570   23.3700   36.1130 N   0  0  0  0  0  0  0  0  0  0  0  0
   37.9730   24.3430   34.6650 N   0  0  0  0  0  0  0  0  0  0  0  0
   38.0750   23.4780   33.6230 C   0  0  0  0  0  0  0  0  0  0  0  0
   37.6460   24.1310   32.5030 N   0  0  0  0  0  0  0  0  0  0  0  0
   37.2800   25.3820   32.8310 C   0  0  0  0  0  0  0  0  0  0  0  0
   36.7730   26.5170   32.1980 C   0  0  0  0  0  0  0  0  0  0  0  0
   36.5800   26.4140   30.9600 O   0  0  0  0  0  0  0  0  0  0  0  0
   36.5210   27.6370   32.9050 N   0  0  0  0  0  0  0  0  0  0  0  0
   36.7390   27.7130   34.2150 C   0  0  0  0  0  0  0  0  0  0  0  0
   36.4320   28.9810   34.8120 N   0  0  0  0  0  0  0  0  0  0  0  0
   37.2320   26.6250   34.8700 N   0  0  0  0  0  0  0  0  0  0  0  0
   37.4870   25.5120   34.1970 C   0  0  0  0  0  0  0  0  0  0  0  0
   36.0000   28.8080   32.2720 C   0  0  0  0  0  0  0  0  0  0  0  0
   36.6460   29.6730   31.4420 C   0  0  0  0  0  0  0  0  0  0  0  0
   36.0960   30.7870   30.8590 C   0  0  0  0  0  0  0  0  0  0  0  0
   34.7770   31.1020   31.1030 C   0  0  0  0  0  0  0  0  0  0  0  0
   34.1170   30.2360   31.9370 C   0  0  0  0  0  0  0  0  0  0  0  0
   34.7260   29.1750   32.4630 N   0  0  0  0  0  0  0  0  0  0  0  0
   40.9650   22.5016   37.4389 H   0  0  0  0  0  0  0  0  0  0  0  0
   39.4890   22.8061   39.4781 H   0  0  0  0  0  0  0  0  0  0  0  0
   37.2320   23.8853   39.1524 H   0  0  0  0  0  0  0  0  0  0  0  0
   38.4372   22.4405   33.6722 H   0  0  0  0  0  0  0  0  0  0  0  0
   36.5730   29.1221   35.8225 H   0  0  0  0  0  0  0  0  0  0  0  0
   36.0706   29.7502   34.2301 H   0  0  0  0  0  0  0  0  0  0  0  0
   37.7019   29.4600   31.2192 H   0  0  0  0  0  0  0  0  0  0  0  0
   36.7045   31.4246   30.2009 H   0  0  0  0  0  0  0  0  0  0  0  0
   34.2891   31.9834   30.6613 H   0  0  0  0  0  0  0  0  0  0  0  0
   33.0598   30.4223   32.1770 H   0  0  0  0  0  0  0  0  0  0  0  0
  1  2  2  0
  3  2  1  0
  4  3  2  0
  5  6  2  0
  5  4  1  0
  6  1  1  0
  7  5  1  0
  8  7  1  0
  9 10  1  0
  9  8  2  0
 10 17  2  0
 11 10  1  0
 11 13  1  0
 12 11  2  0
 13 14  1  0
 14 15  1  0
 14 16  2  0
 17  7  1  0
 17 16  1  0
 18 23  1  0
 18 13  1  0
 19 18  2  0
 20 21  2  0
 20 19  1  0
 21 22  1  0
 22 23  2  0
  1 24  1  0
  2 25  1  0
  3 26  1  0
  8 27  1  0
 15 28  1  0
 15 29  1  0
 19 30  1  0
 20 31  1  0
 21 32  1  0
 22 33  1  0
M  ISO  8  24  14  25  14  26  14  27  14  30  14  31  14  32  14  33  14
M  END
>  <minimizedAffinity>  (1) 
-5.91593838

>  <minimizedRMSD>  (1) 
2.10747528

$$$$
