
     RDKit          3D

 34 37  0  0  0  0  0  0  0  0999 V2000
   40.0800   23.0130   36.9080 C   0  0  0  0  0  0  0  0  0  0  0  0
   39.3780   23.1050   38.1360 C   0  0  0  0  0  0  0  0  0  0  0  0
   38.1080   23.7330   38.1010 C   0  0  0  0  0  0  0  0  0  0  0  0
   37.6400   24.2040   36.9150 N   0  0  0  0  0  0  0  0  0  0  0  0
   38.3490   24.0940   35.7650 C   0  0  0  0  0  0  0  0  0  0  0  0
   39.5600   23.5000   35.7760 N   0  0  0  0  0  0  0  0  0  0  0  0
   37.8780   24.5800   34.5230 N   0  0  0  0  0  0  0  0  0  0  0  0
   37.8820   23.7910   33.4200 C   0  0  0  0  0  0  0  0  0  0  0  0
   37.3760   24.5220   32.3840 N   0  0  0  0  0  0  0  0  0  0  0  0
   37.0590   25.7400   32.8180 C   0  0  0  0  0  0  0  0  0  0  0  0
   36.5220   26.9310   32.3100 C   0  0  0  0  0  0  0  0  0  0  0  0
   36.2270   26.9170   31.0800 O   0  0  0  0  0  0  0  0  0  0  0  0
   36.3430   28.0140   33.1230 N   0  0  0  0  0  0  0  0  0  0  0  0
   36.6660   27.9950   34.4150 C   0  0  0  0  0  0  0  0  0  0  0  0
   36.4070   29.2130   35.0920 N   0  0  0  0  0  0  0  0  0  0  0  0
   37.1900   26.8580   34.9500 N   0  0  0  0  0  0  0  0  0  0  0  0
   37.3750   25.7800   34.1670 C   0  0  0  0  0  0  0  0  0  0  0  0
   35.7820   29.1360   32.4170 C   0  0  0  0  0  0  0  0  0  0  0  0
   34.4130   29.3220   32.6090 C   0  0  0  0  0  0  0  0  0  0  0  0
   33.7180   30.3530   32.0050 C   0  0  0  0  0  0  0  0  0  0  0  0
   34.4690   31.1810   31.2000 C   0  0  0  0  0  0  0  0  0  0  0  0
   35.8240   31.0410   30.9770 C   0  0  0  0  0  0  0  0  0  0  0  0
   36.4960   29.9920   31.6010 C   0  0  0  0  0  0  0  0  0  0  0  0
   41.0694   22.5328   36.8856 H   0  0  0  0  0  0  0  0  0  0  0  0
   39.7989   22.7079   39.0715 H   0  0  0  0  0  0  0  0  0  0  0  0
   37.5107   23.8376   39.0188 H   0  0  0  0  0  0  0  0  0  0  0  0
   38.2305   22.7489   33.3692 H   0  0  0  0  0  0  0  0  0  0  0  0
   36.6223   29.3003   36.0955 H   0  0  0  0  0  0  0  0  0  0  0  0
   36.0035   30.0108   34.5805 H   0  0  0  0  0  0  0  0  0  0  0  0
   33.8683   28.6250   33.2628 H   0  0  0  0  0  0  0  0  0  0  0  0
   32.6388   30.5021   32.1568 H   0  0  0  0  0  0  0  0  0  0  0  0
   33.9521   32.0129   30.6993 H   0  0  0  0  0  0  0  0  0  0  0  0
   36.3613   31.7420   30.3213 H   0  0  0  0  0  0  0  0  0  0  0  0
   37.5756   29.8480   31.4467 H   0  0  0  0  0  0  0  0  0  0  0  0
  1  2  2  0
  3  2  1  0
  4  3  2  0
  5  6  2  0
  5  4  1  0
  6  1  1  0
  7  5  1  0
  8  7  1  0
  9 10  1  0
  9  8  2  0
 10 17  2  0
 11 10  1  0
 11 13  1  0
 12 11  2  0
 13 14  1  0
 14 16  2  0
 14 15  1  0
 17  7  1  0
 17 16  1  0
 18 19  2  0
 18 13  1  0
 20 19  1  0
 21 20  2  0
 22 21  1  0
 22 23  2  0
 23 18  1  0
  1 24  1  0
  2 25  1  0
  3 26  1  0
  8 27  1  0
 15 28  1  0
 15 29  1  0
 19 30  1  0
 20 31  1  0
 21 32  1  0
 22 33  1  0
 23 34  1  0
M  ISO  8  24  14  25  14  26  14  27  14  30  14  31  14  32  14  33  14
M  ISO  1  34  14
M  END
>  <minimizedAffinity>  (1) 
-5.81677246

>  <minimizedRMSD>  (1) 
2.47727156

$$$$
