
     RDKit          3D

 31 34  0  0  0  0  0  0  0  0999 V2000
   39.9520   22.9780   37.3470 C   0  0  0  0  0  0  0  0  0  0  0  0
   39.1580   23.1360   38.5170 C   0  0  0  0  0  0  0  0  0  0  0  0
   37.9010   23.7760   38.3630 C   0  0  0  0  0  0  0  0  0  0  0  0
   37.5220   24.2000   37.1310 N   0  0  0  0  0  0  0  0  0  0  0  0
   38.3290   24.0200   36.0410 C   0  0  0  0  0  0  0  0  0  0  0  0
   39.5180   23.4220   36.1520 N   0  0  0  0  0  0  0  0  0  0  0  0
   37.9460   24.4590   34.7410 N   0  0  0  0  0  0  0  0  0  0  0  0
   38.0240   23.6340   33.6770 C   0  0  0  0  0  0  0  0  0  0  0  0
   37.5940   24.3230   32.5780 N   0  0  0  0  0  0  0  0  0  0  0  0
   37.2530   25.5580   32.9420 C   0  0  0  0  0  0  0  0  0  0  0  0
   36.7560   26.7250   32.3400 C   0  0  0  0  0  0  0  0  0  0  0  0
   36.5500   26.6630   31.1000 O   0  0  0  0  0  0  0  0  0  0  0  0
   36.5280   27.8390   33.1040 N   0  0  0  0  0  0  0  0  0  0  0  0
   36.7620   27.8600   34.4120 C   0  0  0  0  0  0  0  0  0  0  0  0
   36.4640   29.1160   34.9920 N   0  0  0  0  0  0  0  0  0  0  0  0
   37.2430   26.7490   35.0270 N   0  0  0  0  0  0  0  0  0  0  0  0
   37.4760   25.6390   34.3030 C   0  0  0  0  0  0  0  0  0  0  0  0
   36.0240   28.9300   32.3270 C   0  0  0  0  0  0  0  0  0  0  0  0
   36.5340   29.8220   31.4010 C   0  0  0  0  0  0  0  0  0  0  0  0
   35.4470   30.6220   31.0560 C   0  0  0  0  0  0  0  0  0  0  0  0
   34.3530   30.1770   31.7830 C   0  0  0  0  0  0  0  0  0  0  0  0
   34.7370   29.1700   32.5260 O   0  0  0  0  0  0  0  0  0  0  0  0
   40.9335   22.4866   37.4195 H   0  0  0  0  0  0  0  0  0  0  0  0
   39.5035   22.7777   39.4980 H   0  0  0  0  0  0  0  0  0  0  0  0
   37.2423   23.9265   39.2311 H   0  0  0  0  0  0  0  0  0  0  0  0
   38.3723   22.5907   33.6913 H   0  0  0  0  0  0  0  0  0  0  0  0
   36.6026   29.2627   36.0020 H   0  0  0  0  0  0  0  0  0  0  0  0
   36.1085   29.8834   34.4041 H   0  0  0  0  0  0  0  0  0  0  0  0
   37.5649   29.8853   31.0226 H   0  0  0  0  0  0  0  0  0  0  0  0
   35.4549   31.4550   30.3377 H   0  0  0  0  0  0  0  0  0  0  0  0
   33.3375   30.5978   31.7423 H   0  0  0  0  0  0  0  0  0  0  0  0
  1  2  2  0
  3  2  1  0
  4  3  2  0
  5  6  2  0
  5  4  1  0
  6  1  1  0
  7  5  1  0
  8  7  1  0
  9 10  1  0
  9  8  2  0
 10 17  2  0
 11 10  1  0
 11 13  1  0
 12 11  2  0
 13 14  1  0
 14 15  1  0
 14 16  2  0
 17  7  1  0
 17 16  1  0
 18 22  1  0
 18 13  1  0
 19 18  2  0
 20 19  1  0
 20 21  2  0
 21 22  1  0
  1 23  1  0
  2 24  1  0
  3 25  1  0
  8 26  1  0
 15 27  1  0
 15 28  1  0
 19 29  1  0
 20 30  1  0
 21 31  1  0
M  ISO  7  23  14  24  14  25  14  26  14  29  14  30  14  31  14
M  END
>  <minimizedAffinity>  (1) 
-5.70545673

>  <minimizedRMSD>  (1) 
2.10569477

$$$$
