
     RDKit          3D

 40 43  0  0  0  0  0  0  0  0999 V2000
   40.1470   22.8480   37.4040 C   0  0  0  0  0  0  0  0  0  0  0  0
   39.3950   23.1720   38.5520 C   0  0  0  0  0  0  0  0  0  0  0  0
   38.1380   23.7530   38.3380 C   0  0  0  0  0  0  0  0  0  0  0  0
   37.7000   23.9780   37.0710 N   0  0  0  0  0  0  0  0  0  0  0  0
   38.4760   23.6410   35.9940 C   0  0  0  0  0  0  0  0  0  0  0  0
   39.6740   23.0880   36.1660 N   0  0  0  0  0  0  0  0  0  0  0  0
   38.0320   23.8670   34.6610 N   0  0  0  0  0  0  0  0  0  0  0  0
   38.0720   22.8730   33.7390 C   0  0  0  0  0  0  0  0  0  0  0  0
   37.5880   23.3690   32.5670 N   0  0  0  0  0  0  0  0  0  0  0  0
   37.2470   24.6540   32.7420 C   0  0  0  0  0  0  0  0  0  0  0  0
   36.7150   25.7000   31.9930 C   0  0  0  0  0  0  0  0  0  0  0  0
   36.4480   25.4570   30.7930 O   0  0  0  0  0  0  0  0  0  0  0  0
   36.5080   26.9220   32.5660 N   0  0  0  0  0  0  0  0  0  0  0  0
   36.7990   27.1650   33.8390 C   0  0  0  0  0  0  0  0  0  0  0  0
   36.5340   28.4980   34.2270 N   0  0  0  0  0  0  0  0  0  0  0  0
   37.3180   26.1590   34.5890 N   0  0  0  0  0  0  0  0  0  0  0  0
   37.5330   24.9550   34.0620 C   0  0  0  0  0  0  0  0  0  0  0  0
   35.9500   27.9820   31.7520 C   0  0  0  0  0  0  0  0  0  0  0  0
   35.4650   29.1880   32.4540 C   0  0  0  0  0  0  0  0  0  0  0  0
   34.9180   30.1150   31.3420 C   0  0  0  0  0  0  0  0  0  0  0  0
   36.1080   30.8060   30.7240 C   0  0  0  0  0  0  0  0  0  0  0  0
   37.3030   29.9070   30.8640 C   0  0  0  0  0  0  0  0  0  0  0  0
   36.9340   28.4490   30.7000 C   0  0  0  0  0  0  0  0  0  0  0  0
   41.1401   22.3899   37.5220 H   0  0  0  0  0  0  0  0  0  0  0  0
   39.7763   22.9782   39.5654 H   0  0  0  0  0  0  0  0  0  0  0  0
   37.5056   24.0270   39.1953 H   0  0  0  0  0  0  0  0  0  0  0  0
   38.4319   21.8474   33.9082 H   0  0  0  0  0  0  0  0  0  0  0  0
   36.7219   28.8001   35.1936 H   0  0  0  0  0  0  0  0  0  0  0  0
   36.1529   29.1674   33.5431 H   0  0  0  0  0  0  0  0  0  0  0  0
   35.0647   27.4899   31.3230 H   0  0  0  0  0  0  0  0  0  0  0  0
   34.6670   28.9257   33.1642 H   0  0  0  0  0  0  0  0  0  0  0  0
   36.2626   29.6723   33.0364 H   0  0  0  0  0  0  0  0  0  0  0  0
   34.3878   29.5223   30.5820 H   0  0  0  0  0  0  0  0  0  0  0  0
   34.2071   30.8468   31.7533 H   0  0  0  0  0  0  0  0  0  0  0  0
   36.2960   31.7575   31.2429 H   0  0  0  0  0  0  0  0  0  0  0  0
   35.9143   31.0149   29.6615 H   0  0  0  0  0  0  0  0  0  0  0  0
   38.0422   30.1755   30.0949 H   0  0  0  0  0  0  0  0  0  0  0  0
   37.7154   30.0428   31.8747 H   0  0  0  0  0  0  0  0  0  0  0  0
   36.4829   28.3081   29.7067 H   0  0  0  0  0  0  0  0  0  0  0  0
   37.8531   27.8552   30.8125 H   0  0  0  0  0  0  0  0  0  0  0  0
  1  2  2  0
  3  2  1  0
  4  3  2  0
  5  6  2  0
  5  4  1  0
  6  1  1  0
  7  5  1  0
  8  7  1  0
  9 10  1  0
  9  8  2  0
 10 17  2  0
 11 13  1  0
 11 10  1  0
 12 11  2  0
 13 14  1  0
 14 15  1  0
 14 16  2  0
 17 16  1  0
 17  7  1  0
 18 19  1  0
 18 13  1  0
 20 19  1  0
 21 22  1  0
 21 20  1  0
 23 22  1  0
 23 18  1  0
  1 24  1  0
  2 25  1  0
  3 26  1  0
  8 27  1  0
 15 28  1  0
 15 29  1  0
 18 30  1  0
 19 31  1  0
 19 32  1  0
 20 33  1  0
 20 34  1  0
 21 35  1  0
 21 36  1  0
 22 37  1  0
 22 38  1  0
 23 39  1  0
 23 40  1  0
M  ISO  8  24  14  25  14  26  14  27  14  30  13  31  13  32  13  33  13
M  ISO  7  34  13  35  13  36  13  37  13  38  13  39  13  40  13
M  END
>  <minimizedAffinity>  (1) 
-5.62711

>  <minimizedRMSD>  (1) 
1.52992082

$$$$
