
     RDKit          3D

 36 39  0  0  1  0  0  0  0  0999 V2000
   39.9950   22.9800   37.3480 C   0  0  0  0  0  0  0  0  0  0  0  0
   39.2090   23.2050   38.5080 C   0  0  0  0  0  0  0  0  0  0  0  0
   37.9480   23.7820   38.3080 C   0  0  0  0  0  0  0  0  0  0  0  0
   37.5310   24.0970   37.0510 N   0  0  0  0  0  0  0  0  0  0  0  0
   38.3150   23.8640   35.9780 C   0  0  0  0  0  0  0  0  0  0  0  0
   39.5380   23.3090   36.1290 N   0  0  0  0  0  0  0  0  0  0  0  0
   37.9410   24.1700   34.6280 N   0  0  0  0  0  0  0  0  0  0  0  0
   38.0500   23.2710   33.6420 C   0  0  0  0  0  0  0  0  0  0  0  0
   37.6210   23.8640   32.4960 N   0  0  0  0  0  0  0  0  0  0  0  0
   37.2440   25.1300   32.7590 C   0  0  0  0  0  0  0  0  0  0  0  0
   36.7330   26.2260   32.0600 C   0  0  0  0  0  0  0  0  0  0  0  0
   36.5480   26.0530   30.8330 O   0  0  0  0  0  0  0  0  0  0  0  0
   36.4690   27.3950   32.7240 N   0  0  0  0  0  0  0  0  0  0  0  0
   36.6840   27.5280   34.0270 C   0  0  0  0  0  0  0  0  0  0  0  0
   36.3610   28.8020   34.5510 N   0  0  0  0  0  0  0  0  0  0  0  0
   37.1830   26.4740   34.7420 N   0  0  0  0  0  0  0  0  0  0  0  0
   37.4500   25.3160   34.1120 C   0  0  0  0  0  0  0  0  0  0  0  0
   35.0960   29.3690   32.5830 N   0  0  0  0  0  0  0  0  0  0  0  0
   34.6990   30.2170   31.4430 C   0  0  0  0  0  0  0  0  0  0  0  0
   36.0820   30.5280   30.8520 C   0  0  0  0  0  0  0  0  0  0  0  0
   36.9900   29.3970   31.3590 C   0  0  0  0  0  0  0  0  0  0  0  0
   35.9450   28.4550   31.8980 C   0  0  1  0  0  0  0  0  0  0  0  0
   40.9934   22.5294   37.4490 H   0  0  0  0  0  0  0  0  0  0  0  0
   39.5711   22.9401   39.5123 H   0  0  0  0  0  0  0  0  0  0  0  0
   37.2931   23.9810   39.1691 H   0  0  0  0  0  0  0  0  0  0  0  0
   38.4196   22.2397   33.7410 H   0  0  0  0  0  0  0  0  0  0  0  0
   36.4958   28.9958   35.5536 H   0  0  0  0  0  0  0  0  0  0  0  0
   35.9911   29.5357   33.9299 H   0  0  0  0  0  0  0  0  0  0  0  0
   35.6043   29.9028   33.3025 H   0  0  0  0  0  0  0  0  0  0  0  0
   34.0630   29.6719   30.7300 H   0  0  0  0  0  0  0  0  0  0  0  0
   34.0977   31.0993   31.7075 H   0  0  0  0  0  0  0  0  0  0  0  0
   36.4443   31.5041   31.2069 H   0  0  0  0  0  0  0  0  0  0  0  0
   36.0610   30.5823   29.7535 H   0  0  0  0  0  0  0  0  0  0  0  0
   37.5706   28.9412   30.5434 H   0  0  0  0  0  0  0  0  0  0  0  0
   37.7582   29.7051   32.0835 H   0  0  0  0  0  0  0  0  0  0  0  0
   35.4336   27.8633   31.1245 H   0  0  0  0  0  0  0  0  0  0  0  0
  1  2  2  0
  3  2  1  0
  4  3  2  0
  5  6  2  0
  5  4  1  0
  6  1  1  0
  7  5  1  0
  8  7  1  0
  9 10  1  0
  9  8  2  0
 10 17  2  0
 11 13  1  0
 11 10  1  0
 12 11  2  0
 13 14  1  0
 14 15  1  0
 14 16  2  0
 17  7  1  0
 17 16  1  0
 19 18  1  0
 20 21  1  0
 20 19  1  0
 22 21  1  0
 22 18  1  0
 22 13  1  0
  1 23  1  0
  2 24  1  0
  3 25  1  0
  8 26  1  0
 15 27  1  0
 15 28  1  0
 18 29  1  0
 19 30  1  0
 19 31  1  0
 20 32  1  0
 20 33  1  0
 21 34  1  0
 21 35  1  0
 22 36  1  6
M  ISO  8  23  14  24  14  25  14  26  14  29   5  30  13  31  13  32  13
M  ISO  4  33  13  34  13  35  13  36  13
M  END
>  <minimizedAffinity>  (1) 
-5.57478809

>  <minimizedRMSD>  (1) 
2.05997658

$$$$
