
     RDKit          3D

 31 34  0  0  0  0  0  0  0  0999 V2000
   40.0840   23.0330   36.8580 C   0  0  0  0  0  0  0  0  0  0  0  0
   39.3760   23.1360   38.0800 C   0  0  0  0  0  0  0  0  0  0  0  0
   38.1090   23.7510   38.0270 C   0  0  0  0  0  0  0  0  0  0  0  0
   37.6340   24.2040   36.8380 N   0  0  0  0  0  0  0  0  0  0  0  0
   38.3640   24.0760   35.6880 C   0  0  0  0  0  0  0  0  0  0  0  0
   39.5650   23.5000   35.7110 N   0  0  0  0  0  0  0  0  0  0  0  0
   37.8830   24.5440   34.4420 N   0  0  0  0  0  0  0  0  0  0  0  0
   37.8950   23.7430   33.3460 C   0  0  0  0  0  0  0  0  0  0  0  0
   37.3770   24.4500   32.2970 N   0  0  0  0  0  0  0  0  0  0  0  0
   37.0430   25.6730   32.7210 C   0  0  0  0  0  0  0  0  0  0  0  0
   36.4900   26.8380   32.1900 C   0  0  0  0  0  0  0  0  0  0  0  0
   36.1890   26.8190   30.9710 O   0  0  0  0  0  0  0  0  0  0  0  0
   36.2960   27.9210   32.9720 N   0  0  0  0  0  0  0  0  0  0  0  0
   36.6220   27.9300   34.2780 C   0  0  0  0  0  0  0  0  0  0  0  0
   36.3440   29.1600   34.9520 N   0  0  0  0  0  0  0  0  0  0  0  0
   37.1660   26.8110   34.8370 N   0  0  0  0  0  0  0  0  0  0  0  0
   37.3610   25.7280   34.0620 C   0  0  0  0  0  0  0  0  0  0  0  0
   35.7210   29.0500   32.3030 C   0  0  0  0  0  0  0  0  0  0  0  0
   36.5620   29.9160   31.6360 C   0  0  0  0  0  0  0  0  0  0  0  0
   35.7760   30.8710   31.1060 N   0  0  0  0  0  0  0  0  0  0  0  0
   34.4800   30.6070   31.4330 C   0  0  0  0  0  0  0  0  0  0  0  0
   34.4500   29.4710   32.1800 N   0  0  0  0  0  0  0  0  0  0  0  0
   41.0778   22.5616   36.8482 H   0  0  0  0  0  0  0  0  0  0  0  0
   39.7940   22.7551   39.0235 H   0  0  0  0  0  0  0  0  0  0  0  0
   37.5091   23.8633   38.9421 H   0  0  0  0  0  0  0  0  0  0  0  0
   38.2584   22.7054   33.3086 H   0  0  0  0  0  0  0  0  0  0  0  0
   36.5608   29.2586   35.9541 H   0  0  0  0  0  0  0  0  0  0  0  0
   35.9270   29.9475   34.4354 H   0  0  0  0  0  0  0  0  0  0  0  0
   37.6564   29.8410   31.5537 H   0  0  0  0  0  0  0  0  0  0  0  0
   33.6070   31.2098   31.1424 H   0  0  0  0  0  0  0  0  0  0  0  0
   33.6133   29.0193   32.5760 H   0  0  0  0  0  0  0  0  0  0  0  0
  1  2  2  0
  3  2  1  0
  4  3  2  0
  5  6  2  0
  5  4  1  0
  6  1  1  0
  7  5  1  0
  8  7  1  0
  9 10  1  0
  9  8  2  0
 10 17  2  0
 11 10  1  0
 11 13  1  0
 12 11  2  0
 13 14  1  0
 14 16  2  0
 14 15  1  0
 17  7  1  0
 17 16  1  0
 18 13  1  0
 19 18  2  0
 20 21  2  0
 20 19  1  0
 21 22  1  0
 22 18  1  0
  1 23  1  0
  2 24  1  0
  3 25  1  0
  8 26  1  0
 15 27  1  0
 15 28  1  0
 19 29  1  0
 21 30  1  0
 22 31  1  0
M  ISO  7  23  14  24  14  25  14  26  14  29  14  30  14  31   9
M  END
>  <minimizedAffinity>  (1) 
-5.45663023

>  <minimizedRMSD>  (1) 
2.33677435

$$$$
