
     RDKit          3D

 31 34  0  0  0  0  0  0  0  0999 V2000
   39.9470   22.9740   37.3880 C   0  0  0  0  0  0  0  0  0  0  0  0
   39.1430   23.1130   38.5440 C   0  0  0  0  0  0  0  0  0  0  0  0
   37.8870   23.7520   38.3950 C   0  0  0  0  0  0  0  0  0  0  0  0
   37.5060   24.2010   37.1640 N   0  0  0  0  0  0  0  0  0  0  0  0
   38.3090   24.0430   36.0930 C   0  0  0  0  0  0  0  0  0  0  0  0
   39.5070   23.4390   36.2140 N   0  0  0  0  0  0  0  0  0  0  0  0
   37.9660   24.4920   34.7780 N   0  0  0  0  0  0  0  0  0  0  0  0
   38.0590   23.6920   33.7100 C   0  0  0  0  0  0  0  0  0  0  0  0
   37.6650   24.4110   32.6180 N   0  0  0  0  0  0  0  0  0  0  0  0
   37.3260   25.6590   33.0060 C   0  0  0  0  0  0  0  0  0  0  0  0
   36.8680   26.8220   32.4050 C   0  0  0  0  0  0  0  0  0  0  0  0
   36.6850   26.8110   31.1700 O   0  0  0  0  0  0  0  0  0  0  0  0
   36.6360   27.9140   33.1650 N   0  0  0  0  0  0  0  0  0  0  0  0
   36.8310   27.9310   34.4950 C   0  0  0  0  0  0  0  0  0  0  0  0
   36.5240   29.1700   35.1160 N   0  0  0  0  0  0  0  0  0  0  0  0
   37.2800   26.8040   35.1000 N   0  0  0  0  0  0  0  0  0  0  0  0
   37.5180   25.7030   34.3730 C   0  0  0  0  0  0  0  0  0  0  0  0
   36.1540   29.0820   32.4150 C   0  0  0  0  0  0  0  0  0  0  0  0
   34.6430   29.0690   32.3080 C   0  0  0  0  0  0  0  0  0  0  0  0
   35.4230   30.1660   33.0640 C   0  0  0  0  0  0  0  0  0  0  0  0
   40.9302   22.4853   37.4548 H   0  0  0  0  0  0  0  0  0  0  0  0
   39.4804   22.7390   39.5219 H   0  0  0  0  0  0  0  0  0  0  0  0
   37.2253   23.8849   39.2636 H   0  0  0  0  0  0  0  0  0  0  0  0
   38.3927   22.6438   33.7112 H   0  0  0  0  0  0  0  0  0  0  0  0
   36.6420   29.2794   36.1334 H   0  0  0  0  0  0  0  0  0  0  0  0
   36.1832   29.9597   34.5492 H   0  0  0  0  0  0  0  0  0  0  0  0
   37.0308   29.1276   31.7523 H   0  0  0  0  0  0  0  0  0  0  0  0
   34.1493   29.2940   31.3511 H   0  0  0  0  0  0  0  0  0  0  0  0
   33.8353   28.3610   32.5453 H   0  0  0  0  0  0  0  0  0  0  0  0
   35.3754   30.2153   34.1619 H   0  0  0  0  0  0  0  0  0  0  0  0
   35.4602   31.2642   33.0143 H   0  0  0  0  0  0  0  0  0  0  0  0
  1  2  2  0
  3  2  1  0
  4  3  2  0
  5  6  2  0
  5  4  1  0
  6  1  1  0
  7  5  1  0
  8  7  1  0
  9 10  1  0
  9  8  2  0
 10 17  2  0
 11 10  1  0
 11 13  1  0
 12 11  2  0
 13 14  1  0
 14 16  2  0
 14 15  1  0
 17  7  1  0
 17 16  1  0
 18 20  1  0
 18 13  1  0
 19 18  1  0
 19 20  1  0
  1 21  1  0
  2 22  1  0
  3 23  1  0
  8 24  1  0
 15 25  1  0
 15 26  1  0
 18 27  1  0
 19 28  1  0
 19 29  1  0
 20 30  1  0
 20 31  1  0
M  ISO  8  21  14  22  14  23  14  24  14  27  13  28  13  29  13  30  13
M  ISO  1  31  13
M  END
>  <minimizedAffinity>  (1) 
-5.17701292

>  <minimizedRMSD>  (1) 
2.27477336

$$$$
