
     RDKit          3D

 33 35  0  0  0  0  0  0  0  0999 V2000
   40.0240   22.9960   37.3530 C   0  0  0  0  0  0  0  0  0  0  0  0
   39.2450   23.2050   38.5000 C   0  0  0  0  0  0  0  0  0  0  0  0
   37.9630   23.7700   38.2910 C   0  0  0  0  0  0  0  0  0  0  0  0
   37.5310   24.0860   37.0320 N   0  0  0  0  0  0  0  0  0  0  0  0
   38.3460   23.8550   35.9610 C   0  0  0  0  0  0  0  0  0  0  0  0
   39.5680   23.3190   36.1320 N   0  0  0  0  0  0  0  0  0  0  0  0
   37.9620   24.1580   34.6280 N   0  0  0  0  0  0  0  0  0  0  0  0
   38.0770   23.2540   33.6420 C   0  0  0  0  0  0  0  0  0  0  0  0
   37.6330   23.8340   32.4910 N   0  0  0  0  0  0  0  0  0  0  0  0
   37.2420   25.0900   32.7480 C   0  0  0  0  0  0  0  0  0  0  0  0
   36.7120   26.1770   32.0460 C   0  0  0  0  0  0  0  0  0  0  0  0
   36.5150   26.0150   30.8190 O   0  0  0  0  0  0  0  0  0  0  0  0
   36.4380   27.3300   32.6900 N   0  0  0  0  0  0  0  0  0  0  0  0
   36.6530   27.4890   34.0030 C   0  0  0  0  0  0  0  0  0  0  0  0
   36.3110   28.7700   34.5420 N   0  0  0  0  0  0  0  0  0  0  0  0
   37.1700   26.4520   34.7270 N   0  0  0  0  0  0  0  0  0  0  0  0
   37.4500   25.2990   34.1040 C   0  0  0  0  0  0  0  0  0  0  0  0
   35.8860   28.4130   31.8770 C   0  0  0  0  0  0  0  0  0  0  0  0
   36.8970   29.4320   31.4720 C   0  0  0  0  0  0  0  0  0  0  0  0
   34.6960   29.0820   32.4630 C   0  0  0  0  0  0  0  0  0  0  0  0
   41.0282   22.5589   37.4554 H   0  0  0  0  0  0  0  0  0  0  0  0
   39.6088   22.9450   39.5050 H   0  0  0  0  0  0  0  0  0  0  0  0
   37.3057   23.9573   39.1529 H   0  0  0  0  0  0  0  0  0  0  0  0
   38.4610   22.2283   33.7446 H   0  0  0  0  0  0  0  0  0  0  0  0
   36.4506   28.9608   35.5445 H   0  0  0  0  0  0  0  0  0  0  0  0
   35.9253   29.5010   33.9274 H   0  0  0  0  0  0  0  0  0  0  0  0
   35.5468   27.8888   30.9714 H   0  0  0  0  0  0  0  0  0  0  0  0
   37.3439   29.8824   32.3706 H   0  0  0  0  0  0  0  0  0  0  0  0
   37.6840   28.9500   30.8734 H   0  0  0  0  0  0  0  0  0  0  0  0
   36.4088   30.2151   30.8734 H   0  0  0  0  0  0  0  0  0  0  0  0
   34.7589   29.0466   33.5606 H   0  0  0  0  0  0  0  0  0  0  0  0
   34.6641   30.1303   32.1311 H   0  0  0  0  0  0  0  0  0  0  0  0
   33.7839   28.5644   32.1311 H   0  0  0  0  0  0  0  0  0  0  0  0
  1  2  2  0
  3  2  1  0
  4  3  2  0
  5  6  2  0
  5  4  1  0
  6  1  1  0
  7  5  1  0
  8  7  1  0
  9 10  1  0
  9  8  2  0
 10 17  2  0
 11 13  1  0
 11 10  1  0
 12 11  2  0
 13 14  1  0
 14 15  1  0
 14 16  2  0
 17  7  1  0
 17 16  1  0
 18 20  1  0
 18 13  1  0
 19 18  1  0
  1 21  1  0
  2 22  1  0
  3 23  1  0
  8 24  1  0
 15 25  1  0
 15 26  1  0
 18 27  1  0
 19 28  1  0
 19 29  1  0
 19 30  1  0
 20 31  1  0
 20 32  1  0
 20 33  1  0
M  ISO  8  21  14  22  14  23  14  24  14  27   8  28   8  29   8  30   8
M  ISO  3  31   8  32   8  33   8
M  END
>  <minimizedAffinity>  (1) 
-5.14770365

>  <minimizedRMSD>  (1) 
1.52160704

$$$$
