
     RDKit          3D

 40 44  0  0  0  0  0  0  0  0999 V2000
   39.8710   22.7370   38.0820 C   0  0  0  0  0  0  0  0  0  0  0  0
   38.8070   23.2080   38.8750 C   0  0  0  0  0  0  0  0  0  0  0  0
   37.7500   23.8360   38.2040 C   0  0  0  0  0  0  0  0  0  0  0  0
   37.7850   23.9670   36.8500 N   0  0  0  0  0  0  0  0  0  0  0  0
   38.8270   23.5000   36.1320 C   0  0  0  0  0  0  0  0  0  0  0  0
   39.8630   22.8880   36.7470 N   0  0  0  0  0  0  0  0  0  0  0  0
   38.9190   23.6080   34.7150 N   0  0  0  0  0  0  0  0  0  0  0  0
   39.2240   22.5620   33.9410 C   0  0  0  0  0  0  0  0  0  0  0  0
   39.2370   22.9760   32.6480 N   0  0  0  0  0  0  0  0  0  0  0  0
   38.9420   24.2820   32.6030 C   0  0  0  0  0  0  0  0  0  0  0  0
   38.7960   25.2750   31.6340 C   0  0  0  0  0  0  0  0  0  0  0  0
   38.9740   24.9330   30.4400 O   0  0  0  0  0  0  0  0  0  0  0  0
   38.4700   26.5510   32.0090 N   0  0  0  0  0  0  0  0  0  0  0  0
   38.2870   26.8860   33.2870 C   0  0  0  0  0  0  0  0  0  0  0  0
   37.9510   28.2610   33.4940 N   0  0  0  0  0  0  0  0  0  0  0  0
   38.4220   25.9370   34.2570 N   0  0  0  0  0  0  0  0  0  0  0  0
   38.7410   24.6800   33.9090 C   0  0  0  0  0  0  0  0  0  0  0  0
   38.3580   27.4470   30.9040 C   0  0  0  0  0  0  0  0  0  0  0  0
   37.0490   27.6160   30.4990 C   0  0  0  0  0  0  0  0  0  0  0  0
   36.7120   28.4530   29.4330 C   0  0  0  0  0  0  0  0  0  0  0  0
   37.7720   29.0960   28.8140 C   0  0  0  0  0  0  0  0  0  0  0  0
   39.0890   28.9410   29.2030 C   0  0  0  0  0  0  0  0  0  0  0  0
   40.1380   29.5860   28.5800 C   0  0  0  0  0  0  0  0  0  0  0  0
   41.4220   29.3690   29.0390 C   0  0  0  0  0  0  0  0  0  0  0  0
   41.6930   28.5180   30.1130 C   0  0  0  0  0  0  0  0  0  0  0  0
   40.6570   27.8600   30.7540 C   0  0  0  0  0  0  0  0  0  0  0  0
   39.3880   28.1070   30.2610 C   0  0  0  0  0  0  0  0  0  0  0  0
   40.7238   22.2366   38.5640 H   0  0  0  0  0  0  0  0  0  0  0  0
   38.8060   23.0885   39.9685 H   0  0  0  0  0  0  0  0  0  0  0  0
   36.8912   24.2235   38.7718 H   0  0  0  0  0  0  0  0  0  0  0  0
   39.4295   21.5399   34.2917 H   0  0  0  0  0  0  0  0  0  0  0  0
   37.7905   28.6139   34.4483 H   0  0  0  0  0  0  0  0  0  0  0  0
   37.8696   28.8981   32.6888 H   0  0  0  0  0  0  0  0  0  0  0  0
   36.2504   27.0772   31.0299 H   0  0  0  0  0  0  0  0  0  0  0  0
   35.6712   28.5929   29.1056 H   0  0  0  0  0  0  0  0  0  0  0  0
   37.5537   29.7650   27.9685 H   0  0  0  0  0  0  0  0  0  0  0  0
   39.9542   30.2618   27.7318 H   0  0  0  0  0  0  0  0  0  0  0  0
   42.2585   29.8829   28.5429 H   0  0  0  0  0  0  0  0  0  0  0  0
   42.7298   28.3705   30.4496 H   0  0  0  0  0  0  0  0  0  0  0  0
   40.8320   27.1826   31.6029 H   0  0  0  0  0  0  0  0  0  0  0  0
  1  2  2  0
  3  2  1  0
  4  3  2  0
  5  6  2  0
  5  4  1  0
  6  1  1  0
  7  5  1  0
  8  7  1  0
  9  8  2  0
 10  9  1  0
 10 17  2  0
 11 13  1  0
 11 10  1  0
 12 11  2  0
 13 14  1  0
 14 15  1  0
 14 16  2  0
 17 16  1  0
 17  7  1  0
 18 13  1  0
 19 18  2  0
 20 19  1  0
 21 22  1  0
 21 20  2  0
 22 27  2  0
 23 24  2  0
 23 22  1  0
 24 25  1  0
 25 26  2  0
 27 26  1  0
 27 18  1  0
  1 28  1  0
  2 29  1  0
  3 30  1  0
  8 31  1  0
 15 32  1  0
 15 33  1  0
 19 34  1  0
 20 35  1  0
 21 36  1  0
 23 37  1  0
 24 38  1  0
 25 39  1  0
 26 40  1  0
M  ISO  8  28  14  29  14  30  14  31  14  34  14  35  14  36  14  37  14
M  ISO  3  38  14  39  14  40  14
M  END
>  <minimizedAffinity>  (1) 
-4.77585316

>  <minimizedRMSD>  (1) 
1.79321861

$$$$
