
     RDKit          3D

 35 39  0  0  0  0  0  0  0  0999 V2000
   39.8610   22.8480   38.0120 C   0  0  0  0  0  0  0  0  0  0  0  0
   38.6660   23.0820   38.7080 C   0  0  0  0  0  0  0  0  0  0  0  0
   37.5760   23.5750   37.9450 C   0  0  0  0  0  0  0  0  0  0  0  0
   37.7390   23.7910   36.6150 N   0  0  0  0  0  0  0  0  0  0  0  0
   38.9280   23.5440   35.9940 C   0  0  0  0  0  0  0  0  0  0  0  0
   39.9650   23.0800   36.6940 N   0  0  0  0  0  0  0  0  0  0  0  0
   39.1260   23.7610   34.6010 N   0  0  0  0  0  0  0  0  0  0  0  0
   39.6590   22.8140   33.8240 C   0  0  0  0  0  0  0  0  0  0  0  0
   39.7240   23.3100   32.5550 N   0  0  0  0  0  0  0  0  0  0  0  0
   39.2320   24.5600   32.5450 C   0  0  0  0  0  0  0  0  0  0  0  0
   39.0330   25.5600   31.6080 C   0  0  0  0  0  0  0  0  0  0  0  0
   39.3790   25.3040   30.4160 O   0  0  0  0  0  0  0  0  0  0  0  0
   38.4830   26.7580   31.9990 N   0  0  0  0  0  0  0  0  0  0  0  0
   38.1350   26.9850   33.2570 C   0  0  0  0  0  0  0  0  0  0  0  0
   37.5720   28.2690   33.5060 N   0  0  0  0  0  0  0  0  0  0  0  0
   38.3240   26.0100   34.1930 N   0  0  0  0  0  0  0  0  0  0  0  0
   38.8560   24.8410   33.8350 C   0  0  0  0  0  0  0  0  0  0  0  0
   40.6000   29.4070   28.6680 N   0  0  0  0  0  0  0  0  0  0  0  0
   41.4770   28.9480   29.5610 C   0  0  0  0  0  0  0  0  0  0  0  0
   40.7730   28.2530   30.4010 N   0  0  0  0  0  0  0  0  0  0  0  0
   39.4720   28.1760   30.1830 C   0  0  0  0  0  0  0  0  0  0  0  0
   38.4200   27.5700   30.8020 C   0  0  0  0  0  0  0  0  0  0  0  0
   37.3090   27.8500   30.1090 N   0  0  0  0  0  0  0  0  0  0  0  0
   37.1370   28.5620   29.0240 C   0  0  0  0  0  0  0  0  0  0  0  0
   38.2150   29.1250   28.4740 N   0  0  0  0  0  0  0  0  0  0  0  0
   39.4090   28.9390   29.0520 C   0  0  0  0  0  0  0  0  0  0  0  0
   40.7346   22.4649   38.5598 H   0  0  0  0  0  0  0  0  0  0  0  0
   38.5784   22.8933   39.7882 H   0  0  0  0  0  0  0  0  0  0  0  0
   36.6085   23.7801   38.4266 H   0  0  0  0  0  0  0  0  0  0  0  0
   39.9862   21.8152   34.1487 H   0  0  0  0  0  0  0  0  0  0  0  0
   37.2749   28.5252   34.4584 H   0  0  0  0  0  0  0  0  0  0  0  0
   37.4618   28.9416   32.7337 H   0  0  0  0  0  0  0  0  0  0  0  0
   40.7996   30.0004   27.8501 H   0  0  0  0  0  0  0  0  0  0  0  0
   42.5631   29.1210   29.5814 H   0  0  0  0  0  0  0  0  0  0  0  0
   36.1386   28.6918   28.5809 H   0  0  0  0  0  0  0  0  0  0  0  0
  1  2  2  0
  3  2  1  0
  4  3  2  0
  5  4  1  0
  5  6  2  0
  6  1  1  0
  7  5  1  0
  8  7  1  0
  9  8  2  0
 10  9  1  0
 10 17  2  0
 11 13  1  0
 11 10  1  0
 12 11  2  0
 13 14  1  0
 14 15  1  0
 14 16  2  0
 17 16  1  0
 17  7  1  0
 18 26  1  0
 18 19  1  0
 19 20  2  0
 21 20  1  0
 21 22  2  0
 22 13  1  0
 23 22  1  0
 24 23  2  0
 25 24  1  0
 25 26  2  0
 26 21  1  0
  1 27  1  0
  2 28  1  0
  3 29  1  0
  8 30  1  0
 15 31  1  0
 15 32  1  0
 18 33  1  0
 19 34  1  0
 24 35  1  0
M  ISO  7  27  14  28  14  29  14  30  14  33   9  34  14  35  14
M  END
>  <minimizedAffinity>  (1) 
-4.60632277

>  <minimizedRMSD>  (1) 
2.03941059

$$$$
