
     RDKit          3D

 44 49  0  0  0  0  0  0  0  0999 V2000
   40.0770   22.9430   37.2130 C   0  0  0  0  0  0  0  0  0  0  0  0
   39.2940   23.0840   38.3890 C   0  0  0  0  0  0  0  0  0  0  0  0
   38.0390   23.6730   38.2350 C   0  0  0  0  0  0  0  0  0  0  0  0
   37.6150   24.0820   37.0120 N   0  0  0  0  0  0  0  0  0  0  0  0
   38.4070   23.9230   35.9090 C   0  0  0  0  0  0  0  0  0  0  0  0
   39.6230   23.3600   36.0140 N   0  0  0  0  0  0  0  0  0  0  0  0
   37.9960   24.3350   34.6270 N   0  0  0  0  0  0  0  0  0  0  0  0
   38.0840   23.4920   33.5640 C   0  0  0  0  0  0  0  0  0  0  0  0
   37.6190   24.1570   32.4640 N   0  0  0  0  0  0  0  0  0  0  0  0
   37.2470   25.3890   32.8140 C   0  0  0  0  0  0  0  0  0  0  0  0
   36.7130   26.5310   32.2220 C   0  0  0  0  0  0  0  0  0  0  0  0
   36.4940   26.4430   30.9860 O   0  0  0  0  0  0  0  0  0  0  0  0
   36.4610   27.6420   32.9470 N   0  0  0  0  0  0  0  0  0  0  0  0
   36.7130   27.6830   34.2570 C   0  0  0  0  0  0  0  0  0  0  0  0
   36.3840   28.9410   34.8700 N   0  0  0  0  0  0  0  0  0  0  0  0
   37.2290   26.6040   34.8760 N   0  0  0  0  0  0  0  0  0  0  0  0
   37.4850   25.5000   34.1750 C   0  0  0  0  0  0  0  0  0  0  0  0
   35.9010   28.8260   32.2970 C   0  0  0  0  0  0  0  0  0  0  0  0
   36.7160   29.6740   31.5090 C   0  0  0  0  0  0  0  0  0  0  0  0
   35.5040   30.9630   30.9620 S   0  0  0  0  0  0  0  0  0  0  0  0
   34.1100   30.1130   31.9050 C   0  0  0  0  0  0  0  0  0  0  0  0
   34.6520   29.2280   32.3590 N   0  0  0  0  0  0  0  0  0  0  0  0
   32.7850   30.7620   31.8200 C   0  0  0  0  0  0  0  0  0  0  0  0
   32.3250   31.6840   30.9380 C   0  0  0  0  0  0  0  0  0  0  0  0
   31.0490   31.9130   31.3410 N   0  0  0  0  0  0  0  0  0  0  0  0
   30.7230   31.1670   32.4290 C   0  0  0  0  0  0  0  0  0  0  0  0
   29.5430   31.1020   33.1410 C   0  0  0  0  0  0  0  0  0  0  0  0
   29.4820   30.2350   34.2360 C   0  0  0  0  0  0  0  0  0  0  0  0
   30.5930   29.4850   34.5590 C   0  0  0  0  0  0  0  0  0  0  0  0
   31.7710   29.5550   33.8410 C   0  0  0  0  0  0  0  0  0  0  0  0
   31.8490   30.4050   32.7580 C   0  0  0  0  0  0  0  0  0  0  0  0
   41.0744   22.4842   37.2816 H   0  0  0  0  0  0  0  0  0  0  0  0
   39.6581   22.7463   39.3705 H   0  0  0  0  0  0  0  0  0  0  0  0
   37.3878   23.8071   39.1114 H   0  0  0  0  0  0  0  0  0  0  0  0
   38.4619   22.4592   33.5853 H   0  0  0  0  0  0  0  0  0  0  0  0
   36.5398   29.0787   35.8788 H   0  0  0  0  0  0  0  0  0  0  0  0
   35.9925   29.7047   34.3004 H   0  0  0  0  0  0  0  0  0  0  0  0
   37.7888   29.5894   31.2812 H   0  0  0  0  0  0  0  0  0  0  0  0
   32.8611   32.1401   30.0927 H   0  0  0  0  0  0  0  0  0  0  0  0
   30.4064   32.5718   30.8785 H   0  0  0  0  0  0  0  0  0  0  0  0
   28.6752   31.7147   32.8553 H   0  0  0  0  0  0  0  0  0  0  0  0
   28.5608   30.1523   34.8314 H   0  0  0  0  0  0  0  0  0  0  0  0
   30.5392   28.8047   35.4217 H   0  0  0  0  0  0  0  0  0  0  0  0
   32.6363   28.9402   34.1296 H   0  0  0  0  0  0  0  0  0  0  0  0
  1  2  2  0
  3  2  1  0
  4  3  2  0
  5  6  2  0
  5  4  1  0
  6  1  1  0
  7  5  1  0
  8  7  1  0
  9 10  1  0
  9  8  2  0
 10 17  2  0
 11 10  1  0
 11 13  1  0
 12 11  2  0
 13 14  1  0
 14 15  1  0
 14 16  2  0
 17  7  1  0
 17 16  1  0
 18 22  1  0
 18 13  1  0
 19 18  2  0
 20 19  1  0
 20 21  1  0
 21 22  2  0
 23 21  1  0
 23 31  1  0
 24 25  1  0
 24 23  2  0
 25 26  1  0
 26 31  2  0
 26 27  1  0
 27 28  2  0
 28 29  1  0
 30 29  2  0
 31 30  1  0
  1 32  1  0
  2 33  1  0
  3 34  1  0
  8 35  1  0
 15 36  1  0
 15 37  1  0
 19 38  1  0
 24 39  1  0
 25 40  1  0
 27 41  1  0
 28 42  1  0
 29 43  1  0
 30 44  1  0
M  ISO  8  32  14  33  14  34  14  35  14  38  14  39  14  40   9  41  14
M  ISO  3  42  14  43  14  44  14
M  END
>  <minimizedAffinity>  (1) 
-6.91737461

>  <minimizedRMSD>  (1) 
2.07320666

$$$$
