
     RDKit          3D

 37 41  0  0  0  0  0  0  0  0999 V2000
   40.1030   22.9370   37.1670 C   0  0  0  0  0  0  0  0  0  0  0  0
   39.3290   23.0770   38.3550 C   0  0  0  0  0  0  0  0  0  0  0  0
   38.0630   23.6670   38.2190 C   0  0  0  0  0  0  0  0  0  0  0  0
   37.6430   24.0700   36.9950 N   0  0  0  0  0  0  0  0  0  0  0  0
   38.4200   23.9160   35.8830 C   0  0  0  0  0  0  0  0  0  0  0  0
   39.6370   23.3550   35.9730 N   0  0  0  0  0  0  0  0  0  0  0  0
   37.9920   24.3330   34.5970 N   0  0  0  0  0  0  0  0  0  0  0  0
   38.0700   23.4870   33.5380 C   0  0  0  0  0  0  0  0  0  0  0  0
   37.5920   24.1630   32.4520 N   0  0  0  0  0  0  0  0  0  0  0  0
   37.2240   25.3910   32.8060 C   0  0  0  0  0  0  0  0  0  0  0  0
   36.6830   26.5380   32.2130 C   0  0  0  0  0  0  0  0  0  0  0  0
   36.4480   26.4520   30.9770 O   0  0  0  0  0  0  0  0  0  0  0  0
   36.4420   27.6500   32.9630 N   0  0  0  0  0  0  0  0  0  0  0  0
   36.7070   27.6880   34.2570 C   0  0  0  0  0  0  0  0  0  0  0  0
   36.3860   28.9490   34.8820 N   0  0  0  0  0  0  0  0  0  0  0  0
   37.2310   26.6040   34.8680 N   0  0  0  0  0  0  0  0  0  0  0  0
   37.4770   25.5010   34.1680 C   0  0  0  0  0  0  0  0  0  0  0  0
   35.8790   28.8270   32.3180 C   0  0  0  0  0  0  0  0  0  0  0  0
   36.6610   29.6690   31.4910 C   0  0  0  0  0  0  0  0  0  0  0  0
   35.4570   30.9670   30.9610 S   0  0  0  0  0  0  0  0  0  0  0  0
   34.0890   30.1370   31.9610 C   0  0  0  0  0  0  0  0  0  0  0  0
   34.6310   29.2520   32.4090 N   0  0  0  0  0  0  0  0  0  0  0  0
   32.6930   30.5280   32.1210 N   0  0  0  0  0  0  0  0  0  0  0  0
   32.0070   31.5030   31.5410 C   0  0  0  0  0  0  0  0  0  0  0  0
   30.7450   31.3740   32.0910 C   0  0  0  0  0  0  0  0  0  0  0  0
   30.7040   30.3550   32.9620 N   0  0  0  0  0  0  0  0  0  0  0  0
   31.9390   29.8210   32.9790 C   0  0  0  0  0  0  0  0  0  0  0  0
   41.1012   22.4785   37.2252 H   0  0  0  0  0  0  0  0  0  0  0  0
   39.7056   22.7389   39.3317 H   0  0  0  0  0  0  0  0  0  0  0  0
   37.4166   23.8013   39.0989 H   0  0  0  0  0  0  0  0  0  0  0  0
   38.4466   22.4536   33.5521 H   0  0  0  0  0  0  0  0  0  0  0  0
   36.5548   29.0823   35.8893 H   0  0  0  0  0  0  0  0  0  0  0  0
   35.9881   29.7155   34.3207 H   0  0  0  0  0  0  0  0  0  0  0  0
   37.7249   29.5739   31.2282 H   0  0  0  0  0  0  0  0  0  0  0  0
   32.3573   32.2374   30.8008 H   0  0  0  0  0  0  0  0  0  0  0  0
   29.8892   32.0206   31.8469 H   0  0  0  0  0  0  0  0  0  0  0  0
   32.2700   28.9639   33.5838 H   0  0  0  0  0  0  0  0  0  0  0  0
  1  2  2  0
  3  2  1  0
  4  3  2  0
  5  6  2  0
  5  4  1  0
  6  1  1  0
  7  5  1  0
  8  7  1  0
  9 10  1  0
  9  8  2  0
 10 17  2  0
 11 10  1  0
 11 13  1  0
 12 11  2  0
 13 14  1  0
 14 16  2  0
 14 15  1  0
 17  7  1  0
 17 16  1  0
 18 22  1  0
 18 13  1  0
 19 18  2  0
 20 19  1  0
 20 21  1  0
 21 23  1  0
 21 22  2  0
 23 27  1  0
 24 25  2  0
 24 23  1  0
 25 26  1  0
 26 27  2  0
  1 28  1  0
  2 29  1  0
  3 30  1  0
  8 31  1  0
 15 32  1  0
 15 33  1  0
 19 34  1  0
 24 35  1  0
 25 36  1  0
 27 37  1  0
M  ISO  8  28  14  29  14  30  14  31  14  34  14  35  14  36  14  37  14
M  END
>  <minimizedAffinity>  (1) 
-6.50556135

>  <minimizedRMSD>  (1) 
0.158226967

$$$$
