
     RDKit          3D

 40 44  0  0  0  0  0  0  0  0999 V2000
   40.3510   22.9500   36.8370 C   0  0  0  0  0  0  0  0  0  0  0  0
   39.6650   23.0320   38.0620 C   0  0  0  0  0  0  0  0  0  0  0  0
   38.3790   23.5960   38.0170 C   0  0  0  0  0  0  0  0  0  0  0  0
   37.8650   24.0260   36.8350 N   0  0  0  0  0  0  0  0  0  0  0  0
   38.5820   23.9180   35.6740 C   0  0  0  0  0  0  0  0  0  0  0  0
   39.8140   23.3850   35.6820 N   0  0  0  0  0  0  0  0  0  0  0  0
   38.0740   24.3570   34.4280 N   0  0  0  0  0  0  0  0  0  0  0  0
   38.1130   23.5580   33.3430 C   0  0  0  0  0  0  0  0  0  0  0  0
   37.5600   24.2450   32.3100 N   0  0  0  0  0  0  0  0  0  0  0  0
   37.1780   25.4540   32.7240 C   0  0  0  0  0  0  0  0  0  0  0  0
   36.5710   26.6040   32.1970 C   0  0  0  0  0  0  0  0  0  0  0  0
   36.2750   26.5430   30.9820 O   0  0  0  0  0  0  0  0  0  0  0  0
   36.3420   27.6830   32.9920 N   0  0  0  0  0  0  0  0  0  0  0  0
   36.6790   27.6880   34.2710 C   0  0  0  0  0  0  0  0  0  0  0  0
   36.3580   28.9170   34.9480 N   0  0  0  0  0  0  0  0  0  0  0  0
   37.2650   26.6020   34.8170 N   0  0  0  0  0  0  0  0  0  0  0  0
   37.5040   25.5330   34.0760 C   0  0  0  0  0  0  0  0  0  0  0  0
   35.7130   28.8590   32.4190 C   0  0  0  0  0  0  0  0  0  0  0  0
   36.4480   29.7970   31.6560 C   0  0  0  0  0  0  0  0  0  0  0  0
   35.1720   31.0550   31.1910 S   0  0  0  0  0  0  0  0  0  0  0  0
   33.8540   30.0800   32.1210 C   0  0  0  0  0  0  0  0  0  0  0  0
   34.4500   29.2090   32.5140 N   0  0  0  0  0  0  0  0  0  0  0  0
   32.4420   30.5120   32.2010 C   0  0  0  0  0  0  0  0  0  0  0  0
   32.0450   31.5110   31.3410 C   0  0  0  0  0  0  0  0  0  0  0  0
   30.7220   31.8860   31.4450 C   0  0  0  0  0  0  0  0  0  0  0  0
   29.8710   31.2910   32.3530 C   0  0  0  0  0  0  0  0  0  0  0  0
   30.3160   30.2940   33.1950 C   0  0  0  0  0  0  0  0  0  0  0  0
   31.6420   29.8940   33.1150 C   0  0  0  0  0  0  0  0  0  0  0  0
   41.3614   22.5153   36.8223 H   0  0  0  0  0  0  0  0  0  0  0  0
   40.1102   22.6747   39.0023 H   0  0  0  0  0  0  0  0  0  0  0  0
   37.7876   23.6896   38.9397 H   0  0  0  0  0  0  0  0  0  0  0  0
   38.5186   22.5363   33.3017 H   0  0  0  0  0  0  0  0  0  0  0  0
   36.5784   29.0268   35.9481 H   0  0  0  0  0  0  0  0  0  0  0  0
   35.9079   29.6867   34.4323 H   0  0  0  0  0  0  0  0  0  0  0  0
   37.5179   29.7823   31.4010 H   0  0  0  0  0  0  0  0  0  0  0  0
   32.7344   31.9772   30.6217 H   0  0  0  0  0  0  0  0  0  0  0  0
   30.3359   32.6791   30.7877 H   0  0  0  0  0  0  0  0  0  0  0  0
   28.8217   31.6168   32.4061 H   0  0  0  0  0  0  0  0  0  0  0  0
   29.6320   29.8242   33.9171 H   0  0  0  0  0  0  0  0  0  0  0  0
   32.0356   29.1022   33.7693 H   0  0  0  0  0  0  0  0  0  0  0  0
  1  2  2  0
  3  2  1  0
  4  3  2  0
  5  6  2  0
  5  4  1  0
  6  1  1  0
  7  5  1  0
  8  7  1  0
  9 10  1  0
  9  8  2  0
 10 17  2  0
 11 10  1  0
 11 13  1  0
 12 11  2  0
 13 14  1  0
 14 16  2  0
 14 15  1  0
 17  7  1  0
 17 16  1  0
 18 22  1  0
 18 13  1  0
 19 18  2  0
 20 19  1  0
 20 21  1  0
 21 23  1  0
 21 22  2  0
 23 28  2  0
 24 25  2  0
 24 23  1  0
 25 26  1  0
 26 27  2  0
 28 27  1  0
  1 29  1  0
  2 30  1  0
  3 31  1  0
  8 32  1  0
 15 33  1  0
 15 34  1  0
 19 35  1  0
 24 36  1  0
 25 37  1  0
 26 38  1  0
 27 39  1  0
 28 40  1  0
M  ISO  8  29  14  30  14  31  14  32  14  35  14  36  14  37  14  38  14
M  ISO  2  39  14  40  14
M  END
>  <minimizedAffinity>  (1) 
-6.35589409

>  <minimizedRMSD>  (1) 
0.743396878

$$$$
