
     RDKit          3D

 45 49  0  0  0  0  0  0  0  0999 V2000
   40.1610   22.9900   37.1090 C   0  0  0  0  0  0  0  0  0  0  0  0
   39.4130   23.0980   38.2990 C   0  0  0  0  0  0  0  0  0  0  0  0
   38.1410   23.6740   38.1790 C   0  0  0  0  0  0  0  0  0  0  0  0
   37.7050   24.0880   36.9650 N   0  0  0  0  0  0  0  0  0  0  0  0
   38.4610   23.9640   35.8430 C   0  0  0  0  0  0  0  0  0  0  0  0
   39.6820   23.4160   35.9230 N   0  0  0  0  0  0  0  0  0  0  0  0
   38.0290   24.3870   34.5740 N   0  0  0  0  0  0  0  0  0  0  0  0
   38.1210   23.5750   33.5020 C   0  0  0  0  0  0  0  0  0  0  0  0
   37.6280   24.2500   32.4230 N   0  0  0  0  0  0  0  0  0  0  0  0
   37.2290   25.4730   32.8050 C   0  0  0  0  0  0  0  0  0  0  0  0
   36.6570   26.6160   32.2300 C   0  0  0  0  0  0  0  0  0  0  0  0
   36.4240   26.5410   30.9940 O   0  0  0  0  0  0  0  0  0  0  0  0
   36.3890   27.7070   32.9940 N   0  0  0  0  0  0  0  0  0  0  0  0
   36.6560   27.7230   34.2870 C   0  0  0  0  0  0  0  0  0  0  0  0
   36.3070   28.9560   34.9310 N   0  0  0  0  0  0  0  0  0  0  0  0
   37.2090   26.6390   34.8850 N   0  0  0  0  0  0  0  0  0  0  0  0
   37.4840   25.5520   34.1630 C   0  0  0  0  0  0  0  0  0  0  0  0
   35.7890   28.8770   32.3760 C   0  0  0  0  0  0  0  0  0  0  0  0
   36.5660   29.7720   31.6050 C   0  0  0  0  0  0  0  0  0  0  0  0
   35.3120   31.0340   31.0790 S   0  0  0  0  0  0  0  0  0  0  0  0
   33.9400   30.1000   32.0180 C   0  0  0  0  0  0  0  0  0  0  0  0
   34.5320   29.2410   32.4390 N   0  0  0  0  0  0  0  0  0  0  0  0
   32.6920   30.7640   31.8860 N   0  0  0  0  0  0  0  0  0  0  0  0
   32.4460   31.7390   30.8150 C   0  0  0  0  0  0  0  0  0  0  0  0
   32.4570   33.0860   31.5020 C   0  0  0  0  0  0  0  0  0  0  0  0
   31.6320   33.1700   32.7380 C   0  0  0  0  0  0  0  0  0  0  0  0
   31.4870   31.9290   33.5420 C   0  0  0  0  0  0  0  0  0  0  0  0
   31.4940   30.6440   32.7450 C   0  0  0  0  0  0  0  0  0  0  0  0
   41.1660   22.5446   37.1494 H   0  0  0  0  0  0  0  0  0  0  0  0
   39.8051   22.7502   39.2661 H   0  0  0  0  0  0  0  0  0  0  0  0
   37.5002   23.7893   39.0656 H   0  0  0  0  0  0  0  0  0  0  0  0
   38.5220   22.5507   33.4976 H   0  0  0  0  0  0  0  0  0  0  0  0
   36.4736   29.0749   35.9405 H   0  0  0  0  0  0  0  0  0  0  0  0
   35.8898   29.7226   34.3841 H   0  0  0  0  0  0  0  0  0  0  0  0
   37.6410   29.7305   31.3754 H   0  0  0  0  0  0  0  0  0  0  0  0
   31.4706   31.5547   30.3409 H   0  0  0  0  0  0  0  0  0  0  0  0
   33.2008   31.6758   30.0173 H   0  0  0  0  0  0  0  0  0  0  0  0
   33.4971   33.3238   31.7695 H   0  0  0  0  0  0  0  0  0  0  0  0
   32.0149   33.7976   30.7891 H   0  0  0  0  0  0  0  0  0  0  0  0
   32.0848   33.9340   33.3870 H   0  0  0  0  0  0  0  0  0  0  0  0
   30.6157   33.4007   32.3860 H   0  0  0  0  0  0  0  0  0  0  0  0
   32.3192   31.8891   34.2602 H   0  0  0  0  0  0  0  0  0  0  0  0
   30.4981   31.9875   34.0202 H   0  0  0  0  0  0  0  0  0  0  0  0
   30.5826   30.5568   32.1353 H   0  0  0  0  0  0  0  0  0  0  0  0
   31.5184   29.7489   33.3840 H   0  0  0  0  0  0  0  0  0  0  0  0
  1  2  2  0
  3  2  1  0
  4  3  2  0
  5  6  2  0
  5  4  1  0
  6  1  1  0
  7  5  1  0
  8  7  1  0
  9 10  1  0
  9  8  2  0
 10 17  2  0
 11 10  1  0
 11 13  1  0
 12 11  2  0
 13 14  1  0
 14 16  2  0
 14 15  1  0
 17  7  1  0
 17 16  1  0
 18 22  1  0
 18 13  1  0
 19 18  2  0
 20 19  1  0
 20 21  1  0
 21 22  2  0
 23 21  1  0
 23 28  1  0
 24 25  1  0
 24 23  1  0
 25 26  1  0
 26 27  1  0
 28 27  1  0
  1 29  1  0
  2 30  1  0
  3 31  1  0
  8 32  1  0
 15 33  1  0
 15 34  1  0
 19 35  1  0
 24 36  1  0
 24 37  1  0
 25 38  1  0
 25 39  1  0
 26 40  1  0
 26 41  1  0
 27 42  1  0
 27 43  1  0
 28 44  1  0
 28 45  1  0
M  ISO  8  29  14  30  14  31  14  32  14  35  14  36  13  37  13  38  13
M  ISO  7  39  13  40  13  41  13  42  13  43  13  44  13  45  13
M  END
>  <minimizedAffinity>  (1) 
-6.34682274

>  <minimizedRMSD>  (1) 
0.284709066

$$$$
