
     RDKit          3D

 40 44  0  0  0  0  0  0  0  0999 V2000
   40.3890   22.9350   36.8640 C   0  0  0  0  0  0  0  0  0  0  0  0
   39.6890   23.0170   38.0810 C   0  0  0  0  0  0  0  0  0  0  0  0
   38.4040   23.5660   38.0360 C   0  0  0  0  0  0  0  0  0  0  0  0
   37.8910   23.9880   36.8490 N   0  0  0  0  0  0  0  0  0  0  0  0
   38.6060   23.8890   35.6920 C   0  0  0  0  0  0  0  0  0  0  0  0
   39.8410   23.3650   35.7150 N   0  0  0  0  0  0  0  0  0  0  0  0
   38.1010   24.3180   34.4490 N   0  0  0  0  0  0  0  0  0  0  0  0
   38.1450   23.5020   33.3600 C   0  0  0  0  0  0  0  0  0  0  0  0
   37.5910   24.1840   32.3230 N   0  0  0  0  0  0  0  0  0  0  0  0
   37.2050   25.3970   32.7290 C   0  0  0  0  0  0  0  0  0  0  0  0
   36.5970   26.5370   32.1900 C   0  0  0  0  0  0  0  0  0  0  0  0
   36.3000   26.4720   30.9730 O   0  0  0  0  0  0  0  0  0  0  0  0
   36.3620   27.6190   32.9670 N   0  0  0  0  0  0  0  0  0  0  0  0
   36.6980   27.6360   34.2630 C   0  0  0  0  0  0  0  0  0  0  0  0
   36.3750   28.8620   34.9300 N   0  0  0  0  0  0  0  0  0  0  0  0
   37.2860   26.5560   34.8170 N   0  0  0  0  0  0  0  0  0  0  0  0
   37.5270   25.4840   34.0800 C   0  0  0  0  0  0  0  0  0  0  0  0
   35.7280   28.8000   32.3970 C   0  0  0  0  0  0  0  0  0  0  0  0
   36.4730   29.7310   31.6430 C   0  0  0  0  0  0  0  0  0  0  0  0
   35.1980   30.9900   31.1810 S   0  0  0  0  0  0  0  0  0  0  0  0
   33.8750   30.0160   32.1030 C   0  0  0  0  0  0  0  0  0  0  0  0
   34.4620   29.1440   32.4950 N   0  0  0  0  0  0  0  0  0  0  0  0
   32.4590   30.5910   32.0960 C   0  0  0  0  0  0  0  0  0  0  0  0
   32.1190   31.5820   31.2340 C   0  0  0  0  0  0  0  0  0  0  0  0
   30.7900   32.0030   31.3470 C   0  0  0  0  0  0  0  0  0  0  0  0
   29.9320   31.4200   32.2850 C   0  0  0  0  0  0  0  0  0  0  0  0
   30.3800   30.4060   33.1260 C   0  0  0  0  0  0  0  0  0  0  0  0
   31.6950   29.9730   33.0300 C   0  0  0  0  0  0  0  0  0  0  0  0
   41.4039   22.5110   36.8525 H   0  0  0  0  0  0  0  0  0  0  0  0
   40.1320   22.6655   39.0245 H   0  0  0  0  0  0  0  0  0  0  0  0
   37.8099   23.6564   38.9573 H   0  0  0  0  0  0  0  0  0  0  0  0
   38.5529   22.4810   33.3258 H   0  0  0  0  0  0  0  0  0  0  0  0
   36.5928   28.9770   35.9301 H   0  0  0  0  0  0  0  0  0  0  0  0
   35.9250   29.6284   34.4094 H   0  0  0  0  0  0  0  0  0  0  0  0
   37.5439   29.7130   31.3924 H   0  0  0  0  0  0  0  0  0  0  0  0
   32.8254   32.0156   30.5109 H   0  0  0  0  0  0  0  0  0  0  0  0
   30.4152   32.8020   30.6904 H   0  0  0  0  0  0  0  0  0  0  0  0
   28.8908   31.7671   32.3588 H   0  0  0  0  0  0  0  0  0  0  0  0
   29.6982   29.9518   33.8601 H   0  0  0  0  0  0  0  0  0  0  0  0
   32.0939   29.1753   33.6738 H   0  0  0  0  0  0  0  0  0  0  0  0
  1  2  2  0
  3  2  1  0
  4  3  2  0
  5  6  2  0
  5  4  1  0
  6  1  1  0
  7  5  1  0
  8  7  1  0
  9 10  1  0
  9  8  2  0
 10 17  2  0
 11 10  1  0
 11 13  1  0
 12 11  2  0
 13 14  1  0
 14 16  2  0
 14 15  1  0
 17  7  1  0
 17 16  1  0
 18 22  1  0
 18 13  1  0
 19 18  2  0
 20 19  1  0
 20 21  1  0
 21 22  2  0
 23 21  1  0
 23 28  2  0
 24 25  2  0
 24 23  1  0
 25 26  1  0
 26 27  2  0
 28 27  1  0
  1 29  1  0
  2 30  1  0
  3 31  1  0
  8 32  1  0
 15 33  1  0
 15 34  1  0
 19 35  1  0
 24 36  1  0
 25 37  1  0
 26 38  1  0
 27 39  1  0
 28 40  1  0
M  ISO  8  29  14  30  14  31  14  32  14  35  14  36  14  37  14  38  14
M  ISO  2  39  14  40  14
M  END
>  <minimizedAffinity>  (1) 
-6.29091692

>  <minimizedRMSD>  (1) 
0.685680151

$$$$
