
     RDKit          3D

 37 41  0  0  0  0  0  0  0  0999 V2000
   40.0290   23.0130   37.2990 C   0  0  0  0  0  0  0  0  0  0  0  0
   39.2350   23.1360   38.4530 C   0  0  0  0  0  0  0  0  0  0  0  0
   37.9630   23.7150   38.2770 C   0  0  0  0  0  0  0  0  0  0  0  0
   37.5670   24.1200   37.0430 N   0  0  0  0  0  0  0  0  0  0  0  0
   38.3820   23.9760   35.9530 C   0  0  0  0  0  0  0  0  0  0  0  0
   39.5950   23.4270   36.0960 N   0  0  0  0  0  0  0  0  0  0  0  0
   37.9890   24.3890   34.6650 N   0  0  0  0  0  0  0  0  0  0  0  0
   38.1010   23.5470   33.6060 C   0  0  0  0  0  0  0  0  0  0  0  0
   37.6510   24.2130   32.5090 N   0  0  0  0  0  0  0  0  0  0  0  0
   37.2600   25.4420   32.8520 C   0  0  0  0  0  0  0  0  0  0  0  0
   36.7260   26.5810   32.2500 C   0  0  0  0  0  0  0  0  0  0  0  0
   36.5280   26.4880   31.0090 O   0  0  0  0  0  0  0  0  0  0  0  0
   36.4530   27.6870   32.9710 N   0  0  0  0  0  0  0  0  0  0  0  0
   36.6810   27.7320   34.2860 C   0  0  0  0  0  0  0  0  0  0  0  0
   36.3340   28.9790   34.8920 N   0  0  0  0  0  0  0  0  0  0  0  0
   37.1990   26.6480   34.9090 N   0  0  0  0  0  0  0  0  0  0  0  0
   37.4740   25.5540   34.2200 C   0  0  0  0  0  0  0  0  0  0  0  0
   35.8930   28.8670   32.3150 C   0  0  0  0  0  0  0  0  0  0  0  0
   36.7080   29.7010   31.5190 C   0  0  0  0  0  0  0  0  0  0  0  0
   35.5060   30.9950   30.9600 S   0  0  0  0  0  0  0  0  0  0  0  0
   34.1120   30.1590   31.9160 C   0  0  0  0  0  0  0  0  0  0  0  0
   34.6440   29.2810   32.3720 N   0  0  0  0  0  0  0  0  0  0  0  0
   32.7810   30.7960   31.8430 C   0  0  0  0  0  0  0  0  0  0  0  0
   31.7660   30.5210   32.6490 C   0  0  0  0  0  0  0  0  0  0  0  0
   30.5840   31.1870   32.4690 C   0  0  0  0  0  0  0  0  0  0  0  0
   30.5230   32.1260   31.4360 C   0  0  0  0  0  0  0  0  0  0  0  0
   32.2360   32.0150   30.7280 S   0  0  0  0  0  0  0  0  0  0  0  0
   41.0308   22.5666   37.3828 H   0  0  0  0  0  0  0  0  0  0  0  0
   39.5877   22.7987   39.4388 H   0  0  0  0  0  0  0  0  0  0  0  0
   37.2908   23.8390   39.1389 H   0  0  0  0  0  0  0  0  0  0  0  0
   38.4848   22.5164   33.6307 H   0  0  0  0  0  0  0  0  0  0  0  0
   36.4716   29.1160   35.9035 H   0  0  0  0  0  0  0  0  0  0  0  0
   35.9463   29.7407   34.3172 H   0  0  0  0  0  0  0  0  0  0  0  0
   37.7798   29.6068   31.2900 H   0  0  0  0  0  0  0  0  0  0  0  0
   31.8713   29.7718   33.4475 H   0  0  0  0  0  0  0  0  0  0  0  0
   29.7145   30.9904   33.1134 H   0  0  0  0  0  0  0  0  0  0  0  0
   29.6820   32.7629   31.1244 H   0  0  0  0  0  0  0  0  0  0  0  0
  1  2  2  0
  3  2  1  0
  4  3  2  0
  5  6  2  0
  5  4  1  0
  6  1  1  0
  7  5  1  0
  8  7  1  0
  9 10  1  0
  9  8  2  0
 10 17  2  0
 11 10  1  0
 11 13  1  0
 12 11  2  0
 13 14  1  0
 14 15  1  0
 14 16  2  0
 17  7  1  0
 17 16  1  0
 18 22  1  0
 18 13  1  0
 19 18  2  0
 20 19  1  0
 20 21  1  0
 21 22  2  0
 23 21  1  0
 23 24  2  0
 25 24  1  0
 26 25  2  0
 27 26  1  0
 27 23  1  0
  1 28  1  0
  2 29  1  0
  3 30  1  0
  8 31  1  0
 15 32  1  0
 15 33  1  0
 19 34  1  0
 24 35  1  0
 25 36  1  0
 26 37  1  0
M  ISO  8  28  14  29  14  30  14  31  14  34  14  35  14  36  14  37  14
M  END
>  <minimizedAffinity>  (1) 
-6.11421442

>  <minimizedRMSD>  (1) 
0.217308179

$$$$
