
     RDKit          3D

 36 40  0  0  0  0  0  0  0  0999 V2000
   40.0130   22.9730   37.3110 C   0  0  0  0  0  0  0  0  0  0  0  0
   39.2190   23.1280   38.4720 C   0  0  0  0  0  0  0  0  0  0  0  0
   37.9730   23.7260   38.2980 C   0  0  0  0  0  0  0  0  0  0  0  0
   37.5760   24.1240   37.0630 N   0  0  0  0  0  0  0  0  0  0  0  0
   38.3640   23.9590   35.9770 C   0  0  0  0  0  0  0  0  0  0  0  0
   39.5740   23.3860   36.1030 N   0  0  0  0  0  0  0  0  0  0  0  0
   37.9820   24.3620   34.6750 N   0  0  0  0  0  0  0  0  0  0  0  0
   38.0930   23.5160   33.6180 C   0  0  0  0  0  0  0  0  0  0  0  0
   37.6520   24.1840   32.5140 N   0  0  0  0  0  0  0  0  0  0  0  0
   37.2710   25.4150   32.8490 C   0  0  0  0  0  0  0  0  0  0  0  0
   36.7490   26.5620   32.2470 C   0  0  0  0  0  0  0  0  0  0  0  0
   36.5560   26.4650   30.9990 O   0  0  0  0  0  0  0  0  0  0  0  0
   36.4820   27.6750   32.9780 N   0  0  0  0  0  0  0  0  0  0  0  0
   36.7050   27.7150   34.2790 C   0  0  0  0  0  0  0  0  0  0  0  0
   36.3630   28.9730   34.8860 N   0  0  0  0  0  0  0  0  0  0  0  0
   37.2100   26.6280   34.9100 N   0  0  0  0  0  0  0  0  0  0  0  0
   37.4780   25.5300   34.2140 C   0  0  0  0  0  0  0  0  0  0  0  0
   35.9370   28.8520   32.3050 C   0  0  0  0  0  0  0  0  0  0  0  0
   36.7480   29.6780   31.4930 C   0  0  0  0  0  0  0  0  0  0  0  0
   35.5590   30.9750   30.9180 S   0  0  0  0  0  0  0  0  0  0  0  0
   34.1720   30.1530   31.8900 C   0  0  0  0  0  0  0  0  0  0  0  0
   34.6930   29.2770   32.3590 N   0  0  0  0  0  0  0  0  0  0  0  0
   32.7300   30.7900   31.8520 C   0  0  0  0  0  0  0  0  0  0  0  0
   31.9540   30.5510   32.9200 C   0  0  0  0  0  0  0  0  0  0  0  0
   30.4000   31.4580   32.4640 S   0  0  0  0  0  0  0  0  0  0  0  0
   31.1890   31.9950   30.8280 C   0  0  0  0  0  0  0  0  0  0  0  0
   32.2730   31.5160   30.8570 N   0  0  0  0  0  0  0  0  0  0  0  0
   41.0061   22.5075   37.3943 H   0  0  0  0  0  0  0  0  0  0  0  0
   39.5675   22.7937   39.4603 H   0  0  0  0  0  0  0  0  0  0  0  0
   37.3100   23.8758   39.1629 H   0  0  0  0  0  0  0  0  0  0  0  0
   38.4692   22.4827   33.6472 H   0  0  0  0  0  0  0  0  0  0  0  0
   36.4982   29.1103   35.8978 H   0  0  0  0  0  0  0  0  0  0  0  0
   35.9828   29.7368   34.3089 H   0  0  0  0  0  0  0  0  0  0  0  0
   37.8183   29.5754   31.2609 H   0  0  0  0  0  0  0  0  0  0  0  0
   32.1793   29.9706   33.8268 H   0  0  0  0  0  0  0  0  0  0  0  0
   30.7433   32.6106   30.0328 H   0  0  0  0  0  0  0  0  0  0  0  0
  1  2  2  0
  3  2  1  0
  4  3  2  0
  5  6  2  0
  5  4  1  0
  6  1  1  0
  7  5  1  0
  8  7  1  0
  9 10  1  0
  9  8  2  0
 10 17  2  0
 11 10  1  0
 11 13  1  0
 12 11  2  0
 13 14  1  0
 14 15  1  0
 14 16  2  0
 17  7  1  0
 17 16  1  0
 18 22  1  0
 18 13  1  0
 19 18  2  0
 20 19  1  0
 20 21  1  0
 21 22  2  0
 23 21  1  0
 23 24  2  0
 25 24  1  0
 26 27  2  0
 26 25  1  0
 27 23  1  0
  1 28  1  0
  2 29  1  0
  3 30  1  0
  8 31  1  0
 15 32  1  0
 15 33  1  0
 19 34  1  0
 24 35  1  0
 26 36  1  0
M  ISO  7  28  14  29  14  30  14  31  14  34  14  35  14  36  14
M  END
>  <minimizedAffinity>  (1) 
-6.10969305

>  <minimizedRMSD>  (1) 
0.446227521

$$$$
