
     RDKit          3D

 35 39  0  0  0  0  0  0  0  0999 V2000
   39.9630   23.0170   37.3170 C   0  0  0  0  0  0  0  0  0  0  0  0
   39.1590   23.1590   38.4760 C   0  0  0  0  0  0  0  0  0  0  0  0
   37.9100   23.7510   38.2920 C   0  0  0  0  0  0  0  0  0  0  0  0
   37.5210   24.1570   37.0550 N   0  0  0  0  0  0  0  0  0  0  0  0
   38.3320   23.9990   35.9710 C   0  0  0  0  0  0  0  0  0  0  0  0
   39.5400   23.4330   36.1080 N   0  0  0  0  0  0  0  0  0  0  0  0
   37.9560   24.4100   34.6750 N   0  0  0  0  0  0  0  0  0  0  0  0
   38.0710   23.5700   33.6220 C   0  0  0  0  0  0  0  0  0  0  0  0
   37.6370   24.2300   32.5050 N   0  0  0  0  0  0  0  0  0  0  0  0
   37.2570   25.4590   32.8480 C   0  0  0  0  0  0  0  0  0  0  0  0
   36.7350   26.6100   32.2370 C   0  0  0  0  0  0  0  0  0  0  0  0
   36.5480   26.5210   30.9950 O   0  0  0  0  0  0  0  0  0  0  0  0
   36.4660   27.7190   32.9720 N   0  0  0  0  0  0  0  0  0  0  0  0
   36.6790   27.7660   34.2810 C   0  0  0  0  0  0  0  0  0  0  0  0
   36.3340   29.0200   34.8770 N   0  0  0  0  0  0  0  0  0  0  0  0
   37.1820   26.6750   34.9030 N   0  0  0  0  0  0  0  0  0  0  0  0
   37.4550   25.5770   34.2180 C   0  0  0  0  0  0  0  0  0  0  0  0
   35.9260   28.8910   32.3050 C   0  0  0  0  0  0  0  0  0  0  0  0
   36.7430   29.7190   31.4980 C   0  0  0  0  0  0  0  0  0  0  0  0
   35.5720   31.0270   30.9130 S   0  0  0  0  0  0  0  0  0  0  0  0
   34.1640   30.2140   31.8740 C   0  0  0  0  0  0  0  0  0  0  0  0
   34.6820   29.3260   32.3480 N   0  0  0  0  0  0  0  0  0  0  0  0
   32.7510   30.6610   31.9580 C   0  0  0  0  0  0  0  0  0  0  0  0
   32.0890   31.4470   31.0990 N   0  0  0  0  0  0  0  0  0  0  0  0
   30.8600   31.6230   31.5040 O   0  0  0  0  0  0  0  0  0  0  0  0
   30.7020   30.9500   32.6360 C   0  0  0  0  0  0  0  0  0  0  0  0
   31.8770   30.3330   32.9480 N   0  0  0  0  0  0  0  0  0  0  0  0
   40.9574   22.5554   37.4075 H   0  0  0  0  0  0  0  0  0  0  0  0
   39.5014   22.8210   39.4652 H   0  0  0  0  0  0  0  0  0  0  0  0
   37.2373   23.8898   39.1512 H   0  0  0  0  0  0  0  0  0  0  0  0
   38.4475   22.5370   33.6572 H   0  0  0  0  0  0  0  0  0  0  0  0
   36.4611   29.1614   35.8893 H   0  0  0  0  0  0  0  0  0  0  0  0
   35.9586   29.7814   34.2938 H   0  0  0  0  0  0  0  0  0  0  0  0
   37.8143   29.6110   31.2732 H   0  0  0  0  0  0  0  0  0  0  0  0
   29.7751   30.8982   33.2261 H   0  0  0  0  0  0  0  0  0  0  0  0
  1  2  2  0
  3  2  1  0
  4  3  2  0
  5  6  2  0
  5  4  1  0
  6  1  1  0
  7  5  1  0
  8  7  1  0
  9 10  1  0
  9  8  2  0
 10 17  2  0
 11 10  1  0
 11 13  1  0
 12 11  2  0
 13 14  1  0
 14 15  1  0
 14 16  2  0
 17  7  1  0
 17 16  1  0
 18 22  1  0
 18 13  1  0
 19 18  2  0
 20 19  1  0
 20 21  1  0
 21 23  1  0
 21 22  2  0
 23 27  1  0
 24 25  1  0
 24 23  2  0
 25 26  1  0
 26 27  2  0
  1 28  1  0
  2 29  1  0
  3 30  1  0
  8 31  1  0
 15 32  1  0
 15 33  1  0
 19 34  1  0
 26 35  1  0
M  ISO  6  28  14  29  14  30  14  31  14  34  14  35  14
M  END
>  <minimizedAffinity>  (1) 
-6.10253096

>  <minimizedRMSD>  (1) 
0.127335414

$$$$
