
     RDKit          3D

 33 35  0  0  0  0  0  0  0  0999 V2000
   40.3650   26.4210   34.7980 C   0  0  0  0  0  0  0  0  0  0  0  0
   39.1050   26.9690   34.2270 C   0  0  0  0  0  0  0  0  0  0  0  0
   38.0520   27.2710   35.0670 C   0  0  0  0  0  0  0  0  0  0  0  0
   36.8300   27.7870   34.6450 C   0  0  0  0  0  0  0  0  0  0  0  0
   36.6940   28.0000   33.2990 N   0  0  0  0  0  0  0  0  0  0  0  0
   37.7250   27.7070   32.4620 C   0  0  0  0  0  0  0  0  0  0  0  0
   38.9010   27.2000   32.9440 N   0  0  0  0  0  0  0  0  0  0  0  0
   37.6040   27.9230   31.0330 C   0  0  0  0  0  0  0  0  0  0  0  0
   38.7430   28.1810   30.2700 C   0  0  0  0  0  0  0  0  0  0  0  0
   38.3410   28.3490   28.9390 C   0  0  0  0  0  0  0  0  0  0  0  0
   36.9990   28.1900   28.9480 N   0  0  0  0  0  0  0  0  0  0  0  0
   36.5560   27.9400   30.1720 N   0  0  0  0  0  0  0  0  0  0  0  0
   40.6500   25.0270   34.3260 C   0  0  0  0  0  0  0  0  0  0  0  0
   41.5350   22.4340   36.8650 C   0  0  0  0  0  0  0  0  0  0  0  0
   40.3630   22.4180   37.6510 C   0  0  0  0  0  0  0  0  0  0  0  0
   39.3200   23.2730   37.3070 C   0  0  0  0  0  0  0  0  0  0  0  0
   39.4880   24.0780   36.2280 N   0  0  0  0  0  0  0  0  0  0  0  0
   40.6240   24.0760   35.4880 C   0  0  0  0  0  0  0  0  0  0  0  0
   41.6340   23.2640   35.8020 N   0  0  0  0  0  0  0  0  0  0  0  0
   38.0890   23.2900   38.0900 C   0  0  0  0  0  0  0  0  0  0  0  0
   37.7670   24.3440   38.6980 O   0  0  0  0  0  0  0  0  0  0  0  0
   41.2000   27.0721   34.4999 H   0  0  0  0  0  0  0  0  0  0  0  0
   40.2496   26.3868   35.8914 H   0  0  0  0  0  0  0  0  0  0  0  0
   38.1879   27.0916   36.1437 H   0  0  0  0  0  0  0  0  0  0  0  0
   36.0187   28.0112   35.3532 H   0  0  0  0  0  0  0  0  0  0  0  0
   39.7745   28.2417   30.6471 H   0  0  0  0  0  0  0  0  0  0  0  0
   38.9813   28.5645   28.0710 H   0  0  0  0  0  0  0  0  0  0  0  0
   36.3991   28.2546   28.1132 H   0  0  0  0  0  0  0  0  0  0  0  0
   39.8866   24.7274   33.5929 H   0  0  0  0  0  0  0  0  0  0  0  0
   41.6459   25.0002   33.8596 H   0  0  0  0  0  0  0  0  0  0  0  0
   42.3727   21.7676   37.1185 H   0  0  0  0  0  0  0  0  0  0  0  0
   40.2757   21.7446   38.5164 H   0  0  0  0  0  0  0  0  0  0  0  0
   37.4519   22.3952   38.1481 H   0  0  0  0  0  0  0  0  0  0  0  0
  2  1  1  0
  2  3  2  0
  4  3  1  0
  5  4  2  0
  6  7  2  0
  6  5  1  0
  7  2  1  0
  8  6  1  0
  9  8  1  0
 10 11  1  0
 10  9  2  0
 11 12  1  0
 12  8  2  0
 13  1  1  0
 13 18  1  0
 14 15  2  0
 16 15  1  0
 16 20  1  0
 17 16  2  0
 18 19  2  0
 18 17  1  0
 19 14  1  0
 20 21  2  0
  1 22  1  0
  1 23  1  0
  3 24  1  0
  4 25  1  0
  9 26  1  0
 10 27  1  0
 11 28  1  0
 13 29  1  0
 13 30  1  0
 14 31  1  0
 15 32  1  0
 20 33  1  0
M  ISO  8  22   8  23   8  24  14  25  14  26  14  27  14  28   9  29   8
M  ISO  4  30   8  31  14  32  14  33   6
M  END
>  <minimizedAffinity>  (1) 
-5.21843052

>  <minimizedRMSD>  (1) 
1.40337658

$$$$
