
     RDKit          3D

 33 36  0  0  0  0  0  0  0  0999 V2000
   39.9900   22.9800   37.3190 C   0  0  0  0  0  0  0  0  0  0  0  0
   39.1880   23.1340   38.4780 C   0  0  0  0  0  0  0  0  0  0  0  0
   37.9310   23.7370   38.2960 C   0  0  0  0  0  0  0  0  0  0  0  0
   37.5410   24.1390   37.0570 N   0  0  0  0  0  0  0  0  0  0  0  0
   38.3510   23.9680   35.9690 C   0  0  0  0  0  0  0  0  0  0  0  0
   39.5540   23.3950   36.1170 N   0  0  0  0  0  0  0  0  0  0  0  0
   37.9700   24.3750   34.6780 N   0  0  0  0  0  0  0  0  0  0  0  0
   38.0810   23.5230   33.6280 C   0  0  0  0  0  0  0  0  0  0  0  0
   37.6410   24.1870   32.5170 N   0  0  0  0  0  0  0  0  0  0  0  0
   37.2610   25.4190   32.8420 C   0  0  0  0  0  0  0  0  0  0  0  0
   36.7410   26.5680   32.2370 C   0  0  0  0  0  0  0  0  0  0  0  0
   36.5500   26.4650   30.9910 O   0  0  0  0  0  0  0  0  0  0  0  0
   36.4780   27.6840   32.9710 N   0  0  0  0  0  0  0  0  0  0  0  0
   36.7000   27.7310   34.2730 C   0  0  0  0  0  0  0  0  0  0  0  0
   36.3620   28.9830   34.8670 N   0  0  0  0  0  0  0  0  0  0  0  0
   37.2030   26.6390   34.8950 N   0  0  0  0  0  0  0  0  0  0  0  0
   37.4690   25.5420   34.2110 C   0  0  0  0  0  0  0  0  0  0  0  0
   35.9360   28.8560   32.2960 C   0  0  0  0  0  0  0  0  0  0  0  0
   36.7290   29.6410   31.4300 C   0  0  0  0  0  0  0  0  0  0  0  0
   35.5420   30.9560   30.8810 S   0  0  0  0  0  0  0  0  0  0  0  0
   34.1830   30.2010   31.9250 C   0  0  0  0  0  0  0  0  0  0  0  0
   34.7090   29.3160   32.3930 N   0  0  0  0  0  0  0  0  0  0  0  0
   32.7910   30.7430   32.0210 C   0  0  0  0  0  0  0  0  0  0  0  0
   32.7150   31.7680   32.9460 F   0  0  0  0  0  0  0  0  0  0  0  0
   32.4280   31.1670   30.7550 F   0  0  0  0  0  0  0  0  0  0  0  0
   32.0430   29.7040   32.4810 F   0  0  0  0  0  0  0  0  0  0  0  0
   40.9829   22.5144   37.4046 H   0  0  0  0  0  0  0  0  0  0  0  0
   39.5313   22.7992   39.4680 H   0  0  0  0  0  0  0  0  0  0  0  0
   37.2623   23.8837   39.1570 H   0  0  0  0  0  0  0  0  0  0  0  0
   38.4556   22.4894   33.6640 H   0  0  0  0  0  0  0  0  0  0  0  0
   36.4963   29.1263   35.8781 H   0  0  0  0  0  0  0  0  0  0  0  0
   35.9836   29.7438   34.2848 H   0  0  0  0  0  0  0  0  0  0  0  0
   37.7846   29.5063   31.1514 H   0  0  0  0  0  0  0  0  0  0  0  0
  1  2  2  0
  3  2  1  0
  4  3  2  0
  5  6  2  0
  5  4  1  0
  6  1  1  0
  7  5  1  0
  8  7  1  0
  9 10  1  0
  9  8  2  0
 10 17  2  0
 11 10  1  0
 11 13  1  0
 12 11  2  0
 13 14  1  0
 14 15  1  0
 14 16  2  0
 17  7  1  0
 17 16  1  0
 18 22  1  0
 18 13  1  0
 19 18  2  0
 20 19  1  0
 20 21  1  0
 21 23  1  0
 21 22  2  0
 23 26  1  0
 23 24  1  0
 25 23  1  0
  1 27  1  0
  2 28  1  0
  3 29  1  0
  8 30  1  0
 15 31  1  0
 15 32  1  0
 19 33  1  0
M  ISO  5  27  14  28  14  29  14  30  14  33  14
M  END
>  <minimizedAffinity>  (1) 
-6.04713917

>  <minimizedRMSD>  (1) 
0.120646916

$$$$
