
     RDKit          3D

 46 51  0  0  1  0  0  0  0  0999 V2000
   40.1220   22.8340   37.3640 C   0  0  0  0  0  0  0  0  0  0  0  0
   39.3360   23.0210   38.5420 C   0  0  0  0  0  0  0  0  0  0  0  0
   38.0860   23.6350   38.3730 C   0  0  0  0  0  0  0  0  0  0  0  0
   37.6840   24.0140   37.1400 N   0  0  0  0  0  0  0  0  0  0  0  0
   38.4710   23.8160   36.0300 C   0  0  0  0  0  0  0  0  0  0  0  0
   39.6740   23.2310   36.1530 N   0  0  0  0  0  0  0  0  0  0  0  0
   38.0630   24.2020   34.7450 N   0  0  0  0  0  0  0  0  0  0  0  0
   38.1270   23.3240   33.7060 C   0  0  0  0  0  0  0  0  0  0  0  0
   37.6700   23.9730   32.6030 N   0  0  0  0  0  0  0  0  0  0  0  0
   37.3230   25.2170   32.9050 C   0  0  0  0  0  0  0  0  0  0  0  0
   36.8060   26.3620   32.2840 C   0  0  0  0  0  0  0  0  0  0  0  0
   36.5800   26.2320   31.0500 O   0  0  0  0  0  0  0  0  0  0  0  0
   36.5820   27.4970   32.9860 N   0  0  0  0  0  0  0  0  0  0  0  0
   36.8440   27.5630   34.2850 C   0  0  0  0  0  0  0  0  0  0  0  0
   36.5450   28.8380   34.8610 N   0  0  0  0  0  0  0  0  0  0  0  0
   37.3440   26.4940   34.9460 N   0  0  0  0  0  0  0  0  0  0  0  0
   37.5730   25.3570   34.2640 C   0  0  0  0  0  0  0  0  0  0  0  0
   36.0460   28.6680   32.3070 C   0  0  0  0  0  0  0  0  0  0  0  0
   36.8000   29.3610   31.3530 C   0  0  0  0  0  0  0  0  0  0  0  0
   35.6610   30.7190   30.8310 S   0  0  0  0  0  0  0  0  0  0  0  0
   34.3560   30.0940   32.0140 C   0  0  0  0  0  0  0  0  0  0  0  0
   34.8540   29.1950   32.4910 N   0  0  0  0  0  0  0  0  0  0  0  0
   33.0230   30.8660   32.0530 C   0  0  1  0  0  0  0  0  0  0  0  0
   32.0730   30.5060   33.1170 C   0  0  0  0  0  0  0  0  0  0  0  0
   32.9370   31.8210   33.1290 C   0  0  1  0  0  0  0  0  0  0  0  0
   33.7370   31.9260   34.3560 C   0  0  0  0  0  0  0  0  0  0  0  0
   32.9710   32.0290   35.5200 C   0  0  0  0  0  0  0  0  0  0  0  0
   33.4660   32.1020   36.8260 C   0  0  0  0  0  0  0  0  0  0  0  0
   34.8250   32.0710   36.9870 C   0  0  0  0  0  0  0  0  0  0  0  0
   35.5650   31.9710   35.8410 C   0  0  0  0  0  0  0  0  0  0  0  0
   35.0550   31.9020   34.5960 N   0  0  0  0  0  0  0  0  0  0  0  0
   41.1104   22.3579   37.4445 H   0  0  0  0  0  0  0  0  0  0  0  0
   39.6928   22.6998   39.5317 H   0  0  0  0  0  0  0  0  0  0  0  0
   37.4346   23.8075   39.2424 H   0  0  0  0  0  0  0  0  0  0  0  0
   38.4822   22.2839   33.7511 H   0  0  0  0  0  0  0  0  0  0  0  0
   36.7100   29.0012   35.8645 H   0  0  0  0  0  0  0  0  0  0  0  0
   36.1647   29.5927   34.2722 H   0  0  0  0  0  0  0  0  0  0  0  0
   37.8202   29.1492   31.0005 H   0  0  0  0  0  0  0  0  0  0  0  0
   32.9024   30.9288   30.9614 H   0  0  0  0  0  0  0  0  0  0  0  0
   30.9886   30.5503   32.9377 H   0  0  0  0  0  0  0  0  0  0  0  0
   31.9132   29.6495   33.7885 H   0  0  0  0  0  0  0  0  0  0  0  0
   32.8944   32.9184   33.0664 H   0  0  0  0  0  0  0  0  0  0  0  0
   31.8781   32.0551   35.3980 H   0  0  0  0  0  0  0  0  0  0  0  0
   32.7898   32.1812   37.6900 H   0  0  0  0  0  0  0  0  0  0  0  0
   35.2947   32.1235   37.9803 H   0  0  0  0  0  0  0  0  0  0  0  0
   36.6599   31.9449   35.9438 H   0  0  0  0  0  0  0  0  0  0  0  0
  1  2  2  0
  3  2  1  0
  4  3  2  0
  5  6  2  0
  5  4  1  0
  6  1  1  0
  7  5  1  0
  8  7  1  0
  9 10  1  0
  9  8  2  0
 10 17  2  0
 11 10  1  0
 11 13  1  0
 12 11  2  0
 13 14  1  0
 14 15  1  0
 14 16  2  0
 17  7  1  0
 17 16  1  0
 18 22  1  0
 18 13  1  0
 19 18  2  0
 20 19  1  0
 20 21  1  0
 21 23  1  0
 21 22  2  0
 23 24  1  0
 23 25  1  0
 24 25  1  0
 25 26  1  0
 26 31  1  0
 26 27  2  0
 27 28  1  0
 28 29  2  0
 30 29  1  0
 31 30  2  0
  1 32  1  0
  2 33  1  0
  3 34  1  0
  8 35  1  0
 15 36  1  0
 15 37  1  0
 19 38  1  0
 23 39  1  6
 24 40  1  0
 24 41  1  0
 25 42  1  6
 27 43  1  0
 28 44  1  0
 29 45  1  0
 30 46  1  0
M  ISO  8  32  14  33  14  34  14  35  14  38  14  39  13  40  13  41  13
M  ISO  5  42  13  43  14  44  14  45  14  46  14
M  END
>  <minimizedAffinity>  (1) 
-6.93074179

>  <minimizedRMSD>  (1) 
0.673760176

$$$$
