
     RDKit          3D

 51 56  0  0  1  0  0  0  0  0999 V2000
   40.8750   22.4690   36.4070 C   0  0  0  0  0  0  0  0  0  0  0  0
   40.3510   22.5960   37.7150 C   0  0  0  0  0  0  0  0  0  0  0  0
   39.0870   23.2030   37.8280 C   0  0  0  0  0  0  0  0  0  0  0  0
   38.4460   23.6250   36.7190 N   0  0  0  0  0  0  0  0  0  0  0  0
   38.9880   23.4820   35.4790 C   0  0  0  0  0  0  0  0  0  0  0  0
   40.1930   22.9080   35.3350 N   0  0  0  0  0  0  0  0  0  0  0  0
   38.3410   23.9150   34.2950 N   0  0  0  0  0  0  0  0  0  0  0  0
   38.2280   23.1050   33.2230 C   0  0  0  0  0  0  0  0  0  0  0  0
   37.5690   23.7960   32.2650 N   0  0  0  0  0  0  0  0  0  0  0  0
   37.2620   25.0160   32.6920 C   0  0  0  0  0  0  0  0  0  0  0  0
   36.6230   26.1810   32.2450 C   0  0  0  0  0  0  0  0  0  0  0  0
   36.1770   26.1070   31.0650 O   0  0  0  0  0  0  0  0  0  0  0  0
   36.5190   27.2770   33.0560 N   0  0  0  0  0  0  0  0  0  0  0  0
   37.0090   27.2770   34.2710 C   0  0  0  0  0  0  0  0  0  0  0  0
   36.8010   28.5080   34.9560 N   0  0  0  0  0  0  0  0  0  0  0  0
   37.6370   26.1780   34.7570 N   0  0  0  0  0  0  0  0  0  0  0  0
   37.7540   25.0880   33.9840 C   0  0  0  0  0  0  0  0  0  0  0  0
   35.8450   28.4590   32.5360 C   0  0  0  0  0  0  0  0  0  0  0  0
   36.4270   29.2620   31.5370 C   0  0  0  0  0  0  0  0  0  0  0  0
   35.1550   30.5830   31.2730 S   0  0  0  0  0  0  0  0  0  0  0  0
   34.0530   29.8100   32.5690 C   0  0  0  0  0  0  0  0  0  0  0  0
   34.6630   28.9050   32.9110 N   0  0  0  0  0  0  0  0  0  0  0  0
   32.7080   30.5080   32.8310 C   0  0  1  0  0  0  0  0  0  0  0  0
   31.7580   29.7690   33.7060 C   0  0  0  0  0  0  0  0  0  0  0  0
   32.5770   30.9680   34.2150 C   0  0  1  0  0  0  0  0  0  0  0  0
   33.4970   30.7230   35.2670 N   0  0  0  0  0  0  0  0  0  0  0  0
   32.7030   30.7470   36.5150 C   0  0  0  0  0  0  0  0  0  0  0  0
   32.5540   32.1990   36.8960 C   0  0  0  0  0  0  0  0  0  0  0  0
   33.8140   32.5500   37.5690 N   0  0  0  0  0  0  0  0  0  0  0  0
   34.8760   31.8900   36.8310 C   0  0  0  0  0  0  0  0  0  0  0  0
   34.5260   31.7550   35.3620 C   0  0  0  0  0  0  0  0  0  0  0  0
   41.8605   22.0016   36.2643 H   0  0  0  0  0  0  0  0  0  0  0  0
   40.9028   22.2390   38.5970 H   0  0  0  0  0  0  0  0  0  0  0  0
   38.6233   23.3329   38.8170 H   0  0  0  0  0  0  0  0  0  0  0  0
   38.6022   22.0738   33.1425 H   0  0  0  0  0  0  0  0  0  0  0  0
   37.1438   28.6251   35.9202 H   0  0  0  0  0  0  0  0  0  0  0  0
   36.3078   29.2812   34.4873 H   0  0  0  0  0  0  0  0  0  0  0  0
   37.3983   29.1361   31.0362 H   0  0  0  0  0  0  0  0  0  0  0  0
   32.6012   30.9712   31.8390 H   0  0  0  0  0  0  0  0  0  0  0  0
   30.6728   29.8623   33.5520 H   0  0  0  0  0  0  0  0  0  0  0  0
   31.6162   28.7219   34.0117 H   0  0  0  0  0  0  0  0  0  0  0  0
   32.4143   31.9702   34.6381 H   0  0  0  0  0  0  0  0  0  0  0  0
   31.7147   30.2945   36.3461 H   0  0  0  0  0  0  0  0  0  0  0  0
   33.1967   30.1735   37.3133 H   0  0  0  0  0  0  0  0  0  0  0  0
   32.4087   32.8204   36.0000 H   0  0  0  0  0  0  0  0  0  0  0  0
   31.6804   32.3677   37.5428 H   0  0  0  0  0  0  0  0  0  0  0  0
   33.9523   33.5706   37.5546 H   0  0  0  0  0  0  0  0  0  0  0  0
   35.7990   32.4807   36.9264 H   0  0  0  0  0  0  0  0  0  0  0  0
   35.0136   30.8817   37.2487 H   0  0  0  0  0  0  0  0  0  0  0  0
   35.4151   31.4575   34.7866 H   0  0  0  0  0  0  0  0  0  0  0  0
   34.1661   32.7104   34.9524 H   0  0  0  0  0  0  0  0  0  0  0  0
  1  2  2  0
  2  3  1  0
  4  3  2  0
  5  4  1  0
  6  5  2  0
  6  1  1  0
  7  5  1  0
  8  7  1  0
  9 10  1  0
  9  8  2  0
 10 17  2  0
 11 10  1  0
 11 13  1  0
 12 11  2  0
 13 14  1  0
 14 16  2  0
 14 15  1  0
 17  7  1  0
 17 16  1  0
 18 22  1  0
 18 13  1  0
 19 18  2  0
 20 19  1  0
 20 21  1  0
 21 23  1  0
 21 22  2  0
 23 24  1  0
 23 25  1  0
 24 25  1  0
 25 26  1  0
 26 31  1  0
 26 27  1  0
 27 28  1  0
 28 29  1  0
 30 29  1  0
 31 30  1  0
  1 32  1  0
  2 33  1  0
  3 34  1  0
  8 35  1  0
 15 36  1  0
 15 37  1  0
 19 38  1  0
 23 39  1  6
 24 40  1  0
 24 41  1  0
 25 42  1  6
 27 43  1  0
 27 44  1  0
 28 45  1  0
 28 46  1  0
 29 47  1  0
 30 48  1  0
 30 49  1  0
 31 50  1  0
 31 51  1  0
M  ISO  8  32  14  33  14  34  14  35  14  38  14  39  13  40  13  41  13
M  ISO  8  42  13  43  13  44  13  45  13  46  13  47   5  48  13  49  13
M  ISO  2  50  13  51  13
M  END
>  <minimizedAffinity>  (1) 
-6.88514185

>  <minimizedRMSD>  (1) 
0.942043245

$$$$
