
     RDKit          3D

 45 50  0  0  1  0  0  0  0  0999 V2000
   40.1340   22.8220   37.3610 C   0  0  0  0  0  0  0  0  0  0  0  0
   39.3560   23.0110   38.5400 C   0  0  0  0  0  0  0  0  0  0  0  0
   38.1080   23.6270   38.3860 C   0  0  0  0  0  0  0  0  0  0  0  0
   37.7010   24.0090   37.1550 N   0  0  0  0  0  0  0  0  0  0  0  0
   38.4800   23.8110   36.0370 C   0  0  0  0  0  0  0  0  0  0  0  0
   39.6860   23.2210   36.1490 N   0  0  0  0  0  0  0  0  0  0  0  0
   38.0680   24.1990   34.7550 N   0  0  0  0  0  0  0  0  0  0  0  0
   38.1290   23.3230   33.7090 C   0  0  0  0  0  0  0  0  0  0  0  0
   37.6670   23.9760   32.6100 N   0  0  0  0  0  0  0  0  0  0  0  0
   37.3190   25.2220   32.9130 C   0  0  0  0  0  0  0  0  0  0  0  0
   36.8020   26.3630   32.3020 C   0  0  0  0  0  0  0  0  0  0  0  0
   36.5700   26.2410   31.0660 O   0  0  0  0  0  0  0  0  0  0  0  0
   36.5810   27.4910   33.0070 N   0  0  0  0  0  0  0  0  0  0  0  0
   36.8470   27.5570   34.3030 C   0  0  0  0  0  0  0  0  0  0  0  0
   36.5490   28.8340   34.8870 N   0  0  0  0  0  0  0  0  0  0  0  0
   37.3500   26.4900   34.9600 N   0  0  0  0  0  0  0  0  0  0  0  0
   37.5760   25.3560   34.2720 C   0  0  0  0  0  0  0  0  0  0  0  0
   36.0380   28.6660   32.3300 C   0  0  0  0  0  0  0  0  0  0  0  0
   36.7810   29.3650   31.3710 C   0  0  0  0  0  0  0  0  0  0  0  0
   35.6260   30.7180   30.8550 S   0  0  0  0  0  0  0  0  0  0  0  0
   34.3330   30.0800   32.0450 C   0  0  0  0  0  0  0  0  0  0  0  0
   34.8400   29.1820   32.5220 N   0  0  0  0  0  0  0  0  0  0  0  0
   32.9930   30.8390   32.0870 C   0  0  1  0  0  0  0  0  0  0  0  0
   32.0070   30.4000   33.0860 C   0  0  0  0  0  0  0  0  0  0  0  0
   32.8610   31.6990   33.2370 C   0  0  1  0  0  0  0  0  0  0  0  0
   33.6690   31.8140   34.4360 C   0  0  0  0  0  0  0  0  0  0  0  0
   32.9220   31.8080   35.6240 C   0  0  0  0  0  0  0  0  0  0  0  0
   33.4540   31.8670   36.9220 C   0  0  0  0  0  0  0  0  0  0  0  0
   34.7920   31.9320   37.0330 N   0  0  0  0  0  0  0  0  0  0  0  0
   35.5140   31.9380   35.9000 C   0  0  0  0  0  0  0  0  0  0  0  0
   34.9960   31.8810   34.6380 N   0  0  0  0  0  0  0  0  0  0  0  0
   41.1203   22.3411   37.4385 H   0  0  0  0  0  0  0  0  0  0  0  0
   39.7195   22.6875   39.5265 H   0  0  0  0  0  0  0  0  0  0  0  0
   37.4634   23.7988   39.2606 H   0  0  0  0  0  0  0  0  0  0  0  0
   38.4855   22.2831   33.7485 H   0  0  0  0  0  0  0  0  0  0  0  0
   36.7186   28.9936   35.8903 H   0  0  0  0  0  0  0  0  0  0  0  0
   36.1656   29.5907   34.3027 H   0  0  0  0  0  0  0  0  0  0  0  0
   37.8005   29.1608   31.0121 H   0  0  0  0  0  0  0  0  0  0  0  0
   32.9121   30.9851   30.9998 H   0  0  0  0  0  0  0  0  0  0  0  0
   30.9297   30.4610   32.8724 H   0  0  0  0  0  0  0  0  0  0  0  0
   31.8250   29.4926   33.6805 H   0  0  0  0  0  0  0  0  0  0  0  0
   32.7783   32.7945   33.2918 H   0  0  0  0  0  0  0  0  0  0  0  0
   31.8274   31.7524   35.5304 H   0  0  0  0  0  0  0  0  0  0  0  0
   32.8041   31.8603   37.8095 H   0  0  0  0  0  0  0  0  0  0  0  0
   36.6084   31.9932   35.9967 H   0  0  0  0  0  0  0  0  0  0  0  0
  1  2  2  0
  3  2  1  0
  4  3  2  0
  5  6  2  0
  5  4  1  0
  6  1  1  0
  7  5  1  0
  8  7  1  0
  9 10  1  0
  9  8  2  0
 10 17  2  0
 11 10  1  0
 11 13  1  0
 12 11  2  0
 13 14  1  0
 14 15  1  0
 14 16  2  0
 17  7  1  0
 17 16  1  0
 18 22  1  0
 18 13  1  0
 19 18  2  0
 20 19  1  0
 20 21  1  0
 21 23  1  0
 21 22  2  0
 23 24  1  0
 23 25  1  0
 24 25  1  0
 25 26  1  0
 26 31  1  0
 26 27  2  0
 27 28  1  0
 28 29  2  0
 30 29  1  0
 31 30  2  0
  1 32  1  0
  2 33  1  0
  3 34  1  0
  8 35  1  0
 15 36  1  0
 15 37  1  0
 19 38  1  0
 23 39  1  6
 24 40  1  0
 24 41  1  0
 25 42  1  6
 27 43  1  0
 28 44  1  0
 30 45  1  0
M  ISO  8  32  14  33  14  34  14  35  14  38  14  39  13  40  13  41  13
M  ISO  4  42  13  43  14  44  14  45  14
M  END
>  <minimizedAffinity>  (1) 
-6.7982378

>  <minimizedRMSD>  (1) 
0.465072066

$$$$
