
     RDKit          3D

 44 49  0  0  1  0  0  0  0  0999 V2000
   40.8530   22.3300   36.4450 C   0  0  0  0  0  0  0  0  0  0  0  0
   40.3310   22.4950   37.7600 C   0  0  0  0  0  0  0  0  0  0  0  0
   39.0830   23.1290   37.8700 C   0  0  0  0  0  0  0  0  0  0  0  0
   38.4470   23.5470   36.7510 N   0  0  0  0  0  0  0  0  0  0  0  0
   38.9820   23.3690   35.5180 C   0  0  0  0  0  0  0  0  0  0  0  0
   40.1750   22.7660   35.3690 N   0  0  0  0  0  0  0  0  0  0  0  0
   38.3370   23.7960   34.3400 N   0  0  0  0  0  0  0  0  0  0  0  0
   38.1950   22.9500   33.2830 C   0  0  0  0  0  0  0  0  0  0  0  0
   37.5380   23.6430   32.2970 N   0  0  0  0  0  0  0  0  0  0  0  0
   37.2730   24.8750   32.7080 C   0  0  0  0  0  0  0  0  0  0  0  0
   36.6600   26.0440   32.2330 C   0  0  0  0  0  0  0  0  0  0  0  0
   36.1960   25.9630   31.0550 O   0  0  0  0  0  0  0  0  0  0  0  0
   36.5930   27.1620   33.0180 N   0  0  0  0  0  0  0  0  0  0  0  0
   37.0920   27.1810   34.2300 C   0  0  0  0  0  0  0  0  0  0  0  0
   36.9180   28.4350   34.8820 N   0  0  0  0  0  0  0  0  0  0  0  0
   37.6930   26.0830   34.7370 N   0  0  0  0  0  0  0  0  0  0  0  0
   37.7790   24.9710   34.0000 C   0  0  0  0  0  0  0  0  0  0  0  0
   35.9450   28.3540   32.4750 C   0  0  0  0  0  0  0  0  0  0  0  0
   36.5570   29.1340   31.4810 C   0  0  0  0  0  0  0  0  0  0  0  0
   35.2990   30.4740   31.1860 S   0  0  0  0  0  0  0  0  0  0  0  0
   34.1750   29.7230   32.4710 C   0  0  0  0  0  0  0  0  0  0  0  0
   34.7590   28.8180   32.8330 N   0  0  0  0  0  0  0  0  0  0  0  0
   32.8290   30.4210   32.7210 C   0  0  1  0  0  0  0  0  0  0  0  0
   32.0430   29.9740   33.8820 C   0  0  0  0  0  0  0  0  0  0  0  0
   32.8510   31.2740   33.8970 C   0  0  1  0  0  0  0  0  0  0  0  0
   34.0010   31.4070   34.7550 N   0  0  0  0  0  0  0  0  0  0  0  0
   35.3150   31.2830   34.8700 N   0  0  0  0  0  0  0  0  0  0  0  0
   35.7430   31.6460   36.0910 C   0  0  0  0  0  0  0  0  0  0  0  0
   34.6210   32.0370   36.8270 C   0  0  0  0  0  0  0  0  0  0  0  0
   33.5390   31.8730   35.9520 C   0  0  0  0  0  0  0  0  0  0  0  0
   41.8270   21.8377   36.3076 H   0  0  0  0  0  0  0  0  0  0  0  0
   40.8790   22.1428   38.6464 H   0  0  0  0  0  0  0  0  0  0  0  0
   38.6257   23.2847   38.8583 H   0  0  0  0  0  0  0  0  0  0  0  0
   38.5415   21.9074   33.2292 H   0  0  0  0  0  0  0  0  0  0  0  0
   37.2699   28.5703   35.8405 H   0  0  0  0  0  0  0  0  0  0  0  0
   36.4403   29.2067   34.3951 H   0  0  0  0  0  0  0  0  0  0  0  0
   37.5346   28.9896   30.9978 H   0  0  0  0  0  0  0  0  0  0  0  0
   32.5654   30.5472   31.6605 H   0  0  0  0  0  0  0  0  0  0  0  0
   30.9438   30.0030   33.8536 H   0  0  0  0  0  0  0  0  0  0  0  0
   31.9948   29.0663   34.5015 H   0  0  0  0  0  0  0  0  0  0  0  0
   32.6486   32.3405   34.0745 H   0  0  0  0  0  0  0  0  0  0  0  0
   36.7842   31.6371   36.4457 H   0  0  0  0  0  0  0  0  0  0  0  0
   34.5934   32.3954   37.8666 H   0  0  0  0  0  0  0  0  0  0  0  0
   32.4866   32.0856   36.1912 H   0  0  0  0  0  0  0  0  0  0  0  0
  1  2  2  0
  2  3  1  0
  4  3  2  0
  5  4  1  0
  6  5  2  0
  6  1  1  0
  7  5  1  0
  8  7  1  0
  9 10  1  0
  9  8  2  0
 10 17  2  0
 11 10  1  0
 11 13  1  0
 12 11  2  0
 13 14  1  0
 14 16  2  0
 14 15  1  0
 17  7  1  0
 17 16  1  0
 18 22  1  0
 18 13  1  0
 19 18  2  0
 20 19  1  0
 20 21  1  0
 21 23  1  0
 21 22  2  0
 23 24  1  0
 23 25  1  0
 24 25  1  0
 25 26  1  0
 26 27  1  0
 26 30  1  0
 27 28  2  0
 28 29  1  0
 30 29  2  0
  1 31  1  0
  2 32  1  0
  3 33  1  0
  8 34  1  0
 15 35  1  0
 15 36  1  0
 19 37  1  0
 23 38  1  6
 24 39  1  0
 24 40  1  0
 25 41  1  6
 28 42  1  0
 29 43  1  0
 30 44  1  0
M  ISO  8  31  14  32  14  33  14  34  14  37  14  38  13  39  13  40  13
M  ISO  4  41  13  42  14  43  14  44  14
M  END
>  <minimizedAffinity>  (1) 
-6.62226582

>  <minimizedRMSD>  (1) 
0.944206834

$$$$
