
     RDKit          3D

 50 55  0  0  1  0  0  0  0  0999 V2000
   41.1030   21.9900   36.2630 C   0  0  0  0  0  0  0  0  0  0  0  0
   40.6900   22.1960   37.6040 C   0  0  0  0  0  0  0  0  0  0  0  0
   39.4770   22.8700   37.8000 C   0  0  0  0  0  0  0  0  0  0  0  0
   38.7650   23.2860   36.7270 N   0  0  0  0  0  0  0  0  0  0  0  0
   39.1970   23.0690   35.4590 C   0  0  0  0  0  0  0  0  0  0  0  0
   40.3560   22.4250   35.2330 N   0  0  0  0  0  0  0  0  0  0  0  0
   38.4750   23.4940   34.3140 N   0  0  0  0  0  0  0  0  0  0  0  0
   38.2300   22.6470   33.2960 C   0  0  0  0  0  0  0  0  0  0  0  0
   37.5300   23.3370   32.3590 N   0  0  0  0  0  0  0  0  0  0  0  0
   37.3270   24.5860   32.7510 C   0  0  0  0  0  0  0  0  0  0  0  0
   36.7260   25.7720   32.3190 C   0  0  0  0  0  0  0  0  0  0  0  0
   36.1760   25.6740   31.1750 O   0  0  0  0  0  0  0  0  0  0  0  0
   36.7490   26.9050   33.0840 N   0  0  0  0  0  0  0  0  0  0  0  0
   37.3360   26.9290   34.2550 C   0  0  0  0  0  0  0  0  0  0  0  0
   37.2480   28.2010   34.8930 N   0  0  0  0  0  0  0  0  0  0  0  0
   37.9370   25.8060   34.7230 N   0  0  0  0  0  0  0  0  0  0  0  0
   37.9290   24.6840   33.9960 C   0  0  0  0  0  0  0  0  0  0  0  0
   36.0990   28.1020   32.5630 C   0  0  0  0  0  0  0  0  0  0  0  0
   36.6530   28.8510   31.5130 C   0  0  0  0  0  0  0  0  0  0  0  0
   35.4230   30.2130   31.2710 S   0  0  0  0  0  0  0  0  0  0  0  0
   34.3650   29.5240   32.6480 C   0  0  0  0  0  0  0  0  0  0  0  0
   34.9610   28.6140   32.9760 N   0  0  0  0  0  0  0  0  0  0  0  0
   33.0620   30.2690   32.9640 C   0  0  1  0  0  0  0  0  0  0  0  0
   31.8390   29.4590   33.1110 C   0  0  0  0  0  0  0  0  0  0  0  0
   32.5970   30.0110   34.3360 C   0  0  2  0  0  0  0  0  0  0  0  0
   31.9320   31.0460   35.1670 C   0  0  0  0  0  0  0  0  0  0  0  0
   31.5490   30.6500   36.5610 C   0  0  0  0  0  0  0  0  0  0  0  0
   32.7040   31.0810   37.4420 C   0  0  0  0  0  0  0  0  0  0  0  0
   33.5370   32.0420   36.6680 C   0  0  0  0  0  0  0  0  0  0  0  0
   32.8300   32.2650   35.3720 C   0  0  0  0  0  0  0  0  0  0  0  0
   42.0492   21.4662   36.0623 H   0  0  0  0  0  0  0  0  0  0  0  0
   41.2946   21.8426   38.4522 H   0  0  0  0  0  0  0  0  0  0  0  0
   39.1065   23.0594   38.8183 H   0  0  0  0  0  0  0  0  0  0  0  0
   38.5392   21.5931   33.2349 H   0  0  0  0  0  0  0  0  0  0  0  0
   37.6732   28.3425   35.8204 H   0  0  0  0  0  0  0  0  0  0  0  0
   36.7592   28.9784   34.4265 H   0  0  0  0  0  0  0  0  0  0  0  0
   37.5907   28.6720   30.9665 H   0  0  0  0  0  0  0  0  0  0  0  0
   33.2798   31.1596   32.3562 H   0  0  0  0  0  0  0  0  0  0  0  0
   30.8606   29.8759   32.8301 H   0  0  0  0  0  0  0  0  0  0  0  0
   31.5062   28.4668   32.7723 H   0  0  0  0  0  0  0  0  0  0  0  0
   33.0800   29.6121   35.2402 H   0  0  0  0  0  0  0  0  0  0  0  0
   31.0223   31.2367   34.5788 H   0  0  0  0  0  0  0  0  0  0  0  0
   30.6236   31.1615   36.8644 H   0  0  0  0  0  0  0  0  0  0  0  0
   31.3607   29.5690   36.6386 H   0  0  0  0  0  0  0  0  0  0  0  0
   32.3196   31.5673   38.3507 H   0  0  0  0  0  0  0  0  0  0  0  0
   33.3038   30.2087   37.7409 H   0  0  0  0  0  0  0  0  0  0  0  0
   33.6328   32.9903   37.2171 H   0  0  0  0  0  0  0  0  0  0  0  0
   34.5517   31.6494   36.5060 H   0  0  0  0  0  0  0  0  0  0  0  0
   33.5561   32.3475   34.5498 H   0  0  0  0  0  0  0  0  0  0  0  0
   32.2465   33.1974   35.3866 H   0  0  0  0  0  0  0  0  0  0  0  0
  1  2  2  0
  2  3  1  0
  4  3  2  0
  5  4  1  0
  6  5  2  0
  6  1  1  0
  7  5  1  0
  8  7  1  0
  9 10  1  0
  9  8  2  0
 10 17  2  0
 11 10  1  0
 11 13  1  0
 12 11  2  0
 13 14  1  0
 14 16  2  0
 14 15  1  0
 17  7  1  0
 17 16  1  0
 18 22  1  0
 18 13  1  0
 19 18  2  0
 20 19  1  0
 20 21  1  0
 21 23  1  0
 21 22  2  0
 23 24  1  0
 23 25  1  0
 24 25  1  0
 25 26  1  0
 26 30  1  0
 26 27  1  0
 27 28  1  0
 29 28  1  0
 30 29  1  0
  1 31  1  0
  2 32  1  0
  3 33  1  0
  8 34  1  0
 15 35  1  0
 15 36  1  0
 19 37  1  0
 23 38  1  6
 24 39  1  0
 24 40  1  0
 25 41  1  1
 26 42  1  0
 27 43  1  0
 27 44  1  0
 28 45  1  0
 28 46  1  0
 29 47  1  0
 29 48  1  0
 30 49  1  0
 30 50  1  0
M  ISO  8  31  14  32  14  33  14  34  14  37  14  38  13  39  13  40  13
M  ISO  8  41  13  42  13  43  13  44  13  45  13  46  13  47  13  48  13
M  ISO  2  49  13  50  13
M  END
>  <minimizedAffinity>  (1) 
-6.56295633

>  <minimizedRMSD>  (1) 
1.68975389

$$$$
