
     RDKit          3D

 48 54  0  0  1  0  0  0  0  0999 V2000
   41.0680   22.2260   36.3200 C   0  0  0  0  0  0  0  0  0  0  0  0
   40.6010   22.3770   37.6520 C   0  0  0  0  0  0  0  0  0  0  0  0
   39.3580   23.0030   37.8210 C   0  0  0  0  0  0  0  0  0  0  0  0
   38.6720   23.4280   36.7350 N   0  0  0  0  0  0  0  0  0  0  0  0
   39.1550   23.2630   35.4780 C   0  0  0  0  0  0  0  0  0  0  0  0
   40.3390   22.6690   35.2840 N   0  0  0  0  0  0  0  0  0  0  0  0
   38.4580   23.6960   34.3210 N   0  0  0  0  0  0  0  0  0  0  0  0
   38.2810   22.8720   33.2680 C   0  0  0  0  0  0  0  0  0  0  0  0
   37.5880   23.5690   32.3300 N   0  0  0  0  0  0  0  0  0  0  0  0
   37.3230   24.7960   32.7500 C   0  0  0  0  0  0  0  0  0  0  0  0
   36.6920   25.9720   32.3340 C   0  0  0  0  0  0  0  0  0  0  0  0
   36.1860   25.8880   31.1690 O   0  0  0  0  0  0  0  0  0  0  0  0
   36.6450   27.0800   33.1320 N   0  0  0  0  0  0  0  0  0  0  0  0
   37.1910   27.0890   34.3250 C   0  0  0  0  0  0  0  0  0  0  0  0
   37.0290   28.3380   34.9970 N   0  0  0  0  0  0  0  0  0  0  0  0
   37.8180   25.9710   34.7760 N   0  0  0  0  0  0  0  0  0  0  0  0
   37.8790   24.8760   34.0210 C   0  0  0  0  0  0  0  0  0  0  0  0
   35.9690   28.2680   32.6270 C   0  0  0  0  0  0  0  0  0  0  0  0
   36.5080   29.0410   31.5850 C   0  0  0  0  0  0  0  0  0  0  0  0
   35.2500   30.3800   31.3690 S   0  0  0  0  0  0  0  0  0  0  0  0
   34.2080   29.6500   32.7380 C   0  0  0  0  0  0  0  0  0  0  0  0
   34.8250   28.7530   33.0460 N   0  0  0  0  0  0  0  0  0  0  0  0
   32.8870   30.3670   33.0690 C   0  0  1  0  0  0  0  0  0  0  0  0
   31.6590   29.5610   33.0430 C   0  0  0  0  0  0  0  0  0  0  0  0
   32.3650   29.9650   34.3840 C   0  0  2  0  0  0  0  0  0  0  0  0
   31.6510   30.9040   35.2260 N   0  0  0  0  0  0  0  0  0  0  0  0
   30.3760   30.8250   35.6490 C   0  0  0  0  0  0  0  0  0  0  0  0
   30.1000   31.8840   36.4010 N   0  0  0  0  0  0  0  0  0  0  0  0
   31.1880   32.6570   36.4760 C   0  0  0  0  0  0  0  0  0  0  0  0
   31.3770   33.8520   37.1410 C   0  0  0  0  0  0  0  0  0  0  0  0
   32.5910   34.4210   37.0420 N   0  0  0  0  0  0  0  0  0  0  0  0
   33.5570   33.8200   36.3150 C   0  0  0  0  0  0  0  0  0  0  0  0
   33.3520   32.6550   35.6740 N   0  0  0  0  0  0  0  0  0  0  0  0
   32.1800   32.0370   35.7280 C   0  0  0  0  0  0  0  0  0  0  0  0
   42.0377   21.7407   36.1351 H   0  0  0  0  0  0  0  0  0  0  0  0
   41.1871   22.0195   38.5115 H   0  0  0  0  0  0  0  0  0  0  0  0
   38.9433   23.1476   38.8295 H   0  0  0  0  0  0  0  0  0  0  0  0
   38.6313   21.8326   33.1845 H   0  0  0  0  0  0  0  0  0  0  0  0
   37.4156   28.4679   35.9428 H   0  0  0  0  0  0  0  0  0  0  0  0
   36.5256   29.1093   34.5360 H   0  0  0  0  0  0  0  0  0  0  0  0
   37.4472   28.8877   31.0332 H   0  0  0  0  0  0  0  0  0  0  0  0
   33.1332   31.3207   32.5793 H   0  0  0  0  0  0  0  0  0  0  0  0
   30.6995   30.0186   32.7600 H   0  0  0  0  0  0  0  0  0  0  0  0
   31.3406   28.6206   32.5694 H   0  0  0  0  0  0  0  0  0  0  0  0
   32.8060   29.4672   35.2602 H   0  0  0  0  0  0  0  0  0  0  0  0
   29.6741   30.0125   35.4099 H   0  0  0  0  0  0  0  0  0  0  0  0
   30.5702   34.3178   37.7258 H   0  0  0  0  0  0  0  0  0  0  0  0
   34.5448   34.2989   36.2444 H   0  0  0  0  0  0  0  0  0  0  0  0
  1  2  2  0
  2  3  1  0
  4  3  2  0
  5  4  1  0
  6  5  2  0
  6  1  1  0
  7  5  1  0
  8  7  1  0
  9 10  1  0
  9  8  2  0
 10 17  2  0
 11 10  1  0
 11 13  1  0
 12 11  2  0
 13 14  1  0
 14 16  2  0
 14 15  1  0
 17  7  1  0
 17 16  1  0
 18 22  1  0
 18 13  1  0
 19 18  2  0
 20 19  1  0
 20 21  1  0
 21 22  2  0
 21 23  1  0
 23 25  1  0
 24 23  1  0
 24 25  1  0
 25 26  1  0
 26 27  1  0
 26 34  1  0
 27 28  2  0
 28 29  1  0
 29 30  2  0
 31 30  1  0
 32 31  2  0
 33 34  2  0
 33 32  1  0
 34 29  1  0
  1 35  1  0
  2 36  1  0
  3 37  1  0
  8 38  1  0
 15 39  1  0
 15 40  1  0
 19 41  1  0
 23 42  1  1
 24 43  1  0
 24 44  1  0
 25 45  1  1
 27 46  1  0
 30 47  1  0
 32 48  1  0
M  ISO  8  35  14  36  14  37  14  38  14  41  14  42  13  43  13  44  13
M  ISO  4  45  13  46  14  47  14  48  14
M  END
>  <minimizedAffinity>  (1) 
-6.55027676

>  <minimizedRMSD>  (1) 
2.70470762

$$$$
