
     RDKit          3D

 43 48  0  0  1  0  0  0  0  0999 V2000
   40.1140   22.8410   37.3500 C   0  0  0  0  0  0  0  0  0  0  0  0
   39.3570   23.0350   38.5300 C   0  0  0  0  0  0  0  0  0  0  0  0
   38.1110   23.6620   38.3920 C   0  0  0  0  0  0  0  0  0  0  0  0
   37.6950   24.0480   37.1620 N   0  0  0  0  0  0  0  0  0  0  0  0
   38.4520   23.8440   36.0550 C   0  0  0  0  0  0  0  0  0  0  0  0
   39.6530   23.2440   36.1510 N   0  0  0  0  0  0  0  0  0  0  0  0
   38.0360   24.2390   34.7690 N   0  0  0  0  0  0  0  0  0  0  0  0
   38.0810   23.3670   33.7250 C   0  0  0  0  0  0  0  0  0  0  0  0
   37.6210   24.0300   32.6300 N   0  0  0  0  0  0  0  0  0  0  0  0
   37.2890   25.2770   32.9380 C   0  0  0  0  0  0  0  0  0  0  0  0
   36.7820   26.4360   32.3420 C   0  0  0  0  0  0  0  0  0  0  0  0
   36.5430   26.3100   31.1020 O   0  0  0  0  0  0  0  0  0  0  0  0
   36.5800   27.5760   33.0720 N   0  0  0  0  0  0  0  0  0  0  0  0
   36.8500   27.6300   34.3530 C   0  0  0  0  0  0  0  0  0  0  0  0
   36.5680   28.9070   34.9230 N   0  0  0  0  0  0  0  0  0  0  0  0
   37.3420   26.5390   34.9780 N   0  0  0  0  0  0  0  0  0  0  0  0
   37.5530   25.4020   34.2920 C   0  0  0  0  0  0  0  0  0  0  0  0
   36.0490   28.7500   32.3820 C   0  0  0  0  0  0  0  0  0  0  0  0
   36.7740   29.4130   31.3760 C   0  0  0  0  0  0  0  0  0  0  0  0
   35.6450   30.7770   30.8740 S   0  0  0  0  0  0  0  0  0  0  0  0
   34.3720   30.2120   32.1250 C   0  0  0  0  0  0  0  0  0  0  0  0
   34.8880   29.3200   32.5860 N   0  0  0  0  0  0  0  0  0  0  0  0
   33.0640   31.0100   32.2000 C   0  0  1  0  0  0  0  0  0  0  0  0
   32.1030   30.6340   33.2480 C   0  0  0  0  0  0  0  0  0  0  0  0
   33.0250   31.9000   33.3600 C   0  0  1  0  0  0  0  0  0  0  0  0
   33.9160   31.8670   34.4710 N   0  0  0  0  0  0  0  0  0  0  0  0
   33.8960   31.2260   35.6590 C   0  0  0  0  0  0  0  0  0  0  0  0
   35.0040   31.5300   36.3770 N   0  0  0  0  0  0  0  0  0  0  0  0
   35.7220   32.3620   35.6400 C   0  0  0  0  0  0  0  0  0  0  0  0
   35.0660   32.5580   34.5050 N   0  0  0  0  0  0  0  0  0  0  0  0
   41.0972   22.3519   37.4137 H   0  0  0  0  0  0  0  0  0  0  0  0
   39.7299   22.7082   39.5119 H   0  0  0  0  0  0  0  0  0  0  0  0
   37.4774   23.8388   39.2736 H   0  0  0  0  0  0  0  0  0  0  0  0
   38.4247   22.3227   33.7601 H   0  0  0  0  0  0  0  0  0  0  0  0
   36.7395   29.0730   35.9250 H   0  0  0  0  0  0  0  0  0  0  0  0
   36.1929   29.6630   34.3326 H   0  0  0  0  0  0  0  0  0  0  0  0
   37.7737   29.1743   30.9840 H   0  0  0  0  0  0  0  0  0  0  0  0
   32.9354   31.1347   31.1147 H   0  0  0  0  0  0  0  0  0  0  0  0
   31.0219   30.7454   33.0784 H   0  0  0  0  0  0  0  0  0  0  0  0
   31.9051   29.7408   33.8587 H   0  0  0  0  0  0  0  0  0  0  0  0
   32.9755   32.9970   33.4245 H   0  0  0  0  0  0  0  0  0  0  0  0
   33.0941   30.5527   35.9961 H   0  0  0  0  0  0  0  0  0  0  0  0
   36.6875   32.8095   35.9185 H   0  0  0  0  0  0  0  0  0  0  0  0
  1  2  2  0
  3  2  1  0
  4  3  2  0
  5  6  2  0
  5  4  1  0
  6  1  1  0
  7  5  1  0
  8  7  1  0
  9 10  1  0
  9  8  2  0
 10 17  2  0
 11 10  1  0
 11 13  1  0
 12 11  2  0
 13 14  1  0
 14 15  1  0
 14 16  2  0
 17  7  1  0
 17 16  1  0
 18 22  1  0
 18 13  1  0
 19 18  2  0
 20 19  1  0
 20 21  1  0
 21 23  1  0
 21 22  2  0
 23 24  1  0
 23 25  1  0
 24 25  1  0
 25 26  1  0
 26 30  1  0
 26 27  1  0
 27 28  2  0
 29 28  1  0
 30 29  2  0
  1 31  1  0
  2 32  1  0
  3 33  1  0
  8 34  1  0
 15 35  1  0
 15 36  1  0
 19 37  1  0
 23 38  1  6
 24 39  1  0
 24 40  1  0
 25 41  1  6
 27 42  1  0
 29 43  1  0
M  ISO  8  31  14  32  14  33  14  34  14  37  14  38  13  39  13  40  13
M  ISO  3  41  13  42  14  43  14
M  END
>  <minimizedAffinity>  (1) 
-6.40372419

>  <minimizedRMSD>  (1) 
0.54853195

$$$$
