
     RDKit          3D

 44 49  0  0  1  0  0  0  0  0999 V2000
   40.8310   22.3880   36.4300 C   0  0  0  0  0  0  0  0  0  0  0  0
   40.3140   22.5350   37.7390 C   0  0  0  0  0  0  0  0  0  0  0  0
   39.0650   23.1640   37.8580 C   0  0  0  0  0  0  0  0  0  0  0  0
   38.4230   23.5900   36.7480 N   0  0  0  0  0  0  0  0  0  0  0  0
   38.9610   23.4260   35.5010 C   0  0  0  0  0  0  0  0  0  0  0  0
   40.1510   22.8300   35.3620 N   0  0  0  0  0  0  0  0  0  0  0  0
   38.3060   23.8650   34.3390 N   0  0  0  0  0  0  0  0  0  0  0  0
   38.1500   23.0290   33.2780 C   0  0  0  0  0  0  0  0  0  0  0  0
   37.4880   23.7250   32.3140 N   0  0  0  0  0  0  0  0  0  0  0  0
   37.2210   24.9570   32.7190 C   0  0  0  0  0  0  0  0  0  0  0  0
   36.6090   26.1320   32.2760 C   0  0  0  0  0  0  0  0  0  0  0  0
   36.1370   26.0420   31.0990 O   0  0  0  0  0  0  0  0  0  0  0  0
   36.5500   27.2460   33.0660 N   0  0  0  0  0  0  0  0  0  0  0  0
   37.0620   27.2610   34.2740 C   0  0  0  0  0  0  0  0  0  0  0  0
   36.8930   28.5150   34.9310 N   0  0  0  0  0  0  0  0  0  0  0  0
   37.6650   26.1480   34.7500 N   0  0  0  0  0  0  0  0  0  0  0  0
   37.7420   25.0430   34.0090 C   0  0  0  0  0  0  0  0  0  0  0  0
   35.8970   28.4340   32.5330 C   0  0  0  0  0  0  0  0  0  0  0  0
   36.4770   29.1820   31.4830 C   0  0  0  0  0  0  0  0  0  0  0  0
   35.2290   30.5360   31.2250 S   0  0  0  0  0  0  0  0  0  0  0  0
   34.1570   29.8400   32.5850 C   0  0  0  0  0  0  0  0  0  0  0  0
   34.7530   28.9390   32.9230 N   0  0  0  0  0  0  0  0  0  0  0  0
   32.8370   30.5740   32.8820 C   0  0  1  0  0  0  0  0  0  0  0  0
   31.6300   29.7630   33.0640 C   0  0  0  0  0  0  0  0  0  0  0  0
   32.4010   30.3600   34.2740 C   0  0  2  0  0  0  0  0  0  0  0  0
   31.8070   31.5610   34.9150 C   0  0  0  0  0  0  0  0  0  0  0  0
   31.8610   32.9040   34.7610 C   0  0  0  0  0  0  0  0  0  0  0  0
   31.1370   33.7080   35.5940 C   0  0  0  0  0  0  0  0  0  0  0  0
   30.3410   33.1970   36.6000 C   0  0  0  0  0  0  0  0  0  0  0  0
   30.6260   31.3320   36.3750 S   0  0  0  0  0  0  0  0  0  0  0  0
   41.8076   21.9028   36.2860 H   0  0  0  0  0  0  0  0  0  0  0  0
   40.8642   22.1739   38.6204 H   0  0  0  0  0  0  0  0  0  0  0  0
   38.6112   23.3094   38.8494 H   0  0  0  0  0  0  0  0  0  0  0  0
   38.4941   21.9863   33.2114 H   0  0  0  0  0  0  0  0  0  0  0  0
   37.2541   28.6487   35.8863 H   0  0  0  0  0  0  0  0  0  0  0  0
   36.4098   29.2872   34.4503 H   0  0  0  0  0  0  0  0  0  0  0  0
   37.4252   29.0075   30.9534 H   0  0  0  0  0  0  0  0  0  0  0  0
   33.0304   31.4425   32.2352 H   0  0  0  0  0  0  0  0  0  0  0  0
   30.6451   30.1635   32.7818 H   0  0  0  0  0  0  0  0  0  0  0  0
   31.3026   28.7587   32.7570 H   0  0  0  0  0  0  0  0  0  0  0  0
   32.8316   29.9515   35.2001 H   0  0  0  0  0  0  0  0  0  0  0  0
   32.4844   33.3456   33.9695 H   0  0  0  0  0  0  0  0  0  0  0  0
   31.1896   34.7985   35.4593 H   0  0  0  0  0  0  0  0  0  0  0  0
   29.7130   33.7257   37.3322 H   0  0  0  0  0  0  0  0  0  0  0  0
  1  2  2  0
  2  3  1  0
  4  3  2  0
  5  4  1  0
  6  5  2  0
  6  1  1  0
  7  5  1  0
  8  7  1  0
  9 10  1  0
  9  8  2  0
 10 17  2  0
 11 10  1  0
 11 13  1  0
 12 11  2  0
 13 14  1  0
 14 16  2  0
 14 15  1  0
 17  7  1  0
 17 16  1  0
 18 22  1  0
 18 13  1  0
 19 18  2  0
 20 19  1  0
 20 21  1  0
 21 23  1  0
 21 22  2  0
 23 24  1  0
 23 25  1  0
 24 25  1  0
 25 26  1  0
 26 30  1  0
 27 26  2  0
 27 28  1  0
 28 29  2  0
 30 29  1  0
  1 31  1  0
  2 32  1  0
  3 33  1  0
  8 34  1  0
 15 35  1  0
 15 36  1  0
 19 37  1  0
 23 38  1  6
 24 39  1  0
 24 40  1  0
 25 41  1  1
 27 42  1  0
 28 43  1  0
 29 44  1  0
M  ISO  8  31  14  32  14  33  14  34  14  37  14  38  13  39  13  40  13
M  ISO  4  41  13  42  14  43  14  44  14
M  END
>  <minimizedAffinity>  (1) 
-6.01601791

>  <minimizedRMSD>  (1) 
1.61310613

$$$$
