
     RDKit          3D

 43 48  0  0  1  0  0  0  0  0999 V2000
   40.8740   22.4080   36.4140 C   0  0  0  0  0  0  0  0  0  0  0  0
   40.3670   22.5470   37.7230 C   0  0  0  0  0  0  0  0  0  0  0  0
   39.1130   23.1680   37.8510 C   0  0  0  0  0  0  0  0  0  0  0  0
   38.4640   23.5940   36.7430 N   0  0  0  0  0  0  0  0  0  0  0  0
   38.9970   23.4360   35.4960 C   0  0  0  0  0  0  0  0  0  0  0  0
   40.1940   22.8460   35.3480 N   0  0  0  0  0  0  0  0  0  0  0  0
   38.3380   23.8710   34.3350 N   0  0  0  0  0  0  0  0  0  0  0  0
   38.1870   23.0370   33.2700 C   0  0  0  0  0  0  0  0  0  0  0  0
   37.5210   23.7250   32.3090 N   0  0  0  0  0  0  0  0  0  0  0  0
   37.2450   24.9560   32.7230 C   0  0  0  0  0  0  0  0  0  0  0  0
   36.6230   26.1270   32.2770 C   0  0  0  0  0  0  0  0  0  0  0  0
   36.1490   26.0370   31.0990 O   0  0  0  0  0  0  0  0  0  0  0  0
   36.5540   27.2390   33.0700 N   0  0  0  0  0  0  0  0  0  0  0  0
   37.0670   27.2530   34.2760 C   0  0  0  0  0  0  0  0  0  0  0  0
   36.8880   28.5050   34.9370 N   0  0  0  0  0  0  0  0  0  0  0  0
   37.6820   26.1470   34.7590 N   0  0  0  0  0  0  0  0  0  0  0  0
   37.7670   25.0410   34.0080 C   0  0  0  0  0  0  0  0  0  0  0  0
   35.8920   28.4240   32.5400 C   0  0  0  0  0  0  0  0  0  0  0  0
   36.4710   29.1940   31.5000 C   0  0  0  0  0  0  0  0  0  0  0  0
   35.2130   30.5290   31.2460 S   0  0  0  0  0  0  0  0  0  0  0  0
   34.1360   29.8040   32.5890 C   0  0  0  0  0  0  0  0  0  0  0  0
   34.7390   28.9100   32.9230 N   0  0  0  0  0  0  0  0  0  0  0  0
   32.8050   30.5180   32.8820 C   0  0  1  0  0  0  0  0  0  0  0  0
   31.6100   29.6920   33.0650 C   0  0  0  0  0  0  0  0  0  0  0  0
   32.3780   30.3270   34.2770 C   0  0  2  0  0  0  0  0  0  0  0  0
   31.6920   31.5130   34.9020 C   0  0  0  0  0  0  0  0  0  0  0  0
   30.8260   31.3160   36.1270 C   0  0  0  0  0  0  0  0  0  0  0  0
   30.2720   32.9260   36.4620 S   0  0  0  0  0  0  0  0  0  0  0  0
   31.2070   33.6970   34.9960 C   0  0  0  0  0  0  0  0  0  0  0  0
   31.8190   32.7340   34.4150 N   0  0  0  0  0  0  0  0  0  0  0  0
   41.8525   21.9277   36.2659 H   0  0  0  0  0  0  0  0  0  0  0  0
   40.9254   22.1872   38.5998 H   0  0  0  0  0  0  0  0  0  0  0  0
   38.6623   23.3067   38.8448 H   0  0  0  0  0  0  0  0  0  0  0  0
   38.5398   21.9974   33.2012 H   0  0  0  0  0  0  0  0  0  0  0  0
   37.2488   28.6392   35.8923 H   0  0  0  0  0  0  0  0  0  0  0  0
   36.3980   29.2744   34.4587 H   0  0  0  0  0  0  0  0  0  0  0  0
   37.4258   29.0380   30.9765 H   0  0  0  0  0  0  0  0  0  0  0  0
   32.9848   31.3811   32.2242 H   0  0  0  0  0  0  0  0  0  0  0  0
   30.6206   30.0736   32.7726 H   0  0  0  0  0  0  0  0  0  0  0  0
   31.2973   28.6791   32.7712 H   0  0  0  0  0  0  0  0  0  0  0  0
   32.8433   29.9627   35.2048 H   0  0  0  0  0  0  0  0  0  0  0  0
   30.6034   30.3853   36.6694 H   0  0  0  0  0  0  0  0  0  0  0  0
   31.2195   34.7579   34.7055 H   0  0  0  0  0  0  0  0  0  0  0  0
  1  2  2  0
  2  3  1  0
  4  3  2  0
  5  4  1  0
  6  5  2  0
  6  1  1  0
  7  5  1  0
  8  7  1  0
  9 10  1  0
  9  8  2  0
 10 17  2  0
 11 10  1  0
 11 13  1  0
 12 11  2  0
 13 14  1  0
 14 16  2  0
 14 15  1  0
 17  7  1  0
 17 16  1  0
 18 22  1  0
 18 13  1  0
 19 18  2  0
 20 19  1  0
 20 21  1  0
 21 23  1  0
 21 22  2  0
 23 24  1  0
 23 25  1  0
 24 25  1  0
 25 26  1  0
 26 27  2  0
 27 28  1  0
 29 28  1  0
 30 26  1  0
 30 29  2  0
  1 31  1  0
  2 32  1  0
  3 33  1  0
  8 34  1  0
 15 35  1  0
 15 36  1  0
 19 37  1  0
 23 38  1  6
 24 39  1  0
 24 40  1  0
 25 41  1  1
 27 42  1  0
 29 43  1  0
M  ISO  8  31  14  32  14  33  14  34  14  37  14  38  13  39  13  40  13
M  ISO  3  41  13  42  14  43  14
M  END
>  <minimizedAffinity>  (1) 
-5.983881

>  <minimizedRMSD>  (1) 
1.43696272

$$$$
