
     RDKit          3D

 39 43  0  0  1  0  0  0  0  0999 V2000
   40.0030   23.0090   37.2780 C   0  0  0  0  0  0  0  0  0  0  0  0
   39.2130   23.1470   38.4420 C   0  0  0  0  0  0  0  0  0  0  0  0
   37.9560   23.7450   38.2880 C   0  0  0  0  0  0  0  0  0  0  0  0
   37.5610   24.1560   37.0560 N   0  0  0  0  0  0  0  0  0  0  0  0
   38.3580   24.0020   35.9640 C   0  0  0  0  0  0  0  0  0  0  0  0
   39.5660   23.4330   36.0790 N   0  0  0  0  0  0  0  0  0  0  0  0
   37.9650   24.4220   34.6790 N   0  0  0  0  0  0  0  0  0  0  0  0
   38.0740   23.5820   33.6120 C   0  0  0  0  0  0  0  0  0  0  0  0
   37.6230   24.2590   32.5200 N   0  0  0  0  0  0  0  0  0  0  0  0
   37.2370   25.4810   32.8480 C   0  0  0  0  0  0  0  0  0  0  0  0
   36.7080   26.6390   32.2760 C   0  0  0  0  0  0  0  0  0  0  0  0
   36.5110   26.5390   31.0240 O   0  0  0  0  0  0  0  0  0  0  0  0
   36.4420   27.7500   33.0280 N   0  0  0  0  0  0  0  0  0  0  0  0
   36.6710   27.7790   34.3180 C   0  0  0  0  0  0  0  0  0  0  0  0
   36.3200   29.0240   34.9180 N   0  0  0  0  0  0  0  0  0  0  0  0
   37.1860   26.6790   34.9260 N   0  0  0  0  0  0  0  0  0  0  0  0
   37.4570   25.5810   34.2230 C   0  0  0  0  0  0  0  0  0  0  0  0
   35.8930   28.9200   32.3560 C   0  0  0  0  0  0  0  0  0  0  0  0
   36.6690   29.7070   31.4800 C   0  0  0  0  0  0  0  0  0  0  0  0
   35.4820   31.0140   30.9280 S   0  0  0  0  0  0  0  0  0  0  0  0
   34.1360   30.2630   31.9840 C   0  0  0  0  0  0  0  0  0  0  0  0
   34.6740   29.3810   32.4520 N   0  0  0  0  0  0  0  0  0  0  0  0
   32.7580   30.9450   31.9540 C   0  0  1  0  0  0  0  0  0  0  0  0
   31.6670   30.2930   32.6860 C   0  0  0  0  0  0  0  0  0  0  0  0
   32.4180   31.5450   33.2540 C   0  0  2  0  0  0  0  0  0  0  0  0
   31.7320   32.7980   33.2490 N   0  0  0  0  0  0  0  0  0  0  0  0
   40.9972   22.5445   37.3546 H   0  0  0  0  0  0  0  0  0  0  0  0
   39.5691   22.8007   39.4235 H   0  0  0  0  0  0  0  0  0  0  0  0
   37.2952   23.8803   39.1569 H   0  0  0  0  0  0  0  0  0  0  0  0
   38.4549   22.5502   33.6294 H   0  0  0  0  0  0  0  0  0  0  0  0
   36.4557   29.1647   35.9293 H   0  0  0  0  0  0  0  0  0  0  0  0
   35.9308   29.7826   34.3401 H   0  0  0  0  0  0  0  0  0  0  0  0
   37.7232   29.5757   31.1946 H   0  0  0  0  0  0  0  0  0  0  0  0
   32.8164   31.3010   30.9148 H   0  0  0  0  0  0  0  0  0  0  0  0
   30.6295   30.3810   32.3313 H   0  0  0  0  0  0  0  0  0  0  0  0
   31.4514   29.2738   33.0393 H   0  0  0  0  0  0  0  0  0  0  0  0
   32.9582   31.7895   34.1805 H   0  0  0  0  0  0  0  0  0  0  0  0
   31.5655   33.1021   34.2189 H   0  0  0  0  0  0  0  0  0  0  0  0
   32.3056   33.5015   32.7623 H   0  0  0  0  0  0  0  0  0  0  0  0
  1  2  2  0
  3  2  1  0
  4  3  2  0
  5  6  2  0
  5  4  1  0
  6  1  1  0
  7  5  1  0
  8  7  1  0
  9 10  1  0
  9  8  2  0
 10 17  2  0
 11 10  1  0
 11 13  1  0
 12 11  2  0
 13 14  1  0
 14 15  1  0
 14 16  2  0
 17  7  1  0
 17 16  1  0
 18 22  1  0
 18 13  1  0
 19 18  2  0
 20 19  1  0
 20 21  1  0
 21 22  2  0
 23 21  1  0
 23 24  1  0
 23 25  1  0
 24 25  1  0
 26 25  1  0
  1 27  1  0
  2 28  1  0
  3 29  1  0
  8 30  1  0
 15 31  1  0
 15 32  1  0
 19 33  1  0
 23 34  1  6
 24 35  1  0
 24 36  1  0
 25 37  1  1
 26 38  1  0
 26 39  1  0
M  ISO  8  27  14  28  14  29  14  30  14  33  14  34  13  35  13  36  13
M  ISO  3  37  13  38   5  39   5
M  END
>  <minimizedAffinity>  (1) 
-5.90341997

>  <minimizedRMSD>  (1) 
0.0842899606

$$$$
