
     RDKit          3D

 46 50  0  0  1  0  0  0  0  0999 V2000
   40.0180   22.9740   37.2840 C   0  0  0  0  0  0  0  0  0  0  0  0
   39.2250   23.1270   38.4500 C   0  0  0  0  0  0  0  0  0  0  0  0
   37.9710   23.7280   38.2880 C   0  0  0  0  0  0  0  0  0  0  0  0
   37.5750   24.1290   37.0580 N   0  0  0  0  0  0  0  0  0  0  0  0
   38.3710   23.9620   35.9580 C   0  0  0  0  0  0  0  0  0  0  0  0
   39.5760   23.3910   36.0830 N   0  0  0  0  0  0  0  0  0  0  0  0
   37.9790   24.3720   34.6670 N   0  0  0  0  0  0  0  0  0  0  0  0
   38.0850   23.5290   33.6140 C   0  0  0  0  0  0  0  0  0  0  0  0
   37.6350   24.2040   32.5220 N   0  0  0  0  0  0  0  0  0  0  0  0
   37.2530   25.4300   32.8440 C   0  0  0  0  0  0  0  0  0  0  0  0
   36.7260   26.5860   32.2630 C   0  0  0  0  0  0  0  0  0  0  0  0
   36.5290   26.4790   31.0120 O   0  0  0  0  0  0  0  0  0  0  0  0
   36.4650   27.7030   33.0060 N   0  0  0  0  0  0  0  0  0  0  0  0
   36.6970   27.7350   34.2960 C   0  0  0  0  0  0  0  0  0  0  0  0
   36.3520   28.9900   34.8870 N   0  0  0  0  0  0  0  0  0  0  0  0
   37.2080   26.6430   34.9180 N   0  0  0  0  0  0  0  0  0  0  0  0
   37.4740   25.5360   34.2160 C   0  0  0  0  0  0  0  0  0  0  0  0
   35.9170   28.8720   32.3300 C   0  0  0  0  0  0  0  0  0  0  0  0
   36.6960   29.6480   31.4450 C   0  0  0  0  0  0  0  0  0  0  0  0
   35.5030   30.9560   30.9020 S   0  0  0  0  0  0  0  0  0  0  0  0
   34.1630   30.2140   31.9730 C   0  0  0  0  0  0  0  0  0  0  0  0
   34.6930   29.3340   32.4410 N   0  0  0  0  0  0  0  0  0  0  0  0
   32.7840   30.9120   31.9470 C   0  0  1  0  0  0  0  0  0  0  0  0
   31.6970   30.2660   32.6940 C   0  0  0  0  0  0  0  0  0  0  0  0
   32.4590   31.5200   33.2430 C   0  0  2  0  0  0  0  0  0  0  0  0
   31.5800   32.7280   33.3640 C   0  0  0  0  0  0  0  0  0  0  0  0
   30.3620   32.4700   34.2130 C   0  0  0  0  0  0  0  0  0  0  0  0
   31.1170   33.1790   31.9940 C   0  0  0  0  0  0  0  0  0  0  0  0
   41.0107   22.5068   37.3626 H   0  0  0  0  0  0  0  0  0  0  0  0
   39.5787   22.7893   39.4353 H   0  0  0  0  0  0  0  0  0  0  0  0
   37.3112   23.8734   39.1561 H   0  0  0  0  0  0  0  0  0  0  0  0
   38.4626   22.4961   33.6366 H   0  0  0  0  0  0  0  0  0  0  0  0
   36.4887   29.1385   35.8970 H   0  0  0  0  0  0  0  0  0  0  0  0
   35.9667   29.7458   34.3028 H   0  0  0  0  0  0  0  0  0  0  0  0
   37.7472   29.5104   31.1517 H   0  0  0  0  0  0  0  0  0  0  0  0
   32.8353   31.2646   30.9063 H   0  0  0  0  0  0  0  0  0  0  0  0
   30.6561   30.3545   32.3494 H   0  0  0  0  0  0  0  0  0  0  0  0
   31.4814   29.2501   33.0567 H   0  0  0  0  0  0  0  0  0  0  0  0
   33.0875   31.8217   34.0938 H   0  0  0  0  0  0  0  0  0  0  0  0
   32.1857   33.5082   33.8483 H   0  0  0  0  0  0  0  0  0  0  0  0
   30.6372   32.5283   35.2764 H   0  0  0  0  0  0  0  0  0  0  0  0
   29.5937   33.2253   33.9912 H   0  0  0  0  0  0  0  0  0  0  0  0
   29.9660   31.4680   33.9912 H   0  0  0  0  0  0  0  0  0  0  0  0
   30.3331   33.9426   32.1049 H   0  0  0  0  0  0  0  0  0  0  0  0
   31.9676   33.6043   31.4411 H   0  0  0  0  0  0  0  0  0  0  0  0
   30.7142   32.3176   31.4411 H   0  0  0  0  0  0  0  0  0  0  0  0
  1  2  2  0
  3  2  1  0
  4  3  2  0
  5  6  2  0
  5  4  1  0
  6  1  1  0
  7  5  1  0
  8  7  1  0
  9 10  1  0
  9  8  2  0
 10 17  2  0
 11 10  1  0
 11 13  1  0
 12 11  2  0
 13 14  1  0
 14 15  1  0
 14 16  2  0
 17  7  1  0
 17 16  1  0
 18 22  1  0
 18 13  1  0
 19 18  2  0
 20 19  1  0
 20 21  1  0
 21 22  2  0
 23 21  1  0
 23 24  1  0
 23 25  1  0
 24 25  1  0
 25 26  1  0
 26 27  1  0
 28 26  1  0
  1 29  1  0
  2 30  1  0
  3 31  1  0
  8 32  1  0
 15 33  1  0
 15 34  1  0
 19 35  1  0
 23 36  1  6
 24 37  1  0
 24 38  1  0
 25 39  1  1
 26 40  1  0
 27 41  1  0
 27 42  1  0
 27 43  1  0
 28 44  1  0
 28 45  1  0
 28 46  1  0
M  ISO  8  29  14  30  14  31  14  32  14  35  14  36  13  37  13  38  13
M  ISO  8  39  13  40   8  41   8  42   8  43   8  44   8  45   8  46   8
M  END
>  <minimizedAffinity>  (1) 
-5.75392723

>  <minimizedRMSD>  (1) 
0.0481077656

$$$$
