
     RDKit          3D

 44 47  0  0  0  0  0  0  0  0999 V2000
   40.1370   27.2280   29.8140 C   0  0  0  0  0  0  0  0  0  0  0  0
   42.6200   27.9440   32.5170 C   0  0  0  0  0  0  0  0  0  0  0  0
   42.0350   27.2190   33.5900 C   0  0  0  0  0  0  0  0  0  0  0  0
   40.8480   26.5240   33.3830 C   0  0  0  0  0  0  0  0  0  0  0  0
   40.3040   26.5810   32.1310 N   0  0  0  0  0  0  0  0  0  0  0  0
   40.8770   27.2770   31.1210 C   0  0  0  0  0  0  0  0  0  0  0  0
   42.0110   27.9470   31.3000 N   0  0  0  0  0  0  0  0  0  0  0  0
   38.8520   24.3710   36.4780 C   0  0  0  0  0  0  0  0  0  0  0  0
   39.9650   23.8300   35.8580 C   0  0  0  0  0  0  0  0  0  0  0  0
   40.6130   24.5320   34.8510 C   0  0  0  0  0  0  0  0  0  0  0  0
   40.1960   25.7630   34.4310 C   0  0  0  0  0  0  0  0  0  0  0  0
   39.0980   26.2780   35.0550 C   0  0  0  0  0  0  0  0  0  0  0  0
   38.4340   25.6120   36.0520 C   0  0  0  0  0  0  0  0  0  0  0  0
   38.1010   23.4070   37.7400 S   0  0  0  0  0  0  0  0  0  0  0  0
   36.8850   22.7130   37.2050 O   0  0  0  0  0  0  0  0  0  0  0  0
   37.6280   24.3600   38.8090 O   0  0  0  0  0  0  0  0  0  0  0  0
   38.6660   26.9710   30.0770 C   0  0  0  0  0  0  0  0  0  0  0  0
   37.8820   28.2400   30.1000 C   0  0  0  0  0  0  0  0  0  0  0  0
   37.0560   28.5140   31.1710 C   0  0  0  0  0  0  0  0  0  0  0  0
   36.2840   29.6560   31.3000 C   0  0  0  0  0  0  0  0  0  0  0  0
   36.3680   30.5620   30.2720 N   0  0  0  0  0  0  0  0  0  0  0  0
   37.1800   30.2980   29.2120 C   0  0  0  0  0  0  0  0  0  0  0  0
   37.9060   29.1600   29.1550 N   0  0  0  0  0  0  0  0  0  0  0  0
   37.2860   31.2420   28.1090 C   0  0  0  0  0  0  0  0  0  0  0  0
   38.1980   31.0010   27.0760 C   0  0  0  0  0  0  0  0  0  0  0  0
   38.0800   32.0660   26.1680 C   0  0  0  0  0  0  0  0  0  0  0  0
   37.1170   32.8960   26.6760 N   0  0  0  0  0  0  0  0  0  0  0  0
   36.6560   32.4040   27.8160 N   0  0  0  0  0  0  0  0  0  0  0  0
   40.5453   26.4184   29.1913 H   0  0  0  0  0  0  0  0  0  0  0  0
   40.2541   28.1878   29.2894 H   0  0  0  0  0  0  0  0  0  0  0  0
   43.5578   28.4985   32.6689 H   0  0  0  0  0  0  0  0  0  0  0  0
   42.5179   27.2074   34.5783 H   0  0  0  0  0  0  0  0  0  0  0  0
   40.3370   22.8411   36.1641 H   0  0  0  0  0  0  0  0  0  0  0  0
   41.4950   24.0802   34.3736 H   0  0  0  0  0  0  0  0  0  0  0  0
   38.7306   27.2676   34.7457 H   0  0  0  0  0  0  0  0  0  0  0  0
   37.5531   26.0762   36.5194 H   0  0  0  0  0  0  0  0  0  0  0  0
   38.9975   22.4845   38.2112 H   0  0  0  0  0  0  0  0  0  0  0  0
   38.2697   26.3210   29.2830 H   0  0  0  0  0  0  0  0  0  0  0  0
   38.5716   26.4905   31.0620 H   0  0  0  0  0  0  0  0  0  0  0  0
   37.0074   27.7712   31.9809 H   0  0  0  0  0  0  0  0  0  0  0  0
   35.6405   29.8275   32.1755 H   0  0  0  0  0  0  0  0  0  0  0  0
   38.8783   30.1408   26.9910 H   0  0  0  0  0  0  0  0  0  0  0  0
   38.6473   32.2053   25.2359 H   0  0  0  0  0  0  0  0  0  0  0  0
   36.7987   33.7719   26.2373 H   0  0  0  0  0  0  0  0  0  0  0  0
  1 17  1  0
  1  6  1  0
  2  3  2  0
  4  3  1  0
  4 11  1  0
  5  4  2  0
  6  7  2  0
  6  5  1  0
  7  2  1  0
  8 14  1  0
  9  8  2  0
 10  9  1  0
 11 10  2  0
 11 12  1  0
 12 13  2  0
 13  8  1  0
 14 16  2  0
 15 14  2  0
 17 18  1  0
 18 19  2  0
 19 20  1  0
 21 20  2  0
 22 21  1  0
 23 22  2  0
 23 18  1  0
 24 22  1  0
 25 24  1  0
 26 27  1  0
 26 25  2  0
 27 28  1  0
 28 24  2  0
  1 29  1  0
  1 30  1  0
  2 31  1  0
  3 32  1  0
  9 33  1  0
 10 34  1  0
 12 35  1  0
 13 36  1  0
 14 37  1  0
 17 38  1  0
 17 39  1  0
 19 40  1  0
 20 41  1  0
 25 42  1  0
 26 43  1  0
 27 44  1  0
M  ISO  8  29   8  30   8  31  14  32  14  33  14  34  14  35  14  36  14
M  ISO  8  37  11  38   8  39   8  40  14  41  14  42  14  43  14  44   9
M  END
>  <minimizedAffinity>  (1) 
-4.65330362

>  <minimizedRMSD>  (1) 
5.56942558

$$$$
