
     RDKit          3D

 36 38  0  0  0  0  0  0  0  0999 V2000
   37.8630   25.8590   34.8730 C   0  0  0  0  0  0  0  0  0  0  0  0
   37.7560   27.0650   35.5770 C   0  0  0  0  0  0  0  0  0  0  0  0
   37.1890   28.1180   34.8510 C   0  0  0  0  0  0  0  0  0  0  0  0
   36.7820   27.9060   33.5250 C   0  0  0  0  0  0  0  0  0  0  0  0
   36.9260   26.6620   32.9010 C   0  0  0  0  0  0  0  0  0  0  0  0
   37.4780   25.5890   33.5750 C   0  0  0  0  0  0  0  0  0  0  0  0
   37.7850   24.1390   36.6390 C   0  0  0  0  0  0  0  0  0  0  0  0
   38.5300   24.7940   35.6130 C   0  0  0  0  0  0  0  0  0  0  0  0
   39.8610   24.4200   35.3590 C   0  0  0  0  0  0  0  0  0  0  0  0
   40.3980   23.4230   36.1190 N   0  0  0  0  0  0  0  0  0  0  0  0
   39.6620   22.8000   37.1080 C   0  0  0  0  0  0  0  0  0  0  0  0
   38.3590   23.1590   37.3660 N   0  0  0  0  0  0  0  0  0  0  0  0
   37.4030   24.3740   32.7610 C   0  0  0  0  0  0  0  0  0  0  0  0
   36.1250   24.4870   31.8560 C   0  0  0  0  0  0  0  0  0  0  0  0
   35.7350   23.1350   31.3770 C   0  0  0  0  0  0  0  0  0  0  0  0
   37.0060   22.3830   31.0540 C   0  0  0  0  0  0  0  0  0  0  0  0
   38.0380   23.4100   30.6120 C   0  0  0  0  0  0  0  0  0  0  0  0
   38.5600   24.1250   31.8560 C   0  0  0  0  0  0  0  0  0  0  0  0
   38.0914   27.1756   36.6188 H   0  0  0  0  0  0  0  0  0  0  0  0
   37.0630   29.1064   35.3170 H   0  0  0  0  0  0  0  0  0  0  0  0
   36.3381   28.7397   32.9613 H   0  0  0  0  0  0  0  0  0  0  0  0
   36.5953   26.5362   31.8595 H   0  0  0  0  0  0  0  0  0  0  0  0
   36.7437   24.4332   36.8366 H   0  0  0  0  0  0  0  0  0  0  0  0
   40.4501   24.9152   34.5730 H   0  0  0  0  0  0  0  0  0  0  0  0
   40.1275   21.9997   37.7021 H   0  0  0  0  0  0  0  0  0  0  0  0
   37.3873   23.5380   33.4757 H   0  0  0  0  0  0  0  0  0  0  0  0
   35.2999   24.9212   32.4396 H   0  0  0  0  0  0  0  0  0  0  0  0
   36.3434   25.1326   30.9926 H   0  0  0  0  0  0  0  0  0  0  0  0
   35.1746   22.6057   32.1618 H   0  0  0  0  0  0  0  0  0  0  0  0
   35.0924   23.2097   30.4873 H   0  0  0  0  0  0  0  0  0  0  0  0
   37.3645   21.8487   31.9461 H   0  0  0  0  0  0  0  0  0  0  0  0
   36.8295   21.6414   30.2610 H   0  0  0  0  0  0  0  0  0  0  0  0
   38.8683   22.9057   30.0960 H   0  0  0  0  0  0  0  0  0  0  0  0
   37.5827   24.1336   29.9199 H   0  0  0  0  0  0  0  0  0  0  0  0
   39.3036   23.4943   32.3651 H   0  0  0  0  0  0  0  0  0  0  0  0
   39.0405   25.0748   31.5785 H   0  0  0  0  0  0  0  0  0  0  0  0
  1  2  2  0
  1  8  1  0
  3  2  1  0
  4  3  2  0
  5  4  1  0
  5  6  2  0
  6  1  1  0
  7 12  2  0
  8  7  1  0
  9  8  2  0
  9 10  1  0
 10 11  2  0
 11 12  1  0
 13  6  1  0
 14 13  1  0
 15 14  1  0
 16 15  1  0
 17 16  1  0
 17 18  1  0
 18 13  1  0
  2 19  1  0
  3 20  1  0
  4 21  1  0
  5 22  1  0
  7 23  1  0
  9 24  1  0
 11 25  1  0
 13 26  1  0
 14 27  1  0
 14 28  1  0
 15 29  1  0
 15 30  1  0
 16 31  1  0
 16 32  1  0
 17 33  1  0
 17 34  1  0
 18 35  1  0
 18 36  1  0
M  ISO  8  19  14  20  14  21  14  22  14  23  14  24  14  25  14  26  13
M  ISO  8  27  13  28  13  29  13  30  13  31  13  32  13  33  13  34  13
M  ISO  2  35  13  36  13
M  END
>  <minimizedAffinity>  (1) 
-4.95195389

>  <minimizedRMSD>  (1) 
5.59993505

$$$$
