
     RDKit          3D

 33 35  0  0  0  0  0  0  0  0999 V2000
   37.2780   23.9190   32.6930 C   0  0  0  0  0  0  0  0  0  0  0  0
   37.1940   25.3180   32.6730 C   0  0  0  0  0  0  0  0  0  0  0  0
   36.2020   25.8520   31.8460 C   0  0  0  0  0  0  0  0  0  0  0  0
   35.3720   25.0090   31.1030 C   0  0  0  0  0  0  0  0  0  0  0  0
   35.5240   23.6220   31.1810 C   0  0  0  0  0  0  0  0  0  0  0  0
   36.5010   23.0360   31.9970 C   0  0  0  0  0  0  0  0  0  0  0  0
   37.9730   23.0820   34.8990 C   0  0  0  0  0  0  0  0  0  0  0  0
   38.3130   23.3740   33.5390 C   0  0  0  0  0  0  0  0  0  0  0  0
   39.6100   23.1140   33.1140 C   0  0  0  0  0  0  0  0  0  0  0  0
   40.5140   22.5990   33.9700 N   0  0  0  0  0  0  0  0  0  0  0  0
   40.1680   22.3250   35.2740 C   0  0  0  0  0  0  0  0  0  0  0  0
   38.9000   22.5670   35.7380 N   0  0  0  0  0  0  0  0  0  0  0  0
   36.2000   18.8520   31.9170 C   0  0  0  0  0  0  0  0  0  0  0  0
   36.9970   19.4530   30.9640 C   0  0  0  0  0  0  0  0  0  0  0  0
   37.0880   20.8290   30.9870 C   0  0  0  0  0  0  0  0  0  0  0  0
   36.4150   21.6280   31.9250 C   0  0  0  0  0  0  0  0  0  0  0  0
   35.6280   20.9270   32.8550 C   0  0  0  0  0  0  0  0  0  0  0  0
   35.4980   19.5510   32.8780 C   0  0  0  0  0  0  0  0  0  0  0  0
   36.0940   17.1020   31.8730 S   0  0  0  0  0  0  0  0  0  0  0  0
   37.4140   16.5510   32.3060 O   0  0  0  0  0  0  0  0  0  0  0  0
   35.0530   16.6570   32.8530 O   0  0  0  0  0  0  0  0  0  0  0  0
   37.8649   25.9539   33.2692 H   0  0  0  0  0  0  0  0  0  0  0  0
   36.0740   26.9425   31.7797 H   0  0  0  0  0  0  0  0  0  0  0  0
   34.5952   25.4390   30.4536 H   0  0  0  0  0  0  0  0  0  0  0  0
   34.8611   22.9749   30.5878 H   0  0  0  0  0  0  0  0  0  0  0  0
   36.9534   23.2775   35.2627 H   0  0  0  0  0  0  0  0  0  0  0  0
   39.8998   23.3294   32.0750 H   0  0  0  0  0  0  0  0  0  0  0  0
   40.9217   21.9045   35.9560 H   0  0  0  0  0  0  0  0  0  0  0  0
   37.5390   18.8573   30.2147 H   0  0  0  0  0  0  0  0  0  0  0  0
   37.7184   21.3245   30.2339 H   0  0  0  0  0  0  0  0  0  0  0  0
   35.0817   21.5095   33.6114 H   0  0  0  0  0  0  0  0  0  0  0  0
   34.8689   19.0406   33.6222 H   0  0  0  0  0  0  0  0  0  0  0  0
   35.7711   16.6706   30.6134 H   0  0  0  0  0  0  0  0  0  0  0  0
  1  8  1  0
  2  1  2  0
  3  2  1  0
  4  5  1  0
  4  3  2  0
  5  6  2  0
  6  1  1  0
  7 12  2  0
  8  7  1  0
  9  8  2  0
  9 10  1  0
 10 11  2  0
 11 12  1  0
 13 18  2  0
 14 15  2  0
 14 13  1  0
 15 16  1  0
 16  6  1  0
 16 17  2  0
 17 18  1  0
 19 13  1  0
 19 20  2  0
 19 21  2  0
  2 22  1  0
  3 23  1  0
  4 24  1  0
  5 25  1  0
  7 26  1  0
  9 27  1  0
 11 28  1  0
 14 29  1  0
 15 30  1  0
 17 31  1  0
 18 32  1  0
 19 33  1  0
M  ISO  8  22  14  23  14  24  14  25  14  26  14  27  14  28  14  29  14
M  ISO  4  30  14  31  14  32  14  33  11
M  END
>  <minimizedAffinity>  (1) 
-4.83145332

>  <minimizedRMSD>  (1) 
4.81856728

$$$$
