
     RDKit          3D

 30 32  0  0  0  0  0  0  0  0999 V2000
   37.2320   24.2020   32.5920 C   0  0  0  0  0  0  0  0  0  0  0  0
   37.2440   25.5990   32.6730 C   0  0  0  0  0  0  0  0  0  0  0  0
   36.2990   26.2590   31.8960 C   0  0  0  0  0  0  0  0  0  0  0  0
   35.4110   25.5340   31.0950 C   0  0  0  0  0  0  0  0  0  0  0  0
   35.4610   24.1380   31.0660 C   0  0  0  0  0  0  0  0  0  0  0  0
   36.3900   23.4340   31.8300 C   0  0  0  0  0  0  0  0  0  0  0  0
   37.8790   23.1410   34.7230 C   0  0  0  0  0  0  0  0  0  0  0  0
   38.2300   23.5310   33.3920 C   0  0  0  0  0  0  0  0  0  0  0  0
   39.5090   23.2500   32.9350 C   0  0  0  0  0  0  0  0  0  0  0  0
   40.3920   22.6140   33.7510 N   0  0  0  0  0  0  0  0  0  0  0  0
   40.0290   22.2500   35.0280 C   0  0  0  0  0  0  0  0  0  0  0  0
   38.7730   22.5120   35.5170 N   0  0  0  0  0  0  0  0  0  0  0  0
   36.2100   22.0410   31.6620 C   0  0  0  0  0  0  0  0  0  0  0  0
   36.9640   21.1600   30.8680 C   0  0  0  0  0  0  0  0  0  0  0  0
   36.6490   19.8270   30.7830 C   0  0  0  0  0  0  0  0  0  0  0  0
   35.5560   19.3460   31.5030 C   0  0  0  0  0  0  0  0  0  0  0  0
   34.7770   20.1580   32.2980 C   0  0  0  0  0  0  0  0  0  0  0  0
   35.1210   21.4990   32.3630 C   0  0  0  0  0  0  0  0  0  0  0  0
   37.9568   26.1411   33.3117 H   0  0  0  0  0  0  0  0  0  0  0  0
   36.2494   27.3578   31.9113 H   0  0  0  0  0  0  0  0  0  0  0  0
   34.6678   26.0666   30.4834 H   0  0  0  0  0  0  0  0  0  0  0  0
   34.7549   23.5850   30.4291 H   0  0  0  0  0  0  0  0  0  0  0  0
   36.8698   23.3557   35.1042 H   0  0  0  0  0  0  0  0  0  0  0  0
   39.8080   23.5402   31.9170 H   0  0  0  0  0  0  0  0  0  0  0  0
   40.7608   21.7383   35.6704 H   0  0  0  0  0  0  0  0  0  0  0  0
   37.8247   21.5470   30.3028 H   0  0  0  0  0  0  0  0  0  0  0  0
   37.2486   19.1494   30.1574 H   0  0  0  0  0  0  0  0  0  0  0  0
   35.3061   18.2770   31.4336 H   0  0  0  0  0  0  0  0  0  0  0  0
   33.9182   19.7588   32.8576 H   0  0  0  0  0  0  0  0  0  0  0  0
   34.5143   22.1678   32.9912 H   0  0  0  0  0  0  0  0  0  0  0  0
  1  2  2  0
  1  8  1  0
  3  2  1  0
  4  3  2  0
  5  4  1  0
  5  6  2  0
  6  1  1  0
  7 12  2  0
  8  7  1  0
  9  8  2  0
  9 10  1  0
 10 11  2  0
 11 12  1  0
 13  6  1  0
 13 18  1  0
 14 13  2  0
 15 14  1  0
 15 16  2  0
 16 17  1  0
 17 18  2  0
  2 19  1  0
  3 20  1  0
  4 21  1  0
  5 22  1  0
  7 23  1  0
  9 24  1  0
 11 25  1  0
 14 26  1  0
 15 27  1  0
 16 28  1  0
 17 29  1  0
 18 30  1  0
M  ISO  8  19  14  20  14  21  14  22  14  23  14  24  14  25  14  26  14
M  ISO  4  27  14  28  14  29  14  30  14
M  END
>  <minimizedAffinity>  (1) 
-4.78296661

>  <minimizedRMSD>  (1) 
4.20676613

$$$$
