
     RDKit          3D

 31 34  0  0  0  0  0  0  0  0999 V2000
   37.1030   21.9490   33.3780 C   0  0  0  0  0  0  0  0  0  0  0  0
   36.0920   21.0010   33.2270 C   0  0  0  0  0  0  0  0  0  0  0  0
   35.5760   20.4730   34.4180 C   0  0  0  0  0  0  0  0  0  0  0  0
   36.0800   20.9030   35.6500 C   0  0  0  0  0  0  0  0  0  0  0  0
   37.0970   21.8610   35.7050 C   0  0  0  0  0  0  0  0  0  0  0  0
   37.6310   22.4070   34.5510 C   0  0  0  0  0  0  0  0  0  0  0  0
   38.6010   23.3680   34.8730 N   0  0  0  0  0  0  0  0  0  0  0  0
   39.9150   23.0870   35.1450 C   0  0  0  0  0  0  0  0  0  0  0  0
   40.5890   24.2210   35.3880 N   0  0  0  0  0  0  0  0  0  0  0  0
   39.7160   25.2270   35.2740 C   0  0  0  0  0  0  0  0  0  0  0  0
   39.7610   26.5970   35.3960 C   0  0  0  0  0  0  0  0  0  0  0  0
   38.7050   27.4160   35.2250 N   0  0  0  0  0  0  0  0  0  0  0  0
   37.5090   26.8780   34.9130 C   0  0  0  0  0  0  0  0  0  0  0  0
   37.4240   25.5370   34.7860 N   0  0  0  0  0  0  0  0  0  0  0  0
   38.4690   24.7300   34.9550 C   0  0  0  0  0  0  0  0  0  0  0  0
   37.0440   23.6570   31.5990 C   0  0  0  0  0  0  0  0  0  0  0  0
   37.6390   22.4740   32.1410 C   0  0  0  0  0  0  0  0  0  0  0  0
   38.6960   21.8820   31.4580 C   0  0  0  0  0  0  0  0  0  0  0  0
   39.1300   22.4490   30.2960 N   0  0  0  0  0  0  0  0  0  0  0  0
   38.5400   23.5880   29.7930 C   0  0  0  0  0  0  0  0  0  0  0  0
   37.4950   24.1940   30.4460 N   0  0  0  0  0  0  0  0  0  0  0  0
   35.7239   20.6883   32.2387 H   0  0  0  0  0  0  0  0  0  0  0  0
   34.7745   19.7203   34.3841 H   0  0  0  0  0  0  0  0  0  0  0  0
   35.6733   20.4844   36.5824 H   0  0  0  0  0  0  0  0  0  0  0  0
   37.4796   22.1866   36.6835 H   0  0  0  0  0  0  0  0  0  0  0  0
   40.3530   22.0781   35.1616 H   0  0  0  0  0  0  0  0  0  0  0  0
   40.7276   27.0559   35.6512 H   0  0  0  0  0  0  0  0  0  0  0  0
   36.6249   27.5157   34.7657 H   0  0  0  0  0  0  0  0  0  0  0  0
   36.2074   24.1353   32.1294 H   0  0  0  0  0  0  0  0  0  0  0  0
   39.1741   20.9715   31.8485 H   0  0  0  0  0  0  0  0  0  0  0  0
   38.9125   24.0193   28.8521 H   0  0  0  0  0  0  0  0  0  0  0  0
  1  6  1  0
  2  1  2  0
  2  3  1  0
  3  4  2  0
  4  5  1  0
  6  7  1  0
  6  5  2  0
  7 15  1  0
  7  8  1  0
  8  9  2  0
 10  9  1  0
 10 11  2  0
 12 11  1  0
 13 12  2  0
 14 13  1  0
 14 15  2  0
 15 10  1  0
 16 17  2  0
 17  1  1  0
 18 17  1  0
 19 18  2  0
 20 19  1  0
 20 21  2  0
 21 16  1  0
  2 22  1  0
  3 23  1  0
  4 24  1  0
  5 25  1  0
  8 26  1  0
 11 27  1  0
 13 28  1  0
 16 29  1  0
 18 30  1  0
 20 31  1  0
M  ISO  8  22  14  23  14  24  14  25  14  26  14  27  14  28  14  29  14
M  ISO  2  30  14  31  14
M  END
>  <minimizedAffinity>  (1) 
-4.68717813

>  <minimizedRMSD>  (1) 
5.01038551

$$$$
