
     RDKit          3D

 28 30  0  0  0  0  0  0  0  0999 V2000
   39.3400   25.2810   34.7130 C   0  0  0  0  0  0  0  0  0  0  0  0
   40.1410   26.4180   34.8490 C   0  0  0  0  0  0  0  0  0  0  0  0
   40.3530   27.1410   33.6840 C   0  0  0  0  0  0  0  0  0  0  0  0
   39.7890   26.7320   32.4720 C   0  0  0  0  0  0  0  0  0  0  0  0
   39.0000   25.5830   32.4190 C   0  0  0  0  0  0  0  0  0  0  0  0
   38.7590   24.8270   33.5590 C   0  0  0  0  0  0  0  0  0  0  0  0
   37.9880   24.8470   36.7290 C   0  0  0  0  0  0  0  0  0  0  0  0
   39.1260   24.5210   35.9210 C   0  0  0  0  0  0  0  0  0  0  0  0
   39.9580   23.4920   36.3430 C   0  0  0  0  0  0  0  0  0  0  0  0
   39.6820   22.8250   37.4920 N   0  0  0  0  0  0  0  0  0  0  0  0
   38.5810   23.1620   38.2480 C   0  0  0  0  0  0  0  0  0  0  0  0
   37.7410   24.1730   37.8590 N   0  0  0  0  0  0  0  0  0  0  0  0
   37.8920   23.7210   33.2570 C   0  0  0  0  0  0  0  0  0  0  0  0
   36.9600   23.9590   32.2340 C   0  0  0  0  0  0  0  0  0  0  0  0
   36.0690   22.9500   31.8860 C   0  0  0  0  0  0  0  0  0  0  0  0
   36.0910   21.7730   32.5090 N   0  0  0  0  0  0  0  0  0  0  0  0
   36.9740   21.5560   33.4740 C   0  0  0  0  0  0  0  0  0  0  0  0
   37.8380   22.4840   33.8370 N   0  0  0  0  0  0  0  0  0  0  0  0
   40.5740   26.7193   35.8142 H   0  0  0  0  0  0  0  0  0  0  0  0
   40.9735   28.0487   33.7144 H   0  0  0  0  0  0  0  0  0  0  0  0
   39.9678   27.3176   31.5582 H   0  0  0  0  0  0  0  0  0  0  0  0
   38.5619   25.2708   31.4596 H   0  0  0  0  0  0  0  0  0  0  0  0
   37.3122   25.6574   36.4182 H   0  0  0  0  0  0  0  0  0  0  0  0
   40.8403   23.2179   35.7460 H   0  0  0  0  0  0  0  0  0  0  0  0
   38.3728   22.6118   39.1775 H   0  0  0  0  0  0  0  0  0  0  0  0
   36.9352   24.9290   31.7158 H   0  0  0  0  0  0  0  0  0  0  0  0
   35.3358   23.1262   31.0851 H   0  0  0  0  0  0  0  0  0  0  0  0
   36.9862   20.5809   33.9829 H   0  0  0  0  0  0  0  0  0  0  0  0
  1  2  2  0
  1  8  1  0
  3  2  1  0
  4  3  2  0
  5  4  1  0
  5  6  2  0
  6  1  1  0
  7 12  2  0
  8  9  2  0
  8  7  1  0
  9 10  1  0
 10 11  2  0
 12 11  1  0
 13  6  1  0
 13 18  1  0
 14 13  2  0
 15 14  1  0
 15 16  2  0
 16 17  1  0
 17 18  2  0
  2 19  1  0
  3 20  1  0
  4 21  1  0
  5 22  1  0
  7 23  1  0
  9 24  1  0
 11 25  1  0
 14 26  1  0
 15 27  1  0
 17 28  1  0
M  ISO  8  19  14  20  14  21  14  22  14  23  14  24  14  25  14  26  14
M  ISO  2  27  14  28  14
M  END
>  <minimizedAffinity>  (1) 
-4.67878389

>  <minimizedRMSD>  (1) 
5.03268623

$$$$
