
     RDKit          3D

 30 32  0  0  0  0  0  0  0  0999 V2000
   37.3470   23.8150   32.8200 C   0  0  0  0  0  0  0  0  0  0  0  0
   37.3490   25.2030   32.6700 C   0  0  0  0  0  0  0  0  0  0  0  0
   36.3880   25.7320   31.8050 C   0  0  0  0  0  0  0  0  0  0  0  0
   35.4990   24.8710   31.1510 C   0  0  0  0  0  0  0  0  0  0  0  0
   35.5620   23.4890   31.3550 C   0  0  0  0  0  0  0  0  0  0  0  0
   36.5030   22.9310   32.2090 C   0  0  0  0  0  0  0  0  0  0  0  0
   38.0140   23.1010   35.0840 C   0  0  0  0  0  0  0  0  0  0  0  0
   38.3590   23.2850   33.7070 C   0  0  0  0  0  0  0  0  0  0  0  0
   39.6390   22.9540   33.2960 C   0  0  0  0  0  0  0  0  0  0  0  0
   40.5200   22.4650   34.2140 N   0  0  0  0  0  0  0  0  0  0  0  0
   40.1590   22.2990   35.5340 C   0  0  0  0  0  0  0  0  0  0  0  0
   38.8960   22.6200   35.9700 N   0  0  0  0  0  0  0  0  0  0  0  0
   36.3270   21.5430   32.2720 N   0  0  0  0  0  0  0  0  0  0  0  0
   35.5250   20.8770   33.1580 C   0  0  0  0  0  0  0  0  0  0  0  0
   35.4180   19.5050   33.1890 C   0  0  0  0  0  0  0  0  0  0  0  0
   36.1510   18.7710   32.2870 C   0  0  0  0  0  0  0  0  0  0  0  0
   36.1180   17.5140   32.2390 O   0  0  0  0  0  0  0  0  0  0  0  0
   36.9510   19.3890   31.4010 N   0  0  0  0  0  0  0  0  0  0  0  0
   37.0190   20.7290   31.4140 C   0  0  0  0  0  0  0  0  0  0  0  0
   37.7960   21.2550   30.5470 O   0  0  0  0  0  0  0  0  0  0  0  0
   38.0668   25.8440   33.2029 H   0  0  0  0  0  0  0  0  0  0  0  0
   36.3303   26.8179   31.6389 H   0  0  0  0  0  0  0  0  0  0  0  0
   34.7424   25.2861   30.4690 H   0  0  0  0  0  0  0  0  0  0  0  0
   34.8531   22.8325   30.8292 H   0  0  0  0  0  0  0  0  0  0  0  0
   37.0002   23.3608   35.4227 H   0  0  0  0  0  0  0  0  0  0  0  0
   39.9400   23.0835   32.2460 H   0  0  0  0  0  0  0  0  0  0  0  0
   40.8941   21.9030   36.2501 H   0  0  0  0  0  0  0  0  0  0  0  0
   34.9384   21.4652   33.8791 H   0  0  0  0  0  0  0  0  0  0  0  0
   34.7615   19.0078   33.9182 H   0  0  0  0  0  0  0  0  0  0  0  0
   37.5025   18.8432   30.7236 H   0  0  0  0  0  0  0  0  0  0  0  0
  1  8  1  0
  2  1  2  0
  3  2  1  0
  4  5  1  0
  4  3  2  0
  5  6  2  0
  6 13  1  0
  6  1  1  0
  7 12  2  0
  8  7  1  0
  9  8  2  0
  9 10  1  0
 10 11  2  0
 11 12  1  0
 13 14  1  0
 14 15  2  0
 16 15  1  0
 17 16  2  0
 18 19  1  0
 18 16  1  0
 19 13  1  0
 20 19  2  0
  2 21  1  0
  3 22  1  0
  4 23  1  0
  5 24  1  0
  7 25  1  0
  9 26  1  0
 11 27  1  0
 14 28  1  0
 15 29  1  0
 18 30  1  0
M  ISO  8  21  14  22  14  23  14  24  14  25  14  26  14  27  14  28  14
M  ISO  2  29  14  30   9
M  END
>  <minimizedAffinity>  (1) 
-4.64202642

>  <minimizedRMSD>  (1) 
3.99487615

$$$$
