
     RDKit          3D

 31 33  0  0  0  0  0  0  0  0999 V2000
   38.7640   23.8740   32.4220 C   0  0  0  0  0  0  0  0  0  0  0  0
   39.6230   24.9360   32.1430 C   0  0  0  0  0  0  0  0  0  0  0  0
   39.7900   25.2410   30.7890 C   0  0  0  0  0  0  0  0  0  0  0  0
   39.1190   24.5010   29.8120 C   0  0  0  0  0  0  0  0  0  0  0  0
   38.2750   23.4480   30.1750 C   0  0  0  0  0  0  0  0  0  0  0  0
   38.0810   23.1160   31.5070 C   0  0  0  0  0  0  0  0  0  0  0  0
   37.1610   22.0630   31.6010 N   0  0  0  0  0  0  0  0  0  0  0  0
   37.5460   20.7490   31.5110 C   0  0  0  0  0  0  0  0  0  0  0  0
   36.7160   19.6530   31.6200 C   0  0  0  0  0  0  0  0  0  0  0  0
   35.3880   19.9570   31.8380 C   0  0  0  0  0  0  0  0  0  0  0  0
   34.4780   18.8480   31.9580 N   0  0  0  0  0  0  0  0  0  0  0  0
   34.9400   21.2210   31.9370 N   0  0  0  0  0  0  0  0  0  0  0  0
   35.8170   22.2370   31.8190 C   0  0  0  0  0  0  0  0  0  0  0  0
   35.4950   23.4530   31.8970 O   0  0  0  0  0  0  0  0  0  0  0  0
   38.0280   24.5420   34.6760 C   0  0  0  0  0  0  0  0  0  0  0  0
   38.6060   23.5500   33.8180 C   0  0  0  0  0  0  0  0  0  0  0  0
   38.9800   22.3370   34.3730 C   0  0  0  0  0  0  0  0  0  0  0  0
   38.7990   22.1050   35.6910 N   0  0  0  0  0  0  0  0  0  0  0  0
   38.2410   23.0690   36.4990 C   0  0  0  0  0  0  0  0  0  0  0  0
   37.8590   24.2850   35.9920 N   0  0  0  0  0  0  0  0  0  0  0  0
   40.1364   25.4978   32.9372 H   0  0  0  0  0  0  0  0  0  0  0  0
   40.4525   26.0671   30.4914 H   0  0  0  0  0  0  0  0  0  0  0  0
   39.2561   24.7492   28.7492 H   0  0  0  0  0  0  0  0  0  0  0  0
   37.7570   22.8742   29.3924 H   0  0  0  0  0  0  0  0  0  0  0  0
   38.6139   20.5519   31.3360 H   0  0  0  0  0  0  0  0  0  0  0  0
   37.0833   18.6193   31.5396 H   0  0  0  0  0  0  0  0  0  0  0  0
   33.4756   19.0197   32.1213 H   0  0  0  0  0  0  0  0  0  0  0  0
   34.8293   17.8829   31.8806 H   0  0  0  0  0  0  0  0  0  0  0  0
   37.7214   25.5142   34.2626 H   0  0  0  0  0  0  0  0  0  0  0  0
   39.4267   21.5588   33.7368 H   0  0  0  0  0  0  0  0  0  0  0  0
   38.0988   22.8609   37.5697 H   0  0  0  0  0  0  0  0  0  0  0  0
  1 16  1  0
  2  1  2  0
  3  2  1  0
  4  5  1  0
  4  3  2  0
  5  6  2  0
  6  7  1  0
  6  1  1  0
  7 13  1  0
  8  7  1  0
  8  9  2  0
  9 10  1  0
 10 12  2  0
 10 11  1  0
 13 14  2  0
 13 12  1  0
 15 20  2  0
 16 17  2  0
 16 15  1  0
 17 18  1  0
 18 19  2  0
 20 19  1  0
  2 21  1  0
  3 22  1  0
  4 23  1  0
  5 24  1  0
  8 25  1  0
  9 26  1  0
 11 27  1  0
 11 28  1  0
 15 29  1  0
 17 30  1  0
 19 31  1  0
M  ISO  8  21  14  22  14  23  14  24  14  25  14  26  14  29  14  30  14
M  ISO  1  31  14
M  END
>  <minimizedAffinity>  (1) 
-4.58880663

>  <minimizedRMSD>  (1) 
4.40081882

$$$$
