
     RDKit          3D

 33 35  0  0  0  0  0  0  0  0999 V2000
   38.4310   25.2980   35.2100 C   0  0  0  0  0  0  0  0  0  0  0  0
   38.2390   26.5360   35.7930 C   0  0  0  0  0  0  0  0  0  0  0  0
   37.5110   27.4700   35.0560 C   0  0  0  0  0  0  0  0  0  0  0  0
   37.0190   27.1390   33.8090 C   0  0  0  0  0  0  0  0  0  0  0  0
   37.2510   25.8710   33.2810 C   0  0  0  0  0  0  0  0  0  0  0  0
   37.9740   24.9100   33.9840 C   0  0  0  0  0  0  0  0  0  0  0  0
   38.5700   23.8470   37.1960 C   0  0  0  0  0  0  0  0  0  0  0  0
   39.1630   24.3380   35.9910 C   0  0  0  0  0  0  0  0  0  0  0  0
   40.4060   23.8450   35.6660 C   0  0  0  0  0  0  0  0  0  0  0  0
   41.0230   22.9380   36.4590 N   0  0  0  0  0  0  0  0  0  0  0  0
   40.4210   22.4900   37.6080 C   0  0  0  0  0  0  0  0  0  0  0  0
   39.1880   22.9470   37.9790 N   0  0  0  0  0  0  0  0  0  0  0  0
   38.0580   23.7430   33.2140 N   0  0  0  0  0  0  0  0  0  0  0  0
   38.8810   23.6610   31.9850 C   0  0  0  0  0  0  0  0  0  0  0  0
   38.7260   22.2320   31.5080 C   0  0  0  0  0  0  0  0  0  0  0  0
   37.3930   21.9740   31.2360 O   0  0  0  0  0  0  0  0  0  0  0  0
   36.5930   22.0300   32.3440 C   0  0  0  0  0  0  0  0  0  0  0  0
   37.3100   22.5270   33.5840 C   0  0  0  0  0  0  0  0  0  0  0  0
   38.6405   26.7732   36.7892 H   0  0  0  0  0  0  0  0  0  0  0  0
   37.3283   28.4729   35.4693 H   0  0  0  0  0  0  0  0  0  0  0  0
   36.4432   27.8775   33.2319 H   0  0  0  0  0  0  0  0  0  0  0  0
   36.8540   25.6228   32.2856 H   0  0  0  0  0  0  0  0  0  0  0  0
   37.5772   24.2176   37.4910 H   0  0  0  0  0  0  0  0  0  0  0  0
   40.9049   24.1927   34.7494 H   0  0  0  0  0  0  0  0  0  0  0  0
   40.9385   21.7526   38.2392 H   0  0  0  0  0  0  0  0  0  0  0  0
   38.5124   24.3652   31.2245 H   0  0  0  0  0  0  0  0  0  0  0  0
   39.9326   23.9237   32.1721 H   0  0  0  0  0  0  0  0  0  0  0  0
   39.3210   22.0846   30.5946 H   0  0  0  0  0  0  0  0  0  0  0  0
   39.0779   21.5455   32.2921 H   0  0  0  0  0  0  0  0  0  0  0  0
   35.7527   22.7077   32.1327 H   0  0  0  0  0  0  0  0  0  0  0  0
   36.2588   21.0032   32.5536 H   0  0  0  0  0  0  0  0  0  0  0  0
   38.0050   21.7564   33.9488 H   0  0  0  0  0  0  0  0  0  0  0  0
   36.5875   22.7481   34.3835 H   0  0  0  0  0  0  0  0  0  0  0  0
  1  2  2  0
  1  8  1  0
  3  2  1  0
  4  3  2  0
  5  4  1  0
  5  6  2  0
  6  1  1  0
  7 12  2  0
  8  7  1  0
  9  8  2  0
  9 10  1  0
 10 11  2  0
 11 12  1  0
 13 18  1  0
 13  6  1  0
 14 13  1  0
 15 14  1  0
 16 15  1  0
 16 17  1  0
 17 18  1  0
  2 19  1  0
  3 20  1  0
  4 21  1  0
  5 22  1  0
  7 23  1  0
  9 24  1  0
 11 25  1  0
 14 26  1  0
 14 27  1  0
 15 28  1  0
 15 29  1  0
 17 30  1  0
 17 31  1  0
 18 32  1  0
 18 33  1  0
M  ISO  8  19  14  20  14  21  14  22  14  23  14  24  14  25  14  26  13
M  ISO  7  27  13  28  13  29  13  30  13  31  13  32  13  33  13
M  END
>  <minimizedAffinity>  (1) 
-4.54512644

>  <minimizedRMSD>  (1) 
5.24173546

$$$$
