
     RDKit          3D

 32 33  0  0  0  0  0  0  0  0999 V2000
   39.0460   24.0310   36.2570 C   0  0  0  0  0  0  0  0  0  0  0  0
   37.9840   24.6590   36.9410 C   0  0  0  0  0  0  0  0  0  0  0  0
   37.8690   24.3310   38.2850 C   0  0  0  0  0  0  0  0  0  0  0  0
   38.7830   23.4350   38.8460 C   0  0  0  0  0  0  0  0  0  0  0  0
   39.7910   22.8710   38.1040 C   0  0  0  0  0  0  0  0  0  0  0  0
   39.9910   23.1330   36.7540 C   0  0  0  0  0  0  0  0  0  0  0  0
   40.0150   25.4560   34.4770 C   0  0  0  0  0  0  0  0  0  0  0  0
   39.1340   24.3990   34.8700 C   0  0  0  0  0  0  0  0  0  0  0  0
   38.3990   23.7760   33.9070 C   0  0  0  0  0  0  0  0  0  0  0  0
   38.4900   24.1340   32.6050 N   0  0  0  0  0  0  0  0  0  0  0  0
   39.3450   25.1570   32.2310 C   0  0  0  0  0  0  0  0  0  0  0  0
   40.1000   25.8100   33.1720 N   0  0  0  0  0  0  0  0  0  0  0  0
   41.0760   22.3650   36.1580 C   0  0  0  0  0  0  0  0  0  0  0  0
   40.9390   22.0220   34.7160 C   0  0  0  0  0  0  0  0  0  0  0  0
   41.6620   21.3690   37.0960 C   0  0  0  0  0  0  0  0  0  0  0  0
   42.3160   23.3790   36.0280 C   0  0  0  0  0  0  0  0  0  0  0  0
   37.2958   25.3590   36.4446 H   0  0  0  0  0  0  0  0  0  0  0  0
   37.0696   24.7702   38.8998 H   0  0  0  0  0  0  0  0  0  0  0  0
   38.6923   23.1746   39.9109 H   0  0  0  0  0  0  0  0  0  0  0  0
   40.4780   22.1735   38.6056 H   0  0  0  0  0  0  0  0  0  0  0  0
   40.6209   25.9791   35.2315 H   0  0  0  0  0  0  0  0  0  0  0  0
   37.7158   22.9632   34.1943 H   0  0  0  0  0  0  0  0  0  0  0  0
   39.4193   25.4479   31.1728 H   0  0  0  0  0  0  0  0  0  0  0  0
   40.5326   21.0045   34.6181 H   0  0  0  0  0  0  0  0  0  0  0  0
   40.2575   22.7371   34.2321 H   0  0  0  0  0  0  0  0  0  0  0  0
   41.9257   22.0709   34.2321 H   0  0  0  0  0  0  0  0  0  0  0  0
   41.4749   21.6870   38.1323 H   0  0  0  0  0  0  0  0  0  0  0  0
   41.1980   20.3865   36.9245 H   0  0  0  0  0  0  0  0  0  0  0  0
   42.7462   21.2974   36.9245 H   0  0  0  0  0  0  0  0  0  0  0  0
   42.6639   23.6635   37.0320 H   0  0  0  0  0  0  0  0  0  0  0  0
   43.1350   22.8885   35.4815 H   0  0  0  0  0  0  0  0  0  0  0  0
   41.9979   24.2791   35.4815 H   0  0  0  0  0  0  0  0  0  0  0  0
  1  6  1  0
  1  2  2  0
  2  3  1  0
  3  4  2  0
  5  4  1  0
  6  5  2  0
  7  8  2  0
  8  1  1  0
  9  8  1  0
 10  9  2  0
 11 10  1  0
 11 12  2  0
 12  7  1  0
 13  6  1  0
 13 15  1  0
 14 13  1  0
 16 13  1  0
  2 17  1  0
  3 18  1  0
  4 19  1  0
  5 20  1  0
  7 21  1  0
  9 22  1  0
 11 23  1  0
 14 24  1  0
 14 25  1  0
 14 26  1  0
 15 27  1  0
 15 28  1  0
 15 29  1  0
 16 30  1  0
 16 31  1  0
 16 32  1  0
M  ISO  8  17  14  18  14  19  14  20  14  21  14  22  14  23  14  24   8
M  ISO  8  25   8  26   8  27   8  28   8  29   8  30   8  31   8  32   8
M  END
>  <minimizedAffinity>  (1) 
-4.45355034

>  <minimizedRMSD>  (1) 
5.60575867

$$$$
