
     RDKit          3D

 27 29  0  0  0  0  0  0  0  0999 V2000
   39.6280   25.6320   34.3490 C   0  0  0  0  0  0  0  0  0  0  0  0
   40.7020   26.4310   34.7470 C   0  0  0  0  0  0  0  0  0  0  0  0
   41.2360   27.2690   33.7810 C   0  0  0  0  0  0  0  0  0  0  0  0
   40.6920   27.2740   32.4930 C   0  0  0  0  0  0  0  0  0  0  0  0
   39.6140   26.4410   32.1790 C   0  0  0  0  0  0  0  0  0  0  0  0
   39.0550   25.5950   33.1120 C   0  0  0  0  0  0  0  0  0  0  0  0
   37.9680   25.2000   36.1350 C   0  0  0  0  0  0  0  0  0  0  0  0
   39.1010   24.7560   35.3830 C   0  0  0  0  0  0  0  0  0  0  0  0
   39.6520   23.5190   35.6680 C   0  0  0  0  0  0  0  0  0  0  0  0
   39.1060   22.7540   36.6520 N   0  0  0  0  0  0  0  0  0  0  0  0
   38.0130   23.2090   37.3610 C   0  0  0  0  0  0  0  0  0  0  0  0
   37.4480   24.4340   37.0980 N   0  0  0  0  0  0  0  0  0  0  0  0
   37.9590   24.8830   32.5630 C   0  0  0  0  0  0  0  0  0  0  0  0
   36.8070   25.4270   32.1220 C   0  0  0  0  0  0  0  0  0  0  0  0
   35.8190   24.6560   31.6280 C   0  0  0  0  0  0  0  0  0  0  0  0
   36.0680   23.2270   31.6020 C   0  0  0  0  0  0  0  0  0  0  0  0
   37.8070   23.0980   32.3320 S   0  0  0  0  0  0  0  0  0  0  0  0
   41.1021   26.3971   35.7711 H   0  0  0  0  0  0  0  0  0  0  0  0
   42.0831   27.9265   34.0262 H   0  0  0  0  0  0  0  0  0  0  0  0
   41.1142   27.9365   31.7231 H   0  0  0  0  0  0  0  0  0  0  0  0
   39.2010   26.4615   31.1597 H   0  0  0  0  0  0  0  0  0  0  0  0
   37.5208   26.1813   35.9183 H   0  0  0  0  0  0  0  0  0  0  0  0
   40.5242   23.1571   35.1038 H   0  0  0  0  0  0  0  0  0  0  0  0
   37.5848   22.5778   38.1536 H   0  0  0  0  0  0  0  0  0  0  0  0
   36.6717   26.5177   32.1663 H   0  0  0  0  0  0  0  0  0  0  0  0
   34.8745   25.0866   31.2640 H   0  0  0  0  0  0  0  0  0  0  0  0
   35.4098   22.4205   31.2465 H   0  0  0  0  0  0  0  0  0  0  0  0
  1  2  2  0
  1  8  1  0
  3  2  1  0
  4  3  2  0
  5  4  1  0
  5  6  2  0
  6  1  1  0
  7 12  2  0
  8  9  2  0
  8  7  1  0
  9 10  1  0
 10 11  2  0
 12 11  1  0
 13  6  1  0
 14 13  2  0
 15 14  1  0
 16 15  2  0
 16 17  1  0
 17 13  1  0
  2 18  1  0
  3 19  1  0
  4 20  1  0
  5 21  1  0
  7 22  1  0
  9 23  1  0
 11 24  1  0
 14 25  1  0
 15 26  1  0
 16 27  1  0
M  ISO  8  18  14  19  14  20  14  21  14  22  14  23  14  24  14  25  14
M  ISO  2  26  14  27  14
M  END
>  <minimizedAffinity>  (1) 
-4.39894009

>  <minimizedRMSD>  (1) 
5.72675896

$$$$
