
     RDKit          3D

 27 29  0  0  0  0  0  0  0  0999 V2000
   38.4260   25.4160   35.2560 C   0  0  0  0  0  0  0  0  0  0  0  0
   38.2470   26.6410   35.9030 C   0  0  0  0  0  0  0  0  0  0  0  0
   37.5370   27.6150   35.1950 C   0  0  0  0  0  0  0  0  0  0  0  0
   37.0560   27.3270   33.9130 C   0  0  0  0  0  0  0  0  0  0  0  0
   37.2760   26.0770   33.3310 C   0  0  0  0  0  0  0  0  0  0  0  0
   37.9790   25.0800   34.0090 C   0  0  0  0  0  0  0  0  0  0  0  0
   38.5710   23.8780   37.1730 C   0  0  0  0  0  0  0  0  0  0  0  0
   39.1720   24.4240   35.9910 C   0  0  0  0  0  0  0  0  0  0  0  0
   40.4360   23.9690   35.6210 C   0  0  0  0  0  0  0  0  0  0  0  0
   41.0640   23.0330   36.3700 N   0  0  0  0  0  0  0  0  0  0  0  0
   40.4640   22.5270   37.5010 C   0  0  0  0  0  0  0  0  0  0  0  0
   39.2200   22.9460   37.9040 N   0  0  0  0  0  0  0  0  0  0  0  0
   38.0260   23.9150   33.2350 N   0  0  0  0  0  0  0  0  0  0  0  0
   37.3920   22.7630   33.5300 N   0  0  0  0  0  0  0  0  0  0  0  0
   37.6040   21.8440   32.5950 C   0  0  0  0  0  0  0  0  0  0  0  0
   38.4150   22.4350   31.6490 C   0  0  0  0  0  0  0  0  0  0  0  0
   38.6850   23.7370   32.0450 C   0  0  0  0  0  0  0  0  0  0  0  0
   38.6423   26.8285   36.9122 H   0  0  0  0  0  0  0  0  0  0  0  0
   37.3573   28.6032   35.6436 H   0  0  0  0  0  0  0  0  0  0  0  0
   36.4978   28.0946   33.3569 H   0  0  0  0  0  0  0  0  0  0  0  0
   36.8889   25.8747   32.3215 H   0  0  0  0  0  0  0  0  0  0  0  0
   37.5740   24.2208   37.4867 H   0  0  0  0  0  0  0  0  0  0  0  0
   40.9233   24.3705   34.7203 H   0  0  0  0  0  0  0  0  0  0  0  0
   40.9939   21.7688   38.0962 H   0  0  0  0  0  0  0  0  0  0  0  0
   37.2112   20.8167   32.5784 H   0  0  0  0  0  0  0  0  0  0  0  0
   38.7863   21.9538   30.7322 H   0  0  0  0  0  0  0  0  0  0  0  0
   39.3019   24.4762   31.5130 H   0  0  0  0  0  0  0  0  0  0  0  0
  1  2  2  0
  1  8  1  0
  3  2  1  0
  4  3  2  0
  5  4  1  0
  5  6  2  0
  6  1  1  0
  7 12  2  0
  8  7  1  0
  9  8  2  0
  9 10  1  0
 10 11  2  0
 11 12  1  0
 13 14  1  0
 13  6  1  0
 15 14  2  0
 16 17  2  0
 16 15  1  0
 17 13  1  0
  2 18  1  0
  3 19  1  0
  4 20  1  0
  5 21  1  0
  7 22  1  0
  9 23  1  0
 11 24  1  0
 15 25  1  0
 16 26  1  0
 17 27  1  0
M  ISO  8  18  14  19  14  20  14  21  14  22  14  23  14  24  14  25  14
M  ISO  2  26  14  27  14
M  END
>  <minimizedAffinity>  (1) 
-4.38637781

>  <minimizedRMSD>  (1) 
5.17781115

$$$$
