
     RDKit          3D

 26 28  0  0  0  0  0  0  0  0999 V2000
   39.3010   25.2550   34.7120 C   0  0  0  0  0  0  0  0  0  0  0  0
   40.0600   26.4210   34.8410 C   0  0  0  0  0  0  0  0  0  0  0  0
   40.2670   27.1420   33.6650 C   0  0  0  0  0  0  0  0  0  0  0  0
   39.7290   26.6880   32.4580 C   0  0  0  0  0  0  0  0  0  0  0  0
   38.9800   25.5120   32.4140 C   0  0  0  0  0  0  0  0  0  0  0  0
   38.7510   24.7700   33.5570 C   0  0  0  0  0  0  0  0  0  0  0  0
   37.9690   24.8150   36.7400 C   0  0  0  0  0  0  0  0  0  0  0  0
   39.1090   24.5070   35.9310 C   0  0  0  0  0  0  0  0  0  0  0  0
   39.9730   23.5120   36.3540 C   0  0  0  0  0  0  0  0  0  0  0  0
   39.7370   22.8450   37.5100 N   0  0  0  0  0  0  0  0  0  0  0  0
   38.6330   23.1560   38.2740 C   0  0  0  0  0  0  0  0  0  0  0  0
   37.7550   24.1360   37.8890 N   0  0  0  0  0  0  0  0  0  0  0  0
   37.9420   23.6570   33.2790 N   0  0  0  0  0  0  0  0  0  0  0  0
   36.9500   23.6560   32.3330 C   0  0  0  0  0  0  0  0  0  0  0  0
   36.3440   22.4570   32.3220 N   0  0  0  0  0  0  0  0  0  0  0  0
   36.9570   21.7120   33.2590 C   0  0  0  0  0  0  0  0  0  0  0  0
   37.9120   22.4270   33.8310 N   0  0  0  0  0  0  0  0  0  0  0  0
   40.4682   26.7494   35.8082 H   0  0  0  0  0  0  0  0  0  0  0  0
   40.8557   28.0710   33.6879 H   0  0  0  0  0  0  0  0  0  0  0  0
   39.8974   27.2625   31.5352 H   0  0  0  0  0  0  0  0  0  0  0  0
   38.5652   25.1700   31.4544 H   0  0  0  0  0  0  0  0  0  0  0  0
   37.2682   25.6030   36.4271 H   0  0  0  0  0  0  0  0  0  0  0  0
   40.8564   23.2611   35.7485 H   0  0  0  0  0  0  0  0  0  0  0  0
   38.4529   22.6076   39.2104 H   0  0  0  0  0  0  0  0  0  0  0  0
   36.6904   24.5051   31.6837 H   0  0  0  0  0  0  0  0  0  0  0  0
   36.7040   20.6714   33.5104 H   0  0  0  0  0  0  0  0  0  0  0  0
  1  2  2  0
  1  8  1  0
  3  2  1  0
  4  3  2  0
  5  4  1  0
  5  6  2  0
  6  1  1  0
  7 12  2  0
  8  9  2  0
  8  7  1  0
  9 10  1  0
 10 11  2  0
 12 11  1  0
 13  6  1  0
 13 17  1  0
 14 13  1  0
 15 14  2  0
 15 16  1  0
 16 17  2  0
  2 18  1  0
  3 19  1  0
  4 20  1  0
  5 21  1  0
  7 22  1  0
  9 23  1  0
 11 24  1  0
 14 25  1  0
 16 26  1  0
M  ISO  8  18  14  19  14  20  14  21  14  22  14  23  14  24  14  25  14
M  ISO  1  26  14
M  END
>  <minimizedAffinity>  (1) 
-4.35658789

>  <minimizedRMSD>  (1) 
4.94444561

$$$$
