
     RDKit          3D

 25 26  0  0  0  0  0  0  0  0999 V2000
   38.2730   24.3720   34.8860 C   0  0  0  0  0  0  0  0  0  0  0  0
   38.0390   23.0100   34.9090 C   0  0  0  0  0  0  0  0  0  0  0  0
   37.7830   22.4850   36.1880 C   0  0  0  0  0  0  0  0  0  0  0  0
   37.7660   23.2450   37.3230 C   0  0  0  0  0  0  0  0  0  0  0  0
   38.0110   24.5920   37.2010 C   0  0  0  0  0  0  0  0  0  0  0  0
   38.2680   25.1780   35.9760 C   0  0  0  0  0  0  0  0  0  0  0  0
   37.4280   25.3110   32.7810 C   0  0  0  0  0  0  0  0  0  0  0  0
   38.5540   24.9530   33.5950 C   0  0  0  0  0  0  0  0  0  0  0  0
   39.8350   25.1790   33.1120 C   0  0  0  0  0  0  0  0  0  0  0  0
   39.9820   25.7370   31.8790 N   0  0  0  0  0  0  0  0  0  0  0  0
   38.8790   26.0720   31.1160 C   0  0  0  0  0  0  0  0  0  0  0  0
   37.5980   25.8540   31.5750 N   0  0  0  0  0  0  0  0  0  0  0  0
   38.4150   26.5890   36.0800 C   0  0  0  0  0  0  0  0  0  0  0  0
   37.6010   27.4420   35.6130 O   0  0  0  0  0  0  0  0  0  0  0  0
   38.6760   27.8930   36.2490 O   0  0  0  0  0  0  0  0  0  0  0  0
   38.0520   22.3882   34.0017 H   0  0  0  0  0  0  0  0  0  0  0  0
   37.5863   21.4066   36.2794 H   0  0  0  0  0  0  0  0  0  0  0  0
   37.5624   22.7927   38.3048 H   0  0  0  0  0  0  0  0  0  0  0  0
   38.0023   25.2210   38.1034 H   0  0  0  0  0  0  0  0  0  0  0  0
   36.4095   25.1349   33.1573 H   0  0  0  0  0  0  0  0  0  0  0  0
   40.7158   24.9121   33.7145 H   0  0  0  0  0  0  0  0  0  0  0  0
   39.0267   26.5214   30.1229 H   0  0  0  0  0  0  0  0  0  0  0  0
   38.4731   26.7990   37.1582 H   0  0  0  0  0  0  0  0  0  0  0  0
   39.2739   26.7484   35.4115 H   0  0  0  0  0  0  0  0  0  0  0  0
   38.5309   27.8321   37.2264 H   0  0  0  0  0  0  0  0  0  0  0  0
  1  2  2  0
  1  6  1  0
  2  3  1  0
  3  4  2  0
  5  4  1  0
  6 13  1  0
  6  5  2  0
  7  8  2  0
  8  1  1  0
  9  8  1  0
 10  9  2  0
 11 12  2  0
 11 10  1  0
 12  7  1  0
 14 13  1  0
 14 15  1  0
  2 16  1  0
  3 17  1  0
  4 18  1  0
  5 19  1  0
  7 20  1  0
  9 21  1  0
 11 22  1  0
 13 23  1  0
 13 24  1  0
 15 25  1  0
M  ISO  8  16  14  17  14  18  14  19  14  20  14  21  14  22  14  23   8
M  ISO  2  24   8  25   3
M  END
>  <minimizedAffinity>  (1) 
-4.22018576

>  <minimizedRMSD>  (1) 
5.46300459

$$$$
