
     RDKit          3D

 35 37  0  0  0  0  0  0  0  0999 V2000
   38.1200   23.1660   34.9780 C   0  0  0  0  0  0  0  0  0  0  0  0
   38.0000   22.4610   36.1560 C   0  0  0  0  0  0  0  0  0  0  0  0
   37.9280   23.1990   37.3320 C   0  0  0  0  0  0  0  0  0  0  0  0
   37.9770   24.5760   37.2940 C   0  0  0  0  0  0  0  0  0  0  0  0
   38.1000   25.2250   36.0690 C   0  0  0  0  0  0  0  0  0  0  0  0
   38.1740   24.5240   34.8740 C   0  0  0  0  0  0  0  0  0  0  0  0
   36.9510   22.2130   33.0310 C   0  0  0  0  0  0  0  0  0  0  0  0
   38.1590   22.3870   33.7710 C   0  0  0  0  0  0  0  0  0  0  0  0
   39.2750   21.7870   33.2590 C   0  0  0  0  0  0  0  0  0  0  0  0
   39.2290   21.0710   32.1140 N   0  0  0  0  0  0  0  0  0  0  0  0
   38.0450   20.9280   31.4330 C   0  0  0  0  0  0  0  0  0  0  0  0
   36.8960   21.5080   31.9020 N   0  0  0  0  0  0  0  0  0  0  0  0
   38.3260   25.4410   33.8280 N   0  0  0  0  0  0  0  0  0  0  0  0
   39.7540   25.7510   33.5820 C   0  0  0  0  0  0  0  0  0  0  0  0
   39.9160   26.3050   32.2110 C   0  0  0  0  0  0  0  0  0  0  0  0
   38.8800   27.3360   31.9380 C   0  0  0  0  0  0  0  0  0  0  0  0
   37.4730   26.8030   31.9620 C   0  0  0  0  0  0  0  0  0  0  0  0
   37.1620   25.9750   33.1570 C   0  0  0  0  0  0  0  0  0  0  0  0
   37.9628   21.3617   36.1654 H   0  0  0  0  0  0  0  0  0  0  0  0
   37.8314   22.6814   38.2978 H   0  0  0  0  0  0  0  0  0  0  0  0
   37.9193   25.1580   38.2256 H   0  0  0  0  0  0  0  0  0  0  0  0
   38.1396   26.3241   36.0477 H   0  0  0  0  0  0  0  0  0  0  0  0
   36.0289   22.6795   33.4079 H   0  0  0  0  0  0  0  0  0  0  0  0
   40.2323   21.8892   33.7910 H   0  0  0  0  0  0  0  0  0  0  0  0
   38.0191   20.3423   30.5023 H   0  0  0  0  0  0  0  0  0  0  0  0
   40.1001   26.4907   34.3189 H   0  0  0  0  0  0  0  0  0  0  0  0
   40.3489   24.8306   33.6764 H   0  0  0  0  0  0  0  0  0  0  0  0
   40.9128   26.7613   32.1208 H   0  0  0  0  0  0  0  0  0  0  0  0
   39.8044   25.4882   31.4827 H   0  0  0  0  0  0  0  0  0  0  0  0
   39.0714   27.7655   30.9436 H   0  0  0  0  0  0  0  0  0  0  0  0
   38.9532   28.0847   32.7406 H   0  0  0  0  0  0  0  0  0  0  0  0
   36.7791   27.6563   31.9420 H   0  0  0  0  0  0  0  0  0  0  0  0
   37.3645   26.1493   31.0840 H   0  0  0  0  0  0  0  0  0  0  0  0
   36.6067   26.5983   33.8733 H   0  0  0  0  0  0  0  0  0  0  0  0
   36.5795   25.1126   32.8007 H   0  0  0  0  0  0  0  0  0  0  0  0
  1  2  2  0
  2  3  1  0
  4  3  2  0
  5  4  1  0
  6  1  1  0
  6  5  2  0
  7  8  2  0
  8  1  1  0
  9  8  1  0
 10  9  2  0
 11 12  2  0
 11 10  1  0
 12  7  1  0
 13  6  1  0
 14 13  1  0
 15 14  1  0
 16 17  1  0
 16 15  1  0
 17 18  1  0
 18 13  1  0
  2 19  1  0
  3 20  1  0
  4 21  1  0
  5 22  1  0
  7 23  1  0
  9 24  1  0
 11 25  1  0
 14 26  1  0
 14 27  1  0
 15 28  1  0
 15 29  1  0
 16 30  1  0
 16 31  1  0
 17 32  1  0
 17 33  1  0
 18 34  1  0
 18 35  1  0
M  ISO  8  19  14  20  14  21  14  22  14  23  14  24  14  25  14  26  13
M  ISO  8  27  13  28  13  29  13  30  13  31  13  32  13  33  13  34  13
M  ISO  1  35  13
M  END
>  <minimizedAffinity>  (1) 
-4.04086447

>  <minimizedRMSD>  (1) 
6.17552137

$$$$
