
     RDKit          3D

 22 23  0  0  0  0  0  0  0  0999 V2000
   36.9030   21.5630   33.3790 C   0  0  0  0  0  0  0  0  0  0  0  0
   37.2420   21.6530   32.0310 C   0  0  0  0  0  0  0  0  0  0  0  0
   36.5160   20.8630   31.1500 C   0  0  0  0  0  0  0  0  0  0  0  0
   35.5050   20.0330   31.6370 C   0  0  0  0  0  0  0  0  0  0  0  0
   35.2110   19.9850   32.9980 C   0  0  0  0  0  0  0  0  0  0  0  0
   35.9210   20.7660   33.8970 C   0  0  0  0  0  0  0  0  0  0  0  0
   37.9330   23.7350   33.8900 C   0  0  0  0  0  0  0  0  0  0  0  0
   37.6700   22.3880   34.2860 C   0  0  0  0  0  0  0  0  0  0  0  0
   38.1550   21.9390   35.5040 C   0  0  0  0  0  0  0  0  0  0  0  0
   38.8670   22.7960   36.2880 N   0  0  0  0  0  0  0  0  0  0  0  0
   39.1110   24.0900   35.8910 C   0  0  0  0  0  0  0  0  0  0  0  0
   38.6430   24.5580   34.6910 N   0  0  0  0  0  0  0  0  0  0  0  0
   35.4850   20.6130   35.2190 N   0  0  0  0  0  0  0  0  0  0  0  0
   38.0458   22.3177   31.6815 H   0  0  0  0  0  0  0  0  0  0  0  0
   36.7366   20.8910   30.0727 H   0  0  0  0  0  0  0  0  0  0  0  0
   34.9322   19.4079   30.9362 H   0  0  0  0  0  0  0  0  0  0  0  0
   34.4108   19.3235   33.3615 H   0  0  0  0  0  0  0  0  0  0  0  0
   37.5544   24.1045   32.9256 H   0  0  0  0  0  0  0  0  0  0  0  0
   37.9679   20.9061   35.8329 H   0  0  0  0  0  0  0  0  0  0  0  0
   39.6897   24.7584   36.5456 H   0  0  0  0  0  0  0  0  0  0  0  0
   34.7203   19.9582   35.4366 H   0  0  0  0  0  0  0  0  0  0  0  0
   35.9290   21.1553   35.9738 H   0  0  0  0  0  0  0  0  0  0  0  0
  1  6  1  0
  1  8  1  0
  2  1  2  0
  3  4  2  0
  3  2  1  0
  4  5  1  0
  5  6  2  0
  6 13  1  0
  7  8  2  0
  7 12  1  0
  8  9  1  0
  9 10  2  0
 11 10  1  0
 12 11  2  0
  2 14  1  0
  3 15  1  0
  4 16  1  0
  5 17  1  0
  7 18  1  0
  9 19  1  0
 11 20  1  0
 13 21  1  0
 13 22  1  0
M  ISO  7  14  14  15  14  16  14  17  14  18  14  19  14  20  14
M  END
>  <minimizedAffinity>  (1) 
-3.8954401

>  <minimizedRMSD>  (1) 
0.385884464

$$$$
