
     RDKit          3D

 42 44  0  0  0  0  0  0  0  0999 V2000
   38.5170   27.2580   32.9130 C   0  0  0  0  0  0  0  0  0  0  0  0
   38.1990   27.7000   31.6170 C   0  0  0  0  0  0  0  0  0  0  0  0
   36.9740   28.3240   31.4720 C   0  0  0  0  0  0  0  0  0  0  0  0
   36.1500   28.4760   32.5700 C   0  0  0  0  0  0  0  0  0  0  0  0
   36.5410   28.0090   33.8140 C   0  0  0  0  0  0  0  0  0  0  0  0
   37.7530   27.3770   34.0270 C   0  0  0  0  0  0  0  0  0  0  0  0
   40.8170   27.3010   33.8160 C   0  0  0  0  0  0  0  0  0  0  0  0
   39.8140   26.6130   33.0300 C   0  0  0  0  0  0  0  0  0  0  0  0
   40.1510   25.4290   32.4670 C   0  0  0  0  0  0  0  0  0  0  0  0
   41.3910   24.9070   32.6330 N   0  0  0  0  0  0  0  0  0  0  0  0
   42.3260   25.5660   33.3750 C   0  0  0  0  0  0  0  0  0  0  0  0
   42.0450   26.7710   33.9730 N   0  0  0  0  0  0  0  0  0  0  0  0
   37.9010   26.9850   35.4330 C   0  0  0  0  0  0  0  0  0  0  0  0
   37.5450   25.5430   35.7040 C   0  0  0  0  0  0  0  0  0  0  0  0
   38.5910   24.8210   36.5050 C   0  0  0  0  0  0  0  0  0  0  0  0
   37.8440   23.8560   37.4060 C   0  0  0  0  0  0  0  0  0  0  0  0
   38.8460   23.4150   38.4470 C   0  0  0  0  0  0  0  0  0  0  0  0
   39.8950   22.6010   37.7380 C   0  0  0  0  0  0  0  0  0  0  0  0
   40.4810   23.2590   36.5300 C   0  0  0  0  0  0  0  0  0  0  0  0
   39.4830   23.9530   35.6430 C   0  0  0  0  0  0  0  0  0  0  0  0
   38.8844   27.5578   30.7685 H   0  0  0  0  0  0  0  0  0  0  0  0
   36.6571   28.6976   30.4871 H   0  0  0  0  0  0  0  0  0  0  0  0
   35.1749   28.9721   32.4555 H   0  0  0  0  0  0  0  0  0  0  0  0
   35.8603   28.1462   34.6671 H   0  0  0  0  0  0  0  0  0  0  0  0
   40.5739   28.2641   34.2885 H   0  0  0  0  0  0  0  0  0  0  0  0
   39.4085   24.8830   31.8666 H   0  0  0  0  0  0  0  0  0  0  0  0
   43.3258   25.1240   33.4975 H   0  0  0  0  0  0  0  0  0  0  0  0
   38.9481   27.1454   35.7294 H   0  0  0  0  0  0  0  0  0  0  0  0
   37.1999   27.6027   36.0134 H   0  0  0  0  0  0  0  0  0  0  0  0
   36.5962   25.5146   36.2599 H   0  0  0  0  0  0  0  0  0  0  0  0
   37.4663   25.0350   34.7315 H   0  0  0  0  0  0  0  0  0  0  0  0
   39.2061   25.5689   37.0268 H   0  0  0  0  0  0  0  0  0  0  0  0
   36.9902   24.3590   37.8835 H   0  0  0  0  0  0  0  0  0  0  0  0
   37.4398   23.0023   36.8423 H   0  0  0  0  0  0  0  0  0  0  0  0
   39.3076   24.2934   38.9218 H   0  0  0  0  0  0  0  0  0  0  0  0
   38.3567   22.8217   39.2334 H   0  0  0  0  0  0  0  0  0  0  0  0
   40.7103   22.3985   38.4481 H   0  0  0  0  0  0  0  0  0  0  0  0
   39.3948   21.6874   37.3841 H   0  0  0  0  0  0  0  0  0  0  0  0
   41.2148   24.0052   36.8688 H   0  0  0  0  0  0  0  0  0  0  0  0
   40.9268   22.4555   35.9252 H   0  0  0  0  0  0  0  0  0  0  0  0
   38.8735   23.2049   35.1150 H   0  0  0  0  0  0  0  0  0  0  0  0
   40.0075   24.5735   34.9014 H   0  0  0  0  0  0  0  0  0  0  0  0
  1  8  1  0
  1  6  1  0
  2  1  2  0
  3  2  1  0
  3  4  2  0
  4  5  1  0
  5  6  2  0
  6 13  1  0
  7 12  2  0
  8  7  1  0
  9 10  1  0
  9  8  2  0
 10 11  2  0
 11 12  1  0
 13 14  1  0
 14 15  1  0
 15 16  1  0
 16 17  1  0
 18 17  1  0
 19 18  1  0
 20 15  1  0
 20 19  1  0
  2 21  1  0
  3 22  1  0
  4 23  1  0
  5 24  1  0
  7 25  1  0
  9 26  1  0
 11 27  1  0
 13 28  1  0
 13 29  1  0
 14 30  1  0
 14 31  1  0
 15 32  1  0
 16 33  1  0
 16 34  1  0
 17 35  1  0
 17 36  1  0
 18 37  1  0
 18 38  1  0
 19 39  1  0
 19 40  1  0
 20 41  1  0
 20 42  1  0
M  ISO  8  21  14  22  14  23  14  24  14  25  14  26  14  27  14  28   8
M  ISO  8  29   8  30   8  31   8  32  13  33  13  34  13  35  13  36  13
M  ISO  6  37  13  38  13  39  13  40  13  41  13  42  13
M  END
>  <minimizedAffinity>  (1) 
-5.05703592

>  <minimizedRMSD>  (1) 
1.6093334

$$$$
