
     RDKit          3D

 37 39  0  0  0  0  0  0  0  0999 V2000
   39.4520   27.2280   31.8920 C   0  0  0  0  0  0  0  0  0  0  0  0
   39.5950   27.8190   30.6310 C   0  0  0  0  0  0  0  0  0  0  0  0
   38.4600   28.3890   30.0860 C   0  0  0  0  0  0  0  0  0  0  0  0
   37.2630   28.3470   30.8020 C   0  0  0  0  0  0  0  0  0  0  0  0
   37.2140   27.7410   32.0430 C   0  0  0  0  0  0  0  0  0  0  0  0
   38.3280   27.1540   32.6350 C   0  0  0  0  0  0  0  0  0  0  0  0
   41.4710   27.4870   33.2840 C   0  0  0  0  0  0  0  0  0  0  0  0
   40.6660   26.6430   32.4280 C   0  0  0  0  0  0  0  0  0  0  0  0
   41.1030   25.3850   32.1930 C   0  0  0  0  0  0  0  0  0  0  0  0
   42.2540   24.9250   32.7380 N   0  0  0  0  0  0  0  0  0  0  0  0
   43.0000   25.7340   33.5440 C   0  0  0  0  0  0  0  0  0  0  0  0
   42.6190   27.0050   33.8200 N   0  0  0  0  0  0  0  0  0  0  0  0
   37.9750   26.5920   33.9480 C   0  0  0  0  0  0  0  0  0  0  0  0
   37.7910   25.0980   33.9360 C   0  0  0  0  0  0  0  0  0  0  0  0
   38.0040   24.6030   35.2840 N   0  0  0  0  0  0  0  0  0  0  0  0
   37.8840   25.3050   36.4180 C   0  0  0  0  0  0  0  0  0  0  0  0
   38.1310   24.6440   37.6020 C   0  0  0  0  0  0  0  0  0  0  0  0
   38.4890   23.3130   37.6670 C   0  0  0  0  0  0  0  0  0  0  0  0
   38.7450   22.6260   38.8800 N   0  0  0  0  0  0  0  0  0  0  0  0
   38.5960   22.6530   36.4960 N   0  0  0  0  0  0  0  0  0  0  0  0
   38.3540   23.2970   35.3170 C   0  0  0  0  0  0  0  0  0  0  0  0
   38.4880   22.5640   34.3020 O   0  0  0  0  0  0  0  0  0  0  0  0
   40.5594   27.8292   30.1021 H   0  0  0  0  0  0  0  0  0  0  0  0
   38.4998   28.8708   29.0979 H   0  0  0  0  0  0  0  0  0  0  0  0
   36.3544   28.7982   30.3767 H   0  0  0  0  0  0  0  0  0  0  0  0
   36.2565   27.7219   32.5842 H   0  0  0  0  0  0  0  0  0  0  0  0
   41.1522   28.5175   33.4994 H   0  0  0  0  0  0  0  0  0  0  0  0
   40.5110   24.7215   31.5455 H   0  0  0  0  0  0  0  0  0  0  0  0
   43.9323   25.3458   33.9800 H   0  0  0  0  0  0  0  0  0  0  0  0
   38.7782   26.8375   34.6583 H   0  0  0  0  0  0  0  0  0  0  0  0
   37.0098   27.0329   34.2379 H   0  0  0  0  0  0  0  0  0  0  0  0
   36.7712   24.8512   33.6057 H   0  0  0  0  0  0  0  0  0  0  0  0
   38.5077   24.6328   33.2432 H   0  0  0  0  0  0  0  0  0  0  0  0
   37.5995   26.3675   36.4051 H   0  0  0  0  0  0  0  0  0  0  0  0
   38.0380   25.2061   38.5429 H   0  0  0  0  0  0  0  0  0  0  0  0
   39.0088   21.6305   38.8623 H   0  0  0  0  0  0  0  0  0  0  0  0
   38.6673   23.1223   39.7792 H   0  0  0  0  0  0  0  0  0  0  0  0
  1  8  1  0
  1  6  1  0
  2  1  2  0
  3  2  1  0
  3  4  2  0
  4  5  1  0
  5  6  2  0
  6 13  1  0
  7 12  2  0
  8  7  1  0
  9  8  2  0
  9 10  1  0
 10 11  2  0
 11 12  1  0
 14 13  1  0
 14 15  1  0
 15 21  1  0
 15 16  1  0
 16 17  2  0
 17 18  1  0
 18 19  1  0
 20 18  2  0
 21 20  1  0
 22 21  2  0
  2 23  1  0
  3 24  1  0
  4 25  1  0
  5 26  1  0
  7 27  1  0
  9 28  1  0
 11 29  1  0
 13 30  1  0
 13 31  1  0
 14 32  1  0
 14 33  1  0
 16 34  1  0
 17 35  1  0
 19 36  1  0
 19 37  1  0
M  ISO  8  23  14  24  14  25  14  26  14  27  14  28  14  29  14  30   8
M  ISO  5  31   8  32   8  33   8  34  14  35  14
M  END
>  <minimizedAffinity>  (1) 
-4.9835391

>  <minimizedRMSD>  (1) 
2.97425294

$$$$
