
     RDKit          3D

 34 36  0  0  0  0  0  0  0  0999 V2000
   39.1410   27.0770   32.9740 C   0  0  0  0  0  0  0  0  0  0  0  0
   38.8260   27.4310   31.6610 C   0  0  0  0  0  0  0  0  0  0  0  0
   37.5580   27.9630   31.4710 C   0  0  0  0  0  0  0  0  0  0  0  0
   36.6940   28.1150   32.5390 C   0  0  0  0  0  0  0  0  0  0  0  0
   37.1010   27.7330   33.7960 C   0  0  0  0  0  0  0  0  0  0  0  0
   38.3510   27.1930   34.0650 C   0  0  0  0  0  0  0  0  0  0  0  0
   41.5310   27.4750   33.4890 C   0  0  0  0  0  0  0  0  0  0  0  0
   40.4790   26.5410   33.1480 C   0  0  0  0  0  0  0  0  0  0  0  0
   40.8310   25.2390   33.0220 C   0  0  0  0  0  0  0  0  0  0  0  0
   42.1030   24.8320   33.2060 N   0  0  0  0  0  0  0  0  0  0  0  0
   43.0760   25.7360   33.5280 C   0  0  0  0  0  0  0  0  0  0  0  0
   42.7980   27.0760   33.6730 N   0  0  0  0  0  0  0  0  0  0  0  0
   38.4820   26.8640   35.4930 C   0  0  0  0  0  0  0  0  0  0  0  0
   37.5680   25.7110   35.9010 C   0  0  0  0  0  0  0  0  0  0  0  0
   38.2760   24.6840   36.6930 C   0  0  0  0  0  0  0  0  0  0  0  0
   38.0130   24.2900   37.9910 C   0  0  0  0  0  0  0  0  0  0  0  0
   38.7630   23.3110   38.6080 C   0  0  0  0  0  0  0  0  0  0  0  0
   39.7760   22.7310   37.9140 N   0  0  0  0  0  0  0  0  0  0  0  0
   40.0170   23.1330   36.6440 C   0  0  0  0  0  0  0  0  0  0  0  0
   39.2940   24.0940   36.0130 N   0  0  0  0  0  0  0  0  0  0  0  0
   39.5359   27.2972   30.8314 H   0  0  0  0  0  0  0  0  0  0  0  0
   37.2385   28.2658   30.4629 H   0  0  0  0  0  0  0  0  0  0  0  0
   35.6901   28.5376   32.3851 H   0  0  0  0  0  0  0  0  0  0  0  0
   36.3986   27.8623   34.6326 H   0  0  0  0  0  0  0  0  0  0  0  0
   41.2844   28.5412   33.6002 H   0  0  0  0  0  0  0  0  0  0  0  0
   40.0613   24.4968   32.7636 H   0  0  0  0  0  0  0  0  0  0  0  0
   44.1076   25.3836   33.6750 H   0  0  0  0  0  0  0  0  0  0  0  0
   39.5248   26.5800   35.6977 H   0  0  0  0  0  0  0  0  0  0  0  0
   38.1896   27.7511   36.0740 H   0  0  0  0  0  0  0  0  0  0  0  0
   36.7399   26.1128   36.5033 H   0  0  0  0  0  0  0  0  0  0  0  0
   37.2018   25.2317   34.9811 H   0  0  0  0  0  0  0  0  0  0  0  0
   37.1894   24.7665   38.5429 H   0  0  0  0  0  0  0  0  0  0  0  0
   38.5450   23.0058   39.6421 H   0  0  0  0  0  0  0  0  0  0  0  0
   40.8418   22.6562   36.0942 H   0  0  0  0  0  0  0  0  0  0  0  0
  1  8  1  0
  1  6  1  0
  2  1  2  0
  3  2  1  0
  3  4  2  0
  4  5  1  0
  5  6  2  0
  6 13  1  0
  7 12  2  0
  8  7  1  0
  9  8  2  0
  9 10  1  0
 10 11  2  0
 11 12  1  0
 13 14  1  0
 14 15  1  0
 15 16  2  0
 16 17  1  0
 18 17  2  0
 19 18  1  0
 20 19  2  0
 20 15  1  0
  2 21  1  0
  3 22  1  0
  4 23  1  0
  5 24  1  0
  7 25  1  0
  9 26  1  0
 11 27  1  0
 13 28  1  0
 13 29  1  0
 14 30  1  0
 14 31  1  0
 16 32  1  0
 17 33  1  0
 19 34  1  0
M  ISO  8  21  14  22  14  23  14  24  14  25  14  26  14  27  14  28   8
M  ISO  6  29   8  30   8  31   8  32  14  33  14  34  14
M  END
>  <minimizedAffinity>  (1) 
-4.92997789

>  <minimizedRMSD>  (1) 
1.51570082

$$$$
