
     RDKit          3D

 36 38  0  0  0  0  0  0  0  0999 V2000
   39.1090   26.8360   33.2840 C   0  0  0  0  0  0  0  0  0  0  0  0
   38.6420   27.3940   32.0900 C   0  0  0  0  0  0  0  0  0  0  0  0
   37.3200   27.8030   32.0810 C   0  0  0  0  0  0  0  0  0  0  0  0
   36.5530   27.6440   33.2210 C   0  0  0  0  0  0  0  0  0  0  0  0
   37.0910   27.0870   34.3550 C   0  0  0  0  0  0  0  0  0  0  0  0
   38.4100   26.6560   34.4260 C   0  0  0  0  0  0  0  0  0  0  0  0
   41.4670   27.3130   33.8690 C   0  0  0  0  0  0  0  0  0  0  0  0
   40.5030   26.4220   33.2600 C   0  0  0  0  0  0  0  0  0  0  0  0
   40.9750   25.2750   32.7190 C   0  0  0  0  0  0  0  0  0  0  0  0
   42.2840   24.9630   32.7380 N   0  0  0  0  0  0  0  0  0  0  0  0
   43.1840   25.8300   33.3250 C   0  0  0  0  0  0  0  0  0  0  0  0
   42.7740   26.9970   33.8860 N   0  0  0  0  0  0  0  0  0  0  0  0
   38.7000   26.0930   35.7560 C   0  0  0  0  0  0  0  0  0  0  0  0
   39.4170   24.7480   35.6780 C   0  0  0  0  0  0  0  0  0  0  0  0
   38.4610   23.6520   35.6730 N   0  0  0  0  0  0  0  0  0  0  0  0
   38.1490   23.0040   34.5370 C   0  0  0  0  0  0  0  0  0  0  0  0
   37.2300   21.9910   34.6860 C   0  0  0  0  0  0  0  0  0  0  0  0
   36.6450   21.6280   35.8900 C   0  0  0  0  0  0  0  0  0  0  0  0
   35.8030   20.6780   35.9530 O   0  0  0  0  0  0  0  0  0  0  0  0
   37.0000   22.3200   37.0100 N   0  0  0  0  0  0  0  0  0  0  0  0
   37.8990   23.3100   36.8580 C   0  0  0  0  0  0  0  0  0  0  0  0
   38.2050   23.9290   37.9080 O   0  0  0  0  0  0  0  0  0  0  0  0
   39.2893   27.5018   31.2072 H   0  0  0  0  0  0  0  0  0  0  0  0
   36.8833   28.2503   31.1759 H   0  0  0  0  0  0  0  0  0  0  0  0
   35.5015   27.9670   33.2192 H   0  0  0  0  0  0  0  0  0  0  0  0
   36.4517   26.9776   35.2434 H   0  0  0  0  0  0  0  0  0  0  0  0
   41.1279   28.2564   34.3217 H   0  0  0  0  0  0  0  0  0  0  0  0
   40.2671   24.5762   32.2493 H   0  0  0  0  0  0  0  0  0  0  0  0
   44.2529   25.5708   33.3386 H   0  0  0  0  0  0  0  0  0  0  0  0
   39.3366   26.8006   36.3074 H   0  0  0  0  0  0  0  0  0  0  0  0
   37.7394   25.9304   36.2666 H   0  0  0  0  0  0  0  0  0  0  0  0
   40.0134   24.7104   34.7545 H   0  0  0  0  0  0  0  0  0  0  0  0
   40.0676   24.6440   36.5588 H   0  0  0  0  0  0  0  0  0  0  0  0
   38.5936   23.2634   33.5648 H   0  0  0  0  0  0  0  0  0  0  0  0
   36.9385   21.4291   33.7864 H   0  0  0  0  0  0  0  0  0  0  0  0
   36.5981   22.0951   37.9313 H   0  0  0  0  0  0  0  0  0  0  0  0
  1  6  1  0
  2  1  2  0
  3  2  1  0
  3  4  2  0
  4  5  1  0
  5  6  2  0
  6 13  1  0
  7 12  2  0
  8  1  1  0
  8  7  1  0
  9 10  1  0
  9  8  2  0
 10 11  2  0
 11 12  1  0
 14 13  1  0
 15 14  1  0
 15 21  1  0
 16 17  2  0
 16 15  1  0
 17 18  1  0
 18 19  2  0
 18 20  1  0
 21 20  1  0
 21 22  2  0
  2 23  1  0
  3 24  1  0
  4 25  1  0
  5 26  1  0
  7 27  1  0
  9 28  1  0
 11 29  1  0
 13 30  1  0
 13 31  1  0
 14 32  1  0
 14 33  1  0
 16 34  1  0
 17 35  1  0
 20 36  1  0
M  ISO  8  23  14  24  14  25  14  26  14  27  14  28  14  29  14  30   8
M  ISO  6  31   8  32   8  33   8  34  14  35  14  36   9
M  END
>  <minimizedAffinity>  (1) 
-4.90575027

>  <minimizedRMSD>  (1) 
3.17068028

$$$$
