
     RDKit          3D

 39 41  0  0  0  0  0  0  0  0999 V2000
   38.7010   27.1710   32.8770 C   0  0  0  0  0  0  0  0  0  0  0  0
   38.4120   27.6140   31.5840 C   0  0  0  0  0  0  0  0  0  0  0  0
   37.1830   28.2210   31.4080 C   0  0  0  0  0  0  0  0  0  0  0  0
   36.3260   28.3570   32.4780 C   0  0  0  0  0  0  0  0  0  0  0  0
   36.6900   27.8910   33.7260 C   0  0  0  0  0  0  0  0  0  0  0  0
   37.9150   27.2670   33.9740 C   0  0  0  0  0  0  0  0  0  0  0  0
   41.0610   27.3740   33.5910 C   0  0  0  0  0  0  0  0  0  0  0  0
   40.0050   26.5520   33.0320 C   0  0  0  0  0  0  0  0  0  0  0  0
   40.3070   25.2750   32.7010 C   0  0  0  0  0  0  0  0  0  0  0  0
   41.5590   24.7880   32.8880 N   0  0  0  0  0  0  0  0  0  0  0  0
   42.5490   25.5810   33.4200 C   0  0  0  0  0  0  0  0  0  0  0  0
   42.2990   26.8840   33.7740 N   0  0  0  0  0  0  0  0  0  0  0  0
   38.0070   26.8730   35.3810 C   0  0  0  0  0  0  0  0  0  0  0  0
   37.6170   25.4190   35.6070 C   0  0  0  0  0  0  0  0  0  0  0  0
   38.4530   24.7840   36.5820 N   0  0  0  0  0  0  0  0  0  0  0  0
   39.5280   24.0190   36.0050 C   0  0  0  0  0  0  0  0  0  0  0  0
   39.5260   22.6200   36.5570 C   0  0  0  0  0  0  0  0  0  0  0  0
   39.6600   22.6530   37.9250 O   0  0  0  0  0  0  0  0  0  0  0  0
   38.7100   23.4480   38.5500 C   0  0  0  0  0  0  0  0  0  0  0  0
   37.7100   24.0510   37.5810 C   0  0  0  0  0  0  0  0  0  0  0  0
   39.1220   27.4869   30.7535 H   0  0  0  0  0  0  0  0  0  0  0  0
   36.8897   28.5947   30.4159 H   0  0  0  0  0  0  0  0  0  0  0  0
   35.3472   28.8390   32.3377 H   0  0  0  0  0  0  0  0  0  0  0  0
   35.9849   28.0166   34.5609 H   0  0  0  0  0  0  0  0  0  0  0  0
   40.8451   28.4159   33.8699 H   0  0  0  0  0  0  0  0  0  0  0  0
   39.5284   24.6248   32.2756 H   0  0  0  0  0  0  0  0  0  0  0  0
   43.5570   25.1648   33.5642 H   0  0  0  0  0  0  0  0  0  0  0  0
   39.0434   27.0169   35.7204 H   0  0  0  0  0  0  0  0  0  0  0  0
   37.3040   27.4994   35.9497 H   0  0  0  0  0  0  0  0  0  0  0  0
   36.5741   25.3811   35.9547 H   0  0  0  0  0  0  0  0  0  0  0  0
   37.7387   24.8827   34.6543 H   0  0  0  0  0  0  0  0  0  0  0  0
   40.4868   24.5024   36.2441 H   0  0  0  0  0  0  0  0  0  0  0  0
   39.3910   23.9742   34.9145 H   0  0  0  0  0  0  0  0  0  0  0  0
   38.5780   22.1269   36.2958 H   0  0  0  0  0  0  0  0  0  0  0  0
   40.3693   22.0608   36.1254 H   0  0  0  0  0  0  0  0  0  0  0  0
   38.1634   22.8326   39.2798 H   0  0  0  0  0  0  0  0  0  0  0  0
   39.2436   24.2804   39.0320 H   0  0  0  0  0  0  0  0  0  0  0  0
   37.0319   24.7311   38.1174 H   0  0  0  0  0  0  0  0  0  0  0  0
   37.1063   23.2615   37.1096 H   0  0  0  0  0  0  0  0  0  0  0  0
  1  8  1  0
  1  6  1  0
  2  1  2  0
  3  2  1  0
  3  4  2  0
  4  5  1  0
  5  6  2  0
  6 13  1  0
  7 12  2  0
  8  7  1  0
  9 10  1  0
  9  8  2  0
 10 11  2  0
 11 12  1  0
 13 14  1  0
 14 15  1  0
 15 20  1  0
 16 17  1  0
 16 15  1  0
 17 18  1  0
 18 19  1  0
 20 19  1  0
  2 21  1  0
  3 22  1  0
  4 23  1  0
  5 24  1  0
  7 25  1  0
  9 26  1  0
 11 27  1  0
 13 28  1  0
 13 29  1  0
 14 30  1  0
 14 31  1  0
 16 32  1  0
 16 33  1  0
 17 34  1  0
 17 35  1  0
 19 36  1  0
 19 37  1  0
 20 38  1  0
 20 39  1  0
M  ISO  8  21  14  22  14  23  14  24  14  25  14  26  14  27  14  28   8
M  ISO  8  29   8  30   8  31   8  32  13  33  13  34  13  35  13  36  13
M  ISO  3  37  13  38  13  39  13
M  END
>  <minimizedAffinity>  (1) 
-4.74024391

>  <minimizedRMSD>  (1) 
1.34128642

$$$$
