
     RDKit          3D

 39 41  0  0  0  0  0  0  0  0999 V2000
   39.7850   27.2750   31.5350 C   0  0  0  0  0  0  0  0  0  0  0  0
   40.5750   27.6340   30.4460 C   0  0  0  0  0  0  0  0  0  0  0  0
   39.9580   28.3830   29.4580 C   0  0  0  0  0  0  0  0  0  0  0  0
   38.6270   28.7260   29.6030 C   0  0  0  0  0  0  0  0  0  0  0  0
   37.9190   28.3290   30.7130 C   0  0  0  0  0  0  0  0  0  0  0  0
   38.4850   27.5770   31.7320 C   0  0  0  0  0  0  0  0  0  0  0  0
   40.7420   27.1550   33.8180 C   0  0  0  0  0  0  0  0  0  0  0  0
   40.4710   26.5000   32.5540 C   0  0  0  0  0  0  0  0  0  0  0  0
   40.8810   25.2170   32.4380 C   0  0  0  0  0  0  0  0  0  0  0  0
   41.5090   24.5690   33.4370 N   0  0  0  0  0  0  0  0  0  0  0  0
   41.7490   25.2220   34.6280 C   0  0  0  0  0  0  0  0  0  0  0  0
   41.3630   26.5280   34.8230 N   0  0  0  0  0  0  0  0  0  0  0  0
   37.4890   27.2900   32.7790 C   0  0  0  0  0  0  0  0  0  0  0  0
   37.1260   25.8090   32.8610 C   0  0  0  0  0  0  0  0  0  0  0  0
   38.5330   23.9250   36.4350 C   0  0  0  0  0  0  0  0  0  0  0  0
   38.1530   25.2530   36.4690 C   0  0  0  0  0  0  0  0  0  0  0  0
   37.6900   25.8990   35.3250 C   0  0  0  0  0  0  0  0  0  0  0  0
   37.6050   25.2160   34.1370 C   0  0  0  0  0  0  0  0  0  0  0  0
   37.9870   23.8790   34.1000 C   0  0  0  0  0  0  0  0  0  0  0  0
   38.4520   23.2310   35.2450 C   0  0  0  0  0  0  0  0  0  0  0  0
   39.1240   23.0300   37.8080 S   0  0  0  0  0  0  0  0  0  0  0  0
   40.6020   22.7760   37.6610 O   0  0  0  0  0  0  0  0  0  0  0  0
   38.8950   23.7790   39.0870 O   0  0  0  0  0  0  0  0  0  0  0  0
   41.6322   27.3386   30.3744 H   0  0  0  0  0  0  0  0  0  0  0  0
   40.5208   28.7013   28.5681 H   0  0  0  0  0  0  0  0  0  0  0  0
   38.1296   29.3219   28.8235 H   0  0  0  0  0  0  0  0  0  0  0  0
   36.8613   28.6194   30.7962 H   0  0  0  0  0  0  0  0  0  0  0  0
   40.4273   28.2001   33.9551 H   0  0  0  0  0  0  0  0  0  0  0  0
   40.6949   24.6838   31.4941 H   0  0  0  0  0  0  0  0  0  0  0  0
   42.2609   24.6861   35.4408 H   0  0  0  0  0  0  0  0  0  0  0  0
   37.8988   27.6056   33.7498 H   0  0  0  0  0  0  0  0  0  0  0  0
   36.5723   27.8419   32.5240 H   0  0  0  0  0  0  0  0  0  0  0  0
   36.0328   25.7022   32.8021 H   0  0  0  0  0  0  0  0  0  0  0  0
   37.6088   25.2817   32.0250 H   0  0  0  0  0  0  0  0  0  0  0  0
   38.2172   25.8096   37.4156 H   0  0  0  0  0  0  0  0  0  0  0  0
   37.3923   26.9569   35.3734 H   0  0  0  0  0  0  0  0  0  0  0  0
   37.9215   23.3235   33.1528 H   0  0  0  0  0  0  0  0  0  0  0  0
   38.7521   22.1737   35.1993 H   0  0  0  0  0  0  0  0  0  0  0  0
   38.4380   21.8450   37.8540 H   0  0  0  0  0  0  0  0  0  0  0  0
  1  6  1  0
  1  8  1  0
  2  1  2  0
  3  4  2  0
  3  2  1  0
  4  5  1  0
  5  6  2  0
  6 13  1  0
  7 12  2  0
  8  7  1  0
  9  8  2  0
  9 10  1  0
 10 11  2  0
 11 12  1  0
 13 14  1  0
 14 18  1  0
 15 16  2  0
 15 21  1  0
 17 16  1  0
 18 17  2  0
 19 18  1  0
 19 20  2  0
 20 15  1  0
 21 23  2  0
 22 21  2  0
  2 24  1  0
  3 25  1  0
  4 26  1  0
  5 27  1  0
  7 28  1  0
  9 29  1  0
 11 30  1  0
 13 31  1  0
 13 32  1  0
 14 33  1  0
 14 34  1  0
 16 35  1  0
 17 36  1  0
 19 37  1  0
 20 38  1  0
 21 39  1  0
M  ISO  8  24  14  25  14  26  14  27  14  28  14  29  14  30  14  31   8
M  ISO  8  32   8  33   8  34   8  35  14  36  14  37  14  38  14  39  11
M  END
>  <minimizedAffinity>  (1) 
-4.69329023

>  <minimizedRMSD>  (1) 
3.46294713

$$$$
