
     RDKit          3D

 32 34  0  0  0  0  0  0  0  0999 V2000
   39.0120   27.0300   33.2200 C   0  0  0  0  0  0  0  0  0  0  0  0
   38.6820   27.5030   31.9510 C   0  0  0  0  0  0  0  0  0  0  0  0
   37.4250   28.0700   31.8130 C   0  0  0  0  0  0  0  0  0  0  0  0
   36.5840   28.1360   32.9080 C   0  0  0  0  0  0  0  0  0  0  0  0
   36.9870   27.6440   34.1280 C   0  0  0  0  0  0  0  0  0  0  0  0
   38.2360   27.0650   34.3280 C   0  0  0  0  0  0  0  0  0  0  0  0
   41.4010   27.3250   33.7800 C   0  0  0  0  0  0  0  0  0  0  0  0
   40.3410   26.4510   33.3290 C   0  0  0  0  0  0  0  0  0  0  0  0
   40.6660   25.1680   33.0450 C   0  0  0  0  0  0  0  0  0  0  0  0
   41.9190   24.7090   33.1720 N   0  0  0  0  0  0  0  0  0  0  0  0
   42.9190   25.5620   33.6050 C   0  0  0  0  0  0  0  0  0  0  0  0
   42.6590   26.8620   33.9060 N   0  0  0  0  0  0  0  0  0  0  0  0
   38.3860   26.6200   35.7250 C   0  0  0  0  0  0  0  0  0  0  0  0
   37.6090   25.3600   36.0320 C   0  0  0  0  0  0  0  0  0  0  0  0
   38.4400   24.3860   36.7420 C   0  0  0  0  0  0  0  0  0  0  0  0
   39.5470   23.6930   36.1440 C   0  0  0  0  0  0  0  0  0  0  0  0
   40.1750   22.6110   37.5580 S   0  0  0  0  0  0  0  0  0  0  0  0
   38.8060   23.3250   38.6640 C   0  0  0  0  0  0  0  0  0  0  0  0
   38.2470   24.0510   38.0090 N   0  0  0  0  0  0  0  0  0  0  0  0
   39.3813   27.4302   31.1050 H   0  0  0  0  0  0  0  0  0  0  0  0
   37.0990   28.4646   30.8393 H   0  0  0  0  0  0  0  0  0  0  0  0
   35.5853   28.5851   32.8032 H   0  0  0  0  0  0  0  0  0  0  0  0
   36.2938   27.7112   34.9794 H   0  0  0  0  0  0  0  0  0  0  0  0
   41.1782   28.3747   34.0217 H   0  0  0  0  0  0  0  0  0  0  0  0
   39.8786   24.4818   32.6998 H   0  0  0  0  0  0  0  0  0  0  0  0
   43.9455   25.1803   33.7078 H   0  0  0  0  0  0  0  0  0  0  0  0
   39.4519   26.4303   35.9196 H   0  0  0  0  0  0  0  0  0  0  0  0
   37.9858   27.4175   36.3683 H   0  0  0  0  0  0  0  0  0  0  0  0
   36.7421   25.6166   36.6586 H   0  0  0  0  0  0  0  0  0  0  0  0
   37.2816   24.9122   35.0821 H   0  0  0  0  0  0  0  0  0  0  0  0
   39.9330   23.7729   35.1171 H   0  0  0  0  0  0  0  0  0  0  0  0
   38.6028   23.0819   39.7174 H   0  0  0  0  0  0  0  0  0  0  0  0
  1  8  1  0
  1  6  1  0
  2  1  2  0
  3  2  1  0
  3  4  2  0
  4  5  1  0
  5  6  2  0
  6 13  1  0
  7 12  2  0
  8  7  1  0
  9 10  1  0
  9  8  2  0
 10 11  2  0
 11 12  1  0
 13 14  1  0
 14 15  1  0
 15 19  1  0
 16 15  2  0
 16 17  1  0
 17 18  1  0
 19 18  2  0
  2 20  1  0
  3 21  1  0
  4 22  1  0
  5 23  1  0
  7 24  1  0
  9 25  1  0
 11 26  1  0
 13 27  1  0
 13 28  1  0
 14 29  1  0
 14 30  1  0
 16 31  1  0
 18 32  1  0
M  ISO  8  20  14  21  14  22  14  23  14  24  14  25  14  26  14  27   8
M  ISO  5  28   8  29   8  30   8  31  14  32  14
M  END
>  <minimizedAffinity>  (1) 
-4.62568283

>  <minimizedRMSD>  (1) 
1.42787421

$$$$
