
     RDKit          3D

 47 51  0  0  0  0  0  0  0  0999 V2000
   37.9170   21.8960   34.7810 C   0  0  0  0  0  0  0  0  0  0  0  0
   38.0040   22.6680   35.9670 N   0  0  0  0  0  0  0  0  0  0  0  0
   37.0250   22.8710   36.8330 N   0  0  0  0  0  0  0  0  0  0  0  0
   37.4550   23.6530   37.8470 C   0  0  0  0  0  0  0  0  0  0  0  0
   38.7730   23.9250   37.5560 C   0  0  0  0  0  0  0  0  0  0  0  0
   39.1280   23.3020   36.3610 C   0  0  0  0  0  0  0  0  0  0  0  0
   40.4260   23.3880   35.7830 N   0  0  0  0  0  0  0  0  0  0  0  0
   40.9770   24.2410   34.8980 C   0  0  0  0  0  0  0  0  0  0  0  0
   42.2470   23.9290   34.6430 N   0  0  0  0  0  0  0  0  0  0  0  0
   42.5570   22.8410   35.3710 C   0  0  0  0  0  0  0  0  0  0  0  0
   43.6880   22.0600   35.5390 C   0  0  0  0  0  0  0  0  0  0  0  0
   44.7390   22.3420   34.9040 O   0  0  0  0  0  0  0  0  0  0  0  0
   43.7300   20.9870   36.3620 N   0  0  0  0  0  0  0  0  0  0  0  0
   42.5920   20.7090   37.0280 C   0  0  0  0  0  0  0  0  0  0  0  0
   42.5230   19.5900   37.9320 N   0  0  0  0  0  0  0  0  0  0  0  0
   41.4620   21.4350   36.9050 N   0  0  0  0  0  0  0  0  0  0  0  0
   41.4230   22.5060   36.0810 C   0  0  0  0  0  0  0  0  0  0  0  0
   38.4770   22.5930   33.5600 C   0  0  0  0  0  0  0  0  0  0  0  0
   36.4180   23.0140   32.0620 C   0  0  0  0  0  0  0  0  0  0  0  0
   35.5320   23.8920   31.4290 C   0  0  0  0  0  0  0  0  0  0  0  0
   35.7490   25.2380   31.5990 C   0  0  0  0  0  0  0  0  0  0  0  0
   36.8170   25.6490   32.3760 C   0  0  0  0  0  0  0  0  0  0  0  0
   37.6320   24.7390   32.9580 C   0  0  0  0  0  0  0  0  0  0  0  0
   37.4620   23.3790   32.8220 C   0  0  0  0  0  0  0  0  0  0  0  0
   36.9490   20.9210   30.8520 C   0  0  0  0  0  0  0  0  0  0  0  0
   36.1460   21.5920   31.8500 C   0  0  0  0  0  0  0  0  0  0  0  0
   35.2070   20.8790   32.5180 C   0  0  0  0  0  0  0  0  0  0  0  0
   35.0150   19.5780   32.2690 N   0  0  0  0  0  0  0  0  0  0  0  0
   35.7890   18.9510   31.3110 C   0  0  0  0  0  0  0  0  0  0  0  0
   36.7500   19.6170   30.6070 N   0  0  0  0  0  0  0  0  0  0  0  0
   38.4752   20.9605   34.9336 H   0  0  0  0  0  0  0  0  0  0  0  0
   36.8482   21.7200   34.5892 H   0  0  0  0  0  0  0  0  0  0  0  0
   36.8771   23.9979   38.7171 H   0  0  0  0  0  0  0  0  0  0  0  0
   39.4440   24.5406   38.1731 H   0  0  0  0  0  0  0  0  0  0  0  0
   40.4449   25.0893   34.4427 H   0  0  0  0  0  0  0  0  0  0  0  0
   44.5806   20.4169   36.4728 H   0  0  0  0  0  0  0  0  0  0  0  0
   41.6474   19.3878   38.4353 H   0  0  0  0  0  0  0  0  0  0  0  0
   43.3493   18.9919   38.0752 H   0  0  0  0  0  0  0  0  0  0  0  0
   39.2794   23.2728   33.8824 H   0  0  0  0  0  0  0  0  0  0  0  0
   38.8465   21.8129   32.8782 H   0  0  0  0  0  0  0  0  0  0  0  0
   34.6952   23.5198   30.8197 H   0  0  0  0  0  0  0  0  0  0  0  0
   35.0849   25.9760   31.1254 H   0  0  0  0  0  0  0  0  0  0  0  0
   37.0051   26.7229   32.5218 H   0  0  0  0  0  0  0  0  0  0  0  0
   38.4709   25.1030   33.5693 H   0  0  0  0  0  0  0  0  0  0  0  0
   37.7189   21.4767   30.2967 H   0  0  0  0  0  0  0  0  0  0  0  0
   34.5907   21.3791   33.2796 H   0  0  0  0  0  0  0  0  0  0  0  0
   35.6254   17.8820   31.1097 H   0  0  0  0  0  0  0  0  0  0  0  0
  1  2  1  0
  2  6  1  0
  2  3  1  0
  3  4  2  0
  5  4  1  0
  6  5  2  0
  7 17  1  0
  7  6  1  0
  8  7  1  0
  9  8  2  0
  9 10  1  0
 10 11  1  0
 10 17  2  0
 11 13  1  0
 12 11  2  0
 13 14  1  0
 14 15  1  0
 16 14  2  0
 17 16  1  0
 18  1  1  0
 19 24  2  0
 20 21  2  0
 20 19  1  0
 21 22  1  0
 22 23  2  0
 24 23  1  0
 24 18  1  0
 25 26  2  0
 26 19  1  0
 26 27  1  0
 28 27  2  0
 29 28  1  0
 30 25  1  0
 30 29  2  0
  1 31  1  0
  1 32  1  0
  4 33  1  0
  5 34  1  0
  8 35  1  0
 13 36  1  0
 15 37  1  0
 15 38  1  0
 18 39  1  0
 18 40  1  0
 20 41  1  0
 21 42  1  0
 22 43  1  0
 23 44  1  0
 25 45  1  0
 27 46  1  0
 29 47  1  0
M  ISO  8  31   8  32   8  33  14  34  14  35  14  36   9  39   8  40   8
M  ISO  7  41  14  42  14  43  14  44  14  45  14  46  14  47  14
M  END
>  <minimizedAffinity>  (1) 
-6.16456938

>  <minimizedRMSD>  (1) 
1.69948888

$$$$
