
     RDKit          3D

 40 43  0  0  0  0  0  0  0  0999 V2000
   36.4990   22.5170   32.3020 C   0  0  0  0  0  0  0  0  0  0  0  0
   35.6130   23.2050   31.4630 C   0  0  0  0  0  0  0  0  0  0  0  0
   35.7360   24.5750   31.4370 C   0  0  0  0  0  0  0  0  0  0  0  0
   36.6850   25.1970   32.2010 C   0  0  0  0  0  0  0  0  0  0  0  0
   37.5160   24.4640   32.9970 C   0  0  0  0  0  0  0  0  0  0  0  0
   37.4450   23.0960   33.0690 C   0  0  0  0  0  0  0  0  0  0  0  0
   37.2260   20.3320   31.4030 C   0  0  0  0  0  0  0  0  0  0  0  0
   36.3510   21.0660   32.3070 C   0  0  0  0  0  0  0  0  0  0  0  0
   35.4790   20.3780   33.0700 C   0  0  0  0  0  0  0  0  0  0  0  0
   35.4060   19.0420   33.0120 N   0  0  0  0  0  0  0  0  0  0  0  0
   36.2410   18.3500   32.1520 C   0  0  0  0  0  0  0  0  0  0  0  0
   37.1590   18.9950   31.3400 N   0  0  0  0  0  0  0  0  0  0  0  0
   38.4530   22.5220   33.9970 C   0  0  0  0  0  0  0  0  0  0  0  0
   37.8690   21.9390   35.2560 C   0  0  0  0  0  0  0  0  0  0  0  0
   38.1340   22.7050   36.4260 N   0  0  0  0  0  0  0  0  0  0  0  0
   37.2790   23.5340   37.0340 N   0  0  0  0  0  0  0  0  0  0  0  0
   37.8430   24.1120   38.0960 C   0  0  0  0  0  0  0  0  0  0  0  0
   39.1080   23.5970   38.1220 C   0  0  0  0  0  0  0  0  0  0  0  0
   39.2940   22.6930   37.0540 C   0  0  0  0  0  0  0  0  0  0  0  0
   40.5690   22.0420   36.9290 C   0  0  0  0  0  0  0  0  0  0  0  0
   41.5200   22.0210   35.9370 C   0  0  0  0  0  0  0  0  0  0  0  0
   42.5620   21.2220   36.2320 N   0  0  0  0  0  0  0  0  0  0  0  0
   42.3050   20.7020   37.4330 C   0  0  0  0  0  0  0  0  0  0  0  0
   41.1310   21.1980   37.8200 N   0  0  0  0  0  0  0  0  0  0  0  0
   34.8601   22.6786   30.8580 H   0  0  0  0  0  0  0  0  0  0  0  0
   35.0684   25.1728   30.7991 H   0  0  0  0  0  0  0  0  0  0  0  0
   36.7785   26.2927   32.1735 H   0  0  0  0  0  0  0  0  0  0  0  0
   38.2697   24.9887   33.6025 H   0  0  0  0  0  0  0  0  0  0  0  0
   37.9431   20.8761   30.7708 H   0  0  0  0  0  0  0  0  0  0  0  0
   34.8137   20.9248   33.7543 H   0  0  0  0  0  0  0  0  0  0  0  0
   36.1733   17.2528   32.1122 H   0  0  0  0  0  0  0  0  0  0  0  0
   38.9960   21.7255   33.4672 H   0  0  0  0  0  0  0  0  0  0  0  0
   39.1076   23.3504   34.3055 H   0  0  0  0  0  0  0  0  0  0  0  0
   36.7787   21.8660   35.1300 H   0  0  0  0  0  0  0  0  0  0  0  0
   38.3451   20.9583   35.4031 H   0  0  0  0  0  0  0  0  0  0  0  0
   37.3930   24.8365   38.7907 H   0  0  0  0  0  0  0  0  0  0  0  0
   39.8737   23.8510   38.8698 H   0  0  0  0  0  0  0  0  0  0  0  0
   41.4383   22.5954   35.0025 H   0  0  0  0  0  0  0  0  0  0  0  0
   42.9391   20.0002   37.9946 H   0  0  0  0  0  0  0  0  0  0  0  0
   40.6908   20.9586   38.7199 H   0  0  0  0  0  0  0  0  0  0  0  0
  1  8  1  0
  1  6  1  0
  2  1  2  0
  3  2  1  0
  3  4  2  0
  4  5  1  0
  5  6  2  0
  6 13  1  0
  7  8  2  0
  8  9  1  0
 10  9  2  0
 11 10  1  0
 12  7  1  0
 12 11  2  0
 13 14  1  0
 14 15  1  0
 15 16  1  0
 15 19  1  0
 16 17  2  0
 17 18  1  0
 19 18  2  0
 20 19  1  0
 20 24  1  0
 21 22  1  0
 21 20  2  0
 22 23  2  0
 23 24  1  0
  2 25  1  0
  3 26  1  0
  4 27  1  0
  5 28  1  0
  7 29  1  0
  9 30  1  0
 11 31  1  0
 13 32  1  0
 13 33  1  0
 14 34  1  0
 14 35  1  0
 17 36  1  0
 18 37  1  0
 21 38  1  0
 23 39  1  0
 24 40  1  0
M  ISO  8  25  14  26  14  27  14  28  14  29  14  30  14  31  14  32   8
M  ISO  8  33   8  34   8  35   8  36  14  37  14  38  14  39  14  40   9
M  END
>  <minimizedAffinity>  (1) 
-5.86256838

>  <minimizedRMSD>  (1) 
1.09803617

$$$$
