
     RDKit          3D

 48 51  0  0  0  0  0  0  0  0999 V2000
   38.4090   22.7910   33.7230 C   0  0  0  0  0  0  0  0  0  0  0  0
   36.3930   22.8880   32.0870 C   0  0  0  0  0  0  0  0  0  0  0  0
   35.4820   23.6070   31.3310 C   0  0  0  0  0  0  0  0  0  0  0  0
   35.5810   24.9770   31.3750 C   0  0  0  0  0  0  0  0  0  0  0  0
   36.5600   25.5620   32.1530 C   0  0  0  0  0  0  0  0  0  0  0  0
   37.4190   24.7840   32.8690 C   0  0  0  0  0  0  0  0  0  0  0  0
   37.3660   23.4020   32.8620 C   0  0  0  0  0  0  0  0  0  0  0  0
   37.1810   20.7350   31.1380 C   0  0  0  0  0  0  0  0  0  0  0  0
   36.2540   21.4300   32.0130 C   0  0  0  0  0  0  0  0  0  0  0  0
   35.3300   20.7080   32.7000 C   0  0  0  0  0  0  0  0  0  0  0  0
   35.2710   19.3690   32.5720 N   0  0  0  0  0  0  0  0  0  0  0  0
   36.1470   18.7200   31.7470 C   0  0  0  0  0  0  0  0  0  0  0  0
   37.1040   19.3910   31.0260 N   0  0  0  0  0  0  0  0  0  0  0  0
   37.8540   21.9940   34.8700 C   0  0  0  0  0  0  0  0  0  0  0  0
   38.0810   22.5880   36.1460 N   0  0  0  0  0  0  0  0  0  0  0  0
   37.1730   23.0350   36.9800 N   0  0  0  0  0  0  0  0  0  0  0  0
   37.7360   23.5240   38.0850 C   0  0  0  0  0  0  0  0  0  0  0  0
   39.0830   23.3570   37.8970 C   0  0  0  0  0  0  0  0  0  0  0  0
   39.3020   22.7550   36.6480 C   0  0  0  0  0  0  0  0  0  0  0  0
   40.6290   22.4780   36.2190 N   0  0  0  0  0  0  0  0  0  0  0  0
   41.3570   21.4930   37.0280 C   0  0  0  0  0  0  0  0  0  0  0  0
   42.8140   21.5170   36.6500 C   0  0  0  0  0  0  0  0  0  0  0  0
   43.3890   22.9080   36.5420 C   0  0  0  0  0  0  0  0  0  0  0  0
   42.5080   23.8490   35.7690 C   0  0  0  0  0  0  0  0  0  0  0  0
   41.4410   23.0040   35.1100 C   0  0  0  0  0  0  0  0  0  0  0  0
   39.0378   23.5959   34.1313 H   0  0  0  0  0  0  0  0  0  0  0  0
   38.9787   22.0929   33.0920 H   0  0  0  0  0  0  0  0  0  0  0  0
   34.7148   23.1047   30.7235 H   0  0  0  0  0  0  0  0  0  0  0  0
   34.8860   25.6022   30.7952 H   0  0  0  0  0  0  0  0  0  0  0  0
   36.6465   26.6578   32.1948 H   0  0  0  0  0  0  0  0  0  0  0  0
   38.1893   25.2771   33.4801 H   0  0  0  0  0  0  0  0  0  0  0  0
   37.9384   21.2972   30.5720 H   0  0  0  0  0  0  0  0  0  0  0  0
   34.6232   21.2228   33.3674 H   0  0  0  0  0  0  0  0  0  0  0  0
   36.0832   17.6255   31.6579 H   0  0  0  0  0  0  0  0  0  0  0  0
   36.7688   21.8872   34.7252 H   0  0  0  0  0  0  0  0  0  0  0  0
   38.3759   21.0257   34.8697 H   0  0  0  0  0  0  0  0  0  0  0  0
   37.2301   23.9649   38.9566 H   0  0  0  0  0  0  0  0  0  0  0  0
   39.8675   23.6482   38.6109 H   0  0  0  0  0  0  0  0  0  0  0  0
   41.2499   21.7420   38.0941 H   0  0  0  0  0  0  0  0  0  0  0  0
   40.9455   20.4895   36.8446 H   0  0  0  0  0  0  0  0  0  0  0  0
   43.3805   20.9653   37.4147 H   0  0  0  0  0  0  0  0  0  0  0  0
   42.8958   21.0568   35.6543 H   0  0  0  0  0  0  0  0  0  0  0  0
   43.5266   23.3102   37.5565 H   0  0  0  0  0  0  0  0  0  0  0  0
   44.3424   22.8288   35.9990 H   0  0  0  0  0  0  0  0  0  0  0  0
   42.0462   24.5803   36.4487 H   0  0  0  0  0  0  0  0  0  0  0  0
   43.0880   24.4083   35.0201 H   0  0  0  0  0  0  0  0  0  0  0  0
   40.8240   23.6171   34.4366 H   0  0  0  0  0  0  0  0  0  0  0  0
   41.8729   22.1988   34.4975 H   0  0  0  0  0  0  0  0  0  0  0  0
  1 14  1  0
  2  7  2  0
  3  4  2  0
  3  2  1  0
  4  5  1  0
  5  6  2  0
  7  6  1  0
  7  1  1  0
  8  9  2  0
  9  2  1  0
  9 10  1  0
 11 10  2  0
 12 11  1  0
 13  8  1  0
 13 12  2  0
 14 15  1  0
 15 19  1  0
 15 16  1  0
 16 17  2  0
 18 17  1  0
 19 18  2  0
 20 19  1  0
 20 21  1  0
 22 21  1  0
 23 22  1  0
 24 23  1  0
 25 24  1  0
 25 20  1  0
  1 26  1  0
  1 27  1  0
  3 28  1  0
  4 29  1  0
  5 30  1  0
  6 31  1  0
  8 32  1  0
 10 33  1  0
 12 34  1  0
 14 35  1  0
 14 36  1  0
 17 37  1  0
 18 38  1  0
 21 39  1  0
 21 40  1  0
 22 41  1  0
 22 42  1  0
 23 43  1  0
 23 44  1  0
 24 45  1  0
 24 46  1  0
 25 47  1  0
 25 48  1  0
M  ISO  8  26   8  27   8  28  14  29  14  30  14  31  14  32  14  33  14
M  ISO  8  34  14  35   8  36   8  37  14  38  14  39  13  40  13  41  13
M  ISO  7  42  13  43  13  44  13  45  13  46  13  47  13  48  13
M  END
>  <minimizedAffinity>  (1) 
-5.76433945

>  <minimizedRMSD>  (1) 
1.4350009

$$$$
