
     RDKit          3D

 42 45  0  0  0  0  0  0  0  0999 V2000
   38.3820   22.6830   33.6660 C   0  0  0  0  0  0  0  0  0  0  0  0
   36.3850   23.0600   32.0560 C   0  0  0  0  0  0  0  0  0  0  0  0
   35.5330   23.9130   31.3620 C   0  0  0  0  0  0  0  0  0  0  0  0
   35.7370   25.2630   31.5140 C   0  0  0  0  0  0  0  0  0  0  0  0
   36.7620   25.7030   32.3330 C   0  0  0  0  0  0  0  0  0  0  0  0
   37.5510   24.8070   32.9750 C   0  0  0  0  0  0  0  0  0  0  0  0
   37.3920   23.4480   32.8610 C   0  0  0  0  0  0  0  0  0  0  0  0
   36.9750   20.9610   30.8780 C   0  0  0  0  0  0  0  0  0  0  0  0
   36.1340   21.6300   31.8590 C   0  0  0  0  0  0  0  0  0  0  0  0
   35.2000   20.9190   32.5120 C   0  0  0  0  0  0  0  0  0  0  0  0
   35.0240   19.6130   32.2840 N   0  0  0  0  0  0  0  0  0  0  0  0
   35.8250   18.9780   31.3510 C   0  0  0  0  0  0  0  0  0  0  0  0
   36.8060   19.6510   30.6420 N   0  0  0  0  0  0  0  0  0  0  0  0
   37.7930   22.0410   34.8950 C   0  0  0  0  0  0  0  0  0  0  0  0
   38.0700   22.7410   36.1030 N   0  0  0  0  0  0  0  0  0  0  0  0
   37.2270   23.5170   36.7890 N   0  0  0  0  0  0  0  0  0  0  0  0
   37.8190   24.0360   37.8590 C   0  0  0  0  0  0  0  0  0  0  0  0
   39.0920   23.5480   37.8210 C   0  0  0  0  0  0  0  0  0  0  0  0
   39.2550   22.7140   36.6940 C   0  0  0  0  0  0  0  0  0  0  0  0
   40.5280   22.0520   36.4530 C   0  0  0  0  0  0  0  0  0  0  0  0
   41.2270   21.4540   37.4730 C   0  0  0  0  0  0  0  0  0  0  0  0
   42.4330   20.8040   37.3570 C   0  0  0  0  0  0  0  0  0  0  0  0
   43.0230   20.7240   36.1250 C   0  0  0  0  0  0  0  0  0  0  0  0
   42.3320   21.3210   35.0940 C   0  0  0  0  0  0  0  0  0  0  0  0
   41.1630   21.9340   35.2900 N   0  0  0  0  0  0  0  0  0  0  0  0
   39.1798   23.3714   33.9817 H   0  0  0  0  0  0  0  0  0  0  0  0
   38.7588   21.8708   33.0269 H   0  0  0  0  0  0  0  0  0  0  0  0
   34.7302   23.5232   30.7189 H   0  0  0  0  0  0  0  0  0  0  0  0
   35.0933   25.9856   30.9910 H   0  0  0  0  0  0  0  0  0  0  0  0
   36.9367   26.7812   32.4632 H   0  0  0  0  0  0  0  0  0  0  0  0
   38.3579   25.1872   33.6187 H   0  0  0  0  0  0  0  0  0  0  0  0
   37.7452   21.5262   30.3328 H   0  0  0  0  0  0  0  0  0  0  0  0
   34.5634   21.4240   33.2535 H   0  0  0  0  0  0  0  0  0  0  0  0
   35.6777   17.9036   31.1665 H   0  0  0  0  0  0  0  0  0  0  0  0
   36.7016   21.9881   34.7683 H   0  0  0  0  0  0  0  0  0  0  0  0
   38.2571   21.0481   34.9889 H   0  0  0  0  0  0  0  0  0  0  0  0
   37.3798   24.7099   38.6093 H   0  0  0  0  0  0  0  0  0  0  0  0
   39.8759   23.7714   38.5596 H   0  0  0  0  0  0  0  0  0  0  0  0
   40.7799   21.4994   38.4770 H   0  0  0  0  0  0  0  0  0  0  0  0
   42.9149   20.3563   38.2387 H   0  0  0  0  0  0  0  0  0  0  0  0
   43.9861   20.2161   35.9683 H   0  0  0  0  0  0  0  0  0  0  0  0
   42.7561   21.2917   34.0795 H   0  0  0  0  0  0  0  0  0  0  0  0
  1 14  1  0
  2  7  2  0
  3  4  2  0
  3  2  1  0
  4  5  1  0
  5  6  2  0
  7  6  1  0
  7  1  1  0
  8  9  2  0
  9  2  1  0
  9 10  1  0
 11 10  2  0
 12 11  1  0
 13  8  1  0
 13 12  2  0
 14 15  1  0
 15 19  1  0
 15 16  1  0
 16 17  2  0
 18 17  1  0
 19 18  2  0
 20 19  1  0
 20 21  2  0
 22 21  1  0
 23 22  2  0
 24 25  2  0
 24 23  1  0
 25 20  1  0
  1 26  1  0
  1 27  1  0
  3 28  1  0
  4 29  1  0
  5 30  1  0
  6 31  1  0
  8 32  1  0
 10 33  1  0
 12 34  1  0
 14 35  1  0
 14 36  1  0
 17 37  1  0
 18 38  1  0
 21 39  1  0
 22 40  1  0
 23 41  1  0
 24 42  1  0
M  ISO  8  26   8  27   8  28  14  29  14  30  14  31  14  32  14  33  14
M  ISO  8  34  14  35   8  36   8  37  14  38  14  39  14  40  14  41  14
M  ISO  1  42  14
M  END
>  <minimizedAffinity>  (1) 
-5.71170187

>  <minimizedRMSD>  (1) 
0.645982027

$$$$
