
     RDKit          3D

 43 46  0  0  0  0  0  0  0  0999 V2000
   38.7530   22.6130   34.2310 C   0  0  0  0  0  0  0  0  0  0  0  0
   36.8180   22.8030   32.5330 C   0  0  0  0  0  0  0  0  0  0  0  0
   35.9590   23.5710   31.7380 C   0  0  0  0  0  0  0  0  0  0  0  0
   36.1190   24.9400   31.7930 C   0  0  0  0  0  0  0  0  0  0  0  0
   37.0890   25.4720   32.6030 C   0  0  0  0  0  0  0  0  0  0  0  0
   37.8950   24.6550   33.3560 C   0  0  0  0  0  0  0  0  0  0  0  0
   37.7810   23.2720   33.3430 C   0  0  0  0  0  0  0  0  0  0  0  0
   37.4750   20.6400   31.5170 C   0  0  0  0  0  0  0  0  0  0  0  0
   36.6100   21.3560   32.4430 C   0  0  0  0  0  0  0  0  0  0  0  0
   35.6790   20.6730   33.1580 C   0  0  0  0  0  0  0  0  0  0  0  0
   35.5490   19.3410   33.0190 N   0  0  0  0  0  0  0  0  0  0  0  0
   36.3720   18.6650   32.1390 C   0  0  0  0  0  0  0  0  0  0  0  0
   37.3230   19.3080   31.3970 N   0  0  0  0  0  0  0  0  0  0  0  0
   38.0900   21.9960   35.4540 C   0  0  0  0  0  0  0  0  0  0  0  0
   38.2600   22.7770   36.6270 N   0  0  0  0  0  0  0  0  0  0  0  0
   37.3040   23.4300   37.2470 N   0  0  0  0  0  0  0  0  0  0  0  0
   37.7710   24.0760   38.3260 C   0  0  0  0  0  0  0  0  0  0  0  0
   39.1100   23.7800   38.3430 C   0  0  0  0  0  0  0  0  0  0  0  0
   39.4180   22.9560   37.2650 C   0  0  0  0  0  0  0  0  0  0  0  0
   40.7590   22.4640   36.9970 C   0  0  0  0  0  0  0  0  0  0  0  0
   41.3200   21.2590   37.3420 C   0  0  0  0  0  0  0  0  0  0  0  0
   42.6230   20.9620   36.9990 C   0  0  0  0  0  0  0  0  0  0  0  0
   43.4370   21.8290   36.3030 C   0  0  0  0  0  0  0  0  0  0  0  0
   42.8770   23.0400   35.9550 C   0  0  0  0  0  0  0  0  0  0  0  0
   41.5790   23.3510   36.2910 C   0  0  0  0  0  0  0  0  0  0  0  0
   39.4890   23.3588   34.5657 H   0  0  0  0  0  0  0  0  0  0  0  0
   39.2332   21.8026   33.6630 H   0  0  0  0  0  0  0  0  0  0  0  0
   35.1933   23.1052   31.1002 H   0  0  0  0  0  0  0  0  0  0  0  0
   35.4744   25.5988   31.1926 H   0  0  0  0  0  0  0  0  0  0  0  0
   37.2224   26.5629   32.6498 H   0  0  0  0  0  0  0  0  0  0  0  0
   38.6624   25.1152   33.9957 H   0  0  0  0  0  0  0  0  0  0  0  0
   38.2353   21.1750   30.9289 H   0  0  0  0  0  0  0  0  0  0  0  0
   35.0248   21.2140   33.8576 H   0  0  0  0  0  0  0  0  0  0  0  0
   36.2585   17.5761   32.0322 H   0  0  0  0  0  0  0  0  0  0  0  0
   37.0133   21.8918   35.2546 H   0  0  0  0  0  0  0  0  0  0  0  0
   38.5690   21.0221   35.6333 H   0  0  0  0  0  0  0  0  0  0  0  0
   37.2083   24.7007   39.0353 H   0  0  0  0  0  0  0  0  0  0  0  0
   39.8298   24.1388   39.0934 H   0  0  0  0  0  0  0  0  0  0  0  0
   40.7232   20.5215   37.8987 H   0  0  0  0  0  0  0  0  0  0  0  0
   43.0321   19.9850   37.2958 H   0  0  0  0  0  0  0  0  0  0  0  0
   44.4733   21.5701   36.0403 H   0  0  0  0  0  0  0  0  0  0  0  0
   43.4797   23.7722   35.3977 H   0  0  0  0  0  0  0  0  0  0  0  0
   41.1728   24.3294   35.9946 H   0  0  0  0  0  0  0  0  0  0  0  0
  1 14  1  0
  2  7  2  0
  3  4  2  0
  3  2  1  0
  4  5  1  0
  5  6  2  0
  7  6  1  0
  7  1  1  0
  8  9  2  0
  9  2  1  0
  9 10  1  0
 11 10  2  0
 12 11  1  0
 13  8  1  0
 13 12  2  0
 14 15  1  0
 15 16  1  0
 15 19  1  0
 16 17  2  0
 17 18  1  0
 19 18  2  0
 20 19  1  0
 20 21  2  0
 22 21  1  0
 23 22  2  0
 24 25  2  0
 24 23  1  0
 25 20  1  0
  1 26  1  0
  1 27  1  0
  3 28  1  0
  4 29  1  0
  5 30  1  0
  6 31  1  0
  8 32  1  0
 10 33  1  0
 12 34  1  0
 14 35  1  0
 14 36  1  0
 17 37  1  0
 18 38  1  0
 21 39  1  0
 22 40  1  0
 23 41  1  0
 24 42  1  0
 25 43  1  0
M  ISO  8  26   8  27   8  28  14  29  14  30  14  31  14  32  14  33  14
M  ISO  8  34  14  35   8  36   8  37  14  38  14  39  14  40  14  41  14
M  ISO  2  42  14  43  14
M  END
>  <minimizedAffinity>  (1) 
-5.70345259

>  <minimizedRMSD>  (1) 
1.30868757

$$$$
