
     RDKit          3D

 43 46  0  0  0  0  0  0  0  0999 V2000
   38.6560   22.5540   33.9510 C   0  0  0  0  0  0  0  0  0  0  0  0
   36.6110   22.5860   32.3710 C   0  0  0  0  0  0  0  0  0  0  0  0
   35.6750   23.2840   31.5980 C   0  0  0  0  0  0  0  0  0  0  0  0
   35.7860   24.6510   31.5810 C   0  0  0  0  0  0  0  0  0  0  0  0
   36.7790   25.2660   32.3000 C   0  0  0  0  0  0  0  0  0  0  0  0
   37.6560   24.5150   33.0300 C   0  0  0  0  0  0  0  0  0  0  0  0
   37.6030   23.1370   33.0920 C   0  0  0  0  0  0  0  0  0  0  0  0
   37.3760   20.4000   31.4950 C   0  0  0  0  0  0  0  0  0  0  0  0
   36.4600   21.1290   32.3600 C   0  0  0  0  0  0  0  0  0  0  0  0
   35.5470   20.4480   33.0840 C   0  0  0  0  0  0  0  0  0  0  0  0
   35.4740   19.1090   33.0160 N   0  0  0  0  0  0  0  0  0  0  0  0
   36.3380   18.4150   32.2000 C   0  0  0  0  0  0  0  0  0  0  0  0
   37.2800   19.0530   31.4460 N   0  0  0  0  0  0  0  0  0  0  0  0
   38.0940   21.9000   35.2030 C   0  0  0  0  0  0  0  0  0  0  0  0
   38.1950   22.7200   36.3560 N   0  0  0  0  0  0  0  0  0  0  0  0
   37.1840   23.3590   36.9280 N   0  0  0  0  0  0  0  0  0  0  0  0
   37.6290   24.0480   38.0060 C   0  0  0  0  0  0  0  0  0  0  0  0
   38.9740   23.7960   38.0650 C   0  0  0  0  0  0  0  0  0  0  0  0
   39.3280   22.9540   37.0190 C   0  0  0  0  0  0  0  0  0  0  0  0
   40.6980   22.5040   36.8120 C   0  0  0  0  0  0  0  0  0  0  0  0
   41.5040   23.3890   36.0880 C   0  0  0  0  0  0  0  0  0  0  0  0
   42.8310   23.1040   35.8110 C   0  0  0  0  0  0  0  0  0  0  0  0
   43.4010   21.9310   36.2420 C   0  0  0  0  0  0  0  0  0  0  0  0
   42.6090   21.0710   36.9470 C   0  0  0  0  0  0  0  0  0  0  0  0
   41.3070   21.3380   37.2280 C   0  0  0  0  0  0  0  0  0  0  0  0
   39.3481   23.3542   34.2520 H   0  0  0  0  0  0  0  0  0  0  0  0
   39.1669   21.7734   33.3682 H   0  0  0  0  0  0  0  0  0  0  0  0
   34.8894   22.7617   31.0323 H   0  0  0  0  0  0  0  0  0  0  0  0
   35.0794   25.2535   30.9913 H   0  0  0  0  0  0  0  0  0  0  0  0
   36.8690   26.3623   32.2888 H   0  0  0  0  0  0  0  0  0  0  0  0
   38.4433   25.0340   33.5964 H   0  0  0  0  0  0  0  0  0  0  0  0
   38.1286   20.9330   30.8954 H   0  0  0  0  0  0  0  0  0  0  0  0
   34.8537   20.9970   33.7382 H   0  0  0  0  0  0  0  0  0  0  0  0
   36.2676   17.3182   32.1543 H   0  0  0  0  0  0  0  0  0  0  0  0
   37.0325   21.6692   35.0302 H   0  0  0  0  0  0  0  0  0  0  0  0
   38.6886   20.9943   35.3933 H   0  0  0  0  0  0  0  0  0  0  0  0
   37.0368   24.6757   38.6882 H   0  0  0  0  0  0  0  0  0  0  0  0
   39.6646   24.1972   38.8214 H   0  0  0  0  0  0  0  0  0  0  0  0
   41.0730   24.3354   35.7295 H   0  0  0  0  0  0  0  0  0  0  0  0
   43.4346   23.8247   35.2398 H   0  0  0  0  0  0  0  0  0  0  0  0
   44.4536   21.6940   36.0277 H   0  0  0  0  0  0  0  0  0  0  0  0
   43.0424   20.1242   37.3016 H   0  0  0  0  0  0  0  0  0  0  0  0
   40.7224   20.6046   37.8028 H   0  0  0  0  0  0  0  0  0  0  0  0
  1 14  1  0
  2  7  1  0
  3  2  2  0
  4  3  1  0
  4  5  2  0
  5  6  1  0
  6  7  2  0
  7  1  1  0
  8  9  2  0
  9  2  1  0
  9 10  1  0
 11 10  2  0
 12 11  1  0
 13  8  1  0
 13 12  2  0
 14 15  1  0
 15 16  1  0
 15 19  1  0
 16 17  2  0
 17 18  1  0
 19 18  2  0
 20 19  1  0
 20 25  1  0
 21 20  2  0
 22 21  1  0
 22 23  2  0
 23 24  1  0
 24 25  2  0
  1 26  1  0
  1 27  1  0
  3 28  1  0
  4 29  1  0
  5 30  1  0
  6 31  1  0
  8 32  1  0
 10 33  1  0
 12 34  1  0
 14 35  1  0
 14 36  1  0
 17 37  1  0
 18 38  1  0
 21 39  1  0
 22 40  1  0
 23 41  1  0
 24 42  1  0
 25 43  1  0
M  ISO  8  26   8  27   8  28  14  29  14  30  14  31  14  32  14  33  14
M  ISO  8  34  14  35   8  36   8  37  14  38  14  39  14  40  14  41  14
M  ISO  2  42  14  43  14
M  END
>  <minimizedAffinity>  (1) 
-5.69422817

>  <minimizedRMSD>  (1) 
1.296188

$$$$
