
     RDKit          3D

 46 49  0  0  0  0  0  0  0  0999 V2000
   38.6230   22.5410   33.9550 C   0  0  0  0  0  0  0  0  0  0  0  0
   36.5860   22.5930   32.3650 C   0  0  0  0  0  0  0  0  0  0  0  0
   35.6580   23.3020   31.5920 C   0  0  0  0  0  0  0  0  0  0  0  0
   35.7740   24.6720   31.5830 C   0  0  0  0  0  0  0  0  0  0  0  0
   36.7780   25.2700   32.3190 C   0  0  0  0  0  0  0  0  0  0  0  0
   37.6430   24.5170   33.0460 C   0  0  0  0  0  0  0  0  0  0  0  0
   37.5730   23.1380   33.0930 C   0  0  0  0  0  0  0  0  0  0  0  0
   37.2510   20.4120   31.4060 C   0  0  0  0  0  0  0  0  0  0  0  0
   36.4260   21.1380   32.3480 C   0  0  0  0  0  0  0  0  0  0  0  0
   35.5660   20.4580   33.1490 C   0  0  0  0  0  0  0  0  0  0  0  0
   35.4840   19.1160   33.0650 N   0  0  0  0  0  0  0  0  0  0  0  0
   36.2620   18.4300   32.1780 C   0  0  0  0  0  0  0  0  0  0  0  0
   37.1530   19.0750   31.3390 N   0  0  0  0  0  0  0  0  0  0  0  0
   38.0670   21.8960   35.2090 C   0  0  0  0  0  0  0  0  0  0  0  0
   38.1920   22.7220   36.3650 N   0  0  0  0  0  0  0  0  0  0  0  0
   37.2040   23.3600   36.9710 N   0  0  0  0  0  0  0  0  0  0  0  0
   37.6700   24.0470   38.0290 C   0  0  0  0  0  0  0  0  0  0  0  0
   39.0160   23.7970   38.0470 C   0  0  0  0  0  0  0  0  0  0  0  0
   39.3480   22.9550   36.9900 C   0  0  0  0  0  0  0  0  0  0  0  0
   43.3890   21.9490   36.0650 C   0  0  0  0  0  0  0  0  0  0  0  0
   42.7990   23.1140   35.6210 C   0  0  0  0  0  0  0  0  0  0  0  0
   41.4760   23.3820   35.9580 C   0  0  0  0  0  0  0  0  0  0  0  0
   40.7140   22.5040   36.7400 C   0  0  0  0  0  0  0  0  0  0  0  0
   41.3240   21.3440   37.1750 C   0  0  0  0  0  0  0  0  0  0  0  0
   42.6360   21.0870   36.8350 C   0  0  0  0  0  0  0  0  0  0  0  0
   45.0480   21.5840   35.6590 S   0  0  0  0  0  0  0  0  0  0  0  0
   45.4010   20.2780   36.3120 O   0  0  0  0  0  0  0  0  0  0  0  0
   46.0090   22.6280   36.1800 O   0  0  0  0  0  0  0  0  0  0  0  0
   39.3255   23.3340   34.2511 H   0  0  0  0  0  0  0  0  0  0  0  0
   39.1167   21.7505   33.3708 H   0  0  0  0  0  0  0  0  0  0  0  0
   34.8730   22.7869   31.0189 H   0  0  0  0  0  0  0  0  0  0  0  0
   35.0746   25.2852   30.9958 H   0  0  0  0  0  0  0  0  0  0  0  0
   36.8778   26.3655   32.3163 H   0  0  0  0  0  0  0  0  0  0  0  0
   38.4312   25.0254   33.6207 H   0  0  0  0  0  0  0  0  0  0  0  0
   37.9516   20.9509   30.7512 H   0  0  0  0  0  0  0  0  0  0  0  0
   34.9358   21.0033   33.8670 H   0  0  0  0  0  0  0  0  0  0  0  0
   36.1783   17.3343   32.1289 H   0  0  0  0  0  0  0  0  0  0  0  0
   37.0009   21.6784   35.0477 H   0  0  0  0  0  0  0  0  0  0  0  0
   38.6502   20.9819   35.3941 H   0  0  0  0  0  0  0  0  0  0  0  0
   37.0953   24.6731   38.7274 H   0  0  0  0  0  0  0  0  0  0  0  0
   39.7262   24.2000   38.7841 H   0  0  0  0  0  0  0  0  0  0  0  0
   43.3696   23.8252   35.0057 H   0  0  0  0  0  0  0  0  0  0  0  0
   41.0134   24.3132   35.5989 H   0  0  0  0  0  0  0  0  0  0  0  0
   40.7643   20.6256   37.7920 H   0  0  0  0  0  0  0  0  0  0  0  0
   43.1009   20.1564   37.1926 H   0  0  0  0  0  0  0  0  0  0  0  0
   45.1548   21.5432   34.2938 H   0  0  0  0  0  0  0  0  0  0  0  0
  1 14  1  0
  2  7  1  0
  3  2  2  0
  4  3  1  0
  4  5  2  0
  5  6  1  0
  6  7  2  0
  7  1  1  0
  8  9  2  0
  9  2  1  0
  9 10  1  0
 11 10  2  0
 12 11  1  0
 13  8  1  0
 13 12  2  0
 14 15  1  0
 15 16  1  0
 15 19  1  0
 16 17  2  0
 17 18  1  0
 19 18  2  0
 20 25  2  0
 21 22  2  0
 21 20  1  0
 22 23  1  0
 23 19  1  0
 23 24  2  0
 25 24  1  0
 26 20  1  0
 26 28  2  0
 26 27  2  0
  1 29  1  0
  1 30  1  0
  3 31  1  0
  4 32  1  0
  5 33  1  0
  6 34  1  0
  8 35  1  0
 10 36  1  0
 12 37  1  0
 14 38  1  0
 14 39  1  0
 17 40  1  0
 18 41  1  0
 21 42  1  0
 22 43  1  0
 24 44  1  0
 25 45  1  0
 26 46  1  0
M  ISO  8  29   8  30   8  31  14  32  14  33  14  34  14  35  14  36  14
M  ISO  8  37  14  38   8  39   8  40  14  41  14  42  14  43  14  44  14
M  ISO  2  45  14  46  11
M  END
>  <minimizedAffinity>  (1) 
-5.68228292

>  <minimizedRMSD>  (1) 
1.62571359

$$$$
