
     RDKit          3D

 43 46  0  0  0  0  0  0  0  0999 V2000
   38.5920   22.4370   33.9200 C   0  0  0  0  0  0  0  0  0  0  0  0
   36.5440   22.4900   32.3410 C   0  0  0  0  0  0  0  0  0  0  0  0
   35.6170   23.1950   31.5750 C   0  0  0  0  0  0  0  0  0  0  0  0
   35.7410   24.5640   31.5600 C   0  0  0  0  0  0  0  0  0  0  0  0
   36.7400   25.1680   32.2770 C   0  0  0  0  0  0  0  0  0  0  0  0
   37.6060   24.4110   33.0000 C   0  0  0  0  0  0  0  0  0  0  0  0
   37.5400   23.0310   33.0610 C   0  0  0  0  0  0  0  0  0  0  0  0
   37.2040   20.3020   31.3810 C   0  0  0  0  0  0  0  0  0  0  0  0
   36.3810   21.0360   32.3310 C   0  0  0  0  0  0  0  0  0  0  0  0
   35.5460   20.3440   33.1210 C   0  0  0  0  0  0  0  0  0  0  0  0
   35.4640   19.0060   33.0430 N   0  0  0  0  0  0  0  0  0  0  0  0
   36.2400   18.3200   32.1460 C   0  0  0  0  0  0  0  0  0  0  0  0
   37.1110   18.9630   31.3140 N   0  0  0  0  0  0  0  0  0  0  0  0
   38.0450   21.8500   35.1990 C   0  0  0  0  0  0  0  0  0  0  0  0
   38.1650   22.7120   36.3250 N   0  0  0  0  0  0  0  0  0  0  0  0
   37.1910   23.3810   36.9120 N   0  0  0  0  0  0  0  0  0  0  0  0
   37.6630   24.0930   37.9440 C   0  0  0  0  0  0  0  0  0  0  0  0
   39.0130   23.8290   37.9720 C   0  0  0  0  0  0  0  0  0  0  0  0
   39.3220   22.9510   36.9420 C   0  0  0  0  0  0  0  0  0  0  0  0
   40.6550   22.5100   36.7440 N   0  0  0  0  0  0  0  0  0  0  0  0
   41.2560   21.3890   37.2420 C   0  0  0  0  0  0  0  0  0  0  0  0
   42.5740   21.1280   36.9340 C   0  0  0  0  0  0  0  0  0  0  0  0
   43.2990   21.9920   36.1210 C   0  0  0  0  0  0  0  0  0  0  0  0
   44.4800   21.6140   35.9380 O   0  0  0  0  0  0  0  0  0  0  0  0
   42.6720   23.0840   35.6520 N   0  0  0  0  0  0  0  0  0  0  0  0
   41.3860   23.3290   35.9590 C   0  0  0  0  0  0  0  0  0  0  0  0
   40.9870   24.4070   35.4160 O   0  0  0  0  0  0  0  0  0  0  0  0
   39.3195   23.2211   34.1768 H   0  0  0  0  0  0  0  0  0  0  0  0
   39.0567   21.6169   33.3530 H   0  0  0  0  0  0  0  0  0  0  0  0
   34.8252   22.6811   31.0103 H   0  0  0  0  0  0  0  0  0  0  0  0
   35.0387   25.1739   30.9728 H   0  0  0  0  0  0  0  0  0  0  0  0
   36.8407   26.2633   32.2673 H   0  0  0  0  0  0  0  0  0  0  0  0
   38.3996   24.9215   33.5653 H   0  0  0  0  0  0  0  0  0  0  0  0
   37.8992   20.8411   30.7206 H   0  0  0  0  0  0  0  0  0  0  0  0
   34.9174   20.8824   33.8455 H   0  0  0  0  0  0  0  0  0  0  0  0
   36.1593   17.2242   32.0949 H   0  0  0  0  0  0  0  0  0  0  0  0
   36.9793   21.6230   35.0482 H   0  0  0  0  0  0  0  0  0  0  0  0
   38.6403   20.9515   35.4190 H   0  0  0  0  0  0  0  0  0  0  0  0
   37.0946   24.7468   38.6219 H   0  0  0  0  0  0  0  0  0  0  0  0
   39.7310   24.2460   38.6935 H   0  0  0  0  0  0  0  0  0  0  0  0
   40.6912   20.6983   37.8854 H   0  0  0  0  0  0  0  0  0  0  0  0
   43.0578   20.2256   37.3361 H   0  0  0  0  0  0  0  0  0  0  0  0
   43.1840   23.7431   35.0484 H   0  0  0  0  0  0  0  0  0  0  0  0
  1 14  1  0
  2  7  1  0
  3  2  2  0
  4  3  1  0
  4  5  2  0
  5  6  1  0
  6  7  2  0
  7  1  1  0
  8  9  2  0
  9  2  1  0
  9 10  1  0
 11 10  2  0
 12 11  1  0
 13  8  1  0
 13 12  2  0
 14 15  1  0
 15 16  1  0
 15 19  1  0
 16 17  2  0
 17 18  1  0
 19 18  2  0
 20 19  1  0
 20 21  1  0
 22 21  2  0
 23 22  1  0
 24 23  2  0
 25 26  1  0
 25 23  1  0
 26 20  1  0
 27 26  2  0
  1 28  1  0
  1 29  1  0
  3 30  1  0
  4 31  1  0
  5 32  1  0
  6 33  1  0
  8 34  1  0
 10 35  1  0
 12 36  1  0
 14 37  1  0
 14 38  1  0
 17 39  1  0
 18 40  1  0
 21 41  1  0
 22 42  1  0
 25 43  1  0
M  ISO  8  28   8  29   8  30  14  31  14  32  14  33  14  34  14  35  14
M  ISO  8  36  14  37   8  38   8  39  14  40  14  41  14  42  14  43   9
M  END
>  <minimizedAffinity>  (1) 
-5.63571882

>  <minimizedRMSD>  (1) 
1.27282703

$$$$
