
     RDKit          3D

 41 44  0  0  0  0  0  0  0  0999 V2000
   38.3420   22.8140   33.5960 C   0  0  0  0  0  0  0  0  0  0  0  0
   36.3290   23.0950   31.9970 C   0  0  0  0  0  0  0  0  0  0  0  0
   35.4410   23.9150   31.2890 C   0  0  0  0  0  0  0  0  0  0  0  0
   35.6210   25.2740   31.4250 C   0  0  0  0  0  0  0  0  0  0  0  0
   36.6270   25.7570   32.2210 C   0  0  0  0  0  0  0  0  0  0  0  0
   37.4440   24.8970   32.8730 C   0  0  0  0  0  0  0  0  0  0  0  0
   37.3260   23.5300   32.7850 C   0  0  0  0  0  0  0  0  0  0  0  0
   36.9740   20.9870   30.8730 C   0  0  0  0  0  0  0  0  0  0  0  0
   36.1170   21.6680   31.8320 C   0  0  0  0  0  0  0  0  0  0  0  0
   35.1880   20.9340   32.4980 C   0  0  0  0  0  0  0  0  0  0  0  0
   35.0480   19.6220   32.2940 N   0  0  0  0  0  0  0  0  0  0  0  0
   35.8690   18.9890   31.3800 C   0  0  0  0  0  0  0  0  0  0  0  0
   36.8390   19.6690   30.6630 N   0  0  0  0  0  0  0  0  0  0  0  0
   37.7780   22.1260   34.8110 C   0  0  0  0  0  0  0  0  0  0  0  0
   38.0540   22.7980   36.0370 N   0  0  0  0  0  0  0  0  0  0  0  0
   37.2220   23.5670   36.7410 N   0  0  0  0  0  0  0  0  0  0  0  0
   37.8170   24.0440   37.8350 C   0  0  0  0  0  0  0  0  0  0  0  0
   39.0800   23.5300   37.7830 C   0  0  0  0  0  0  0  0  0  0  0  0
   39.2370   22.7290   36.6330 C   0  0  0  0  0  0  0  0  0  0  0  0
   40.5030   22.0570   36.3880 C   0  0  0  0  0  0  0  0  0  0  0  0
   41.2250   21.4850   37.4110 C   0  0  0  0  0  0  0  0  0  0  0  0
   42.4280   20.8310   37.2760 C   0  0  0  0  0  0  0  0  0  0  0  0
   42.9420   20.7460   36.0250 N   0  0  0  0  0  0  0  0  0  0  0  0
   42.2710   21.2950   34.9740 C   0  0  0  0  0  0  0  0  0  0  0  0
   41.1230   21.9000   35.2170 N   0  0  0  0  0  0  0  0  0  0  0  0
   39.0957   23.5427   33.9291 H   0  0  0  0  0  0  0  0  0  0  0  0
   38.7685   22.0294   32.9537 H   0  0  0  0  0  0  0  0  0  0  0  0
   34.6429   23.4963   30.6584 H   0  0  0  0  0  0  0  0  0  0  0  0
   34.9569   25.9721   30.8944 H   0  0  0  0  0  0  0  0  0  0  0  0
   36.7702   26.8422   32.3298 H   0  0  0  0  0  0  0  0  0  0  0  0
   38.2425   25.3127   33.5051 H   0  0  0  0  0  0  0  0  0  0  0  0
   37.7353   21.5551   30.3183 H   0  0  0  0  0  0  0  0  0  0  0  0
   34.5326   21.4347   33.2259 H   0  0  0  0  0  0  0  0  0  0  0  0
   35.7477   17.9080   31.2165 H   0  0  0  0  0  0  0  0  0  0  0  0
   36.6866   22.0552   34.6932 H   0  0  0  0  0  0  0  0  0  0  0  0
   38.2618   21.1400   34.8722 H   0  0  0  0  0  0  0  0  0  0  0  0
   37.3873   24.7022   38.6045 H   0  0  0  0  0  0  0  0  0  0  0  0
   39.8644   23.7143   38.5319 H   0  0  0  0  0  0  0  0  0  0  0  0
   40.8035   21.5570   38.4245 H   0  0  0  0  0  0  0  0  0  0  0  0
   42.9481   20.3975   38.1429 H   0  0  0  0  0  0  0  0  0  0  0  0
   42.6742   21.2359   33.9523 H   0  0  0  0  0  0  0  0  0  0  0  0
  1 14  1  0
  2  7  2  0
  3  4  2  0
  3  2  1  0
  4  5  1  0
  5  6  2  0
  7  6  1  0
  7  1  1  0
  8  9  2  0
  9  2  1  0
  9 10  1  0
 11 10  2  0
 12 11  1  0
 13  8  1  0
 13 12  2  0
 14 15  1  0
 15 19  1  0
 15 16  1  0
 16 17  2  0
 18 17  1  0
 19 18  2  0
 20 19  1  0
 20 21  2  0
 22 21  1  0
 23 22  2  0
 24 25  2  0
 24 23  1  0
 25 20  1  0
  1 26  1  0
  1 27  1  0
  3 28  1  0
  4 29  1  0
  5 30  1  0
  6 31  1  0
  8 32  1  0
 10 33  1  0
 12 34  1  0
 14 35  1  0
 14 36  1  0
 17 37  1  0
 18 38  1  0
 21 39  1  0
 22 40  1  0
 24 41  1  0
M  ISO  8  26   8  27   8  28  14  29  14  30  14  31  14  32  14  33  14
M  ISO  8  34  14  35   8  36   8  37  14  38  14  39  14  40  14  41  14
M  END
>  <minimizedAffinity>  (1) 
-5.61115265

>  <minimizedRMSD>  (1) 
0.636788726

$$$$
