
     RDKit          3D

 40 43  0  0  0  0  0  0  0  0999 V2000
   36.4870   23.1850   32.1700 C   0  0  0  0  0  0  0  0  0  0  0  0
   35.6810   24.0820   31.4870 C   0  0  0  0  0  0  0  0  0  0  0  0
   35.9530   25.4220   31.6780 C   0  0  0  0  0  0  0  0  0  0  0  0
   36.9870   25.7960   32.5140 C   0  0  0  0  0  0  0  0  0  0  0  0
   37.7290   24.8580   33.1450 C   0  0  0  0  0  0  0  0  0  0  0  0
   37.5040   23.5120   32.9950 C   0  0  0  0  0  0  0  0  0  0  0  0
   36.9740   21.1040   30.9220 C   0  0  0  0  0  0  0  0  0  0  0  0
   36.1770   21.7730   31.9420 C   0  0  0  0  0  0  0  0  0  0  0  0
   35.2360   21.0650   32.5890 C   0  0  0  0  0  0  0  0  0  0  0  0
   35.0160   19.7710   32.3180 N   0  0  0  0  0  0  0  0  0  0  0  0
   35.7730   19.1440   31.3520 C   0  0  0  0  0  0  0  0  0  0  0  0
   36.7610   19.8080   30.6450 N   0  0  0  0  0  0  0  0  0  0  0  0
   38.4470   22.6780   33.7900 C   0  0  0  0  0  0  0  0  0  0  0  0
   37.8310   22.0570   35.0120 C   0  0  0  0  0  0  0  0  0  0  0  0
   38.1290   22.7460   36.2290 N   0  0  0  0  0  0  0  0  0  0  0  0
   37.2860   23.5340   36.9110 N   0  0  0  0  0  0  0  0  0  0  0  0
   37.8740   24.0420   37.9890 C   0  0  0  0  0  0  0  0  0  0  0  0
   39.1350   23.5320   37.9520 C   0  0  0  0  0  0  0  0  0  0  0  0
   39.3030   22.6930   36.8200 C   0  0  0  0  0  0  0  0  0  0  0  0
   40.5760   22.0370   36.6300 C   0  0  0  0  0  0  0  0  0  0  0  0
   41.3150   21.3600   37.5270 C   0  0  0  0  0  0  0  0  0  0  0  0
   42.5000   20.8190   37.1350 C   0  0  0  0  0  0  0  0  0  0  0  0
   42.9160   20.9760   35.8320 C   0  0  0  0  0  0  0  0  0  0  0  0
   41.5490   21.9340   35.1550 S   0  0  0  0  0  0  0  0  0  0  0  0
   34.8678   23.7443   30.8278 H   0  0  0  0  0  0  0  0  0  0  0  0
   35.3499   26.1872   31.1675 H   0  0  0  0  0  0  0  0  0  0  0  0
   37.2080   26.8626   32.6673 H   0  0  0  0  0  0  0  0  0  0  0  0
   38.5455   25.1866   33.8048 H   0  0  0  0  0  0  0  0  0  0  0  0
   37.7510   21.6616   30.3785 H   0  0  0  0  0  0  0  0  0  0  0  0
   34.6300   21.5606   33.3617 H   0  0  0  0  0  0  0  0  0  0  0  0
   35.5862   18.0818   31.1357 H   0  0  0  0  0  0  0  0  0  0  0  0
   38.8241   21.8711   33.1444 H   0  0  0  0  0  0  0  0  0  0  0  0
   39.2462   23.3473   34.1411 H   0  0  0  0  0  0  0  0  0  0  0  0
   36.7390   22.0446   34.8803 H   0  0  0  0  0  0  0  0  0  0  0  0
   38.2586   21.0478   35.1054 H   0  0  0  0  0  0  0  0  0  0  0  0
   37.4406   24.7196   38.7394 H   0  0  0  0  0  0  0  0  0  0  0  0
   39.9166   23.7413   38.6971 H   0  0  0  0  0  0  0  0  0  0  0  0
   40.9658   21.2453   38.5638 H   0  0  0  0  0  0  0  0  0  0  0  0
   43.1200   20.2613   37.8523 H   0  0  0  0  0  0  0  0  0  0  0  0
   43.8313   20.6156   35.3398 H   0  0  0  0  0  0  0  0  0  0  0  0
  1  6  2  0
  2  3  2  0
  2  1  1  0
  3  4  1  0
  4  5  2  0
  6  5  1  0
  6 13  1  0
  7  8  2  0
  8  1  1  0
  8  9  1  0
 10  9  2  0
 11 10  1  0
 12  7  1  0
 12 11  2  0
 13 14  1  0
 14 15  1  0
 15 19  1  0
 15 16  1  0
 16 17  2  0
 18 17  1  0
 19 18  2  0
 20 19  1  0
 20 21  2  0
 22 21  1  0
 23 22  2  0
 24 23  1  0
 24 20  1  0
  2 25  1  0
  3 26  1  0
  4 27  1  0
  5 28  1  0
  7 29  1  0
  9 30  1  0
 11 31  1  0
 13 32  1  0
 13 33  1  0
 14 34  1  0
 14 35  1  0
 17 36  1  0
 18 37  1  0
 21 38  1  0
 22 39  1  0
 23 40  1  0
M  ISO  8  25  14  26  14  27  14  28  14  29  14  30  14  31  14  32   8
M  ISO  8  33   8  34   8  35   8  36  14  37  14  38  14  39  14  40  14
M  END
>  <minimizedAffinity>  (1) 
-5.53332472

>  <minimizedRMSD>  (1) 
0.858562291

$$$$
