
     RDKit          3D

 38 41  0  0  0  0  0  0  0  0999 V2000
   36.5290   22.7140   32.3030 C   0  0  0  0  0  0  0  0  0  0  0  0
   35.5900   23.3990   31.5260 C   0  0  0  0  0  0  0  0  0  0  0  0
   35.6770   24.7700   31.4950 C   0  0  0  0  0  0  0  0  0  0  0  0
   36.6640   25.3980   32.2160 C   0  0  0  0  0  0  0  0  0  0  0  0
   37.5450   24.6720   32.9500 C   0  0  0  0  0  0  0  0  0  0  0  0
   37.5080   23.2950   33.0210 C   0  0  0  0  0  0  0  0  0  0  0  0
   37.2790   20.5410   31.3940 C   0  0  0  0  0  0  0  0  0  0  0  0
   36.4020   21.2590   32.3050 C   0  0  0  0  0  0  0  0  0  0  0  0
   35.5490   20.5620   33.0750 C   0  0  0  0  0  0  0  0  0  0  0  0
   35.4960   19.2200   33.0160 N   0  0  0  0  0  0  0  0  0  0  0  0
   36.3330   18.5430   32.1470 C   0  0  0  0  0  0  0  0  0  0  0  0
   37.2270   19.2040   31.3330 N   0  0  0  0  0  0  0  0  0  0  0  0
   38.5690   22.7320   33.8940 C   0  0  0  0  0  0  0  0  0  0  0  0
   38.0220   22.0400   35.1180 C   0  0  0  0  0  0  0  0  0  0  0  0
   38.2340   22.7660   36.3240 N   0  0  0  0  0  0  0  0  0  0  0  0
   37.3360   23.5380   36.9290 N   0  0  0  0  0  0  0  0  0  0  0  0
   37.8580   24.0750   38.0420 C   0  0  0  0  0  0  0  0  0  0  0  0
   39.1540   23.5870   38.0990 C   0  0  0  0  0  0  0  0  0  0  0  0
   39.4020   22.7460   37.0000 C   0  0  0  0  0  0  0  0  0  0  0  0
   40.6300   22.0280   36.6760 C   0  0  0  0  0  0  0  0  0  0  0  0
   41.2830   21.3570   37.6680 N   0  0  0  0  0  0  0  0  0  0  0  0
   42.3480   20.7800   37.2010 O   0  0  0  0  0  0  0  0  0  0  0  0
   42.4310   21.0460   35.9170 C   0  0  0  0  0  0  0  0  0  0  0  0
   41.3730   21.8190   35.5730 N   0  0  0  0  0  0  0  0  0  0  0  0
   34.8129   22.8621   30.9622 H   0  0  0  0  0  0  0  0  0  0  0  0
   34.9640   25.3587   30.8992 H   0  0  0  0  0  0  0  0  0  0  0  0
   36.7404   26.4952   32.1981 H   0  0  0  0  0  0  0  0  0  0  0  0
   38.3240   25.2060   33.5139 H   0  0  0  0  0  0  0  0  0  0  0  0
   37.9837   21.0948   30.7563 H   0  0  0  0  0  0  0  0  0  0  0  0
   34.8824   21.0991   33.7657 H   0  0  0  0  0  0  0  0  0  0  0  0
   36.2834   17.4449   32.1046 H   0  0  0  0  0  0  0  0  0  0  0  0
   39.1522   22.0038   33.3113 H   0  0  0  0  0  0  0  0  0  0  0  0
   39.1886   23.5720   34.2411 H   0  0  0  0  0  0  0  0  0  0  0  0
   36.9396   21.8980   34.9830 H   0  0  0  0  0  0  0  0  0  0  0  0
   38.5593   21.0853   35.2168 H   0  0  0  0  0  0  0  0  0  0  0  0
   37.3653   24.7539   38.7536 H   0  0  0  0  0  0  0  0  0  0  0  0
   39.8823   23.8232   38.8888 H   0  0  0  0  0  0  0  0  0  0  0  0
   43.2239   20.7002   35.2376 H   0  0  0  0  0  0  0  0  0  0  0  0
  1  8  1  0
  1  6  1  0
  2  1  2  0
  3  2  1  0
  3  4  2  0
  4  5  1  0
  5  6  2  0
  6 13  1  0
  7  8  2  0
  8  9  1  0
 10  9  2  0
 11 10  1  0
 12  7  1  0
 12 11  2  0
 13 14  1  0
 14 15  1  0
 15 16  1  0
 15 19  1  0
 16 17  2  0
 17 18  1  0
 19 18  2  0
 20 19  1  0
 20 21  2  0
 22 21  1  0
 23 22  1  0
 24 23  2  0
 24 20  1  0
  2 25  1  0
  3 26  1  0
  4 27  1  0
  5 28  1  0
  7 29  1  0
  9 30  1  0
 11 31  1  0
 13 32  1  0
 13 33  1  0
 14 34  1  0
 14 35  1  0
 17 36  1  0
 18 37  1  0
 23 38  1  0
M  ISO  8  25  14  26  14  27  14  28  14  29  14  30  14  31  14  32   8
M  ISO  6  33   8  34   8  35   8  36  14  37  14  38  14
M  END
>  <minimizedAffinity>  (1) 
-5.39262247

>  <minimizedRMSD>  (1) 
0.967822433

$$$$
