
     RDKit          3D

 36 38  0  0  0  0  0  0  0  0999 V2000
   36.6710   23.3580   32.2840 C   0  0  0  0  0  0  0  0  0  0  0  0
   35.9200   24.3280   31.6080 C   0  0  0  0  0  0  0  0  0  0  0  0
   36.2270   25.6410   31.8670 C   0  0  0  0  0  0  0  0  0  0  0  0
   37.2270   25.9480   32.7510 C   0  0  0  0  0  0  0  0  0  0  0  0
   37.9290   24.9440   33.3840 C   0  0  0  0  0  0  0  0  0  0  0  0
   37.6600   23.6110   33.1590 C   0  0  0  0  0  0  0  0  0  0  0  0
   37.1060   21.3180   30.9580 C   0  0  0  0  0  0  0  0  0  0  0  0
   36.3180   21.9830   31.9840 C   0  0  0  0  0  0  0  0  0  0  0  0
   35.3160   21.2910   32.5900 C   0  0  0  0  0  0  0  0  0  0  0  0
   35.0410   20.0240   32.2670 N   0  0  0  0  0  0  0  0  0  0  0  0
   35.7950   19.3960   31.2890 C   0  0  0  0  0  0  0  0  0  0  0  0
   36.8280   20.0410   30.6310 N   0  0  0  0  0  0  0  0  0  0  0  0
   38.5480   22.7250   33.9510 C   0  0  0  0  0  0  0  0  0  0  0  0
   37.8960   22.1420   35.1720 C   0  0  0  0  0  0  0  0  0  0  0  0
   38.1210   22.8770   36.3690 N   0  0  0  0  0  0  0  0  0  0  0  0
   37.3320   23.7630   36.9350 N   0  0  0  0  0  0  0  0  0  0  0  0
   37.9000   24.2470   38.0550 C   0  0  0  0  0  0  0  0  0  0  0  0
   39.1020   23.6070   38.1600 C   0  0  0  0  0  0  0  0  0  0  0  0
   39.2330   22.7420   37.0880 C   0  0  0  0  0  0  0  0  0  0  0  0
   40.4260   21.9390   36.9980 C   0  0  0  0  0  0  0  0  0  0  0  0
   41.1970   21.8230   35.9820 O   0  0  0  0  0  0  0  0  0  0  0  0
   41.0710   21.1060   37.8930 O   0  0  0  0  0  0  0  0  0  0  0  0
   35.1222   24.0511   30.9031 H   0  0  0  0  0  0  0  0  0  0  0  0
   35.6701   26.4458   31.3648 H   0  0  0  0  0  0  0  0  0  0  0  0
   37.4714   27.0005   32.9570 H   0  0  0  0  0  0  0  0  0  0  0  0
   38.7279   25.2151   34.0899 H   0  0  0  0  0  0  0  0  0  0  0  0
   37.9230   21.8539   30.4528 H   0  0  0  0  0  0  0  0  0  0  0  0
   34.7160   21.7877   33.3667 H   0  0  0  0  0  0  0  0  0  0  0  0
   35.5657   18.3525   31.0273 H   0  0  0  0  0  0  0  0  0  0  0  0
   38.8762   21.8972   33.3052 H   0  0  0  0  0  0  0  0  0  0  0  0
   39.3858   23.3451   34.3024 H   0  0  0  0  0  0  0  0  0  0  0  0
   36.8113   22.0983   34.9945 H   0  0  0  0  0  0  0  0  0  0  0  0
   38.3474   21.1505   35.3243 H   0  0  0  0  0  0  0  0  0  0  0  0
   37.4839   24.9994   38.7412 H   0  0  0  0  0  0  0  0  0  0  0  0
   39.8410   23.7543   38.9613 H   0  0  0  0  0  0  0  0  0  0  0  0
   41.8995   20.6360   37.6231 H   0  0  0  0  0  0  0  0  0  0  0  0
  1  6  2  0
  2  3  2  0
  2  1  1  0
  3  4  1  0
  4  5  2  0
  6  5  1  0
  6 13  1  0
  7  8  2  0
  8  1  1  0
  8  9  1  0
 10  9  2  0
 11 10  1  0
 12  7  1  0
 12 11  2  0
 13 14  1  0
 14 15  1  0
 15 16  1  0
 15 19  1  0
 16 17  2  0
 17 18  1  0
 19 18  2  0
 20 19  1  0
 20 22  1  0
 21 20  2  0
  2 23  1  0
  3 24  1  0
  4 25  1  0
  5 26  1  0
  7 27  1  0
  9 28  1  0
 11 29  1  0
 13 30  1  0
 13 31  1  0
 14 32  1  0
 14 33  1  0
 17 34  1  0
 18 35  1  0
 22 36  1  0
M  ISO  8  23  14  24  14  25  14  26  14  27  14  28  14  29  14  30   8
M  ISO  6  31   8  32   8  33   8  34  14  35  14  36   3
M  END
>  <minimizedAffinity>  (1) 
-5.36124611

>  <minimizedRMSD>  (1) 
0.821948707

$$$$
