
     RDKit          3D

 39 42  0  0  0  0  0  0  0  0999 V2000
   36.4640   23.0310   32.1290 C   0  0  0  0  0  0  0  0  0  0  0  0
   35.5920   23.8730   31.4360 C   0  0  0  0  0  0  0  0  0  0  0  0
   35.7670   25.2270   31.5860 C   0  0  0  0  0  0  0  0  0  0  0  0
   36.7860   25.6810   32.4050 C   0  0  0  0  0  0  0  0  0  0  0  0
   37.5980   24.8040   33.0470 C   0  0  0  0  0  0  0  0  0  0  0  0
   37.4640   23.4320   32.9320 C   0  0  0  0  0  0  0  0  0  0  0  0
   37.0410   20.9600   30.9060 C   0  0  0  0  0  0  0  0  0  0  0  0
   36.2330   21.6000   31.9320 C   0  0  0  0  0  0  0  0  0  0  0  0
   35.3450   20.8630   32.6200 C   0  0  0  0  0  0  0  0  0  0  0  0
   35.1820   19.5540   32.3880 N   0  0  0  0  0  0  0  0  0  0  0  0
   35.9510   18.9480   31.4110 C   0  0  0  0  0  0  0  0  0  0  0  0
   36.8690   19.6430   30.6800 N   0  0  0  0  0  0  0  0  0  0  0  0
   38.4650   22.6850   33.7340 C   0  0  0  0  0  0  0  0  0  0  0  0
   37.8750   22.0400   34.9580 C   0  0  0  0  0  0  0  0  0  0  0  0
   38.1210   22.7460   36.1680 N   0  0  0  0  0  0  0  0  0  0  0  0
   37.2580   23.5070   36.8200 N   0  0  0  0  0  0  0  0  0  0  0  0
   37.8270   24.0220   37.9280 C   0  0  0  0  0  0  0  0  0  0  0  0
   39.1120   23.5270   37.9260 C   0  0  0  0  0  0  0  0  0  0  0  0
   39.2910   22.7190   36.8060 C   0  0  0  0  0  0  0  0  0  0  0  0
   40.5220   22.0640   36.5280 N   0  0  0  0  0  0  0  0  0  0  0  0
   41.2920   21.4070   37.4450 C   0  0  0  0  0  0  0  0  0  0  0  0
   42.3630   20.9310   36.7840 N   0  0  0  0  0  0  0  0  0  0  0  0
   42.2820   21.2720   35.4880 C   0  0  0  0  0  0  0  0  0  0  0  0
   41.1570   21.9560   35.3660 N   0  0  0  0  0  0  0  0  0  0  0  0
   34.7956   23.4676   30.7946 H   0  0  0  0  0  0  0  0  0  0  0  0
   35.1090   25.9378   31.0645 H   0  0  0  0  0  0  0  0  0  0  0  0
   36.9389   26.7623   32.5366 H   0  0  0  0  0  0  0  0  0  0  0  0
   38.3988   25.2018   33.6877 H   0  0  0  0  0  0  0  0  0  0  0  0
   37.7763   21.5384   30.3273 H   0  0  0  0  0  0  0  0  0  0  0  0
   34.7346   21.3484   33.3958 H   0  0  0  0  0  0  0  0  0  0  0  0
   35.8182   17.8733   31.2178 H   0  0  0  0  0  0  0  0  0  0  0  0
   38.9053   21.8998   33.1018 H   0  0  0  0  0  0  0  0  0  0  0  0
   39.2196   23.4090   34.0751 H   0  0  0  0  0  0  0  0  0  0  0  0
   36.7865   21.9659   34.8176 H   0  0  0  0  0  0  0  0  0  0  0  0
   38.3605   21.0584   35.0618 H   0  0  0  0  0  0  0  0  0  0  0  0
   37.3664   24.6904   38.6703 H   0  0  0  0  0  0  0  0  0  0  0  0
   39.8764   23.7367   38.6887 H   0  0  0  0  0  0  0  0  0  0  0  0
   41.0778   21.2896   38.5175 H   0  0  0  0  0  0  0  0  0  0  0  0
   43.0025   21.0320   34.6922 H   0  0  0  0  0  0  0  0  0  0  0  0
  1  6  2  0
  2  3  2  0
  2  1  1  0
  3  4  1  0
  4  5  2  0
  6  5  1  0
  6 13  1  0
  7  8  2  0
  8  1  1  0
  8  9  1  0
 10  9  2  0
 11 10  1  0
 12  7  1  0
 12 11  2  0
 13 14  1  0
 14 15  1  0
 15 19  1  0
 15 16  1  0
 16 17  2  0
 18 17  1  0
 19 18  2  0
 20 19  1  0
 20 21  1  0
 22 21  2  0
 23 22  1  0
 24 23  2  0
 24 20  1  0
  2 25  1  0
  3 26  1  0
  4 27  1  0
  5 28  1  0
  7 29  1  0
  9 30  1  0
 11 31  1  0
 13 32  1  0
 13 33  1  0
 14 34  1  0
 14 35  1  0
 17 36  1  0
 18 37  1  0
 21 38  1  0
 23 39  1  0
M  ISO  8  25  14  26  14  27  14  28  14  29  14  30  14  31  14  32   8
M  ISO  7  33   8  34   8  35   8  36  14  37  14  38  14  39  14
M  END
>  <minimizedAffinity>  (1) 
-5.30262089

>  <minimizedRMSD>  (1) 
0.675253928

$$$$
