
     RDKit          3D

 40 43  0  0  0  0  0  0  0  0999 V2000
   38.5450   22.4950   33.8840 C   0  0  0  0  0  0  0  0  0  0  0  0
   36.5010   22.4980   32.2970 C   0  0  0  0  0  0  0  0  0  0  0  0
   35.5660   23.1800   31.5210 C   0  0  0  0  0  0  0  0  0  0  0  0
   35.6670   24.5580   31.4910 C   0  0  0  0  0  0  0  0  0  0  0  0
   36.6610   25.1780   32.2110 C   0  0  0  0  0  0  0  0  0  0  0  0
   37.5370   24.4430   32.9450 C   0  0  0  0  0  0  0  0  0  0  0  0
   37.4870   23.0670   33.0150 C   0  0  0  0  0  0  0  0  0  0  0  0
   37.2060   20.3170   31.3620 C   0  0  0  0  0  0  0  0  0  0  0  0
   36.3650   21.0400   32.3020 C   0  0  0  0  0  0  0  0  0  0  0  0
   35.5320   20.3510   33.0980 C   0  0  0  0  0  0  0  0  0  0  0  0
   35.4620   19.0140   33.0440 N   0  0  0  0  0  0  0  0  0  0  0  0
   36.2650   18.3280   32.1480 C   0  0  0  0  0  0  0  0  0  0  0  0
   37.1410   18.9760   31.3020 N   0  0  0  0  0  0  0  0  0  0  0  0
   38.0070   21.8790   35.1530 C   0  0  0  0  0  0  0  0  0  0  0  0
   38.1960   22.7050   36.3020 N   0  0  0  0  0  0  0  0  0  0  0  0
   37.2520   23.4420   36.8870 N   0  0  0  0  0  0  0  0  0  0  0  0
   37.7640   24.0930   37.9340 C   0  0  0  0  0  0  0  0  0  0  0  0
   39.1040   23.7220   37.9820 C   0  0  0  0  0  0  0  0  0  0  0  0
   39.3800   22.8310   36.9330 C   0  0  0  0  0  0  0  0  0  0  0  0
   40.6230   22.2120   36.6230 N   0  0  0  0  0  0  0  0  0  0  0  0
   41.3590   22.3290   35.5110 N   0  0  0  0  0  0  0  0  0  0  0  0
   42.4730   21.5790   35.6110 C   0  0  0  0  0  0  0  0  0  0  0  0
   42.4380   20.9580   36.8460 C   0  0  0  0  0  0  0  0  0  0  0  0
   41.2660   21.3650   37.4780 C   0  0  0  0  0  0  0  0  0  0  0  0
   39.2458   23.2982   34.1556 H   0  0  0  0  0  0  0  0  0  0  0  0
   39.0356   21.6919   33.3145 H   0  0  0  0  0  0  0  0  0  0  0  0
   34.7848   22.6471   30.9591 H   0  0  0  0  0  0  0  0  0  0  0  0
   34.9586   25.1535   30.8965 H   0  0  0  0  0  0  0  0  0  0  0  0
   36.7474   26.2744   32.1927 H   0  0  0  0  0  0  0  0  0  0  0  0
   38.3213   24.9695   33.5087 H   0  0  0  0  0  0  0  0  0  0  0  0
   37.8935   20.8660   30.7018 H   0  0  0  0  0  0  0  0  0  0  0  0
   34.8936   20.8954   33.8094 H   0  0  0  0  0  0  0  0  0  0  0  0
   36.2022   17.2305   32.1097 H   0  0  0  0  0  0  0  0  0  0  0  0
   36.9294   21.6991   35.0250 H   0  0  0  0  0  0  0  0  0  0  0  0
   38.5635   20.9460   35.3255 H   0  0  0  0  0  0  0  0  0  0  0  0
   37.2376   24.7780   38.6149 H   0  0  0  0  0  0  0  0  0  0  0  0
   39.8340   24.0725   38.7265 H   0  0  0  0  0  0  0  0  0  0  0  0
   43.2630   21.4791   34.8522 H   0  0  0  0  0  0  0  0  0  0  0  0
   43.1945   20.2710   37.2530 H   0  0  0  0  0  0  0  0  0  0  0  0
   40.9231   21.0610   38.4780 H   0  0  0  0  0  0  0  0  0  0  0  0
  1 14  1  0
  2  9  1  0
  2  7  1  0
  3  2  2  0
  4  3  1  0
  4  5  2  0
  5  6  1  0
  6  7  2  0
  7  1  1  0
  8  9  2  0
  9 10  1  0
 11 10  2  0
 12 11  1  0
 13  8  1  0
 13 12  2  0
 14 15  1  0
 15 16  1  0
 15 19  1  0
 16 17  2  0
 17 18  1  0
 19 18  2  0
 20 19  1  0
 20 24  1  0
 21 22  2  0
 21 20  1  0
 22 23  1  0
 23 24  2  0
  1 25  1  0
  1 26  1  0
  3 27  1  0
  4 28  1  0
  5 29  1  0
  6 30  1  0
  8 31  1  0
 10 32  1  0
 12 33  1  0
 14 34  1  0
 14 35  1  0
 17 36  1  0
 18 37  1  0
 22 38  1  0
 23 39  1  0
 24 40  1  0
M  ISO  8  25   8  26   8  27  14  28  14  29  14  30  14  31  14  32  14
M  ISO  8  33  14  34   8  35   8  36  14  37  14  38  14  39  14  40  14
M  END
>  <minimizedAffinity>  (1) 
-5.25225639

>  <minimizedRMSD>  (1) 
0.97737515

$$$$
