
     RDKit          3D

 40 43  0  0  0  0  0  0  0  0999 V2000
   36.3990   23.0200   32.0650 C   0  0  0  0  0  0  0  0  0  0  0  0
   35.5220   23.8960   31.4080 C   0  0  0  0  0  0  0  0  0  0  0  0
   35.7460   25.2400   31.5630 C   0  0  0  0  0  0  0  0  0  0  0  0
   36.7930   25.6660   32.3380 C   0  0  0  0  0  0  0  0  0  0  0  0
   37.6050   24.7620   32.9480 C   0  0  0  0  0  0  0  0  0  0  0  0
   37.4330   23.3970   32.8300 C   0  0  0  0  0  0  0  0  0  0  0  0
   36.9250   20.9280   30.8550 C   0  0  0  0  0  0  0  0  0  0  0  0
   36.1240   21.5980   31.8700 C   0  0  0  0  0  0  0  0  0  0  0  0
   35.2020   20.8920   32.5540 C   0  0  0  0  0  0  0  0  0  0  0  0
   35.0180   19.5840   32.3060 N   0  0  0  0  0  0  0  0  0  0  0  0
   35.7650   18.9520   31.3560 C   0  0  0  0  0  0  0  0  0  0  0  0
   36.7160   19.6160   30.6300 N   0  0  0  0  0  0  0  0  0  0  0  0
   38.4410   22.6150   33.5880 C   0  0  0  0  0  0  0  0  0  0  0  0
   37.8860   21.9860   34.8450 C   0  0  0  0  0  0  0  0  0  0  0  0
   38.0970   22.7670   36.0140 N   0  0  0  0  0  0  0  0  0  0  0  0
   37.1970   23.5450   36.5960 N   0  0  0  0  0  0  0  0  0  0  0  0
   37.7230   24.1390   37.6770 C   0  0  0  0  0  0  0  0  0  0  0  0
   39.0330   23.6790   37.7430 C   0  0  0  0  0  0  0  0  0  0  0  0
   39.2730   22.8020   36.6790 C   0  0  0  0  0  0  0  0  0  0  0  0
   40.5050   22.1420   36.4330 N   0  0  0  0  0  0  0  0  0  0  0  0
   41.1660   21.5250   37.4520 C   0  0  0  0  0  0  0  0  0  0  0  0
   42.3320   20.9620   36.9470 C   0  0  0  0  0  0  0  0  0  0  0  0
   42.3610   21.2430   35.6460 N   0  0  0  0  0  0  0  0  0  0  0  0
   41.2560   21.9540   35.3450 C   0  0  0  0  0  0  0  0  0  0  0  0
   34.6898   23.5206   30.7944 H   0  0  0  0  0  0  0  0  0  0  0  0
   35.0897   25.9713   31.0686 H   0  0  0  0  0  0  0  0  0  0  0  0
   36.9770   26.7428   32.4669 H   0  0  0  0  0  0  0  0  0  0  0  0
   38.4368   25.1350   33.5635 H   0  0  0  0  0  0  0  0  0  0  0  0
   37.6849   21.4815   30.2838 H   0  0  0  0  0  0  0  0  0  0  0  0
   34.5941   21.3913   33.3229 H   0  0  0  0  0  0  0  0  0  0  0  0
   35.5987   17.8809   31.1686 H   0  0  0  0  0  0  0  0  0  0  0  0
   38.8244   21.8154   32.9372 H   0  0  0  0  0  0  0  0  0  0  0  0
   39.2328   23.3141   33.8951 H   0  0  0  0  0  0  0  0  0  0  0  0
   36.8033   21.8429   34.7133 H   0  0  0  0  0  0  0  0  0  0  0  0
   38.4192   21.0352   34.9921 H   0  0  0  0  0  0  0  0  0  0  0  0
   37.2251   24.8394   38.3636 H   0  0  0  0  0  0  0  0  0  0  0  0
   39.7672   23.9606   38.5122 H   0  0  0  0  0  0  0  0  0  0  0  0
   40.8326   21.4800   38.4993 H   0  0  0  0  0  0  0  0  0  0  0  0
   43.0852   20.3941   37.5128 H   0  0  0  0  0  0  0  0  0  0  0  0
   41.0071   22.3280   34.3409 H   0  0  0  0  0  0  0  0  0  0  0  0
  1  6  2  0
  2  3  2  0
  2  1  1  0
  3  4  1  0
  4  5  2  0
  6  5  1  0
  6 13  1  0
  7  8  2  0
  8  1  1  0
  8  9  1  0
 10  9  2  0
 11 10  1  0
 12  7  1  0
 12 11  2  0
 13 14  1  0
 14 15  1  0
 15 16  1  0
 15 19  1  0
 16 17  2  0
 17 18  1  0
 19 18  2  0
 20 19  1  0
 20 21  1  0
 22 21  2  0
 23 22  1  0
 24 23  2  0
 24 20  1  0
  2 25  1  0
  3 26  1  0
  4 27  1  0
  5 28  1  0
  7 29  1  0
  9 30  1  0
 11 31  1  0
 13 32  1  0
 13 33  1  0
 14 34  1  0
 14 35  1  0
 17 36  1  0
 18 37  1  0
 21 38  1  0
 22 39  1  0
 24 40  1  0
M  ISO  8  25  14  26  14  27  14  28  14  29  14  30  14  31  14  32   8
M  ISO  8  33   8  34   8  35   8  36  14  37  14  38  14  39  14  40  14
M  END
>  <minimizedAffinity>  (1) 
-5.19554663

>  <minimizedRMSD>  (1) 
0.703009427

$$$$
