
     RDKit          3D

 36 38  0  0  0  0  0  0  0  0999 V2000
   36.5310   23.1810   32.2000 C   0  0  0  0  0  0  0  0  0  0  0  0
   35.7570   24.1050   31.4920 C   0  0  0  0  0  0  0  0  0  0  0  0
   36.0340   25.4370   31.6900 C   0  0  0  0  0  0  0  0  0  0  0  0
   37.0360   25.7950   32.5570 C   0  0  0  0  0  0  0  0  0  0  0  0
   37.7490   24.8410   33.2120 C   0  0  0  0  0  0  0  0  0  0  0  0
   37.5190   23.4920   33.0550 C   0  0  0  0  0  0  0  0  0  0  0  0
   36.9910   21.1000   30.9400 C   0  0  0  0  0  0  0  0  0  0  0  0
   36.2030   21.7740   31.9570 C   0  0  0  0  0  0  0  0  0  0  0  0
   35.2440   21.0910   32.6050 C   0  0  0  0  0  0  0  0  0  0  0  0
   35.0000   19.8010   32.3260 N   0  0  0  0  0  0  0  0  0  0  0  0
   35.7430   19.1640   31.3660 C   0  0  0  0  0  0  0  0  0  0  0  0
   36.7310   19.8050   30.6750 N   0  0  0  0  0  0  0  0  0  0  0  0
   38.4230   22.6500   33.8770 C   0  0  0  0  0  0  0  0  0  0  0  0
   37.7600   22.0730   35.0980 C   0  0  0  0  0  0  0  0  0  0  0  0
   38.0720   22.7660   36.3040 N   0  0  0  0  0  0  0  0  0  0  0  0
   37.2780   23.5960   36.9650 N   0  0  0  0  0  0  0  0  0  0  0  0
   37.8850   24.0720   38.0560 C   0  0  0  0  0  0  0  0  0  0  0  0
   39.1420   23.4790   38.0460 C   0  0  0  0  0  0  0  0  0  0  0  0
   39.2630   22.6470   36.9330 C   0  0  0  0  0  0  0  0  0  0  0  0
   40.4750   21.8520   36.6030 C   0  0  0  0  0  0  0  0  0  0  0  0
   34.9607   23.7804   30.8061 H   0  0  0  0  0  0  0  0  0  0  0  0
   35.4579   26.2087   31.1585 H   0  0  0  0  0  0  0  0  0  0  0  0
   37.2630   26.8585   32.7225 H   0  0  0  0  0  0  0  0  0  0  0  0
   38.5463   25.1609   33.8990 H   0  0  0  0  0  0  0  0  0  0  0  0
   37.7837   21.6359   30.3974 H   0  0  0  0  0  0  0  0  0  0  0  0
   34.6482   21.5984   33.3781 H   0  0  0  0  0  0  0  0  0  0  0  0
   35.5373   18.1060   31.1460 H   0  0  0  0  0  0  0  0  0  0  0  0
   38.7881   21.8202   33.2540 H   0  0  0  0  0  0  0  0  0  0  0  0
   39.2392   23.2985   34.2279 H   0  0  0  0  0  0  0  0  0  0  0  0
   36.6705   22.1076   34.9501 H   0  0  0  0  0  0  0  0  0  0  0  0
   38.1371   21.0460   35.2120 H   0  0  0  0  0  0  0  0  0  0  0  0
   37.4799   24.7766   38.7973 H   0  0  0  0  0  0  0  0  0  0  0  0
   39.9241   23.6414   38.8023 H   0  0  0  0  0  0  0  0  0  0  0  0
   40.9664   21.5296   37.5328 H   0  0  0  0  0  0  0  0  0  0  0  0
   40.1851   20.9680   36.0160 H   0  0  0  0  0  0  0  0  0  0  0  0
   41.1703   22.4700   36.0160 H   0  0  0  0  0  0  0  0  0  0  0  0
  1  6  2  0
  2  3  2  0
  2  1  1  0
  3  4  1  0
  4  5  2  0
  6  5  1  0
  6 13  1  0
  7  8  2  0
  8  1  1  0
  8  9  1  0
 10  9  2  0
 11 10  1  0
 12  7  1  0
 12 11  2  0
 13 14  1  0
 14 15  1  0
 15 19  1  0
 15 16  1  0
 16 17  2  0
 18 17  1  0
 19 18  2  0
 20 19  1  0
  2 21  1  0
  3 22  1  0
  4 23  1  0
  5 24  1  0
  7 25  1  0
  9 26  1  0
 11 27  1  0
 13 28  1  0
 13 29  1  0
 14 30  1  0
 14 31  1  0
 17 32  1  0
 18 33  1  0
 20 34  1  0
 20 35  1  0
 20 36  1  0
M  ISO  8  21  14  22  14  23  14  24  14  25  14  26  14  27  14  28   8
M  ISO  8  29   8  30   8  31   8  32  14  33  14  34   8  35   8  36   8
M  END
>  <minimizedAffinity>  (1) 
-4.93241835

>  <minimizedRMSD>  (1) 
0.493551493

$$$$
