
     RDKit          3D

 34 36  0  0  0  0  0  0  0  0999 V2000
   36.3520   23.1010   32.0090 C   0  0  0  0  0  0  0  0  0  0  0  0
   35.4660   23.9310   31.3090 C   0  0  0  0  0  0  0  0  0  0  0  0
   35.6360   25.2870   31.4430 C   0  0  0  0  0  0  0  0  0  0  0  0
   36.6470   25.7640   32.2390 C   0  0  0  0  0  0  0  0  0  0  0  0
   37.4700   24.9010   32.8900 C   0  0  0  0  0  0  0  0  0  0  0  0
   37.3520   23.5290   32.7970 C   0  0  0  0  0  0  0  0  0  0  0  0
   37.0110   20.9970   30.8840 C   0  0  0  0  0  0  0  0  0  0  0  0
   36.1330   21.6660   31.8360 C   0  0  0  0  0  0  0  0  0  0  0  0
   35.1960   20.9470   32.4850 C   0  0  0  0  0  0  0  0  0  0  0  0
   35.0670   19.6270   32.2610 N   0  0  0  0  0  0  0  0  0  0  0  0
   35.9030   18.9980   31.3550 C   0  0  0  0  0  0  0  0  0  0  0  0
   36.8710   19.6800   30.6690 N   0  0  0  0  0  0  0  0  0  0  0  0
   38.3620   22.7960   33.5950 C   0  0  0  0  0  0  0  0  0  0  0  0
   37.7710   22.0440   34.7650 C   0  0  0  0  0  0  0  0  0  0  0  0
   38.0550   22.6410   36.0270 N   0  0  0  0  0  0  0  0  0  0  0  0
   37.2010   23.2610   36.8090 N   0  0  0  0  0  0  0  0  0  0  0  0
   37.8080   23.7020   37.9250 C   0  0  0  0  0  0  0  0  0  0  0  0
   39.1200   23.3120   37.7920 C   0  0  0  0  0  0  0  0  0  0  0  0
   39.2860   22.6350   36.5840 C   0  0  0  0  0  0  0  0  0  0  0  0
   40.7570   21.9220   35.9110 S   0  0  0  0  0  0  0  0  0  0  0  0
   34.6673   23.5135   30.6783 H   0  0  0  0  0  0  0  0  0  0  0  0
   34.9678   25.9847   30.9170 H   0  0  0  0  0  0  0  0  0  0  0  0
   36.7915   26.8488   32.3504 H   0  0  0  0  0  0  0  0  0  0  0  0
   38.2691   25.3159   33.5219 H   0  0  0  0  0  0  0  0  0  0  0  0
   37.7824   21.5675   30.3460 H   0  0  0  0  0  0  0  0  0  0  0  0
   34.5299   21.4447   33.2052 H   0  0  0  0  0  0  0  0  0  0  0  0
   35.7859   17.9181   31.1812 H   0  0  0  0  0  0  0  0  0  0  0  0
   38.8698   22.0750   32.9375 H   0  0  0  0  0  0  0  0  0  0  0  0
   39.0562   23.5436   34.0063 H   0  0  0  0  0  0  0  0  0  0  0  0
   36.6792   22.0034   34.6370 H   0  0  0  0  0  0  0  0  0  0  0  0
   38.2282   21.0436   34.7705 H   0  0  0  0  0  0  0  0  0  0  0  0
   37.3543   24.2540   38.7613 H   0  0  0  0  0  0  0  0  0  0  0  0
   39.9165   23.5045   38.5259 H   0  0  0  0  0  0  0  0  0  0  0  0
   41.5795   21.5233   36.9315 H   0  0  0  0  0  0  0  0  0  0  0  0
  1  6  2  0
  2  3  2  0
  2  1  1  0
  3  4  1  0
  4  5  2  0
  6  5  1  0
  6 13  1  0
  7  8  2  0
  8  1  1  0
  8  9  1  0
 10  9  2  0
 11 10  1  0
 12  7  1  0
 12 11  2  0
 13 14  1  0
 14 15  1  0
 15 19  1  0
 15 16  1  0
 16 17  2  0
 18 17  1  0
 19 18  2  0
 20 19  1  0
  2 21  1  0
  3 22  1  0
  4 23  1  0
  5 24  1  0
  7 25  1  0
  9 26  1  0
 11 27  1  0
 13 28  1  0
 13 29  1  0
 14 30  1  0
 14 31  1  0
 17 32  1  0
 18 33  1  0
 20 34  1  0
M  ISO  8  21  14  22  14  23  14  24  14  25  14  26  14  27  14  28   8
M  ISO  6  29   8  30   8  31   8  32  14  33  14  34  11
M  END
>  <minimizedAffinity>  (1) 
-4.86591482

>  <minimizedRMSD>  (1) 
0.310084999

$$$$
