
     RDKit          3D

 29 30  0  0  0  0  0  0  0  0999 V2000
   40.0490   22.6370   37.4260 C   0  0  0  0  0  0  0  0  0  0  0  0
   39.1810   23.1670   38.4190 C   0  0  0  0  0  0  0  0  0  0  0  0
   37.8520   23.4310   38.0540 C   0  0  0  0  0  0  0  0  0  0  0  0
   37.4570   23.1710   36.7830 N   0  0  0  0  0  0  0  0  0  0  0  0
   38.2990   22.6700   35.8630 C   0  0  0  0  0  0  0  0  0  0  0  0
   39.5790   22.4070   36.1790 N   0  0  0  0  0  0  0  0  0  0  0  0
   37.9320   22.3820   34.5190 N   0  0  0  0  0  0  0  0  0  0  0  0
   38.5650   22.8550   33.4230 C   0  0  0  0  0  0  0  0  0  0  0  0
   38.0700   22.4690   32.1930 C   0  0  0  0  0  0  0  0  0  0  0  0
   36.9890   21.6470   32.1000 C   0  0  0  0  0  0  0  0  0  0  0  0
   36.5650   21.3190   30.9670 O   0  0  0  0  0  0  0  0  0  0  0  0
   36.3420   21.1650   33.1590 N   0  0  0  0  0  0  0  0  0  0  0  0
   36.8480   21.5570   34.3650 C   0  0  0  0  0  0  0  0  0  0  0  0
   36.2410   21.1040   35.3990 O   0  0  0  0  0  0  0  0  0  0  0  0
   38.7350   22.9650   30.9700 C   0  0  0  0  0  0  0  0  0  0  0  0
   35.1970   20.2950   33.1080 C   0  0  0  0  0  0  0  0  0  0  0  0
   35.5290   18.8580   32.8980 C   0  0  0  0  0  0  0  0  0  0  0  0
   41.0982   22.4149   37.6707 H   0  0  0  0  0  0  0  0  0  0  0  0
   39.5393   23.3638   39.4402 H   0  0  0  0  0  0  0  0  0  0  0  0
   37.1422   23.8421   38.7869 H   0  0  0  0  0  0  0  0  0  0  0  0
   39.4377   23.5194   33.5070 H   0  0  0  0  0  0  0  0  0  0  0  0
   39.5880   23.6012   31.2488 H   0  0  0  0  0  0  0  0  0  0  0  0
   39.0930   22.1116   30.3755 H   0  0  0  0  0  0  0  0  0  0  0  0
   38.0190   23.5514   30.3755 H   0  0  0  0  0  0  0  0  0  0  0  0
   34.6513   20.3873   34.0586 H   0  0  0  0  0  0  0  0  0  0  0  0
   34.5993   20.6107   32.2402 H   0  0  0  0  0  0  0  0  0  0  0  0
   35.6436   18.3619   33.8730 H   0  0  0  0  0  0  0  0  0  0  0  0
   34.7192   18.3734   32.3329 H   0  0  0  0  0  0  0  0  0  0  0  0
   36.4694   18.7777   32.3329 H   0  0  0  0  0  0  0  0  0  0  0  0
  1  2  2  0
  3  2  1  0
  4  3  2  0
  5  6  2  0
  5  4  1  0
  6  1  1  0
  7  5  1  0
  8  7  1  0
  9  8  2  0
 10  9  1  0
 10 12  1  0
 11 10  2  0
 12 13  1  0
 13  7  1  0
 13 14  2  0
 15  9  1  0
 16 12  1  0
 17 16  1  0
  1 18  1  0
  2 19  1  0
  3 20  1  0
  8 21  1  0
 15 22  1  0
 15 23  1  0
 15 24  1  0
 16 25  1  0
 16 26  1  0
 17 27  1  0
 17 28  1  0
 17 29  1  0
M  ISO  8  18  14  19  14  20  14  21  14  22   8  23   8  24   8  25   8
M  ISO  4  26   8  27   8  28   8  29   8
M  END
>  <minimizedAffinity>  (1) 
-4.70286036

>  <minimizedRMSD>  (1) 
1.47863817

$$$$
