
     RDKit          3D

 38 41  0  0  0  0  0  0  0  0999 V2000
   40.5310   26.5860   34.7590 C   0  0  0  0  0  0  0  0  0  0  0  0
   39.2220   27.0370   34.2130 C   0  0  0  0  0  0  0  0  0  0  0  0
   38.1570   27.2380   35.0640 C   0  0  0  0  0  0  0  0  0  0  0  0
   36.8810   27.6610   34.6650 C   0  0  0  0  0  0  0  0  0  0  0  0
   36.7180   27.8810   33.3260 N   0  0  0  0  0  0  0  0  0  0  0  0
   37.7750   27.6830   32.4780 C   0  0  0  0  0  0  0  0  0  0  0  0
   38.9970   27.2680   32.9290 N   0  0  0  0  0  0  0  0  0  0  0  0
   37.6320   27.9090   31.0500 C   0  0  0  0  0  0  0  0  0  0  0  0
   38.7540   28.2140   30.2800 C   0  0  0  0  0  0  0  0  0  0  0  0
   38.2910   28.3740   28.9580 C   0  0  0  0  0  0  0  0  0  0  0  0
   36.9410   28.1640   28.9740 N   0  0  0  0  0  0  0  0  0  0  0  0
   36.5610   27.8900   30.2190 N   0  0  0  0  0  0  0  0  0  0  0  0
   40.9790   25.2840   34.1520 C   0  0  0  0  0  0  0  0  0  0  0  0
   41.0340   22.6950   36.8460 C   0  0  0  0  0  0  0  0  0  0  0  0
   39.8070   22.0500   36.6180 C   0  0  0  0  0  0  0  0  0  0  0  0
   39.0000   22.4940   35.5790 C   0  0  0  0  0  0  0  0  0  0  0  0
   39.4560   23.5460   34.8310 N   0  0  0  0  0  0  0  0  0  0  0  0
   40.6460   24.1480   35.0750 C   0  0  0  0  0  0  0  0  0  0  0  0
   41.4170   23.7370   36.0550 N   0  0  0  0  0  0  0  0  0  0  0  0
   37.6860   21.8670   35.2700 C   0  0  0  0  0  0  0  0  0  0  0  0
   37.3540   21.5680   33.9370 C   0  0  0  0  0  0  0  0  0  0  0  0
   35.6810   20.8500   34.1480 S   0  0  0  0  0  0  0  0  0  0  0  0
   35.7380   21.0870   36.0240 C   0  0  0  0  0  0  0  0  0  0  0  0
   36.8650   21.6130   36.2610 N   0  0  0  0  0  0  0  0  0  0  0  0
   34.7560   20.7640   37.0140 O   0  0  0  0  0  0  0  0  0  0  0  0
   41.2879   27.3554   34.5467 H   0  0  0  0  0  0  0  0  0  0  0  0
   40.4115   26.4318   35.8416 H   0  0  0  0  0  0  0  0  0  0  0  0
   38.3199   27.0529   36.1360 H   0  0  0  0  0  0  0  0  0  0  0  0
   36.0622   27.8067   35.3849 H   0  0  0  0  0  0  0  0  0  0  0  0
   39.7914   28.3103   30.6330 H   0  0  0  0  0  0  0  0  0  0  0  0
   38.9025   28.6217   28.0778 H   0  0  0  0  0  0  0  0  0  0  0  0
   36.3184   28.2103   28.1548 H   0  0  0  0  0  0  0  0  0  0  0  0
   40.4665   25.1346   33.1902 H   0  0  0  0  0  0  0  0  0  0  0  0
   42.0670   25.3142   33.9931 H   0  0  0  0  0  0  0  0  0  0  0  0
   41.6871   22.3584   37.6646 H   0  0  0  0  0  0  0  0  0  0  0  0
   39.4911   21.2080   37.2515 H   0  0  0  0  0  0  0  0  0  0  0  0
   37.9387   21.7227   33.0182 H   0  0  0  0  0  0  0  0  0  0  0  0
   34.9359   20.9515   37.9693 H   0  0  0  0  0  0  0  0  0  0  0  0
  2  1  1  0
  2  3  2  0
  4  3  1  0
  5  4  2  0
  6  7  2  0
  6  5  1  0
  7  2  1  0
  8  6  1  0
  9  8  1  0
 10 11  1  0
 10  9  2  0
 11 12  1  0
 12  8  2  0
 13  1  1  0
 13 18  1  0
 15 14  2  0
 16 15  1  0
 17 18  1  0
 17 16  2  0
 18 19  2  0
 19 14  1  0
 20 16  1  0
 20 24  1  0
 21 22  1  0
 21 20  2  0
 22 23  1  0
 23 24  2  0
 23 25  1  0
  1 26  1  0
  1 27  1  0
  3 28  1  0
  4 29  1  0
  9 30  1  0
 10 31  1  0
 11 32  1  0
 13 33  1  0
 13 34  1  0
 14 35  1  0
 15 36  1  0
 21 37  1  0
 25 38  1  0
M  ISO  8  26   8  27   8  28  14  29  14  30  14  31  14  32   9  33   8
M  ISO  5  34   8  35  14  36  14  37  14  38   3
M  END
>  <minimizedAffinity>  (1) 
-5.99637175

>  <minimizedRMSD>  (1) 
0.220908448

$$$$
