
     RDKit          3D

 40 43  0  0  0  0  0  0  0  0999 V2000
   39.9970   22.8900   37.8030 C   0  0  0  0  0  0  0  0  0  0  0  0
   39.0510   23.2580   38.7740 C   0  0  0  0  0  0  0  0  0  0  0  0
   37.7340   23.4270   38.3520 C   0  0  0  0  0  0  0  0  0  0  0  0
   37.4380   23.2300   37.0430 N   0  0  0  0  0  0  0  0  0  0  0  0
   38.3580   22.8780   36.1290 C   0  0  0  0  0  0  0  0  0  0  0  0
   39.6330   22.7120   36.5200 N   0  0  0  0  0  0  0  0  0  0  0  0
   38.0820   22.6660   34.7470 N   0  0  0  0  0  0  0  0  0  0  0  0
   38.7290   23.2920   33.7410 C   0  0  0  0  0  0  0  0  0  0  0  0
   38.3610   22.9950   32.4530 C   0  0  0  0  0  0  0  0  0  0  0  0
   37.3510   22.0740   32.2300 C   0  0  0  0  0  0  0  0  0  0  0  0
   37.0090   21.7960   31.0470 O   0  0  0  0  0  0  0  0  0  0  0  0
   36.7070   21.4500   33.2040 N   0  0  0  0  0  0  0  0  0  0  0  0
   37.0990   21.7710   34.4610 C   0  0  0  0  0  0  0  0  0  0  0  0
   36.4920   21.1840   35.4060 O   0  0  0  0  0  0  0  0  0  0  0  0
   35.6380   20.4760   32.9970 C   0  0  0  0  0  0  0  0  0  0  0  0
   36.1240   19.4360   32.1910 F   0  0  0  0  0  0  0  0  0  0  0  0
   34.5410   21.0380   32.4120 F   0  0  0  0  0  0  0  0  0  0  0  0
   35.3000   19.9500   34.2410 F   0  0  0  0  0  0  0  0  0  0  0  0
   39.0190   23.6400   31.3160 C   0  0  0  0  0  0  0  0  0  0  0  0
   39.0370   25.1370   31.4540 C   0  0  0  0  0  0  0  0  0  0  0  0
   40.1760   25.9420   31.6200 C   0  0  0  0  0  0  0  0  0  0  0  0
   39.6690   27.2080   31.6890 N   0  0  0  0  0  0  0  0  0  0  0  0
   38.3360   27.1880   31.5770 C   0  0  0  0  0  0  0  0  0  0  0  0
   37.4770   28.2670   31.6020 C   0  0  0  0  0  0  0  0  0  0  0  0
   36.0930   28.0880   31.4730 C   0  0  0  0  0  0  0  0  0  0  0  0
   35.6530   26.7710   31.3200 C   0  0  0  0  0  0  0  0  0  0  0  0
   36.5400   25.7140   31.3000 C   0  0  0  0  0  0  0  0  0  0  0  0
   37.8760   25.9110   31.4260 C   0  0  0  0  0  0  0  0  0  0  0  0
   41.0477   22.7457   38.0950 H   0  0  0  0  0  0  0  0  0  0  0  0
   39.3385   23.4068   39.8253 H   0  0  0  0  0  0  0  0  0  0  0  0
   36.9490   23.7148   39.0669 H   0  0  0  0  0  0  0  0  0  0  0  0
   39.5281   24.0191   33.9479 H   0  0  0  0  0  0  0  0  0  0  0  0
   38.4792   23.3742   30.3951 H   0  0  0  0  0  0  0  0  0  0  0  0
   40.0607   23.2884   31.2806 H   0  0  0  0  0  0  0  0  0  0  0  0
   41.2282   25.6269   31.6802 H   0  0  0  0  0  0  0  0  0  0  0  0
   40.2345   28.0603   31.8104 H   0  0  0  0  0  0  0  0  0  0  0  0
   37.8838   29.2816   31.7248 H   0  0  0  0  0  0  0  0  0  0  0  0
   35.3930   28.9363   31.4912 H   0  0  0  0  0  0  0  0  0  0  0  0
   34.5764   26.5722   31.2132 H   0  0  0  0  0  0  0  0  0  0  0  0
   36.1555   24.6905   31.1794 H   0  0  0  0  0  0  0  0  0  0  0  0
  1  2  2  0
  3  2  1  0
  4  3  2  0
  5  6  2  0
  5  4  1  0
  6  1  1  0
  7  5  1  0
  8  7  1  0
  9  8  2  0
 10  9  1  0
 10 12  1  0
 11 10  2  0
 12 13  1  0
 13  7  1  0
 13 14  2  0
 15 12  1  0
 15 18  1  0
 16 15  1  0
 17 15  1  0
 19 20  1  0
 19  9  1  0
 20 21  2  0
 21 22  1  0
 23 24  2  0
 23 22  1  0
 25 24  1  0
 26 25  2  0
 27 26  1  0
 27 28  2  0
 28 20  1  0
 28 23  1  0
  1 29  1  0
  2 30  1  0
  3 31  1  0
  8 32  1  0
 19 33  1  0
 19 34  1  0
 21 35  1  0
 22 36  1  0
 24 37  1  0
 25 38  1  0
 26 39  1  0
 27 40  1  0
M  ISO  8  29  14  30  14  31  14  32  14  33   8  34   8  35  14  36   9
M  ISO  4  37  14  38  14  39  14  40  14
M  END
>  <minimizedAffinity>  (1) 
-6.50272799

>  <minimizedRMSD>  (1) 
1.55852962

$$$$
