
     RDKit          3D

 37 40  0  0  0  0  0  0  0  0999 V2000
   39.9780   22.8350   37.7590 C   0  0  0  0  0  0  0  0  0  0  0  0
   39.0550   23.2460   38.7190 C   0  0  0  0  0  0  0  0  0  0  0  0
   37.7340   23.4420   38.2740 C   0  0  0  0  0  0  0  0  0  0  0  0
   37.4210   23.2260   36.9660 N   0  0  0  0  0  0  0  0  0  0  0  0
   38.3470   22.8300   36.0750 C   0  0  0  0  0  0  0  0  0  0  0  0
   39.6130   22.6400   36.4860 N   0  0  0  0  0  0  0  0  0  0  0  0
   38.0810   22.5860   34.7010 N   0  0  0  0  0  0  0  0  0  0  0  0
   38.7600   23.1610   33.6740 C   0  0  0  0  0  0  0  0  0  0  0  0
   38.3900   22.8210   32.3930 C   0  0  0  0  0  0  0  0  0  0  0  0
   37.3610   21.9300   32.1910 C   0  0  0  0  0  0  0  0  0  0  0  0
   37.0230   21.6220   31.0250 O   0  0  0  0  0  0  0  0  0  0  0  0
   36.6760   21.3510   33.1880 N   0  0  0  0  0  0  0  0  0  0  0  0
   37.0730   21.7090   34.4290 C   0  0  0  0  0  0  0  0  0  0  0  0
   36.4330   21.1690   35.3870 O   0  0  0  0  0  0  0  0  0  0  0  0
   35.5940   20.4040   32.9870 C   0  0  0  0  0  0  0  0  0  0  0  0
   36.0470   19.3450   32.1700 F   0  0  0  0  0  0  0  0  0  0  0  0
   34.4930   20.9750   32.4480 F   0  0  0  0  0  0  0  0  0  0  0  0
   35.3140   19.8220   34.2430 F   0  0  0  0  0  0  0  0  0  0  0  0
   39.0870   23.4040   31.2490 C   0  0  0  0  0  0  0  0  0  0  0  0
   38.9600   24.8040   31.0780 N   0  0  0  0  0  0  0  0  0  0  0  0
   40.0930   25.5630   30.9050 C   0  0  0  0  0  0  0  0  0  0  0  0
   39.7910   26.8760   30.7510 N   0  0  0  0  0  0  0  0  0  0  0  0
   38.4740   27.0430   30.8130 C   0  0  0  0  0  0  0  0  0  0  0  0
   37.5210   28.0700   30.7410 C   0  0  0  0  0  0  0  0  0  0  0  0
   36.1820   27.8050   30.8660 N   0  0  0  0  0  0  0  0  0  0  0  0
   35.7930   26.5070   31.0610 C   0  0  0  0  0  0  0  0  0  0  0  0
   36.6780   25.4900   31.1360 N   0  0  0  0  0  0  0  0  0  0  0  0
   38.0170   25.7400   31.0130 C   0  0  0  0  0  0  0  0  0  0  0  0
   41.0248   22.6679   38.0526 H   0  0  0  0  0  0  0  0  0  0  0  0
   39.3433   23.4085   39.7680 H   0  0  0  0  0  0  0  0  0  0  0  0
   36.9567   23.7687   38.9805 H   0  0  0  0  0  0  0  0  0  0  0  0
   39.5771   23.8735   33.8602 H   0  0  0  0  0  0  0  0  0  0  0  0
   40.1576   23.1765   31.3586 H   0  0  0  0  0  0  0  0  0  0  0  0
   38.6136   22.9583   30.3617 H   0  0  0  0  0  0  0  0  0  0  0  0
   41.1152   25.1567   30.8930 H   0  0  0  0  0  0  0  0  0  0  0  0
   37.8542   29.1061   30.5814 H   0  0  0  0  0  0  0  0  0  0  0  0
   34.7203   26.2844   31.1602 H   0  0  0  0  0  0  0  0  0  0  0  0
  1  2  2  0
  3  2  1  0
  4  3  2  0
  5  6  2  0
  5  4  1  0
  6  1  1  0
  7  5  1  0
  8  7  1  0
  9  8  2  0
 10  9  1  0
 10 12  1  0
 11 10  2  0
 12 13  1  0
 13  7  1  0
 13 14  2  0
 15 12  1  0
 15 18  1  0
 16 15  1  0
 17 15  1  0
 19  9  1  0
 20 19  1  0
 21 20  1  0
 22 23  1  0
 22 21  2  0
 23 28  2  0
 24 23  1  0
 24 25  2  0
 25 26  1  0
 26 27  2  0
 28 20  1  0
 28 27  1  0
  1 29  1  0
  2 30  1  0
  3 31  1  0
  8 32  1  0
 19 33  1  0
 19 34  1  0
 21 35  1  0
 24 36  1  0
 26 37  1  0
M  ISO  8  29  14  30  14  31  14  32  14  33   8  34   8  35  14  36  14
M  ISO  1  37  14
M  END
>  <minimizedAffinity>  (1) 
-6.34558439

>  <minimizedRMSD>  (1) 
1.52483881

$$$$
