
     RDKit          3D

 41 43  0  0  0  0  0  0  0  0999 V2000
   39.9830   22.8950   37.7110 C   0  0  0  0  0  0  0  0  0  0  0  0
   39.0660   23.2170   38.7120 C   0  0  0  0  0  0  0  0  0  0  0  0
   37.7240   23.3730   38.3270 C   0  0  0  0  0  0  0  0  0  0  0  0
   37.3810   23.2060   37.0180 N   0  0  0  0  0  0  0  0  0  0  0  0
   38.3080   22.8940   36.0900 C   0  0  0  0  0  0  0  0  0  0  0  0
   39.5870   22.7420   36.4320 N   0  0  0  0  0  0  0  0  0  0  0  0
   37.9990   22.7070   34.6970 N   0  0  0  0  0  0  0  0  0  0  0  0
   38.5960   23.3630   33.6850 C   0  0  0  0  0  0  0  0  0  0  0  0
   38.2060   23.0820   32.4040 C   0  0  0  0  0  0  0  0  0  0  0  0
   37.2170   22.1400   32.1880 C   0  0  0  0  0  0  0  0  0  0  0  0
   36.8520   21.8760   31.0130 O   0  0  0  0  0  0  0  0  0  0  0  0
   36.6100   21.4770   33.1630 N   0  0  0  0  0  0  0  0  0  0  0  0
   37.0320   21.7900   34.4290 C   0  0  0  0  0  0  0  0  0  0  0  0
   36.4540   21.1590   35.3590 O   0  0  0  0  0  0  0  0  0  0  0  0
   35.5670   20.4840   32.9600 C   0  0  0  0  0  0  0  0  0  0  0  0
   36.0580   19.4600   32.1600 F   0  0  0  0  0  0  0  0  0  0  0  0
   34.4370   21.0260   32.4070 F   0  0  0  0  0  0  0  0  0  0  0  0
   35.2570   19.9330   34.2100 F   0  0  0  0  0  0  0  0  0  0  0  0
   38.8160   23.7580   31.2750 C   0  0  0  0  0  0  0  0  0  0  0  0
   38.4840   25.1510   31.1090 N   0  0  0  0  0  0  0  0  0  0  0  0
   37.1010   25.4340   31.2010 C   0  0  0  0  0  0  0  0  0  0  0  0
   36.8010   26.0930   32.5600 C   0  0  0  0  0  0  0  0  0  0  0  0
   37.4550   27.4550   32.4550 C   0  0  0  0  0  0  0  0  0  0  0  0
   38.9400   27.3230   32.2020 C   0  0  0  0  0  0  0  0  0  0  0  0
   39.3680   25.9180   31.9370 C   0  0  0  0  0  0  0  0  0  0  0  0
   41.0442   22.7642   37.9694 H   0  0  0  0  0  0  0  0  0  0  0  0
   39.3805   23.3434   39.7585 H   0  0  0  0  0  0  0  0  0  0  0  0
   36.9577   23.6273   39.0740 H   0  0  0  0  0  0  0  0  0  0  0  0
   39.3801   24.1086   33.8832 H   0  0  0  0  0  0  0  0  0  0  0  0
   39.9075   23.6851   31.3906 H   0  0  0  0  0  0  0  0  0  0  0  0
   38.4191   23.2535   30.3817 H   0  0  0  0  0  0  0  0  0  0  0  0
   36.8121   26.1185   30.3899 H   0  0  0  0  0  0  0  0  0  0  0  0
   36.5288   24.4987   31.1129 H   0  0  0  0  0  0  0  0  0  0  0  0
   35.7166   26.1903   32.7172 H   0  0  0  0  0  0  0  0  0  0  0  0
   37.1782   25.5050   33.4097 H   0  0  0  0  0  0  0  0  0  0  0  0
   36.9963   28.0116   31.6244 H   0  0  0  0  0  0  0  0  0  0  0  0
   37.3067   27.9900   33.4046 H   0  0  0  0  0  0  0  0  0  0  0  0
   39.2022   27.9390   31.3292 H   0  0  0  0  0  0  0  0  0  0  0  0
   39.4581   27.6565   33.1133 H   0  0  0  0  0  0  0  0  0  0  0  0
   39.4588   25.4028   32.9046 H   0  0  0  0  0  0  0  0  0  0  0  0
   40.3157   25.9895   31.3832 H   0  0  0  0  0  0  0  0  0  0  0  0
  1  2  2  0
  3  2  1  0
  4  3  2  0
  5  6  2  0
  5  4  1  0
  6  1  1  0
  7  5  1  0
  8  7  1  0
  9  8  2  0
 10  9  1  0
 10 12  1  0
 11 10  2  0
 12 13  1  0
 13  7  1  0
 13 14  2  0
 15 12  1  0
 15 18  1  0
 16 15  1  0
 17 15  1  0
 19  9  1  0
 20 21  1  0
 20 19  1  0
 20 25  1  0
 21 22  1  0
 23 22  1  0
 24 23  1  0
 25 24  1  0
  1 26  1  0
  2 27  1  0
  3 28  1  0
  8 29  1  0
 19 30  1  0
 19 31  1  0
 21 32  1  0
 21 33  1  0
 22 34  1  0
 22 35  1  0
 23 36  1  0
 23 37  1  0
 24 38  1  0
 24 39  1  0
 25 40  1  0
 25 41  1  0
M  ISO  8  26  14  27  14  28  14  29  14  30   8  31   8  32  13  33  13
M  ISO  8  34  13  35  13  36  13  37  13  38  13  39  13  40  13  41  13
M  END
>  <minimizedAffinity>  (1) 
-5.99429655

>  <minimizedRMSD>  (1) 
1.75685382

$$$$
