
     RDKit          3D

 36 38  0  0  0  0  0  0  0  0999 V2000
   39.9840   23.0370   37.5270 C   0  0  0  0  0  0  0  0  0  0  0  0
   39.1060   23.2370   38.5920 C   0  0  0  0  0  0  0  0  0  0  0  0
   37.7310   23.2730   38.2900 C   0  0  0  0  0  0  0  0  0  0  0  0
   37.3190   23.1130   36.9990 N   0  0  0  0  0  0  0  0  0  0  0  0
   38.2070   22.9220   36.0090 C   0  0  0  0  0  0  0  0  0  0  0  0
   39.5210   22.8860   36.2760 N   0  0  0  0  0  0  0  0  0  0  0  0
   37.8400   22.7490   34.6370 N   0  0  0  0  0  0  0  0  0  0  0  0
   38.3180   23.5030   33.6140 C   0  0  0  0  0  0  0  0  0  0  0  0
   37.8670   23.2100   32.3500 C   0  0  0  0  0  0  0  0  0  0  0  0
   36.9680   22.1910   32.1540 C   0  0  0  0  0  0  0  0  0  0  0  0
   36.5620   21.9310   30.9920 O   0  0  0  0  0  0  0  0  0  0  0  0
   36.4830   21.4350   33.1450 N   0  0  0  0  0  0  0  0  0  0  0  0
   36.9570   21.7600   34.3820 C   0  0  0  0  0  0  0  0  0  0  0  0
   36.5030   21.0500   35.3290 O   0  0  0  0  0  0  0  0  0  0  0  0
   35.5360   20.3560   32.9670 C   0  0  0  0  0  0  0  0  0  0  0  0
   36.0980   19.3840   32.1270 F   0  0  0  0  0  0  0  0  0  0  0  0
   34.3540   20.7870   32.4380 F   0  0  0  0  0  0  0  0  0  0  0  0
   35.3210   19.7770   34.2190 F   0  0  0  0  0  0  0  0  0  0  0  0
   38.3460   23.9870   31.2070 C   0  0  0  0  0  0  0  0  0  0  0  0
   37.7300   25.3250   31.0890 C   0  0  0  0  0  0  0  0  0  0  0  0
   36.3930   25.6430   31.2050 C   0  0  0  0  0  0  0  0  0  0  0  0
   35.9540   26.9450   31.0700 C   0  0  0  0  0  0  0  0  0  0  0  0
   36.8880   27.9450   30.8140 C   0  0  0  0  0  0  0  0  0  0  0  0
   38.2450   27.6510   30.6930 C   0  0  0  0  0  0  0  0  0  0  0  0
   38.6560   26.3410   30.8320 C   0  0  0  0  0  0  0  0  0  0  0  0
   41.0674   23.0026   37.7141 H   0  0  0  0  0  0  0  0  0  0  0  0
   39.4713   23.3611   39.6221 H   0  0  0  0  0  0  0  0  0  0  0  0
   36.9930   23.4293   39.0906 H   0  0  0  0  0  0  0  0  0  0  0  0
   39.0377   24.3160   33.7904 H   0  0  0  0  0  0  0  0  0  0  0  0
   39.4340   24.1147   31.3072 H   0  0  0  0  0  0  0  0  0  0  0  0
   38.0667   23.4272   30.3022 H   0  0  0  0  0  0  0  0  0  0  0  0
   35.6636   24.8452   31.4087 H   0  0  0  0  0  0  0  0  0  0  0  0
   34.8852   27.1879   31.1631 H   0  0  0  0  0  0  0  0  0  0  0  0
   36.5490   28.9858   30.7053 H   0  0  0  0  0  0  0  0  0  0  0  0
   38.9750   28.4485   30.4904 H   0  0  0  0  0  0  0  0  0  0  0  0
   39.7237   26.0932   30.7396 H   0  0  0  0  0  0  0  0  0  0  0  0
  1  2  2  0
  3  2  1  0
  4  3  2  0
  5  6  2  0
  5  4  1  0
  6  1  1  0
  7  5  1  0
  8  7  1  0
  9  8  2  0
 10  9  1  0
 10 12  1  0
 11 10  2  0
 12 13  1  0
 13  7  1  0
 13 14  2  0
 15 12  1  0
 15 18  1  0
 16 15  1  0
 17 15  1  0
 19  9  1  0
 20 21  2  0
 20 19  1  0
 22 21  1  0
 23 22  2  0
 24 23  1  0
 24 25  2  0
 25 20  1  0
  1 26  1  0
  2 27  1  0
  3 28  1  0
  8 29  1  0
 19 30  1  0
 19 31  1  0
 21 32  1  0
 22 33  1  0
 23 34  1  0
 24 35  1  0
 25 36  1  0
M  ISO  8  26  14  27  14  28  14  29  14  30   8  31   8  32  14  33  14
M  ISO  3  34  14  35  14  36  14
M  END
>  <minimizedAffinity>  (1) 
-5.97234774

>  <minimizedRMSD>  (1) 
2.33936071

$$$$
