
     RDKit          3D

 36 38  0  0  0  0  0  0  0  0999 V2000
   39.9550   23.0360   37.5830 C   0  0  0  0  0  0  0  0  0  0  0  0
   39.0570   23.2360   38.6330 C   0  0  0  0  0  0  0  0  0  0  0  0
   37.7020   23.2730   38.3060 C   0  0  0  0  0  0  0  0  0  0  0  0
   37.3180   23.1160   37.0130 N   0  0  0  0  0  0  0  0  0  0  0  0
   38.2200   22.9230   36.0280 C   0  0  0  0  0  0  0  0  0  0  0  0
   39.5180   22.8860   36.3200 N   0  0  0  0  0  0  0  0  0  0  0  0
   37.8640   22.7540   34.6510 N   0  0  0  0  0  0  0  0  0  0  0  0
   38.3670   23.5040   33.6470 C   0  0  0  0  0  0  0  0  0  0  0  0
   37.9340   23.2300   32.3680 C   0  0  0  0  0  0  0  0  0  0  0  0
   37.0240   22.2230   32.1560 C   0  0  0  0  0  0  0  0  0  0  0  0
   36.6270   21.9710   30.9840 O   0  0  0  0  0  0  0  0  0  0  0  0
   36.5180   21.4750   33.1270 N   0  0  0  0  0  0  0  0  0  0  0  0
   36.9700   21.7770   34.3800 C   0  0  0  0  0  0  0  0  0  0  0  0
   36.4980   21.0720   35.3190 O   0  0  0  0  0  0  0  0  0  0  0  0
   35.5550   20.4050   32.9350 C   0  0  0  0  0  0  0  0  0  0  0  0
   36.1030   19.4470   32.0570 F   0  0  0  0  0  0  0  0  0  0  0  0
   34.3710   20.8540   32.4600 F   0  0  0  0  0  0  0  0  0  0  0  0
   35.3870   19.7580   34.1710 F   0  0  0  0  0  0  0  0  0  0  0  0
   38.4410   24.0050   31.2420 C   0  0  0  0  0  0  0  0  0  0  0  0
   37.9590   25.4040   31.2860 C   0  0  0  0  0  0  0  0  0  0  0  0
   36.5880   25.5690   31.0840 C   0  0  0  0  0  0  0  0  0  0  0  0
   36.0050   26.8350   31.1010 C   0  0  0  0  0  0  0  0  0  0  0  0
   36.8080   27.9420   31.3220 C   0  0  0  0  0  0  0  0  0  0  0  0
   38.1510   27.7550   31.5180 C   0  0  0  0  0  0  0  0  0  0  0  0
   38.7530   26.5120   31.5060 C   0  0  0  0  0  0  0  0  0  0  0  0
   41.0345   23.0006   37.7915 H   0  0  0  0  0  0  0  0  0  0  0  0
   39.4023   23.3587   39.6702 H   0  0  0  0  0  0  0  0  0  0  0  0
   36.9479   23.4286   39.0916 H   0  0  0  0  0  0  0  0  0  0  0  0
   39.0957   24.3043   33.8431 H   0  0  0  0  0  0  0  0  0  0  0  0
   38.1011   23.5390   30.3053 H   0  0  0  0  0  0  0  0  0  0  0  0
   39.5395   24.0163   31.2973 H   0  0  0  0  0  0  0  0  0  0  0  0
   35.9570   24.6853   30.9084 H   0  0  0  0  0  0  0  0  0  0  0  0
   34.9231   26.9533   30.9413 H   0  0  0  0  0  0  0  0  0  0  0  0
   36.3751   28.9531   31.3398 H   0  0  0  0  0  0  0  0  0  0  0  0
   38.7814   28.6391   31.6937 H   0  0  0  0  0  0  0  0  0  0  0  0
   39.8361   26.4075   31.6674 H   0  0  0  0  0  0  0  0  0  0  0  0
  1  2  2  0
  3  2  1  0
  4  3  2  0
  5  6  2  0
  5  4  1  0
  6  1  1  0
  7  5  1  0
  8  7  1  0
  9  8  2  0
 10  9  1  0
 10 12  1  0
 11 10  2  0
 12 13  1  0
 13  7  1  0
 13 14  2  0
 15 12  1  0
 15 18  1  0
 16 15  1  0
 17 15  1  0
 19 20  1  0
 19  9  1  0
 20 25  2  0
 21 22  2  0
 21 20  1  0
 22 23  1  0
 23 24  2  0
 25 24  1  0
  1 26  1  0
  2 27  1  0
  3 28  1  0
  8 29  1  0
 19 30  1  0
 19 31  1  0
 21 32  1  0
 22 33  1  0
 23 34  1  0
 24 35  1  0
 25 36  1  0
M  ISO  8  26  14  27  14  28  14  29  14  30   8  31   8  32  14  33  14
M  ISO  3  34  14  35  14  36  14
M  END
>  <minimizedAffinity>  (1) 
-5.96864891

>  <minimizedRMSD>  (1) 
2.29671502

$$$$
