
     RDKit          3D

 39 41  0  0  0  0  0  0  0  0999 V2000
   39.9620   23.0000   37.6170 C   0  0  0  0  0  0  0  0  0  0  0  0
   39.0520   23.2410   38.6500 C   0  0  0  0  0  0  0  0  0  0  0  0
   37.6990   23.3110   38.3060 C   0  0  0  0  0  0  0  0  0  0  0  0
   37.3070   23.1450   37.0040 N   0  0  0  0  0  0  0  0  0  0  0  0
   38.2340   22.9130   36.0360 C   0  0  0  0  0  0  0  0  0  0  0  0
   39.5200   22.8460   36.3580 N   0  0  0  0  0  0  0  0  0  0  0  0
   37.8910   22.7320   34.6670 N   0  0  0  0  0  0  0  0  0  0  0  0
   38.4310   23.4640   33.6610 C   0  0  0  0  0  0  0  0  0  0  0  0
   38.0100   23.1870   32.3660 C   0  0  0  0  0  0  0  0  0  0  0  0
   37.0770   22.1940   32.1570 C   0  0  0  0  0  0  0  0  0  0  0  0
   36.6990   21.9480   30.9850 O   0  0  0  0  0  0  0  0  0  0  0  0
   36.5400   21.4690   33.1350 N   0  0  0  0  0  0  0  0  0  0  0  0
   36.9810   21.7740   34.3940 C   0  0  0  0  0  0  0  0  0  0  0  0
   36.4760   21.0890   35.3310 O   0  0  0  0  0  0  0  0  0  0  0  0
   35.5540   20.4170   32.9480 C   0  0  0  0  0  0  0  0  0  0  0  0
   36.0780   19.4630   32.0580 F   0  0  0  0  0  0  0  0  0  0  0  0
   34.3840   20.8900   32.4660 F   0  0  0  0  0  0  0  0  0  0  0  0
   35.3850   19.7650   34.1820 F   0  0  0  0  0  0  0  0  0  0  0  0
   38.5540   23.9360   31.2500 C   0  0  0  0  0  0  0  0  0  0  0  0
   37.8030   25.1280   31.0380 N   0  0  0  0  0  0  0  0  0  0  0  0
   38.5960   26.2730   30.6990 C   0  0  0  0  0  0  0  0  0  0  0  0
   38.9120   27.1730   31.8370 C   0  0  0  0  0  0  0  0  0  0  0  0
   38.0760   27.0230   32.9310 O   0  0  0  0  0  0  0  0  0  0  0  0
   36.7660   26.7600   32.5800 C   0  0  0  0  0  0  0  0  0  0  0  0
   36.7330   25.3840   31.9370 C   0  0  0  0  0  0  0  0  0  0  0  0
   41.0384   22.9365   37.8346 H   0  0  0  0  0  0  0  0  0  0  0  0
   39.3864   23.3702   39.6899 H   0  0  0  0  0  0  0  0  0  0  0  0
   36.9454   23.5003   39.0846 H   0  0  0  0  0  0  0  0  0  0  0  0
   39.1752   24.2485   33.8629 H   0  0  0  0  0  0  0  0  0  0  0  0
   39.5997   24.2002   31.4662 H   0  0  0  0  0  0  0  0  0  0  0  0
   38.5004   23.3149   30.3437 H   0  0  0  0  0  0  0  0  0  0  0  0
   39.5448   25.9171   30.2710 H   0  0  0  0  0  0  0  0  0  0  0  0
   37.9958   26.8663   29.9935 H   0  0  0  0  0  0  0  0  0  0  0  0
   39.9433   26.9697   32.1610 H   0  0  0  0  0  0  0  0  0  0  0  0
   38.7734   28.2018   31.4731 H   0  0  0  0  0  0  0  0  0  0  0  0
   36.1276   26.7714   33.4758 H   0  0  0  0  0  0  0  0  0  0  0  0
   36.3913   27.5230   31.8818 H   0  0  0  0  0  0  0  0  0  0  0  0
   35.7878   25.2863   31.3828 H   0  0  0  0  0  0  0  0  0  0  0  0
   36.8298   24.6543   32.7544 H   0  0  0  0  0  0  0  0  0  0  0  0
  1  2  2  0
  3  2  1  0
  4  3  2  0
  5  6  2  0
  5  4  1  0
  6  1  1  0
  7  5  1  0
  8  7  1  0
  9  8  2  0
 10  9  1  0
 10 12  1  0
 11 10  2  0
 12 13  1  0
 13  7  1  0
 13 14  2  0
 15 12  1  0
 15 18  1  0
 16 15  1  0
 17 15  1  0
 19  9  1  0
 20 19  1  0
 20 25  1  0
 21 20  1  0
 21 22  1  0
 22 23  1  0
 24 23  1  0
 25 24  1  0
  1 26  1  0
  2 27  1  0
  3 28  1  0
  8 29  1  0
 19 30  1  0
 19 31  1  0
 21 32  1  0
 21 33  1  0
 22 34  1  0
 22 35  1  0
 24 36  1  0
 24 37  1  0
 25 38  1  0
 25 39  1  0
M  ISO  8  26  14  27  14  28  14  29  14  30   8  31   8  32  13  33  13
M  ISO  6  34  13  35  13  36  13  37  13  38  13  39  13
M  END
>  <minimizedAffinity>  (1) 
-5.8486948

>  <minimizedRMSD>  (1) 
0.975336671

$$$$
