
     RDKit          3D

 38 40  0  0  0  0  0  0  0  0999 V2000
   39.9630   22.9920   37.6610 C   0  0  0  0  0  0  0  0  0  0  0  0
   39.0550   23.2140   38.7000 C   0  0  0  0  0  0  0  0  0  0  0  0
   37.6940   23.2840   38.3540 C   0  0  0  0  0  0  0  0  0  0  0  0
   37.3150   23.1350   37.0540 N   0  0  0  0  0  0  0  0  0  0  0  0
   38.2290   22.9210   36.0860 C   0  0  0  0  0  0  0  0  0  0  0  0
   39.5350   22.8510   36.3930 N   0  0  0  0  0  0  0  0  0  0  0  0
   37.8990   22.7580   34.7140 N   0  0  0  0  0  0  0  0  0  0  0  0
   38.4370   23.4930   33.7070 C   0  0  0  0  0  0  0  0  0  0  0  0
   38.0290   23.2310   32.4170 C   0  0  0  0  0  0  0  0  0  0  0  0
   37.0960   22.2400   32.1950 C   0  0  0  0  0  0  0  0  0  0  0  0
   36.7190   21.9970   31.0170 O   0  0  0  0  0  0  0  0  0  0  0  0
   36.5560   21.5090   33.1640 N   0  0  0  0  0  0  0  0  0  0  0  0
   36.9810   21.7950   34.4150 C   0  0  0  0  0  0  0  0  0  0  0  0
   36.4760   21.1070   35.3520 O   0  0  0  0  0  0  0  0  0  0  0  0
   35.5710   20.4590   32.9420 C   0  0  0  0  0  0  0  0  0  0  0  0
   36.1100   19.4920   32.0790 F   0  0  0  0  0  0  0  0  0  0  0  0
   34.4050   20.9250   32.4440 F   0  0  0  0  0  0  0  0  0  0  0  0
   35.3570   19.8230   34.1790 F   0  0  0  0  0  0  0  0  0  0  0  0
   38.5720   23.9820   31.2980 C   0  0  0  0  0  0  0  0  0  0  0  0
   37.6950   25.0940   31.0040 N   0  0  0  0  0  0  0  0  0  0  0  0
   36.8730   25.4930   32.1020 C   0  0  0  0  0  0  0  0  0  0  0  0
   37.3320   26.8360   32.5610 C   0  0  0  0  0  0  0  0  0  0  0  0
   38.4160   27.2860   31.6200 C   0  0  0  0  0  0  0  0  0  0  0  0
   38.4130   26.2440   30.5450 C   0  0  0  0  0  0  0  0  0  0  0  0
   41.0389   22.9319   37.8821 H   0  0  0  0  0  0  0  0  0  0  0  0
   39.3900   23.3288   39.7414 H   0  0  0  0  0  0  0  0  0  0  0  0
   36.9363   23.4588   39.1320 H   0  0  0  0  0  0  0  0  0  0  0  0
   39.1794   24.2774   33.9155 H   0  0  0  0  0  0  0  0  0  0  0  0
   39.5716   24.3601   31.5586 H   0  0  0  0  0  0  0  0  0  0  0  0
   38.6503   23.3287   30.4165 H   0  0  0  0  0  0  0  0  0  0  0  0
   35.8224   25.5479   31.7805 H   0  0  0  0  0  0  0  0  0  0  0  0
   36.9512   24.7632   32.9213 H   0  0  0  0  0  0  0  0  0  0  0  0
   36.4940   27.5482   32.5375 H   0  0  0  0  0  0  0  0  0  0  0  0
   37.7093   26.7860   33.5931 H   0  0  0  0  0  0  0  0  0  0  0  0
   38.1867   28.2782   31.2043 H   0  0  0  0  0  0  0  0  0  0  0  0
   39.3939   27.3838   32.1141 H   0  0  0  0  0  0  0  0  0  0  0  0
   39.4483   25.9596   30.3058 H   0  0  0  0  0  0  0  0  0  0  0  0
   37.9281   26.6459   29.6431 H   0  0  0  0  0  0  0  0  0  0  0  0
  1  2  2  0
  3  2  1  0
  4  3  2  0
  5  6  2  0
  5  4  1  0
  6  1  1  0
  7  5  1  0
  8  7  1  0
  9  8  2  0
 10  9  1  0
 10 12  1  0
 11 10  2  0
 12 13  1  0
 13  7  1  0
 13 14  2  0
 15 12  1  0
 15 18  1  0
 16 15  1  0
 17 15  1  0
 19  9  1  0
 20 19  1  0
 20 21  1  0
 21 22  1  0
 23 22  1  0
 24 20  1  0
 24 23  1  0
  1 25  1  0
  2 26  1  0
  3 27  1  0
  8 28  1  0
 19 29  1  0
 19 30  1  0
 21 31  1  0
 21 32  1  0
 22 33  1  0
 22 34  1  0
 23 35  1  0
 23 36  1  0
 24 37  1  0
 24 38  1  0
M  ISO  8  25  14  26  14  27  14  28  14  29   8  30   8  31  13  32  13
M  ISO  6  33  13  34  13  35  13  36  13  37  13  38  13
M  END
>  <minimizedAffinity>  (1) 
-5.70473099

>  <minimizedRMSD>  (1) 
0.600986481

$$$$
