
     RDKit          3D

 33 35  0  0  0  0  0  0  0  0999 V2000
   39.9820   22.9940   37.6350 C   0  0  0  0  0  0  0  0  0  0  0  0
   39.0700   23.2250   38.6800 C   0  0  0  0  0  0  0  0  0  0  0  0
   37.7090   23.3070   38.3340 C   0  0  0  0  0  0  0  0  0  0  0  0
   37.3430   23.1610   37.0310 N   0  0  0  0  0  0  0  0  0  0  0  0
   38.2470   22.9410   36.0650 C   0  0  0  0  0  0  0  0  0  0  0  0
   39.5420   22.8590   36.3630 N   0  0  0  0  0  0  0  0  0  0  0  0
   37.9100   22.7820   34.6910 N   0  0  0  0  0  0  0  0  0  0  0  0
   38.4460   23.5180   33.6760 C   0  0  0  0  0  0  0  0  0  0  0  0
   38.0170   23.2450   32.3920 C   0  0  0  0  0  0  0  0  0  0  0  0
   37.0800   22.2560   32.1780 C   0  0  0  0  0  0  0  0  0  0  0  0
   36.7000   22.0170   31.0010 O   0  0  0  0  0  0  0  0  0  0  0  0
   36.5400   21.5180   33.1540 N   0  0  0  0  0  0  0  0  0  0  0  0
   36.9920   21.8250   34.3950 C   0  0  0  0  0  0  0  0  0  0  0  0
   36.4850   21.1300   35.3370 O   0  0  0  0  0  0  0  0  0  0  0  0
   35.5600   20.4820   32.9470 C   0  0  0  0  0  0  0  0  0  0  0  0
   36.0980   19.4860   32.1380 F   0  0  0  0  0  0  0  0  0  0  0  0
   34.4080   20.9590   32.3830 F   0  0  0  0  0  0  0  0  0  0  0  0
   35.2810   19.9140   34.2000 F   0  0  0  0  0  0  0  0  0  0  0  0
   38.5550   24.0000   31.2680 C   0  0  0  0  0  0  0  0  0  0  0  0
   38.0130   25.3650   31.1910 C   0  0  0  0  0  0  0  0  0  0  0  0
   38.6840   26.5700   31.2720 C   0  0  0  0  0  0  0  0  0  0  0  0
   37.7360   27.5650   31.1450 C   0  0  0  0  0  0  0  0  0  0  0  0
   36.5220   26.9280   30.9910 C   0  0  0  0  0  0  0  0  0  0  0  0
   36.7410   25.6450   31.0260 O   0  0  0  0  0  0  0  0  0  0  0  0
   41.0579   22.9228   37.8528 H   0  0  0  0  0  0  0  0  0  0  0  0
   39.4058   23.3366   39.7215 H   0  0  0  0  0  0  0  0  0  0  0  0
   36.9486   23.4872   39.1081 H   0  0  0  0  0  0  0  0  0  0  0  0
   39.1932   24.3010   33.8728 H   0  0  0  0  0  0  0  0  0  0  0  0
   39.6480   24.0607   31.3756 H   0  0  0  0  0  0  0  0  0  0  0  0
   38.2661   23.4748   30.3457 H   0  0  0  0  0  0  0  0  0  0  0  0
   39.7662   26.7096   31.4110 H   0  0  0  0  0  0  0  0  0  0  0  0
   37.9132   28.6505   31.1630 H   0  0  0  0  0  0  0  0  0  0  0  0
   35.5448   27.4162   30.8619 H   0  0  0  0  0  0  0  0  0  0  0  0
  1  2  2  0
  3  2  1  0
  4  3  2  0
  5  6  2  0
  5  4  1  0
  6  1  1  0
  7  5  1  0
  8  7  1  0
  9  8  2  0
 10  9  1  0
 10 12  1  0
 11 10  2  0
 12 13  1  0
 13  7  1  0
 13 14  2  0
 15 12  1  0
 15 18  1  0
 16 15  1  0
 17 15  1  0
 19  9  1  0
 20 19  1  0
 20 21  2  0
 22 21  1  0
 23 24  1  0
 23 22  2  0
 24 20  1  0
  1 25  1  0
  2 26  1  0
  3 27  1  0
  8 28  1  0
 19 29  1  0
 19 30  1  0
 21 31  1  0
 22 32  1  0
 23 33  1  0
M  ISO  8  25  14  26  14  27  14  28  14  29   8  30   8  31  14  32  14
M  ISO  1  33  14
M  END
>  <minimizedAffinity>  (1) 
-5.69153309

>  <minimizedRMSD>  (1) 
1.93802607

$$$$
