
     RDKit          3D

 32 34  0  0  0  0  0  0  0  0999 V2000
   39.9660   22.9670   37.6680 C   0  0  0  0  0  0  0  0  0  0  0  0
   39.0580   23.2310   38.6940 C   0  0  0  0  0  0  0  0  0  0  0  0
   37.7150   23.3300   38.3340 C   0  0  0  0  0  0  0  0  0  0  0  0
   37.3430   23.1720   37.0380 N   0  0  0  0  0  0  0  0  0  0  0  0
   38.2450   22.9180   36.0780 C   0  0  0  0  0  0  0  0  0  0  0  0
   39.5450   22.8190   36.3940 N   0  0  0  0  0  0  0  0  0  0  0  0
   37.9190   22.7420   34.7010 N   0  0  0  0  0  0  0  0  0  0  0  0
   38.4770   23.4570   33.6860 C   0  0  0  0  0  0  0  0  0  0  0  0
   38.0610   23.1710   32.3970 C   0  0  0  0  0  0  0  0  0  0  0  0
   37.1220   22.2030   32.1950 C   0  0  0  0  0  0  0  0  0  0  0  0
   36.7430   21.9460   31.0120 O   0  0  0  0  0  0  0  0  0  0  0  0
   36.5650   21.4960   33.1650 N   0  0  0  0  0  0  0  0  0  0  0  0
   36.9900   21.7940   34.4140 C   0  0  0  0  0  0  0  0  0  0  0  0
   36.4640   21.1210   35.3630 O   0  0  0  0  0  0  0  0  0  0  0  0
   35.5620   20.4570   32.9710 C   0  0  0  0  0  0  0  0  0  0  0  0
   36.1010   19.4410   32.1690 F   0  0  0  0  0  0  0  0  0  0  0  0
   34.4200   20.9420   32.3960 F   0  0  0  0  0  0  0  0  0  0  0  0
   35.2800   19.8920   34.2160 F   0  0  0  0  0  0  0  0  0  0  0  0
   38.6360   23.9160   31.2800 C   0  0  0  0  0  0  0  0  0  0  0  0
   38.2950   25.3340   31.2820 N   0  0  0  0  0  0  0  0  0  0  0  0
   39.0380   26.4420   31.4820 C   0  0  0  0  0  0  0  0  0  0  0  0
   38.2150   27.5240   31.3720 N   0  0  0  0  0  0  0  0  0  0  0  0
   36.9840   27.0070   31.1040 C   0  0  0  0  0  0  0  0  0  0  0  0
   37.0150   25.6640   31.0460 N   0  0  0  0  0  0  0  0  0  0  0  0
   41.0376   22.8784   37.9000 H   0  0  0  0  0  0  0  0  0  0  0  0
   39.3861   23.3550   39.7366 H   0  0  0  0  0  0  0  0  0  0  0  0
   36.9549   23.5366   39.1018 H   0  0  0  0  0  0  0  0  0  0  0  0
   39.2308   24.2336   33.8828 H   0  0  0  0  0  0  0  0  0  0  0  0
   38.2703   23.4725   30.3422 H   0  0  0  0  0  0  0  0  0  0  0  0
   39.7295   23.8488   31.3785 H   0  0  0  0  0  0  0  0  0  0  0  0
   40.1167   26.4682   31.6959 H   0  0  0  0  0  0  0  0  0  0  0  0
   36.0778   27.6122   30.9538 H   0  0  0  0  0  0  0  0  0  0  0  0
  1  2  2  0
  3  2  1  0
  4  3  2  0
  5  6  2  0
  5  4  1  0
  6  1  1  0
  7  5  1  0
  8  7  1  0
  9  8  2  0
 10  9  1  0
 10 12  1  0
 11 10  2  0
 12 13  1  0
 13  7  1  0
 13 14  2  0
 15 12  1  0
 15 18  1  0
 16 15  1  0
 17 15  1  0
 19 20  1  0
 19  9  1  0
 20 21  1  0
 22 21  2  0
 23 22  1  0
 24 23  2  0
 24 20  1  0
  1 25  1  0
  2 26  1  0
  3 27  1  0
  8 28  1  0
 19 29  1  0
 19 30  1  0
 21 31  1  0
 23 32  1  0
M  ISO  8  25  14  26  14  27  14  28  14  29   8  30   8  31  14  32  14
M  END
>  <minimizedAffinity>  (1) 
-5.56002283

>  <minimizedRMSD>  (1) 
2.75414705

$$$$
