
     RDKit          3D

 34 36  0  0  0  0  0  0  0  0999 V2000
   39.9750   22.9080   37.6710 C   0  0  0  0  0  0  0  0  0  0  0  0
   39.0670   23.2460   38.6700 C   0  0  0  0  0  0  0  0  0  0  0  0
   37.7320   23.3940   38.2880 C   0  0  0  0  0  0  0  0  0  0  0  0
   37.3690   23.2100   36.9890 N   0  0  0  0  0  0  0  0  0  0  0  0
   38.2800   22.8850   36.0570 C   0  0  0  0  0  0  0  0  0  0  0  0
   39.5700   22.7370   36.3970 N   0  0  0  0  0  0  0  0  0  0  0  0
   37.9640   22.6800   34.6840 N   0  0  0  0  0  0  0  0  0  0  0  0
   38.5500   23.3310   33.6590 C   0  0  0  0  0  0  0  0  0  0  0  0
   38.1430   23.0240   32.3770 C   0  0  0  0  0  0  0  0  0  0  0  0
   37.1660   22.0750   32.1780 C   0  0  0  0  0  0  0  0  0  0  0  0
   36.8010   21.8010   31.0130 O   0  0  0  0  0  0  0  0  0  0  0  0
   36.5670   21.4140   33.1740 N   0  0  0  0  0  0  0  0  0  0  0  0
   37.0020   21.7520   34.4290 C   0  0  0  0  0  0  0  0  0  0  0  0
   36.4440   21.1340   35.3780 O   0  0  0  0  0  0  0  0  0  0  0  0
   35.5370   20.4150   32.9900 C   0  0  0  0  0  0  0  0  0  0  0  0
   36.0250   19.3940   32.1800 F   0  0  0  0  0  0  0  0  0  0  0  0
   34.4040   20.9310   32.4420 F   0  0  0  0  0  0  0  0  0  0  0  0
   35.2760   19.8580   34.2480 F   0  0  0  0  0  0  0  0  0  0  0  0
   38.7550   23.7000   31.2380 C   0  0  0  0  0  0  0  0  0  0  0  0
   39.9120   22.9700   30.6690 C   0  0  0  0  0  0  0  0  0  0  0  0
   39.7710   22.6500   29.3130 C   0  0  0  0  0  0  0  0  0  0  0  0
   40.7580   21.9680   28.6120 C   0  0  0  0  0  0  0  0  0  0  0  0
   41.9000   21.5820   29.2160 N   0  0  0  0  0  0  0  0  0  0  0  0
   42.0110   21.9060   30.5340 C   0  0  0  0  0  0  0  0  0  0  0  0
   41.0600   22.5750   31.2480 N   0  0  0  0  0  0  0  0  0  0  0  0
   41.0375   22.7787   37.9246 H   0  0  0  0  0  0  0  0  0  0  0  0
   39.3863   23.3900   39.7128 H   0  0  0  0  0  0  0  0  0  0  0  0
   36.9725   23.6597   39.0380 H   0  0  0  0  0  0  0  0  0  0  0  0
   39.3301   24.0852   33.8397 H   0  0  0  0  0  0  0  0  0  0  0  0
   37.9946   23.8145   30.4514 H   0  0  0  0  0  0  0  0  0  0  0  0
   39.1300   24.6686   31.6001 H   0  0  0  0  0  0  0  0  0  0  0  0
   38.8517   22.9473   28.7872 H   0  0  0  0  0  0  0  0  0  0  0  0
   40.6052   21.7393   27.5469 H   0  0  0  0  0  0  0  0  0  0  0  0
   42.9305   21.6079   31.0591 H   0  0  0  0  0  0  0  0  0  0  0  0
  1  2  2  0
  3  2  1  0
  4  3  2  0
  5  6  2  0
  5  4  1  0
  6  1  1  0
  7  5  1  0
  8  7  1  0
  9  8  2  0
 10  9  1  0
 10 12  1  0
 11 10  2  0
 12 13  1  0
 13  7  1  0
 13 14  2  0
 15 12  1  0
 15 18  1  0
 16 15  1  0
 17 15  1  0
 19  9  1  0
 20 19  1  0
 20 25  1  0
 21 20  2  0
 22 23  2  0
 22 21  1  0
 23 24  1  0
 24 25  2  0
  1 26  1  0
  2 27  1  0
  3 28  1  0
  8 29  1  0
 19 30  1  0
 19 31  1  0
 21 32  1  0
 22 33  1  0
 24 34  1  0
M  ISO  8  26  14  27  14  28  14  29  14  30   8  31   8  32  14  33  14
M  ISO  1  34  14
M  END
>  <minimizedAffinity>  (1) 
-5.0687604

>  <minimizedRMSD>  (1) 
0.478828341

$$$$
