
     RDKit          3D

 27 28  0  0  0  0  0  0  0  0999 V2000
   40.0370   22.8040   37.7360 C   0  0  0  0  0  0  0  0  0  0  0  0
   39.1150   23.2750   38.6750 C   0  0  0  0  0  0  0  0  0  0  0  0
   37.8150   23.5120   38.2160 C   0  0  0  0  0  0  0  0  0  0  0  0
   37.5250   23.2750   36.9130 N   0  0  0  0  0  0  0  0  0  0  0  0
   38.4350   22.8220   36.0350 C   0  0  0  0  0  0  0  0  0  0  0  0
   39.6910   22.5880   36.4550 N   0  0  0  0  0  0  0  0  0  0  0  0
   38.1610   22.5610   34.6660 N   0  0  0  0  0  0  0  0  0  0  0  0
   38.8580   23.0930   33.6420 C   0  0  0  0  0  0  0  0  0  0  0  0
   38.4820   22.7530   32.3550 C   0  0  0  0  0  0  0  0  0  0  0  0
   37.4270   21.8990   32.1680 C   0  0  0  0  0  0  0  0  0  0  0  0
   37.0820   21.5870   30.9950 O   0  0  0  0  0  0  0  0  0  0  0  0
   36.7220   21.3600   33.1580 N   0  0  0  0  0  0  0  0  0  0  0  0
   37.1310   21.7240   34.4000 C   0  0  0  0  0  0  0  0  0  0  0  0
   36.4670   21.2160   35.3700 O   0  0  0  0  0  0  0  0  0  0  0  0
   35.6000   20.4500   32.9850 C   0  0  0  0  0  0  0  0  0  0  0  0
   36.0120   19.3730   32.1840 F   0  0  0  0  0  0  0  0  0  0  0  0
   34.5230   21.0630   32.4260 F   0  0  0  0  0  0  0  0  0  0  0  0
   35.2880   19.9180   34.2450 F   0  0  0  0  0  0  0  0  0  0  0  0
   39.2030   23.2950   31.2120 C   0  0  0  0  0  0  0  0  0  0  0  0
   39.8950   22.2630   30.5500 O   0  0  0  0  0  0  0  0  0  0  0  0
   41.0714   22.6051   38.0530 H   0  0  0  0  0  0  0  0  0  0  0  0
   39.3978   23.4507   39.7234 H   0  0  0  0  0  0  0  0  0  0  0  0
   37.0399   23.8849   38.9017 H   0  0  0  0  0  0  0  0  0  0  0  0
   39.7002   23.7767   33.8244 H   0  0  0  0  0  0  0  0  0  0  0  0
   38.4884   23.7597   30.5167 H   0  0  0  0  0  0  0  0  0  0  0  0
   39.9239   24.0485   31.5621 H   0  0  0  0  0  0  0  0  0  0  0  0
   40.3016   21.6566   31.2186 H   0  0  0  0  0  0  0  0  0  0  0  0
  1  2  2  0
  3  2  1  0
  4  3  2  0
  5  6  2  0
  5  4  1  0
  6  1  1  0
  7  5  1  0
  8  7  1  0
  9  8  2  0
 10  9  1  0
 10 12  1  0
 11 10  2  0
 12 13  1  0
 13  7  1  0
 13 14  2  0
 15 12  1  0
 15 18  1  0
 16 15  1  0
 17 15  1  0
 19  9  1  0
 20 19  1  0
  1 21  1  0
  2 22  1  0
  3 23  1  0
  8 24  1  0
 19 25  1  0
 19 26  1  0
 20 27  1  0
M  ISO  7  21  14  22  14  23  14  24  14  25   8  26   8  27   3
M  END
>  <minimizedAffinity>  (1) 
-5.06564379

>  <minimizedRMSD>  (1) 
0.0441868603

$$$$
