
     RDKit          3D

 31 33  0  0  0  0  0  0  0  0999 V2000
   39.9800   22.9710   37.6170 C   0  0  0  0  0  0  0  0  0  0  0  0
   39.0780   23.2280   38.6570 C   0  0  0  0  0  0  0  0  0  0  0  0
   37.7250   23.3260   38.3110 C   0  0  0  0  0  0  0  0  0  0  0  0
   37.3450   23.1710   37.0120 N   0  0  0  0  0  0  0  0  0  0  0  0
   38.2580   22.9240   36.0450 C   0  0  0  0  0  0  0  0  0  0  0  0
   39.5480   22.8280   36.3510 N   0  0  0  0  0  0  0  0  0  0  0  0
   37.9100   22.7550   34.6730 N   0  0  0  0  0  0  0  0  0  0  0  0
   38.4470   23.4870   33.6640 C   0  0  0  0  0  0  0  0  0  0  0  0
   38.0170   23.2180   32.3740 C   0  0  0  0  0  0  0  0  0  0  0  0
   37.0760   22.2340   32.1660 C   0  0  0  0  0  0  0  0  0  0  0  0
   36.6830   21.9860   30.9950 O   0  0  0  0  0  0  0  0  0  0  0  0
   36.5440   21.5100   33.1460 N   0  0  0  0  0  0  0  0  0  0  0  0
   36.9830   21.7980   34.3920 C   0  0  0  0  0  0  0  0  0  0  0  0
   36.4820   21.1150   35.3370 O   0  0  0  0  0  0  0  0  0  0  0  0
   35.5460   20.4640   32.9450 C   0  0  0  0  0  0  0  0  0  0  0  0
   36.0740   19.4680   32.1320 F   0  0  0  0  0  0  0  0  0  0  0  0
   34.3970   20.9510   32.3870 F   0  0  0  0  0  0  0  0  0  0  0  0
   35.2660   19.9010   34.2020 F   0  0  0  0  0  0  0  0  0  0  0  0
   38.5530   23.9690   31.2510 C   0  0  0  0  0  0  0  0  0  0  0  0
   39.8040   23.4030   30.6650 C   0  0  0  0  0  0  0  0  0  0  0  0
   41.0920   23.3980   31.0850 N   0  0  0  0  0  0  0  0  0  0  0  0
   41.8320   22.7710   30.2230 O   0  0  0  0  0  0  0  0  0  0  0  0
   41.1040   22.3470   29.2300 C   0  0  0  0  0  0  0  0  0  0  0  0
   39.8510   22.7370   29.5020 N   0  0  0  0  0  0  0  0  0  0  0  0
   41.0542   22.8851   37.8378 H   0  0  0  0  0  0  0  0  0  0  0  0
   39.4166   23.3472   39.6968 H   0  0  0  0  0  0  0  0  0  0  0  0
   36.9708   23.5276   39.0859 H   0  0  0  0  0  0  0  0  0  0  0  0
   39.1972   24.2665   33.8630 H   0  0  0  0  0  0  0  0  0  0  0  0
   37.7874   23.9990   30.4617 H   0  0  0  0  0  0  0  0  0  0  0  0
   38.8131   24.9653   31.6380 H   0  0  0  0  0  0  0  0  0  0  0  0
   41.4470   21.7844   28.3491 H   0  0  0  0  0  0  0  0  0  0  0  0
  1  2  2  0
  3  2  1  0
  4  3  2  0
  5  6  2  0
  5  4  1  0
  6  1  1  0
  7  5  1  0
  8  7  1  0
  9  8  2  0
 10  9  1  0
 10 12  1  0
 11 10  2  0
 12 13  1  0
 13  7  1  0
 13 14  2  0
 15 12  1  0
 15 18  1  0
 16 15  1  0
 17 15  1  0
 19  9  1  0
 20 21  2  0
 20 19  1  0
 22 21  1  0
 23 24  2  0
 23 22  1  0
 24 20  1  0
  1 25  1  0
  2 26  1  0
  3 27  1  0
  8 28  1  0
 19 29  1  0
 19 30  1  0
 23 31  1  0
M  ISO  7  25  14  26  14  27  14  28  14  29   8  30   8  31  14
M  END
>  <minimizedAffinity>  (1) 
-4.9844017

>  <minimizedRMSD>  (1) 
0.717026114

$$$$
