
     RDKit          3D

 38 41  0  0  0  0  0  0  0  0999 V2000
   38.2290   24.2310   34.6760 C   0  0  0  0  0  0  0  0  0  0  0  0
   37.7770   25.3570   33.9690 C   0  0  0  0  0  0  0  0  0  0  0  0
   37.2510   25.1520   32.6850 C   0  0  0  0  0  0  0  0  0  0  0  0
   37.2060   23.8900   32.1930 N   0  0  0  0  0  0  0  0  0  0  0  0
   37.6540   22.8410   32.9100 C   0  0  0  0  0  0  0  0  0  0  0  0
   38.1590   23.0020   34.1350 N   0  0  0  0  0  0  0  0  0  0  0  0
   36.8200   26.3260   32.0420 N   0  0  0  0  0  0  0  0  0  0  0  0
   36.6930   26.4980   30.7250 C   0  0  0  0  0  0  0  0  0  0  0  0
   36.2610   27.7290   30.4420 N   0  0  0  0  0  0  0  0  0  0  0  0
   36.1000   28.3850   31.6240 C   0  0  0  0  0  0  0  0  0  0  0  0
   35.6800   29.6680   31.9090 C   0  0  0  0  0  0  0  0  0  0  0  0
   35.6300   30.0140   33.2040 N   0  0  0  0  0  0  0  0  0  0  0  0
   35.9660   29.1720   34.1940 C   0  0  0  0  0  0  0  0  0  0  0  0
   36.3790   27.9110   33.9030 N   0  0  0  0  0  0  0  0  0  0  0  0
   36.4510   27.5020   32.6230 C   0  0  0  0  0  0  0  0  0  0  0  0
   38.7850   24.2680   35.9810 N   0  0  0  0  0  0  0  0  0  0  0  0
   39.9200   23.5250   36.4320 C   0  0  0  0  0  0  0  0  0  0  0  0
   39.7980   22.7780   37.6880 C   0  0  0  0  0  0  0  0  0  0  0  0
   38.8710   23.3170   38.7300 C   0  0  0  0  0  0  0  0  0  0  0  0
   37.7320   24.1250   38.1580 C   0  0  0  0  0  0  0  0  0  0  0  0
   38.2950   25.0690   37.0800 C   0  0  0  0  0  0  0  0  0  0  0  0
   35.3170   30.5810   30.8820 N   0  0  0  0  0  0  0  0  0  0  0  0
   37.8335   26.3645   34.4068 H   0  0  0  0  0  0  0  0  0  0  0  0
   37.6025   21.8311   32.4770 H   0  0  0  0  0  0  0  0  0  0  0  0
   36.9149   25.7274   29.9720 H   0  0  0  0  0  0  0  0  0  0  0  0
   35.9069   29.5032   35.2413 H   0  0  0  0  0  0  0  0  0  0  0  0
   40.1713   22.8005   35.6434 H   0  0  0  0  0  0  0  0  0  0  0  0
   40.6841   24.2887   36.6392 H   0  0  0  0  0  0  0  0  0  0  0  0
   39.4542   21.7642   37.4352 H   0  0  0  0  0  0  0  0  0  0  0  0
   40.7964   22.8389   38.1458 H   0  0  0  0  0  0  0  0  0  0  0  0
   38.4501   22.4712   39.2935 H   0  0  0  0  0  0  0  0  0  0  0  0
   39.4586   23.9915   39.3701 H   0  0  0  0  0  0  0  0  0  0  0  0
   36.9879   23.4508   37.7088 H   0  0  0  0  0  0  0  0  0  0  0  0
   37.2474   24.7091   38.9543 H   0  0  0  0  0  0  0  0  0  0  0  0
   39.1183   25.6646   37.5013 H   0  0  0  0  0  0  0  0  0  0  0  0
   37.5077   25.7517   36.7277 H   0  0  0  0  0  0  0  0  0  0  0  0
   35.0071   31.5328   31.1249 H   0  0  0  0  0  0  0  0  0  0  0  0
   35.3639   30.2909   29.8948 H   0  0  0  0  0  0  0  0  0  0  0  0
  1 16  1  0
  2  1  2  0
  3  2  1  0
  4  3  2  0
  4  5  1  0
  5  6  2  0
  6  1  1  0
  7 15  1  0
  7  3  1  0
  8  7  1  0
  9  8  2  0
  9 10  1  0
 10 11  2  0
 10 15  1  0
 11 12  1  0
 12 13  2  0
 14 13  1  0
 15 14  2  0
 16 17  1  0
 16 21  1  0
 17 18  1  0
 18 19  1  0
 20 19  1  0
 21 20  1  0
 22 11  1  0
  2 23  1  0
  5 24  1  0
  8 25  1  0
 13 26  1  0
 17 27  1  0
 17 28  1  0
 18 29  1  0
 18 30  1  0
 19 31  1  0
 19 32  1  0
 20 33  1  0
 20 34  1  0
 21 35  1  0
 21 36  1  0
 22 37  1  0
 22 38  1  0
M  ISO  8  23  14  24  14  25  14  26  14  27  13  28  13  29  13  30  13
M  ISO  6  31  13  32  13  33  13  34  13  35  13  36  13
M  END
>  <minimizedAffinity>  (1) 
-5.74355125

>  <minimizedRMSD>  (1) 
2.20176148

$$$$
