
     RDKit          3D

 36 39  0  0  0  0  0  0  0  0999 V2000
   38.0800   24.6280   34.4360 C   0  0  0  0  0  0  0  0  0  0  0  0
   37.7360   25.8380   33.8430 C   0  0  0  0  0  0  0  0  0  0  0  0
   37.1440   25.8070   32.5880 C   0  0  0  0  0  0  0  0  0  0  0  0
   36.9320   24.6020   32.0050 N   0  0  0  0  0  0  0  0  0  0  0  0
   37.2780   23.4390   32.6080 C   0  0  0  0  0  0  0  0  0  0  0  0
   37.8470   23.4740   33.8160 N   0  0  0  0  0  0  0  0  0  0  0  0
   36.7810   27.0200   31.9560 N   0  0  0  0  0  0  0  0  0  0  0  0
   36.7490   27.4330   30.6660 C   0  0  0  0  0  0  0  0  0  0  0  0
   36.3210   28.7010   30.5830 N   0  0  0  0  0  0  0  0  0  0  0  0
   36.0670   29.1340   31.8190 C   0  0  0  0  0  0  0  0  0  0  0  0
   35.6030   30.3580   32.3140 C   0  0  0  0  0  0  0  0  0  0  0  0
   35.4310   30.5300   33.6480 N   0  0  0  0  0  0  0  0  0  0  0  0
   35.7180   29.4890   34.4620 C   0  0  0  0  0  0  0  0  0  0  0  0
   36.1640   28.3050   34.0100 N   0  0  0  0  0  0  0  0  0  0  0  0
   36.3520   28.0830   32.6980 C   0  0  0  0  0  0  0  0  0  0  0  0
   38.6910   24.5020   35.7160 N   0  0  0  0  0  0  0  0  0  0  0  0
   39.8390   23.6980   36.0310 C   0  0  0  0  0  0  0  0  0  0  0  0
   39.7630   22.7990   37.1910 C   0  0  0  0  0  0  0  0  0  0  0  0
   38.8910   23.2120   38.3250 C   0  0  0  0  0  0  0  0  0  0  0  0
   37.7310   24.0940   37.9050 C   0  0  0  0  0  0  0  0  0  0  0  0
   38.2710   25.1590   36.9260 C   0  0  0  0  0  0  0  0  0  0  0  0
   37.9277   26.7929   34.3543 H   0  0  0  0  0  0  0  0  0  0  0  0
   37.0924   22.4768   32.1083 H   0  0  0  0  0  0  0  0  0  0  0  0
   37.0352   26.8125   29.8040 H   0  0  0  0  0  0  0  0  0  0  0  0
   35.3776   31.1814   31.6203 H   0  0  0  0  0  0  0  0  0  0  0  0
   35.5797   29.6177   35.5457 H   0  0  0  0  0  0  0  0  0  0  0  0
   40.0521   23.0752   35.1497 H   0  0  0  0  0  0  0  0  0  0  0  0
   40.6151   24.4282   36.3039 H   0  0  0  0  0  0  0  0  0  0  0  0
   39.3963   21.8265   36.8307 H   0  0  0  0  0  0  0  0  0  0  0  0
   40.7809   22.7931   37.6080 H   0  0  0  0  0  0  0  0  0  0  0  0
   38.4858   22.3066   38.8005 H   0  0  0  0  0  0  0  0  0  0  0  0
   39.5134   23.8017   39.0141 H   0  0  0  0  0  0  0  0  0  0  0  0
   36.9609   23.4861   37.4076 H   0  0  0  0  0  0  0  0  0  0  0  0
   37.2805   24.5771   38.7846 H   0  0  0  0  0  0  0  0  0  0  0  0
   39.1265   25.6799   37.3806 H   0  0  0  0  0  0  0  0  0  0  0  0
   37.4844   25.8940   36.7001 H   0  0  0  0  0  0  0  0  0  0  0  0
  1 16  1  0
  2  1  2  0
  3  2  1  0
  4  3  2  0
  4  5  1  0
  5  6  2  0
  6  1  1  0
  7  3  1  0
  7 15  1  0
  8  7  1  0
  9  8  2  0
  9 10  1  0
 10 11  2  0
 10 15  1  0
 11 12  1  0
 12 13  2  0
 14 13  1  0
 15 14  2  0
 16 17  1  0
 16 21  1  0
 17 18  1  0
 18 19  1  0
 20 19  1  0
 21 20  1  0
  2 22  1  0
  5 23  1  0
  8 24  1  0
 11 25  1  0
 13 26  1  0
 17 27  1  0
 17 28  1  0
 18 29  1  0
 18 30  1  0
 19 31  1  0
 19 32  1  0
 20 33  1  0
 20 34  1  0
 21 35  1  0
 21 36  1  0
M  ISO  8  22  14  23  14  24  14  25  14  26  14  27  13  28  13  29  13
M  ISO  7  30  13  31  13  32  13  33  13  34  13  35  13  36  13
M  END
>  <minimizedAffinity>  (1) 
-5.57966948

>  <minimizedRMSD>  (1) 
2.54163194

$$$$
