
     RDKit          3D

 44 48  0  0  0  0  0  0  0  0999 V2000
   40.7440   26.8230   34.6190 C   0  0  0  0  0  0  0  0  0  0  0  0
   43.1950   24.0780   35.2150 C   0  0  0  0  0  0  0  0  0  0  0  0
   42.5490   23.0080   34.5870 C   0  0  0  0  0  0  0  0  0  0  0  0
   41.3200   23.2130   33.9810 C   0  0  0  0  0  0  0  0  0  0  0  0
   40.8040   24.4810   34.0370 N   0  0  0  0  0  0  0  0  0  0  0  0
   41.4520   25.5010   34.6530 C   0  0  0  0  0  0  0  0  0  0  0  0
   42.6260   25.3020   35.2310 N   0  0  0  0  0  0  0  0  0  0  0  0
   40.5590   22.1340   33.2900 C   0  0  0  0  0  0  0  0  0  0  0  0
   41.2310   21.0570   32.6860 C   0  0  0  0  0  0  0  0  0  0  0  0
   39.8230   20.1030   32.0200 S   0  0  0  0  0  0  0  0  0  0  0  0
   38.5660   21.3470   32.6870 C   0  0  0  0  0  0  0  0  0  0  0  0
   39.2530   22.2350   33.2670 N   0  0  0  0  0  0  0  0  0  0  0  0
   37.1450   21.1180   32.4560 N   0  0  0  0  0  0  0  0  0  0  0  0
   36.5090   20.9140   31.2900 C   0  0  0  0  0  0  0  0  0  0  0  0
   35.1910   20.7570   31.6650 C   0  0  0  0  0  0  0  0  0  0  0  0
   35.0970   20.8720   33.0230 N   0  0  0  0  0  0  0  0  0  0  0  0
   36.3510   21.1020   33.5110 C   0  0  0  0  0  0  0  0  0  0  0  0
   39.3980   26.7100   35.2860 C   0  0  0  0  0  0  0  0  0  0  0  0
   38.3220   27.3040   34.4590 C   0  0  0  0  0  0  0  0  0  0  0  0
   37.1790   27.7940   35.0790 C   0  0  0  0  0  0  0  0  0  0  0  0
   36.1050   28.3750   34.3980 C   0  0  0  0  0  0  0  0  0  0  0  0
   36.2100   28.4540   33.0380 N   0  0  0  0  0  0  0  0  0  0  0  0
   37.3430   27.9670   32.4330 C   0  0  0  0  0  0  0  0  0  0  0  0
   38.3570   27.4130   33.1440 N   0  0  0  0  0  0  0  0  0  0  0  0
   37.4860   28.0360   30.9840 C   0  0  0  0  0  0  0  0  0  0  0  0
   38.7590   27.9880   30.4180 C   0  0  0  0  0  0  0  0  0  0  0  0
   38.5710   28.0760   29.0150 C   0  0  0  0  0  0  0  0  0  0  0  0
   37.2140   28.1710   28.8080 N   0  0  0  0  0  0  0  0  0  0  0  0
   36.5890   28.1470   29.9700 N   0  0  0  0  0  0  0  0  0  0  0  0
   41.3498   27.5733   35.1482 H   0  0  0  0  0  0  0  0  0  0  0  0
   40.6009   27.1265   33.5714 H   0  0  0  0  0  0  0  0  0  0  0  0
   44.1709   23.9214   35.6979 H   0  0  0  0  0  0  0  0  0  0  0  0
   43.0134   22.0109   34.5743 H   0  0  0  0  0  0  0  0  0  0  0  0
   42.3092   20.8465   32.6299 H   0  0  0  0  0  0  0  0  0  0  0  0
   36.9375   20.8802   30.2775 H   0  0  0  0  0  0  0  0  0  0  0  0
   34.3506   20.5693   30.9806 H   0  0  0  0  0  0  0  0  0  0  0  0
   36.6396   21.2442   34.5629 H   0  0  0  0  0  0  0  0  0  0  0  0
   39.1720   25.6466   35.4538 H   0  0  0  0  0  0  0  0  0  0  0  0
   39.4409   27.2603   36.2375 H   0  0  0  0  0  0  0  0  0  0  0  0
   37.1152   27.7201   36.1747 H   0  0  0  0  0  0  0  0  0  0  0  0
   35.2189   28.7501   34.9310 H   0  0  0  0  0  0  0  0  0  0  0  0
   39.7166   27.8997   30.9520 H   0  0  0  0  0  0  0  0  0  0  0  0
   39.3556   28.0696   28.2441 H   0  0  0  0  0  0  0  0  0  0  0  0
   36.7568   28.2488   27.8883 H   0  0  0  0  0  0  0  0  0  0  0  0
  1  6  1  0
  1 18  1  0
  2  7  2  0
  3  2  1  0
  4  5  1  0
  4  3  2  0
  5  6  2  0
  6  7  1  0
  8  4  1  0
  9  8  2  0
 10  9  1  0
 10 11  1  0
 11 12  2  0
 12  8  1  0
 13 11  1  0
 13 17  1  0
 14 15  2  0
 14 13  1  0
 15 16  1  0
 16 17  2  0
 19 20  2  0
 19 18  1  0
 21 20  1  0
 22 21  2  0
 23 22  1  0
 23 24  2  0
 24 19  1  0
 25 23  1  0
 26 25  1  0
 27 26  2  0
 28 27  1  0
 28 29  1  0
 29 25  2  0
  1 30  1  0
  1 31  1  0
  2 32  1  0
  3 33  1  0
  9 34  1  0
 14 35  1  0
 15 36  1  0
 17 37  1  0
 18 38  1  0
 18 39  1  0
 20 40  1  0
 21 41  1  0
 26 42  1  0
 27 43  1  0
 28 44  1  0
M  ISO  8  30   8  31   8  32  14  33  14  34  14  35  14  36  14  37  14
M  ISO  7  38   8  39   8  40  14  41  14  42  14  43  14  44   9
M  END
>  <minimizedAffinity>  (1) 
-5.39058304

>  <minimizedRMSD>  (1) 
3.05117846

$$$$
