
     RDKit          3D

 31 33  0  0  0  0  0  0  0  0999 V2000
   38.7750   24.2810   35.9470 N   0  0  0  0  0  0  0  0  0  0  0  0
   39.9120   23.4940   36.3550 C   0  0  0  0  0  0  0  0  0  0  0  0
   39.8070   22.7410   37.6080 C   0  0  0  0  0  0  0  0  0  0  0  0
   38.8940   23.2550   38.6700 C   0  0  0  0  0  0  0  0  0  0  0  0
   37.7780   24.1010   38.1390 C   0  0  0  0  0  0  0  0  0  0  0  0
   38.3210   25.0510   37.0760 C   0  0  0  0  0  0  0  0  0  0  0  0
   38.2050   24.2880   34.6450 C   0  0  0  0  0  0  0  0  0  0  0  0
   37.9500   25.4420   33.9030 C   0  0  0  0  0  0  0  0  0  0  0  0
   37.3880   25.2970   32.6400 C   0  0  0  0  0  0  0  0  0  0  0  0
   37.1170   24.0430   32.1960 N   0  0  0  0  0  0  0  0  0  0  0  0
   37.3780   22.9440   32.9430 C   0  0  0  0  0  0  0  0  0  0  0  0
   37.9190   23.0700   34.1610 N   0  0  0  0  0  0  0  0  0  0  0  0
   37.1250   26.4700   31.8800 N   0  0  0  0  0  0  0  0  0  0  0  0
   37.8560   27.5810   32.1180 C   0  0  0  0  0  0  0  0  0  0  0  0
   37.4370   28.5530   31.2900 N   0  0  0  0  0  0  0  0  0  0  0  0
   36.4360   28.0460   30.5280 C   0  0  0  0  0  0  0  0  0  0  0  0
   36.2500   26.7520   30.9010 N   0  0  0  0  0  0  0  0  0  0  0  0
   40.1145   22.7693   35.5526 H   0  0  0  0  0  0  0  0  0  0  0  0
   40.7073   24.2310   36.5403 H   0  0  0  0  0  0  0  0  0  0  0  0
   39.4679   21.7267   37.3505 H   0  0  0  0  0  0  0  0  0  0  0  0
   40.8098   22.8163   38.0537 H   0  0  0  0  0  0  0  0  0  0  0  0
   38.4578   22.3956   39.2002 H   0  0  0  0  0  0  0  0  0  0  0  0
   39.4961   23.8925   39.3342 H   0  0  0  0  0  0  0  0  0  0  0  0
   37.0077   23.4543   37.6937 H   0  0  0  0  0  0  0  0  0  0  0  0
   37.3371   24.6841   38.9609 H   0  0  0  0  0  0  0  0  0  0  0  0
   39.1609   25.6275   37.4910 H   0  0  0  0  0  0  0  0  0  0  0  0
   37.5289   25.7450   36.7582 H   0  0  0  0  0  0  0  0  0  0  0  0
   38.1869   26.4377   34.3060 H   0  0  0  0  0  0  0  0  0  0  0  0
   37.1447   21.9444   32.5476 H   0  0  0  0  0  0  0  0  0  0  0  0
   38.6590   27.6742   32.8640 H   0  0  0  0  0  0  0  0  0  0  0  0
   35.8760   28.5844   29.7492 H   0  0  0  0  0  0  0  0  0  0  0  0
  1  2  1  0
  1  6  1  0
  2  3  1  0
  3  4  1  0
  5  4  1  0
  6  5  1  0
  7  1  1  0
  8  7  2  0
  9  8  1  0
 10  9  2  0
 10 11  1  0
 11 12  2  0
 12  7  1  0
 13 14  1  0
 13  9  1  0
 15 14  2  0
 16 17  2  0
 16 15  1  0
 17 13  1  0
  2 18  1  0
  2 19  1  0
  3 20  1  0
  3 21  1  0
  4 22  1  0
  4 23  1  0
  5 24  1  0
  5 25  1  0
  6 26  1  0
  6 27  1  0
  8 28  1  0
 11 29  1  0
 14 30  1  0
 16 31  1  0
M  ISO  8  18  13  19  13  20  13  21  13  22  13  23  13  24  13  25  13
M  ISO  6  26  13  27  13  28  14  29  14  30  14  31  14
M  END
>  <minimizedAffinity>  (1) 
-4.69357157

>  <minimizedRMSD>  (1) 
1.78001082

$$$$
