
     RDKit          3D

 33 35  0  0  0  0  0  0  0  0999 V2000
   38.7200   24.4640   35.7080 N   0  0  0  0  0  0  0  0  0  0  0  0
   39.8670   23.6920   36.0410 C   0  0  0  0  0  0  0  0  0  0  0  0
   39.7680   22.8030   37.2200 C   0  0  0  0  0  0  0  0  0  0  0  0
   38.8950   23.2420   38.3320 C   0  0  0  0  0  0  0  0  0  0  0  0
   37.7040   24.0710   37.8840 C   0  0  0  0  0  0  0  0  0  0  0  0
   38.2350   25.1290   36.9040 C   0  0  0  0  0  0  0  0  0  0  0  0
   38.1170   24.5890   34.4210 C   0  0  0  0  0  0  0  0  0  0  0  0
   37.7570   25.7880   33.8140 C   0  0  0  0  0  0  0  0  0  0  0  0
   37.1770   25.7450   32.5570 C   0  0  0  0  0  0  0  0  0  0  0  0
   36.9840   24.5380   31.9730 N   0  0  0  0  0  0  0  0  0  0  0  0
   37.3420   23.3930   32.5830 C   0  0  0  0  0  0  0  0  0  0  0  0
   37.9060   23.4180   33.8000 N   0  0  0  0  0  0  0  0  0  0  0  0
   36.7970   27.0010   31.9170 C   0  0  0  0  0  0  0  0  0  0  0  0
   37.2760   27.3290   30.6660 C   0  0  0  0  0  0  0  0  0  0  0  0
   36.8410   28.5430   30.1770 C   0  0  0  0  0  0  0  0  0  0  0  0
   36.0110   29.3600   30.8520 N   0  0  0  0  0  0  0  0  0  0  0  0
   35.5630   28.9920   32.0860 C   0  0  0  0  0  0  0  0  0  0  0  0
   35.9660   27.8030   32.6080 N   0  0  0  0  0  0  0  0  0  0  0  0
   40.1052   23.0621   35.1713 H   0  0  0  0  0  0  0  0  0  0  0  0
   40.6368   24.4309   36.3084 H   0  0  0  0  0  0  0  0  0  0  0  0
   39.3921   21.8305   36.8694 H   0  0  0  0  0  0  0  0  0  0  0  0
   40.7816   22.7876   37.6470 H   0  0  0  0  0  0  0  0  0  0  0  0
   38.5198   22.3484   38.8523 H   0  0  0  0  0  0  0  0  0  0  0  0
   39.5051   23.8834   38.9850 H   0  0  0  0  0  0  0  0  0  0  0  0
   36.9644   23.4293   37.3827 H   0  0  0  0  0  0  0  0  0  0  0  0
   37.2108   24.5462   38.7448 H   0  0  0  0  0  0  0  0  0  0  0  0
   39.0574   25.6878   37.3745 H   0  0  0  0  0  0  0  0  0  0  0  0
   37.4284   25.8285   36.6392 H   0  0  0  0  0  0  0  0  0  0  0  0
   37.9292   26.7488   34.3211 H   0  0  0  0  0  0  0  0  0  0  0  0
   37.1709   22.4298   32.0801 H   0  0  0  0  0  0  0  0  0  0  0  0
   37.9537   26.6721   30.1010 H   0  0  0  0  0  0  0  0  0  0  0  0
   37.1906   28.8602   29.1834 H   0  0  0  0  0  0  0  0  0  0  0  0
   34.8849   29.6480   32.6515 H   0  0  0  0  0  0  0  0  0  0  0  0
  1  2  1  0
  1  6  1  0
  2  3  1  0
  3  4  1  0
  5  4  1  0
  6  5  1  0
  7  1  1  0
  8  7  2  0
  9  8  1  0
 10  9  2  0
 10 11  1  0
 11 12  2  0
 12  7  1  0
 13  9  1  0
 13 18  1  0
 14 13  2  0
 15 14  1  0
 15 16  2  0
 16 17  1  0
 17 18  2  0
  2 19  1  0
  2 20  1  0
  3 21  1  0
  3 22  1  0
  4 23  1  0
  4 24  1  0
  5 25  1  0
  5 26  1  0
  6 27  1  0
  6 28  1  0
  8 29  1  0
 11 30  1  0
 14 31  1  0
 15 32  1  0
 17 33  1  0
M  ISO  8  19  13  20  13  21  13  22  13  23  13  24  13  25  13  26  13
M  ISO  7  27  13  28  13  29  14  30  14  31  14  32  14  33  14
M  END
>  <minimizedAffinity>  (1) 
-4.68085909

>  <minimizedRMSD>  (1) 
2.34868336

$$$$
