
     RDKit          3D

 32 34  0  0  0  0  0  0  0  0999 V2000
   38.7380   24.3850   35.7800 N   0  0  0  0  0  0  0  0  0  0  0  0
   39.8920   23.6240   36.1390 C   0  0  0  0  0  0  0  0  0  0  0  0
   39.8200   22.7730   37.3320 C   0  0  0  0  0  0  0  0  0  0  0  0
   38.9230   23.2120   38.4380 C   0  0  0  0  0  0  0  0  0  0  0  0
   37.7450   24.0370   37.9640 C   0  0  0  0  0  0  0  0  0  0  0  0
   38.2690   25.0770   36.9610 C   0  0  0  0  0  0  0  0  0  0  0  0
   38.1500   24.4540   34.4930 C   0  0  0  0  0  0  0  0  0  0  0  0
   37.8280   25.6290   33.8260 C   0  0  0  0  0  0  0  0  0  0  0  0
   37.2570   25.5570   32.5690 C   0  0  0  0  0  0  0  0  0  0  0  0
   37.0300   24.3340   32.0320 N   0  0  0  0  0  0  0  0  0  0  0  0
   37.3510   23.2020   32.7000 C   0  0  0  0  0  0  0  0  0  0  0  0
   37.9060   23.2700   33.9190 N   0  0  0  0  0  0  0  0  0  0  0  0
   36.9060   26.7560   31.8390 C   0  0  0  0  0  0  0  0  0  0  0  0
   36.3950   27.9100   32.3930 C   0  0  0  0  0  0  0  0  0  0  0  0
   36.2110   28.7710   31.3720 N   0  0  0  0  0  0  0  0  0  0  0  0
   36.6040   28.1460   30.2240 C   0  0  0  0  0  0  0  0  0  0  0  0
   37.0250   26.9210   30.5090 N   0  0  0  0  0  0  0  0  0  0  0  0
   40.1294   22.9705   35.2866 H   0  0  0  0  0  0  0  0  0  0  0  0
   40.6492   24.3812   36.3907 H   0  0  0  0  0  0  0  0  0  0  0  0
   39.4799   21.7786   37.0072 H   0  0  0  0  0  0  0  0  0  0  0  0
   40.8319   22.8075   37.7619 H   0  0  0  0  0  0  0  0  0  0  0  0
   38.5389   22.3182   38.9513 H   0  0  0  0  0  0  0  0  0  0  0  0
   39.5193   23.8506   39.1063 H   0  0  0  0  0  0  0  0  0  0  0  0
   37.0054   23.3859   37.4750 H   0  0  0  0  0  0  0  0  0  0  0  0
   37.2600   24.5367   38.8155 H   0  0  0  0  0  0  0  0  0  0  0  0
   39.0975   25.6425   37.4125 H   0  0  0  0  0  0  0  0  0  0  0  0
   37.4646   25.7771   36.6913 H   0  0  0  0  0  0  0  0  0  0  0  0
   38.0250   26.6055   34.2925 H   0  0  0  0  0  0  0  0  0  0  0  0
   37.1559   22.2215   32.2412 H   0  0  0  0  0  0  0  0  0  0  0  0
   36.1801   28.0922   33.4563 H   0  0  0  0  0  0  0  0  0  0  0  0
   36.5759   28.5897   29.2179 H   0  0  0  0  0  0  0  0  0  0  0  0
   37.3777   26.2249   29.8367 H   0  0  0  0  0  0  0  0  0  0  0  0
  1  2  1  0
  1  6  1  0
  2  3  1  0
  3  4  1  0
  5  4  1  0
  6  5  1  0
  7  1  1  0
  8  7  2  0
  9  8  1  0
 10  9  2  0
 10 11  1  0
 11 12  2  0
 12  7  1  0
 13 14  2  0
 13  9  1  0
 15 14  1  0
 16 17  1  0
 16 15  2  0
 17 13  1  0
  2 18  1  0
  2 19  1  0
  3 20  1  0
  3 21  1  0
  4 22  1  0
  4 23  1  0
  5 24  1  0
  5 25  1  0
  6 26  1  0
  6 27  1  0
  8 28  1  0
 11 29  1  0
 14 30  1  0
 16 31  1  0
 17 32  1  0
M  ISO  8  18  13  19  13  20  13  21  13  22  13  23  13  24  13  25  13
M  ISO  7  26  13  27  13  28  14  29  14  30  14  31  14  32   9
M  END
>  <minimizedAffinity>  (1) 
-4.5792017

>  <minimizedRMSD>  (1) 
2.13821483

$$$$
