
     RDKit          3D

 28 29  0  0  0  0  0  0  0  0999 V2000
   38.6430   23.6150   35.6680 N   0  0  0  0  0  0  0  0  0  0  0  0
   39.8720   23.1180   36.1890 C   0  0  0  0  0  0  0  0  0  0  0  0
   39.9000   22.7430   37.6200 C   0  0  0  0  0  0  0  0  0  0  0  0
   38.9880   23.4440   38.5540 C   0  0  0  0  0  0  0  0  0  0  0  0
   37.7490   23.9960   37.8950 C   0  0  0  0  0  0  0  0  0  0  0  0
   38.1450   24.6440   36.5600 C   0  0  0  0  0  0  0  0  0  0  0  0
   38.0050   23.1800   34.4740 C   0  0  0  0  0  0  0  0  0  0  0  0
   37.7540   23.9970   33.3600 C   0  0  0  0  0  0  0  0  0  0  0  0
   37.1240   23.4380   32.2650 C   0  0  0  0  0  0  0  0  0  0  0  0
   36.7760   22.1300   32.3090 N   0  0  0  0  0  0  0  0  0  0  0  0
   37.0320   21.3720   33.3960 C   0  0  0  0  0  0  0  0  0  0  0  0
   37.6410   21.9030   34.4580 N   0  0  0  0  0  0  0  0  0  0  0  0
   36.8500   24.2470   31.1050 C   0  0  0  0  0  0  0  0  0  0  0  0
   35.8000   24.9000   31.0080 O   0  0  0  0  0  0  0  0  0  0  0  0
   37.7820   24.3060   30.0590 O   0  0  0  0  0  0  0  0  0  0  0  0
   40.1396   22.2234   35.6076 H   0  0  0  0  0  0  0  0  0  0  0  0
   40.5757   23.9591   36.1036 H   0  0  0  0  0  0  0  0  0  0  0  0
   39.6631   21.6704   37.6790 H   0  0  0  0  0  0  0  0  0  0  0  0
   40.9056   23.0371   37.9551 H   0  0  0  0  0  0  0  0  0  0  0  0
   38.6784   22.7339   39.3350 H   0  0  0  0  0  0  0  0  0  0  0  0
   39.5436   24.3016   38.9612 H   0  0  0  0  0  0  0  0  0  0  0  0
   37.0331   23.1810   37.7123 H   0  0  0  0  0  0  0  0  0  0  0  0
   37.2800   24.7454   38.5495 H   0  0  0  0  0  0  0  0  0  0  0  0
   38.9302   25.3948   36.7325 H   0  0  0  0  0  0  0  0  0  0  0  0
   37.2698   25.1356   36.1102 H   0  0  0  0  0  0  0  0  0  0  0  0
   38.0516   25.0560   33.3592 H   0  0  0  0  0  0  0  0  0  0  0  0
   36.7374   20.3122   33.4065 H   0  0  0  0  0  0  0  0  0  0  0  0
   37.5958   24.8613   29.2608 H   0  0  0  0  0  0  0  0  0  0  0  0
  1  2  1  0
  1  6  1  0
  2  3  1  0
  3  4  1  0
  5  4  1  0
  6  5  1  0
  7  1  1  0
  8  7  2  0
  9 10  2  0
  9  8  1  0
 10 11  1  0
 11 12  2  0
 12  7  1  0
 13  9  1  0
 14 13  2  0
 15 13  1  0
  2 16  1  0
  2 17  1  0
  3 18  1  0
  3 19  1  0
  4 20  1  0
  4 21  1  0
  5 22  1  0
  5 23  1  0
  6 24  1  0
  6 25  1  0
  8 26  1  0
 11 27  1  0
 15 28  1  0
M  ISO  8  16  13  17  13  18  13  19  13  20  13  21  13  22  13  23  13
M  ISO  5  24  13  25  13  26  14  27  14  28   3
M  END
>  <minimizedAffinity>  (1) 
-4.4357295

>  <minimizedRMSD>  (1) 
0.270882875

$$$$
