
     RDKit          3D

 42 45  0  0  0  0  0  0  0  0999 V2000
   37.8990   23.0090   34.6350 C   0  0  0  0  0  0  0  0  0  0  0  0
   37.7200   23.7350   33.4440 C   0  0  0  0  0  0  0  0  0  0  0  0
   36.9840   23.1250   32.4340 C   0  0  0  0  0  0  0  0  0  0  0  0
   36.4810   21.8890   32.6350 N   0  0  0  0  0  0  0  0  0  0  0  0
   36.6760   21.2280   33.7950 C   0  0  0  0  0  0  0  0  0  0  0  0
   37.3790   21.7880   34.7830 N   0  0  0  0  0  0  0  0  0  0  0  0
   38.6250   23.4880   35.7650 N   0  0  0  0  0  0  0  0  0  0  0  0
   39.8630   23.0080   36.2650 C   0  0  0  0  0  0  0  0  0  0  0  0
   39.9310   22.7050   37.7090 C   0  0  0  0  0  0  0  0  0  0  0  0
   39.0960   23.5040   38.6240 C   0  0  0  0  0  0  0  0  0  0  0  0
   37.8270   24.0480   38.0040 C   0  0  0  0  0  0  0  0  0  0  0  0
   38.1850   24.5940   36.6130 C   0  0  0  0  0  0  0  0  0  0  0  0
   36.8000   24.0940   30.9660 S   0  0  0  0  0  0  0  0  0  0  0  0
   38.4080   24.2510   30.1880 C   0  0  0  0  0  0  0  0  0  0  0  0
   39.1390   23.2080   29.6440 C   0  0  0  0  0  0  0  0  0  0  0  0
   40.3730   23.4580   29.0680 C   0  0  0  0  0  0  0  0  0  0  0  0
   40.8470   24.7630   29.0550 C   0  0  0  0  0  0  0  0  0  0  0  0
   40.1400   25.8160   29.5880 C   0  0  0  0  0  0  0  0  0  0  0  0
   40.6470   27.0930   29.5520 C   0  0  0  0  0  0  0  0  0  0  0  0
   39.9420   28.1500   30.0870 C   0  0  0  0  0  0  0  0  0  0  0  0
   38.7160   27.9160   30.6600 C   0  0  0  0  0  0  0  0  0  0  0  0
   38.2390   26.6230   30.6780 C   0  0  0  0  0  0  0  0  0  0  0  0
   38.9130   25.5350   30.1540 C   0  0  0  0  0  0  0  0  0  0  0  0
   38.1439   24.7420   33.3168 H   0  0  0  0  0  0  0  0  0  0  0  0
   36.2532   20.2212   33.9279 H   0  0  0  0  0  0  0  0  0  0  0  0
   40.1048   22.0835   35.7202 H   0  0  0  0  0  0  0  0  0  0  0  0
   40.5723   23.8349   36.1130 H   0  0  0  0  0  0  0  0  0  0  0  0
   39.6401   21.6518   37.8362 H   0  0  0  0  0  0  0  0  0  0  0  0
   40.9644   22.9527   37.9932 H   0  0  0  0  0  0  0  0  0  0  0  0
   38.8162   22.8682   39.4769 H   0  0  0  0  0  0  0  0  0  0  0  0
   39.6994   24.3760   38.9163 H   0  0  0  0  0  0  0  0  0  0  0  0
   37.0811   23.2449   37.9109 H   0  0  0  0  0  0  0  0  0  0  0  0
   37.4008   24.8436   38.6328 H   0  0  0  0  0  0  0  0  0  0  0  0
   38.9946   25.3331   36.7043 H   0  0  0  0  0  0  0  0  0  0  0  0
   37.3035   25.0766   36.1657 H   0  0  0  0  0  0  0  0  0  0  0  0
   38.7401   22.1832   29.6695 H   0  0  0  0  0  0  0  0  0  0  0  0
   40.9649   22.6407   28.6303 H   0  0  0  0  0  0  0  0  0  0  0  0
   41.8282   24.9632   28.5998 H   0  0  0  0  0  0  0  0  0  0  0  0
   41.6287   27.2741   29.0900 H   0  0  0  0  0  0  0  0  0  0  0  0
   40.3564   29.1685   30.0553 H   0  0  0  0  0  0  0  0  0  0  0  0
   38.1296   28.7395   31.0935 H   0  0  0  0  0  0  0  0  0  0  0  0
   37.2568   26.4446   31.1399 H   0  0  0  0  0  0  0  0  0  0  0  0
  1  6  1  0
  1  7  1  0
  2  1  2  0
  3  4  2  0
  3  2  1  0
  4  5  1  0
  5  6  2  0
  7  8  1  0
  7 12  1  0
  8  9  1  0
  9 10  1  0
 11 10  1  0
 12 11  1  0
 13  3  1  0
 14 13  1  0
 15 14  2  0
 16 15  1  0
 17 16  2  0
 17 18  1  0
 18 23  2  0
 19 18  1  0
 19 20  2  0
 20 21  1  0
 21 22  2  0
 23 14  1  0
 23 22  1  0
  2 24  1  0
  5 25  1  0
  8 26  1  0
  8 27  1  0
  9 28  1  0
  9 29  1  0
 10 30  1  0
 10 31  1  0
 11 32  1  0
 11 33  1  0
 12 34  1  0
 12 35  1  0
 15 36  1  0
 16 37  1  0
 17 38  1  0
 19 39  1  0
 20 40  1  0
 21 41  1  0
 22 42  1  0
M  ISO  8  24  14  25  14  26  13  27  13  28  13  29  13  30  13  31  13
M  ISO  8  32  13  33  13  34  13  35  13  36  14  37  14  38  14  39  14
M  ISO  3  40  14  41  14  42  14
M  END
>  <minimizedAffinity>  (1) 
-4.97066021

>  <minimizedRMSD>  (1) 
1.37691724

$$$$
