
     RDKit          3D

 42 44  0  0  0  0  0  0  0  0999 V2000
   38.6230   23.5330   35.7750 N   0  0  0  0  0  0  0  0  0  0  0  0
   39.8530   23.0400   36.3050 C   0  0  0  0  0  0  0  0  0  0  0  0
   39.9080   22.7250   37.7380 C   0  0  0  0  0  0  0  0  0  0  0  0
   39.0210   23.5100   38.6450 C   0  0  0  0  0  0  0  0  0  0  0  0
   37.7710   24.0420   37.9910 C   0  0  0  0  0  0  0  0  0  0  0  0
   38.1650   24.6140   36.6210 C   0  0  0  0  0  0  0  0  0  0  0  0
   37.9490   23.0550   34.6150 C   0  0  0  0  0  0  0  0  0  0  0  0
   37.8070   23.7680   33.4190 C   0  0  0  0  0  0  0  0  0  0  0  0
   37.1320   23.1950   32.3690 C   0  0  0  0  0  0  0  0  0  0  0  0
   36.6250   21.9420   32.5440 N   0  0  0  0  0  0  0  0  0  0  0  0
   36.7750   21.2740   33.7060 C   0  0  0  0  0  0  0  0  0  0  0  0
   37.4300   21.8280   34.7300 N   0  0  0  0  0  0  0  0  0  0  0  0
   37.0010   24.1610   30.9010 S   0  0  0  0  0  0  0  0  0  0  0  0
   37.2910   25.8970   31.3400 C   0  0  0  0  0  0  0  0  0  0  0  0
   36.0610   26.7050   31.0140 C   0  0  0  0  0  0  0  0  0  0  0  0
   36.2900   28.1790   31.0430 C   0  0  0  0  0  0  0  0  0  0  0  0
   37.6420   28.6330   30.6060 C   0  0  0  0  0  0  0  0  0  0  0  0
   38.7780   27.7870   31.0880 C   0  0  0  0  0  0  0  0  0  0  0  0
   38.5060   26.3640   30.5860 C   0  0  0  0  0  0  0  0  0  0  0  0
   40.0992   22.1182   35.7576 H   0  0  0  0  0  0  0  0  0  0  0  0
   40.5604   23.8729   36.1790 H   0  0  0  0  0  0  0  0  0  0  0  0
   39.6429   21.6637   37.8536 H   0  0  0  0  0  0  0  0  0  0  0  0
   40.9308   22.9875   38.0461 H   0  0  0  0  0  0  0  0  0  0  0  0
   38.7216   22.8596   39.4801 H   0  0  0  0  0  0  0  0  0  0  0  0
   39.6017   24.3863   38.9688 H   0  0  0  0  0  0  0  0  0  0  0  0
   37.0415   23.2290   37.8613 H   0  0  0  0  0  0  0  0  0  0  0  0
   37.3128   24.8227   38.6160 H   0  0  0  0  0  0  0  0  0  0  0  0
   38.9716   25.3513   36.7470 H   0  0  0  0  0  0  0  0  0  0  0  0
   37.2963   25.1059   36.1591 H   0  0  0  0  0  0  0  0  0  0  0  0
   38.2320   24.7778   33.3209 H   0  0  0  0  0  0  0  0  0  0  0  0
   36.3539   20.2633   33.8115 H   0  0  0  0  0  0  0  0  0  0  0  0
   37.4797   26.0210   32.4166 H   0  0  0  0  0  0  0  0  0  0  0  0
   35.2792   26.4600   31.7480 H   0  0  0  0  0  0  0  0  0  0  0  0
   35.7666   26.4443   29.9867 H   0  0  0  0  0  0  0  0  0  0  0  0
   35.5461   28.6495   30.3833 H   0  0  0  0  0  0  0  0  0  0  0  0
   36.2013   28.4751   32.0987 H   0  0  0  0  0  0  0  0  0  0  0  0
   37.6619   28.6371   29.5062 H   0  0  0  0  0  0  0  0  0  0  0  0
   37.7904   29.6291   31.0485 H   0  0  0  0  0  0  0  0  0  0  0  0
   39.7289   28.1589   30.6787 H   0  0  0  0  0  0  0  0  0  0  0  0
   38.8556   27.8134   32.1849 H   0  0  0  0  0  0  0  0  0  0  0  0
   38.3084   26.3693   29.5039 H   0  0  0  0  0  0  0  0  0  0  0  0
   39.3683   25.7013   30.7511 H   0  0  0  0  0  0  0  0  0  0  0  0
  1  2  1  0
  1  6  1  0
  2  3  1  0
  3  4  1  0
  5  4  1  0
  6  5  1  0
  7 12  1  0
  7  1  1  0
  8  7  2  0
  9 10  2  0
  9  8  1  0
 10 11  1  0
 11 12  2  0
 13 14  1  0
 13  9  1  0
 15 16  1  0
 15 14  1  0
 17 16  1  0
 17 18  1  0
 19 18  1  0
 19 14  1  0
  2 20  1  0
  2 21  1  0
  3 22  1  0
  3 23  1  0
  4 24  1  0
  4 25  1  0
  5 26  1  0
  5 27  1  0
  6 28  1  0
  6 29  1  0
  8 30  1  0
 11 31  1  0
 14 32  1  0
 15 33  1  0
 15 34  1  0
 16 35  1  0
 16 36  1  0
 17 37  1  0
 17 38  1  0
 18 39  1  0
 18 40  1  0
 19 41  1  0
 19 42  1  0
M  ISO  8  20  13  21  13  22  13  23  13  24  13  25  13  26  13  27  13
M  ISO  8  28  13  29  13  30  14  31  14  32  13  33  13  34  13  35  13
M  ISO  7  36  13  37  13  38  13  39  13  40  13  41  13  42  13
M  END
>  <minimizedAffinity>  (1) 
-4.91492128

>  <minimizedRMSD>  (1) 
1.78628182

$$$$
