
     RDKit          3D

 33 35  0  0  0  0  0  0  0  0999 V2000
   38.2680   22.8450   36.0480 N   0  0  0  0  0  0  0  0  0  0  0  0
   39.6440   22.5490   36.3180 C   0  0  0  0  0  0  0  0  0  0  0  0
   40.0810   22.5420   37.7230 C   0  0  0  0  0  0  0  0  0  0  0  0
   39.3600   23.4120   38.6720 C   0  0  0  0  0  0  0  0  0  0  0  0
   37.9270   23.7200   38.2810 C   0  0  0  0  0  0  0  0  0  0  0  0
   37.9070   24.0420   36.7850 C   0  0  0  0  0  0  0  0  0  0  0  0
   37.3900   22.1090   35.2090 C   0  0  0  0  0  0  0  0  0  0  0  0
   37.4180   22.1260   33.8130 C   0  0  0  0  0  0  0  0  0  0  0  0
   36.5130   21.3670   33.0990 C   0  0  0  0  0  0  0  0  0  0  0  0
   35.6260   20.6300   33.8290 N   0  0  0  0  0  0  0  0  0  0  0  0
   35.6150   20.6260   35.1640 C   0  0  0  0  0  0  0  0  0  0  0  0
   36.4940   21.3630   35.8450 N   0  0  0  0  0  0  0  0  0  0  0  0
   36.6480   21.4560   31.3490 S   0  0  0  0  0  0  0  0  0  0  0  0
   37.2030   19.9030   30.6560 C   0  0  0  0  0  0  0  0  0  0  0  0
   37.8100   18.8730   31.5460 C   0  0  0  0  0  0  0  0  0  0  0  0
   36.4860   18.6420   30.7980 C   0  0  0  0  0  0  0  0  0  0  0  0
   39.8522   21.5511   35.9046 H   0  0  0  0  0  0  0  0  0  0  0  0
   40.2013   23.3786   35.8585 H   0  0  0  0  0  0  0  0  0  0  0  0
   39.9892   21.5091   38.0900 H   0  0  0  0  0  0  0  0  0  0  0  0
   41.1032   22.9474   37.6972 H   0  0  0  0  0  0  0  0  0  0  0  0
   39.3489   22.9148   39.6532 H   0  0  0  0  0  0  0  0  0  0  0  0
   39.8944   24.3734   38.6822 H   0  0  0  0  0  0  0  0  0  0  0  0
   37.2883   22.8478   38.4842 H   0  0  0  0  0  0  0  0  0  0  0  0
   37.5460   24.5729   38.8619 H   0  0  0  0  0  0  0  0  0  0  0  0
   38.6299   24.8423   36.5687 H   0  0  0  0  0  0  0  0  0  0  0  0
   36.9030   24.3780   36.4867 H   0  0  0  0  0  0  0  0  0  0  0  0
   38.1594   22.7427   33.2838 H   0  0  0  0  0  0  0  0  0  0  0  0
   34.8786   20.0129   35.7042 H   0  0  0  0  0  0  0  0  0  0  0  0
   37.5268   20.4672   29.7689 H   0  0  0  0  0  0  0  0  0  0  0  0
   38.7226   18.3407   31.2399 H   0  0  0  0  0  0  0  0  0  0  0  0
   38.1468   18.8293   32.5923 H   0  0  0  0  0  0  0  0  0  0  0  0
   35.5377   18.6069   31.3542 H   0  0  0  0  0  0  0  0  0  0  0  0
   36.1052   17.8786   30.1036 H   0  0  0  0  0  0  0  0  0  0  0  0
  1  2  1  0
  1  6  1  0
  2  3  1  0
  3  4  1  0
  5  4  1  0
  6  5  1  0
  7 12  1  0
  7  1  1  0
  8  7  2  0
  9  8  1  0
  9 10  2  0
 10 11  1  0
 11 12  2  0
 13  9  1  0
 14 16  1  0
 14 13  1  0
 14 15  1  0
 16 15  1  0
  2 17  1  0
  2 18  1  0
  3 19  1  0
  3 20  1  0
  4 21  1  0
  4 22  1  0
  5 23  1  0
  5 24  1  0
  6 25  1  0
  6 26  1  0
  8 27  1  0
 11 28  1  0
 14 29  1  0
 15 30  1  0
 15 31  1  0
 16 32  1  0
 16 33  1  0
M  ISO  8  17  13  18  13  19  13  20  13  21  13  22  13  23  13  24  13
M  ISO  8  25  13  26  13  27  14  28  14  29  13  30  13  31  13  32  13
M  ISO  1  33  13
M  END
>  <minimizedAffinity>  (1) 
-4.25720692

>  <minimizedRMSD>  (1) 
2.32625818

$$$$
