
     RDKit          3D

 46 49  0  0  0  0  0  0  0  0999 V2000
   38.0090   23.1350   34.6090 C   0  0  0  0  0  0  0  0  0  0  0  0
   37.8780   23.8920   33.4300 C   0  0  0  0  0  0  0  0  0  0  0  0
   37.2110   23.3000   32.3490 C   0  0  0  0  0  0  0  0  0  0  0  0
   36.7300   22.0510   32.4770 N   0  0  0  0  0  0  0  0  0  0  0  0
   36.8730   21.3580   33.6220 C   0  0  0  0  0  0  0  0  0  0  0  0
   37.5030   21.8870   34.6780 N   0  0  0  0  0  0  0  0  0  0  0  0
   38.6510   23.5880   35.7840 N   0  0  0  0  0  0  0  0  0  0  0  0
   39.8840   23.0920   36.3260 C   0  0  0  0  0  0  0  0  0  0  0  0
   39.9040   22.7320   37.7550 C   0  0  0  0  0  0  0  0  0  0  0  0
   39.0120   23.4910   38.6600 C   0  0  0  0  0  0  0  0  0  0  0  0
   37.7540   24.0300   37.9960 C   0  0  0  0  0  0  0  0  0  0  0  0
   38.1630   24.6470   36.6510 C   0  0  0  0  0  0  0  0  0  0  0  0
   37.0990   24.3200   30.9240 S   0  0  0  0  0  0  0  0  0  0  0  0
   37.4300   26.0650   31.2530 C   0  0  0  0  0  0  0  0  0  0  0  0
   36.2100   26.7630   31.7910 C   0  0  0  0  0  0  0  0  0  0  0  0
   36.2960   28.2100   31.4850 C   0  0  0  0  0  0  0  0  0  0  0  0
   36.6780   28.5830   30.2300 N   0  0  0  0  0  0  0  0  0  0  0  0
   36.8080   29.8410   29.8290 C   0  0  0  0  0  0  0  0  0  0  0  0
   36.5560   30.8610   30.6880 N   0  0  0  0  0  0  0  0  0  0  0  0
   36.1790   30.5580   31.9310 C   0  0  0  0  0  0  0  0  0  0  0  0
   35.9070   31.5790   32.8440 C   0  0  0  0  0  0  0  0  0  0  0  0
   35.5210   31.2410   34.1040 C   0  0  0  0  0  0  0  0  0  0  0  0
   35.3880   29.9400   34.5090 C   0  0  0  0  0  0  0  0  0  0  0  0
   35.6490   28.8930   33.6280 C   0  0  0  0  0  0  0  0  0  0  0  0
   36.0420   29.2360   32.3490 C   0  0  0  0  0  0  0  0  0  0  0  0
   38.2845   24.9117   33.3594 H   0  0  0  0  0  0  0  0  0  0  0  0
   36.4649   20.3388   33.6912 H   0  0  0  0  0  0  0  0  0  0  0  0
   40.1558   22.1915   35.7557 H   0  0  0  0  0  0  0  0  0  0  0  0
   40.5865   23.9341   36.2397 H   0  0  0  0  0  0  0  0  0  0  0  0
   39.6266   21.6703   37.8320 H   0  0  0  0  0  0  0  0  0  0  0  0
   40.9220   22.9759   38.0929 H   0  0  0  0  0  0  0  0  0  0  0  0
   38.7091   22.8257   39.4820 H   0  0  0  0  0  0  0  0  0  0  0  0
   39.5843   24.3650   39.0043 H   0  0  0  0  0  0  0  0  0  0  0  0
   37.0379   23.2116   37.8303 H   0  0  0  0  0  0  0  0  0  0  0  0
   37.2743   24.7852   38.6360 H   0  0  0  0  0  0  0  0  0  0  0  0
   38.9576   25.3907   36.8109 H   0  0  0  0  0  0  0  0  0  0  0  0
   37.2981   25.1436   36.1871 H   0  0  0  0  0  0  0  0  0  0  0  0
   38.2415   26.1424   31.9915 H   0  0  0  0  0  0  0  0  0  0  0  0
   37.7162   26.5476   30.3069 H   0  0  0  0  0  0  0  0  0  0  0  0
   35.3090   26.3415   31.3214 H   0  0  0  0  0  0  0  0  0  0  0  0
   36.1555   26.6204   32.8804 H   0  0  0  0  0  0  0  0  0  0  0  0
   37.1210   30.0579   28.7970 H   0  0  0  0  0  0  0  0  0  0  0  0
   36.0029   32.6348   32.5505 H   0  0  0  0  0  0  0  0  0  0  0  0
   35.3076   32.0438   34.8250 H   0  0  0  0  0  0  0  0  0  0  0  0
   35.0722   29.7195   35.5394 H   0  0  0  0  0  0  0  0  0  0  0  0
   35.5469   27.8421   33.9365 H   0  0  0  0  0  0  0  0  0  0  0  0
  1  6  1  0
  1  7  1  0
  2  1  2  0
  3  4  2  0
  3  2  1  0
  4  5  1  0
  5  6  2  0
  7  8  1  0
  7 12  1  0
  8  9  1  0
  9 10  1  0
 11 10  1  0
 12 11  1  0
 13 14  1  0
 13  3  1  0
 14 15  1  0
 16 15  1  0
 16 25  1  0
 17 16  2  0
 18 17  1  0
 18 19  2  0
 19 20  1  0
 20 25  2  0
 20 21  1  0
 21 22  2  0
 22 23  1  0
 24 23  2  0
 25 24  1  0
  2 26  1  0
  5 27  1  0
  8 28  1  0
  8 29  1  0
  9 30  1  0
  9 31  1  0
 10 32  1  0
 10 33  1  0
 11 34  1  0
 11 35  1  0
 12 36  1  0
 12 37  1  0
 14 38  1  0
 14 39  1  0
 15 40  1  0
 15 41  1  0
 18 42  1  0
 21 43  1  0
 22 44  1  0
 23 45  1  0
 24 46  1  0
M  ISO  8  26  14  27  14  28  13  29  13  30  13  31  13  32  13  33  13
M  ISO  8  34  13  35  13  36  13  37  13  38   8  39   8  40   8  41   8
M  ISO  5  42  14  43  14  44  14  45  14  46  14
M  END
>  <minimizedAffinity>  (1) 
-5.79030657

>  <minimizedRMSD>  (1) 
2.95977306

$$$$
