
     RDKit          3D

 44 48  0  0  0  0  0  0  0  0999 V2000
   41.9820   25.9090   33.3560 C   0  0  0  0  0  0  0  0  0  0  0  0
   43.2000   22.8610   35.1170 C   0  0  0  0  0  0  0  0  0  0  0  0
   42.3690   21.8800   34.5600 C   0  0  0  0  0  0  0  0  0  0  0  0
   41.4250   22.2480   33.6130 C   0  0  0  0  0  0  0  0  0  0  0  0
   41.3710   23.5740   33.2860 N   0  0  0  0  0  0  0  0  0  0  0  0
   42.1810   24.5060   33.8350 C   0  0  0  0  0  0  0  0  0  0  0  0
   43.0820   24.1530   34.7380 N   0  0  0  0  0  0  0  0  0  0  0  0
   40.5010   21.2750   32.9650 C   0  0  0  0  0  0  0  0  0  0  0  0
   41.0150   20.1450   32.2970 C   0  0  0  0  0  0  0  0  0  0  0  0
   39.4670   19.3610   31.7250 S   0  0  0  0  0  0  0  0  0  0  0  0
   38.4030   20.7150   32.4990 C   0  0  0  0  0  0  0  0  0  0  0  0
   39.2160   21.5160   33.0410 N   0  0  0  0  0  0  0  0  0  0  0  0
   36.9260   20.6040   32.3460 C   0  0  0  0  0  0  0  0  0  0  0  0
   35.9270   21.4330   32.3690 C   0  0  0  0  0  0  0  0  0  0  0  0
   34.6750   20.9140   32.1810 C   0  0  0  0  0  0  0  0  0  0  0  0
   34.5090   19.5930   31.9800 C   0  0  0  0  0  0  0  0  0  0  0  0
   36.3220   19.0030   32.0660 S   0  0  0  0  0  0  0  0  0  0  0  0
   41.4660   26.7730   34.4730 C   0  0  0  0  0  0  0  0  0  0  0  0
   39.9930   26.9670   34.3960 C   0  0  0  0  0  0  0  0  0  0  0  0
   39.2580   27.0440   35.5530 C   0  0  0  0  0  0  0  0  0  0  0  0
   37.8700   27.2250   35.5960 C   0  0  0  0  0  0  0  0  0  0  0  0
   37.2350   27.3270   34.3890 N   0  0  0  0  0  0  0  0  0  0  0  0
   37.9710   27.2490   33.2310 C   0  0  0  0  0  0  0  0  0  0  0  0
   39.3170   27.0730   33.2580 N   0  0  0  0  0  0  0  0  0  0  0  0
   37.3270   27.3540   31.9270 C   0  0  0  0  0  0  0  0  0  0  0  0
   37.5940   28.4540   31.1070 C   0  0  0  0  0  0  0  0  0  0  0  0
   36.8320   28.2570   29.9450 C   0  0  0  0  0  0  0  0  0  0  0  0
   36.1490   27.0780   30.0960 N   0  0  0  0  0  0  0  0  0  0  0  0
   36.4480   26.5510   31.2720 N   0  0  0  0  0  0  0  0  0  0  0  0
   42.9423   26.3107   33.0003 H   0  0  0  0  0  0  0  0  0  0  0  0
   41.2480   25.9069   32.5367 H   0  0  0  0  0  0  0  0  0  0  0  0
   43.9530   22.5780   35.8673 H   0  0  0  0  0  0  0  0  0  0  0  0
   42.4643   20.8291   34.8706 H   0  0  0  0  0  0  0  0  0  0  0  0
   42.0581   19.8244   32.1586 H   0  0  0  0  0  0  0  0  0  0  0  0
   36.0810   22.5097   32.5331 H   0  0  0  0  0  0  0  0  0  0  0  0
   33.7993   21.5796   32.1941 H   0  0  0  0  0  0  0  0  0  0  0  0
   33.5874   19.0160   31.8131 H   0  0  0  0  0  0  0  0  0  0  0  0
   41.7111   26.2953   35.4331 H   0  0  0  0  0  0  0  0  0  0  0  0
   41.9427   27.7605   34.3852 H   0  0  0  0  0  0  0  0  0  0  0  0
   39.7947   26.9578   36.5093 H   0  0  0  0  0  0  0  0  0  0  0  0
   37.3211   27.2820   36.5475 H   0  0  0  0  0  0  0  0  0  0  0  0
   38.2629   29.2991   31.3269 H   0  0  0  0  0  0  0  0  0  0  0  0
   36.7904   28.9261   29.0729 H   0  0  0  0  0  0  0  0  0  0  0  0
   35.5056   26.6679   29.4041 H   0  0  0  0  0  0  0  0  0  0  0  0
  1  6  1  0
  1 18  1  0
  3  2  2  0
  4  3  1  0
  5  4  2  0
  5  6  1  0
  6  7  2  0
  7  2  1  0
  8 12  1  0
  8  4  1  0
  9  8  2  0
 10  9  1  0
 10 11  1  0
 11 12  2  0
 13 14  2  0
 13 11  1  0
 15 14  1  0
 16 17  1  0
 16 15  2  0
 17 13  1  0
 19 18  1  0
 19 20  2  0
 20 21  1  0
 22 21  2  0
 23 24  2  0
 23 22  1  0
 24 19  1  0
 25 23  1  0
 26 25  1  0
 27 28  1  0
 27 26  2  0
 28 29  1  0
 29 25  2  0
  1 30  1  0
  1 31  1  0
  2 32  1  0
  3 33  1  0
  9 34  1  0
 14 35  1  0
 15 36  1  0
 16 37  1  0
 18 38  1  0
 18 39  1  0
 20 40  1  0
 21 41  1  0
 26 42  1  0
 27 43  1  0
 28 44  1  0
M  ISO  8  30   8  31   8  32  14  33  14  34  14  35  14  36  14  37  14
M  ISO  7  38   8  39   8  40  14  41  14  42  14  43  14  44   9
M  END
>  <minimizedAffinity>  (1) 
-5.16980743

>  <minimizedRMSD>  (1) 
3.22330999

$$$$
