
     RDKit          3D

 42 46  0  0  0  0  0  0  0  0999 V2000
   41.9850   25.7370   33.5620 C   0  0  0  0  0  0  0  0  0  0  0  0
   41.6480   22.9690   36.0500 C   0  0  0  0  0  0  0  0  0  0  0  0
   41.0420   21.9750   35.2680 C   0  0  0  0  0  0  0  0  0  0  0  0
   40.7670   22.2610   33.9400 C   0  0  0  0  0  0  0  0  0  0  0  0
   41.1010   23.4920   33.4700 N   0  0  0  0  0  0  0  0  0  0  0  0
   41.6860   24.4340   34.2470 C   0  0  0  0  0  0  0  0  0  0  0  0
   41.9560   24.1770   35.5230 N   0  0  0  0  0  0  0  0  0  0  0  0
   40.1240   21.2670   33.0330 C   0  0  0  0  0  0  0  0  0  0  0  0
   40.9140   20.4190   32.2320 C   0  0  0  0  0  0  0  0  0  0  0  0
   39.6390   19.4580   31.3620 S   0  0  0  0  0  0  0  0  0  0  0  0
   38.2320   20.3750   32.2370 C   0  0  0  0  0  0  0  0  0  0  0  0
   38.8130   21.2030   32.9960 N   0  0  0  0  0  0  0  0  0  0  0  0
   36.7270   20.2400   32.1380 C   0  0  0  0  0  0  0  0  0  0  0  0
   36.0130   19.1930   31.7430 N   0  0  0  0  0  0  0  0  0  0  0  0
   34.7560   19.5640   31.8320 O   0  0  0  0  0  0  0  0  0  0  0  0
   34.6880   20.8160   32.2730 C   0  0  0  0  0  0  0  0  0  0  0  0
   35.9400   21.2670   32.4760 N   0  0  0  0  0  0  0  0  0  0  0  0
   41.4600   26.8850   34.3980 C   0  0  0  0  0  0  0  0  0  0  0  0
   39.9800   27.0140   34.2970 C   0  0  0  0  0  0  0  0  0  0  0  0
   39.2190   26.9720   35.4400 C   0  0  0  0  0  0  0  0  0  0  0  0
   37.8280   27.0820   35.4620 C   0  0  0  0  0  0  0  0  0  0  0  0
   37.2020   27.2430   34.2510 N   0  0  0  0  0  0  0  0  0  0  0  0
   37.9610   27.2850   33.1200 C   0  0  0  0  0  0  0  0  0  0  0  0
   39.3290   27.1700   33.1600 N   0  0  0  0  0  0  0  0  0  0  0  0
   37.3530   27.4540   31.8020 C   0  0  0  0  0  0  0  0  0  0  0  0
   37.7210   28.5260   30.9850 C   0  0  0  0  0  0  0  0  0  0  0  0
   36.9590   28.3950   29.8060 C   0  0  0  0  0  0  0  0  0  0  0  0
   36.1850   27.2770   29.9570 N   0  0  0  0  0  0  0  0  0  0  0  0
   36.4230   26.7300   31.1340 N   0  0  0  0  0  0  0  0  0  0  0  0
   43.0727   25.8432   33.4369 H   0  0  0  0  0  0  0  0  0  0  0  0
   41.4968   25.7509   32.5764 H   0  0  0  0  0  0  0  0  0  0  0  0
   41.8762   22.7640   37.1064 H   0  0  0  0  0  0  0  0  0  0  0  0
   40.7914   20.9938   35.6975 H   0  0  0  0  0  0  0  0  0  0  0  0
   42.0094   20.3553   32.1538 H   0  0  0  0  0  0  0  0  0  0  0  0
   33.7638   21.3877   32.4435 H   0  0  0  0  0  0  0  0  0  0  0  0
   41.7309   26.7119   35.4500 H   0  0  0  0  0  0  0  0  0  0  0  0
   41.9098   27.8152   34.0206 H   0  0  0  0  0  0  0  0  0  0  0  0
   39.7400   26.8433   36.4002 H   0  0  0  0  0  0  0  0  0  0  0  0
   37.2609   27.0417   36.4037 H   0  0  0  0  0  0  0  0  0  0  0  0
   38.4555   29.3120   31.2148 H   0  0  0  0  0  0  0  0  0  0  0  0
   36.9823   29.0633   28.9326 H   0  0  0  0  0  0  0  0  0  0  0  0
   35.5186   26.9174   29.2588 H   0  0  0  0  0  0  0  0  0  0  0  0
  1  6  1  0
  1 18  1  0
  3  2  2  0
  4  3  1  0
  5  4  2  0
  5  6  1  0
  6  7  2  0
  7  2  1  0
  8  4  1  0
  9  8  2  0
 10  9  1  0
 10 11  1  0
 11 12  2  0
 12  8  1  0
 13 11  1  0
 13 17  1  0
 14 15  1  0
 14 13  2  0
 15 16  1  0
 16 17  2  0
 19 18  1  0
 19 20  2  0
 20 21  1  0
 22 21  2  0
 23 24  2  0
 23 22  1  0
 24 19  1  0
 25 23  1  0
 26 25  1  0
 27 28  1  0
 27 26  2  0
 28 29  1  0
 29 25  2  0
  1 30  1  0
  1 31  1  0
  2 32  1  0
  3 33  1  0
  9 34  1  0
 16 35  1  0
 18 36  1  0
 18 37  1  0
 20 38  1  0
 21 39  1  0
 26 40  1  0
 27 41  1  0
 28 42  1  0
M  ISO  8  30   8  31   8  32  14  33  14  34  14  35  14  36   8  37   8
M  ISO  5  38  14  39  14  40  14  41  14  42   9
M  END
>  <minimizedAffinity>  (1) 
-5.16846371

>  <minimizedRMSD>  (1) 
3.09109545

$$$$
