
     RDKit          3D

 39 41  0  0  0  0  0  0  0  0999 V2000
   37.9930   23.0830   34.5720 C   0  0  0  0  0  0  0  0  0  0  0  0
   37.9050   23.8020   33.3710 C   0  0  0  0  0  0  0  0  0  0  0  0
   37.2290   23.2130   32.2960 C   0  0  0  0  0  0  0  0  0  0  0  0
   36.6930   21.9840   32.4620 N   0  0  0  0  0  0  0  0  0  0  0  0
   36.7950   21.3250   33.6240 C   0  0  0  0  0  0  0  0  0  0  0  0
   37.4370   21.8620   34.6730 N   0  0  0  0  0  0  0  0  0  0  0  0
   38.6340   23.5340   35.7400 N   0  0  0  0  0  0  0  0  0  0  0  0
   39.8520   23.0520   36.2950 C   0  0  0  0  0  0  0  0  0  0  0  0
   39.8870   22.7280   37.7250 C   0  0  0  0  0  0  0  0  0  0  0  0
   38.9820   23.4730   38.6270 C   0  0  0  0  0  0  0  0  0  0  0  0
   37.7310   24.0020   37.9520 C   0  0  0  0  0  0  0  0  0  0  0  0
   38.1430   24.6030   36.5980 C   0  0  0  0  0  0  0  0  0  0  0  0
   37.1790   24.2030   30.8310 S   0  0  0  0  0  0  0  0  0  0  0  0
   37.5770   25.9390   31.1470 C   0  0  0  0  0  0  0  0  0  0  0  0
   36.3140   26.7860   31.0190 C   0  0  0  0  0  0  0  0  0  0  0  0
   36.1770   27.5630   32.2820 C   0  0  0  0  0  0  0  0  0  0  0  0
   36.9000   27.3150   33.4460 C   0  0  0  0  0  0  0  0  0  0  0  0
   36.4980   28.2450   34.4090 C   0  0  0  0  0  0  0  0  0  0  0  0
   35.5500   28.9980   33.7510 C   0  0  0  0  0  0  0  0  0  0  0  0
   35.3870   28.5750   32.5170 O   0  0  0  0  0  0  0  0  0  0  0  0
   38.3549   24.8013   33.2764 H   0  0  0  0  0  0  0  0  0  0  0  0
   36.3445   20.3261   33.7199 H   0  0  0  0  0  0  0  0  0  0  0  0
   40.1189   22.1361   35.7474 H   0  0  0  0  0  0  0  0  0  0  0  0
   40.5490   23.8968   36.1921 H   0  0  0  0  0  0  0  0  0  0  0  0
   39.6424   21.6602   37.8248 H   0  0  0  0  0  0  0  0  0  0  0  0
   40.8977   23.0179   38.0483 H   0  0  0  0  0  0  0  0  0  0  0  0
   38.6764   22.8004   39.4420 H   0  0  0  0  0  0  0  0  0  0  0  0
   39.5428   24.3487   38.9857 H   0  0  0  0  0  0  0  0  0  0  0  0
   37.0157   23.1813   37.7945 H   0  0  0  0  0  0  0  0  0  0  0  0
   37.2505   24.7664   38.5803 H   0  0  0  0  0  0  0  0  0  0  0  0
   38.9371   25.3487   36.7508 H   0  0  0  0  0  0  0  0  0  0  0  0
   37.2774   25.0922   36.1274 H   0  0  0  0  0  0  0  0  0  0  0  0
   37.9851   26.0418   32.1633 H   0  0  0  0  0  0  0  0  0  0  0  0
   38.3223   26.2819   30.4142 H   0  0  0  0  0  0  0  0  0  0  0  0
   36.4042   27.4707   30.1628 H   0  0  0  0  0  0  0  0  0  0  0  0
   35.4318   26.1502   30.8532 H   0  0  0  0  0  0  0  0  0  0  0  0
   37.6544   26.5263   33.5834 H   0  0  0  0  0  0  0  0  0  0  0  0
   36.8535   28.3505   35.4446 H   0  0  0  0  0  0  0  0  0  0  0  0
   35.0026   29.8407   34.1986 H   0  0  0  0  0  0  0  0  0  0  0  0
  1  6  1  0
  1  7  1  0
  2  1  2  0
  3  4  2  0
  3  2  1  0
  4  5  1  0
  5  6  2  0
  7  8  1  0
  7 12  1  0
  8  9  1  0
  9 10  1  0
 11 10  1  0
 12 11  1  0
 13 14  1  0
 13  3  1  0
 15 14  1  0
 15 16  1  0
 16 20  1  0
 16 17  2  0
 17 18  1  0
 19 18  2  0
 20 19  1  0
  2 21  1  0
  5 22  1  0
  8 23  1  0
  8 24  1  0
  9 25  1  0
  9 26  1  0
 10 27  1  0
 10 28  1  0
 11 29  1  0
 11 30  1  0
 12 31  1  0
 12 32  1  0
 14 33  1  0
 14 34  1  0
 15 35  1  0
 15 36  1  0
 17 37  1  0
 18 38  1  0
 19 39  1  0
M  ISO  8  21  14  22  14  23  13  24  13  25  13  26  13  27  13  28  13
M  ISO  8  29  13  30  13  31  13  32  13  33   8  34   8  35   8  36   8
M  ISO  3  37  14  38  14  39  14
M  END
>  <minimizedAffinity>  (1) 
-4.85654736

>  <minimizedRMSD>  (1) 
2.4626143

$$$$
