
     RDKit          3D

 45 47  0  0  0  0  0  0  0  0999 V2000
   38.1660   23.3640   34.6060 C   0  0  0  0  0  0  0  0  0  0  0  0
   38.1040   24.1900   33.4630 C   0  0  0  0  0  0  0  0  0  0  0  0
   37.4970   23.6870   32.3240 C   0  0  0  0  0  0  0  0  0  0  0  0
   36.9910   22.4390   32.3410 N   0  0  0  0  0  0  0  0  0  0  0  0
   37.0660   21.6730   33.4490 C   0  0  0  0  0  0  0  0  0  0  0  0
   37.6440   22.1270   34.5650 N   0  0  0  0  0  0  0  0  0  0  0  0
   38.7470   23.7280   35.8370 N   0  0  0  0  0  0  0  0  0  0  0  0
   39.9420   23.2120   36.4220 C   0  0  0  0  0  0  0  0  0  0  0  0
   39.8990   22.7760   37.8180 C   0  0  0  0  0  0  0  0  0  0  0  0
   38.9380   23.4430   38.7230 C   0  0  0  0  0  0  0  0  0  0  0  0
   37.7350   24.0360   38.0280 C   0  0  0  0  0  0  0  0  0  0  0  0
   38.2070   24.7290   36.7550 C   0  0  0  0  0  0  0  0  0  0  0  0
   37.4680   24.7960   30.9460 S   0  0  0  0  0  0  0  0  0  0  0  0
   38.5700   26.2000   31.1470 C   0  0  0  0  0  0  0  0  0  0  0  0
   37.8240   27.4170   31.6160 C   0  0  0  0  0  0  0  0  0  0  0  0
   36.5480   27.6860   30.8880 C   0  0  0  0  0  0  0  0  0  0  0  0
   35.4580   27.7990   31.9590 C   0  0  0  0  0  0  0  0  0  0  0  0
   35.8480   29.1030   32.6080 C   0  0  0  0  0  0  0  0  0  0  0  0
   36.6310   29.9010   31.5800 C   0  0  0  0  0  0  0  0  0  0  0  0
   36.4620   29.0810   30.3200 C   0  0  0  0  0  0  0  0  0  0  0  0
   38.5263   25.2056   33.4764 H   0  0  0  0  0  0  0  0  0  0  0  0
   36.6441   20.6572   33.4335 H   0  0  0  0  0  0  0  0  0  0  0  0
   40.2515   22.3452   35.8196 H   0  0  0  0  0  0  0  0  0  0  0  0
   40.6334   24.0675   36.4261 H   0  0  0  0  0  0  0  0  0  0  0  0
   39.6583   21.7027   37.8185 H   0  0  0  0  0  0  0  0  0  0  0  0
   40.8873   23.0431   38.2205 H   0  0  0  0  0  0  0  0  0  0  0  0
   38.5824   22.7019   39.4540 H   0  0  0  0  0  0  0  0  0  0  0  0
   39.4760   24.2814   39.1896 H   0  0  0  0  0  0  0  0  0  0  0  0
   37.0221   23.2378   37.7738 H   0  0  0  0  0  0  0  0  0  0  0  0
   37.2356   24.7597   38.6890 H   0  0  0  0  0  0  0  0  0  0  0  0
   38.9894   25.4614   37.0029 H   0  0  0  0  0  0  0  0  0  0  0  0
   37.3613   25.2485   36.2808 H   0  0  0  0  0  0  0  0  0  0  0  0
   39.3426   25.9459   31.8876 H   0  0  0  0  0  0  0  0  0  0  0  0
   39.0252   26.4264   30.1715 H   0  0  0  0  0  0  0  0  0  0  0  0
   37.5887   27.2848   32.6824 H   0  0  0  0  0  0  0  0  0  0  0  0
   38.4803   28.2780   31.4210 H   0  0  0  0  0  0  0  0  0  0  0  0
   36.4660   26.9064   30.1163 H   0  0  0  0  0  0  0  0  0  0  0  0
   34.4538   27.8512   31.5131 H   0  0  0  0  0  0  0  0  0  0  0  0
   35.3997   26.9428   32.6472 H   0  0  0  0  0  0  0  0  0  0  0  0
   34.9473   29.6580   32.9093 H   0  0  0  0  0  0  0  0  0  0  0  0
   36.4548   28.9246   33.5080 H   0  0  0  0  0  0  0  0  0  0  0  0
   36.2093   30.9094   31.4561 H   0  0  0  0  0  0  0  0  0  0  0  0
   37.6832   30.0580   31.8597 H   0  0  0  0  0  0  0  0  0  0  0  0
   37.2680   29.2758   29.5972 H   0  0  0  0  0  0  0  0  0  0  0  0
   35.5413   29.2909   29.7559 H   0  0  0  0  0  0  0  0  0  0  0  0
  1  7  1  0
  2  1  2  0
  3  4  2  0
  3  2  1  0
  4  5  1  0
  5  6  2  0
  6  1  1  0
  7  8  1  0
  7 12  1  0
  8  9  1  0
  9 10  1  0
 11 10  1  0
 12 11  1  0
 13 14  1  0
 13  3  1  0
 14 15  1  0
 16 15  1  0
 16 17  1  0
 17 18  1  0
 19 18  1  0
 20 16  1  0
 20 19  1  0
  2 21  1  0
  5 22  1  0
  8 23  1  0
  8 24  1  0
  9 25  1  0
  9 26  1  0
 10 27  1  0
 10 28  1  0
 11 29  1  0
 11 30  1  0
 12 31  1  0
 12 32  1  0
 14 33  1  0
 14 34  1  0
 15 35  1  0
 15 36  1  0
 16 37  1  0
 17 38  1  0
 17 39  1  0
 18 40  1  0
 18 41  1  0
 19 42  1  0
 19 43  1  0
 20 44  1  0
 20 45  1  0
M  ISO  8  21  14  22  14  23  13  24  13  25  13  26  13  27  13  28  13
M  ISO  8  29  13  30  13  31  13  32  13  33   8  34   8  35   8  36   8
M  ISO  8  37  13  38  13  39  13  40  13  41  13  42  13  43  13  44  13
M  ISO  1  45  13
M  END
>  <minimizedAffinity>  (1) 
-4.64649439

>  <minimizedRMSD>  (1) 
3.21962023

$$$$
