
     RDKit          3D

 39 41  0  0  0  0  0  0  0  0999 V2000
   38.0450   23.2070   34.6260 C   0  0  0  0  0  0  0  0  0  0  0  0
   37.8830   23.9770   33.4740 C   0  0  0  0  0  0  0  0  0  0  0  0
   37.2290   23.4350   32.3820 C   0  0  0  0  0  0  0  0  0  0  0  0
   36.7680   22.1700   32.4730 N   0  0  0  0  0  0  0  0  0  0  0  0
   36.9320   21.4370   33.5920 C   0  0  0  0  0  0  0  0  0  0  0  0
   37.5620   21.9440   34.6590 N   0  0  0  0  0  0  0  0  0  0  0  0
   38.6870   23.6230   35.8100 N   0  0  0  0  0  0  0  0  0  0  0  0
   39.8970   23.0930   36.3620 C   0  0  0  0  0  0  0  0  0  0  0  0
   39.9200   22.7380   37.7820 C   0  0  0  0  0  0  0  0  0  0  0  0
   39.0350   23.5000   38.6840 C   0  0  0  0  0  0  0  0  0  0  0  0
   37.7820   24.0600   38.0240 C   0  0  0  0  0  0  0  0  0  0  0  0
   38.2130   24.6850   36.6890 C   0  0  0  0  0  0  0  0  0  0  0  0
   37.0830   24.4940   30.9900 S   0  0  0  0  0  0  0  0  0  0  0  0
   37.4820   26.2060   31.3380 C   0  0  0  0  0  0  0  0  0  0  0  0
   36.3910   26.8800   32.1400 C   0  0  0  0  0  0  0  0  0  0  0  0
   36.8890   27.9320   33.0680 C   0  0  0  0  0  0  0  0  0  0  0  0
   36.8120   27.4980   34.5470 C   0  0  0  0  0  0  0  0  0  0  0  0
   36.0570   28.6800   34.0140 C   0  0  0  0  0  0  0  0  0  0  0  0
   38.2716   25.0053   33.4343 H   0  0  0  0  0  0  0  0  0  0  0  0
   36.5431   20.4087   33.6291 H   0  0  0  0  0  0  0  0  0  0  0  0
   40.1407   22.1821   35.7955 H   0  0  0  0  0  0  0  0  0  0  0  0
   40.6160   23.9214   36.2798 H   0  0  0  0  0  0  0  0  0  0  0  0
   39.6395   21.6774   37.8621 H   0  0  0  0  0  0  0  0  0  0  0  0
   40.9398   22.9785   38.1170 H   0  0  0  0  0  0  0  0  0  0  0  0
   38.7228   22.8332   39.5012 H   0  0  0  0  0  0  0  0  0  0  0  0
   39.6170   24.3667   39.0304 H   0  0  0  0  0  0  0  0  0  0  0  0
   37.0570   23.2523   37.8454 H   0  0  0  0  0  0  0  0  0  0  0  0
   37.3024   24.8103   38.6698 H   0  0  0  0  0  0  0  0  0  0  0  0
   39.0214   25.4103   36.8632 H   0  0  0  0  0  0  0  0  0  0  0  0
   37.3618   25.2049   36.2252 H   0  0  0  0  0  0  0  0  0  0  0  0
   38.4210   26.2446   31.9097 H   0  0  0  0  0  0  0  0  0  0  0  0
   37.5831   26.7373   30.3801 H   0  0  0  0  0  0  0  0  0  0  0  0
   35.6816   27.3438   31.4389 H   0  0  0  0  0  0  0  0  0  0  0  0
   35.9226   26.1017   32.7604 H   0  0  0  0  0  0  0  0  0  0  0  0
   37.6125   28.2947   32.3230 H   0  0  0  0  0  0  0  0  0  0  0  0
   36.2788   26.5785   34.8303 H   0  0  0  0  0  0  0  0  0  0  0  0
   37.5328   27.3189   35.3584 H   0  0  0  0  0  0  0  0  0  0  0  0
   36.3561   29.6950   34.3145 H   0  0  0  0  0  0  0  0  0  0  0  0
   34.9977   28.9762   34.0276 H   0  0  0  0  0  0  0  0  0  0  0  0
  1  6  1  0
  1  7  1  0
  2  1  2  0
  3  4  2  0
  3  2  1  0
  4  5  1  0
  5  6  2  0
  7  8  1  0
  7 12  1  0
  8  9  1  0
  9 10  1  0
 11 10  1  0
 12 11  1  0
 13 14  1  0
 13  3  1  0
 14 15  1  0
 15 16  1  0
 16 18  1  0
 16 17  1  0
 18 17  1  0
  2 19  1  0
  5 20  1  0
  8 21  1  0
  8 22  1  0
  9 23  1  0
  9 24  1  0
 10 25  1  0
 10 26  1  0
 11 27  1  0
 11 28  1  0
 12 29  1  0
 12 30  1  0
 14 31  1  0
 14 32  1  0
 15 33  1  0
 15 34  1  0
 16 35  1  0
 17 36  1  0
 17 37  1  0
 18 38  1  0
 18 39  1  0
M  ISO  8  19  14  20  14  21  13  22  13  23  13  24  13  25  13  26  13
M  ISO  8  27  13  28  13  29  13  30  13  31   8  32   8  33   8  34   8
M  ISO  5  35  13  36  13  37  13  38  13  39  13
M  END
>  <minimizedAffinity>  (1) 
-4.56233931

>  <minimizedRMSD>  (1) 
2.08356118

$$$$
