
     RDKit          3D

 31 34  0  0  1  0  0  0  0  0999 V2000
   37.8070   25.6160   35.8040 C   0  0  1  0  0  0  0  0  0  0  0  0
   38.2870   26.9960   35.7120 C   0  0  0  0  0  0  0  0  0  0  0  0
   38.3420   26.1320   34.4910 C   0  0  2  0  0  0  0  0  0  0  0  0
   37.3890   26.5430   33.4340 C   0  0  0  0  0  0  0  0  0  0  0  0
   37.1950   27.8940   33.4570 N   0  0  0  0  0  0  0  0  0  0  0  0
   36.3050   28.4220   32.5720 C   0  0  0  0  0  0  0  0  0  0  0  0
   35.5860   27.7080   31.6570 N   0  0  0  0  0  0  0  0  0  0  0  0
   35.7930   26.3830   31.6500 C   0  0  0  0  0  0  0  0  0  0  0  0
   35.1590   25.5250   30.7840 C   0  0  0  0  0  0  0  0  0  0  0  0
   35.4150   24.1560   30.8050 C   0  0  0  0  0  0  0  0  0  0  0  0
   36.3260   23.5970   31.7060 C   0  0  0  0  0  0  0  0  0  0  0  0
   36.9540   24.4700   32.5680 C   0  0  0  0  0  0  0  0  0  0  0  0
   36.6800   25.8010   32.5230 C   0  0  0  0  0  0  0  0  0  0  0  0
   39.7080   23.9480   35.8980 C   0  0  0  0  0  0  0  0  0  0  0  0
   38.5900   24.5770   36.5230 C   0  0  0  0  0  0  0  0  0  0  0  0
   38.2480   24.1850   37.8190 C   0  0  0  0  0  0  0  0  0  0  0  0
   39.0030   23.2180   38.4190 N   0  0  0  0  0  0  0  0  0  0  0  0
   40.0610   22.6360   37.8030 C   0  0  0  0  0  0  0  0  0  0  0  0
   40.3960   23.0130   36.5490 N   0  0  0  0  0  0  0  0  0  0  0  0
   36.8681   25.1613   36.1529 H   0  0  0  0  0  0  0  0  0  0  0  0
   37.5696   27.8285   35.7605 H   0  0  0  0  0  0  0  0  0  0  0  0
   39.0254   27.5934   36.2669 H   0  0  0  0  0  0  0  0  0  0  0  0
   39.0959   25.7584   33.7824 H   0  0  0  0  0  0  0  0  0  0  0  0
   36.1531   29.5112   32.5962 H   0  0  0  0  0  0  0  0  0  0  0  0
   34.4351   25.9272   30.0600 H   0  0  0  0  0  0  0  0  0  0  0  0
   34.8883   23.4998   30.0965 H   0  0  0  0  0  0  0  0  0  0  0  0
   36.5310   22.5165   31.7260 H   0  0  0  0  0  0  0  0  0  0  0  0
   37.6824   24.0870   33.2979 H   0  0  0  0  0  0  0  0  0  0  0  0
   40.0013   24.2360   34.8777 H   0  0  0  0  0  0  0  0  0  0  0  0
   37.3948   24.6421   38.3417 H   0  0  0  0  0  0  0  0  0  0  0  0
   40.6442   21.8605   38.3213 H   0  0  0  0  0  0  0  0  0  0  0  0
  1 15  1  0
  2  1  1  0
  3  2  1  0
  3  1  1  0
  4  5  2  0
  4  3  1  0
  6  5  1  0
  7  6  2  0
  8  7  1  0
  8 13  2  0
  9 10  2  0
  9  8  1  0
 10 11  1  0
 11 12  2  0
 13 12  1  0
 13  4  1  0
 14 15  2  0
 14 19  1  0
 15 16  1  0
 16 17  2  0
 18 17  1  0
 19 18  2  0
  1 20  1  6
  2 21  1  0
  2 22  1  0
  3 23  1  6
  6 24  1  0
  9 25  1  0
 10 26  1  0
 11 27  1  0
 12 28  1  0
 14 29  1  0
 16 30  1  0
 18 31  1  0
M  ISO  8  20  13  21  13  22  13  23  13  24  14  25  14  26  14  27  14
M  ISO  4  28  14  29  14  30  14  31  14
M  END
>  <minimizedAffinity>  (1) 
-5.51752281

>  <minimizedRMSD>  (1) 
4.59449005

$$$$
