
     RDKit          3D

 33 36  0  0  1  0  0  0  0  0999 V2000
   38.0940   25.9360   36.2740 C   0  0  1  0  0  0  0  0  0  0  0  0
   38.6560   27.1790   35.7440 C   0  0  0  0  0  0  0  0  0  0  0  0
   37.3850   26.7000   35.1870 C   0  0  1  0  0  0  0  0  0  0  0  0
   37.3420   26.1930   33.8200 C   0  0  0  0  0  0  0  0  0  0  0  0
   37.6160   24.9550   33.2910 C   0  0  0  0  0  0  0  0  0  0  0  0
   37.5080   24.6350   31.9750 C   0  0  0  0  0  0  0  0  0  0  0  0
   37.0990   25.5890   31.0670 C   0  0  0  0  0  0  0  0  0  0  0  0
   36.8100   26.8550   31.5510 C   0  0  0  0  0  0  0  0  0  0  0  0
   36.4070   27.7520   30.5830 C   0  0  0  0  0  0  0  0  0  0  0  0
   36.0990   29.0330   30.9720 C   0  0  0  0  0  0  0  0  0  0  0  0
   36.1980   29.3850   32.2990 C   0  0  0  0  0  0  0  0  0  0  0  0
   36.6040   28.4600   33.2290 C   0  0  0  0  0  0  0  0  0  0  0  0
   36.9250   27.1610   32.8950 C   0  0  0  0  0  0  0  0  0  0  0  0
   40.0490   24.5710   35.4200 C   0  0  0  0  0  0  0  0  0  0  0  0
   38.7330   24.6370   35.9600 C   0  0  0  0  0  0  0  0  0  0  0  0
   38.0700   23.4150   36.1680 C   0  0  0  0  0  0  0  0  0  0  0  0
   38.6890   22.2630   35.8600 N   0  0  0  0  0  0  0  0  0  0  0  0
   39.9550   22.2390   35.3430 C   0  0  0  0  0  0  0  0  0  0  0  0
   40.6120   23.3920   35.1320 N   0  0  0  0  0  0  0  0  0  0  0  0
   37.8278   25.5655   37.2749 H   0  0  0  0  0  0  0  0  0  0  0  0
   38.6698   28.0820   36.3720 H   0  0  0  0  0  0  0  0  0  0  0  0
   39.6274   27.4575   35.3094 H   0  0  0  0  0  0  0  0  0  0  0  0
   36.3721   27.1096   35.0599 H   0  0  0  0  0  0  0  0  0  0  0  0
   37.9466   24.1661   33.9827 H   0  0  0  0  0  0  0  0  0  0  0  0
   37.7464   23.6166   31.6343 H   0  0  0  0  0  0  0  0  0  0  0  0
   37.0055   25.3534   29.9966 H   0  0  0  0  0  0  0  0  0  0  0  0
   36.3343   27.4494   29.5279 H   0  0  0  0  0  0  0  0  0  0  0  0
   35.7748   29.7740   30.2265 H   0  0  0  0  0  0  0  0  0  0  0  0
   35.9514   30.4093   32.6151 H   0  0  0  0  0  0  0  0  0  0  0  0
   36.6761   28.7674   34.2827 H   0  0  0  0  0  0  0  0  0  0  0  0
   40.6091   25.5000   35.2376 H   0  0  0  0  0  0  0  0  0  0  0  0
   37.0504   23.4020   36.5805 H   0  0  0  0  0  0  0  0  0  0  0  0
   40.4339   21.2788   35.1007 H   0  0  0  0  0  0  0  0  0  0  0  0
  2  1  1  0
  3  2  1  0
  3  1  1  0
  4  3  1  0
  5  4  2  0
  6  5  1  0
  7  8  1  0
  7  6  2  0
  8 13  2  0
  9 10  2  0
  9  8  1  0
 10 11  1  0
 11 12  2  0
 13 12  1  0
 13  4  1  0
 14 15  2  0
 15 16  1  0
 15  1  1  0
 17 16  2  0
 18 17  1  0
 19 18  2  0
 19 14  1  0
  1 20  1  1
  2 21  1  0
  2 22  1  0
  3 23  1  1
  5 24  1  0
  6 25  1  0
  7 26  1  0
  9 27  1  0
 10 28  1  0
 11 29  1  0
 12 30  1  0
 14 31  1  0
 16 32  1  0
 18 33  1  0
M  ISO  8  20  13  21  13  22  13  23  13  24  14  25  14  26  14  27  14
M  ISO  6  28  14  29  14  30  14  31  14  32  14  33  14
M  END
>  <minimizedAffinity>  (1) 
-5.16019344

>  <minimizedRMSD>  (1) 
1.60401499

$$$$
