
     RDKit          3D

 27 29  0  0  1  0  0  0  0  0999 V2000
   38.2560   26.2820   34.6100 C   0  0  1  0  0  0  0  0  0  0  0  0
   38.1920   27.1890   35.7530 C   0  0  0  0  0  0  0  0  0  0  0  0
   37.6360   25.8180   35.9110 C   0  0  2  0  0  0  0  0  0  0  0  0
   36.7710   27.7410   33.1440 C   0  0  0  0  0  0  0  0  0  0  0  0
   37.3480   26.4710   33.4380 C   0  0  0  0  0  0  0  0  0  0  0  0
   37.0290   25.4020   32.5930 C   0  0  0  0  0  0  0  0  0  0  0  0
   36.1940   25.6210   31.5410 N   0  0  0  0  0  0  0  0  0  0  0  0
   35.6590   26.8520   31.2890 C   0  0  0  0  0  0  0  0  0  0  0  0
   35.9590   27.8910   32.0980 N   0  0  0  0  0  0  0  0  0  0  0  0
   38.3710   24.7550   36.5950 C   0  0  0  0  0  0  0  0  0  0  0  0
   39.3940   24.0900   35.9480 C   0  0  0  0  0  0  0  0  0  0  0  0
   40.0980   23.0800   36.5900 C   0  0  0  0  0  0  0  0  0  0  0  0
   39.7750   22.7280   37.8980 C   0  0  0  0  0  0  0  0  0  0  0  0
   38.7510   23.4040   38.5240 C   0  0  0  0  0  0  0  0  0  0  0  0
   38.0400   24.4100   37.9040 C   0  0  0  0  0  0  0  0  0  0  0  0
   39.0699   25.9437   33.9519 H   0  0  0  0  0  0  0  0  0  0  0  0
   39.1163   27.4665   36.2810 H   0  0  0  0  0  0  0  0  0  0  0  0
   37.7914   28.2018   35.9072 H   0  0  0  0  0  0  0  0  0  0  0  0
   36.6718   25.4424   36.2842 H   0  0  0  0  0  0  0  0  0  0  0  0
   36.9980   28.6047   33.7862 H   0  0  0  0  0  0  0  0  0  0  0  0
   37.4465   24.4009   32.7762 H   0  0  0  0  0  0  0  0  0  0  0  0
   34.9865   26.9967   30.4306 H   0  0  0  0  0  0  0  0  0  0  0  0
   39.6535   24.3630   34.9145 H   0  0  0  0  0  0  0  0  0  0  0  0
   40.9114   22.5576   36.0651 H   0  0  0  0  0  0  0  0  0  0  0  0
   40.3242   21.9296   38.4186 H   0  0  0  0  0  0  0  0  0  0  0  0
   38.4906   23.1312   39.5573 H   0  0  0  0  0  0  0  0  0  0  0  0
   37.2274   24.9300   38.4325 H   0  0  0  0  0  0  0  0  0  0  0  0
  1  2  1  0
  1  3  1  0
  2  3  1  0
  3 10  1  0
  4  5  2  0
  5  1  1  0
  6  5  1  0
  7  6  2  0
  8  7  1  0
  8  9  2  0
  9  4  1  0
 10 15  2  0
 11 12  2  0
 11 10  1  0
 12 13  1  0
 13 14  2  0
 15 14  1  0
  1 16  1  6
  2 17  1  0
  2 18  1  0
  3 19  1  6
  4 20  1  0
  6 21  1  0
  8 22  1  0
 11 23  1  0
 12 24  1  0
 13 25  1  0
 14 26  1  0
 15 27  1  0
M  ISO  8  16  13  17  13  18  13  19  13  20  14  21  14  22  14  23  14
M  ISO  4  24  14  25  14  26  14  27  14
M  END
>  <minimizedAffinity>  (1) 
-4.96338272

>  <minimizedRMSD>  (1) 
5.5389719

$$$$
