
     RDKit          3D

 25 27  0  0  1  0  0  0  0  0999 V2000
   38.3880   26.4250   36.2810 C   0  0  1  0  0  0  0  0  0  0  0  0
   39.1890   27.2580   35.3860 C   0  0  0  0  0  0  0  0  0  0  0  0
   37.7220   27.2480   35.2620 C   0  0  1  0  0  0  0  0  0  0  0  0
   39.4820   24.3020   35.5260 C   0  0  0  0  0  0  0  0  0  0  0  0
   38.4380   24.9580   36.1910 C   0  0  0  0  0  0  0  0  0  0  0  0
   37.4380   24.1350   36.7440 C   0  0  0  0  0  0  0  0  0  0  0  0
   37.5340   22.7910   36.6060 N   0  0  0  0  0  0  0  0  0  0  0  0
   38.5670   22.2140   35.9510 C   0  0  0  0  0  0  0  0  0  0  0  0
   39.5360   22.9740   35.4150 N   0  0  0  0  0  0  0  0  0  0  0  0
   37.1840   26.7940   33.9790 C   0  0  0  0  0  0  0  0  0  0  0  0
   36.5450   27.7920   33.2270 C   0  0  0  0  0  0  0  0  0  0  0  0
   35.9490   27.5910   31.9800 C   0  0  0  0  0  0  0  0  0  0  0  0
   35.9810   26.3420   31.4410 N   0  0  0  0  0  0  0  0  0  0  0  0
   36.5800   25.3910   32.1380 C   0  0  0  0  0  0  0  0  0  0  0  0
   37.1220   25.6480   33.3040 N   0  0  0  0  0  0  0  0  0  0  0  0
   38.2853   26.3194   37.3711 H   0  0  0  0  0  0  0  0  0  0  0  0
   39.7016   28.1494   35.7767 H   0  0  0  0  0  0  0  0  0  0  0  0
   40.0283   27.0761   34.6986 H   0  0  0  0  0  0  0  0  0  0  0  0
   36.8644   27.9324   35.3405 H   0  0  0  0  0  0  0  0  0  0  0  0
   40.2867   24.9042   35.0790 H   0  0  0  0  0  0  0  0  0  0  0  0
   36.5877   24.5790   37.2824 H   0  0  0  0  0  0  0  0  0  0  0  0
   38.6137   21.1190   35.8570 H   0  0  0  0  0  0  0  0  0  0  0  0
   36.5111   28.8066   33.6507 H   0  0  0  0  0  0  0  0  0  0  0  0
   35.4653   28.4224   31.4464 H   0  0  0  0  0  0  0  0  0  0  0  0
   36.6242   24.3690   31.7335 H   0  0  0  0  0  0  0  0  0  0  0  0
  2  1  1  0
  3  2  1  0
  3  1  1  0
  4  5  2  0
  5  1  1  0
  5  6  1  0
  7  6  2  0
  8  7  1  0
  9  4  1  0
  9  8  2  0
 10  3  1  0
 11 10  2  0
 12 11  1  0
 13 12  2  0
 13 14  1  0
 14 15  2  0
 15 10  1  0
  1 16  1  1
  2 17  1  0
  2 18  1  0
  3 19  1  1
  4 20  1  0
  6 21  1  0
  8 22  1  0
 11 23  1  0
 12 24  1  0
 14 25  1  0
M  ISO  8  16  13  17  13  18  13  19  13  20  14  21  14  22  14  23  14
M  ISO  2  24  14  25  14
M  END
>  <minimizedAffinity>  (1) 
-4.50996208

>  <minimizedRMSD>  (1) 
0.824202061

$$$$
