
     RDKit          3D

 32 34  0  0  1  0  0  0  0  0999 V2000
   37.6390   25.8340   35.9770 C   0  0  1  0  0  0  0  0  0  0  0  0
   38.2460   27.1390   35.7420 C   0  0  0  0  0  0  0  0  0  0  0  0
   38.0250   26.2670   34.5810 C   0  0  2  0  0  0  0  0  0  0  0  0
   39.4730   24.0900   35.9360 C   0  0  0  0  0  0  0  0  0  0  0  0
   38.3990   24.7390   36.6090 C   0  0  0  0  0  0  0  0  0  0  0  0
   38.1060   24.2810   37.8980 C   0  0  0  0  0  0  0  0  0  0  0  0
   38.8340   23.2710   38.4300 N   0  0  0  0  0  0  0  0  0  0  0  0
   39.8630   22.6750   37.7430 C   0  0  0  0  0  0  0  0  0  0  0  0
   40.1690   23.0960   36.4970 N   0  0  0  0  0  0  0  0  0  0  0  0
   37.0460   26.4370   33.5730 N   0  0  0  0  0  0  0  0  0  0  0  0
   36.9670   25.4260   32.5870 C   0  0  0  0  0  0  0  0  0  0  0  0
   37.1080   25.9220   31.1730 C   0  0  0  0  0  0  0  0  0  0  0  0
   36.0380   26.9300   30.9190 C   0  0  0  0  0  0  0  0  0  0  0  0
   35.9410   27.9520   31.9920 C   0  0  0  0  0  0  0  0  0  0  0  0
   36.9060   27.7730   33.1390 C   0  0  0  0  0  0  0  0  0  0  0  0
   36.7231   25.4952   36.4834 H   0  0  0  0  0  0  0  0  0  0  0  0
   37.6407   28.0497   35.8612 H   0  0  0  0  0  0  0  0  0  0  0  0
   39.1246   27.6587   36.1518 H   0  0  0  0  0  0  0  0  0  0  0  0
   38.6744   25.9186   33.7643 H   0  0  0  0  0  0  0  0  0  0  0  0
   39.7390   24.4176   34.9202 H   0  0  0  0  0  0  0  0  0  0  0  0
   37.2893   24.7386   38.4756 H   0  0  0  0  0  0  0  0  0  0  0  0
   40.4357   21.8579   38.2059 H   0  0  0  0  0  0  0  0  0  0  0  0
   37.7686   24.6971   32.7771 H   0  0  0  0  0  0  0  0  0  0  0  0
   35.9608   24.9887   32.6667 H   0  0  0  0  0  0  0  0  0  0  0  0
   38.0959   26.3870   31.0391 H   0  0  0  0  0  0  0  0  0  0  0  0
   37.0130   25.0838   30.4671 H   0  0  0  0  0  0  0  0  0  0  0  0
   36.2537   27.4389   29.9679 H   0  0  0  0  0  0  0  0  0  0  0  0
   35.0788   26.3925   30.8871 H   0  0  0  0  0  0  0  0  0  0  0  0
   36.1276   28.9378   31.5410 H   0  0  0  0  0  0  0  0  0  0  0  0
   34.9336   27.8490   32.4216 H   0  0  0  0  0  0  0  0  0  0  0  0
   37.8935   28.1374   32.8194 H   0  0  0  0  0  0  0  0  0  0  0  0
   36.4973   28.3405   33.9881 H   0  0  0  0  0  0  0  0  0  0  0  0
  1  5  1  0
  2  1  1  0
  3  2  1  0
  3  1  1  0
  4  9  2  0
  4  5  1  0
  5  6  2  0
  6  7  1  0
  8  7  2  0
  9  8  1  0
 10  3  1  0
 11 10  1  0
 12 11  1  0
 13 12  1  0
 13 14  1  0
 14 15  1  0
 15 10  1  0
  1 16  1  6
  2 17  1  0
  2 18  1  0
  3 19  1  6
  4 20  1  0
  6 21  1  0
  8 22  1  0
 11 23  1  0
 11 24  1  0
 12 25  1  0
 12 26  1  0
 13 27  1  0
 13 28  1  0
 14 29  1  0
 14 30  1  0
 15 31  1  0
 15 32  1  0
M  ISO  8  16  13  17  13  18  13  19  13  20  14  21  14  22  14  23  13
M  ISO  8  24  13  25  13  26  13  27  13  28  13  29  13  30  13  31  13
M  ISO  1  32  13
M  END
>  <minimizedAffinity>  (1) 
-4.45957565

>  <minimizedRMSD>  (1) 
3.35834241

$$$$
