
     RDKit          3D

 30 32  0  0  1  0  0  0  0  0999 V2000
   37.6470   25.9050   35.8840 C   0  0  1  0  0  0  0  0  0  0  0  0
   38.2630   27.2140   35.7140 C   0  0  0  0  0  0  0  0  0  0  0  0
   38.1180   26.3550   34.5190 C   0  0  2  0  0  0  0  0  0  0  0  0
   39.4350   24.1090   35.8960 C   0  0  0  0  0  0  0  0  0  0  0  0
   38.3730   24.7950   36.5520 C   0  0  0  0  0  0  0  0  0  0  0  0
   38.0460   24.3810   37.8440 C   0  0  0  0  0  0  0  0  0  0  0  0
   38.7480   23.3580   38.4050 N   0  0  0  0  0  0  0  0  0  0  0  0
   39.7570   22.7240   37.7470 C   0  0  0  0  0  0  0  0  0  0  0  0
   40.0890   23.1100   36.4970 N   0  0  0  0  0  0  0  0  0  0  0  0
   37.0460   26.5210   33.4990 C   0  0  0  0  0  0  0  0  0  0  0  0
   37.1310   27.7630   32.6760 C   0  0  0  0  0  0  0  0  0  0  0  0
   36.3430   27.4390   31.4110 C   0  0  0  0  0  0  0  0  0  0  0  0
   35.9850   25.9780   31.4870 C   0  0  0  0  0  0  0  0  0  0  0  0
   37.0330   25.4440   32.4520 C   0  0  0  0  0  0  0  0  0  0  0  0
   36.7007   25.5579   36.3245 H   0  0  0  0  0  0  0  0  0  0  0  0
   37.6485   28.1213   35.8099 H   0  0  0  0  0  0  0  0  0  0  0  0
   39.1114   27.7285   36.1888 H   0  0  0  0  0  0  0  0  0  0  0  0
   38.8301   26.0538   33.7366 H   0  0  0  0  0  0  0  0  0  0  0  0
   39.7221   24.4066   34.8767 H   0  0  0  0  0  0  0  0  0  0  0  0
   37.2344   24.8731   38.4001 H   0  0  0  0  0  0  0  0  0  0  0  0
   40.3000   21.8997   38.2325 H   0  0  0  0  0  0  0  0  0  0  0  0
   36.1590   26.5167   34.1496 H   0  0  0  0  0  0  0  0  0  0  0  0
   36.6795   28.6134   33.2080 H   0  0  0  0  0  0  0  0  0  0  0  0
   38.1705   28.0499   32.4587 H   0  0  0  0  0  0  0  0  0  0  0  0
   36.9590   27.6326   30.5205 H   0  0  0  0  0  0  0  0  0  0  0  0
   35.4411   28.0642   31.3354 H   0  0  0  0  0  0  0  0  0  0  0  0
   34.9685   25.8359   31.8825 H   0  0  0  0  0  0  0  0  0  0  0  0
   35.9825   25.4711   30.5107 H   0  0  0  0  0  0  0  0  0  0  0  0
   36.7331   24.4742   32.8757 H   0  0  0  0  0  0  0  0  0  0  0  0
   38.0132   25.2523   31.9911 H   0  0  0  0  0  0  0  0  0  0  0  0
  1  5  1  0
  2  1  1  0
  3  2  1  0
  3  1  1  0
  4  9  2  0
  4  5  1  0
  5  6  2  0
  6  7  1  0
  8  7  2  0
  9  8  1  0
 10  3  1  0
 11 10  1  0
 12 13  1  0
 12 11  1  0
 13 14  1  0
 14 10  1  0
  1 15  1  6
  2 16  1  0
  2 17  1  0
  3 18  1  6
  4 19  1  0
  6 20  1  0
  8 21  1  0
 10 22  1  0
 11 23  1  0
 11 24  1  0
 12 25  1  0
 12 26  1  0
 13 27  1  0
 13 28  1  0
 14 29  1  0
 14 30  1  0
M  ISO  8  15  13  16  13  17  13  18  13  19  14  20  14  21  14  22  13
M  ISO  8  23  13  24  13  25  13  26  13  27  13  28  13  29  13  30  13
M  END
>  <minimizedAffinity>  (1) 
-4.37882137

>  <minimizedRMSD>  (1) 
3.21848249

$$$$
