
     RDKit          3D

 24 26  0  0  1  0  0  0  0  0999 V2000
   37.6650   25.8840   35.7970 C   0  0  1  0  0  0  0  0  0  0  0  0
   38.1790   27.2480   35.8040 C   0  0  0  0  0  0  0  0  0  0  0  0
   38.3000   26.4590   34.5490 C   0  0  2  0  0  0  0  0  0  0  0  0
   39.4390   24.0750   35.8750 C   0  0  0  0  0  0  0  0  0  0  0  0
   38.3780   24.7890   36.5030 C   0  0  0  0  0  0  0  0  0  0  0  0
   38.0390   24.4110   37.8030 C   0  0  0  0  0  0  0  0  0  0  0  0
   38.7220   23.3990   38.4020 N   0  0  0  0  0  0  0  0  0  0  0  0
   39.7310   22.7470   37.7570 C   0  0  0  0  0  0  0  0  0  0  0  0
   40.0830   23.0850   36.5060 N   0  0  0  0  0  0  0  0  0  0  0  0
   37.3540   26.6080   33.4200 C   0  0  0  0  0  0  0  0  0  0  0  0
   36.9020   25.6570   32.5560 C   0  0  0  0  0  0  0  0  0  0  0  0
   36.0450   26.2300   31.6730 N   0  0  0  0  0  0  0  0  0  0  0  0
   35.9560   27.5390   31.9790 C   0  0  0  0  0  0  0  0  0  0  0  0
   36.7540   27.7500   33.0390 N   0  0  0  0  0  0  0  0  0  0  0  0
   36.6961   25.4365   36.0634 H   0  0  0  0  0  0  0  0  0  0  0  0
   37.4777   28.0942   35.8500 H   0  0  0  0  0  0  0  0  0  0  0  0
   38.8926   27.7952   36.4375 H   0  0  0  0  0  0  0  0  0  0  0  0
   39.1487   26.2719   33.8747 H   0  0  0  0  0  0  0  0  0  0  0  0
   39.7354   24.3427   34.8501 H   0  0  0  0  0  0  0  0  0  0  0  0
   37.2276   24.9264   38.3377 H   0  0  0  0  0  0  0  0  0  0  0  0
   40.2643   21.9324   38.2688 H   0  0  0  0  0  0  0  0  0  0  0  0
   37.1861   24.5944   32.5714 H   0  0  0  0  0  0  0  0  0  0  0  0
   35.3456   28.2923   31.4594 H   0  0  0  0  0  0  0  0  0  0  0  0
   36.8882   28.6624   33.4977 H   0  0  0  0  0  0  0  0  0  0  0  0
  1  2  1  0
  1  5  1  0
  3  1  1  0
  3  2  1  0
  4  5  2  0
  4  9  1  0
  5  6  1  0
  6  7  2  0
  8  7  1  0
  9  8  2  0
 10  3  1  0
 11 10  2  0
 12 13  2  0
 12 11  1  0
 13 14  1  0
 14 10  1  0
  1 15  1  6
  2 16  1  0
  2 17  1  0
  3 18  1  6
  4 19  1  0
  6 20  1  0
  8 21  1  0
 11 22  1  0
 13 23  1  0
 14 24  1  0
M  ISO  8  15  13  16  13  17  13  18  13  19  14  20  14  21  14  22  14
M  ISO  2  23  14  24   9
M  END
>  <minimizedAffinity>  (1) 
-4.27344656

>  <minimizedRMSD>  (1) 
3.35052991

$$$$
