
     RDKit          3D

 23 25  0  0  1  0  0  0  0  0999 V2000
   38.2940   26.1250   34.8760 C   0  0  1  0  0  0  0  0  0  0  0  0
   38.4530   27.0230   36.0160 C   0  0  0  0  0  0  0  0  0  0  0  0
   37.6460   25.7790   36.1970 C   0  0  2  0  0  0  0  0  0  0  0  0
   36.9270   27.7950   33.5780 C   0  0  0  0  0  0  0  0  0  0  0  0
   37.4320   26.4870   33.7310 C   0  0  0  0  0  0  0  0  0  0  0  0
   37.0850   25.5540   32.7540 C   0  0  0  0  0  0  0  0  0  0  0  0
   36.2920   25.9270   31.7100 N   0  0  0  0  0  0  0  0  0  0  0  0
   35.8260   27.2150   31.6050 C   0  0  0  0  0  0  0  0  0  0  0  0
   36.1480   28.1270   32.5360 N   0  0  0  0  0  0  0  0  0  0  0  0
   38.2450   24.6840   36.9340 N   0  0  0  0  0  0  0  0  0  0  0  0
   38.0360   24.3090   38.2130 C   0  0  0  0  0  0  0  0  0  0  0  0
   38.8090   23.2360   38.4720 N   0  0  0  0  0  0  0  0  0  0  0  0
   39.5060   22.9330   37.3590 C   0  0  0  0  0  0  0  0  0  0  0  0
   39.1300   23.8480   36.4380 N   0  0  0  0  0  0  0  0  0  0  0  0
   38.9984   25.6327   34.1893 H   0  0  0  0  0  0  0  0  0  0  0  0
   39.4333   27.1137   36.5066 H   0  0  0  0  0  0  0  0  0  0  0  0
   38.2632   28.0935   36.1835 H   0  0  0  0  0  0  0  0  0  0  0  0
   36.6304   25.5540   36.5546 H   0  0  0  0  0  0  0  0  0  0  0  0
   37.1767   28.5595   34.3284 H   0  0  0  0  0  0  0  0  0  0  0  0
   37.4506   24.5190   32.8259 H   0  0  0  0  0  0  0  0  0  0  0  0
   35.1874   27.4998   30.7559 H   0  0  0  0  0  0  0  0  0  0  0  0
   37.3515   24.7960   38.9231 H   0  0  0  0  0  0  0  0  0  0  0  0
   40.2284   22.1139   37.2278 H   0  0  0  0  0  0  0  0  0  0  0  0
  1  2  1  0
  1  3  1  0
  2  3  1  0
  3 10  1  0
  4  5  2  0
  5  1  1  0
  6  5  1  0
  7  6  2  0
  8  7  1  0
  8  9  2  0
  9  4  1  0
 10 11  1  0
 11 12  2  0
 13 12  1  0
 14 10  1  0
 14 13  2  0
  1 15  1  6
  2 16  1  0
  2 17  1  0
  3 18  1  6
  4 19  1  0
  6 20  1  0
  8 21  1  0
 11 22  1  0
 13 23  1  0
M  ISO  8  15  13  16  13  17  13  18  13  19  14  20  14  21  14  22  14
M  ISO  1  23  14
M  END
>  <minimizedAffinity>  (1) 
-4.17520905

>  <minimizedRMSD>  (1) 
5.24832678

$$$$
