
     RDKit          3D

 33 35  0  0  1  0  0  0  0  0999 V2000
   39.6140   26.8150   34.9410 C   0  0  1  0  0  0  0  0  0  0  0  0
   40.6410   26.8710   33.9000 C   0  0  0  0  0  0  0  0  0  0  0  0
   39.2240   27.1940   33.5610 C   0  0  1  0  0  0  0  0  0  0  0  0
   39.9430   24.3690   35.3770 C   0  0  0  0  0  0  0  0  0  0  0  0
   39.1840   25.5380   35.5350 C   0  0  0  0  0  0  0  0  0  0  0  0
   37.9950   25.4260   36.2740 C   0  0  0  0  0  0  0  0  0  0  0  0
   37.6540   24.2140   36.7850 N   0  0  0  0  0  0  0  0  0  0  0  0
   38.4320   23.1040   36.6000 C   0  0  0  0  0  0  0  0  0  0  0  0
   39.5770   23.1980   35.8910 N   0  0  0  0  0  0  0  0  0  0  0  0
   38.4810   26.3490   32.6050 C   0  0  0  0  0  0  0  0  0  0  0  0
   37.0090   26.2610   32.7870 C   0  0  0  0  0  0  0  0  0  0  0  0
   36.2250   27.4260   32.2450 C   0  0  0  0  0  0  0  0  0  0  0  0
   36.6720   27.8730   30.8910 C   0  0  0  0  0  0  0  0  0  0  0  0
   38.1730   28.1410   30.8650 C   0  0  0  0  0  0  0  0  0  0  0  0
   38.8490   26.8480   31.1980 C   0  0  0  0  0  0  0  0  0  0  0  0
   39.4963   27.2746   35.9335 H   0  0  0  0  0  0  0  0  0  0  0  0
   41.3975   27.6694   33.9170 H   0  0  0  0  0  0  0  0  0  0  0  0
   41.3914   26.1670   33.5109 H   0  0  0  0  0  0  0  0  0  0  0  0
   38.6510   28.0377   33.1489 H   0  0  0  0  0  0  0  0  0  0  0  0
   40.8804   24.4229   34.8039 H   0  0  0  0  0  0  0  0  0  0  0  0
   37.3516   26.3033   36.4362 H   0  0  0  0  0  0  0  0  0  0  0  0
   38.1256   22.1379   37.0276 H   0  0  0  0  0  0  0  0  0  0  0  0
   38.7892   25.3086   32.7853 H   0  0  0  0  0  0  0  0  0  0  0  0
   36.6575   25.3496   32.2812 H   0  0  0  0  0  0  0  0  0  0  0  0
   36.8357   26.2556   33.8733 H   0  0  0  0  0  0  0  0  0  0  0  0
   35.1666   27.1332   32.1822 H   0  0  0  0  0  0  0  0  0  0  0  0
   36.3869   28.2698   32.9318 H   0  0  0  0  0  0  0  0  0  0  0  0
   36.4352   27.0878   30.1579 H   0  0  0  0  0  0  0  0  0  0  0  0
   36.1475   28.8074   30.6425 H   0  0  0  0  0  0  0  0  0  0  0  0
   38.4795   28.4820   29.8651 H   0  0  0  0  0  0  0  0  0  0  0  0
   38.4463   28.9262   31.5853 H   0  0  0  0  0  0  0  0  0  0  0  0
   38.5455   26.0891   30.4618 H   0  0  0  0  0  0  0  0  0  0  0  0
   39.9356   27.0171   31.1718 H   0  0  0  0  0  0  0  0  0  0  0  0
  1  5  1  0
  2  1  1  0
  3  2  1  0
  3  1  1  0
  4  5  2  0
  4  9  1  0
  5  6  1  0
  6  7  2  0
  8  7  1  0
  9  8  2  0
 10 11  1  0
 10  3  1  0
 12 11  1  0
 13 12  1  0
 14 13  1  0
 14 15  1  0
 15 10  1  0
  1 16  1  1
  2 17  1  0
  2 18  1  0
  3 19  1  1
  4 20  1  0
  6 21  1  0
  8 22  1  0
 10 23  1  0
 11 24  1  0
 11 25  1  0
 12 26  1  0
 12 27  1  0
 13 28  1  0
 13 29  1  0
 14 30  1  0
 14 31  1  0
 15 32  1  0
 15 33  1  0
M  ISO  8  16  13  17  13  18  13  19  13  20  14  21  14  22  14  23  13
M  ISO  8  24  13  25  13  26  13  27  13  28  13  29  13  30  13  31  13
M  ISO  2  32  13  33  13
M  END
>  <minimizedAffinity>  (1) 
-4.08642101

>  <minimizedRMSD>  (1) 
2.31569481

$$$$
