
     RDKit          3D

 24 26  0  0  1  0  0  0  0  0999 V2000
   38.3160   26.3870   36.2290 C   0  0  1  0  0  0  0  0  0  0  0  0
   39.1410   27.2900   35.4180 C   0  0  0  0  0  0  0  0  0  0  0  0
   37.7020   27.1150   35.0610 C   0  0  1  0  0  0  0  0  0  0  0  0
   39.6600   24.3500   35.5680 C   0  0  0  0  0  0  0  0  0  0  0  0
   38.4870   24.9100   36.1440 C   0  0  0  0  0  0  0  0  0  0  0  0
   37.4990   24.0460   36.6210 C   0  0  0  0  0  0  0  0  0  0  0  0
   37.7140   22.7030   36.5090 N   0  0  0  0  0  0  0  0  0  0  0  0
   38.8430   22.1910   35.9540 C   0  0  0  0  0  0  0  0  0  0  0  0
   39.7950   23.0290   35.4940 N   0  0  0  0  0  0  0  0  0  0  0  0
   37.3180   26.4370   33.8600 N   0  0  0  0  0  0  0  0  0  0  0  0
   36.6220   27.1740   32.9480 C   0  0  0  0  0  0  0  0  0  0  0  0
   36.3290   26.3900   31.8610 C   0  0  0  0  0  0  0  0  0  0  0  0
   36.8450   25.1740   32.1020 N   0  0  0  0  0  0  0  0  0  0  0  0
   37.4390   25.2070   33.3040 C   0  0  0  0  0  0  0  0  0  0  0  0
   38.1064   26.3041   37.3057 H   0  0  0  0  0  0  0  0  0  0  0  0
   39.4868   28.2440   35.8427 H   0  0  0  0  0  0  0  0  0  0  0  0
   40.0892   27.1846   34.8705 H   0  0  0  0  0  0  0  0  0  0  0  0
   36.8336   27.7759   34.9230 H   0  0  0  0  0  0  0  0  0  0  0  0
   40.4539   25.0077   35.1845 H   0  0  0  0  0  0  0  0  0  0  0  0
   36.5753   24.4362   37.0734 H   0  0  0  0  0  0  0  0  0  0  0  0
   38.9800   21.1021   35.8802 H   0  0  0  0  0  0  0  0  0  0  0  0
   36.3399   28.2307   33.0654 H   0  0  0  0  0  0  0  0  0  0  0  0
   35.7759   26.6991   30.9619 H   0  0  0  0  0  0  0  0  0  0  0  0
   37.9526   24.3548   33.7730 H   0  0  0  0  0  0  0  0  0  0  0  0
  2  1  1  0
  3  2  1  0
  3  1  1  0
  4  5  2  0
  5  1  1  0
  5  6  1  0
  7  6  2  0
  8  7  1  0
  9  4  1  0
  9  8  2  0
 10  3  1  0
 11 10  1  0
 12 13  1  0
 12 11  2  0
 13 14  2  0
 14 10  1  0
  1 15  1  1
  2 16  1  0
  2 17  1  0
  3 18  1  1
  4 19  1  0
  6 20  1  0
  8 21  1  0
 11 22  1  0
 12 23  1  0
 14 24  1  0
M  ISO  8  15  13  16  13  17  13  18  13  19  14  20  14  21  14  22  14
M  ISO  2  23  14  24  14
M  END
>  <minimizedAffinity>  (1) 
-3.87687445

>  <minimizedRMSD>  (1) 
1.11079025

$$$$
