
     RDKit          3D

 24 26  0  0  1  0  0  0  0  0999 V2000
   39.0960   26.3430   35.9970 C   0  0  1  0  0  0  0  0  0  0  0  0
   39.5670   26.9990   34.7870 C   0  0  0  0  0  0  0  0  0  0  0  0
   38.3070   27.4670   35.3810 C   0  0  1  0  0  0  0  0  0  0  0  0
   38.7590   24.1330   34.8970 C   0  0  0  0  0  0  0  0  0  0  0  0
   38.5640   24.9720   36.0010 C   0  0  0  0  0  0  0  0  0  0  0  0
   37.8380   24.4350   37.0790 C   0  0  0  0  0  0  0  0  0  0  0  0
   37.3790   23.1740   36.9920 N   0  0  0  0  0  0  0  0  0  0  0  0
   37.5860   22.3910   35.9060 C   0  0  0  0  0  0  0  0  0  0  0  0
   38.2810   22.8780   34.8560 N   0  0  0  0  0  0  0  0  0  0  0  0
   36.9910   27.2610   34.7200 C   0  0  0  0  0  0  0  0  0  0  0  0
   36.8830   27.8250   33.2640 C   0  0  0  0  0  0  0  0  0  0  0  0
   36.1130   28.4090   34.3620 C   0  0  0  0  0  0  0  0  0  0  0  0
   39.5423   26.1323   36.9801 H   0  0  0  0  0  0  0  0  0  0  0  0
   39.5494   26.4555   33.8308 H   0  0  0  0  0  0  0  0  0  0  0  0
   40.5076   27.4913   34.4989 H   0  0  0  0  0  0  0  0  0  0  0  0
   37.9095   28.4305   35.7327 H   0  0  0  0  0  0  0  0  0  0  0  0
   39.3232   24.5147   34.0333 H   0  0  0  0  0  0  0  0  0  0  0  0
   37.6484   25.0373   37.9797 H   0  0  0  0  0  0  0  0  0  0  0  0
   37.1903   21.3650   35.8799 H   0  0  0  0  0  0  0  0  0  0  0  0
   36.8228   26.3173   35.2596 H   0  0  0  0  0  0  0  0  0  0  0  0
   36.3757   27.2422   32.4811 H   0  0  0  0  0  0  0  0  0  0  0  0
   37.5932   28.2046   32.5147 H   0  0  0  0  0  0  0  0  0  0  0  0
   36.3691   29.4159   34.7233 H   0  0  0  0  0  0  0  0  0  0  0  0
   35.0415   28.6115   34.5064 H   0  0  0  0  0  0  0  0  0  0  0  0
  1  5  1  0
  2  3  1  0
  2  1  1  0
  3  1  1  0
  4  5  2  0
  5  6  1  0
  7  6  2  0
  8  7  1  0
  9  4  1  0
  9  8  2  0
 10  3  1  0
 11 12  1  0
 11 10  1  0
 12 10  1  0
  1 13  1  1
  2 14  1  0
  2 15  1  0
  3 16  1  1
  4 17  1  0
  6 18  1  0
  8 19  1  0
 10 20  1  0
 11 21  1  0
 11 22  1  0
 12 23  1  0
 12 24  1  0
M  ISO  8  13  13  14  13  15  13  16  13  17  14  18  14  19  14  20  13
M  ISO  4  21  13  22  13  23  13  24  13
M  END
>  <minimizedAffinity>  (1) 
-3.86614656

>  <minimizedRMSD>  (1) 
0.53647995

$$$$
