
     RDKit          3D

 24 25  0  0  1  0  0  0  0  0999 V2000
   38.3080   26.4100   36.2880 C   0  0  1  0  0  0  0  0  0  0  0  0
   39.0440   27.2620   35.3460 C   0  0  0  0  0  0  0  0  0  0  0  0
   37.5700   27.1130   35.1730 C   0  0  1  0  0  0  0  0  0  0  0  0
   39.5270   24.3220   35.5640 C   0  0  0  0  0  0  0  0  0  0  0  0
   38.4450   24.9330   36.2300 C   0  0  0  0  0  0  0  0  0  0  0  0
   37.5080   24.0890   36.8280 C   0  0  0  0  0  0  0  0  0  0  0  0
   37.6780   22.7380   36.7450 N   0  0  0  0  0  0  0  0  0  0  0  0
   38.7530   22.1990   36.0830 C   0  0  0  0  0  0  0  0  0  0  0  0
   39.6750   22.9910   35.4930 N   0  0  0  0  0  0  0  0  0  0  0  0
   37.1760   26.3490   33.9950 N   0  0  0  0  0  0  0  0  0  0  0  0
   36.7350   26.8140   32.7200 C   0  0  0  0  0  0  0  0  0  0  0  0
   36.8930   28.0690   32.5670 N   0  0  0  0  0  0  0  0  0  0  0  0
   36.1940   25.8770   31.7970 N   0  0  0  0  0  0  0  0  0  0  0  0
   36.6000   28.4930   31.6690 H   0  0  0  0  0  0  0  0  0  0  0  0
   38.2268   26.3708   37.3843 H   0  0  0  0  0  0  0  0  0  0  0  0
   39.4596   28.2215   35.6875 H   0  0  0  0  0  0  0  0  0  0  0  0
   39.9149   27.1116   34.6910 H   0  0  0  0  0  0  0  0  0  0  0  0
   36.6850   27.7654   35.1391 H   0  0  0  0  0  0  0  0  0  0  0  0
   40.2805   24.9631   35.0830 H   0  0  0  0  0  0  0  0  0  0  0  0
   36.6418   24.5086   37.3605 H   0  0  0  0  0  0  0  0  0  0  0  0
   38.8654   21.1059   36.0321 H   0  0  0  0  0  0  0  0  0  0  0  0
   37.2228   25.3253   34.0982 H   0  0  0  0  0  0  0  0  0  0  0  0
   35.8704   26.1936   30.8718 H   0  0  0  0  0  0  0  0  0  0  0  0
   36.1258   24.8818   32.0537 H   0  0  0  0  0  0  0  0  0  0  0  0
  2  1  1  0
  3  2  1  0
  3  1  1  0
  4  5  2  0
  5  1  1  0
  5  6  1  0
  7  6  2  0
  8  7  1  0
  9  4  1  0
  9  8  2  0
 10  3  1  0
 11 10  1  0
 12 11  2  0
 13 11  1  0
 14 12  1  0
  1 15  1  1
  2 16  1  0
  2 17  1  0
  3 18  1  1
  4 19  1  0
  6 20  1  0
  8 21  1  0
 10 22  1  0
 13 23  1  0
 13 24  1  0
M  ISO  7  15  13  16  13  17  13  18  13  19  14  20  14  21  14
M  END
>  <minimizedAffinity>  (1) 
-3.80211926

>  <minimizedRMSD>  (1) 
0.885362744

$$$$
