
     RDKit          3D

 23 24  0  0  1  0  0  0  0  0999 V2000
   38.7150   26.3820   36.2650 C   0  0  1  0  0  0  0  0  0  0  0  0
   39.3340   27.1290   35.1740 C   0  0  0  0  0  0  0  0  0  0  0  0
   37.9200   27.4190   35.5060 C   0  0  1  0  0  0  0  0  0  0  0  0
   38.7430   24.2120   34.9970 C   0  0  0  0  0  0  0  0  0  0  0  0
   38.3590   24.9600   36.1220 C   0  0  0  0  0  0  0  0  0  0  0  0
   37.6130   24.2780   37.0900 C   0  0  0  0  0  0  0  0  0  0  0  0
   37.3050   22.9690   36.9050 N   0  0  0  0  0  0  0  0  0  0  0  0
   37.7080   22.2890   35.7820 C   0  0  0  0  0  0  0  0  0  0  0  0
   38.4280   22.9260   34.8370 N   0  0  0  0  0  0  0  0  0  0  0  0
   36.7990   27.0580   34.6010 C   0  0  0  0  0  0  0  0  0  0  0  0
   36.3160   28.3350   33.9300 C   0  0  0  0  0  0  0  0  0  0  0  0
   38.9834   26.2006   37.3162 H   0  0  0  0  0  0  0  0  0  0  0  0
   39.5784   26.6159   34.2322 H   0  0  0  0  0  0  0  0  0  0  0  0
   40.2420   27.7432   35.0835 H   0  0  0  0  0  0  0  0  0  0  0  0
   37.3410   28.3162   35.7701 H   0  0  0  0  0  0  0  0  0  0  0  0
   39.3307   24.7098   34.2116 H   0  0  0  0  0  0  0  0  0  0  0  0
   37.2774   24.8010   37.9977 H   0  0  0  0  0  0  0  0  0  0  0  0
   37.4443   21.2288   35.6541 H   0  0  0  0  0  0  0  0  0  0  0  0
   37.1469   26.3437   33.8403 H   0  0  0  0  0  0  0  0  0  0  0  0
   35.9820   26.5884   35.1684 H   0  0  0  0  0  0  0  0  0  0  0  0
   36.0378   29.0706   34.6990 H   0  0  0  0  0  0  0  0  0  0  0  0
   37.1206   28.7466   33.3029 H   0  0  0  0  0  0  0  0  0  0  0  0
   35.4404   28.1111   33.3029 H   0  0  0  0  0  0  0  0  0  0  0  0
  2  3  1  0
  2  1  1  0
  3  1  1  0
  4  5  2  0
  5  1  1  0
  5  6  1  0
  7  6  2  0
  8  7  1  0
  9  4  1  0
  9  8  2  0
 10  3  1  0
 11 10  1  0
  1 12  1  1
  2 13  1  0
  2 14  1  0
  3 15  1  1
  4 16  1  0
  6 17  1  0
  8 18  1  0
 10 19  1  0
 10 20  1  0
 11 21  1  0
 11 22  1  0
 11 23  1  0
M  ISO  8  12  13  13  13  14  13  15  13  16  14  17  14  18  14  19   8
M  ISO  4  20   8  21   8  22   8  23   8
M  END
>  <minimizedAffinity>  (1) 
-3.63537621

>  <minimizedRMSD>  (1) 
0.291483909

$$$$
