
     RDKit          3D

 33 36  0  0  1  0  0  0  0  0999 V2000
   38.9730   26.3650   36.0390 C   0  0  1  0  0  0  0  0  0  0  0  0
   39.7510   27.0720   35.0540 C   0  0  0  0  0  0  0  0  0  0  0  0
   38.3070   27.2880   35.0070 C   0  0  1  0  0  0  0  0  0  0  0  0
   39.4440   24.0950   35.1930 C   0  0  0  0  0  0  0  0  0  0  0  0
   38.6790   24.9370   35.9910 C   0  0  0  0  0  0  0  0  0  0  0  0
   37.6470   24.3690   36.7430 C   0  0  0  0  0  0  0  0  0  0  0  0
   37.4420   23.0240   36.6600 N   0  0  0  0  0  0  0  0  0  0  0  0
   38.2290   22.2210   35.8530 C   0  0  0  0  0  0  0  0  0  0  0  0
   39.2340   22.7690   35.1190 N   0  0  0  0  0  0  0  0  0  0  0  0
   37.4320   26.7610   33.9570 C   0  0  0  0  0  0  0  0  0  0  0  0
   36.9790   25.6540   33.5330 O   0  0  0  0  0  0  0  0  0  0  0  0
   36.8530   27.8200   33.0670 C   0  0  0  0  0  0  0  0  0  0  0  0
   35.7630   28.6270   33.3200 C   0  0  0  0  0  0  0  0  0  0  0  0
   35.5030   29.4750   32.3160 N   0  0  0  0  0  0  0  0  0  0  0  0
   36.4030   29.2660   31.3640 C   0  0  0  0  0  0  0  0  0  0  0  0
   36.6520   29.8110   30.1210 C   0  0  0  0  0  0  0  0  0  0  0  0
   37.6780   29.4210   29.2800 C   0  0  0  0  0  0  0  0  0  0  0  0
   38.4810   28.4130   29.7640 C   0  0  0  0  0  0  0  0  0  0  0  0
   38.2590   27.8490   31.0000 C   0  0  0  0  0  0  0  0  0  0  0  0
   37.2280   28.2590   31.8150 C   0  0  0  0  0  0  0  0  0  0  0  0
   39.0478   26.2763   37.1329 H   0  0  0  0  0  0  0  0  0  0  0  0
   40.4085   27.8934   35.3749 H   0  0  0  0  0  0  0  0  0  0  0  0
   40.4901   26.7513   34.3050 H   0  0  0  0  0  0  0  0  0  0  0  0
   37.6504   28.1705   35.0173 H   0  0  0  0  0  0  0  0  0  0  0  0
   40.2573   24.5326   34.5955 H   0  0  0  0  0  0  0  0  0  0  0  0
   37.0131   24.9946   37.3887 H   0  0  0  0  0  0  0  0  0  0  0  0
   38.0413   21.1382   35.8053 H   0  0  0  0  0  0  0  0  0  0  0  0
   35.1713   28.5793   34.2461 H   0  0  0  0  0  0  0  0  0  0  0  0
   34.7400   30.1663   32.2882 H   0  0  0  0  0  0  0  0  0  0  0  0
   35.9856   30.6144   29.7738 H   0  0  0  0  0  0  0  0  0  0  0  0
   37.8408   29.8830   28.2951 H   0  0  0  0  0  0  0  0  0  0  0  0
   39.3183   28.0503   29.1497 H   0  0  0  0  0  0  0  0  0  0  0  0
   38.9259   27.0460   31.3471 H   0  0  0  0  0  0  0  0  0  0  0  0
  2  1  1  0
  3  2  1  0
  3  1  1  0
  4  5  2  0
  5  1  1  0
  5  6  1  0
  7  6  2  0
  8  7  1  0
  9  4  1  0
  9  8  2  0
 10  3  1  0
 11 10  2  0
 12 13  2  0
 12 10  1  0
 14 13  1  0
 15 20  2  0
 15 14  1  0
 16 15  1  0
 17 18  1  0
 17 16  2  0
 18 19  2  0
 19 20  1  0
 20 12  1  0
  1 21  1  1
  2 22  1  0
  2 23  1  0
  3 24  1  1
  4 25  1  0
  6 26  1  0
  8 27  1  0
 13 28  1  0
 14 29  1  0
 16 30  1  0
 17 31  1  0
 18 32  1  0
 19 33  1  0
M  ISO  8  21  13  22  13  23  13  24  13  25  14  26  14  27  14  28  14
M  ISO  5  29   9  30  14  31  14  32  14  33  14
M  END
>  <minimizedAffinity>  (1) 
-5.09337997

>  <minimizedRMSD>  (1) 
3.52491975

$$$$
