
     RDKit          3D

 29 31  0  0  1  0  0  0  0  0999 V2000
   38.2560   26.3310   36.3580 C   0  0  1  0  0  0  0  0  0  0  0  0
   39.0220   27.3380   35.6650 C   0  0  0  0  0  0  0  0  0  0  0  0
   37.6490   27.1480   35.2070 C   0  0  1  0  0  0  0  0  0  0  0  0
   39.5900   24.4110   35.5660 C   0  0  0  0  0  0  0  0  0  0  0  0
   38.4430   24.8960   36.1820 C   0  0  0  0  0  0  0  0  0  0  0  0
   37.5000   23.9620   36.6250 C   0  0  0  0  0  0  0  0  0  0  0  0
   37.7500   22.6410   36.4340 N   0  0  0  0  0  0  0  0  0  0  0  0
   38.9070   22.2020   35.8160 C   0  0  0  0  0  0  0  0  0  0  0  0
   39.8290   23.1020   35.3810 N   0  0  0  0  0  0  0  0  0  0  0  0
   37.2680   26.5130   33.9440 C   0  0  0  0  0  0  0  0  0  0  0  0
   37.1140   25.3420   33.4670 O   0  0  0  0  0  0  0  0  0  0  0  0
   36.9400   27.4290   32.8200 C   0  0  0  0  0  0  0  0  0  0  0  0
   37.2410   27.1800   31.4990 C   0  0  0  0  0  0  0  0  0  0  0  0
   36.9350   28.0200   30.4290 C   0  0  0  0  0  0  0  0  0  0  0  0
   36.2780   29.1930   30.7100 C   0  0  0  0  0  0  0  0  0  0  0  0
   35.9450   29.5060   32.0100 C   0  0  0  0  0  0  0  0  0  0  0  0
   36.2890   28.6140   33.0010 C   0  0  0  0  0  0  0  0  0  0  0  0
   38.0480   26.1378   37.4208 H   0  0  0  0  0  0  0  0  0  0  0  0
   39.2913   28.2664   36.1900 H   0  0  0  0  0  0  0  0  0  0  0  0
   39.9959   27.3255   35.1538 H   0  0  0  0  0  0  0  0  0  0  0  0
   36.7895   27.8156   35.0470 H   0  0  0  0  0  0  0  0  0  0  0  0
   40.3394   25.1345   35.2123 H   0  0  0  0  0  0  0  0  0  0  0  0
   36.5738   24.2915   37.1186 H   0  0  0  0  0  0  0  0  0  0  0  0
   39.0813   21.1249   35.6764 H   0  0  0  0  0  0  0  0  0  0  0  0
   37.7660   26.2411   31.2694 H   0  0  0  0  0  0  0  0  0  0  0  0
   37.2096   27.7531   29.3978 H   0  0  0  0  0  0  0  0  0  0  0  0
   36.0170   29.8843   29.8952 H   0  0  0  0  0  0  0  0  0  0  0  0
   35.4192   30.4421   32.2493 H   0  0  0  0  0  0  0  0  0  0  0  0
   36.0139   28.8812   34.0320 H   0  0  0  0  0  0  0  0  0  0  0  0
  2  1  1  0
  3  2  1  0
  3  1  1  0
  4  5  2  0
  5  1  1  0
  5  6  1  0
  7  6  2  0
  8  7  1  0
  9  4  1  0
  9  8  2  0
 10  3  1  0
 11 10  2  0
 12 17  1  0
 12 10  1  0
 13 12  2  0
 14 15  2  0
 14 13  1  0
 15 16  1  0
 16 17  2  0
  1 18  1  1
  2 19  1  0
  2 20  1  0
  3 21  1  1
  4 22  1  0
  6 23  1  0
  8 24  1  0
 13 25  1  0
 14 26  1  0
 15 27  1  0
 16 28  1  0
 17 29  1  0
M  ISO  8  18  13  19  13  20  13  21  13  22  14  23  14  24  14  25  14
M  ISO  4  26  14  27  14  28  14  29  14
M  END
>  <minimizedAffinity>  (1) 
-4.75098324

>  <minimizedRMSD>  (1) 
2.95228696

$$$$
