
     RDKit          3D

 32 34  0  0  1  0  0  0  0  0999 V2000
   38.2830   26.3770   36.2780 C   0  0  1  0  0  0  0  0  0  0  0  0
   39.0110   27.3420   35.4940 C   0  0  0  0  0  0  0  0  0  0  0  0
   37.6160   27.1280   35.1210 C   0  0  1  0  0  0  0  0  0  0  0  0
   39.5990   24.4060   35.5870 C   0  0  0  0  0  0  0  0  0  0  0  0
   38.4520   24.9310   36.1710 C   0  0  0  0  0  0  0  0  0  0  0  0
   37.5020   24.0410   36.6580 C   0  0  0  0  0  0  0  0  0  0  0  0
   37.7350   22.7060   36.5450 N   0  0  0  0  0  0  0  0  0  0  0  0
   38.8900   22.2160   35.9610 C   0  0  0  0  0  0  0  0  0  0  0  0
   39.8210   23.0890   35.4810 N   0  0  0  0  0  0  0  0  0  0  0  0
   37.2220   26.4440   33.8910 C   0  0  0  0  0  0  0  0  0  0  0  0
   37.1800   25.3280   33.3130 O   0  0  0  0  0  0  0  0  0  0  0  0
   36.6360   27.2170   32.8180 N   0  0  0  0  0  0  0  0  0  0  0  0
   36.9110   26.6780   31.5060 C   0  0  0  0  0  0  0  0  0  0  0  0
   36.5840   27.8190   30.5340 C   0  0  0  0  0  0  0  0  0  0  0  0
   37.1900   28.9700   31.0210 O   0  0  0  0  0  0  0  0  0  0  0  0
   36.3540   29.5250   31.9800 C   0  0  0  0  0  0  0  0  0  0  0  0
   35.8320   28.4190   32.8530 C   0  0  0  0  0  0  0  0  0  0  0  0
   38.1366   26.2435   37.3600 H   0  0  0  0  0  0  0  0  0  0  0  0
   39.3061   28.2972   35.9528 H   0  0  0  0  0  0  0  0  0  0  0  0
   39.9570   27.3007   34.9342 H   0  0  0  0  0  0  0  0  0  0  0  0
   36.7315   27.7682   34.9876 H   0  0  0  0  0  0  0  0  0  0  0  0
   40.3563   25.1011   35.1954 H   0  0  0  0  0  0  0  0  0  0  0  0
   36.5778   24.4101   37.1267 H   0  0  0  0  0  0  0  0  0  0  0  0
   39.0556   21.1312   35.8847 H   0  0  0  0  0  0  0  0  0  0  0  0
   37.9687   26.3880   31.4206 H   0  0  0  0  0  0  0  0  0  0  0  0
   36.3198   25.7741   31.2974 H   0  0  0  0  0  0  0  0  0  0  0  0
   35.4950   27.9633   30.4773 H   0  0  0  0  0  0  0  0  0  0  0  0
   36.9527   27.5850   29.5244 H   0  0  0  0  0  0  0  0  0  0  0  0
   36.9170   30.2460   32.5909 H   0  0  0  0  0  0  0  0  0  0  0  0
   35.5178   30.0490   31.4941 H   0  0  0  0  0  0  0  0  0  0  0  0
   34.8148   28.1654   32.5199 H   0  0  0  0  0  0  0  0  0  0  0  0
   35.8565   28.7901   33.8882 H   0  0  0  0  0  0  0  0  0  0  0  0
  2  1  1  0
  3  2  1  0
  3  1  1  0
  4  5  2  0
  5  1  1  0
  5  6  1  0
  7  6  2  0
  8  7  1  0
  9  4  1  0
  9  8  2  0
 10  3  1  0
 11 10  2  0
 12 17  1  0
 12 10  1  0
 13 12  1  0
 14 15  1  0
 14 13  1  0
 15 16  1  0
 16 17  1  0
  1 18  1  1
  2 19  1  0
  2 20  1  0
  3 21  1  1
  4 22  1  0
  6 23  1  0
  8 24  1  0
 13 25  1  0
 13 26  1  0
 14 27  1  0
 14 28  1  0
 16 29  1  0
 16 30  1  0
 17 31  1  0
 17 32  1  0
M  ISO  8  18  13  19  13  20  13  21  13  22  14  23  14  24  14  25  13
M  ISO  7  26  13  27  13  28  13  29  13  30  13  31  13  32  13
M  END
>  <minimizedAffinity>  (1) 
-4.67161846

>  <minimizedRMSD>  (1) 
2.51876831

$$$$
