
     RDKit          3D

 31 33  0  0  1  0  0  0  0  0999 V2000
   38.2790   26.4090   36.2460 C   0  0  1  0  0  0  0  0  0  0  0  0
   39.0010   27.3680   35.4490 C   0  0  0  0  0  0  0  0  0  0  0  0
   37.6100   27.1430   35.0780 C   0  0  1  0  0  0  0  0  0  0  0  0
   39.5860   24.4240   35.5700 C   0  0  0  0  0  0  0  0  0  0  0  0
   38.4460   24.9620   36.1570 C   0  0  0  0  0  0  0  0  0  0  0  0
   37.4820   24.0840   36.6700 C   0  0  0  0  0  0  0  0  0  0  0  0
   37.7060   22.7430   36.5720 N   0  0  0  0  0  0  0  0  0  0  0  0
   38.8570   22.2470   35.9800 C   0  0  0  0  0  0  0  0  0  0  0  0
   39.7960   23.0950   35.4790 N   0  0  0  0  0  0  0  0  0  0  0  0
   37.2120   26.4340   33.8610 C   0  0  0  0  0  0  0  0  0  0  0  0
   37.2000   25.3090   33.2990 O   0  0  0  0  0  0  0  0  0  0  0  0
   36.5720   27.1470   32.7900 N   0  0  0  0  0  0  0  0  0  0  0  0
   36.7520   26.7040   31.4290 C   0  0  0  0  0  0  0  0  0  0  0  0
   36.5520   27.7180   30.3830 C   0  0  0  0  0  0  0  0  0  0  0  0
   36.3840   29.0670   30.7480 N   0  0  0  0  0  0  0  0  0  0  0  0
   36.4590   29.4090   32.1240 C   0  0  0  0  0  0  0  0  0  0  0  0
   35.7130   28.3260   32.8840 C   0  0  0  0  0  0  0  0  0  0  0  0
   38.1378   26.2886   37.3302 H   0  0  0  0  0  0  0  0  0  0  0  0
   39.2908   28.3307   35.8955 H   0  0  0  0  0  0  0  0  0  0  0  0
   39.9473   27.3242   34.8899 H   0  0  0  0  0  0  0  0  0  0  0  0
   36.7263   27.7816   34.9320 H   0  0  0  0  0  0  0  0  0  0  0  0
   40.3455   25.1086   35.1644 H   0  0  0  0  0  0  0  0  0  0  0  0
   36.5652   24.4682   37.1411 H   0  0  0  0  0  0  0  0  0  0  0  0
   39.0125   21.1600   35.9147 H   0  0  0  0  0  0  0  0  0  0  0  0
   37.0236   25.6659   31.1872 H   0  0  0  0  0  0  0  0  0  0  0  0
   36.5338   27.4244   29.3230 H   0  0  0  0  0  0  0  0  0  0  0  0
   36.2108   29.7888   30.0339 H   0  0  0  0  0  0  0  0  0  0  0  0
   37.5093   29.4453   32.4489 H   0  0  0  0  0  0  0  0  0  0  0  0
   36.0173   30.3990   32.3104 H   0  0  0  0  0  0  0  0  0  0  0  0
   34.7346   28.1309   32.4206 H   0  0  0  0  0  0  0  0  0  0  0  0
   35.5127   28.6126   33.9270 H   0  0  0  0  0  0  0  0  0  0  0  0
  2  1  1  0
  3  2  1  0
  3  1  1  0
  4  5  2  0
  5  1  1  0
  5  6  1  0
  7  6  2  0
  8  7  1  0
  9  4  1  0
  9  8  2  0
 10  3  1  0
 11 10  2  0
 12 17  1  0
 12 10  1  0
 13 12  1  0
 14 15  1  0
 14 13  2  0
 15 16  1  0
 16 17  1  0
  1 18  1  1
  2 19  1  0
  2 20  1  0
  3 21  1  1
  4 22  1  0
  6 23  1  0
  8 24  1  0
 13 25  1  0
 14 26  1  0
 15 27  1  0
 16 28  1  0
 16 29  1  0
 17 30  1  0
 17 31  1  0
M  ISO  8  18  13  19  13  20  13  21  13  22  14  23  14  24  14  25  13
M  ISO  5  26  13  28  13  29  13  30  13  31  13
M  END
>  <minimizedAffinity>  (1) 
-4.60254526

>  <minimizedRMSD>  (1) 
2.5416019

$$$$
