
     RDKit          3D

 27 29  0  0  1  0  0  0  0  0999 V2000
   38.2610   26.3450   36.3570 C   0  0  1  0  0  0  0  0  0  0  0  0
   39.0010   27.3460   35.6360 C   0  0  0  0  0  0  0  0  0  0  0  0
   37.6310   27.1340   35.1980 C   0  0  1  0  0  0  0  0  0  0  0  0
   39.5920   24.4090   35.6040 C   0  0  0  0  0  0  0  0  0  0  0  0
   38.4420   24.9060   36.2050 C   0  0  0  0  0  0  0  0  0  0  0  0
   37.4880   23.9880   36.6610 C   0  0  0  0  0  0  0  0  0  0  0  0
   37.7340   22.6570   36.4950 N   0  0  0  0  0  0  0  0  0  0  0  0
   38.8960   22.2060   35.8900 C   0  0  0  0  0  0  0  0  0  0  0  0
   39.8250   23.0930   35.4450 N   0  0  0  0  0  0  0  0  0  0  0  0
   37.2560   26.4730   33.9420 C   0  0  0  0  0  0  0  0  0  0  0  0
   37.1600   25.3050   33.4440 O   0  0  0  0  0  0  0  0  0  0  0  0
   36.8390   27.4160   32.8510 C   0  0  0  0  0  0  0  0  0  0  0  0
   36.2740   28.6550   32.9820 C   0  0  0  0  0  0  0  0  0  0  0  0
   35.8980   29.5060   31.9720 C   0  0  0  0  0  0  0  0  0  0  0  0
   36.1150   29.0620   30.7330 N   0  0  0  0  0  0  0  0  0  0  0  0
   36.6650   27.8580   30.5140 C   0  0  0  0  0  0  0  0  0  0  0  0
   37.0030   27.0890   31.5320 N   0  0  0  0  0  0  0  0  0  0  0  0
   38.0809   26.1698   37.4279 H   0  0  0  0  0  0  0  0  0  0  0  0
   39.2650   28.2872   36.1403 H   0  0  0  0  0  0  0  0  0  0  0  0
   39.9684   27.3349   35.1125 H   0  0  0  0  0  0  0  0  0  0  0  0
   36.7584   27.7846   35.0391 H   0  0  0  0  0  0  0  0  0  0  0  0
   40.3460   25.1234   35.2418 H   0  0  0  0  0  0  0  0  0  0  0  0
   36.5609   24.3328   37.1423 H   0  0  0  0  0  0  0  0  0  0  0  0
   39.0674   21.1262   35.7693 H   0  0  0  0  0  0  0  0  0  0  0  0
   36.1020   29.0084   34.0094 H   0  0  0  0  0  0  0  0  0  0  0  0
   35.4474   30.4894   32.1716 H   0  0  0  0  0  0  0  0  0  0  0  0
   36.8346   27.5111   29.4840 H   0  0  0  0  0  0  0  0  0  0  0  0
  2  1  1  0
  3  2  1  0
  3  1  1  0
  4  5  2  0
  5  1  1  0
  5  6  1  0
  7  6  2  0
  8  7  1  0
  9  4  1  0
  9  8  2  0
 10  3  1  0
 11 10  2  0
 12 13  2  0
 12 10  1  0
 14 13  1  0
 15 14  2  0
 16 15  1  0
 16 17  2  0
 17 12  1  0
  1 18  1  1
  2 19  1  0
  2 20  1  0
  3 21  1  1
  4 22  1  0
  6 23  1  0
  8 24  1  0
 13 25  1  0
 14 26  1  0
 16 27  1  0
M  ISO  8  18  13  19  13  20  13  21  13  22  14  23  14  24  14  25  14
M  ISO  2  26  14  27  14
M  END
>  <minimizedAffinity>  (1) 
-4.54673147

>  <minimizedRMSD>  (1) 
2.90802121

$$$$
