
     RDKit          3D

 27 29  0  0  1  0  0  0  0  0999 V2000
   38.2110   26.2800   36.3230 C   0  0  1  0  0  0  0  0  0  0  0  0
   38.8720   27.3760   35.6600 C   0  0  0  0  0  0  0  0  0  0  0  0
   37.5350   27.0600   35.1850 C   0  0  1  0  0  0  0  0  0  0  0  0
   39.7200   24.5060   35.5120 C   0  0  0  0  0  0  0  0  0  0  0  0
   38.5240   24.8710   36.1160 C   0  0  0  0  0  0  0  0  0  0  0  0
   37.6600   23.8560   36.5280 C   0  0  0  0  0  0  0  0  0  0  0  0
   38.0270   22.5610   36.3190 N   0  0  0  0  0  0  0  0  0  0  0  0
   39.2290   22.2370   35.7160 C   0  0  0  0  0  0  0  0  0  0  0  0
   40.0770   23.2200   35.3120 N   0  0  0  0  0  0  0  0  0  0  0  0
   37.2340   26.4190   33.8990 C   0  0  0  0  0  0  0  0  0  0  0  0
   37.1960   25.2590   33.3760 O   0  0  0  0  0  0  0  0  0  0  0  0
   36.8370   27.3790   32.8150 C   0  0  0  0  0  0  0  0  0  0  0  0
   36.2850   28.6290   32.9770 C   0  0  0  0  0  0  0  0  0  0  0  0
   35.9220   29.5060   31.9850 C   0  0  0  0  0  0  0  0  0  0  0  0
   36.1350   29.0860   30.7280 N   0  0  0  0  0  0  0  0  0  0  0  0
   36.6710   27.8750   30.5020 C   0  0  0  0  0  0  0  0  0  0  0  0
   37.0030   27.0660   31.5170 N   0  0  0  0  0  0  0  0  0  0  0  0
   38.0272   26.0422   37.3811 H   0  0  0  0  0  0  0  0  0  0  0  0
   39.0405   28.3143   36.2088 H   0  0  0  0  0  0  0  0  0  0  0  0
   39.8456   27.4751   35.1577 H   0  0  0  0  0  0  0  0  0  0  0  0
   36.6131   27.6403   35.0321 H   0  0  0  0  0  0  0  0  0  0  0  0
   40.4064   25.2998   35.1822 H   0  0  0  0  0  0  0  0  0  0  0  0
   36.7019   24.0966   37.0118 H   0  0  0  0  0  0  0  0  0  0  0  0
   39.4994   21.1818   35.5630 H   0  0  0  0  0  0  0  0  0  0  0  0
   36.1165   28.9611   34.0120 H   0  0  0  0  0  0  0  0  0  0  0  0
   35.4843   30.4906   32.2063 H   0  0  0  0  0  0  0  0  0  0  0  0
   36.8400   27.5424   29.4672 H   0  0  0  0  0  0  0  0  0  0  0  0
  2  1  1  0
  3  2  1  0
  3  1  1  0
  4  5  2  0
  5  1  1  0
  5  6  1  0
  7  6  2  0
  8  7  1  0
  9  4  1  0
  9  8  2  0
 10  3  1  0
 11 10  2  0
 12 13  2  0
 12 10  1  0
 14 13  1  0
 15 14  2  0
 16 15  1  0
 16 17  2  0
 17 12  1  0
  1 18  1  1
  2 19  1  0
  2 20  1  0
  3 21  1  1
  4 22  1  0
  6 23  1  0
  8 24  1  0
 13 25  1  0
 14 26  1  0
 16 27  1  0
M  ISO  8  18  13  19  13  20  13  21  13  22  14  23  14  24  14  25  14
M  ISO  2  26  14  27  14
M  END
>  <minimizedAffinity>  (1) 
-4.54194593

>  <minimizedRMSD>  (1) 
2.89857101

$$$$
