
     RDKit          3D

 26 28  0  0  1  0  0  0  0  0999 V2000
   38.9480   26.5090   35.5390 C   0  0  1  0  0  0  0  0  0  0  0  0
   39.7180   27.1120   34.4800 C   0  0  0  0  0  0  0  0  0  0  0  0
   38.2720   27.1320   34.3110 C   0  0  1  0  0  0  0  0  0  0  0  0
   39.7610   24.2030   35.1930 C   0  0  0  0  0  0  0  0  0  0  0  0
   38.8290   25.0690   35.7490 C   0  0  0  0  0  0  0  0  0  0  0  0
   37.8010   24.5250   36.5230 C   0  0  0  0  0  0  0  0  0  0  0  0
   37.7610   23.1730   36.6950 N   0  0  0  0  0  0  0  0  0  0  0  0
   38.7120   22.3440   36.1230 C   0  0  0  0  0  0  0  0  0  0  0  0
   39.7130   22.8710   35.3700 N   0  0  0  0  0  0  0  0  0  0  0  0
   37.5470   26.3100   33.3370 C   0  0  0  0  0  0  0  0  0  0  0  0
   37.1350   25.1250   33.1650 O   0  0  0  0  0  0  0  0  0  0  0  0
   36.3450   27.5460   30.0810 N   0  0  0  0  0  0  0  0  0  0  0  0
   36.6420   26.5460   30.9280 N   0  0  0  0  0  0  0  0  0  0  0  0
   37.0890   26.9960   32.0850 C   0  0  0  0  0  0  0  0  0  0  0  0
   37.0500   28.3860   31.9040 C   0  0  0  0  0  0  0  0  0  0  0  0
   36.5860   28.7340   30.6560 C   0  0  0  0  0  0  0  0  0  0  0  0
   38.9386   26.6361   36.6316 H   0  0  0  0  0  0  0  0  0  0  0  0
   40.2512   28.0549   34.6712 H   0  0  0  0  0  0  0  0  0  0  0  0
   40.5457   26.7526   33.8509 H   0  0  0  0  0  0  0  0  0  0  0  0
   37.5238   27.9129   34.1100 H   0  0  0  0  0  0  0  0  0  0  0  0
   40.5728   24.6244   34.5820 H   0  0  0  0  0  0  0  0  0  0  0  0
   37.0407   25.1730   36.9834 H   0  0  0  0  0  0  0  0  0  0  0  0
   38.6568   21.2565   36.2787 H   0  0  0  0  0  0  0  0  0  0  0  0
   35.9833   27.4185   29.1251 H   0  0  0  0  0  0  0  0  0  0  0  0
   37.3549   29.1137   32.6705 H   0  0  0  0  0  0  0  0  0  0  0  0
   36.4468   29.7400   30.2333 H   0  0  0  0  0  0  0  0  0  0  0  0
  1  5  1  0
  2  1  1  0
  3  2  1  0
  3  1  1  0
  4  9  2  0
  4  5  1  0
  5  6  2  0
  6  7  1  0
  8  7  2  0
  9  8  1  0
 10  3  1  0
 11 10  2  0
 12 16  1  0
 12 13  1  0
 13 14  2  0
 14 10  1  0
 15 14  1  0
 16 15  2  0
  1 17  1  1
  2 18  1  0
  2 19  1  0
  3 20  1  1
  4 21  1  0
  6 22  1  0
  8 23  1  0
 12 24  1  0
 15 25  1  0
 16 26  1  0
M  ISO  8  17  13  18  13  19  13  20  13  21  14  22  14  23  14  24   9
M  ISO  2  25  14  26  14
M  END
>  <minimizedAffinity>  (1) 
-4.40621185

>  <minimizedRMSD>  (1) 
2.91311121

$$$$
