
     RDKit          3D

 26 28  0  0  1  0  0  0  0  0999 V2000
   38.9380   26.5170   35.5250 C   0  0  1  0  0  0  0  0  0  0  0  0
   39.7120   27.1170   34.4660 C   0  0  0  0  0  0  0  0  0  0  0  0
   38.2680   27.1260   34.2860 C   0  0  1  0  0  0  0  0  0  0  0  0
   39.7720   24.2150   35.1970 C   0  0  0  0  0  0  0  0  0  0  0  0
   38.8330   25.0780   35.7450 C   0  0  0  0  0  0  0  0  0  0  0  0
   37.8040   24.5290   36.5190 C   0  0  0  0  0  0  0  0  0  0  0  0
   37.7750   23.1800   36.6980 N   0  0  0  0  0  0  0  0  0  0  0  0
   38.7320   22.3520   36.1350 C   0  0  0  0  0  0  0  0  0  0  0  0
   39.7320   22.8850   35.3820 N   0  0  0  0  0  0  0  0  0  0  0  0
   37.5480   26.2920   33.3200 C   0  0  0  0  0  0  0  0  0  0  0  0
   37.1440   25.0940   33.1710 O   0  0  0  0  0  0  0  0  0  0  0  0
   37.1050   26.9980   32.0670 C   0  0  0  0  0  0  0  0  0  0  0  0
   37.1420   28.3670   31.8730 C   0  0  0  0  0  0  0  0  0  0  0  0
   36.6760   28.7460   30.6360 C   0  0  0  0  0  0  0  0  0  0  0  0
   36.3490   27.5760   30.0670 N   0  0  0  0  0  0  0  0  0  0  0  0
   36.5960   26.5820   30.8900 N   0  0  0  0  0  0  0  0  0  0  0  0
   38.9160   26.6528   36.6164 H   0  0  0  0  0  0  0  0  0  0  0  0
   40.2374   28.0650   34.6534 H   0  0  0  0  0  0  0  0  0  0  0  0
   40.5467   26.7580   33.8460 H   0  0  0  0  0  0  0  0  0  0  0  0
   37.5194   27.9022   34.0690 H   0  0  0  0  0  0  0  0  0  0  0  0
   40.5828   24.6378   34.5856 H   0  0  0  0  0  0  0  0  0  0  0  0
   37.0362   25.1732   36.9723 H   0  0  0  0  0  0  0  0  0  0  0  0
   38.6836   21.2650   36.2964 H   0  0  0  0  0  0  0  0  0  0  0  0
   37.5061   29.0781   32.6291 H   0  0  0  0  0  0  0  0  0  0  0  0
   36.5920   29.7593   30.2163 H   0  0  0  0  0  0  0  0  0  0  0  0
   35.9595   27.4717   29.1192 H   0  0  0  0  0  0  0  0  0  0  0  0
  1  5  1  0
  2  1  1  0
  3  2  1  0
  3  1  1  0
  4  9  2  0
  4  5  1  0
  5  6  2  0
  6  7  1  0
  8  7  2  0
  9  8  1  0
 10  3  1  0
 11 10  2  0
 12 10  1  0
 13 12  1  0
 14 13  2  0
 15 14  1  0
 15 16  1  0
 16 12  2  0
  1 17  1  1
  2 18  1  0
  2 19  1  0
  3 20  1  1
  4 21  1  0
  6 22  1  0
  8 23  1  0
 13 24  1  0
 14 25  1  0
 15 26  1  0
M  ISO  8  17  13  18  13  19  13  20  13  21  14  22  14  23  14  24  14
M  ISO  2  25  14  26   9
M  END
>  <minimizedAffinity>  (1) 
-4.38717794

>  <minimizedRMSD>  (1) 
2.9697144

$$$$
