
     RDKit          3D

 26 28  0  0  1  0  0  0  0  0999 V2000
   38.2640   26.3680   36.2840 C   0  0  1  0  0  0  0  0  0  0  0  0
   39.0180   27.3450   35.5400 C   0  0  0  0  0  0  0  0  0  0  0  0
   37.6510   27.1270   35.0990 C   0  0  1  0  0  0  0  0  0  0  0  0
   39.6060   24.4150   35.5920 C   0  0  0  0  0  0  0  0  0  0  0  0
   38.4520   24.9250   36.1730 C   0  0  0  0  0  0  0  0  0  0  0  0
   37.5030   24.0240   36.6540 C   0  0  0  0  0  0  0  0  0  0  0  0
   37.7490   22.6860   36.5330 N   0  0  0  0  0  0  0  0  0  0  0  0
   38.9130   22.2190   35.9480 C   0  0  0  0  0  0  0  0  0  0  0  0
   39.8410   23.0960   35.4780 N   0  0  0  0  0  0  0  0  0  0  0  0
   37.2770   26.4320   33.8630 C   0  0  0  0  0  0  0  0  0  0  0  0
   37.1780   25.2540   33.3950 O   0  0  0  0  0  0  0  0  0  0  0  0
   36.8630   27.3240   32.7310 C   0  0  0  0  0  0  0  0  0  0  0  0
   36.8030   26.9620   31.3770 C   0  0  0  0  0  0  0  0  0  0  0  0
   36.3940   28.0040   30.6530 N   0  0  0  0  0  0  0  0  0  0  0  0
   36.1730   29.0670   31.4810 C   0  0  0  0  0  0  0  0  0  0  0  0
   36.4740   28.5840   32.7000 N   0  0  0  0  0  0  0  0  0  0  0  0
   38.0654   26.2236   37.3562 H   0  0  0  0  0  0  0  0  0  0  0  0
   39.2835   28.2990   36.0190 H   0  0  0  0  0  0  0  0  0  0  0  0
   39.9895   27.3139   35.0250 H   0  0  0  0  0  0  0  0  0  0  0  0
   36.7853   27.7798   34.9134 H   0  0  0  0  0  0  0  0  0  0  0  0
   40.3590   25.1195   35.2092 H   0  0  0  0  0  0  0  0  0  0  0  0
   36.5746   24.3836   37.1217 H   0  0  0  0  0  0  0  0  0  0  0  0
   39.0883   21.1364   35.8628 H   0  0  0  0  0  0  0  0  0  0  0  0
   37.0549   25.9699   30.9742 H   0  0  0  0  0  0  0  0  0  0  0  0
   35.8304   30.0778   31.2147 H   0  0  0  0  0  0  0  0  0  0  0  0
   36.4053   29.1593   33.5516 H   0  0  0  0  0  0  0  0  0  0  0  0
  2  1  1  0
  3  2  1  0
  3  1  1  0
  4  5  2  0
  5  1  1  0
  5  6  1  0
  7  6  2  0
  8  7  1  0
  9  4  1  0
  9  8  2  0
 10  3  1  0
 11 10  2  0
 12 10  1  0
 13 12  2  0
 14 13  1  0
 14 15  2  0
 15 16  1  0
 16 12  1  0
  1 17  1  1
  2 18  1  0
  2 19  1  0
  3 20  1  1
  4 21  1  0
  6 22  1  0
  8 23  1  0
 13 24  1  0
 15 25  1  0
 16 26  1  0
M  ISO  8  17  13  18  13  19  13  20  13  21  14  22  14  23  14  24  14
M  ISO  2  25  14  26   9
M  END
>  <minimizedAffinity>  (1) 
-4.26728821

>  <minimizedRMSD>  (1) 
2.54772949

$$$$
