
     RDKit          3D

 26 27  0  0  1  0  0  0  0  0999 V2000
   39.1370   26.4320   35.6930 C   0  0  1  0  0  0  0  0  0  0  0  0
   39.8990   27.0190   34.6190 C   0  0  0  0  0  0  0  0  0  0  0  0
   38.4730   27.2400   34.5660 C   0  0  1  0  0  0  0  0  0  0  0  0
   37.5500   26.6010   33.6220 C   0  0  0  0  0  0  0  0  0  0  0  0
   37.1440   25.4320   33.3280 O   0  0  0  0  0  0  0  0  0  0  0  0
   36.8380   27.4840   32.7050 N   0  0  0  0  0  0  0  0  0  0  0  0
   35.9590   28.5340   33.0250 C   0  0  0  0  0  0  0  0  0  0  0  0
   35.7490   28.7510   34.2760 N   0  0  0  0  0  0  0  0  0  0  0  0
   35.3300   29.3200   32.0090 N   0  0  0  0  0  0  0  0  0  0  0  0
   35.1070   29.5180   34.5580 H   0  0  0  0  0  0  0  0  0  0  0  0
   39.6040   24.0720   35.1210 C   0  0  0  0  0  0  0  0  0  0  0  0
   38.8350   25.0070   35.8030 C   0  0  0  0  0  0  0  0  0  0  0  0
   37.7830   24.5440   36.5960 C   0  0  0  0  0  0  0  0  0  0  0  0
   37.5570   23.2000   36.6650 N   0  0  0  0  0  0  0  0  0  0  0  0
   38.3470   22.3010   35.9690 C   0  0  0  0  0  0  0  0  0  0  0  0
   39.3730   22.7530   35.1960 N   0  0  0  0  0  0  0  0  0  0  0  0
   39.2230   26.4655   36.7891 H   0  0  0  0  0  0  0  0  0  0  0  0
   40.5665   27.8664   34.8343 H   0  0  0  0  0  0  0  0  0  0  0  0
   40.6226   26.6081   33.8996 H   0  0  0  0  0  0  0  0  0  0  0  0
   37.8394   28.1335   34.4649 H   0  0  0  0  0  0  0  0  0  0  0  0
   36.9985   27.3184   31.7012 H   0  0  0  0  0  0  0  0  0  0  0  0
   34.6902   30.0835   32.2708 H   0  0  0  0  0  0  0  0  0  0  0  0
   35.5169   29.1225   31.0155 H   0  0  0  0  0  0  0  0  0  0  0  0
   40.4353   24.4278   34.4947 H   0  0  0  0  0  0  0  0  0  0  0  0
   37.1490   25.2487   37.1540 H   0  0  0  0  0  0  0  0  0  0  0  0
   38.1460   21.2219   36.0404 H   0  0  0  0  0  0  0  0  0  0  0  0
  1 12  1  0
  2  1  1  0
  3  2  1  0
  3  1  1  0
  4  3  1  0
  5  4  2  0
  6  7  1  0
  6  4  1  0
  7  8  2  0
  8 10  1  0
  9  7  1  0
 11 16  2  0
 11 12  1  0
 12 13  2  0
 13 14  1  0
 15 14  2  0
 16 15  1  0
  1 17  1  1
  2 18  1  0
  2 19  1  0
  3 20  1  1
  6 21  1  0
  9 22  1  0
  9 23  1  0
 11 24  1  0
 13 25  1  0
 15 26  1  0
M  ISO  7  17  13  18  13  19  13  20  13  24  14  25  14  26  14
M  END
>  <minimizedAffinity>  (1) 
-4.04112816

>  <minimizedRMSD>  (1) 
2.23347497

$$$$
