
     RDKit          3D

 20 21  0  0  1  0  0  0  0  0999 V2000
   39.4290   26.3060   35.6770 C   0  0  1  0  0  0  0  0  0  0  0  0
   39.9650   26.8410   34.4560 C   0  0  0  0  0  0  0  0  0  0  0  0
   38.6910   27.3950   34.8860 C   0  0  1  0  0  0  0  0  0  0  0  0
   39.0700   24.0040   34.8790 C   0  0  0  0  0  0  0  0  0  0  0  0
   38.8060   24.9970   35.8150 C   0  0  0  0  0  0  0  0  0  0  0  0
   37.9660   24.6830   36.8770 C   0  0  0  0  0  0  0  0  0  0  0  0
   37.4460   23.4300   36.9510 N   0  0  0  0  0  0  0  0  0  0  0  0
   37.7290   22.4620   36.0050 C   0  0  0  0  0  0  0  0  0  0  0  0
   38.5500   22.7640   34.9630 N   0  0  0  0  0  0  0  0  0  0  0  0
   37.4120   27.1160   34.2250 C   0  0  0  0  0  0  0  0  0  0  0  0
   36.9050   26.3800   33.3280 O   0  0  0  0  0  0  0  0  0  0  0  0
   36.2650   27.8220   34.6020 O   0  0  0  0  0  0  0  0  0  0  0  0
   39.8526   26.1613   36.6818 H   0  0  0  0  0  0  0  0  0  0  0  0
   40.0000   26.2048   33.5593 H   0  0  0  0  0  0  0  0  0  0  0  0
   40.9325   27.2939   34.1935 H   0  0  0  0  0  0  0  0  0  0  0  0
   38.3071   28.4094   35.0691 H   0  0  0  0  0  0  0  0  0  0  0  0
   39.7321   24.2408   34.0331 H   0  0  0  0  0  0  0  0  0  0  0  0
   37.7267   25.4350   37.6433 H   0  0  0  0  0  0  0  0  0  0  0  0
   37.2938   21.4557   36.0942 H   0  0  0  0  0  0  0  0  0  0  0  0
   35.4004   27.6355   34.1573 H   0  0  0  0  0  0  0  0  0  0  0  0
  1  5  1  0
  2  3  1  0
  2  1  1  0
  3  1  1  0
  4  9  2  0
  4  5  1  0
  5  6  2  0
  6  7  1  0
  8  7  2  0
  9  8  1  0
 10 12  1  0
 10  3  1  0
 11 10  2  0
  1 13  1  1
  2 14  1  0
  2 15  1  0
  3 16  1  1
  4 17  1  0
  6 18  1  0
  8 19  1  0
 12 20  1  0
M  ISO  8  13  13  14  13  15  13  16  13  17  14  18  14  19  14  20   3
M  END
>  <minimizedAffinity>  (1) 
-3.31130052

>  <minimizedRMSD>  (1) 
0.734729409

$$$$
