
     RDKit          3D

 38 42  0  0  1  0  0  0  0  0999 V2000
   37.1890   26.6020   33.9860 C   0  0  0  0  0  0  0  0  0  0  0  0
   37.1960   25.5070   33.3010 O   0  0  0  0  0  0  0  0  0  0  0  0
   36.7360   27.7520   33.1220 C   0  0  0  0  0  0  0  0  0  0  0  0
   35.8110   28.5600   33.7100 C   0  0  0  0  0  0  0  0  0  0  0  0
   35.5560   29.8720   32.3230 S   0  0  0  0  0  0  0  0  0  0  0  0
   36.8110   28.9850   31.2220 C   0  0  0  0  0  0  0  0  0  0  0  0
   37.1270   28.0790   31.9170 N   0  0  0  0  0  0  0  0  0  0  0  0
   37.2990   29.2670   29.9010 N   0  0  0  0  0  0  0  0  0  0  0  0
   37.9380   28.4870   29.0050 C   0  0  0  0  0  0  0  0  0  0  0  0
   38.1490   29.2800   27.9450 N   0  0  0  0  0  0  0  0  0  0  0  0
   37.6650   30.5150   28.1590 C   0  0  0  0  0  0  0  0  0  0  0  0
   37.6610   31.6480   27.3480 C   0  0  0  0  0  0  0  0  0  0  0  0
   37.0950   32.7580   27.8430 N   0  0  0  0  0  0  0  0  0  0  0  0
   36.5420   32.7840   29.0860 C   0  0  0  0  0  0  0  0  0  0  0  0
   36.5700   31.6670   29.8320 N   0  0  0  0  0  0  0  0  0  0  0  0
   37.1140   30.5120   29.4250 C   0  0  0  0  0  0  0  0  0  0  0  0
   38.3240   26.0710   36.2870 C   0  0  1  0  0  0  0  0  0  0  0  0
   38.9140   27.2880   35.8140 C   0  0  0  0  0  0  0  0  0  0  0  0
   37.5220   26.9820   35.3780 C   0  0  1  0  0  0  0  0  0  0  0  0
   39.9180   24.6010   35.0810 C   0  0  0  0  0  0  0  0  0  0  0  0
   38.7240   24.7480   35.7980 C   0  0  0  0  0  0  0  0  0  0  0  0
   37.9920   23.5940   35.9970 C   0  0  0  0  0  0  0  0  0  0  0  0
   38.4540   22.4110   35.5050 N   0  0  0  0  0  0  0  0  0  0  0  0
   39.6220   22.3170   34.8130 C   0  0  0  0  0  0  0  0  0  0  0  0
   40.3610   23.4280   34.6000 N   0  0  0  0  0  0  0  0  0  0  0  0
   36.1495   26.4064   34.2881 H   0  0  0  0  0  0  0  0  0  0  0  0
   37.2010   24.7322   33.9173 H   0  0  0  0  0  0  0  0  0  0  0  0
   35.3403   28.4845   34.7013 H   0  0  0  0  0  0  0  0  0  0  0  0
   38.2236   27.4309   29.1192 H   0  0  0  0  0  0  0  0  0  0  0  0
   38.1046   31.6324   26.3415 H   0  0  0  0  0  0  0  0  0  0  0  0
   36.0799   33.7040   29.4735 H   0  0  0  0  0  0  0  0  0  0  0  0
   38.2004   25.6361   37.2898 H   0  0  0  0  0  0  0  0  0  0  0  0
   39.0934   28.1140   36.5180 H   0  0  0  0  0  0  0  0  0  0  0  0
   39.8456   27.5273   35.2803 H   0  0  0  0  0  0  0  0  0  0  0  0
   36.5493   27.4943   35.4157 H   0  0  0  0  0  0  0  0  0  0  0  0
   40.5283   25.4983   34.9014 H   0  0  0  0  0  0  0  0  0  0  0  0
   37.0415   23.6300   36.5495 H   0  0  0  0  0  0  0  0  0  0  0  0
   39.9621   21.3436   34.4298 H   0  0  0  0  0  0  0  0  0  0  0  0
  1  2  1  0
  1 19  1  0
  3  4  2  0
  3  1  1  0
  5  4  1  0
  6  7  2  0
  6  5  1  0
  7  3  1  0
  8  6  1  0
  9  8  1  0
 10 11  1  0
 10  9  2  0
 11 16  2  0
 12 13  2  0
 12 11  1  0
 13 14  1  0
 14 15  2  0
 16 15  1  0
 16  8  1  0
 18 17  1  0
 19 18  1  0
 19 17  1  0
 20 21  2  0
 21 22  1  0
 21 17  1  0
 23 22  2  0
 24 23  1  0
 25 24  2  0
 25 20  1  0
  1 26  1  0
  2 27  1  0
  4 28  1  0
  9 29  1  0
 12 30  1  0
 14 31  1  0
 17 32  1  1
 18 33  1  0
 18 34  1  0
 19 35  1  1
 20 36  1  0
 22 37  1  0
 24 38  1  0
M  ISO  8  26   8  27   3  28  14  29  14  30  14  31  14  32  13  33  13
M  ISO  5  34  13  35  13  36  14  37  14  38  14
M  END
>  <minimizedAffinity>  (1) 
-5.43435097

>  <minimizedRMSD>  (1) 
1.4100306

$$$$
