
     RDKit          3D

 33 36  0  0  1  0  0  0  0  0999 V2000
   38.3140   26.0740   36.2520 C   0  0  1  0  0  0  0  0  0  0  0  0
   38.9250   27.2780   35.7710 C   0  0  0  0  0  0  0  0  0  0  0  0
   37.5210   27.0050   35.3540 C   0  0  1  0  0  0  0  0  0  0  0  0
   39.8650   24.5630   35.0330 C   0  0  0  0  0  0  0  0  0  0  0  0
   38.6810   24.7430   35.7570 C   0  0  0  0  0  0  0  0  0  0  0  0
   37.9170   23.6130   35.9680 C   0  0  0  0  0  0  0  0  0  0  0  0
   38.3410   22.4150   35.4750 N   0  0  0  0  0  0  0  0  0  0  0  0
   39.5000   22.2850   34.7760 C   0  0  0  0  0  0  0  0  0  0  0  0
   40.2660   23.3720   34.5560 N   0  0  0  0  0  0  0  0  0  0  0  0
   37.1620   26.6290   33.9670 C   0  0  0  0  0  0  0  0  0  0  0  0
   37.1300   25.5360   33.2830 O   0  0  0  0  0  0  0  0  0  0  0  0
   36.7280   27.7880   33.1010 C   0  0  0  0  0  0  0  0  0  0  0  0
   35.8220   28.6090   33.6980 C   0  0  0  0  0  0  0  0  0  0  0  0
   35.5740   29.9350   32.3260 S   0  0  0  0  0  0  0  0  0  0  0  0
   36.7970   29.0340   31.2260 C   0  0  0  0  0  0  0  0  0  0  0  0
   37.1070   28.1210   31.9020 N   0  0  0  0  0  0  0  0  0  0  0  0
   37.2780   29.3130   29.9110 N   0  0  0  0  0  0  0  0  0  0  0  0
   37.8900   28.6710   28.9000 C   0  0  0  0  0  0  0  0  0  0  0  0
   38.0470   29.5790   27.9280 N   0  0  0  0  0  0  0  0  0  0  0  0
   37.5490   30.7700   28.2990 C   0  0  0  0  0  0  0  0  0  0  0  0
   37.0720   30.5830   29.5440 N   0  0  0  0  0  0  0  0  0  0  0  0
   38.1919   25.6406   37.2556 H   0  0  0  0  0  0  0  0  0  0  0  0
   39.1330   28.0991   36.4728 H   0  0  0  0  0  0  0  0  0  0  0  0
   39.8544   27.4961   35.2245 H   0  0  0  0  0  0  0  0  0  0  0  0
   36.5621   27.5416   35.4047 H   0  0  0  0  0  0  0  0  0  0  0  0
   40.5001   25.4412   34.8446 H   0  0  0  0  0  0  0  0  0  0  0  0
   36.9734   23.6787   36.5296 H   0  0  0  0  0  0  0  0  0  0  0  0
   39.8098   21.3013   34.3934 H   0  0  0  0  0  0  0  0  0  0  0  0
   36.1211   26.4627   34.2815 H   0  0  0  0  0  0  0  0  0  0  0  0
   37.1073   24.7616   33.8993 H   0  0  0  0  0  0  0  0  0  0  0  0
   35.3583   28.5349   34.6927 H   0  0  0  0  0  0  0  0  0  0  0  0
   38.1987   27.6155   28.8762 H   0  0  0  0  0  0  0  0  0  0  0  0
   37.5341   31.6996   27.7111 H   0  0  0  0  0  0  0  0  0  0  0  0
  2  1  1  0
  3  2  1  0
  3  1  1  0
  4  5  2  0
  5  6  1  0
  5  1  1  0
  7  6  2  0
  8  7  1  0
  9  8  2  0
  9  4  1  0
 10 11  1  0
 10  3  1  0
 12 13  2  0
 12 10  1  0
 14 13  1  0
 15 16  2  0
 15 14  1  0
 16 12  1  0
 17 15  1  0
 18 17  1  0
 19 20  1  0
 19 18  2  0
 20 21  2  0
 21 17  1  0
  1 22  1  1
  2 23  1  0
  2 24  1  0
  3 25  1  1
  4 26  1  0
  6 27  1  0
  8 28  1  0
 10 29  1  0
 11 30  1  0
 13 31  1  0
 18 32  1  0
 20 33  1  0
M  ISO  8  22  13  23  13  24  13  25  13  26  14  27  14  28  14  29   8
M  ISO  4  30   3  31  14  32  14  33  14
M  END
>  <minimizedAffinity>  (1) 
-5.03673553

>  <minimizedRMSD>  (1) 
1.15958881

$$$$
