
     RDKit          3D

 34 37  0  0  1  0  0  0  0  0999 V2000
   38.2470   26.3680   36.3660 C   0  0  1  0  0  0  0  0  0  0  0  0
   39.0420   27.3280   35.6580 C   0  0  0  0  0  0  0  0  0  0  0  0
   37.6260   27.1550   35.2260 C   0  0  1  0  0  0  0  0  0  0  0  0
   39.5820   24.4190   35.6030 C   0  0  0  0  0  0  0  0  0  0  0  0
   38.4310   24.9220   36.2210 C   0  0  0  0  0  0  0  0  0  0  0  0
   37.5220   23.9830   36.6670 C   0  0  0  0  0  0  0  0  0  0  0  0
   37.7830   22.6590   36.4910 N   0  0  0  0  0  0  0  0  0  0  0  0
   38.9160   22.2140   35.8850 C   0  0  0  0  0  0  0  0  0  0  0  0
   39.8240   23.1060   35.4380 N   0  0  0  0  0  0  0  0  0  0  0  0
   37.2580   26.5060   33.9440 C   0  0  0  0  0  0  0  0  0  0  0  0
   37.0790   25.2980   33.5380 O   0  0  0  0  0  0  0  0  0  0  0  0
   37.0390   27.4780   32.8060 C   0  0  0  0  0  0  0  0  0  0  0  0
   36.0430   28.3780   33.0280 C   0  0  0  0  0  0  0  0  0  0  0  0
   36.1390   29.4290   31.4340 S   0  0  0  0  0  0  0  0  0  0  0  0
   37.5710   28.3630   30.7980 C   0  0  0  0  0  0  0  0  0  0  0  0
   37.7080   27.5850   31.6720 N   0  0  0  0  0  0  0  0  0  0  0  0
   38.3840   28.3820   29.5740 N   0  0  0  0  0  0  0  0  0  0  0  0
   39.5920   27.8100   29.5730 C   0  0  0  0  0  0  0  0  0  0  0  0
   40.0370   28.0240   28.2830 C   0  0  0  0  0  0  0  0  0  0  0  0
   39.0790   28.7060   27.5970 N   0  0  0  0  0  0  0  0  0  0  0  0
   38.0360   28.9290   28.4180 C   0  0  0  0  0  0  0  0  0  0  0  0
   38.0317   26.2084   37.4329 H   0  0  0  0  0  0  0  0  0  0  0  0
   39.3464   28.2576   36.1611 H   0  0  0  0  0  0  0  0  0  0  0  0
   40.0096   27.2812   35.1368 H   0  0  0  0  0  0  0  0  0  0  0  0
   36.7555   27.8131   35.0877 H   0  0  0  0  0  0  0  0  0  0  0  0
   40.3290   25.1363   35.2322 H   0  0  0  0  0  0  0  0  0  0  0  0
   36.5929   24.3031   37.1613 H   0  0  0  0  0  0  0  0  0  0  0  0
   39.0908   21.1352   35.7602 H   0  0  0  0  0  0  0  0  0  0  0  0
   36.1942   26.5723   34.2158 H   0  0  0  0  0  0  0  0  0  0  0  0
   36.9899   24.6970   34.3196 H   0  0  0  0  0  0  0  0  0  0  0  0
   35.3666   28.4746   33.8901 H   0  0  0  0  0  0  0  0  0  0  0  0
   40.1061   27.2948   30.3978 H   0  0  0  0  0  0  0  0  0  0  0  0
   41.0057   27.6973   27.8769 H   0  0  0  0  0  0  0  0  0  0  0  0
   37.0978   29.4520   28.1809 H   0  0  0  0  0  0  0  0  0  0  0  0
  2  1  1  0
  3  2  1  0
  3  1  1  0
  4  5  2  0
  5  1  1  0
  5  6  1  0
  7  6  2  0
  8  7  1  0
  9  4  1  0
  9  8  2  0
 10 11  1  0
 10  3  1  0
 12 13  2  0
 12 10  1  0
 14 13  1  0
 15 14  1  0
 15 16  2  0
 16 12  1  0
 17 15  1  0
 18 17  1  0
 19 18  2  0
 20 19  1  0
 20 21  2  0
 21 17  1  0
  1 22  1  1
  2 23  1  0
  2 24  1  0
  3 25  1  1
  4 26  1  0
  6 27  1  0
  8 28  1  0
 10 29  1  0
 11 30  1  0
 13 31  1  0
 18 32  1  0
 19 33  1  0
 21 34  1  0
M  ISO  8  22  13  23  13  24  13  25  13  26  14  27  14  28  14  29   8
M  ISO  5  30   3  31  14  32  14  33  14  34  14
M  END
>  <minimizedAffinity>  (1) 
-5.02895403

>  <minimizedRMSD>  (1) 
1.23996234

$$$$
