
     RDKit          3D

 37 40  0  0  1  0  0  0  0  0999 V2000
   38.3150   26.2270   36.3770 C   0  0  1  0  0  0  0  0  0  0  0  0
   39.0310   27.3140   35.7750 C   0  0  0  0  0  0  0  0  0  0  0  0
   37.6030   27.1290   35.3900 C   0  0  1  0  0  0  0  0  0  0  0  0
   39.7110   24.4690   35.3090 C   0  0  0  0  0  0  0  0  0  0  0  0
   38.5580   24.8230   36.0170 C   0  0  0  0  0  0  0  0  0  0  0  0
   37.6960   23.7940   36.3480 C   0  0  0  0  0  0  0  0  0  0  0  0
   38.0050   22.5180   35.9780 N   0  0  0  0  0  0  0  0  0  0  0  0
   39.1380   22.2160   35.2900 C   0  0  0  0  0  0  0  0  0  0  0  0
   39.9940   23.2050   34.9550 N   0  0  0  0  0  0  0  0  0  0  0  0
   37.2010   26.6500   34.0460 C   0  0  0  0  0  0  0  0  0  0  0  0
   37.0940   25.5040   33.4650 O   0  0  0  0  0  0  0  0  0  0  0  0
   36.8240   27.7590   33.0840 C   0  0  0  0  0  0  0  0  0  0  0  0
   35.8290   28.5720   33.5440 C   0  0  0  0  0  0  0  0  0  0  0  0
   35.7230   29.8230   32.0760 S   0  0  0  0  0  0  0  0  0  0  0  0
   37.0790   28.9240   31.1760 C   0  0  0  0  0  0  0  0  0  0  0  0
   37.3500   28.0430   31.9110 N   0  0  0  0  0  0  0  0  0  0  0  0
   37.5040   29.4390   29.8560 C   0  0  0  0  0  0  0  0  0  0  0  0
   38.3280   28.7080   29.0450 C   0  0  0  0  0  0  0  0  0  0  0  0
   38.6760   29.2770   27.8150 C   0  0  0  0  0  0  0  0  0  0  0  0
   38.1720   30.5320   27.4960 C   0  0  0  0  0  0  0  0  0  0  0  0
   37.3420   31.2370   28.3480 C   0  0  0  0  0  0  0  0  0  0  0  0
   36.9940   30.6680   29.5790 C   0  0  0  0  0  0  0  0  0  0  0  0
   38.1609   25.9117   37.4195 H   0  0  0  0  0  0  0  0  0  0  0  0
   39.3206   28.1799   36.3885 H   0  0  0  0  0  0  0  0  0  0  0  0
   39.9711   27.3887   35.2088 H   0  0  0  0  0  0  0  0  0  0  0  0
   36.6962   27.7517   35.3875 H   0  0  0  0  0  0  0  0  0  0  0  0
   40.4190   25.2630   35.0291 H   0  0  0  0  0  0  0  0  0  0  0  0
   36.7701   24.0023   36.9042 H   0  0  0  0  0  0  0  0  0  0  0  0
   39.3555   21.1750   35.0087 H   0  0  0  0  0  0  0  0  0  0  0  0
   36.1571   26.5758   34.3847 H   0  0  0  0  0  0  0  0  0  0  0  0
   37.0275   24.7919   34.1495 H   0  0  0  0  0  0  0  0  0  0  0  0
   35.2535   28.5277   34.4804 H   0  0  0  0  0  0  0  0  0  0  0  0
   38.7002   27.7177   29.3462 H   0  0  0  0  0  0  0  0  0  0  0  0
   39.3348   28.7420   27.1152 H   0  0  0  0  0  0  0  0  0  0  0  0
   38.4435   30.9815   26.5294 H   0  0  0  0  0  0  0  0  0  0  0  0
   36.9612   32.2289   28.0632 H   0  0  0  0  0  0  0  0  0  0  0  0
   36.3377   31.1918   30.2896 H   0  0  0  0  0  0  0  0  0  0  0  0
  2  1  1  0
  3  2  1  0
  3  1  1  0
  4  5  2  0
  5  6  1  0
  5  1  1  0
  7  6  2  0
  8  7  1  0
  9  8  2  0
  9  4  1  0
 10 11  1  0
 10  3  1  0
 12 13  2  0
 12 10  1  0
 14 13  1  0
 15 16  2  0
 15 14  1  0
 16 12  1  0
 17 15  1  0
 18 17  2  0
 19 18  1  0
 20 19  2  0
 20 21  1  0
 21 22  2  0
 22 17  1  0
  1 23  1  1
  2 24  1  0
  2 25  1  0
  3 26  1  1
  4 27  1  0
  6 28  1  0
  8 29  1  0
 10 30  1  0
 11 31  1  0
 13 32  1  0
 18 33  1  0
 19 34  1  0
 20 35  1  0
 21 36  1  0
 22 37  1  0
M  ISO  8  23  13  24  13  25  13  26  13  27  14  28  14  29  14  30   8
M  ISO  7  31   3  32  14  33  14  34  14  35  14  36  14  37  14
M  END
>  <minimizedAffinity>  (1) 
-4.99839735

>  <minimizedRMSD>  (1) 
1.22604346

$$$$
