
     RDKit          3D

 35 38  0  0  1  0  0  0  0  0999 V2000
   38.2220   26.2360   36.3060 C   0  0  1  0  0  0  0  0  0  0  0  0
   38.8920   27.3540   35.7060 C   0  0  0  0  0  0  0  0  0  0  0  0
   37.5120   27.0440   35.2380 C   0  0  1  0  0  0  0  0  0  0  0  0
   39.8020   24.5550   35.3870 C   0  0  0  0  0  0  0  0  0  0  0  0
   38.5910   24.8440   36.0250 C   0  0  0  0  0  0  0  0  0  0  0  0
   37.8040   23.7600   36.3600 C   0  0  0  0  0  0  0  0  0  0  0  0
   38.2330   22.5000   36.0630 N   0  0  0  0  0  0  0  0  0  0  0  0
   39.4170   22.2670   35.4440 C   0  0  0  0  0  0  0  0  0  0  0  0
   40.2080   23.3060   35.1020 N   0  0  0  0  0  0  0  0  0  0  0  0
   37.2390   26.4850   33.8920 C   0  0  0  0  0  0  0  0  0  0  0  0
   37.1760   25.3050   33.3750 O   0  0  0  0  0  0  0  0  0  0  0  0
   36.9750   27.5280   32.8300 C   0  0  0  0  0  0  0  0  0  0  0  0
   35.9770   28.4010   33.1520 C   0  0  0  0  0  0  0  0  0  0  0  0
   36.0150   29.5500   31.6120 S   0  0  0  0  0  0  0  0  0  0  0  0
   37.4080   28.5550   30.8710 C   0  0  0  0  0  0  0  0  0  0  0  0
   37.5920   27.7200   31.6830 N   0  0  0  0  0  0  0  0  0  0  0  0
   38.0500   28.8430   29.5650 C   0  0  0  0  0  0  0  0  0  0  0  0
   37.6820   29.9740   28.9060 C   0  0  0  0  0  0  0  0  0  0  0  0
   38.3060   30.1950   27.7020 C   0  0  0  0  0  0  0  0  0  0  0  0
   39.2250   29.3320   27.2160 N   0  0  0  0  0  0  0  0  0  0  0  0
   39.5640   28.2190   27.8990 C   0  0  0  0  0  0  0  0  0  0  0  0
   38.9590   27.9790   29.0960 N   0  0  0  0  0  0  0  0  0  0  0  0
   38.0236   25.9476   37.3488 H   0  0  0  0  0  0  0  0  0  0  0  0
   39.0730   28.2617   36.3004 H   0  0  0  0  0  0  0  0  0  0  0  0
   39.8596   27.4816   35.1986 H   0  0  0  0  0  0  0  0  0  0  0  0
   36.5634   27.5941   35.1510 H   0  0  0  0  0  0  0  0  0  0  0  0
   40.4556   25.3933   35.1040 H   0  0  0  0  0  0  0  0  0  0  0  0
   36.8376   23.9117   36.8630 H   0  0  0  0  0  0  0  0  0  0  0  0
   39.7312   21.2365   35.2217 H   0  0  0  0  0  0  0  0  0  0  0  0
   36.1658   26.4385   34.1290 H   0  0  0  0  0  0  0  0  0  0  0  0
   37.1399   24.6295   34.0978 H   0  0  0  0  0  0  0  0  0  0  0  0
   35.3322   28.4370   34.0425 H   0  0  0  0  0  0  0  0  0  0  0  0
   36.9316   30.6686   29.3115 H   0  0  0  0  0  0  0  0  0  0  0  0
   38.0519   31.0940   27.1212 H   0  0  0  0  0  0  0  0  0  0  0  0
   40.3129   27.5202   27.4980 H   0  0  0  0  0  0  0  0  0  0  0  0
  2  1  1  0
  3  2  1  0
  3  1  1  0
  4  5  2  0
  5  1  1  0
  5  6  1  0
  7  6  2  0
  8  7  1  0
  9  4  1  0
  9  8  2  0
 10 11  1  0
 10  3  1  0
 12 13  2  0
 12 10  1  0
 14 13  1  0
 15 14  1  0
 15 16  2  0
 16 12  1  0
 17 15  1  0
 18 17  2  0
 19 18  1  0
 20 19  2  0
 20 21  1  0
 21 22  2  0
 22 17  1  0
  1 23  1  1
  2 24  1  0
  2 25  1  0
  3 26  1  1
  4 27  1  0
  6 28  1  0
  8 29  1  0
 10 30  1  0
 11 31  1  0
 13 32  1  0
 18 33  1  0
 19 34  1  0
 21 35  1  0
M  ISO  8  23  13  24  13  25  13  26  13  27  14  28  14  29  14  30   8
M  ISO  5  31   3  32  14  33  14  34  14  35  14
M  END
>  <minimizedAffinity>  (1) 
-4.88411617

>  <minimizedRMSD>  (1) 
1.37643445

$$$$
