
     RDKit          3D

 29 31  0  0  1  0  0  0  0  0999 V2000
   38.2900   26.3680   36.3740 C   0  0  1  0  0  0  0  0  0  0  0  0
   39.0840   27.3120   35.6450 C   0  0  0  0  0  0  0  0  0  0  0  0
   37.6520   27.1720   35.2570 C   0  0  1  0  0  0  0  0  0  0  0  0
   39.5790   24.3900   35.5940 C   0  0  0  0  0  0  0  0  0  0  0  0
   38.4410   24.9160   36.2170 C   0  0  0  0  0  0  0  0  0  0  0  0
   37.5060   23.9980   36.6580 C   0  0  0  0  0  0  0  0  0  0  0  0
   37.7320   22.6680   36.4710 N   0  0  0  0  0  0  0  0  0  0  0  0
   38.8530   22.1990   35.8610 C   0  0  0  0  0  0  0  0  0  0  0  0
   39.7850   23.0760   35.4190 N   0  0  0  0  0  0  0  0  0  0  0  0
   37.2340   26.5410   33.9840 C   0  0  0  0  0  0  0  0  0  0  0  0
   37.1880   25.3360   33.5200 O   0  0  0  0  0  0  0  0  0  0  0  0
   36.7450   27.5070   32.9370 C   0  0  0  0  0  0  0  0  0  0  0  0
   36.1050   28.5900   33.4480 C   0  0  0  0  0  0  0  0  0  0  0  0
   35.6910   29.5760   31.8530 S   0  0  0  0  0  0  0  0  0  0  0  0
   36.5120   28.2420   30.8190 C   0  0  0  0  0  0  0  0  0  0  0  0
   36.8650   27.4800   31.6440 N   0  0  0  0  0  0  0  0  0  0  0  0
   36.7810   27.9720   29.3430 N   0  0  0  0  0  0  0  0  0  0  0  0
   38.1025   26.2095   37.4462 H   0  0  0  0  0  0  0  0  0  0  0  0
   39.4246   28.2328   36.1411 H   0  0  0  0  0  0  0  0  0  0  0  0
   40.0337   27.2456   35.0939 H   0  0  0  0  0  0  0  0  0  0  0  0
   36.7906   27.8476   35.1495 H   0  0  0  0  0  0  0  0  0  0  0  0
   40.3443   25.0908   35.2289 H   0  0  0  0  0  0  0  0  0  0  0  0
   36.5865   24.3392   37.1561 H   0  0  0  0  0  0  0  0  0  0  0  0
   39.0013   21.1172   35.7279 H   0  0  0  0  0  0  0  0  0  0  0  0
   36.2119   26.4295   34.3749 H   0  0  0  0  0  0  0  0  0  0  0  0
   37.1635   24.6933   34.2726 H   0  0  0  0  0  0  0  0  0  0  0  0
   35.8828   28.8369   34.4966 H   0  0  0  0  0  0  0  0  0  0  0  0
   36.4671   28.6464   28.6305 H   0  0  0  0  0  0  0  0  0  0  0  0
   37.2766   27.1152   29.0582 H   0  0  0  0  0  0  0  0  0  0  0  0
  2  1  1  0
  3  2  1  0
  3  1  1  0
  4  5  2  0
  5  1  1  0
  5  6  1  0
  7  6  2  0
  8  7  1  0
  9  4  1  0
  9  8  2  0
 10 11  1  0
 10  3  1  0
 12 13  2  0
 12 10  1  0
 14 13  1  0
 15 16  2  0
 15 14  1  0
 16 12  1  0
 17 15  1  0
  1 18  1  1
  2 19  1  0
  2 20  1  0
  3 21  1  1
  4 22  1  0
  6 23  1  0
  8 24  1  0
 10 25  1  0
 11 26  1  0
 13 27  1  0
 17 28  1  0
 17 29  1  0
M  ISO  8  18  13  19  13  20  13  21  13  22  14  23  14  24  14  25   8
M  ISO  2  26   3  27  14
M  END
>  <minimizedAffinity>  (1) 
-4.88217735

>  <minimizedRMSD>  (1) 
0.0543276705

$$$$
