
     RDKit          3D

 34 37  0  0  1  0  0  0  0  0999 V2000
   38.2160   26.2850   36.3250 C   0  0  1  0  0  0  0  0  0  0  0  0
   38.9250   27.3550   35.6870 C   0  0  0  0  0  0  0  0  0  0  0  0
   37.5380   27.0740   35.2220 C   0  0  1  0  0  0  0  0  0  0  0  0
   39.7390   24.5170   35.4700 C   0  0  0  0  0  0  0  0  0  0  0  0
   38.5400   24.8720   36.1000 C   0  0  0  0  0  0  0  0  0  0  0  0
   37.7210   23.8270   36.4820 C   0  0  0  0  0  0  0  0  0  0  0  0
   38.1070   22.5450   36.2350 N   0  0  0  0  0  0  0  0  0  0  0  0
   39.2820   22.2450   35.6190 C   0  0  0  0  0  0  0  0  0  0  0  0
   40.1040   23.2470   35.2330 N   0  0  0  0  0  0  0  0  0  0  0  0
   37.2480   26.4710   33.8990 C   0  0  0  0  0  0  0  0  0  0  0  0
   37.1380   25.2730   33.4320 O   0  0  0  0  0  0  0  0  0  0  0  0
   37.0330   27.4710   32.7860 C   0  0  0  0  0  0  0  0  0  0  0  0
   36.0410   28.3650   33.0480 C   0  0  0  0  0  0  0  0  0  0  0  0
   36.1110   29.4560   31.4650 S   0  0  0  0  0  0  0  0  0  0  0  0
   37.5150   28.4090   30.8000 C   0  0  0  0  0  0  0  0  0  0  0  0
   37.6580   27.6190   31.6590 N   0  0  0  0  0  0  0  0  0  0  0  0
   38.0720   28.7710   29.4820 C   0  0  0  0  0  0  0  0  0  0  0  0
   37.5480   29.8620   28.8320 C   0  0  0  0  0  0  0  0  0  0  0  0
   38.2340   29.9520   27.6800 N   0  0  0  0  0  0  0  0  0  0  0  0
   39.1150   28.9370   27.6910 C   0  0  0  0  0  0  0  0  0  0  0  0
   39.0550   28.1790   28.7840 N   0  0  0  0  0  0  0  0  0  0  0  0
   38.0031   26.0441   37.3770 H   0  0  0  0  0  0  0  0  0  0  0  0
   39.1334   28.2785   36.2472 H   0  0  0  0  0  0  0  0  0  0  0  0
   39.8989   27.4303   35.1811 H   0  0  0  0  0  0  0  0  0  0  0  0
   36.6101   27.6534   35.1064 H   0  0  0  0  0  0  0  0  0  0  0  0
   40.4182   25.3218   35.1522 H   0  0  0  0  0  0  0  0  0  0  0  0
   36.7628   24.0296   36.9827 H   0  0  0  0  0  0  0  0  0  0  0  0
   39.5611   21.1968   35.4365 H   0  0  0  0  0  0  0  0  0  0  0  0
   36.1728   26.4793   34.1309 H   0  0  0  0  0  0  0  0  0  0  0  0
   37.0790   24.6303   34.1827 H   0  0  0  0  0  0  0  0  0  0  0  0
   35.3805   28.4425   33.9242 H   0  0  0  0  0  0  0  0  0  0  0  0
   36.7393   30.5213   29.1803 H   0  0  0  0  0  0  0  0  0  0  0  0
   39.8226   28.7492   26.8700 H   0  0  0  0  0  0  0  0  0  0  0  0
   39.6173   27.3520   29.0306 H   0  0  0  0  0  0  0  0  0  0  0  0
  2  1  1  0
  3  2  1  0
  3  1  1  0
  4  5  2  0
  5  1  1  0
  5  6  1  0
  7  6  2  0
  8  7  1  0
  9  4  1  0
  9  8  2  0
 10 11  1  0
 10  3  1  0
 12 13  2  0
 12 10  1  0
 14 13  1  0
 15 14  1  0
 15 16  2  0
 16 12  1  0
 17 15  1  0
 18 17  2  0
 19 20  2  0
 19 18  1  0
 20 21  1  0
 21 17  1  0
  1 22  1  1
  2 23  1  0
  2 24  1  0
  3 25  1  1
  4 26  1  0
  6 27  1  0
  8 28  1  0
 10 29  1  0
 11 30  1  0
 13 31  1  0
 18 32  1  0
 20 33  1  0
 21 34  1  0
M  ISO  8  22  13  23  13  24  13  25  13  26  14  27  14  28  14  29   8
M  ISO  5  30   3  31  14  32  14  33  14  34   9
M  END
>  <minimizedAffinity>  (1) 
-4.81515932

>  <minimizedRMSD>  (1) 
1.15525198

$$$$
