
     RDKit          3D

 34 37  0  0  1  0  0  0  0  0999 V2000
   38.2970   26.3510   36.3860 C   0  0  1  0  0  0  0  0  0  0  0  0
   39.0980   27.3100   35.6830 C   0  0  0  0  0  0  0  0  0  0  0  0
   37.6660   27.1850   35.2880 C   0  0  1  0  0  0  0  0  0  0  0  0
   39.5740   24.3950   35.5500 C   0  0  0  0  0  0  0  0  0  0  0  0
   38.4420   24.9060   36.1940 C   0  0  0  0  0  0  0  0  0  0  0  0
   37.5150   23.9750   36.6210 C   0  0  0  0  0  0  0  0  0  0  0  0
   37.7410   22.6490   36.4010 N   0  0  0  0  0  0  0  0  0  0  0  0
   38.8580   22.1980   35.7700 C   0  0  0  0  0  0  0  0  0  0  0  0
   39.7820   23.0840   35.3410 N   0  0  0  0  0  0  0  0  0  0  0  0
   37.2490   26.5830   33.9990 C   0  0  0  0  0  0  0  0  0  0  0  0
   37.1340   25.3880   33.5280 O   0  0  0  0  0  0  0  0  0  0  0  0
   36.8620   27.5870   32.9360 C   0  0  0  0  0  0  0  0  0  0  0  0
   36.0900   28.6110   33.4100 C   0  0  0  0  0  0  0  0  0  0  0  0
   35.8640   29.6400   31.7990 S   0  0  0  0  0  0  0  0  0  0  0  0
   36.8930   28.4110   30.8360 C   0  0  0  0  0  0  0  0  0  0  0  0
   37.1710   27.6220   31.6730 N   0  0  0  0  0  0  0  0  0  0  0  0
   37.1310   28.6410   29.3780 C   0  0  0  0  0  0  0  0  0  0  0  0
   37.5260   30.0080   29.0450 C   0  0  0  0  0  0  0  0  0  0  0  0
   38.5110   28.8690   28.9020 C   0  0  0  0  0  0  0  0  0  0  0  0
   38.1054   26.1666   37.4534 H   0  0  0  0  0  0  0  0  0  0  0  0
   39.4409   28.2167   36.2029 H   0  0  0  0  0  0  0  0  0  0  0  0
   40.0491   27.2536   35.1333 H   0  0  0  0  0  0  0  0  0  0  0  0
   36.8086   27.8677   35.1944 H   0  0  0  0  0  0  0  0  0  0  0  0
   40.3354   25.1053   35.1953 H   0  0  0  0  0  0  0  0  0  0  0  0
   36.5995   24.3020   37.1357 H   0  0  0  0  0  0  0  0  0  0  0  0
   39.0075   21.1200   35.6104 H   0  0  0  0  0  0  0  0  0  0  0  0
   36.2087   26.5431   34.3542 H   0  0  0  0  0  0  0  0  0  0  0  0
   37.0719   24.7429   34.2764 H   0  0  0  0  0  0  0  0  0  0  0  0
   35.7066   28.7948   34.4245 H   0  0  0  0  0  0  0  0  0  0  0  0
   36.3468   27.9387   29.0590 H   0  0  0  0  0  0  0  0  0  0  0  0
   37.1157   30.4977   28.1495 H   0  0  0  0  0  0  0  0  0  0  0  0
   37.5198   30.9728   29.5733 H   0  0  0  0  0  0  0  0  0  0  0  0
   38.8170   28.5231   27.9036 H   0  0  0  0  0  0  0  0  0  0  0  0
   39.5201   28.6495   29.2810 H   0  0  0  0  0  0  0  0  0  0  0  0
  2  1  1  0
  3  2  1  0
  3  1  1  0
  4  5  2  0
  5  1  1  0
  5  6  1  0
  7  6  2  0
  8  7  1  0
  9  4  1  0
  9  8  2  0
 10 11  1  0
 10  3  1  0
 12 13  2  0
 12 10  1  0
 14 13  1  0
 15 16  2  0
 15 14  1  0
 16 12  1  0
 17 15  1  0
 18 17  1  0
 19 18  1  0
 19 17  1  0
  1 20  1  1
  2 21  1  0
  2 22  1  0
  3 23  1  1
  4 24  1  0
  6 25  1  0
  8 26  1  0
 10 27  1  0
 11 28  1  0
 13 29  1  0
 17 30  1  0
 18 31  1  0
 18 32  1  0
 19 33  1  0
 19 34  1  0
M  ISO  8  20  13  21  13  22  13  23  13  24  14  25  14  26  14  27   8
M  ISO  7  28   3  29  14  30  13  31  13  32  13  33  13  34  13
M  END
>  <minimizedAffinity>  (1) 
-4.64547014

>  <minimizedRMSD>  (1) 
0.523535073

$$$$
