
     RDKit          3D

 30 32  0  0  1  0  0  0  0  0999 V2000
   38.2920   26.3300   36.3720 C   0  0  1  0  0  0  0  0  0  0  0  0
   39.0930   27.2970   35.6810 C   0  0  0  0  0  0  0  0  0  0  0  0
   37.6650   27.1690   35.2740 C   0  0  1  0  0  0  0  0  0  0  0  0
   39.5840   24.3830   35.5300 C   0  0  0  0  0  0  0  0  0  0  0  0
   38.4440   24.8850   36.1690 C   0  0  0  0  0  0  0  0  0  0  0  0
   37.5130   23.9520   36.5820 C   0  0  0  0  0  0  0  0  0  0  0  0
   37.7430   22.6260   36.3540 N   0  0  0  0  0  0  0  0  0  0  0  0
   38.8660   22.1830   35.7290 C   0  0  0  0  0  0  0  0  0  0  0  0
   39.7950   23.0720   35.3140 N   0  0  0  0  0  0  0  0  0  0  0  0
   37.2590   26.5770   33.9770 C   0  0  0  0  0  0  0  0  0  0  0  0
   37.1600   25.3860   33.4950 O   0  0  0  0  0  0  0  0  0  0  0  0
   36.8630   27.5930   32.9250 C   0  0  0  0  0  0  0  0  0  0  0  0
   36.0720   28.5930   33.4070 C   0  0  0  0  0  0  0  0  0  0  0  0
   35.8480   29.6620   31.8260 S   0  0  0  0  0  0  0  0  0  0  0  0
   36.9150   28.4620   30.8550 C   0  0  0  0  0  0  0  0  0  0  0  0
   37.1930   27.6600   31.6680 N   0  0  0  0  0  0  0  0  0  0  0  0
   37.2310   28.6420   29.4000 C   0  0  0  0  0  0  0  0  0  0  0  0
   38.0945   26.1377   37.4369 H   0  0  0  0  0  0  0  0  0  0  0  0
   39.4280   28.2018   36.2093 H   0  0  0  0  0  0  0  0  0  0  0  0
   40.0483   27.2482   35.1379 H   0  0  0  0  0  0  0  0  0  0  0  0
   36.8049   27.8480   35.1786 H   0  0  0  0  0  0  0  0  0  0  0  0
   40.3467   25.0975   35.1868 H   0  0  0  0  0  0  0  0  0  0  0  0
   36.5929   24.2752   37.0909 H   0  0  0  0  0  0  0  0  0  0  0  0
   39.0176   21.1064   35.5620 H   0  0  0  0  0  0  0  0  0  0  0  0
   36.2181   26.5214   34.3282 H   0  0  0  0  0  0  0  0  0  0  0  0
   37.1057   24.7331   34.2372 H   0  0  0  0  0  0  0  0  0  0  0  0
   35.6725   28.7458   34.4204 H   0  0  0  0  0  0  0  0  0  0  0  0
   38.1825   29.1840   29.2958 H   0  0  0  0  0  0  0  0  0  0  0  0
   37.3157   27.6566   28.9185 H   0  0  0  0  0  0  0  0  0  0  0  0
   36.4266   29.2174   28.9185 H   0  0  0  0  0  0  0  0  0  0  0  0
  2  1  1  0
  3  2  1  0
  3  1  1  0
  4  5  2  0
  5  1  1  0
  5  6  1  0
  7  6  2  0
  8  7  1  0
  9  4  1  0
  9  8  2  0
 10 11  1  0
 10  3  1  0
 12 13  2  0
 12 10  1  0
 14 13  1  0
 15 16  2  0
 15 14  1  0
 16 12  1  0
 17 15  1  0
  1 18  1  1
  2 19  1  0
  2 20  1  0
  3 21  1  1
  4 22  1  0
  6 23  1  0
  8 24  1  0
 10 25  1  0
 11 26  1  0
 13 27  1  0
 17 28  1  0
 17 29  1  0
 17 30  1  0
M  ISO  8  18  13  19  13  20  13  21  13  22  14  23  14  24  14  25   8
M  ISO  5  26   3  27  14  28   8  29   8  30   8
M  END
>  <minimizedAffinity>  (1) 
-4.49930668

>  <minimizedRMSD>  (1) 
0.289681792

$$$$
