
     RDKit          3D

 28 30  0  0  1  0  0  0  0  0999 V2000
   38.2980   26.3570   36.3540 C   0  0  1  0  0  0  0  0  0  0  0  0
   39.1080   27.3160   35.6610 C   0  0  0  0  0  0  0  0  0  0  0  0
   37.6740   27.2160   35.2710 C   0  0  1  0  0  0  0  0  0  0  0  0
   39.5330   24.3960   35.4640 C   0  0  0  0  0  0  0  0  0  0  0  0
   38.4210   24.9130   36.1390 C   0  0  0  0  0  0  0  0  0  0  0  0
   37.4920   23.9890   36.5720 C   0  0  0  0  0  0  0  0  0  0  0  0
   37.6960   22.6620   36.3290 N   0  0  0  0  0  0  0  0  0  0  0  0
   38.7930   22.2070   35.6690 C   0  0  0  0  0  0  0  0  0  0  0  0
   39.7200   23.0860   35.2330 N   0  0  0  0  0  0  0  0  0  0  0  0
   37.2380   26.6430   33.9770 C   0  0  0  0  0  0  0  0  0  0  0  0
   37.1090   25.4580   33.4870 O   0  0  0  0  0  0  0  0  0  0  0  0
   36.8480   27.6730   32.9450 C   0  0  0  0  0  0  0  0  0  0  0  0
   35.9650   28.6060   33.4030 C   0  0  0  0  0  0  0  0  0  0  0  0
   35.7780   29.7120   31.8370 S   0  0  0  0  0  0  0  0  0  0  0  0
   36.9820   28.6150   30.8940 C   0  0  0  0  0  0  0  0  0  0  0  0
   37.2560   27.8020   31.7110 N   0  0  0  0  0  0  0  0  0  0  0  0
   37.5710   28.7570   29.1910 S   0  0  0  0  0  0  0  0  0  0  0  0
   38.1098   26.1591   37.4196 H   0  0  0  0  0  0  0  0  0  0  0  0
   39.4651   28.2104   36.1925 H   0  0  0  0  0  0  0  0  0  0  0  0
   40.0557   27.2552   35.1059 H   0  0  0  0  0  0  0  0  0  0  0  0
   36.8260   27.9120   35.1908 H   0  0  0  0  0  0  0  0  0  0  0  0
   40.2958   25.1014   35.1028 H   0  0  0  0  0  0  0  0  0  0  0  0
   36.5918   24.3205   37.1102 H   0  0  0  0  0  0  0  0  0  0  0  0
   38.9248   21.1295   35.4911 H   0  0  0  0  0  0  0  0  0  0  0  0
   36.2015   26.6043   34.3433 H   0  0  0  0  0  0  0  0  0  0  0  0
   37.0376   24.8018   34.2248 H   0  0  0  0  0  0  0  0  0  0  0  0
   35.4915   28.7006   34.3914 H   0  0  0  0  0  0  0  0  0  0  0  0
   38.9028   29.0781   29.1937 H   0  0  0  0  0  0  0  0  0  0  0  0
  2  1  1  0
  3  2  1  0
  3  1  1  0
  4  5  2  0
  5  1  1  0
  5  6  1  0
  7  6  2  0
  8  7  1  0
  9  4  1  0
  9  8  2  0
 10 11  1  0
 10  3  1  0
 12 13  2  0
 12 10  1  0
 14 13  1  0
 15 16  2  0
 15 14  1  0
 16 12  1  0
 17 15  1  0
  1 18  1  1
  2 19  1  0
  2 20  1  0
  3 21  1  1
  4 22  1  0
  6 23  1  0
  8 24  1  0
 10 25  1  0
 11 26  1  0
 13 27  1  0
 17 28  1  0
M  ISO  8  18  13  19  13  20  13  21  13  22  14  23  14  24  14  25   8
M  ISO  3  26   3  27  14  28  11
M  END
>  <minimizedAffinity>  (1) 
-4.47746658

>  <minimizedRMSD>  (1) 
0.403175652

$$$$
