
     RDKit          3D

 42 46  0  0  1  0  0  0  0  0999 V2000
   36.7740   27.8140   33.2050 C   0  0  0  0  0  0  0  0  0  0  0  0
   35.7720   28.6100   33.6110 C   0  0  0  0  0  0  0  0  0  0  0  0
   35.6270   29.8310   32.1430 S   0  0  0  0  0  0  0  0  0  0  0  0
   37.0270   28.9470   31.2640 C   0  0  0  0  0  0  0  0  0  0  0  0
   37.2890   28.0980   32.0420 N   0  0  0  0  0  0  0  0  0  0  0  0
   37.4090   29.4670   29.9630 C   0  0  0  0  0  0  0  0  0  0  0  0
   37.0160   30.6680   29.4730 C   0  0  0  0  0  0  0  0  0  0  0  0
   37.4790   31.0040   28.1960 C   0  0  0  0  0  0  0  0  0  0  0  0
   38.2730   30.1390   27.5320 N   0  0  0  0  0  0  0  0  0  0  0  0
   38.6620   28.9480   28.0230 C   0  0  0  0  0  0  0  0  0  0  0  0
   38.1920   28.6480   29.2750 N   0  0  0  0  0  0  0  0  0  0  0  0
   39.5010   28.0430   27.3140 N   0  0  0  0  0  0  0  0  0  0  0  0
   40.1870   28.5210   26.2660 N   0  0  0  0  0  0  0  0  0  0  0  0
   40.9180   27.5220   25.7300 C   0  0  0  0  0  0  0  0  0  0  0  0
   40.6870   26.3670   26.4630 C   0  0  0  0  0  0  0  0  0  0  0  0
   39.7810   26.7320   27.4630 C   0  0  0  0  0  0  0  0  0  0  0  0
   37.0920   26.7000   34.2000 C   0  0  2  0  0  0  0  0  0  0  0  0
   38.4050   26.3620   36.4690 C   0  0  1  0  0  0  0  0  0  0  0  0
   39.2190   27.2290   35.6930 C   0  0  0  0  0  0  0  0  0  0  0  0
   37.7840   27.2590   35.4060 C   0  0  1  0  0  0  0  0  0  0  0  0
   39.4390   24.3050   35.5390 C   0  0  0  0  0  0  0  0  0  0  0  0
   38.4030   24.8990   36.2540 C   0  0  0  0  0  0  0  0  0  0  0  0
   37.4230   24.0650   36.7210 C   0  0  0  0  0  0  0  0  0  0  0  0
   37.5010   22.7190   36.4750 N   0  0  0  0  0  0  0  0  0  0  0  0
   38.5320   22.1740   35.7720 C   0  0  0  0  0  0  0  0  0  0  0  0
   39.5130   22.9830   35.3000 N   0  0  0  0  0  0  0  0  0  0  0  0
   37.1500   25.5890   33.5560 O   0  0  0  0  0  0  0  0  0  0  0  0
   35.1878   28.5710   34.5422 H   0  0  0  0  0  0  0  0  0  0  0  0
   36.3668   31.3436   30.0493 H   0  0  0  0  0  0  0  0  0  0  0  0
   37.1983   31.9640   27.7382 H   0  0  0  0  0  0  0  0  0  0  0  0
   41.5844   27.6085   24.8591 H   0  0  0  0  0  0  0  0  0  0  0  0
   41.1250   25.3724   26.2929 H   0  0  0  0  0  0  0  0  0  0  0  0
   39.3687   26.0667   28.2359 H   0  0  0  0  0  0  0  0  0  0  0  0
   36.4561   26.1928   34.9405 H   0  0  0  0  0  0  0  0  0  0  0  0
   38.2774   26.1987   37.5493 H   0  0  0  0  0  0  0  0  0  0  0  0
   39.6913   28.0987   36.1732 H   0  0  0  0  0  0  0  0  0  0  0  0
   40.1107   27.0699   35.0689 H   0  0  0  0  0  0  0  0  0  0  0  0
   37.0310   28.0576   35.3335 H   0  0  0  0  0  0  0  0  0  0  0  0
   40.2396   24.9505   35.1487 H   0  0  0  0  0  0  0  0  0  0  0  0
   36.5760   24.4737   37.2916 H   0  0  0  0  0  0  0  0  0  0  0  0
   38.5688   21.0900   35.5890 H   0  0  0  0  0  0  0  0  0  0  0  0
   37.1893   24.8368   34.1985 H   0  0  0  0  0  0  0  0  0  0  0  0
  1  2  2  0
  1 17  1  0
  3  2  1  0
  4  5  2  0
  4  3  1  0
  5  1  1  0
  6  4  1  0
  7  6  2  0
  8  7  1  0
  9 10  1  0
  9  8  2  0
 10 11  2  0
 11  6  1  0
 12 16  1  0
 12 10  1  0
 13 12  1  0
 14 13  2  0
 14 15  1  0
 15 16  2  0
 17 20  1  0
 19 18  1  0
 20 19  1  0
 20 18  1  0
 21 22  2  0
 22 18  1  0
 22 23  1  0
 24 23  2  0
 25 24  1  0
 26 21  1  0
 26 25  2  0
 27 17  1  0
  2 28  1  0
  7 29  1  0
  8 30  1  0
 14 31  1  0
 15 32  1  0
 16 33  1  0
 17 34  1  1
 18 35  1  1
 19 36  1  0
 19 37  1  0
 20 38  1  1
 21 39  1  0
 23 40  1  0
 25 41  1  0
 27 42  1  0
M  ISO  8  28  14  29  14  30  14  31  14  32  14  33  14  34   8  35  13
M  ISO  7  36  13  37  13  38  13  39  14  40  14  41  14  42   3
M  END
>  <minimizedAffinity>  (1) 
-5.74216032

>  <minimizedRMSD>  (1) 
0.859157503

$$$$
