
     RDKit          3D

 42 46  0  0  1  0  0  0  0  0999 V2000
   37.1010   26.6660   34.1620 C   0  0  1  0  0  0  0  0  0  0  0  0
   38.3840   26.3840   36.4530 C   0  0  1  0  0  0  0  0  0  0  0  0
   39.2030   27.2400   35.6680 C   0  0  0  0  0  0  0  0  0  0  0  0
   37.7680   27.2580   35.3680 C   0  0  1  0  0  0  0  0  0  0  0  0
   39.4420   24.3150   35.5890 C   0  0  0  0  0  0  0  0  0  0  0  0
   38.3890   24.9280   36.2720 C   0  0  0  0  0  0  0  0  0  0  0  0
   37.4140   24.0840   36.7320 C   0  0  0  0  0  0  0  0  0  0  0  0
   37.5130   22.7330   36.5110 N   0  0  0  0  0  0  0  0  0  0  0  0
   38.5510   22.1830   35.8450 C   0  0  0  0  0  0  0  0  0  0  0  0
   39.5370   22.9890   35.3720 N   0  0  0  0  0  0  0  0  0  0  0  0
   36.8000   27.7560   33.1300 C   0  0  0  0  0  0  0  0  0  0  0  0
   35.7730   28.5430   33.4860 C   0  0  0  0  0  0  0  0  0  0  0  0
   35.6530   29.7320   31.9910 S   0  0  0  0  0  0  0  0  0  0  0  0
   37.0950   28.8500   31.1800 C   0  0  0  0  0  0  0  0  0  0  0  0
   37.3480   28.0210   31.9820 N   0  0  0  0  0  0  0  0  0  0  0  0
   37.5170   29.3480   29.8740 C   0  0  0  0  0  0  0  0  0  0  0  0
   37.1410   30.5550   29.3640 C   0  0  0  0  0  0  0  0  0  0  0  0
   37.6390   30.8560   28.1010 C   0  0  0  0  0  0  0  0  0  0  0  0
   38.4360   29.9810   27.4610 N   0  0  0  0  0  0  0  0  0  0  0  0
   38.7990   28.7990   27.9720 C   0  0  0  0  0  0  0  0  0  0  0  0
   38.2990   28.5170   29.2210 N   0  0  0  0  0  0  0  0  0  0  0  0
   39.6450   27.8920   27.2730 N   0  0  0  0  0  0  0  0  0  0  0  0
   40.3030   28.1160   26.1210 C   0  0  0  0  0  0  0  0  0  0  0  0
   40.9840   26.9340   25.8530 C   0  0  0  0  0  0  0  0  0  0  0  0
   40.7160   26.0590   26.8360 N   0  0  0  0  0  0  0  0  0  0  0  0
   39.8950   26.6420   27.7100 C   0  0  0  0  0  0  0  0  0  0  0  0
   37.1770   25.5430   33.5410 O   0  0  0  0  0  0  0  0  0  0  0  0
   36.4548   26.1756   34.9049 H   0  0  0  0  0  0  0  0  0  0  0  0
   38.2473   26.2408   37.5350 H   0  0  0  0  0  0  0  0  0  0  0  0
   39.6675   28.1205   36.1359 H   0  0  0  0  0  0  0  0  0  0  0  0
   40.1011   27.0732   35.0551 H   0  0  0  0  0  0  0  0  0  0  0  0
   37.0101   28.0500   35.2769 H   0  0  0  0  0  0  0  0  0  0  0  0
   40.2469   24.9576   35.2028 H   0  0  0  0  0  0  0  0  0  0  0  0
   36.5502   24.4892   37.2794 H   0  0  0  0  0  0  0  0  0  0  0  0
   38.5976   21.0954   35.6874 H   0  0  0  0  0  0  0  0  0  0  0  0
   35.1600   28.5127   34.3989 H   0  0  0  0  0  0  0  0  0  0  0  0
   36.4864   31.2458   29.9156 H   0  0  0  0  0  0  0  0  0  0  0  0
   37.3805   31.8127   27.6235 H   0  0  0  0  0  0  0  0  0  0  0  0
   40.3023   29.0372   25.5199 H   0  0  0  0  0  0  0  0  0  0  0  0
   41.6319   26.7472   24.9839 H   0  0  0  0  0  0  0  0  0  0  0  0
   39.4929   26.1838   28.6256 H   0  0  0  0  0  0  0  0  0  0  0  0
   37.2270   24.8049   34.1988 H   0  0  0  0  0  0  0  0  0  0  0  0
  1  4  1  0
  3  2  1  0
  4  3  1  0
  4  2  1  0
  5  6  2  0
  6  2  1  0
  6  7  1  0
  8  7  2  0
  9  8  1  0
 10  5  1  0
 10  9  2  0
 11 12  2  0
 11  1  1  0
 13 12  1  0
 14 15  2  0
 14 13  1  0
 15 11  1  0
 16 14  1  0
 17 16  2  0
 18 17  1  0
 19 20  1  0
 19 18  2  0
 20 21  2  0
 21 16  1  0
 22 26  1  0
 22 20  1  0
 23 22  1  0
 24 23  2  0
 24 25  1  0
 25 26  2  0
 27  1  1  0
  1 28  1  1
  2 29  1  1
  3 30  1  0
  3 31  1  0
  4 32  1  1
  5 33  1  0
  7 34  1  0
  9 35  1  0
 12 36  1  0
 17 37  1  0
 18 38  1  0
 23 39  1  0
 24 40  1  0
 26 41  1  0
 27 42  1  0
M  ISO  8  28   8  29  13  30  13  31  13  32  13  33  14  34  14  35  14
M  ISO  7  36  14  37  14  38  14  39  14  40  14  41  14  42   3
M  END
>  <minimizedAffinity>  (1) 
-5.67773628

>  <minimizedRMSD>  (1) 
0.731942296

$$$$
