
     RDKit          3D

 42 46  0  0  1  0  0  0  0  0999 V2000
   37.0690   26.6940   34.2550 C   0  0  1  0  0  0  0  0  0  0  0  0
   38.4100   26.3640   36.5070 C   0  0  1  0  0  0  0  0  0  0  0  0
   39.2110   27.2320   35.7160 C   0  0  0  0  0  0  0  0  0  0  0  0
   37.7690   27.2570   35.4520 C   0  0  1  0  0  0  0  0  0  0  0  0
   39.4300   24.2980   35.5900 C   0  0  0  0  0  0  0  0  0  0  0  0
   38.3900   24.9210   36.3130 C   0  0  0  0  0  0  0  0  0  0  0  0
   37.4200   24.0750   36.7800 C   0  0  0  0  0  0  0  0  0  0  0  0
   37.4980   22.7260   36.5400 N   0  0  0  0  0  0  0  0  0  0  0  0
   38.5240   22.1730   35.8360 C   0  0  0  0  0  0  0  0  0  0  0  0
   39.5060   22.9750   35.3540 N   0  0  0  0  0  0  0  0  0  0  0  0
   36.7800   27.7920   33.2330 C   0  0  0  0  0  0  0  0  0  0  0  0
   35.7920   28.6170   33.6180 C   0  0  0  0  0  0  0  0  0  0  0  0
   35.6790   29.8060   32.1220 S   0  0  0  0  0  0  0  0  0  0  0  0
   37.0640   28.8730   31.2720 C   0  0  0  0  0  0  0  0  0  0  0  0
   37.3010   28.0370   32.0760 N   0  0  0  0  0  0  0  0  0  0  0  0
   37.4720   29.3530   29.9580 C   0  0  0  0  0  0  0  0  0  0  0  0
   37.1300   30.5630   29.4600 C   0  0  0  0  0  0  0  0  0  0  0  0
   37.6060   30.8690   28.1810 C   0  0  0  0  0  0  0  0  0  0  0  0
   38.3630   29.9620   27.5290 N   0  0  0  0  0  0  0  0  0  0  0  0
   38.6970   28.7630   28.0340 C   0  0  0  0  0  0  0  0  0  0  0  0
   38.2180   28.4940   29.2820 N   0  0  0  0  0  0  0  0  0  0  0  0
   39.5130   27.8060   27.3100 C   0  0  0  0  0  0  0  0  0  0  0  0
   40.3740   28.1380   26.2860 C   0  0  0  0  0  0  0  0  0  0  0  0
   40.9150   26.9660   25.9100 N   0  0  0  0  0  0  0  0  0  0  0  0
   40.3950   25.9810   26.6800 C   0  0  0  0  0  0  0  0  0  0  0  0
   39.5010   26.4880   27.5770 N   0  0  0  0  0  0  0  0  0  0  0  0
   37.0880   25.5640   33.6410 O   0  0  0  0  0  0  0  0  0  0  0  0
   36.4275   26.2208   35.0130 H   0  0  0  0  0  0  0  0  0  0  0  0
   38.3089   26.2027   37.5904 H   0  0  0  0  0  0  0  0  0  0  0  0
   39.6885   28.1040   36.1868 H   0  0  0  0  0  0  0  0  0  0  0  0
   40.0933   27.0741   35.0783 H   0  0  0  0  0  0  0  0  0  0  0  0
   37.0099   28.0509   35.3931 H   0  0  0  0  0  0  0  0  0  0  0  0
   40.2325   24.9368   35.1926 H   0  0  0  0  0  0  0  0  0  0  0  0
   36.5719   24.4796   37.3518 H   0  0  0  0  0  0  0  0  0  0  0  0
   38.5561   21.0876   35.6601 H   0  0  0  0  0  0  0  0  0  0  0  0
   35.2035   28.6109   34.5473 H   0  0  0  0  0  0  0  0  0  0  0  0
   36.5098   31.2696   30.0311 H   0  0  0  0  0  0  0  0  0  0  0  0
   37.3667   31.8354   27.7132 H   0  0  0  0  0  0  0  0  0  0  0  0
   40.5735   29.1367   25.8702 H   0  0  0  0  0  0  0  0  0  0  0  0
   40.6578   24.9163   26.5939 H   0  0  0  0  0  0  0  0  0  0  0  0
   38.9504   25.9837   28.2866 H   0  0  0  0  0  0  0  0  0  0  0  0
   37.1004   24.8286   34.3036 H   0  0  0  0  0  0  0  0  0  0  0  0
  1  4  1  0
  3  2  1  0
  4  3  1  0
  4  2  1  0
  5  6  2  0
  6  2  1  0
  6  7  1  0
  8  7  2  0
  9  8  1  0
 10  5  1  0
 10  9  2  0
 11 12  2  0
 11  1  1  0
 13 12  1  0
 14 15  2  0
 14 13  1  0
 15 11  1  0
 16 14  1  0
 17 16  2  0
 18 17  1  0
 19 20  1  0
 19 18  2  0
 20 21  2  0
 21 16  1  0
 22 26  1  0
 22 20  1  0
 23 22  2  0
 24 23  1  0
 24 25  2  0
 25 26  1  0
 27  1  1  0
  1 28  1  1
  2 29  1  1
  3 30  1  0
  3 31  1  0
  4 32  1  1
  5 33  1  0
  7 34  1  0
  9 35  1  0
 12 36  1  0
 17 37  1  0
 18 38  1  0
 23 39  1  0
 25 40  1  0
 26 41  1  0
 27 42  1  0
M  ISO  8  28   8  29  13  30  13  31  13  32  13  33  14  34  14  35  14
M  ISO  7  36  14  37  14  38  14  39  14  40  14  41   9  42   3
M  END
>  <minimizedAffinity>  (1) 
-5.62941599

>  <minimizedRMSD>  (1) 
0.842471302

$$$$
