
     RDKit          3D

 24 26  0  0  0  0  0  0  0  0999 V2000
   38.2400   24.6630   34.4890 N   0  0  0  0  0  0  0  0  0  0  0  0
   38.4720   25.0750   35.7510 C   0  0  0  0  0  0  0  0  0  0  0  0
   38.0250   26.3190   35.9790 N   0  0  0  0  0  0  0  0  0  0  0  0
   37.4770   26.7530   34.8310 C   0  0  0  0  0  0  0  0  0  0  0  0
   36.8760   27.9560   34.5210 C   0  0  0  0  0  0  0  0  0  0  0  0
   36.7980   28.8300   35.4200 O   0  0  0  0  0  0  0  0  0  0  0  0
   36.4080   28.1060   33.2510 N   0  0  0  0  0  0  0  0  0  0  0  0
   36.5450   27.0880   32.3510 C   0  0  0  0  0  0  0  0  0  0  0  0
   36.0310   27.3230   31.0460 N   0  0  0  0  0  0  0  0  0  0  0  0
   37.1420   25.9120   32.6860 N   0  0  0  0  0  0  0  0  0  0  0  0
   37.6210   25.7180   33.9300 C   0  0  0  0  0  0  0  0  0  0  0  0
   39.9430   23.0850   33.6540 C   0  0  0  0  0  0  0  0  0  0  0  0
   38.5840   23.4080   33.9260 C   0  0  0  0  0  0  0  0  0  0  0  0
   37.6320   22.4350   33.6110 C   0  0  0  0  0  0  0  0  0  0  0  0
   38.0530   21.2510   33.0710 N   0  0  0  0  0  0  0  0  0  0  0  0
   39.3480   20.9850   32.8290 C   0  0  0  0  0  0  0  0  0  0  0  0
   40.2950   21.9050   33.1230 N   0  0  0  0  0  0  0  0  0  0  0  0
   38.9734   24.4582   36.5114 H   0  0  0  0  0  0  0  0  0  0  0  0
   35.9516   28.9855   32.9698 H   0  0  0  0  0  0  0  0  0  0  0  0
   35.5844   28.2239   30.8229 H   0  0  0  0  0  0  0  0  0  0  0  0
   36.1054   26.5923   30.3239 H   0  0  0  0  0  0  0  0  0  0  0  0
   40.7254   23.8228   33.8854 H   0  0  0  0  0  0  0  0  0  0  0  0
   36.5629   22.6180   33.7941 H   0  0  0  0  0  0  0  0  0  0  0  0
   39.6380   20.0183   32.3915 H   0  0  0  0  0  0  0  0  0  0  0  0
  1  2  1  0
  2  3  2  0
  4  3  1  0
  5  4  1  0
  5  6  2  0
  7  5  1  0
  8 10  2  0
  8  7  1  0
  9  8  1  0
 10 11  1  0
 11  1  1  0
 11  4  2  0
 12 13  2  0
 13  1  1  0
 14 13  1  0
 15 14  2  0
 16 15  1  0
 16 17  2  0
 17 12  1  0
  2 18  1  0
  7 19  1  0
  9 20  1  0
  9 21  1  0
 12 22  1  0
 14 23  1  0
 16 24  1  0
M  ISO  5  18  14  19   9  22  14  23  14  24  14
M  END
>  <minimizedAffinity>  (1) 
-3.51194477

>  <minimizedRMSD>  (1) 
7.23474979

$$$$
