
     RDKit          3D

 42 46  0  0  1  0  0  0  0  0999 V2000
   37.0840   26.6970   34.1970 C   0  0  1  0  0  0  0  0  0  0  0  0
   38.4030   26.3610   36.4650 C   0  0  1  0  0  0  0  0  0  0  0  0
   39.2080   27.2410   35.6930 C   0  0  0  0  0  0  0  0  0  0  0  0
   37.7750   27.2550   35.4020 C   0  0  1  0  0  0  0  0  0  0  0  0
   39.4330   24.3040   35.5350 C   0  0  0  0  0  0  0  0  0  0  0  0
   38.4020   24.9000   36.2530 C   0  0  0  0  0  0  0  0  0  0  0  0
   37.4250   24.0650   36.7260 C   0  0  0  0  0  0  0  0  0  0  0  0
   37.5040   22.7190   36.4800 N   0  0  0  0  0  0  0  0  0  0  0  0
   38.5270   22.1740   35.7760 C   0  0  0  0  0  0  0  0  0  0  0  0
   39.5060   22.9790   35.2960 N   0  0  0  0  0  0  0  0  0  0  0  0
   36.7810   27.8060   33.1930 C   0  0  0  0  0  0  0  0  0  0  0  0
   35.7780   28.6100   33.5840 C   0  0  0  0  0  0  0  0  0  0  0  0
   35.6550   29.8200   32.1070 S   0  0  0  0  0  0  0  0  0  0  0  0
   37.0560   28.9240   31.2490 C   0  0  0  0  0  0  0  0  0  0  0  0
   37.3070   28.0790   32.0350 N   0  0  0  0  0  0  0  0  0  0  0  0
   37.4540   29.4320   29.9440 C   0  0  0  0  0  0  0  0  0  0  0  0
   37.0740   30.6350   29.4480 C   0  0  0  0  0  0  0  0  0  0  0  0
   37.5470   30.9580   28.1690 C   0  0  0  0  0  0  0  0  0  0  0  0
   38.3350   30.0830   27.5160 N   0  0  0  0  0  0  0  0  0  0  0  0
   38.7090   28.8910   28.0160 C   0  0  0  0  0  0  0  0  0  0  0  0
   38.2330   28.6000   29.2620 N   0  0  0  0  0  0  0  0  0  0  0  0
   39.5650   27.9780   27.2670 C   0  0  0  0  0  0  0  0  0  0  0  0
   40.3970   28.0270   26.1690 C   0  0  0  0  0  0  0  0  0  0  0  0
   40.9090   26.7400   26.0130 C   0  0  0  0  0  0  0  0  0  0  0  0
   40.3630   25.9720   27.0270 C   0  0  0  0  0  0  0  0  0  0  0  0
   39.5680   26.7410   27.7550 O   0  0  0  0  0  0  0  0  0  0  0  0
   37.1200   25.5760   33.5700 O   0  0  0  0  0  0  0  0  0  0  0  0
   36.4466   26.2001   34.9432 H   0  0  0  0  0  0  0  0  0  0  0  0
   38.2829   26.1922   37.5453 H   0  0  0  0  0  0  0  0  0  0  0  0
   39.6684   28.1149   36.1771 H   0  0  0  0  0  0  0  0  0  0  0  0
   40.1030   27.0945   35.0706 H   0  0  0  0  0  0  0  0  0  0  0  0
   37.0149   28.0466   35.3273 H   0  0  0  0  0  0  0  0  0  0  0  0
   40.2324   24.9485   35.1406 H   0  0  0  0  0  0  0  0  0  0  0  0
   36.5805   24.4728   37.3009 H   0  0  0  0  0  0  0  0  0  0  0  0
   38.5618   21.0893   35.5963 H   0  0  0  0  0  0  0  0  0  0  0  0
   35.1841   28.5804   34.5094 H   0  0  0  0  0  0  0  0  0  0  0  0
   36.4296   31.3202   30.0183 H   0  0  0  0  0  0  0  0  0  0  0  0
   37.2771   31.9172   27.7030 H   0  0  0  0  0  0  0  0  0  0  0  0
   40.6133   28.9048   25.5423 H   0  0  0  0  0  0  0  0  0  0  0  0
   41.6099   26.4009   25.2360 H   0  0  0  0  0  0  0  0  0  0  0  0
   40.5569   24.9030   27.1990 H   0  0  0  0  0  0  0  0  0  0  0  0
   37.1439   24.8329   34.2237 H   0  0  0  0  0  0  0  0  0  0  0  0
  1  4  1  0
  3  2  1  0
  4  3  1  0
  4  2  1  0
  5  6  2  0
  6  2  1  0
  6  7  1  0
  8  7  2  0
  9  8  1  0
 10  5  1  0
 10  9  2  0
 11 12  2  0
 11  1  1  0
 13 12  1  0
 14 15  2  0
 14 13  1  0
 15 11  1  0
 16 14  1  0
 17 16  2  0
 18 17  1  0
 19 20  1  0
 19 18  2  0
 20 21  2  0
 21 16  1  0
 22 26  1  0
 22 20  1  0
 23 22  2  0
 24 23  1  0
 24 25  2  0
 25 26  1  0
 27  1  1  0
  1 28  1  1
  2 29  1  1
  3 30  1  0
  3 31  1  0
  4 32  1  1
  5 33  1  0
  7 34  1  0
  9 35  1  0
 12 36  1  0
 17 37  1  0
 18 38  1  0
 23 39  1  0
 24 40  1  0
 25 41  1  0
 27 42  1  0
M  ISO  8  28   8  29  13  30  13  31  13  32  13  33  14  34  14  35  14
M  ISO  7  36  14  37  14  38  14  39  14  40  14  41  14  42   3
M  END
>  <minimizedAffinity>  (1) 
-5.48348475

>  <minimizedRMSD>  (1) 
0.82014066

$$$$
