
     RDKit          3D

 38 41  0  0  1  0  0  0  0  0999 V2000
   37.1300   26.6380   34.0820 C   0  0  1  0  0  0  0  0  0  0  0  0
   38.3490   26.3880   36.4110 C   0  0  1  0  0  0  0  0  0  0  0  0
   39.1660   27.2680   35.6540 C   0  0  0  0  0  0  0  0  0  0  0  0
   37.7460   27.2410   35.3040 C   0  0  1  0  0  0  0  0  0  0  0  0
   39.4700   24.3360   35.5730 C   0  0  0  0  0  0  0  0  0  0  0  0
   38.3930   24.9220   36.2350 C   0  0  0  0  0  0  0  0  0  0  0  0
   37.4180   24.0760   36.6920 C   0  0  0  0  0  0  0  0  0  0  0  0
   37.5460   22.7250   36.4810 N   0  0  0  0  0  0  0  0  0  0  0  0
   38.6100   22.1890   35.8320 C   0  0  0  0  0  0  0  0  0  0  0  0
   39.5860   23.0100   35.3710 N   0  0  0  0  0  0  0  0  0  0  0  0
   36.8590   27.7110   33.0260 C   0  0  0  0  0  0  0  0  0  0  0  0
   35.8310   28.5180   33.3660 C   0  0  0  0  0  0  0  0  0  0  0  0
   35.7450   29.6820   31.8440 S   0  0  0  0  0  0  0  0  0  0  0  0
   37.1810   28.7720   31.0660 C   0  0  0  0  0  0  0  0  0  0  0  0
   37.4180   27.9530   31.8820 N   0  0  0  0  0  0  0  0  0  0  0  0
   37.6280   29.2450   29.7600 C   0  0  0  0  0  0  0  0  0  0  0  0
   37.2330   30.4180   29.2100 C   0  0  0  0  0  0  0  0  0  0  0  0
   37.7590   30.7250   27.9520 C   0  0  0  0  0  0  0  0  0  0  0  0
   38.6100   29.8550   27.3740 N   0  0  0  0  0  0  0  0  0  0  0  0
   38.9970   28.6930   27.9280 C   0  0  0  0  0  0  0  0  0  0  0  0
   38.4690   28.4230   29.1470 N   0  0  0  0  0  0  0  0  0  0  0  0
   39.9370   27.7470   27.2740 C   0  0  0  0  0  0  0  0  0  0  0  0
   40.0540   28.1100   25.9260 F   0  0  0  0  0  0  0  0  0  0  0  0
   41.1690   27.8890   27.8820 F   0  0  0  0  0  0  0  0  0  0  0  0
   39.4220   26.4830   27.3660 F   0  0  0  0  0  0  0  0  0  0  0  0
   37.2300   25.5030   33.4830 O   0  0  0  0  0  0  0  0  0  0  0  0
   36.4585   26.1588   34.8096 H   0  0  0  0  0  0  0  0  0  0  0  0
   38.1856   26.2412   37.4888 H   0  0  0  0  0  0  0  0  0  0  0  0
   39.5857   28.1632   36.1362 H   0  0  0  0  0  0  0  0  0  0  0  0
   40.0897   27.1289   35.0732 H   0  0  0  0  0  0  0  0  0  0  0  0
   36.9690   28.0100   35.1824 H   0  0  0  0  0  0  0  0  0  0  0  0
   40.2682   24.9919   35.1952 H   0  0  0  0  0  0  0  0  0  0  0  0
   36.5409   24.4746   37.2229 H   0  0  0  0  0  0  0  0  0  0  0  0
   38.6802   21.1016   35.6815 H   0  0  0  0  0  0  0  0  0  0  0  0
   35.2092   28.5099   34.2733 H   0  0  0  0  0  0  0  0  0  0  0  0
   36.5350   31.0935   29.7262 H   0  0  0  0  0  0  0  0  0  0  0  0
   37.4831   31.6603   27.4429 H   0  0  0  0  0  0  0  0  0  0  0  0
   37.2938   24.7794   34.1556 H   0  0  0  0  0  0  0  0  0  0  0  0
  1  4  1  0
  3  2  1  0
  4  3  1  0
  4  2  1  0
  5  6  2  0
  6  2  1  0
  6  7  1  0
  8  7  2  0
  9  8  1  0
 10  5  1  0
 10  9  2  0
 11 12  2  0
 11  1  1  0
 13 12  1  0
 14 13  1  0
 14 15  2  0
 15 11  1  0
 16 14  1  0
 17 16  2  0
 18 17  1  0
 19 20  1  0
 19 18  2  0
 20 21  2  0
 21 16  1  0
 22 25  1  0
 22 24  1  0
 22 20  1  0
 23 22  1  0
 26  1  1  0
  1 27  1  1
  2 28  1  1
  3 29  1  0
  3 30  1  0
  4 31  1  1
  5 32  1  0
  7 33  1  0
  9 34  1  0
 12 35  1  0
 17 36  1  0
 18 37  1  0
 26 38  1  0
M  ISO  8  27   8  28  13  29  13  30  13  31  13  32  14  33  14  34  14
M  ISO  4  35  14  36  14  37  14  38   3
M  END
>  <minimizedAffinity>  (1) 
-5.3452487

>  <minimizedRMSD>  (1) 
0.556430221

$$$$
