
     RDKit          3D

 36 39  0  0  1  0  0  0  0  0999 V2000
   37.0890   26.7350   34.2400 C   0  0  1  0  0  0  0  0  0  0  0  0
   38.4420   26.3460   36.4750 C   0  0  1  0  0  0  0  0  0  0  0  0
   39.2490   27.2140   35.6910 C   0  0  0  0  0  0  0  0  0  0  0  0
   37.8080   27.2660   35.4380 C   0  0  1  0  0  0  0  0  0  0  0  0
   39.4100   24.2800   35.5050 C   0  0  0  0  0  0  0  0  0  0  0  0
   38.3950   24.9070   36.2570 C   0  0  0  0  0  0  0  0  0  0  0  0
   37.4200   24.0680   36.7280 C   0  0  0  0  0  0  0  0  0  0  0  0
   37.4700   22.7220   36.4640 N   0  0  0  0  0  0  0  0  0  0  0  0
   38.4750   22.1650   35.7310 C   0  0  0  0  0  0  0  0  0  0  0  0
   39.4630   22.9600   35.2440 N   0  0  0  0  0  0  0  0  0  0  0  0
   36.7410   27.8630   33.2710 C   0  0  0  0  0  0  0  0  0  0  0  0
   35.7480   28.6490   33.7170 C   0  0  0  0  0  0  0  0  0  0  0  0
   35.5540   29.8870   32.2720 S   0  0  0  0  0  0  0  0  0  0  0  0
   36.9300   29.0200   31.3420 C   0  0  0  0  0  0  0  0  0  0  0  0
   37.2200   28.1620   32.1000 N   0  0  0  0  0  0  0  0  0  0  0  0
   37.2820   29.5580   30.0350 C   0  0  0  0  0  0  0  0  0  0  0  0
   36.9140   30.7950   29.6050 C   0  0  0  0  0  0  0  0  0  0  0  0
   37.3380   31.1530   28.3270 C   0  0  0  0  0  0  0  0  0  0  0  0
   38.0670   30.2860   27.6040 N   0  0  0  0  0  0  0  0  0  0  0  0
   38.4270   29.0630   28.0370 C   0  0  0  0  0  0  0  0  0  0  0  0
   38.0010   28.7370   29.2870 N   0  0  0  0  0  0  0  0  0  0  0  0
   39.1810   28.2140   27.2400 O   0  0  0  0  0  0  0  0  0  0  0  0
   37.1210   25.6320   33.5790 O   0  0  0  0  0  0  0  0  0  0  0  0
   36.4815   26.2186   34.9978 H   0  0  0  0  0  0  0  0  0  0  0  0
   38.3483   26.1690   37.5566 H   0  0  0  0  0  0  0  0  0  0  0  0
   39.7434   28.0711   36.1715 H   0  0  0  0  0  0  0  0  0  0  0  0
   40.1237   27.0522   35.0440 H   0  0  0  0  0  0  0  0  0  0  0  0
   37.0618   28.0731   35.3961 H   0  0  0  0  0  0  0  0  0  0  0  0
   40.2147   24.9135   35.1036 H   0  0  0  0  0  0  0  0  0  0  0  0
   36.5898   24.4765   37.3229 H   0  0  0  0  0  0  0  0  0  0  0  0
   38.4860   21.0825   35.5357 H   0  0  0  0  0  0  0  0  0  0  0  0
   35.1920   28.5951   34.6646 H   0  0  0  0  0  0  0  0  0  0  0  0
   36.3158   31.4739   30.2306 H   0  0  0  0  0  0  0  0  0  0  0  0
   37.0779   32.1383   27.9128 H   0  0  0  0  0  0  0  0  0  0  0  0
   39.4367   27.3181   27.5747 H   0  0  0  0  0  0  0  0  0  0  0  0
   37.1431   24.8696   34.2101 H   0  0  0  0  0  0  0  0  0  0  0  0
  1  4  1  0
  3  2  1  0
  4  3  1  0
  4  2  1  0
  5  6  2  0
  6  2  1  0
  6  7  1  0
  8  7  2  0
  9  8  1  0
 10  5  1  0
 10  9  2  0
 11 12  2  0
 11  1  1  0
 13 12  1  0
 14 15  2  0
 14 13  1  0
 15 11  1  0
 16 14  1  0
 17 16  2  0
 18 17  1  0
 19 20  1  0
 19 18  2  0
 20 21  2  0
 21 16  1  0
 22 20  1  0
 23  1  1  0
  1 24  1  1
  2 25  1  1
  3 26  1  0
  3 27  1  0
  4 28  1  1
  5 29  1  0
  7 30  1  0
  9 31  1  0
 12 32  1  0
 17 33  1  0
 18 34  1  0
 22 35  1  0
 23 36  1  0
M  ISO  8  24   8  25  13  26  13  27  13  28  13  29  14  30  14  31  14
M  ISO  5  32  14  33  14  34  14  35   3  36   3
M  END
>  <minimizedAffinity>  (1) 
-5.3397584

>  <minimizedRMSD>  (1) 
0.895479023

$$$$
