
     RDKit          3D

 47 50  0  0  1  0  0  0  0  0999 V2000
   37.1370   26.6240   34.0800 C   0  0  1  0  0  0  0  0  0  0  0  0
   38.3420   26.3940   36.4170 C   0  0  1  0  0  0  0  0  0  0  0  0
   39.1710   27.2590   35.6520 C   0  0  0  0  0  0  0  0  0  0  0  0
   37.7500   27.2400   35.2980 C   0  0  1  0  0  0  0  0  0  0  0  0
   39.4710   24.3390   35.6060 C   0  0  0  0  0  0  0  0  0  0  0  0
   38.3780   24.9460   36.2610 C   0  0  0  0  0  0  0  0  0  0  0  0
   37.4160   24.0790   36.7040 C   0  0  0  0  0  0  0  0  0  0  0  0
   37.5420   22.7270   36.5060 N   0  0  0  0  0  0  0  0  0  0  0  0
   38.6210   22.1920   35.8670 C   0  0  0  0  0  0  0  0  0  0  0  0
   39.6010   23.0140   35.4100 N   0  0  0  0  0  0  0  0  0  0  0  0
   36.8930   27.6850   33.0040 C   0  0  0  0  0  0  0  0  0  0  0  0
   35.8700   28.5060   33.3150 C   0  0  0  0  0  0  0  0  0  0  0  0
   35.8200   29.6500   31.7770 S   0  0  0  0  0  0  0  0  0  0  0  0
   37.2570   28.7170   31.0360 C   0  0  0  0  0  0  0  0  0  0  0  0
   37.4720   27.9050   31.8690 N   0  0  0  0  0  0  0  0  0  0  0  0
   37.7330   29.1670   29.7300 C   0  0  0  0  0  0  0  0  0  0  0  0
   37.2900   30.2970   29.1180 C   0  0  0  0  0  0  0  0  0  0  0  0
   37.8600   30.5800   27.8720 C   0  0  0  0  0  0  0  0  0  0  0  0
   38.7830   29.7480   27.3640 N   0  0  0  0  0  0  0  0  0  0  0  0
   39.2060   28.6390   27.9810 C   0  0  0  0  0  0  0  0  0  0  0  0
   38.6480   28.3790   29.1830 N   0  0  0  0  0  0  0  0  0  0  0  0
   40.2350   27.6990   27.4300 C   0  0  0  0  0  0  0  0  0  0  0  0
   39.8590   26.2730   27.6360 C   0  0  0  0  0  0  0  0  0  0  0  0
   41.5420   27.9650   28.1520 C   0  0  0  0  0  0  0  0  0  0  0  0
   40.4410   28.0520   25.9740 C   0  0  0  0  0  0  0  0  0  0  0  0
   37.2300   25.4800   33.4970 O   0  0  0  0  0  0  0  0  0  0  0  0
   36.4511   26.1643   34.8068 H   0  0  0  0  0  0  0  0  0  0  0  0
   38.1708   26.2610   37.4954 H   0  0  0  0  0  0  0  0  0  0  0  0
   39.5972   28.1558   36.1253 H   0  0  0  0  0  0  0  0  0  0  0  0
   40.0954   27.1053   35.0759 H   0  0  0  0  0  0  0  0  0  0  0  0
   36.9798   28.0142   35.1661 H   0  0  0  0  0  0  0  0  0  0  0  0
   40.2711   24.9936   35.2301 H   0  0  0  0  0  0  0  0  0  0  0  0
   36.5304   24.4711   37.2255 H   0  0  0  0  0  0  0  0  0  0  0  0
   38.6972   21.1042   35.7228 H   0  0  0  0  0  0  0  0  0  0  0  0
   35.2335   28.5168   34.2121 H   0  0  0  0  0  0  0  0  0  0  0  0
   36.5303   30.9487   29.5742 H   0  0  0  0  0  0  0  0  0  0  0  0
   37.5544   31.4769   27.3132 H   0  0  0  0  0  0  0  0  0  0  0  0
   39.8030   26.0606   28.7138 H   0  0  0  0  0  0  0  0  0  0  0  0
   38.8797   26.0815   27.1732 H   0  0  0  0  0  0  0  0  0  0  0  0
   40.6166   25.6235   27.1732 H   0  0  0  0  0  0  0  0  0  0  0  0
   41.3742   27.9308   29.2386 H   0  0  0  0  0  0  0  0  0  0  0  0
   42.2790   27.1984   27.8705 H   0  0  0  0  0  0  0  0  0  0  0  0
   41.9208   28.9586   27.8705 H   0  0  0  0  0  0  0  0  0  0  0  0
   40.9942   29.0000   25.9013 H   0  0  0  0  0  0  0  0  0  0  0  0
   41.0150   27.2537   25.4808 H   0  0  0  0  0  0  0  0  0  0  0  0
   39.4636   28.1591   25.4808 H   0  0  0  0  0  0  0  0  0  0  0  0
   37.2881   24.7654   34.1797 H   0  0  0  0  0  0  0  0  0  0  0  0
  1  4  1  0
  3  2  1  0
  4  3  1  0
  4  2  1  0
  5  6  2  0
  6  2  1  0
  6  7  1  0
  8  7  2  0
  9  8  1  0
 10  5  1  0
 10  9  2  0
 11 12  2  0
 11  1  1  0
 13 12  1  0
 14 13  1  0
 14 15  2  0
 15 11  1  0
 16 14  1  0
 17 16  2  0
 18 17  1  0
 19 18  2  0
 19 20  1  0
 20 21  2  0
 21 16  1  0
 22 23  1  0
 22 20  1  0
 22 24  1  0
 25 22  1  0
 26  1  1  0
  1 27  1  1
  2 28  1  1
  3 29  1  0
  3 30  1  0
  4 31  1  1
  5 32  1  0
  7 33  1  0
  9 34  1  0
 12 35  1  0
 17 36  1  0
 18 37  1  0
 23 38  1  0
 23 39  1  0
 23 40  1  0
 24 41  1  0
 24 42  1  0
 24 43  1  0
 25 44  1  0
 25 45  1  0
 25 46  1  0
 26 47  1  0
M  ISO  8  27   8  28  13  29  13  30  13  31  13  32  14  33  14  34  14
M  ISO  8  35  14  36  14  37  14  38   8  39   8  40   8  41   8  42   8
M  ISO  5  43   8  44   8  45   8  46   8  47   3
M  END
>  <minimizedAffinity>  (1) 
-5.26683807

>  <minimizedRMSD>  (1) 
0.503211021

$$$$
