
     RDKit          3D

 41 44  0  0  1  0  0  0  0  0999 V2000
   37.1050   26.6370   34.1190 C   0  0  1  0  0  0  0  0  0  0  0  0
   38.3480   26.3980   36.4350 C   0  0  1  0  0  0  0  0  0  0  0  0
   39.1660   27.2610   35.6610 C   0  0  0  0  0  0  0  0  0  0  0  0
   37.7420   27.2530   35.3310 C   0  0  1  0  0  0  0  0  0  0  0  0
   39.4540   24.3430   35.6100 C   0  0  0  0  0  0  0  0  0  0  0  0
   38.3810   24.9400   36.2730 C   0  0  0  0  0  0  0  0  0  0  0  0
   37.4160   24.0830   36.7300 C   0  0  0  0  0  0  0  0  0  0  0  0
   37.5410   22.7320   36.5260 N   0  0  0  0  0  0  0  0  0  0  0  0
   38.6020   22.1970   35.8760 C   0  0  0  0  0  0  0  0  0  0  0  0
   39.5830   23.0200   35.4060 N   0  0  0  0  0  0  0  0  0  0  0  0
   36.8460   27.7050   33.0560 C   0  0  0  0  0  0  0  0  0  0  0  0
   35.8380   28.5290   33.3770 C   0  0  0  0  0  0  0  0  0  0  0  0
   35.7710   29.6780   31.8460 S   0  0  0  0  0  0  0  0  0  0  0  0
   37.1980   28.7320   31.0800 C   0  0  0  0  0  0  0  0  0  0  0  0
   37.4200   27.9200   31.9030 N   0  0  0  0  0  0  0  0  0  0  0  0
   37.6500   29.1860   29.7670 C   0  0  0  0  0  0  0  0  0  0  0  0
   37.3280   30.3950   29.2310 C   0  0  0  0  0  0  0  0  0  0  0  0
   37.8570   30.6550   27.9670 C   0  0  0  0  0  0  0  0  0  0  0  0
   38.6260   29.7400   27.3680 N   0  0  0  0  0  0  0  0  0  0  0  0
   38.9400   28.5530   27.8980 C   0  0  0  0  0  0  0  0  0  0  0  0
   38.4160   28.3120   29.1310 N   0  0  0  0  0  0  0  0  0  0  0  0
   39.7950   27.5400   27.2240 C   0  0  0  0  0  0  0  0  0  0  0  0
   40.4550   28.1130   25.9670 C   0  0  0  0  0  0  0  0  0  0  0  0
   37.1800   25.4950   33.5330 O   0  0  0  0  0  0  0  0  0  0  0  0
   36.4357   26.1655   34.8536 H   0  0  0  0  0  0  0  0  0  0  0  0
   38.1909   26.2601   37.5150 H   0  0  0  0  0  0  0  0  0  0  0  0
   39.6055   28.1529   36.1315 H   0  0  0  0  0  0  0  0  0  0  0  0
   40.0792   27.1047   35.0680 H   0  0  0  0  0  0  0  0  0  0  0  0
   36.9760   28.0339   35.2148 H   0  0  0  0  0  0  0  0  0  0  0  0
   40.2492   24.9999   35.2278 H   0  0  0  0  0  0  0  0  0  0  0  0
   36.5383   24.4786   37.2621 H   0  0  0  0  0  0  0  0  0  0  0  0
   38.6719   21.1092   35.7285 H   0  0  0  0  0  0  0  0  0  0  0  0
   35.2133   28.5417   34.2823 H   0  0  0  0  0  0  0  0  0  0  0  0
   36.6920   31.1198   29.7603 H   0  0  0  0  0  0  0  0  0  0  0  0
   37.6422   31.6097   27.4646 H   0  0  0  0  0  0  0  0  0  0  0  0
   40.5793   27.2121   27.9222 H   0  0  0  0  0  0  0  0  0  0  0  0
   39.1590   26.6936   26.9257 H   0  0  0  0  0  0  0  0  0  0  0  0
   41.2560   28.8084   26.2580 H   0  0  0  0  0  0  0  0  0  0  0  0
   40.8804   27.2929   25.3699 H   0  0  0  0  0  0  0  0  0  0  0  0
   39.7028   28.6493   25.3699 H   0  0  0  0  0  0  0  0  0  0  0  0
   37.2271   24.7774   34.2134 H   0  0  0  0  0  0  0  0  0  0  0  0
  1  4  1  0
  3  2  1  0
  4  3  1  0
  4  2  1  0
  5  6  2  0
  6  2  1  0
  6  7  1  0
  8  7  2  0
  9  8  1  0
 10  5  1  0
 10  9  2  0
 11 12  2  0
 11  1  1  0
 13 12  1  0
 14 13  1  0
 14 15  2  0
 15 11  1  0
 16 14  1  0
 17 16  2  0
 18 17  1  0
 19 20  1  0
 19 18  2  0
 20 21  2  0
 21 16  1  0
 22 20  1  0
 23 22  1  0
 24  1  1  0
  1 25  1  1
  2 26  1  1
  3 27  1  0
  3 28  1  0
  4 29  1  1
  5 30  1  0
  7 31  1  0
  9 32  1  0
 12 33  1  0
 17 34  1  0
 18 35  1  0
 22 36  1  0
 22 37  1  0
 23 38  1  0
 23 39  1  0
 23 40  1  0
 24 41  1  0
M  ISO  8  25   8  26  13  27  13  28  13  29  13  30  14  31  14  32  14
M  ISO  8  33  14  34  14  35  14  36   8  37   8  38   8  39   8  40   8
M  ISO  1  41   3
M  END
>  <minimizedAffinity>  (1) 
-5.14891386

>  <minimizedRMSD>  (1) 
0.549871027

$$$$
