
     RDKit          3D

 12 12  0  0  0  0  0  0  0  0999 V2000
   40.0510   22.1840   36.7580 C   0  0  0  0  0  0  0  0  0  0  0  0
   39.7050   22.9760   37.8680 C   0  0  0  0  0  0  0  0  0  0  0  0
   38.4630   23.6100   37.8470 C   0  0  0  0  0  0  0  0  0  0  0  0
   37.6450   23.4360   36.7630 N   0  0  0  0  0  0  0  0  0  0  0  0
   38.0210   22.6610   35.7100 C   0  0  0  0  0  0  0  0  0  0  0  0
   39.2100   22.0460   35.7150 N   0  0  0  0  0  0  0  0  0  0  0  0
   37.9380   24.4470   38.8730 N   0  0  0  0  0  0  0  0  0  0  0  0
   41.0232   21.6696   36.7416 H   0  0  0  0  0  0  0  0  0  0  0  0
   40.3893   23.0910   38.7215 H   0  0  0  0  0  0  0  0  0  0  0  0
   37.3451   22.5392   34.8508 H   0  0  0  0  0  0  0  0  0  0  0  0
   37.0060   24.8718   38.7645 H   0  0  0  0  0  0  0  0  0  0  0  0
   38.4904   24.6275   39.7234 H   0  0  0  0  0  0  0  0  0  0  0  0
  1  2  2  0
  3  2  1  0
  3  7  1  0
  4  3  2  0
  5  6  2  0
  5  4  1  0
  6  1  1  0
  1  8  1  0
  2  9  1  0
  5 10  1  0
  7 11  1  0
  7 12  1  0
M  ISO  3   8  14   9  14  10  14
M  END
>  <minimizedAffinity>  (1) 
-2.66021562

>  <minimizedRMSD>  (1) 
0.93628931

$$$$
