
     RDKit          3D

 25 26  0  0  0  0  0  0  0  0999 V2000
   40.9960   23.1210   36.2330 C   0  0  0  0  0  0  0  0  0  0  0  0
   40.4860   22.5960   37.4470 C   0  0  0  0  0  0  0  0  0  0  0  0
   39.2410   23.0460   37.8560 C   0  0  0  0  0  0  0  0  0  0  0  0
   38.5580   23.9520   37.1060 N   0  0  0  0  0  0  0  0  0  0  0  0
   39.0920   24.4310   35.9380 C   0  0  0  0  0  0  0  0  0  0  0  0
   40.2880   24.0120   35.5280 N   0  0  0  0  0  0  0  0  0  0  0  0
   38.5610   22.6390   39.0410 N   0  0  0  0  0  0  0  0  0  0  0  0
   36.9110   27.2460   33.6250 C   0  0  0  0  0  0  0  0  0  0  0  0
   37.3620   27.5410   34.8970 C   0  0  0  0  0  0  0  0  0  0  0  0
   38.0750   26.6630   35.6890 C   0  0  0  0  0  0  0  0  0  0  0  0
   38.3380   25.4100   35.1430 C   0  0  0  0  0  0  0  0  0  0  0  0
   37.9060   25.0700   33.8760 C   0  0  0  0  0  0  0  0  0  0  0  0
   37.1970   25.9900   33.1290 C   0  0  0  0  0  0  0  0  0  0  0  0
   36.0330   28.5140   32.8200 S   0  0  0  0  0  0  0  0  0  0  0  0
   36.8470   29.1990   31.7670 O   0  0  0  0  0  0  0  0  0  0  0  0
   35.5900   29.5830   33.7780 O   0  0  0  0  0  0  0  0  0  0  0  0
   41.9806   22.7939   35.8676 H   0  0  0  0  0  0  0  0  0  0  0  0
   41.0541   21.8631   38.0387 H   0  0  0  0  0  0  0  0  0  0  0  0
   37.6343   23.0299   39.2630 H   0  0  0  0  0  0  0  0  0  0  0  0
   38.9964   21.9540   39.6752 H   0  0  0  0  0  0  0  0  0  0  0  0
   37.1391   28.5381   35.3045 H   0  0  0  0  0  0  0  0  0  0  0  0
   38.4169   26.9390   36.6974 H   0  0  0  0  0  0  0  0  0  0  0  0
   38.1251   24.0735   33.4649 H   0  0  0  0  0  0  0  0  0  0  0  0
   36.8539   25.7169   32.1202 H   0  0  0  0  0  0  0  0  0  0  0  0
   34.9563   27.8848   32.2528 H   0  0  0  0  0  0  0  0  0  0  0  0
  1  2  2  0
  2  3  1  0
  3  7  1  0
  4  3  2  0
  5  4  1  0
  6  5  2  0
  6  1  1  0
  8  9  2  0
  9 10  1  0
 11 10  2  0
 11  5  1  0
 12 11  1  0
 13  8  1  0
 13 12  2  0
 14  8  1  0
 14 16  2  0
 15 14  2  0
  1 17  1  0
  2 18  1  0
  7 19  1  0
  7 20  1  0
  9 21  1  0
 10 22  1  0
 12 23  1  0
 13 24  1  0
 14 25  1  0
M  ISO  7  17  14  18  14  21  14  22  14  23  14  24  14  25  11
M  END
>  <minimizedAffinity>  (1) 
-4.93808651

>  <minimizedRMSD>  (1) 
4.33424664

$$$$
