
     RDKit          3D

 23 25  0  0  0  0  0  0  0  0999 V2000
   41.0300   21.8520   36.1960 C   0  0  0  0  0  0  0  0  0  0  0  0
   40.7040   22.0690   37.5390 C   0  0  0  0  0  0  0  0  0  0  0  0
   39.6520   22.9550   37.8130 C   0  0  0  0  0  0  0  0  0  0  0  0
   38.9990   23.5600   36.7770 N   0  0  0  0  0  0  0  0  0  0  0  0
   39.3600   23.3110   35.4850 C   0  0  0  0  0  0  0  0  0  0  0  0
   40.3590   22.4690   35.2170 N   0  0  0  0  0  0  0  0  0  0  0  0
   39.1820   23.2980   39.1080 N   0  0  0  0  0  0  0  0  0  0  0  0
   38.5950   24.0100   34.4850 N   0  0  0  0  0  0  0  0  0  0  0  0
   38.1680   23.5750   33.3120 C   0  0  0  0  0  0  0  0  0  0  0  0
   37.5000   24.6170   32.7610 N   0  0  0  0  0  0  0  0  0  0  0  0
   37.5160   25.6810   33.5830 C   0  0  0  0  0  0  0  0  0  0  0  0
   37.0050   26.9690   33.5240 C   0  0  0  0  0  0  0  0  0  0  0  0
   37.2240   27.8010   34.5760 N   0  0  0  0  0  0  0  0  0  0  0  0
   37.9120   27.4280   35.6690 C   0  0  0  0  0  0  0  0  0  0  0  0
   38.4150   26.1740   35.7350 N   0  0  0  0  0  0  0  0  0  0  0  0
   38.2190   25.3050   34.6980 C   0  0  0  0  0  0  0  0  0  0  0  0
   41.8498   21.1642   35.9414 H   0  0  0  0  0  0  0  0  0  0  0  0
   41.2515   21.5643   38.3486 H   0  0  0  0  0  0  0  0  0  0  0  0
   38.4005   23.9606   39.2135 H   0  0  0  0  0  0  0  0  0  0  0  0
   39.6225   22.8842   39.9421 H   0  0  0  0  0  0  0  0  0  0  0  0
   38.3225   22.5773   32.8753 H   0  0  0  0  0  0  0  0  0  0  0  0
   36.4358   27.3091   32.6463 H   0  0  0  0  0  0  0  0  0  0  0  0
   38.0640   28.1335   36.4991 H   0  0  0  0  0  0  0  0  0  0  0  0
  1  2  2  0
  2  3  1  0
  3  7  1  0
  4  3  2  0
  5  4  1  0
  6  5  2  0
  6  1  1  0
  8 16  1  0
  8  5  1  0
  9  8  1  0
 10  9  2  0
 10 11  1  0
 11 16  2  0
 12 11  1  0
 12 13  2  0
 13 14  1  0
 14 15  2  0
 16 15  1  0
  1 17  1  0
  2 18  1  0
  7 19  1  0
  7 20  1  0
  9 21  1  0
 12 22  1  0
 14 23  1  0
M  ISO  5  17  14  18  14  21  14  22  14  23  14
M  END
>  <minimizedAffinity>  (1) 
-4.87742186

>  <minimizedRMSD>  (1) 
2.46036315

$$$$
