
     RDKit          3D

 23 24  0  0  0  0  0  0  0  0999 V2000
   41.1890   22.8100   36.3230 C   0  0  0  0  0  0  0  0  0  0  0  0
   40.6370   22.5130   37.5790 C   0  0  0  0  0  0  0  0  0  0  0  0
   39.3490   22.9680   37.8520 C   0  0  0  0  0  0  0  0  0  0  0  0
   38.6960   23.6740   36.8890 N   0  0  0  0  0  0  0  0  0  0  0  0
   39.2590   23.9440   35.6850 C   0  0  0  0  0  0  0  0  0  0  0  0
   40.4970   23.5100   35.4160 N   0  0  0  0  0  0  0  0  0  0  0  0
   38.6340   22.7610   39.0640 N   0  0  0  0  0  0  0  0  0  0  0  0
   38.4370   24.7030   34.7730 N   0  0  0  0  0  0  0  0  0  0  0  0
   38.2270   24.1090   33.5640 C   0  0  0  0  0  0  0  0  0  0  0  0
   37.4670   24.6650   32.5410 C   0  0  0  0  0  0  0  0  0  0  0  0
   36.9160   25.8940   32.8220 C   0  0  0  0  0  0  0  0  0  0  0  0
   36.1250   26.5210   31.8190 N   0  0  0  0  0  0  0  0  0  0  0  0
   37.1340   26.4600   34.0160 N   0  0  0  0  0  0  0  0  0  0  0  0
   37.8710   25.9040   34.9840 C   0  0  0  0  0  0  0  0  0  0  0  0
   38.1010   26.4000   36.1160 O   0  0  0  0  0  0  0  0  0  0  0  0
   42.2042   22.4627   36.0808 H   0  0  0  0  0  0  0  0  0  0  0  0
   41.2046   21.9381   38.3255 H   0  0  0  0  0  0  0  0  0  0  0  0
   37.6817   23.1385   39.1710 H   0  0  0  0  0  0  0  0  0  0  0  0
   39.0686   22.2336   39.8347 H   0  0  0  0  0  0  0  0  0  0  0  0
   38.6886   23.1265   33.3864 H   0  0  0  0  0  0  0  0  0  0  0  0
   37.3170   24.1586   31.5761 H   0  0  0  0  0  0  0  0  0  0  0  0
   35.6991   27.4413   31.9995 H   0  0  0  0  0  0  0  0  0  0  0  0
   35.9783   26.0546   30.9125 H   0  0  0  0  0  0  0  0  0  0  0  0
  1  2  2  0
  2  3  1  0
  3  7  1  0
  4  3  2  0
  5  4  1  0
  6  5  2  0
  6  1  1  0
  8 14  1  0
  8  5  1  0
  9  8  1  0
 10 11  1  0
 10  9  2  0
 11 13  2  0
 12 11  1  0
 13 14  1  0
 14 15  2  0
  1 16  1  0
  2 17  1  0
  7 18  1  0
  7 19  1  0
  9 20  1  0
 10 21  1  0
 12 22  1  0
 12 23  1  0
M  ISO  4  16  14  17  14  20  14  21  14
M  END
>  <minimizedAffinity>  (1) 
-4.84030247

>  <minimizedRMSD>  (1) 
2.8559289

$$$$
