
     RDKit          3D

 22 23  0  0  0  0  0  0  0  0999 V2000
   40.8990   23.1210   36.1610 C   0  0  0  0  0  0  0  0  0  0  0  0
   40.4100   22.5590   37.3650 C   0  0  0  0  0  0  0  0  0  0  0  0
   39.1950   23.0590   37.8420 C   0  0  0  0  0  0  0  0  0  0  0  0
   38.5600   24.0390   37.1400 N   0  0  0  0  0  0  0  0  0  0  0  0
   39.0730   24.5410   35.9940 C   0  0  0  0  0  0  0  0  0  0  0  0
   40.2280   24.0860   35.5140 N   0  0  0  0  0  0  0  0  0  0  0  0
   38.5440   22.6290   39.0240 N   0  0  0  0  0  0  0  0  0  0  0  0
   38.3500   25.5930   35.2800 C   0  0  0  0  0  0  0  0  0  0  0  0
   38.1850   26.8470   35.8380 C   0  0  0  0  0  0  0  0  0  0  0  0
   37.4890   27.8280   35.1290 C   0  0  0  0  0  0  0  0  0  0  0  0
   36.9610   27.5640   33.8770 C   0  0  0  0  0  0  0  0  0  0  0  0
   37.1220   26.3020   33.3070 C   0  0  0  0  0  0  0  0  0  0  0  0
   37.8170   25.3480   34.0310 C   0  0  0  0  0  0  0  0  0  0  0  0
   41.8511   22.7581   35.7465 H   0  0  0  0  0  0  0  0  0  0  0  0
   40.9586   21.7686   37.8982 H   0  0  0  0  0  0  0  0  0  0  0  0
   37.6477   23.0536   39.3019 H   0  0  0  0  0  0  0  0  0  0  0  0
   38.9669   21.8917   39.6057 H   0  0  0  0  0  0  0  0  0  0  0  0
   38.5987   27.0701   36.8325 H   0  0  0  0  0  0  0  0  0  0  0  0
   37.3582   28.8262   35.5723 H   0  0  0  0  0  0  0  0  0  0  0  0
   36.4152   28.3487   33.3327 H   0  0  0  0  0  0  0  0  0  0  0  0
   36.7100   26.0714   32.3135 H   0  0  0  0  0  0  0  0  0  0  0  0
   37.9503   24.3490   33.5903 H   0  0  0  0  0  0  0  0  0  0  0  0
  1  2  2  0
  2  3  1  0
  3  7  1  0
  4  3  2  0
  5  4  1  0
  6  5  2  0
  6  1  1  0
  8  9  2  0
  8  5  1  0
 10  9  1  0
 11 10  2  0
 12 11  1  0
 12 13  2  0
 13  8  1  0
  1 14  1  0
  2 15  1  0
  7 16  1  0
  7 17  1  0
  9 18  1  0
 10 19  1  0
 11 20  1  0
 12 21  1  0
 13 22  1  0
M  ISO  7  14  14  15  14  18  14  19  14  20  14  21  14  22  14
M  END
>  <minimizedAffinity>  (1) 
-4.6687994

>  <minimizedRMSD>  (1) 
3.44670296

$$$$
