
     RDKit          3D

 20 21  0  0  0  0  0  0  0  0999 V2000
   40.9650   23.0850   36.2000 C   0  0  0  0  0  0  0  0  0  0  0  0
   40.4550   22.5440   37.3830 C   0  0  0  0  0  0  0  0  0  0  0  0
   39.2280   23.0490   37.8370 C   0  0  0  0  0  0  0  0  0  0  0  0
   38.6070   24.0250   37.1130 N   0  0  0  0  0  0  0  0  0  0  0  0
   39.1460   24.5190   35.9680 C   0  0  0  0  0  0  0  0  0  0  0  0
   40.3090   24.0410   35.5360 N   0  0  0  0  0  0  0  0  0  0  0  0
   38.5440   22.6310   39.0150 N   0  0  0  0  0  0  0  0  0  0  0  0
   38.3900   25.5590   35.2830 C   0  0  0  0  0  0  0  0  0  0  0  0
   38.2430   26.8190   35.8550 C   0  0  0  0  0  0  0  0  0  0  0  0
   37.5000   27.7500   35.1210 C   0  0  0  0  0  0  0  0  0  0  0  0
   36.9540   27.4250   33.9140 N   0  0  0  0  0  0  0  0  0  0  0  0
   37.1190   26.2000   33.4000 C   0  0  0  0  0  0  0  0  0  0  0  0
   37.8330   25.2980   34.0990 N   0  0  0  0  0  0  0  0  0  0  0  0
   41.9246   22.7169   35.8080 H   0  0  0  0  0  0  0  0  0  0  0  0
   40.9918   21.7573   37.9335 H   0  0  0  0  0  0  0  0  0  0  0  0
   37.6435   23.0622   39.2681 H   0  0  0  0  0  0  0  0  0  0  0  0
   38.9501   21.8976   39.6135 H   0  0  0  0  0  0  0  0  0  0  0  0
   38.6863   27.0692   36.8301 H   0  0  0  0  0  0  0  0  0  0  0  0
   37.3535   28.7627   35.5247 H   0  0  0  0  0  0  0  0  0  0  0  0
   36.6802   25.9359   32.4265 H   0  0  0  0  0  0  0  0  0  0  0  0
  1  2  2  0
  2  3  1  0
  3  7  1  0
  4  3  2  0
  5  4  1  0
  6  5  2  0
  6  1  1  0
  8  9  2  0
  8  5  1  0
 10  9  1  0
 11 10  2  0
 12 11  1  0
 12 13  2  0
 13  8  1  0
  1 14  1  0
  2 15  1  0
  7 16  1  0
  7 17  1  0
  9 18  1  0
 10 19  1  0
 12 20  1  0
M  ISO  5  14  14  15  14  18  14  19  14  20  14
M  END
>  <minimizedAffinity>  (1) 
-4.36269569

>  <minimizedRMSD>  (1) 
3.36103702

$$$$
