
     RDKit          3D

 28 29  0  0  0  0  0  0  0  0999 V2000
   40.9840   22.9930   36.0480 C   0  0  0  0  0  0  0  0  0  0  0  0
   40.3290   22.4710   37.1830 C   0  0  0  0  0  0  0  0  0  0  0  0
   39.1690   23.1020   37.6030 C   0  0  0  0  0  0  0  0  0  0  0  0
   38.6980   24.1850   36.9270 N   0  0  0  0  0  0  0  0  0  0  0  0
   39.3630   24.6600   35.8300 C   0  0  0  0  0  0  0  0  0  0  0  0
   40.4900   24.0600   35.4090 N   0  0  0  0  0  0  0  0  0  0  0  0
   38.3790   22.7120   38.7270 N   0  0  0  0  0  0  0  0  0  0  0  0
   38.8400   25.8340   35.1080 C   0  0  0  0  0  0  0  0  0  0  0  0
   38.8820   25.5470   33.6210 C   0  0  0  0  0  0  0  0  0  0  0  0
   38.5150   26.7850   32.8300 C   0  0  0  0  0  0  0  0  0  0  0  0
   37.2490   27.4210   33.3070 C   0  0  0  0  0  0  0  0  0  0  0  0
   37.1650   27.5560   34.8110 C   0  0  0  0  0  0  0  0  0  0  0  0
   37.4230   26.1920   35.4300 C   0  0  0  0  0  0  0  0  0  0  0  0
   41.9081   22.5193   35.6853 H   0  0  0  0  0  0  0  0  0  0  0  0
   40.7251   21.5940   37.7159 H   0  0  0  0  0  0  0  0  0  0  0  0
   37.5285   23.2410   38.9671 H   0  0  0  0  0  0  0  0  0  0  0  0
   38.6598   21.9017   39.2975 H   0  0  0  0  0  0  0  0  0  0  0  0
   39.4761   26.6756   35.4197 H   0  0  0  0  0  0  0  0  0  0  0  0
   39.8972   25.2277   33.3427 H   0  0  0  0  0  0  0  0  0  0  0  0
   38.1575   24.7516   33.3922 H   0  0  0  0  0  0  0  0  0  0  0  0
   38.3911   26.5037   31.7738 H   0  0  0  0  0  0  0  0  0  0  0  0
   39.3252   27.5169   32.9641 H   0  0  0  0  0  0  0  0  0  0  0  0
   37.1765   28.4251   32.8637 H   0  0  0  0  0  0  0  0  0  0  0  0
   36.4229   26.7643   32.9968 H   0  0  0  0  0  0  0  0  0  0  0  0
   37.9218   28.2727   35.1626 H   0  0  0  0  0  0  0  0  0  0  0  0
   36.1693   27.9213   35.1028 H   0  0  0  0  0  0  0  0  0  0  0  0
   36.7371   25.4459   35.0024 H   0  0  0  0  0  0  0  0  0  0  0  0
   37.2579   26.2136   36.5173 H   0  0  0  0  0  0  0  0  0  0  0  0
  1  2  2  0
  2  3  1  0
  3  7  1  0
  4  3  2  0
  5  4  1  0
  6  5  2  0
  6  1  1  0
  8 13  1  0
  8  5  1  0
  9  8  1  0
 10 11  1  0
 10  9  1  0
 11 12  1  0
 12 13  1  0
  1 14  1  0
  2 15  1  0
  7 16  1  0
  7 17  1  0
  8 18  1  0
  9 19  1  0
  9 20  1  0
 10 21  1  0
 10 22  1  0
 11 23  1  0
 11 24  1  0
 12 25  1  0
 12 26  1  0
 13 27  1  0
 13 28  1  0
M  ISO  8  14  14  15  14  18  13  19  13  20  13  21  13  22  13  23  13
M  ISO  5  24  13  25  13  26  13  27  13  28  13
M  END
>  <minimizedAffinity>  (1) 
-4.29673243

>  <minimizedRMSD>  (1) 
3.68231082

$$$$
