
     RDKit          3D

 19 20  0  0  0  0  0  0  0  0999 V2000
   40.9210   23.0910   36.1420 C   0  0  0  0  0  0  0  0  0  0  0  0
   40.4020   22.5460   37.3260 C   0  0  0  0  0  0  0  0  0  0  0  0
   39.2100   23.0570   37.8220 C   0  0  0  0  0  0  0  0  0  0  0  0
   38.5840   24.0750   37.1330 N   0  0  0  0  0  0  0  0  0  0  0  0
   39.1270   24.5670   35.9930 C   0  0  0  0  0  0  0  0  0  0  0  0
   40.2680   24.0910   35.5020 N   0  0  0  0  0  0  0  0  0  0  0  0
   38.5420   22.6320   38.9980 N   0  0  0  0  0  0  0  0  0  0  0  0
   38.3860   25.6650   35.3130 C   0  0  0  0  0  0  0  0  0  0  0  0
   38.1630   26.9500   35.8640 C   0  0  0  0  0  0  0  0  0  0  0  0
   37.4590   27.8040   35.0680 C   0  0  0  0  0  0  0  0  0  0  0  0
   37.0220   27.4240   33.8510 C   0  0  0  0  0  0  0  0  0  0  0  0
   37.6000   25.7150   33.7060 S   0  0  0  0  0  0  0  0  0  0  0  0
   41.8647   22.7038   35.7303 H   0  0  0  0  0  0  0  0  0  0  0  0
   40.9270   21.7331   37.8490 H   0  0  0  0  0  0  0  0  0  0  0  0
   37.6580   23.0800   39.2786 H   0  0  0  0  0  0  0  0  0  0  0  0
   38.9407   21.8752   39.5718 H   0  0  0  0  0  0  0  0  0  0  0  0
   38.5304   27.2378   36.8601 H   0  0  0  0  0  0  0  0  0  0  0  0
   37.2437   28.8218   35.4255 H   0  0  0  0  0  0  0  0  0  0  0  0
   36.4496   28.0130   33.1192 H   0  0  0  0  0  0  0  0  0  0  0  0
  1  2  2  0
  2  3  1  0
  3  7  1  0
  4  3  2  0
  5  4  1  0
  6  5  2  0
  6  1  1  0
  8  9  2  0
  8  5  1  0
 10  9  1  0
 11 10  2  0
 12 11  1  0
 12  8  1  0
  1 13  1  0
  2 14  1  0
  7 15  1  0
  7 16  1  0
  9 17  1  0
 10 18  1  0
 11 19  1  0
M  ISO  5  13  14  14  14  17  14  18  14  19  14
M  END
>  <minimizedAffinity>  (1) 
-4.25010347

>  <minimizedRMSD>  (1) 
3.34438229

$$$$
