
     RDKit          3D

 21 22  0  0  0  0  0  0  0  0999 V2000
   40.2630   22.1990   36.9800 C   0  0  0  0  0  0  0  0  0  0  0  0
   39.7900   23.0540   37.9800 C   0  0  0  0  0  0  0  0  0  0  0  0
   38.4750   23.5260   37.8940 C   0  0  0  0  0  0  0  0  0  0  0  0
   37.7180   23.1210   36.8270 N   0  0  0  0  0  0  0  0  0  0  0  0
   38.2090   22.2900   35.8730 C   0  0  0  0  0  0  0  0  0  0  0  0
   39.4610   21.8480   35.9670 N   0  0  0  0  0  0  0  0  0  0  0  0
   37.8380   24.3940   38.8150 N   0  0  0  0  0  0  0  0  0  0  0  0
   37.3410   21.9020   34.7640 C   0  0  0  0  0  0  0  0  0  0  0  0
   36.3350   20.9750   35.0000 C   0  0  0  0  0  0  0  0  0  0  0  0
   35.5270   20.6220   33.9380 C   0  0  0  0  0  0  0  0  0  0  0  0
   35.7690   21.2180   32.6950 C   0  0  0  0  0  0  0  0  0  0  0  0
   36.7780   22.1380   32.4940 C   0  0  0  0  0  0  0  0  0  0  0  0
   37.5500   22.4620   33.5480 N   0  0  0  0  0  0  0  0  0  0  0  0
   41.2928   21.8151   37.0254 H   0  0  0  0  0  0  0  0  0  0  0  0
   40.4384   23.3499   38.8178 H   0  0  0  0  0  0  0  0  0  0  0  0
   36.8618   24.6834   38.6593 H   0  0  0  0  0  0  0  0  0  0  0  0
   38.3511   24.7356   39.6402 H   0  0  0  0  0  0  0  0  0  0  0  0
   36.1870   20.5372   35.9982 H   0  0  0  0  0  0  0  0  0  0  0  0
   34.7144   19.8916   34.0652 H   0  0  0  0  0  0  0  0  0  0  0  0
   35.1292   20.9420   31.8439 H   0  0  0  0  0  0  0  0  0  0  0  0
   36.9456   22.5912   31.5058 H   0  0  0  0  0  0  0  0  0  0  0  0
  1  2  2  0
  3  2  1  0
  3  7  1  0
  4  3  2  0
  5  6  2  0
  5  4  1  0
  6  1  1  0
  8  9  2  0
  8  5  1  0
 10  9  1  0
 11 10  2  0
 12 11  1  0
 12 13  2  0
 13  8  1  0
  1 14  1  0
  2 15  1  0
  7 16  1  0
  7 17  1  0
  9 18  1  0
 10 19  1  0
 11 20  1  0
 12 21  1  0
M  ISO  6  14  14  15  14  18  14  19  14  20  14  21  14
M  END
>  <minimizedAffinity>  (1) 
-4.18539286

>  <minimizedRMSD>  (1) 
0.683882117

$$$$
