
     RDKit          3D

 24 25  0  0  0  0  0  0  0  0999 V2000
   41.1110   22.9240   36.2740 C   0  0  0  0  0  0  0  0  0  0  0  0
   40.4760   22.4680   37.4320 C   0  0  0  0  0  0  0  0  0  0  0  0
   39.2400   23.0420   37.7700 C   0  0  0  0  0  0  0  0  0  0  0  0
   38.7180   24.0190   36.9490 N   0  0  0  0  0  0  0  0  0  0  0  0
   39.3800   24.4170   35.8410 C   0  0  0  0  0  0  0  0  0  0  0  0
   40.5510   23.8870   35.5020 N   0  0  0  0  0  0  0  0  0  0  0  0
   38.4480   22.7160   38.8980 N   0  0  0  0  0  0  0  0  0  0  0  0
   38.7560   25.4310   35.0590 N   0  0  0  0  0  0  0  0  0  0  0  0
   37.8820   26.4700   35.5720 C   0  0  0  0  0  0  0  0  0  0  0  0
   37.0450   26.9400   34.4050 C   0  0  0  0  0  0  0  0  0  0  0  0
   37.3440   25.8950   33.3500 C   0  0  0  0  0  0  0  0  0  0  0  0
   38.8240   25.6810   33.6310 C   0  0  0  0  0  0  0  0  0  0  0  0
   42.0813   22.4944   35.9841 H   0  0  0  0  0  0  0  0  0  0  0  0
   40.9293   21.6853   38.0581 H   0  0  0  0  0  0  0  0  0  0  0  0
   37.5520   23.1991   39.0551 H   0  0  0  0  0  0  0  0  0  0  0  0
   38.7681   21.9959   39.5612 H   0  0  0  0  0  0  0  0  0  0  0  0
   37.2357   26.0659   36.3651 H   0  0  0  0  0  0  0  0  0  0  0  0
   38.4606   27.2986   36.0063 H   0  0  0  0  0  0  0  0  0  0  0  0
   35.9754   26.9521   34.6615 H   0  0  0  0  0  0  0  0  0  0  0  0
   37.2743   27.9670   34.0844 H   0  0  0  0  0  0  0  0  0  0  0  0
   37.1691   26.2754   32.3328 H   0  0  0  0  0  0  0  0  0  0  0  0
   36.7207   24.9897   33.3941 H   0  0  0  0  0  0  0  0  0  0  0  0
   39.2267   24.8178   33.0808 H   0  0  0  0  0  0  0  0  0  0  0  0
   39.4849   26.5067   33.3285 H   0  0  0  0  0  0  0  0  0  0  0  0
  1  2  2  0
  2  3  1  0
  3  7  1  0
  4  3  2  0
  5  4  1  0
  6  5  2  0
  6  1  1  0
  8  9  1  0
  8  5  1  0
 10  9  1  0
 11 12  1  0
 11 10  1  0
 12  8  1  0
  1 13  1  0
  2 14  1  0
  7 15  1  0
  7 16  1  0
  9 17  1  0
  9 18  1  0
 10 19  1  0
 10 20  1  0
 11 21  1  0
 11 22  1  0
 12 23  1  0
 12 24  1  0
M  ISO  8  13  14  14  14  17  13  18  13  19  13  20  13  21  13  22  13
M  ISO  2  23  13  24  13
M  END
>  <minimizedAffinity>  (1) 
-4.1411643

>  <minimizedRMSD>  (1) 
3.04132318

$$$$
