
     RDKit          3D

 18 19  0  0  0  0  0  0  0  0999 V2000
   41.0820   22.8980   36.2520 C   0  0  0  0  0  0  0  0  0  0  0  0
   40.5540   22.5210   37.4870 C   0  0  0  0  0  0  0  0  0  0  0  0
   39.3160   23.0220   37.8550 C   0  0  0  0  0  0  0  0  0  0  0  0
   38.6600   23.8670   36.9910 N   0  0  0  0  0  0  0  0  0  0  0  0
   39.2130   24.2070   35.7980 C   0  0  0  0  0  0  0  0  0  0  0  0
   40.4030   23.7270   35.4390 N   0  0  0  0  0  0  0  0  0  0  0  0
   38.6230   22.7550   39.0630 N   0  0  0  0  0  0  0  0  0  0  0  0
   38.4310   25.1000   34.9760 N   0  0  0  0  0  0  0  0  0  0  0  0
   38.2000   25.3210   33.6690 C   0  0  0  0  0  0  0  0  0  0  0  0
   37.3340   26.3450   33.6140 N   0  0  0  0  0  0  0  0  0  0  0  0
   37.0240   26.7620   34.8510 C   0  0  0  0  0  0  0  0  0  0  0  0
   37.7280   25.9620   35.7060 N   0  0  0  0  0  0  0  0  0  0  0  0
   42.0641   22.5132   35.9397 H   0  0  0  0  0  0  0  0  0  0  0  0
   41.1074   21.8422   38.1526 H   0  0  0  0  0  0  0  0  0  0  0  0
   37.7022   23.1837   39.2341 H   0  0  0  0  0  0  0  0  0  0  0  0
   39.0404   22.1324   39.7694 H   0  0  0  0  0  0  0  0  0  0  0  0
   38.6328   24.7738   32.8186 H   0  0  0  0  0  0  0  0  0  0  0  0
   36.3418   27.5813   35.1217 H   0  0  0  0  0  0  0  0  0  0  0  0
  1  2  2  0
  2  3  1  0
  3  7  1  0
  4  3  2  0
  5  4  1  0
  6  5  2  0
  6  1  1  0
  8 12  1  0
  8  5  1  0
  9  8  1  0
 10  9  2  0
 10 11  1  0
 11 12  2  0
  1 13  1  0
  2 14  1  0
  7 15  1  0
  7 16  1  0
  9 17  1  0
 11 18  1  0
M  ISO  4  13  14  14  14  17  14  18  14
M  END
>  <minimizedAffinity>  (1) 
-4.08968401

>  <minimizedRMSD>  (1) 
2.65139365

$$$$
