
     RDKit          3D

 18 18  0  0  0  0  0  0  0  0999 V2000
   40.4090   23.4460   35.9010 C   0  0  0  0  0  0  0  0  0  0  0  0
   40.0860   22.7720   37.0830 C   0  0  0  0  0  0  0  0  0  0  0  0
   38.9550   23.1970   37.7870 C   0  0  0  0  0  0  0  0  0  0  0  0
   38.2240   24.2430   37.2900 N   0  0  0  0  0  0  0  0  0  0  0  0
   38.5790   24.8620   36.1410 C   0  0  0  0  0  0  0  0  0  0  0  0
   39.6540   24.4630   35.4650 N   0  0  0  0  0  0  0  0  0  0  0  0
   38.4650   22.6470   38.9990 N   0  0  0  0  0  0  0  0  0  0  0  0
   37.8170   25.9990   35.5670 C   0  0  0  0  0  0  0  0  0  0  0  0
   38.5120   27.3300   35.7470 C   0  0  0  0  0  0  0  0  0  0  0  0
   41.2927   23.1377   35.3230 H   0  0  0  0  0  0  0  0  0  0  0  0
   40.7010   21.9356   37.4467 H   0  0  0  0  0  0  0  0  0  0  0  0
   37.6183   23.0376   39.4366 H   0  0  0  0  0  0  0  0  0  0  0  0
   38.9558   21.8570   39.4416 H   0  0  0  0  0  0  0  0  0  0  0  0
   36.8351   26.0472   36.0606 H   0  0  0  0  0  0  0  0  0  0  0  0
   37.7259   25.8201   34.4855 H   0  0  0  0  0  0  0  0  0  0  0  0
   38.6234   27.5433   36.8204 H   0  0  0  0  0  0  0  0  0  0  0  0
   39.5052   27.2917   35.2758 H   0  0  0  0  0  0  0  0  0  0  0  0
   37.9129   28.1231   35.2758 H   0  0  0  0  0  0  0  0  0  0  0  0
  1  2  2  0
  2  3  1  0
  3  7  1  0
  4  3  2  0
  5  4  1  0
  6  1  1  0
  6  5  2  0
  8  9  1  0
  8  5  1  0
  1 10  1  0
  2 11  1  0
  7 12  1  0
  7 13  1  0
  8 14  1  0
  8 15  1  0
  9 16  1  0
  9 17  1  0
  9 18  1  0
M  ISO  7  10  14  11  14  14   8  15   8  16   8  17   8  18   8
M  END
>  <minimizedAffinity>  (1) 
-3.62217617

>  <minimizedRMSD>  (1) 
2.4745481

$$$$
