
     RDKit          3D

 25 26  0  0  0  0  0  0  0  0999 V2000
   41.4440   22.7390   36.4710 C   0  0  0  0  0  0  0  0  0  0  0  0
   40.6910   22.3880   37.5980 C   0  0  0  0  0  0  0  0  0  0  0  0
   39.4270   22.9380   37.7430 C   0  0  0  0  0  0  0  0  0  0  0  0
   38.9640   23.8000   36.7860 N   0  0  0  0  0  0  0  0  0  0  0  0
   39.7260   24.1160   35.7050 C   0  0  0  0  0  0  0  0  0  0  0  0
   40.9500   23.5900   35.5550 N   0  0  0  0  0  0  0  0  0  0  0  0
   38.5260   22.6990   38.8130 N   0  0  0  0  0  0  0  0  0  0  0  0
   39.2580   25.0480   34.6450 C   0  0  0  0  0  0  0  0  0  0  0  0
   40.2590   24.9930   33.5020 C   0  0  0  0  0  0  0  0  0  0  0  0
   39.4860   24.9610   32.2230 C   0  0  0  0  0  0  0  0  0  0  0  0
   38.0340   24.8910   32.5860 C   0  0  0  0  0  0  0  0  0  0  0  0
   37.9560   24.6090   34.0560 C   0  0  0  0  0  0  0  0  0  0  0  0
   42.4494   22.3144   36.3338 H   0  0  0  0  0  0  0  0  0  0  0  0
   41.0927   21.6928   38.3499 H   0  0  0  0  0  0  0  0  0  0  0  0
   37.6056   23.1611   38.8242 H   0  0  0  0  0  0  0  0  0  0  0  0
   38.7925   22.0634   39.5784 H   0  0  0  0  0  0  0  0  0  0  0  0
   39.1515   26.0454   35.0964 H   0  0  0  0  0  0  0  0  0  0  0  0
   40.9056   25.8826   33.5270 H   0  0  0  0  0  0  0  0  0  0  0  0
   40.8960   24.1005   33.5900 H   0  0  0  0  0  0  0  0  0  0  0  0
   39.7701   24.0774   31.6326 H   0  0  0  0  0  0  0  0  0  0  0  0
   39.6950   25.8552   31.6174 H   0  0  0  0  0  0  0  0  0  0  0  0
   37.5427   25.8488   32.3597 H   0  0  0  0  0  0  0  0  0  0  0  0
   37.5259   24.1032   32.0105 H   0  0  0  0  0  0  0  0  0  0  0  0
   37.1261   25.1728   34.5071 H   0  0  0  0  0  0  0  0  0  0  0  0
   37.7749   23.5407   34.2458 H   0  0  0  0  0  0  0  0  0  0  0  0
  1  2  2  0
  2  3  1  0
  3  7  1  0
  4  3  2  0
  5  4  1  0
  6  5  2  0
  6  1  1  0
  8  5  1  0
  9  8  1  0
 10 11  1  0
 10  9  1  0
 11 12  1  0
 12  8  1  0
  1 13  1  0
  2 14  1  0
  7 15  1  0
  7 16  1  0
  8 17  1  0
  9 18  1  0
  9 19  1  0
 10 20  1  0
 10 21  1  0
 11 22  1  0
 11 23  1  0
 12 24  1  0
 12 25  1  0
M  ISO  8  13  14  14  14  17  13  18  13  19  13  20  13  21  13  22  13
M  ISO  3  23  13  24  13  25  13
M  END
>  <minimizedAffinity>  (1) 
-3.55049491

>  <minimizedRMSD>  (1) 
2.40505886

$$$$
