
     RDKit          3D

 15 15  0  0  0  0  0  0  0  0999 V2000
   40.3970   22.1750   37.0390 C   0  0  0  0  0  0  0  0  0  0  0  0
   39.8160   22.9960   38.0370 C   0  0  0  0  0  0  0  0  0  0  0  0
   38.5320   23.4770   37.8270 C   0  0  0  0  0  0  0  0  0  0  0  0
   37.8770   23.1400   36.6650 N   0  0  0  0  0  0  0  0  0  0  0  0
   38.4700   22.3530   35.7380 C   0  0  0  0  0  0  0  0  0  0  0  0
   39.7010   21.8870   35.9310 N   0  0  0  0  0  0  0  0  0  0  0  0
   37.8070   24.3070   38.7190 N   0  0  0  0  0  0  0  0  0  0  0  0
   37.7200   22.0170   34.4960 C   0  0  0  0  0  0  0  0  0  0  0  0
   41.4134   21.7764   37.1731 H   0  0  0  0  0  0  0  0  0  0  0  0
   40.3689   23.2455   38.9546 H   0  0  0  0  0  0  0  0  0  0  0  0
   36.8548   24.6157   38.4764 H   0  0  0  0  0  0  0  0  0  0  0  0
   38.2325   24.6013   39.6096 H   0  0  0  0  0  0  0  0  0  0  0  0
   36.7460   21.5807   34.7625 H   0  0  0  0  0  0  0  0  0  0  0  0
   37.5628   22.9307   33.9041 H   0  0  0  0  0  0  0  0  0  0  0  0
   38.2972   21.2914   33.9041 H   0  0  0  0  0  0  0  0  0  0  0  0
  1  2  2  0
  3  2  1  0
  3  7  1  0
  4  3  2  0
  5  6  2  0
  5  4  1  0
  6  1  1  0
  8  5  1  0
  1  9  1  0
  2 10  1  0
  7 11  1  0
  7 12  1  0
  8 13  1  0
  8 14  1  0
  8 15  1  0
M  ISO  5   9  14  10  14  13   8  14   8  15   8
M  END
>  <minimizedAffinity>  (1) 
-2.90718651

>  <minimizedRMSD>  (1) 
0.461630046

$$$$
