
     RDKit          3D

 22 23  0  0  0  0  0  0  0  0999 V2000
   44.4710   21.3060   35.5600 C   0  0  0  0  0  0  0  0  0  0  0  0
   44.7660   20.0800   36.1400 C   0  0  0  0  0  0  0  0  0  0  0  0
   43.7780   19.4990   36.9610 C   0  0  0  0  0  0  0  0  0  0  0  0
   42.5980   20.1550   37.1470 N   0  0  0  0  0  0  0  0  0  0  0  0
   42.3490   21.3440   36.5670 C   0  0  0  0  0  0  0  0  0  0  0  0
   43.2950   21.9060   35.7770 N   0  0  0  0  0  0  0  0  0  0  0  0
   41.0700   22.0020   36.7990 C   0  0  0  0  0  0  0  0  0  0  0  0
   40.1560   22.1320   35.7570 C   0  0  0  0  0  0  0  0  0  0  0  0
   39.0330   22.8010   36.2840 C   0  0  0  0  0  0  0  0  0  0  0  0
   39.3130   23.0410   37.5890 N   0  0  0  0  0  0  0  0  0  0  0  0
   40.5250   22.5740   37.9230 N   0  0  0  0  0  0  0  0  0  0  0  0
   38.4010   23.7260   38.5110 C   0  0  0  0  0  0  0  0  0  0  0  0
   37.3450   22.8850   38.7320 F   0  0  0  0  0  0  0  0  0  0  0  0
   37.9770   24.9360   37.9560 F   0  0  0  0  0  0  0  0  0  0  0  0
   39.0640   23.9950   39.6750 F   0  0  0  0  0  0  0  0  0  0  0  0
   43.8910   18.2560   37.6390 N   0  0  0  0  0  0  0  0  0  0  0  0
   45.2154   21.7917   34.9120 H   0  0  0  0  0  0  0  0  0  0  0  0
   45.7313   19.5820   35.9662 H   0  0  0  0  0  0  0  0  0  0  0  0
   40.2852   21.7806   34.7227 H   0  0  0  0  0  0  0  0  0  0  0  0
   38.1138   23.0738   35.7449 H   0  0  0  0  0  0  0  0  0  0  0  0
   43.1118   17.9128   38.2187 H   0  0  0  0  0  0  0  0  0  0  0  0
   44.7521   17.6978   37.5510 H   0  0  0  0  0  0  0  0  0  0  0  0
  1  6  2  0
  1  2  1  0
  2  3  2  0
  3  4  1  0
  3 16  1  0
  5  7  1  0
  5  4  2  0
  6  5  1  0
  7 11  2  0
  8  9  2  0
  8  7  1  0
  9 10  1  0
 10 11  1  0
 10 12  1  0
 12 13  1  0
 12 15  1  0
 14 12  1  0
  1 17  1  0
  2 18  1  0
  8 19  1  0
  9 20  1  0
 16 21  1  0
 16 22  1  0
M  ISO  4  17  14  18  14  19  14  20  14
M  END
>  <minimizedAffinity>  (1) 
-4.63700008

>  <minimizedRMSD>  (1) 
2.06112957

$$$$
