
     RDKit          3D

 26 28  0  0  0  0  0  0  0  0999 V2000
   38.3130   24.9040   35.4670 C   0  0  0  0  0  0  0  0  0  0  0  0
   37.8390   24.5380   36.7040 C   0  0  0  0  0  0  0  0  0  0  0  0
   38.6510   23.5380   37.2360 C   0  0  0  0  0  0  0  0  0  0  0  0
   39.6000   23.3310   36.2900 N   0  0  0  0  0  0  0  0  0  0  0  0
   39.4170   24.1270   35.2410 N   0  0  0  0  0  0  0  0  0  0  0  0
   36.6810   28.0480   34.4750 C   0  0  0  0  0  0  0  0  0  0  0  0
   36.3980   27.8300   33.1280 C   0  0  0  0  0  0  0  0  0  0  0  0
   36.7750   26.5950   32.5760 C   0  0  0  0  0  0  0  0  0  0  0  0
   37.3860   25.7040   33.3880 N   0  0  0  0  0  0  0  0  0  0  0  0
   37.6510   25.9330   34.6870 C   0  0  0  0  0  0  0  0  0  0  0  0
   37.2960   27.1120   35.2290 N   0  0  0  0  0  0  0  0  0  0  0  0
   36.5580   26.2250   31.2360 N   0  0  0  0  0  0  0  0  0  0  0  0
   40.6980   22.3910   36.3370 C   0  0  0  0  0  0  0  0  0  0  0  0
   41.1360   21.7600   37.5130 C   0  0  0  0  0  0  0  0  0  0  0  0
   42.1920   20.8930   37.3850 C   0  0  0  0  0  0  0  0  0  0  0  0
   42.7750   20.6710   36.1550 C   0  0  0  0  0  0  0  0  0  0  0  0
   41.7780   21.7650   35.0260 S   0  0  0  0  0  0  0  0  0  0  0  0
   36.9552   24.9680   37.1979 H   0  0  0  0  0  0  0  0  0  0  0  0
   38.5456   23.0303   38.2061 H   0  0  0  0  0  0  0  0  0  0  0  0
   36.3964   29.0058   34.9350 H   0  0  0  0  0  0  0  0  0  0  0  0
   35.8975   28.5974   32.5193 H   0  0  0  0  0  0  0  0  0  0  0  0
   36.8626   25.2997   30.9014 H   0  0  0  0  0  0  0  0  0  0  0  0
   36.0945   26.8794   30.5896 H   0  0  0  0  0  0  0  0  0  0  0  0
   40.6579   21.9507   38.4851 H   0  0  0  0  0  0  0  0  0  0  0  0
   42.5774   20.3698   38.2725 H   0  0  0  0  0  0  0  0  0  0  0  0
   43.6189   20.0117   35.9037 H   0  0  0  0  0  0  0  0  0  0  0  0
  1  2  1  0
  2  3  2  0
  4 13  1  0
  4  3  1  0
  5  1  2  0
  5  4  1  0
  6 11  2  0
  7  6  1  0
  8  7  2  0
  8  9  1  0
  9 10  2  0
 10 11  1  0
 10  1  1  0
 12  8  1  0
 13 14  2  0
 15 14  1  0
 16 15  2  0
 17 16  1  0
 17 13  1  0
  2 18  1  0
  3 19  1  0
  6 20  1  0
  7 21  1  0
 12 22  1  0
 12 23  1  0
 14 24  1  0
 15 25  1  0
 16 26  1  0
M  ISO  7  18  14  19  14  20  14  21  14  24  14  25  14  26  14
M  END
>  <minimizedAffinity>  (1) 
-4.54256964

>  <minimizedRMSD>  (1) 
6.99003315

$$$$
