
     RDKit          3D

 28 30  0  0  0  0  0  0  0  0999 V2000
   42.1250   21.8180   35.5370 C   0  0  0  0  0  0  0  0  0  0  0  0
   41.5060   21.6630   34.3030 C   0  0  0  0  0  0  0  0  0  0  0  0
   40.6530   22.7600   34.1150 C   0  0  0  0  0  0  0  0  0  0  0  0
   40.7880   23.5220   35.2290 N   0  0  0  0  0  0  0  0  0  0  0  0
   41.6580   22.9800   36.0830 N   0  0  0  0  0  0  0  0  0  0  0  0
   45.2810   20.0540   36.2170 C   0  0  0  0  0  0  0  0  0  0  0  0
   44.8600   18.9300   36.9200 C   0  0  0  0  0  0  0  0  0  0  0  0
   43.4910   18.7930   37.1530 C   0  0  0  0  0  0  0  0  0  0  0  0
   42.6250   19.7430   36.6940 N   0  0  0  0  0  0  0  0  0  0  0  0
   43.0750   20.8280   36.0110 C   0  0  0  0  0  0  0  0  0  0  0  0
   44.4080   20.9660   35.7810 N   0  0  0  0  0  0  0  0  0  0  0  0
   42.8810   17.7200   37.8480 N   0  0  0  0  0  0  0  0  0  0  0  0
   40.0540   24.7330   35.3750 C   0  0  0  0  0  0  0  0  0  0  0  0
   38.8520   24.6750   36.0780 C   0  0  0  0  0  0  0  0  0  0  0  0
   38.0960   25.8410   36.2480 C   0  0  0  0  0  0  0  0  0  0  0  0
   38.5170   27.0630   35.7270 C   0  0  0  0  0  0  0  0  0  0  0  0
   39.7300   27.0410   35.0350 C   0  0  0  0  0  0  0  0  0  0  0  0
   40.4790   25.9150   34.8600 N   0  0  0  0  0  0  0  0  0  0  0  0
   41.6576   20.8303   33.6004 H   0  0  0  0  0  0  0  0  0  0  0  0
   40.0091   22.9606   33.2460 H   0  0  0  0  0  0  0  0  0  0  0  0
   46.3534   20.1945   36.0163 H   0  0  0  0  0  0  0  0  0  0  0  0
   45.5785   18.1781   37.2784 H   0  0  0  0  0  0  0  0  0  0  0  0
   41.8587   17.7021   37.9727 H   0  0  0  0  0  0  0  0  0  0  0  0
   43.4597   16.9577   38.2287 H   0  0  0  0  0  0  0  0  0  0  0  0
   38.5000   23.7204   36.4961 H   0  0  0  0  0  0  0  0  0  0  0  0
   37.1488   25.7915   36.8051 H   0  0  0  0  0  0  0  0  0  0  0  0
   37.9315   27.9857   35.8527 H   0  0  0  0  0  0  0  0  0  0  0  0
   40.1016   27.9840   34.6076 H   0  0  0  0  0  0  0  0  0  0  0  0
  1 10  1  0
  1  5  2  0
  2  1  1  0
  3  2  2  0
  3  4  1  0
  4 13  1  0
  4  5  1  0
  6  7  2  0
  7  8  1  0
  8 12  1  0
  9  8  2  0
 10  9  1  0
 11 10  2  0
 11  6  1  0
 13 14  2  0
 14 15  1  0
 16 15  2  0
 17 16  1  0
 18 17  2  0
 18 13  1  0
  2 19  1  0
  3 20  1  0
  6 21  1  0
  7 22  1  0
 12 23  1  0
 12 24  1  0
 14 25  1  0
 15 26  1  0
 16 27  1  0
 17 28  1  0
M  ISO  8  19  14  20  14  21  14  22  14  25  14  26  14  27  14  28  14
M  END
>  <minimizedAffinity>  (1) 
-3.99402022

>  <minimizedRMSD>  (1) 
4.62547016

$$$$
