
     RDKit          3D

 26 28  0  0  0  0  0  0  0  0999 V2000
   45.1610   20.9360   35.8630 C   0  0  0  0  0  0  0  0  0  0  0  0
   45.2190   19.6540   36.4440 C   0  0  0  0  0  0  0  0  0  0  0  0
   44.0600   19.1690   37.0850 C   0  0  0  0  0  0  0  0  0  0  0  0
   42.9530   19.9590   37.1090 N   0  0  0  0  0  0  0  0  0  0  0  0
   42.9370   21.1970   36.5330 C   0  0  0  0  0  0  0  0  0  0  0  0
   44.0390   21.6540   35.9260 N   0  0  0  0  0  0  0  0  0  0  0  0
   41.6970   21.9620   36.6110 C   0  0  0  0  0  0  0  0  0  0  0  0
   41.4880   22.9880   35.6880 C   0  0  0  0  0  0  0  0  0  0  0  0
   40.2280   23.5500   35.9830 C   0  0  0  0  0  0  0  0  0  0  0  0
   39.7480   22.8360   37.0610 N   0  0  0  0  0  0  0  0  0  0  0  0
   40.6120   21.9100   37.4220 N   0  0  0  0  0  0  0  0  0  0  0  0
   38.4570   23.1300   37.6540 C   0  0  0  0  0  0  0  0  0  0  0  0
   38.5290   23.9100   39.0060 C   0  0  0  0  0  0  0  0  0  0  0  0
   37.9460   24.4990   37.7420 C   0  0  0  0  0  0  0  0  0  0  0  0
   43.9470   17.9140   37.7130 N   0  0  0  0  0  0  0  0  0  0  0  0
   46.0458   21.3469   35.3547 H   0  0  0  0  0  0  0  0  0  0  0  0
   46.1379   19.0510   36.3992 H   0  0  0  0  0  0  0  0  0  0  0  0
   42.1733   23.2984   34.8856 H   0  0  0  0  0  0  0  0  0  0  0  0
   39.7325   24.3828   35.4625 H   0  0  0  0  0  0  0  0  0  0  0  0
   38.0145   22.2013   37.2645 H   0  0  0  0  0  0  0  0  0  0  0  0
   37.8754   23.6328   39.8462 H   0  0  0  0  0  0  0  0  0  0  0  0
   39.3148   24.1868   39.7242 H   0  0  0  0  0  0  0  0  0  0  0  0
   38.4814   25.3100   37.2266 H   0  0  0  0  0  0  0  0  0  0  0  0
   36.9793   24.9640   37.4986 H   0  0  0  0  0  0  0  0  0  0  0  0
   43.0600   17.6391   38.1585 H   0  0  0  0  0  0  0  0  0  0  0  0
   44.7514   17.2708   37.7269 H   0  0  0  0  0  0  0  0  0  0  0  0
  1  6  2  0
  1  2  1  0
  2  3  2  0
  3  4  1  0
  3 15  1  0
  5  7  1  0
  5  4  2  0
  6  5  1  0
  7 11  2  0
  8  9  2  0
  8  7  1  0
  9 10  1  0
 10 11  1  0
 10 12  1  0
 12 14  1  0
 12 13  1  0
 14 13  1  0
  1 16  1  0
  2 17  1  0
  8 18  1  0
  9 19  1  0
 12 20  1  0
 13 21  1  0
 13 22  1  0
 14 23  1  0
 14 24  1  0
 15 25  1  0
 15 26  1  0
M  ISO  8  16  14  17  14  18  14  19  14  20  13  21  13  22  13  23  13
M  ISO  1  24  13
M  END
>  <minimizedAffinity>  (1) 
-3.80656838

>  <minimizedRMSD>  (1) 
2.64430046

$$$$
