
     RDKit          3D

 29 31  0  0  0  0  0  0  0  0999 V2000
   43.7550   24.5750   36.3050 C   0  0  0  0  0  0  0  0  0  0  0  0
   43.5430   25.5230   35.2970 C   0  0  0  0  0  0  0  0  0  0  0  0
   42.3050   25.1660   34.6990 C   0  0  0  0  0  0  0  0  0  0  0  0
   41.8590   24.0630   35.3560 N   0  0  0  0  0  0  0  0  0  0  0  0
   42.7120   23.7010   36.3140 N   0  0  0  0  0  0  0  0  0  0  0  0
   46.0850   25.4460   39.0160 C   0  0  0  0  0  0  0  0  0  0  0  0
   47.2520   24.7920   38.6440 C   0  0  0  0  0  0  0  0  0  0  0  0
   47.2320   24.0510   37.4520 C   0  0  0  0  0  0  0  0  0  0  0  0
   46.0800   24.0160   36.7400 N   0  0  0  0  0  0  0  0  0  0  0  0
   44.9540   24.6620   37.1230 C   0  0  0  0  0  0  0  0  0  0  0  0
   44.9790   25.3770   38.2740 N   0  0  0  0  0  0  0  0  0  0  0  0
   48.3180   23.3320   36.9320 N   0  0  0  0  0  0  0  0  0  0  0  0
   40.6170   23.3600   35.0740 C   0  0  0  0  0  0  0  0  0  0  0  0
   39.6360   23.5420   36.1460 C   0  0  0  0  0  0  0  0  0  0  0  0
   38.5110   24.3330   36.1710 C   0  0  0  0  0  0  0  0  0  0  0  0
   37.7330   24.3420   37.3000 C   0  0  0  0  0  0  0  0  0  0  0  0
   38.1640   23.5190   38.3640 C   0  0  0  0  0  0  0  0  0  0  0  0
   39.7030   22.7390   37.7040 S   0  0  0  0  0  0  0  0  0  0  0  0
   44.1963   26.3654   35.0257 H   0  0  0  0  0  0  0  0  0  0  0  0
   41.8046   25.6819   33.8662 H   0  0  0  0  0  0  0  0  0  0  0  0
   46.0724   26.0351   39.9449 H   0  0  0  0  0  0  0  0  0  0  0  0
   48.1602   24.8525   39.2617 H   0  0  0  0  0  0  0  0  0  0  0  0
   48.2165   22.8136   36.0477 H   0  0  0  0  0  0  0  0  0  0  0  0
   49.2171   23.3223   37.4343 H   0  0  0  0  0  0  0  0  0  0  0  0
   40.1943   23.7460   34.1347 H   0  0  0  0  0  0  0  0  0  0  0  0
   40.8415   22.2862   34.9934 H   0  0  0  0  0  0  0  0  0  0  0  0
   38.2401   24.9479   35.3001 H   0  0  0  0  0  0  0  0  0  0  0  0
   36.8234   24.9562   37.3731 H   0  0  0  0  0  0  0  0  0  0  0  0
   37.6957   23.3767   39.3491 H   0  0  0  0  0  0  0  0  0  0  0  0
  1  5  2  0
  1 10  1  0
  2  1  1  0
  3  2  2  0
  3  4  1  0
  4  5  1  0
  7  6  2  0
  8  7  1  0
  9 10  1  0
  9  8  2  0
 10 11  2  0
 11  6  1  0
 12  8  1  0
 13  4  1  0
 13 14  1  0
 14 15  2  0
 14 18  1  0
 15 16  1  0
 16 17  2  0
 18 17  1  0
  2 19  1  0
  3 20  1  0
  6 21  1  0
  7 22  1  0
 12 23  1  0
 12 24  1  0
 13 25  1  0
 13 26  1  0
 15 27  1  0
 16 28  1  0
 17 29  1  0
M  ISO  8  19  14  20  14  21  14  22  14  25   8  26   8  27  14  28  14
M  ISO  1  29  14
M  END
>  <minimizedAffinity>  (1) 
-4.57657099

>  <minimizedRMSD>  (1) 
4.65808678

$$$$
