
     RDKit          3D

 29 31  0  0  0  0  0  0  0  0999 V2000
   43.5360   24.1880   36.5690 C   0  0  0  0  0  0  0  0  0  0  0  0
   43.0250   24.9860   35.5340 C   0  0  0  0  0  0  0  0  0  0  0  0
   41.9340   24.2500   35.0040 C   0  0  0  0  0  0  0  0  0  0  0  0
   41.8580   23.0920   35.7310 N   0  0  0  0  0  0  0  0  0  0  0  0
   42.8000   23.0610   36.6470 N   0  0  0  0  0  0  0  0  0  0  0  0
   45.6640   26.0810   38.9260 C   0  0  0  0  0  0  0  0  0  0  0  0
   46.9390   25.6100   38.6270 C   0  0  0  0  0  0  0  0  0  0  0  0
   47.0620   24.6350   37.6070 C   0  0  0  0  0  0  0  0  0  0  0  0
   45.9290   24.2110   36.9750 N   0  0  0  0  0  0  0  0  0  0  0  0
   44.6920   24.7060   37.3080 C   0  0  0  0  0  0  0  0  0  0  0  0
   44.5960   25.6260   38.2720 N   0  0  0  0  0  0  0  0  0  0  0  0
   48.2670   24.0610   37.1860 N   0  0  0  0  0  0  0  0  0  0  0  0
   40.8790   22.0290   35.5320 C   0  0  0  0  0  0  0  0  0  0  0  0
   39.5740   22.3700   36.1430 C   0  0  0  0  0  0  0  0  0  0  0  0
   39.2630   23.1570   37.2330 C   0  0  0  0  0  0  0  0  0  0  0  0
   37.8840   23.1550   37.3950 C   0  0  0  0  0  0  0  0  0  0  0  0
   37.4010   22.3720   36.4030 N   0  0  0  0  0  0  0  0  0  0  0  0
   38.4010   21.9120   35.6680 N   0  0  0  0  0  0  0  0  0  0  0  0
   43.3912   25.9696   35.2048 H   0  0  0  0  0  0  0  0  0  0  0  0
   41.2786   24.5503   34.1732 H   0  0  0  0  0  0  0  0  0  0  0  0
   45.5362   26.8391   39.7128 H   0  0  0  0  0  0  0  0  0  0  0  0
   47.8227   25.9829   39.1655 H   0  0  0  0  0  0  0  0  0  0  0  0
   48.2670   23.3564   36.4347 H   0  0  0  0  0  0  0  0  0  0  0  0
   49.1538   24.3432   37.6274 H   0  0  0  0  0  0  0  0  0  0  0  0
   40.7377   21.8711   34.4526 H   0  0  0  0  0  0  0  0  0  0  0  0
   41.2580   21.1166   36.0156 H   0  0  0  0  0  0  0  0  0  0  0  0
   39.9847   23.6944   37.8658 H   0  0  0  0  0  0  0  0  0  0  0  0
   37.3049   23.6805   38.1686 H   0  0  0  0  0  0  0  0  0  0  0  0
   36.4047   22.1650   36.2437 H   0  0  0  0  0  0  0  0  0  0  0  0
  1  5  2  0
  1 10  1  0
  2  1  1  0
  3  2  2  0
  3  4  1  0
  4  5  1  0
  7  6  2  0
  8  7  1  0
  9 10  1  0
  9  8  2  0
 10 11  2  0
 11  6  1  0
 12  8  1  0
 13  4  1  0
 13 14  1  0
 14 15  1  0
 15 16  2  0
 17 16  1  0
 18 14  2  0
 18 17  1  0
  2 19  1  0
  3 20  1  0
  6 21  1  0
  7 22  1  0
 12 23  1  0
 12 24  1  0
 13 25  1  0
 13 26  1  0
 15 27  1  0
 16 28  1  0
 17 29  1  0
M  ISO  8  19  14  20  14  21  14  22  14  25   8  26   8  27  14  28  14
M  ISO  1  29   9
M  END
>  <minimizedAffinity>  (1) 
-4.39247179

>  <minimizedRMSD>  (1) 
4.62538958

$$$$
