
     RDKit          3D

 31 33  0  0  0  0  0  0  0  0999 V2000
   41.6630   21.9790   36.2810 C   0  0  0  0  0  0  0  0  0  0  0  0
   41.7320   23.2290   35.6950 C   0  0  0  0  0  0  0  0  0  0  0  0
   40.4290   23.7810   35.7810 C   0  0  0  0  0  0  0  0  0  0  0  0
   39.6560   22.8400   36.4080 N   0  0  0  0  0  0  0  0  0  0  0  0
   40.3830   21.7830   36.7010 N   0  0  0  0  0  0  0  0  0  0  0  0
   45.1160   20.7690   35.9110 C   0  0  0  0  0  0  0  0  0  0  0  0
   45.0720   19.5270   36.5220 C   0  0  0  0  0  0  0  0  0  0  0  0
   43.8470   19.0990   37.0670 C   0  0  0  0  0  0  0  0  0  0  0  0
   42.7570   19.9150   36.9740 N   0  0  0  0  0  0  0  0  0  0  0  0
   42.8550   21.1360   36.3570 C   0  0  0  0  0  0  0  0  0  0  0  0
   44.0360   21.5460   35.8340 N   0  0  0  0  0  0  0  0  0  0  0  0
   43.6360   17.8770   37.7130 N   0  0  0  0  0  0  0  0  0  0  0  0
   38.2380   23.0000   36.7040 C   0  0  0  0  0  0  0  0  0  0  0  0
   37.4040   22.1840   35.7700 C   0  0  0  0  0  0  0  0  0  0  0  0
   36.3600   21.4590   36.3000 C   0  0  0  0  0  0  0  0  0  0  0  0
   35.6050   20.7100   35.4020 C   0  0  0  0  0  0  0  0  0  0  0  0
   35.8470   20.6620   34.0430 C   0  0  0  0  0  0  0  0  0  0  0  0
   36.9250   21.4250   33.5820 C   0  0  0  0  0  0  0  0  0  0  0  0
   37.6600   22.1530   34.4500 N   0  0  0  0  0  0  0  0  0  0  0  0
   42.6206   23.7012   35.2506 H   0  0  0  0  0  0  0  0  0  0  0  0
   40.1041   24.7670   35.4173 H   0  0  0  0  0  0  0  0  0  0  0  0
   46.0641   21.1223   35.4794 H   0  0  0  0  0  0  0  0  0  0  0  0
   45.9690   18.8930   36.5797 H   0  0  0  0  0  0  0  0  0  0  0  0
   42.7034   17.6444   38.0831 H   0  0  0  0  0  0  0  0  0  0  0  0
   44.4132   17.2094   37.8188 H   0  0  0  0  0  0  0  0  0  0  0  0
   38.0464   22.6736   37.7369 H   0  0  0  0  0  0  0  0  0  0  0  0
   37.9701   24.0597   36.5806 H   0  0  0  0  0  0  0  0  0  0  0  0
   36.1346   21.4712   37.3766 H   0  0  0  0  0  0  0  0  0  0  0  0
   34.7650   20.1208   35.7985 H   0  0  0  0  0  0  0  0  0  0  0  0
   35.2279   20.0588   33.3627 H   0  0  0  0  0  0  0  0  0  0  0  0
   37.1744   21.4320   32.5107 H   0  0  0  0  0  0  0  0  0  0  0  0
  1 10  1  0
  1  5  2  0
  2  3  2  0
  2  1  1  0
  3  4  1  0
  4  5  1  0
  4 13  1  0
  6  7  2  0
  7  8  1  0
  8 12  1  0
  9  8  2  0
 10  9  1  0
 11  6  1  0
 11 10  2  0
 14 15  2  0
 14 13  1  0
 16 15  1  0
 17 16  2  0
 18 17  1  0
 18 19  2  0
 19 14  1  0
  2 20  1  0
  3 21  1  0
  6 22  1  0
  7 23  1  0
 12 24  1  0
 12 25  1  0
 13 26  1  0
 13 27  1  0
 15 28  1  0
 16 29  1  0
 17 30  1  0
 18 31  1  0
M  ISO  8  20  14  21  14  22  14  23  14  26   8  27   8  28  14  29  14
M  ISO  2  30  14  31  14
M  END
>  <minimizedAffinity>  (1) 
-4.31839418

>  <minimizedRMSD>  (1) 
2.56394172

$$$$
