
     RDKit          3D

 33 35  0  0  0  0  0  0  0  0999 V2000
   42.7930   22.1890   35.9040 C   0  0  0  0  0  0  0  0  0  0  0  0
   43.4250   23.4390   35.9360 C   0  0  0  0  0  0  0  0  0  0  0  0
   42.4300   24.3710   35.5530 C   0  0  0  0  0  0  0  0  0  0  0  0
   41.2900   23.6520   35.3190 N   0  0  0  0  0  0  0  0  0  0  0  0
   41.4920   22.3480   35.5230 N   0  0  0  0  0  0  0  0  0  0  0  0
   45.6060   19.8350   36.3270 C   0  0  0  0  0  0  0  0  0  0  0  0
   44.9990   18.7440   36.9220 C   0  0  0  0  0  0  0  0  0  0  0  0
   43.6050   18.8130   37.1830 C   0  0  0  0  0  0  0  0  0  0  0  0
   42.9380   19.9420   36.8370 N   0  0  0  0  0  0  0  0  0  0  0  0
   43.5600   20.9950   36.2550 C   0  0  0  0  0  0  0  0  0  0  0  0
   44.8810   20.9080   36.0180 N   0  0  0  0  0  0  0  0  0  0  0  0
   42.8310   17.7990   37.7810 N   0  0  0  0  0  0  0  0  0  0  0  0
   40.0130   24.2090   34.9080 C   0  0  0  0  0  0  0  0  0  0  0  0
   38.9010   23.4750   35.4810 N   0  0  0  0  0  0  0  0  0  0  0  0
   38.5190   23.7400   36.7350 C   0  0  0  0  0  0  0  0  0  0  0  0
   37.4560   23.0080   37.2210 C   0  0  0  0  0  0  0  0  0  0  0  0
   36.8140   22.0500   36.4620 C   0  0  0  0  0  0  0  0  0  0  0  0
   35.7140   21.2570   36.8930 N   0  0  0  0  0  0  0  0  0  0  0  0
   37.2230   21.8110   35.2110 N   0  0  0  0  0  0  0  0  0  0  0  0
   38.2710   22.5290   34.7240 C   0  0  0  0  0  0  0  0  0  0  0  0
   38.7040   22.3480   33.5500 O   0  0  0  0  0  0  0  0  0  0  0  0
   44.4711   23.6512   36.2019 H   0  0  0  0  0  0  0  0  0  0  0  0
   42.5503   25.4606   35.4615 H   0  0  0  0  0  0  0  0  0  0  0  0
   46.6842   19.8162   36.1098 H   0  0  0  0  0  0  0  0  0  0  0  0
   45.5799   17.8479   37.1857 H   0  0  0  0  0  0  0  0  0  0  0  0
   41.8219   17.9416   37.9300 H   0  0  0  0  0  0  0  0  0  0  0  0
   43.2743   16.9150   38.0692 H   0  0  0  0  0  0  0  0  0  0  0  0
   39.9575   25.2566   35.2387 H   0  0  0  0  0  0  0  0  0  0  0  0
   39.9436   24.1386   33.8124 H   0  0  0  0  0  0  0  0  0  0  0  0
   39.0257   24.5013   37.3463 H   0  0  0  0  0  0  0  0  0  0  0  0
   37.1080   23.1937   38.2478 H   0  0  0  0  0  0  0  0  0  0  0  0
   35.2974   20.5640   36.2549 H   0  0  0  0  0  0  0  0  0  0  0  0
   35.3343   21.3759   37.8431 H   0  0  0  0  0  0  0  0  0  0  0  0
  1  2  1  0
  1 10  1  0
  3  2  2  0
  4  5  1  0
  4  3  1  0
  5  1  2  0
  6  7  2  0
  7  8  1  0
  8 12  1  0
  9  8  2  0
 10  9  1  0
 11 10  2  0
 11  6  1  0
 13  4  1  0
 13 14  1  0
 14 15  1  0
 15 16  2  0
 17 18  1  0
 17 16  1  0
 19 17  2  0
 20 19  1  0
 20 14  1  0
 21 20  2  0
  2 22  1  0
  3 23  1  0
  6 24  1  0
  7 25  1  0
 12 26  1  0
 12 27  1  0
 13 28  1  0
 13 29  1  0
 15 30  1  0
 16 31  1  0
 18 32  1  0
 18 33  1  0
M  ISO  8  22  14  23  14  24  14  25  14  28   8  29   8  30  14  31  14
M  END
>  <minimizedAffinity>  (1) 
-4.31310749

>  <minimizedRMSD>  (1) 
2.97144198

$$$$
