
     RDKit          3D

 34 36  0  0  0  0  0  0  0  0999 V2000
   40.8680   25.1800   34.8600 C   0  0  0  0  0  0  0  0  0  0  0  0
   41.6230   26.2840   34.4360 C   0  0  0  0  0  0  0  0  0  0  0  0
   40.7080   27.2160   33.9280 C   0  0  0  0  0  0  0  0  0  0  0  0
   39.4810   26.6730   34.0550 N   0  0  0  0  0  0  0  0  0  0  0  0
   39.5730   25.4670   34.6070 N   0  0  0  0  0  0  0  0  0  0  0  0
   43.4670   22.6690   35.6350 C   0  0  0  0  0  0  0  0  0  0  0  0
   42.8220   21.8660   36.5820 C   0  0  0  0  0  0  0  0  0  0  0  0
   41.4980   22.2020   36.9410 C   0  0  0  0  0  0  0  0  0  0  0  0
   40.9030   23.2840   36.3590 N   0  0  0  0  0  0  0  0  0  0  0  0
   41.5650   24.0420   35.4400 C   0  0  0  0  0  0  0  0  0  0  0  0
   42.8270   23.7100   35.1060 N   0  0  0  0  0  0  0  0  0  0  0  0
   40.7190   21.4980   37.8730 N   0  0  0  0  0  0  0  0  0  0  0  0
   38.2000   27.2490   33.6630 C   0  0  0  0  0  0  0  0  0  0  0  0
   37.6800   26.5640   32.5280 N   0  0  0  0  0  0  0  0  0  0  0  0
   36.3500   27.0690   32.2460 C   0  0  0  0  0  0  0  0  0  0  0  0
   36.6320   28.3870   31.5730 C   0  0  0  0  0  0  0  0  0  0  0  0
   37.8560   28.1110   30.7550 C   0  0  0  0  0  0  0  0  0  0  0  0
   38.4050   26.8250   31.3320 C   0  0  0  0  0  0  0  0  0  0  0  0
   42.7159   26.3958   34.4913 H   0  0  0  0  0  0  0  0  0  0  0  0
   40.9461   28.2034   33.5057 H   0  0  0  0  0  0  0  0  0  0  0  0
   44.4987   22.4413   35.3287 H   0  0  0  0  0  0  0  0  0  0  0  0
   43.3299   21.0006   37.0326 H   0  0  0  0  0  0  0  0  0  0  0  0
   39.7589   21.8079   38.0804 H   0  0  0  0  0  0  0  0  0  0  0  0
   41.1076   20.6716   38.3494 H   0  0  0  0  0  0  0  0  0  0  0  0
   37.4902   27.1590   34.4985 H   0  0  0  0  0  0  0  0  0  0  0  0
   38.3461   28.3088   33.4071 H   0  0  0  0  0  0  0  0  0  0  0  0
   35.8020   26.3906   31.5756 H   0  0  0  0  0  0  0  0  0  0  0  0
   35.7195   27.1627   33.1425 H   0  0  0  0  0  0  0  0  0  0  0  0
   35.7907   28.6882   30.9315 H   0  0  0  0  0  0  0  0  0  0  0  0
   36.7733   29.2103   32.2886 H   0  0  0  0  0  0  0  0  0  0  0  0
   38.5860   28.9275   30.8573 H   0  0  0  0  0  0  0  0  0  0  0  0
   37.6355   28.0306   29.6803 H   0  0  0  0  0  0  0  0  0  0  0  0
   38.2652   26.0003   30.6177 H   0  0  0  0  0  0  0  0  0  0  0  0
   39.4820   26.9145   31.5369 H   0  0  0  0  0  0  0  0  0  0  0  0
  1 10  1  0
  2  1  1  0
  3  4  1  0
  3  2  2  0
  4  5  1  0
  5  1  2  0
  6  7  2  0
  7  8  1  0
  8 12  1  0
  9  8  2  0
 10  9  1  0
 11 10  2  0
 11  6  1  0
 13  4  1  0
 14 13  1  0
 15 14  1  0
 16 15  1  0
 17 18  1  0
 17 16  1  0
 18 14  1  0
  2 19  1  0
  3 20  1  0
  6 21  1  0
  7 22  1  0
 12 23  1  0
 12 24  1  0
 13 25  1  0
 13 26  1  0
 15 27  1  0
 15 28  1  0
 16 29  1  0
 16 30  1  0
 17 31  1  0
 17 32  1  0
 18 33  1  0
 18 34  1  0
M  ISO  8  19  14  20  14  21  14  22  14  25   8  26   8  27  13  28  13
M  ISO  6  29  13  30  13  31  13  32  13  33  13  34  13
M  END
>  <minimizedAffinity>  (1) 
-4.04353333

>  <minimizedRMSD>  (1) 
5.5790801

$$$$
