
     RDKit          3D

 36 38  0  0  0  0  0  0  0  0999 V2000
   42.5330   21.7540   35.1920 C   0  0  0  0  0  0  0  0  0  0  0  0
   43.0740   22.5110   34.1580 C   0  0  0  0  0  0  0  0  0  0  0  0
   42.0260   23.3850   33.7660 C   0  0  0  0  0  0  0  0  0  0  0  0
   40.9580   23.1240   34.5460 N   0  0  0  0  0  0  0  0  0  0  0  0
   41.2440   22.1500   35.4050 N   0  0  0  0  0  0  0  0  0  0  0  0
   45.4520   19.8140   36.3530 C   0  0  0  0  0  0  0  0  0  0  0  0
   44.8640   18.7760   37.0700 C   0  0  0  0  0  0  0  0  0  0  0  0
   43.4640   18.7510   37.1490 C   0  0  0  0  0  0  0  0  0  0  0  0
   42.7510   19.7310   36.5280 N   0  0  0  0  0  0  0  0  0  0  0  0
   43.3720   20.7360   35.8310 C   0  0  0  0  0  0  0  0  0  0  0  0
   44.7040   20.7560   35.7590 N   0  0  0  0  0  0  0  0  0  0  0  0
   42.7290   17.7740   37.8270 N   0  0  0  0  0  0  0  0  0  0  0  0
   39.6670   23.7940   34.4790 C   0  0  0  0  0  0  0  0  0  0  0  0
   39.6520   24.9850   35.3110 N   0  0  0  0  0  0  0  0  0  0  0  0
   38.3810   25.0420   35.9840 C   0  0  0  0  0  0  0  0  0  0  0  0
   38.1540   26.2980   36.7590 C   0  0  0  0  0  0  0  0  0  0  0  0
   38.7410   27.4720   36.1820 N   0  0  0  0  0  0  0  0  0  0  0  0
   38.9170   27.2810   34.7670 C   0  0  0  0  0  0  0  0  0  0  0  0
   39.8550   26.1350   34.4770 C   0  0  0  0  0  0  0  0  0  0  0  0
   44.0884   22.4468   33.7375 H   0  0  0  0  0  0  0  0  0  0  0  0
   42.0765   24.1405   32.9680 H   0  0  0  0  0  0  0  0  0  0  0  0
   46.5479   19.8627   36.2721 H   0  0  0  0  0  0  0  0  0  0  0  0
   45.4758   18.0026   37.5575 H   0  0  0  0  0  0  0  0  0  0  0  0
   41.7002   17.8213   37.8417 H   0  0  0  0  0  0  0  0  0  0  0  0
   43.2163   17.0069   38.3118 H   0  0  0  0  0  0  0  0  0  0  0  0
   39.4651   24.0814   33.4366 H   0  0  0  0  0  0  0  0  0  0  0  0
   38.8947   23.1019   34.8458 H   0  0  0  0  0  0  0  0  0  0  0  0
   37.5864   24.9547   35.2283 H   0  0  0  0  0  0  0  0  0  0  0  0
   38.3711   24.2163   36.7107 H   0  0  0  0  0  0  0  0  0  0  0  0
   37.0690   26.4607   36.8378 H   0  0  0  0  0  0  0  0  0  0  0  0
   38.6418   26.1539   37.7344 H   0  0  0  0  0  0  0  0  0  0  0  0
   38.1221   28.2792   36.3441 H   0  0  0  0  0  0  0  0  0  0  0  0
   37.9392   27.0671   34.3107 H   0  0  0  0  0  0  0  0  0  0  0  0
   39.3527   28.1991   34.3460 H   0  0  0  0  0  0  0  0  0  0  0  0
   39.7148   25.8307   33.4293 H   0  0  0  0  0  0  0  0  0  0  0  0
   40.8726   26.4991   34.6817 H   0  0  0  0  0  0  0  0  0  0  0  0
  1  5  2  0
  1 10  1  0
  2  1  1  0
  3  2  2  0
  3  4  1  0
  4  5  1  0
  6  7  2  0
  7  8  1  0
  8 12  1  0
  9  8  2  0
 10  9  1  0
 11 10  2  0
 11  6  1  0
 13  4  1  0
 13 14  1  0
 14 15  1  0
 15 16  1  0
 17 16  1  0
 18 17  1  0
 19 18  1  0
 19 14  1  0
  2 20  1  0
  3 21  1  0
  6 22  1  0
  7 23  1  0
 12 24  1  0
 12 25  1  0
 13 26  1  0
 13 27  1  0
 15 28  1  0
 15 29  1  0
 16 30  1  0
 16 31  1  0
 17 32  1  0
 18 33  1  0
 18 34  1  0
 19 35  1  0
 19 36  1  0
M  ISO  8  20  14  21  14  22  14  23  14  26   8  27   8  28  13  29  13
M  ISO  7  30  13  31  13  32   5  33  13  34  13  35  13  36  13
M  END
>  <minimizedAffinity>  (1) 
-3.66206956

>  <minimizedRMSD>  (1) 
3.13731742

$$$$
