
     RDKit          3D

 15 16  0  0  0  0  0  0  0  0999 V2000
   37.9580   24.3500   37.3050 C   0  0  0  0  0  0  0  0  0  0  0  0
   38.5530   24.5640   36.0390 C   0  0  0  0  0  0  0  0  0  0  0  0
   39.7350   23.8830   35.7540 C   0  0  0  0  0  0  0  0  0  0  0  0
   40.2430   23.0560   36.7100 N   0  0  0  0  0  0  0  0  0  0  0  0
   39.6520   22.8740   37.9050 C   0  0  0  0  0  0  0  0  0  0  0  0
   38.5170   23.5170   38.1990 N   0  0  0  0  0  0  0  0  0  0  0  0
   37.9100   25.4710   35.1110 C   0  0  0  0  0  0  0  0  0  0  0  0
   37.5970   25.2930   33.8190 N   0  0  0  0  0  0  0  0  0  0  0  0
   37.0210   26.3810   33.3620 O   0  0  0  0  0  0  0  0  0  0  0  0
   36.9400   27.2900   34.3220 C   0  0  0  0  0  0  0  0  0  0  0  0
   37.4950   26.7210   35.4130 N   0  0  0  0  0  0  0  0  0  0  0  0
   37.0247   24.8730   37.5609 H   0  0  0  0  0  0  0  0  0  0  0  0
   40.2425   24.0094   34.7863 H   0  0  0  0  0  0  0  0  0  0  0  0
   40.1039   22.1942   38.6423 H   0  0  0  0  0  0  0  0  0  0  0  0
   36.5096   28.2994   34.2459 H   0  0  0  0  0  0  0  0  0  0  0  0
  1  6  2  0
  2  1  1  0
  3  2  2  0
  3  4  1  0
  4  5  2  0
  5  6  1  0
  7 11  1  0
  7  2  1  0
  8  7  2  0
  9  8  1  0
  9 10  1  0
 10 11  2  0
  1 12  1  0
  3 13  1  0
  5 14  1  0
 10 15  1  0
M  ISO  4  12  14  13  14  14  14  15  14
M  END
>  <minimizedAffinity>  (1) 
-3.27403569

>  <minimizedRMSD>  (1) 
5.17958736

$$$$
