
     RDKit          3D

 39 42  0  0  0  0  0  0  0  0999 V2000
   42.5530   22.7690   36.5750 C   0  0  0  0  0  0  0  0  0  0  0  0
   39.1510   22.4650   35.5090 C   0  0  0  0  0  0  0  0  0  0  0  0
   39.2700   23.8700   35.4470 C   0  0  0  0  0  0  0  0  0  0  0  0
   40.5990   24.1630   35.8510 C   0  0  0  0  0  0  0  0  0  0  0  0
   41.1830   22.9620   36.1230 N   0  0  0  0  0  0  0  0  0  0  0  0
   40.3320   21.9660   35.9220 N   0  0  0  0  0  0  0  0  0  0  0  0
   36.3770   21.0220   33.5580 C   0  0  0  0  0  0  0  0  0  0  0  0
   35.4440   20.7370   34.5170 C   0  0  0  0  0  0  0  0  0  0  0  0
   35.7610   21.0400   35.8610 C   0  0  0  0  0  0  0  0  0  0  0  0
   36.9720   21.5980   36.1230 N   0  0  0  0  0  0  0  0  0  0  0  0
   37.8720   21.8650   35.1430 C   0  0  0  0  0  0  0  0  0  0  0  0
   37.5460   21.5680   33.8840 N   0  0  0  0  0  0  0  0  0  0  0  0
   34.9240   20.8160   36.9820 N   0  0  0  0  0  0  0  0  0  0  0  0
   43.3070   24.0020   36.2580 C   0  0  0  0  0  0  0  0  0  0  0  0
   44.2800   24.5900   37.0480 C   0  0  0  0  0  0  0  0  0  0  0  0
   44.7370   25.7250   36.3940 C   0  0  0  0  0  0  0  0  0  0  0  0
   44.0130   25.7760   35.2230 C   0  0  0  0  0  0  0  0  0  0  0  0
   43.2000   24.7480   35.2030 O   0  0  0  0  0  0  0  0  0  0  0  0
   43.9900   26.6660   34.1230 N   0  0  0  0  0  0  0  0  0  0  0  0
   42.9220   26.5690   33.3200 C   0  0  0  0  0  0  0  0  0  0  0  0
   42.8210   27.4040   32.2200 C   0  0  0  0  0  0  0  0  0  0  0  0
   43.8280   28.3230   31.9740 C   0  0  0  0  0  0  0  0  0  0  0  0
   43.8220   29.1190   31.0030 O   0  0  0  0  0  0  0  0  0  0  0  0
   44.8710   28.3750   32.8090 N   0  0  0  0  0  0  0  0  0  0  0  0
   44.9690   27.5590   33.8830 C   0  0  0  0  0  0  0  0  0  0  0  0
   45.9600   27.6080   34.6760 O   0  0  0  0  0  0  0  0  0  0  0  0
   42.5680   22.5887   37.6600 H   0  0  0  0  0  0  0  0  0  0  0  0
   43.0058   21.9001   36.0750 H   0  0  0  0  0  0  0  0  0  0  0  0
   38.4935   24.5893   35.1475 H   0  0  0  0  0  0  0  0  0  0  0  0
   41.0631   25.1573   35.9287 H   0  0  0  0  0  0  0  0  0  0  0  0
   36.1581   20.7969   32.5038 H   0  0  0  0  0  0  0  0  0  0  0  0
   34.4768   20.2859   34.2506 H   0  0  0  0  0  0  0  0  0  0  0  0
   35.2475   21.0724   37.9257 H   0  0  0  0  0  0  0  0  0  0  0  0
   33.9920   20.3967   36.8533 H   0  0  0  0  0  0  0  0  0  0  0  0
   44.6297   24.2217   38.0237 H   0  0  0  0  0  0  0  0  0  0  0  0
   45.5089   26.4302   36.7358 H   0  0  0  0  0  0  0  0  0  0  0  0
   42.1327   25.8329   33.5325 H   0  0  0  0  0  0  0  0  0  0  0  0
   41.9515   27.3384   31.5495 H   0  0  0  0  0  0  0  0  0  0  0  0
   45.6219   29.0566   32.6290 H   0  0  0  0  0  0  0  0  0  0  0  0
  2  6  2  0
  3  2  1  0
  3  4  2  0
  4  5  1  0
  5  1  1  0
  6  5  1  0
  7 12  2  0
  7  8  1  0
  8  9  2  0
  9 10  1  0
  9 13  1  0
 11  2  1  0
 11 10  2  0
 12 11  1  0
 14  1  1  0
 14 15  2  0
 16 15  1  0
 17 16  2  0
 18 17  1  0
 18 14  1  0
 19 17  1  0
 20 19  1  0
 21 20  2  0
 22 21  1  0
 22 24  1  0
 23 22  2  0
 24 25  1  0
 25 19  1  0
 25 26  2  0
  1 27  1  0
  1 28  1  0
  3 29  1  0
  4 30  1  0
  7 31  1  0
  8 32  1  0
 13 33  1  0
 13 34  1  0
 15 35  1  0
 16 36  1  0
 20 37  1  0
 21 38  1  0
 24 39  1  0
M  ISO  8  27   8  28   8  29  14  30  14  31  14  32  14  35  14  36  14
M  ISO  3  37  14  38  14  39   9
M  END
>  <minimizedAffinity>  (1) 
-5.34839153

>  <minimizedRMSD>  (1) 
1.66298437

$$$$
