
     RDKit          3D

 40 43  0  0  0  0  0  0  0  0999 V2000
   42.6050   22.6630   36.6020 C   0  0  0  0  0  0  0  0  0  0  0  0
   39.2050   22.4500   35.5050 C   0  0  0  0  0  0  0  0  0  0  0  0
   39.3750   23.8390   35.3870 C   0  0  0  0  0  0  0  0  0  0  0  0
   40.7110   24.0970   35.7950 C   0  0  0  0  0  0  0  0  0  0  0  0
   41.2480   22.8880   36.1260 N   0  0  0  0  0  0  0  0  0  0  0  0
   40.3660   21.9190   35.9560 N   0  0  0  0  0  0  0  0  0  0  0  0
   36.4170   21.0510   33.5490 C   0  0  0  0  0  0  0  0  0  0  0  0
   35.4720   20.7700   34.5080 C   0  0  0  0  0  0  0  0  0  0  0  0
   35.7950   21.0670   35.8570 C   0  0  0  0  0  0  0  0  0  0  0  0
   37.0170   21.6100   36.1290 N   0  0  0  0  0  0  0  0  0  0  0  0
   37.9240   21.8730   35.1550 C   0  0  0  0  0  0  0  0  0  0  0  0
   37.5900   21.5820   33.8820 N   0  0  0  0  0  0  0  0  0  0  0  0
   34.9570   20.8470   36.9510 N   0  0  0  0  0  0  0  0  0  0  0  0
   43.3960   23.8810   36.2880 C   0  0  0  0  0  0  0  0  0  0  0  0
   44.1520   24.5800   37.2270 C   0  0  0  0  0  0  0  0  0  0  0  0
   44.7360   25.6480   36.5480 C   0  0  0  0  0  0  0  0  0  0  0  0
   44.2960   25.5290   35.2310 C   0  0  0  0  0  0  0  0  0  0  0  0
   43.5170   24.4780   35.1430 O   0  0  0  0  0  0  0  0  0  0  0  0
   44.7480   26.5090   34.2990 N   0  0  0  0  0  0  0  0  0  0  0  0
   45.4580   27.6020   34.6390 C   0  0  0  0  0  0  0  0  0  0  0  0
   45.8870   28.5360   33.7320 C   0  0  0  0  0  0  0  0  0  0  0  0
   45.5560   28.3090   32.4120 C   0  0  0  0  0  0  0  0  0  0  0  0
   45.9480   29.2180   31.3650 N   0  0  0  0  0  0  0  0  0  0  0  0
   44.8410   27.2130   32.0570 N   0  0  0  0  0  0  0  0  0  0  0  0
   44.4440   26.3270   32.9800 C   0  0  0  0  0  0  0  0  0  0  0  0
   43.7730   25.3030   32.6210 O   0  0  0  0  0  0  0  0  0  0  0  0
   42.5981   22.4893   37.6882 H   0  0  0  0  0  0  0  0  0  0  0  0
   43.0446   21.7795   36.1160 H   0  0  0  0  0  0  0  0  0  0  0  0
   38.6293   24.5738   35.0492 H   0  0  0  0  0  0  0  0  0  0  0  0
   41.2118   25.0755   35.8358 H   0  0  0  0  0  0  0  0  0  0  0  0
   36.1998   20.8337   32.4928 H   0  0  0  0  0  0  0  0  0  0  0  0
   34.5003   20.3306   34.2385 H   0  0  0  0  0  0  0  0  0  0  0  0
   35.2733   21.0932   37.8998 H   0  0  0  0  0  0  0  0  0  0  0  0
   34.0221   20.4384   36.8097 H   0  0  0  0  0  0  0  0  0  0  0  0
   44.2655   24.3368   38.2938 H   0  0  0  0  0  0  0  0  0  0  0  0
   45.4015   26.4194   36.9627 H   0  0  0  0  0  0  0  0  0  0  0  0
   45.7065   27.7530   35.6999 H   0  0  0  0  0  0  0  0  0  0  0  0
   46.4647   29.4199   34.0403 H   0  0  0  0  0  0  0  0  0  0  0  0
   45.6863   29.0221   30.3882 H   0  0  0  0  0  0  0  0  0  0  0  0
   46.4899   30.0636   31.5933 H   0  0  0  0  0  0  0  0  0  0  0  0
  2  6  2  0
  3  2  1  0
  3  4  2  0
  4  5  1  0
  5  1  1  0
  6  5  1  0
  7 12  2  0
  7  8  1  0
  8  9  2  0
  9 10  1  0
  9 13  1  0
 11  2  1  0
 11 10  2  0
 12 11  1  0
 14  1  1  0
 14 15  2  0
 16 15  1  0
 17 16  2  0
 18 17  1  0
 18 14  1  0
 19 20  1  0
 19 17  1  0
 21 20  2  0
 22 21  1  0
 23 22  1  0
 24 22  2  0
 24 25  1  0
 25 19  1  0
 26 25  2  0
  1 27  1  0
  1 28  1  0
  3 29  1  0
  4 30  1  0
  7 31  1  0
  8 32  1  0
 13 33  1  0
 13 34  1  0
 15 35  1  0
 16 36  1  0
 20 37  1  0
 21 38  1  0
 23 39  1  0
 23 40  1  0
M  ISO  8  27   8  28   8  29  14  30  14  31  14  32  14  35  14  36  14
M  ISO  2  37  14  38  14
M  END
>  <minimizedAffinity>  (1) 
-5.14666605

>  <minimizedRMSD>  (1) 
1.26636815

$$$$
