
     RDKit          3D

 42 45  0  0  0  0  0  0  0  0999 V2000
   42.5440   22.7760   36.6220 C   0  0  0  0  0  0  0  0  0  0  0  0
   39.1420   22.4990   35.5200 C   0  0  0  0  0  0  0  0  0  0  0  0
   39.2810   23.8930   35.4180 C   0  0  0  0  0  0  0  0  0  0  0  0
   40.6100   24.1720   35.8320 C   0  0  0  0  0  0  0  0  0  0  0  0
   41.1850   22.9750   36.1500 N   0  0  0  0  0  0  0  0  0  0  0  0
   40.3210   21.9830   35.9680 N   0  0  0  0  0  0  0  0  0  0  0  0
   36.3840   21.0290   33.5730 C   0  0  0  0  0  0  0  0  0  0  0  0
   35.4500   20.7360   34.5310 C   0  0  0  0  0  0  0  0  0  0  0  0
   35.7650   21.0470   35.8840 C   0  0  0  0  0  0  0  0  0  0  0  0
   36.9710   21.6120   36.1220 N   0  0  0  0  0  0  0  0  0  0  0  0
   37.8730   21.8910   35.1620 C   0  0  0  0  0  0  0  0  0  0  0  0
   37.5450   21.5860   33.9020 N   0  0  0  0  0  0  0  0  0  0  0  0
   34.9280   20.8130   36.9780 N   0  0  0  0  0  0  0  0  0  0  0  0
   43.3110   23.9960   36.2690 C   0  0  0  0  0  0  0  0  0  0  0  0
   44.2530   24.6080   37.0650 C   0  0  0  0  0  0  0  0  0  0  0  0
   44.7490   25.7140   36.3900 C   0  0  0  0  0  0  0  0  0  0  0  0
   44.0710   25.7230   35.1930 C   0  0  0  0  0  0  0  0  0  0  0  0
   43.2540   24.7060   35.1810 O   0  0  0  0  0  0  0  0  0  0  0  0
   44.4620   28.4530   32.0490 C   0  0  0  0  0  0  0  0  0  0  0  0
   45.5360   28.2350   32.8870 C   0  0  0  0  0  0  0  0  0  0  0  0
   45.4130   27.3250   33.9370 C   0  0  0  0  0  0  0  0  0  0  0  0
   44.1980   26.6730   34.0940 C   0  0  0  0  0  0  0  0  0  0  0  0
   43.1440   26.9170   33.2360 C   0  0  0  0  0  0  0  0  0  0  0  0
   43.2440   27.8140   32.1890 C   0  0  0  0  0  0  0  0  0  0  0  0
   44.6880   29.5980   30.7640 S   0  0  0  0  0  0  0  0  0  0  0  0
   44.5150   31.0280   31.2280 O   0  0  0  0  0  0  0  0  0  0  0  0
   46.0340   29.4960   30.1260 O   0  0  0  0  0  0  0  0  0  0  0  0
   42.5473   22.6304   37.7123 H   0  0  0  0  0  0  0  0  0  0  0  0
   42.9924   21.8841   36.1601 H   0  0  0  0  0  0  0  0  0  0  0  0
   38.5207   24.6158   35.0872 H   0  0  0  0  0  0  0  0  0  0  0  0
   41.0854   25.1625   35.8862 H   0  0  0  0  0  0  0  0  0  0  0  0
   36.1706   20.8005   32.5184 H   0  0  0  0  0  0  0  0  0  0  0  0
   34.4876   20.2753   34.2636 H   0  0  0  0  0  0  0  0  0  0  0  0
   35.2363   21.0699   37.9266 H   0  0  0  0  0  0  0  0  0  0  0  0
   34.0026   20.3836   36.8359 H   0  0  0  0  0  0  0  0  0  0  0  0
   44.5606   24.2759   38.0675 H   0  0  0  0  0  0  0  0  0  0  0  0
   45.5139   26.4252   36.7350 H   0  0  0  0  0  0  0  0  0  0  0  0
   46.4815   28.7743   32.7285 H   0  0  0  0  0  0  0  0  0  0  0  0
   46.2533   27.1302   34.6196 H   0  0  0  0  0  0  0  0  0  0  0  0
   42.1958   26.3812   33.3904 H   0  0  0  0  0  0  0  0  0  0  0  0
   42.4032   28.0081   31.5068 H   0  0  0  0  0  0  0  0  0  0  0  0
   43.7189   29.2779   29.8501 H   0  0  0  0  0  0  0  0  0  0  0  0
  2  6  2  0
  3  2  1  0
  3  4  2  0
  4  5  1  0
  5  1  1  0
  6  5  1  0
  7 12  2  0
  7  8  1  0
  8  9  2  0
  9 10  1  0
  9 13  1  0
 11  2  1  0
 11 10  2  0
 12 11  1  0
 14  1  1  0
 14 15  2  0
 16 15  1  0
 17 16  2  0
 18 17  1  0
 18 14  1  0
 19 24  2  0
 19 20  1  0
 20 21  2  0
 21 22  1  0
 22 17  1  0
 23 22  2  0
 24 23  1  0
 25 26  2  0
 25 19  1  0
 27 25  2  0
  1 28  1  0
  1 29  1  0
  3 30  1  0
  4 31  1  0
  7 32  1  0
  8 33  1  0
 13 34  1  0
 13 35  1  0
 15 36  1  0
 16 37  1  0
 20 38  1  0
 21 39  1  0
 23 40  1  0
 24 41  1  0
 25 42  1  0
M  ISO  8  28   8  29   8  30  14  31  14  32  14  33  14  36  14  37  14
M  ISO  5  38  14  39  14  40  14  41  14  42  11
M  END
>  <minimizedAffinity>  (1) 
-5.05083847

>  <minimizedRMSD>  (1) 
2.03152323

$$$$
