
     RDKit          3D

 43 46  0  0  0  0  0  0  0  0999 V2000
   39.1790   22.4700   35.4930 C   0  0  0  0  0  0  0  0  0  0  0  0
   39.3160   23.8540   35.4460 C   0  0  0  0  0  0  0  0  0  0  0  0
   40.6540   24.1250   35.8350 C   0  0  0  0  0  0  0  0  0  0  0  0
   41.2330   22.9100   36.0900 N   0  0  0  0  0  0  0  0  0  0  0  0
   40.3720   21.9330   35.8900 N   0  0  0  0  0  0  0  0  0  0  0  0
   36.3940   21.0300   33.5550 C   0  0  0  0  0  0  0  0  0  0  0  0
   35.4560   20.7460   34.5090 C   0  0  0  0  0  0  0  0  0  0  0  0
   35.7850   21.0540   35.8380 C   0  0  0  0  0  0  0  0  0  0  0  0
   36.9940   21.6060   36.1030 N   0  0  0  0  0  0  0  0  0  0  0  0
   37.9020   21.8770   35.1430 C   0  0  0  0  0  0  0  0  0  0  0  0
   37.5630   21.5740   33.8820 N   0  0  0  0  0  0  0  0  0  0  0  0
   34.9490   20.8320   36.9620 N   0  0  0  0  0  0  0  0  0  0  0  0
   42.6070   22.6910   36.5210 C   0  0  0  0  0  0  0  0  0  0  0  0
   43.3510   23.9490   36.2650 C   0  0  0  0  0  0  0  0  0  0  0  0
   44.2490   24.5250   37.1550 C   0  0  0  0  0  0  0  0  0  0  0  0
   44.7380   25.6750   36.5730 C   0  0  0  0  0  0  0  0  0  0  0  0
   44.1120   25.7460   35.3480 C   0  0  0  0  0  0  0  0  0  0  0  0
   43.3150   24.7150   35.2230 O   0  0  0  0  0  0  0  0  0  0  0  0
   44.3330   26.7950   34.4110 N   0  0  0  0  0  0  0  0  0  0  0  0
   43.3770   27.0400   33.3630 C   0  0  0  0  0  0  0  0  0  0  0  0
   44.0800   26.9090   32.0370 C   0  0  0  0  0  0  0  0  0  0  0  0
   45.5070   26.7070   32.1930 N   0  0  0  0  0  0  0  0  0  0  0  0
   46.0810   27.7160   33.0790 C   0  0  0  0  0  0  0  0  0  0  0  0
   45.5080   27.6420   34.4740 C   0  0  0  0  0  0  0  0  0  0  0  0
   38.5457   24.5873   35.1651 H   0  0  0  0  0  0  0  0  0  0  0  0
   41.1306   25.1131   35.9156 H   0  0  0  0  0  0  0  0  0  0  0  0
   36.1782   20.8049   32.5001 H   0  0  0  0  0  0  0  0  0  0  0  0
   34.4871   20.2963   34.2463 H   0  0  0  0  0  0  0  0  0  0  0  0
   35.2741   21.0902   37.9046 H   0  0  0  0  0  0  0  0  0  0  0  0
   34.0168   20.4126   36.8356 H   0  0  0  0  0  0  0  0  0  0  0  0
   42.6319   22.4497   37.5939 H   0  0  0  0  0  0  0  0  0  0  0  0
   43.0594   21.8507   35.9740 H   0  0  0  0  0  0  0  0  0  0  0  0
   44.5210   24.1336   38.1464 H   0  0  0  0  0  0  0  0  0  0  0  0
   45.4683   26.3814   36.9946 H   0  0  0  0  0  0  0  0  0  0  0  0
   42.5612   26.3047   33.4251 H   0  0  0  0  0  0  0  0  0  0  0  0
   42.9526   28.0495   33.4674 H   0  0  0  0  0  0  0  0  0  0  0  0
   43.9135   27.8276   31.4552 H   0  0  0  0  0  0  0  0  0  0  0  0
   43.6681   26.0291   31.5211 H   0  0  0  0  0  0  0  0  0  0  0  0
   45.6738   25.7726   32.5929 H   0  0  0  0  0  0  0  0  0  0  0  0
   47.1687   27.5616   33.1341 H   0  0  0  0  0  0  0  0  0  0  0  0
   45.8378   28.7061   32.6659 H   0  0  0  0  0  0  0  0  0  0  0  0
   45.2291   28.6480   34.8206 H   0  0  0  0  0  0  0  0  0  0  0  0
   46.2471   27.2324   35.1783 H   0  0  0  0  0  0  0  0  0  0  0  0
  1  5  2  0
  2  1  1  0
  2  3  2  0
  3  4  1  0
  4 13  1  0
  5  4  1  0
  6 11  2  0
  6  7  1  0
  7  8  2  0
  8  9  1  0
  8 12  1  0
 10  1  1  0
 10  9  2  0
 11 10  1  0
 14 13  1  0
 14 15  2  0
 16 15  1  0
 17 16  2  0
 18 17  1  0
 18 14  1  0
 19 24  1  0
 19 17  1  0
 20 19  1  0
 21 22  1  0
 21 20  1  0
 22 23  1  0
 23 24  1  0
  2 25  1  0
  3 26  1  0
  6 27  1  0
  7 28  1  0
 12 29  1  0
 12 30  1  0
 13 31  1  0
 13 32  1  0
 15 33  1  0
 16 34  1  0
 20 35  1  0
 20 36  1  0
 21 37  1  0
 21 38  1  0
 22 39  1  0
 23 40  1  0
 23 41  1  0
 24 42  1  0
 24 43  1  0
M  ISO  8  25  14  26  14  27  14  28  14  31   8  32   8  33  14  34  14
M  ISO  8  35  13  36  13  37  13  38  13  39   5  40  13  41  13  42  13
M  ISO  1  43  13
M  END
>  <minimizedAffinity>  (1) 
-5.02020931

>  <minimizedRMSD>  (1) 
1.31431901

$$$$
