
     RDKit          3D

 37 40  0  0  0  0  0  0  0  0999 V2000
   39.2280   22.4130   35.4700 C   0  0  0  0  0  0  0  0  0  0  0  0
   39.3840   23.8130   35.4240 C   0  0  0  0  0  0  0  0  0  0  0  0
   40.7250   24.0720   35.8130 C   0  0  0  0  0  0  0  0  0  0  0  0
   41.2810   22.8460   36.0640 N   0  0  0  0  0  0  0  0  0  0  0  0
   40.4000   21.8670   35.8630 N   0  0  0  0  0  0  0  0  0  0  0  0
   36.4010   21.0520   33.5330 C   0  0  0  0  0  0  0  0  0  0  0  0
   35.4670   20.7840   34.5070 C   0  0  0  0  0  0  0  0  0  0  0  0
   35.8060   21.0730   35.8530 C   0  0  0  0  0  0  0  0  0  0  0  0
   37.0340   21.5950   36.0820 N   0  0  0  0  0  0  0  0  0  0  0  0
   37.9390   21.8530   35.1160 C   0  0  0  0  0  0  0  0  0  0  0  0
   37.5860   21.5680   33.8590 N   0  0  0  0  0  0  0  0  0  0  0  0
   34.9750   20.8620   36.9570 N   0  0  0  0  0  0  0  0  0  0  0  0
   42.6540   22.5980   36.4990 C   0  0  0  0  0  0  0  0  0  0  0  0
   43.4130   23.8640   36.2820 C   0  0  0  0  0  0  0  0  0  0  0  0
   44.1580   24.5080   37.2460 C   0  0  0  0  0  0  0  0  0  0  0  0
   44.7120   25.6450   36.6680 C   0  0  0  0  0  0  0  0  0  0  0  0
   44.2590   25.6200   35.3670 C   0  0  0  0  0  0  0  0  0  0  0  0
   43.5140   24.5700   35.2000 O   0  0  0  0  0  0  0  0  0  0  0  0
   44.5940   26.6360   34.3760 C   0  0  0  0  0  0  0  0  0  0  0  0
   45.5870   27.5780   34.5600 C   0  0  0  0  0  0  0  0  0  0  0  0
   45.9150   28.5440   33.6320 C   0  0  0  0  0  0  0  0  0  0  0  0
   45.2060   28.5510   32.4760 N   0  0  0  0  0  0  0  0  0  0  0  0
   44.2410   27.6510   32.2740 C   0  0  0  0  0  0  0  0  0  0  0  0
   43.9190   26.6950   33.1950 N   0  0  0  0  0  0  0  0  0  0  0  0
   38.6216   24.5547   35.1436 H   0  0  0  0  0  0  0  0  0  0  0  0
   41.2151   25.0533   35.8955 H   0  0  0  0  0  0  0  0  0  0  0  0
   36.1685   20.8392   32.4791 H   0  0  0  0  0  0  0  0  0  0  0  0
   34.4862   20.3581   34.2491 H   0  0  0  0  0  0  0  0  0  0  0  0
   35.3045   21.1020   37.9029 H   0  0  0  0  0  0  0  0  0  0  0  0
   34.0332   20.4666   36.8246 H   0  0  0  0  0  0  0  0  0  0  0  0
   42.6698   22.3255   37.5646 H   0  0  0  0  0  0  0  0  0  0  0  0
   43.1024   21.7682   35.9330 H   0  0  0  0  0  0  0  0  0  0  0  0
   44.2909   24.1808   38.2878 H   0  0  0  0  0  0  0  0  0  0  0  0
   45.3636   26.3940   37.1417 H   0  0  0  0  0  0  0  0  0  0  0  0
   46.1507   27.5565   35.5043 H   0  0  0  0  0  0  0  0  0  0  0  0
   46.7149   29.2751   33.8208 H   0  0  0  0  0  0  0  0  0  0  0  0
   43.6822   27.6805   31.3270 H   0  0  0  0  0  0  0  0  0  0  0  0
  1  5  2  0
  2  1  1  0
  2  3  2  0
  3  4  1  0
  4 13  1  0
  5  4  1  0
  6 11  2  0
  6  7  1  0
  7  8  2  0
  8  9  1  0
  8 12  1  0
 10  1  1  0
 10  9  2  0
 11 10  1  0
 14 13  1  0
 14 15  2  0
 16 15  1  0
 17 16  2  0
 18 17  1  0
 18 14  1  0
 19 20  2  0
 19 17  1  0
 21 20  1  0
 22 21  2  0
 23 22  1  0
 23 24  2  0
 24 19  1  0
  2 25  1  0
  3 26  1  0
  6 27  1  0
  7 28  1  0
 12 29  1  0
 12 30  1  0
 13 31  1  0
 13 32  1  0
 15 33  1  0
 16 34  1  0
 20 35  1  0
 21 36  1  0
 23 37  1  0
M  ISO  8  25  14  26  14  27  14  28  14  31   8  32   8  33  14  34  14
M  ISO  3  35  14  36  14  37  14
M  END
>  <minimizedAffinity>  (1) 
-4.99680758

>  <minimizedRMSD>  (1) 
1.44436181

$$$$
