
     RDKit          3D

 32 34  0  0  0  0  0  0  0  0999 V2000
   39.1940   22.4290   35.5540 C   0  0  0  0  0  0  0  0  0  0  0  0
   39.3170   23.8280   35.6190 C   0  0  0  0  0  0  0  0  0  0  0  0
   40.6610   24.0790   36.0090 C   0  0  0  0  0  0  0  0  0  0  0  0
   41.2440   22.8600   36.1500 N   0  0  0  0  0  0  0  0  0  0  0  0
   40.3910   21.8730   35.8860 N   0  0  0  0  0  0  0  0  0  0  0  0
   36.4130   21.0610   33.5570 C   0  0  0  0  0  0  0  0  0  0  0  0
   35.4600   20.7730   34.5160 C   0  0  0  0  0  0  0  0  0  0  0  0
   35.7750   21.0520   35.8700 C   0  0  0  0  0  0  0  0  0  0  0  0
   36.9930   21.5830   36.1220 N   0  0  0  0  0  0  0  0  0  0  0  0
   37.9090   21.8570   35.1730 C   0  0  0  0  0  0  0  0  0  0  0  0
   37.5860   21.5830   33.9030 N   0  0  0  0  0  0  0  0  0  0  0  0
   34.9300   20.8240   36.9630 N   0  0  0  0  0  0  0  0  0  0  0  0
   42.6250   22.6120   36.5420 C   0  0  0  0  0  0  0  0  0  0  0  0
   43.3850   23.8620   36.2750 C   0  0  0  0  0  0  0  0  0  0  0  0
   44.1930   24.5220   37.1910 C   0  0  0  0  0  0  0  0  0  0  0  0
   44.7250   25.6360   36.5790 C   0  0  0  0  0  0  0  0  0  0  0  0
   44.2030   25.5980   35.2920 C   0  0  0  0  0  0  0  0  0  0  0  0
   43.4390   24.5590   35.1660 O   0  0  0  0  0  0  0  0  0  0  0  0
   44.5060   26.5990   34.2850 C   0  0  0  0  0  0  0  0  0  0  0  0
   44.7460   26.2900   33.0960 O   0  0  0  0  0  0  0  0  0  0  0  0
   44.5370   27.9590   34.6250 O   0  0  0  0  0  0  0  0  0  0  0  0
   38.5355   24.5737   35.4112 H   0  0  0  0  0  0  0  0  0  0  0  0
   41.1328   25.0604   36.1648 H   0  0  0  0  0  0  0  0  0  0  0  0
   36.1990   20.8564   32.4976 H   0  0  0  0  0  0  0  0  0  0  0  0
   34.4876   20.3408   34.2374 H   0  0  0  0  0  0  0  0  0  0  0  0
   35.2449   21.0587   37.9152 H   0  0  0  0  0  0  0  0  0  0  0  0
   33.9935   20.4216   36.8148 H   0  0  0  0  0  0  0  0  0  0  0  0
   42.6746   22.3612   37.6119 H   0  0  0  0  0  0  0  0  0  0  0  0
   43.0474   21.7680   35.9770 H   0  0  0  0  0  0  0  0  0  0  0  0
   44.3772   24.2087   38.2292 H   0  0  0  0  0  0  0  0  0  0  0  0
   45.4066   26.3838   37.0104 H   0  0  0  0  0  0  0  0  0  0  0  0
   44.7442   28.6373   33.9343 H   0  0  0  0  0  0  0  0  0  0  0  0
  1  2  1  0
  1  5  2  0
  2  3  2  0
  3  4  1  0
  4 13  1  0
  5  4  1  0
  6 11  2  0
  6  7  1  0
  7  8  2  0
  8  9  1  0
  8 12  1  0
 10  1  1  0
 10  9  2  0
 11 10  1  0
 14 13  1  0
 14 15  2  0
 16 15  1  0
 17 16  2  0
 18 17  1  0
 18 14  1  0
 19 21  1  0
 19 17  1  0
 20 19  2  0
  2 22  1  0
  3 23  1  0
  6 24  1  0
  7 25  1  0
 12 26  1  0
 12 27  1  0
 13 28  1  0
 13 29  1  0
 15 30  1  0
 16 31  1  0
 21 32  1  0
M  ISO  8  22  14  23  14  24  14  25  14  28   8  29   8  30  14  31  14
M  ISO  1  32   3
M  END
>  <minimizedAffinity>  (1) 
-4.96796846

>  <minimizedRMSD>  (1) 
0.935771346

$$$$
