
     RDKit          3D

 44 47  0  0  0  0  0  0  0  0999 V2000
   39.1850   22.4420   35.4960 C   0  0  0  0  0  0  0  0  0  0  0  0
   39.3340   23.8370   35.4320 C   0  0  0  0  0  0  0  0  0  0  0  0
   40.6590   24.1110   35.8300 C   0  0  0  0  0  0  0  0  0  0  0  0
   41.2320   22.8970   36.1070 N   0  0  0  0  0  0  0  0  0  0  0  0
   40.3620   21.9100   35.9120 N   0  0  0  0  0  0  0  0  0  0  0  0
   36.3970   21.0390   33.5440 C   0  0  0  0  0  0  0  0  0  0  0  0
   35.4570   20.7560   34.5040 C   0  0  0  0  0  0  0  0  0  0  0  0
   35.7800   21.0520   35.8560 C   0  0  0  0  0  0  0  0  0  0  0  0
   36.9980   21.5930   36.0960 N   0  0  0  0  0  0  0  0  0  0  0  0
   37.9070   21.8620   35.1390 C   0  0  0  0  0  0  0  0  0  0  0  0
   37.5710   21.5710   33.8770 N   0  0  0  0  0  0  0  0  0  0  0  0
   34.9450   20.8330   36.9730 N   0  0  0  0  0  0  0  0  0  0  0  0
   42.6060   22.6600   36.5620 C   0  0  0  0  0  0  0  0  0  0  0  0
   43.3650   23.9050   36.2510 C   0  0  0  0  0  0  0  0  0  0  0  0
   44.2050   24.5550   37.1490 C   0  0  0  0  0  0  0  0  0  0  0  0
   44.7250   25.6710   36.4880 C   0  0  0  0  0  0  0  0  0  0  0  0
   44.1690   25.6270   35.2300 C   0  0  0  0  0  0  0  0  0  0  0  0
   43.3930   24.5880   35.1480 O   0  0  0  0  0  0  0  0  0  0  0  0
   44.4560   26.6090   34.2410 N   0  0  0  0  0  0  0  0  0  0  0  0
   43.8320   26.5350   32.9650 C   0  0  0  0  0  0  0  0  0  0  0  0
   44.3420   27.4350   31.9220 C   0  0  0  0  0  0  0  0  0  0  0  0
   45.7120   27.9830   32.0700 C   0  0  0  0  0  0  0  0  0  0  0  0
   46.4170   27.5460   33.3330 C   0  0  0  0  0  0  0  0  0  0  0  0
   45.3690   27.7170   34.4410 C   0  0  0  0  0  0  0  0  0  0  0  0
   38.5702   24.5693   35.1316 H   0  0  0  0  0  0  0  0  0  0  0  0
   41.1362   25.0994   35.9033 H   0  0  0  0  0  0  0  0  0  0  0  0
   36.1775   20.8237   32.4878 H   0  0  0  0  0  0  0  0  0  0  0  0
   34.4858   20.3147   34.2355 H   0  0  0  0  0  0  0  0  0  0  0  0
   35.2721   21.0824   37.9173 H   0  0  0  0  0  0  0  0  0  0  0  0
   34.0087   20.4238   36.8437 H   0  0  0  0  0  0  0  0  0  0  0  0
   42.6213   22.4638   37.6443 H   0  0  0  0  0  0  0  0  0  0  0  0
   43.0487   21.7845   36.0645 H   0  0  0  0  0  0  0  0  0  0  0  0
   44.4194   24.2486   38.1835 H   0  0  0  0  0  0  0  0  0  0  0  0
   45.4252   26.4203   36.8860 H   0  0  0  0  0  0  0  0  0  0  0  0
   43.9458   25.5040   32.5989 H   0  0  0  0  0  0  0  0  0  0  0  0
   42.7930   26.8535   33.1353 H   0  0  0  0  0  0  0  0  0  0  0  0
   43.6537   28.2913   31.8666 H   0  0  0  0  0  0  0  0  0  0  0  0
   44.4000   26.8021   31.0242 H   0  0  0  0  0  0  0  0  0  0  0  0
   46.3110   27.6536   31.2082 H   0  0  0  0  0  0  0  0  0  0  0  0
   45.6124   29.0771   32.1241 H   0  0  0  0  0  0  0  0  0  0  0  0
   46.7338   26.4954   33.2571 H   0  0  0  0  0  0  0  0  0  0  0  0
   47.3275   28.1321   33.5263 H   0  0  0  0  0  0  0  0  0  0  0  0
   44.8446   28.6783   34.3369 H   0  0  0  0  0  0  0  0  0  0  0  0
   45.8153   27.7190   35.4464 H   0  0  0  0  0  0  0  0  0  0  0  0
  1  5  2  0
  2  1  1  0
  2  3  2  0
  3  4  1  0
  4 13  1  0
  5  4  1  0
  6 11  2  0
  6  7  1  0
  7  8  2  0
  8  9  1  0
  8 12  1  0
 10  1  1  0
 10  9  2  0
 11 10  1  0
 14 13  1  0
 14 15  2  0
 16 15  1  0
 17 16  2  0
 18 17  1  0
 18 14  1  0
 19 24  1  0
 19 17  1  0
 20 19  1  0
 21 22  1  0
 21 20  1  0
 22 23  1  0
 23 24  1  0
  2 25  1  0
  3 26  1  0
  6 27  1  0
  7 28  1  0
 12 29  1  0
 12 30  1  0
 13 31  1  0
 13 32  1  0
 15 33  1  0
 16 34  1  0
 20 35  1  0
 20 36  1  0
 21 37  1  0
 21 38  1  0
 22 39  1  0
 22 40  1  0
 23 41  1  0
 23 42  1  0
 24 43  1  0
 24 44  1  0
M  ISO  8  25  14  26  14  27  14  28  14  31   8  32   8  33  14  34  14
M  ISO  8  35  13  36  13  37  13  38  13  39  13  40  13  41  13  42  13
M  ISO  2  43  13  44  13
M  END
>  <minimizedAffinity>  (1) 
-4.93679047

>  <minimizedRMSD>  (1) 
1.1632688

$$$$
