
     RDKit          3D

 42 45  0  0  0  0  0  0  0  0999 V2000
   39.1800   22.5000   35.4980 C   0  0  0  0  0  0  0  0  0  0  0  0
   39.3590   23.8740   35.3330 C   0  0  0  0  0  0  0  0  0  0  0  0
   40.6820   24.1620   35.7610 C   0  0  0  0  0  0  0  0  0  0  0  0
   41.2110   22.9660   36.1530 N   0  0  0  0  0  0  0  0  0  0  0  0
   40.3340   21.9930   35.9990 N   0  0  0  0  0  0  0  0  0  0  0  0
   36.4150   21.0450   33.5510 C   0  0  0  0  0  0  0  0  0  0  0  0
   35.4750   20.7570   34.5260 C   0  0  0  0  0  0  0  0  0  0  0  0
   35.7930   21.0650   35.8640 C   0  0  0  0  0  0  0  0  0  0  0  0
   37.0080   21.6280   36.1150 N   0  0  0  0  0  0  0  0  0  0  0  0
   37.9060   21.8980   35.1400 C   0  0  0  0  0  0  0  0  0  0  0  0
   37.5780   21.5950   33.8850 N   0  0  0  0  0  0  0  0  0  0  0  0
   34.9570   20.8380   36.9590 N   0  0  0  0  0  0  0  0  0  0  0  0
   42.5580   22.7690   36.6720 C   0  0  0  0  0  0  0  0  0  0  0  0
   43.3630   23.9500   36.2870 C   0  0  0  0  0  0  0  0  0  0  0  0
   44.1450   24.6820   37.1480 C   0  0  0  0  0  0  0  0  0  0  0  0
   44.7410   25.7040   36.4210 C   0  0  0  0  0  0  0  0  0  0  0  0
   44.2770   25.5370   35.1160 C   0  0  0  0  0  0  0  0  0  0  0  0
   43.4880   24.5060   35.1230 O   0  0  0  0  0  0  0  0  0  0  0  0
   44.5560   26.3170   33.8820 C   0  0  0  0  0  0  0  0  0  0  0  0
   45.3510   27.5770   34.1990 C   0  0  0  0  0  0  0  0  0  0  0  0
   45.3320   28.2350   32.8130 C   0  0  0  0  0  0  0  0  0  0  0  0
   43.9520   27.9080   32.2620 C   0  0  0  0  0  0  0  0  0  0  0  0
   43.3410   26.8940   33.2330 C   0  0  0  0  0  0  0  0  0  0  0  0
   38.6207   24.5925   34.9474 H   0  0  0  0  0  0  0  0  0  0  0  0
   41.1774   25.1441   35.7740 H   0  0  0  0  0  0  0  0  0  0  0  0
   36.1986   20.8179   32.4967 H   0  0  0  0  0  0  0  0  0  0  0  0
   34.5087   20.3013   34.2640 H   0  0  0  0  0  0  0  0  0  0  0  0
   35.2687   21.0940   37.9067 H   0  0  0  0  0  0  0  0  0  0  0  0
   34.0285   20.4146   36.8190 H   0  0  0  0  0  0  0  0  0  0  0  0
   42.5280   22.6765   37.7677 H   0  0  0  0  0  0  0  0  0  0  0  0
   42.9999   21.8495   36.2607 H   0  0  0  0  0  0  0  0  0  0  0  0
   44.2758   24.4918   38.2235 H   0  0  0  0  0  0  0  0  0  0  0  0
   45.4293   26.4771   36.7932 H   0  0  0  0  0  0  0  0  0  0  0  0
   45.0660   25.5841   33.2395 H   0  0  0  0  0  0  0  0  0  0  0  0
   44.8517   28.1989   34.9566 H   0  0  0  0  0  0  0  0  0  0  0  0
   46.3504   27.4081   34.6264 H   0  0  0  0  0  0  0  0  0  0  0  0
   45.4709   29.3230   32.8960 H   0  0  0  0  0  0  0  0  0  0  0  0
   46.1416   27.8711   32.1633 H   0  0  0  0  0  0  0  0  0  0  0  0
   43.3328   28.8161   32.2176 H   0  0  0  0  0  0  0  0  0  0  0  0
   44.0107   27.5039   31.2406 H   0  0  0  0  0  0  0  0  0  0  0  0
   42.6903   27.3877   33.9698 H   0  0  0  0  0  0  0  0  0  0  0  0
   42.6989   26.1447   32.7469 H   0  0  0  0  0  0  0  0  0  0  0  0
  1  5  2  0
  2  1  1  0
  2  3  2  0
  3  4  1  0
  4 13  1  0
  5  4  1  0
  6 11  2  0
  6  7  1  0
  7  8  2  0
  8  9  1  0
  8 12  1  0
 10  1  1  0
 10  9  2  0
 11 10  1  0
 14 13  1  0
 14 15  2  0
 16 15  1  0
 17 18  1  0
 17 16  2  0
 18 14  1  0
 19 20  1  0
 19 17  1  0
 21 20  1  0
 22 21  1  0
 22 23  1  0
 23 19  1  0
  2 24  1  0
  3 25  1  0
  6 26  1  0
  7 27  1  0
 12 28  1  0
 12 29  1  0
 13 30  1  0
 13 31  1  0
 15 32  1  0
 16 33  1  0
 19 34  1  0
 20 35  1  0
 20 36  1  0
 21 37  1  0
 21 38  1  0
 22 39  1  0
 22 40  1  0
 23 41  1  0
 23 42  1  0
M  ISO  8  24  14  25  14  26  14  27  14  30   8  31   8  32  14  33  14
M  ISO  8  34  13  35  13  36  13  37  13  38  13  39  13  40  13  41  13
M  ISO  1  42  13
M  END
>  <minimizedAffinity>  (1) 
-4.91197872

>  <minimizedRMSD>  (1) 
1.40305841

$$$$
