
     RDKit          3D

 36 39  0  0  0  0  0  0  0  0999 V2000
   39.1730   22.4940   35.5120 C   0  0  0  0  0  0  0  0  0  0  0  0
   39.3470   23.8680   35.3390 C   0  0  0  0  0  0  0  0  0  0  0  0
   40.6640   24.1660   35.7740 C   0  0  0  0  0  0  0  0  0  0  0  0
   41.1940   22.9830   36.1770 N   0  0  0  0  0  0  0  0  0  0  0  0
   40.3260   21.9850   36.0280 N   0  0  0  0  0  0  0  0  0  0  0  0
   36.4080   21.0420   33.5590 C   0  0  0  0  0  0  0  0  0  0  0  0
   35.4670   20.7510   34.5250 C   0  0  0  0  0  0  0  0  0  0  0  0
   35.7860   21.0580   35.8590 C   0  0  0  0  0  0  0  0  0  0  0  0
   36.9960   21.6180   36.1130 N   0  0  0  0  0  0  0  0  0  0  0  0
   37.8990   21.8910   35.1450 C   0  0  0  0  0  0  0  0  0  0  0  0
   37.5750   21.5940   33.8910 N   0  0  0  0  0  0  0  0  0  0  0  0
   34.9450   20.8270   36.9640 N   0  0  0  0  0  0  0  0  0  0  0  0
   42.5410   22.7880   36.7090 C   0  0  0  0  0  0  0  0  0  0  0  0
   43.3540   23.9550   36.2690 C   0  0  0  0  0  0  0  0  0  0  0  0
   44.1850   24.6850   37.1020 C   0  0  0  0  0  0  0  0  0  0  0  0
   44.7630   25.6760   36.3430 C   0  0  0  0  0  0  0  0  0  0  0  0
   44.2570   25.5100   35.0730 C   0  0  0  0  0  0  0  0  0  0  0  0
   43.4370   24.4860   35.0910 O   0  0  0  0  0  0  0  0  0  0  0  0
   44.3990   26.1450   33.8100 N   0  0  0  0  0  0  0  0  0  0  0  0
   45.2800   25.9730   32.7970 C   0  0  0  0  0  0  0  0  0  0  0  0
   44.9310   26.8810   31.8040 C   0  0  0  0  0  0  0  0  0  0  0  0
   43.8690   27.5640   32.2400 N   0  0  0  0  0  0  0  0  0  0  0  0
   43.5270   27.1250   33.4740 C   0  0  0  0  0  0  0  0  0  0  0  0
   38.6080   24.5801   34.9431 H   0  0  0  0  0  0  0  0  0  0  0  0
   41.1539   25.1509   35.7829 H   0  0  0  0  0  0  0  0  0  0  0  0
   36.1931   20.8162   32.5041 H   0  0  0  0  0  0  0  0  0  0  0  0
   34.5015   20.2950   34.2606 H   0  0  0  0  0  0  0  0  0  0  0  0
   35.2576   21.0828   37.9115 H   0  0  0  0  0  0  0  0  0  0  0  0
   34.0170   20.4022   36.8250 H   0  0  0  0  0  0  0  0  0  0  0  0
   42.5105   22.7411   37.8076 H   0  0  0  0  0  0  0  0  0  0  0  0
   42.9755   21.8458   36.3437 H   0  0  0  0  0  0  0  0  0  0  0  0
   44.3523   24.5054   38.1743 H   0  0  0  0  0  0  0  0  0  0  0  0
   45.4788   26.4403   36.6797 H   0  0  0  0  0  0  0  0  0  0  0  0
   46.1116   25.2536   32.7656 H   0  0  0  0  0  0  0  0  0  0  0  0
   45.4368   27.0130   30.8362 H   0  0  0  0  0  0  0  0  0  0  0  0
   42.6945   27.4958   34.0900 H   0  0  0  0  0  0  0  0  0  0  0  0
  1  5  2  0
  2  1  1  0
  2  3  2  0
  3  4  1  0
  4 13  1  0
  5  4  1  0
  6 11  2  0
  6  7  1  0
  7  8  2  0
  8  9  1  0
  8 12  1  0
 10  1  1  0
 10  9  2  0
 11 10  1  0
 14 13  1  0
 14 15  2  0
 16 15  1  0
 17 18  1  0
 17 16  2  0
 18 14  1  0
 19 17  1  0
 20 19  1  0
 21 22  1  0
 21 20  2  0
 22 23  2  0
 23 19  1  0
  2 24  1  0
  3 25  1  0
  6 26  1  0
  7 27  1  0
 12 28  1  0
 12 29  1  0
 13 30  1  0
 13 31  1  0
 15 32  1  0
 16 33  1  0
 20 34  1  0
 21 35  1  0
 23 36  1  0
M  ISO  8  24  14  25  14  26  14  27  14  30   8  31   8  32  14  33  14
M  ISO  3  34  14  35  14  36  14
M  END
>  <minimizedAffinity>  (1) 
-4.79387903

>  <minimizedRMSD>  (1) 
0.852600634

$$$$
