
     RDKit          3D

 36 39  0  0  0  0  0  0  0  0999 V2000
   39.1250   22.5360   35.4990 C   0  0  0  0  0  0  0  0  0  0  0  0
   39.2560   23.9260   35.3310 C   0  0  0  0  0  0  0  0  0  0  0  0
   40.5650   24.2560   35.7510 C   0  0  0  0  0  0  0  0  0  0  0  0
   41.1400   23.0680   36.1410 N   0  0  0  0  0  0  0  0  0  0  0  0
   40.2900   22.0550   35.9920 N   0  0  0  0  0  0  0  0  0  0  0  0
   36.3860   21.0130   33.5580 C   0  0  0  0  0  0  0  0  0  0  0  0
   35.4520   20.7170   34.5360 C   0  0  0  0  0  0  0  0  0  0  0  0
   35.7620   21.0410   35.8650 C   0  0  0  0  0  0  0  0  0  0  0  0
   36.9610   21.6270   36.1200 N   0  0  0  0  0  0  0  0  0  0  0  0
   37.8630   21.9090   35.1430 C   0  0  0  0  0  0  0  0  0  0  0  0
   37.5430   21.5890   33.8840 N   0  0  0  0  0  0  0  0  0  0  0  0
   34.9290   20.8080   36.9650 N   0  0  0  0  0  0  0  0  0  0  0  0
   42.5060   22.8940   36.6590 C   0  0  0  0  0  0  0  0  0  0  0  0
   43.3190   23.9940   36.0670 C   0  0  0  0  0  0  0  0  0  0  0  0
   44.1310   24.8470   36.7850 C   0  0  0  0  0  0  0  0  0  0  0  0
   44.7250   25.7340   35.9170 C   0  0  0  0  0  0  0  0  0  0  0  0
   44.2250   25.3620   34.6660 C   0  0  0  0  0  0  0  0  0  0  0  0
   43.4200   24.3540   34.8220 O   0  0  0  0  0  0  0  0  0  0  0  0
   44.4550   25.8990   33.3140 C   0  0  0  0  0  0  0  0  0  0  0  0
   45.5340   26.7340   33.0690 C   0  0  0  0  0  0  0  0  0  0  0  0
   45.4890   27.0660   31.7470 N   0  0  0  0  0  0  0  0  0  0  0  0
   44.4300   26.4610   31.2170 C   0  0  0  0  0  0  0  0  0  0  0  0
   43.7810   25.7430   32.1480 N   0  0  0  0  0  0  0  0  0  0  0  0
   38.4919   24.6188   34.9488 H   0  0  0  0  0  0  0  0  0  0  0  0
   41.0274   25.2540   35.7635 H   0  0  0  0  0  0  0  0  0  0  0  0
   36.1722   20.7716   32.5063 H   0  0  0  0  0  0  0  0  0  0  0  0
   34.4942   20.2414   34.2782 H   0  0  0  0  0  0  0  0  0  0  0  0
   35.2363   21.0784   37.9102 H   0  0  0  0  0  0  0  0  0  0  0  0
   34.0085   20.3661   36.8295 H   0  0  0  0  0  0  0  0  0  0  0  0
   42.5095   22.9656   37.7567 H   0  0  0  0  0  0  0  0  0  0  0  0
   42.9128   21.9073   36.3928 H   0  0  0  0  0  0  0  0  0  0  0  0
   44.2796   24.8222   37.8746 H   0  0  0  0  0  0  0  0  0  0  0  0
   45.4288   26.5459   36.1525 H   0  0  0  0  0  0  0  0  0  0  0  0
   46.2842   27.0659   33.8018 H   0  0  0  0  0  0  0  0  0  0  0  0
   44.1275   26.5380   30.1622 H   0  0  0  0  0  0  0  0  0  0  0  0
   42.9309   25.1797   32.0034 H   0  0  0  0  0  0  0  0  0  0  0  0
  1  5  2  0
  2  1  1  0
  2  3  2  0
  3  4  1  0
  4 13  1  0
  5  4  1  0
  6 11  2  0
  6  7  1  0
  7  8  2  0
  8  9  1  0
  8 12  1  0
 10  1  1  0
 10  9  2  0
 11 10  1  0
 14 13  1  0
 14 15  2  0
 16 15  1  0
 17 18  1  0
 17 16  2  0
 18 14  1  0
 19 17  1  0
 20 19  2  0
 21 20  1  0
 22 21  2  0
 22 23  1  0
 23 19  1  0
  2 24  1  0
  3 25  1  0
  6 26  1  0
  7 27  1  0
 12 28  1  0
 12 29  1  0
 13 30  1  0
 13 31  1  0
 15 32  1  0
 16 33  1  0
 20 34  1  0
 22 35  1  0
 23 36  1  0
M  ISO  8  24  14  25  14  26  14  27  14  30   8  31   8  32  14  33  14
M  ISO  3  34  14  35  14  36   9
M  END
>  <minimizedAffinity>  (1) 
-4.61144543

>  <minimizedRMSD>  (1) 
0.468412638

$$$$
