
     RDKit          3D

 41 43  0  0  0  0  0  0  0  0999 V2000
   39.1150   22.5560   35.4820 C   0  0  0  0  0  0  0  0  0  0  0  0
   39.2620   23.9280   35.2700 C   0  0  0  0  0  0  0  0  0  0  0  0
   40.5730   24.2560   35.6910 C   0  0  0  0  0  0  0  0  0  0  0  0
   41.1320   23.0850   36.1250 N   0  0  0  0  0  0  0  0  0  0  0  0
   40.2760   22.0750   36.0040 N   0  0  0  0  0  0  0  0  0  0  0  0
   36.3890   21.0010   33.5590 C   0  0  0  0  0  0  0  0  0  0  0  0
   35.4570   20.7030   34.5200 C   0  0  0  0  0  0  0  0  0  0  0  0
   35.7650   21.0380   35.8500 C   0  0  0  0  0  0  0  0  0  0  0  0
   36.9610   21.6350   36.1060 N   0  0  0  0  0  0  0  0  0  0  0  0
   37.8580   21.9170   35.1400 C   0  0  0  0  0  0  0  0  0  0  0  0
   37.5420   21.5870   33.8720 N   0  0  0  0  0  0  0  0  0  0  0  0
   34.9340   20.8100   36.9730 N   0  0  0  0  0  0  0  0  0  0  0  0
   42.4800   22.9250   36.6550 C   0  0  0  0  0  0  0  0  0  0  0  0
   43.3180   23.9830   36.0400 C   0  0  0  0  0  0  0  0  0  0  0  0
   44.0990   24.8720   36.7520 C   0  0  0  0  0  0  0  0  0  0  0  0
   44.7310   25.7020   35.8520 C   0  0  0  0  0  0  0  0  0  0  0  0
   44.3020   25.2780   34.6150 C   0  0  0  0  0  0  0  0  0  0  0  0
   43.4780   24.2700   34.7870 O   0  0  0  0  0  0  0  0  0  0  0  0
   44.6960   25.8510   33.3010 C   0  0  0  0  0  0  0  0  0  0  0  0
   46.0770   25.4030   32.8630 C   0  0  0  0  0  0  0  0  0  0  0  0
   44.7260   27.3820   33.3710 C   0  0  0  0  0  0  0  0  0  0  0  0
   43.7230   25.5230   32.1930 C   0  0  0  0  0  0  0  0  0  0  0  0
   38.5095   24.6165   34.8581 H   0  0  0  0  0  0  0  0  0  0  0  0
   41.0457   25.2491   35.6729 H   0  0  0  0  0  0  0  0  0  0  0  0
   36.1792   20.7506   32.5086 H   0  0  0  0  0  0  0  0  0  0  0  0
   34.5038   20.2197   34.2597 H   0  0  0  0  0  0  0  0  0  0  0  0
   35.2487   21.0921   37.9123 H   0  0  0  0  0  0  0  0  0  0  0  0
   34.0146   20.3620   36.8509 H   0  0  0  0  0  0  0  0  0  0  0  0
   42.4714   23.0387   37.7491 H   0  0  0  0  0  0  0  0  0  0  0  0
   42.8767   21.9259   36.4218 H   0  0  0  0  0  0  0  0  0  0  0  0
   44.1991   24.9107   37.8468 H   0  0  0  0  0  0  0  0  0  0  0  0
   45.4269   26.5245   36.0739 H   0  0  0  0  0  0  0  0  0  0  0  0
   46.6958   25.2023   33.7500 H   0  0  0  0  0  0  0  0  0  0  0  0
   45.9913   24.4866   32.2607 H   0  0  0  0  0  0  0  0  0  0  0  0
   46.5456   26.1952   32.2607 H   0  0  0  0  0  0  0  0  0  0  0  0
   44.7322   27.7009   34.4238 H   0  0  0  0  0  0  0  0  0  0  0  0
   45.6316   27.7543   32.8697 H   0  0  0  0  0  0  0  0  0  0  0  0
   43.8357   27.7895   32.8697 H   0  0  0  0  0  0  0  0  0  0  0  0
   42.7660   25.2004   32.6290 H   0  0  0  0  0  0  0  0  0  0  0  0
   43.5603   26.4160   31.5716 H   0  0  0  0  0  0  0  0  0  0  0  0
   44.1341   24.7138   31.5716 H   0  0  0  0  0  0  0  0  0  0  0  0
  1  5  2  0
  2  1  1  0
  2  3  2  0
  3  4  1  0
  4 13  1  0
  5  4  1  0
  6 11  2  0
  6  7  1  0
  7  8  2  0
  8  9  1  0
  8 12  1  0
 10  1  1  0
 10  9  2  0
 11 10  1  0
 14 13  1  0
 14 15  2  0
 16 15  1  0
 17 18  1  0
 17 16  2  0
 18 14  1  0
 19 21  1  0
 19 17  1  0
 20 19  1  0
 22 19  1  0
  2 23  1  0
  3 24  1  0
  6 25  1  0
  7 26  1  0
 12 27  1  0
 12 28  1  0
 13 29  1  0
 13 30  1  0
 15 31  1  0
 16 32  1  0
 20 33  1  0
 20 34  1  0
 20 35  1  0
 21 36  1  0
 21 37  1  0
 21 38  1  0
 22 39  1  0
 22 40  1  0
 22 41  1  0
M  ISO  8  23  14  24  14  25  14  26  14  29   8  30   8  31  14  32  14
M  ISO  8  33   8  34   8  35   8  36   8  37   8  38   8  39   8  40   8
M  ISO  1  41   8
M  END
>  <minimizedAffinity>  (1) 
-4.5858345

>  <minimizedRMSD>  (1) 
0.276540279

$$$$
