
     RDKit          3D

 18 19  0  0  0  0  0  0  0  0999 V2000
   39.2040   22.9590   35.3820 C   0  0  0  0  0  0  0  0  0  0  0  0
   39.2960   24.3340   35.6350 C   0  0  0  0  0  0  0  0  0  0  0  0
   38.3610   24.8980   36.4990 C   0  0  0  0  0  0  0  0  0  0  0  0
   37.4040   24.0890   37.0550 N   0  0  0  0  0  0  0  0  0  0  0  0
   37.3580   22.7710   36.7790 C   0  0  0  0  0  0  0  0  0  0  0  0
   38.2590   22.1970   35.9420 N   0  0  0  0  0  0  0  0  0  0  0  0
   40.2980   25.2090   35.0580 C   0  0  0  0  0  0  0  0  0  0  0  0
   39.9950   26.4250   34.4840 C   0  0  0  0  0  0  0  0  0  0  0  0
   40.9300   27.2770   33.9270 C   0  0  0  0  0  0  0  0  0  0  0  0
   42.2320   26.9000   33.9450 N   0  0  0  0  0  0  0  0  0  0  0  0
   42.5380   25.6960   34.5130 C   0  0  0  0  0  0  0  0  0  0  0  0
   41.6060   24.8890   35.0460 N   0  0  0  0  0  0  0  0  0  0  0  0
   39.9316   22.4922   34.7018 H   0  0  0  0  0  0  0  0  0  0  0  0
   38.3897   25.9728   36.7312 H   0  0  0  0  0  0  0  0  0  0  0  0
   36.5764   22.1493   37.2402 H   0  0  0  0  0  0  0  0  0  0  0  0
   38.9405   26.7377   34.4682 H   0  0  0  0  0  0  0  0  0  0  0  0
   40.6257   28.2354   33.4810 H   0  0  0  0  0  0  0  0  0  0  0  0
   43.5897   25.3745   34.5348 H   0  0  0  0  0  0  0  0  0  0  0  0
  1  2  2  0
  1  6  1  0
  2  3  1  0
  3  4  2  0
  5  4  1  0
  6  5  2  0
  7  2  1  0
  8  7  2  0
  9 10  2  0
  9  8  1  0
 10 11  1  0
 11 12  2  0
 12  7  1  0
  1 13  1  0
  3 14  1  0
  5 15  1  0
  8 16  1  0
  9 17  1  0
 11 18  1  0
M  ISO  6  13  14  14  14  15  14  16  14  17  14  18  14
M  END
>  <minimizedAffinity>  (1) 
-3.13390207

>  <minimizedRMSD>  (1) 
5.18987656

$$$$
