
     RDKit          3D

 31 33  0  0  0  0  0  0  0  0999 V2000
   39.1060   22.5770   35.4740 C   0  0  0  0  0  0  0  0  0  0  0  0
   39.2290   23.9620   35.2240 C   0  0  0  0  0  0  0  0  0  0  0  0
   40.5360   24.3080   35.6590 C   0  0  0  0  0  0  0  0  0  0  0  0
   41.1020   23.1630   36.1270 N   0  0  0  0  0  0  0  0  0  0  0  0
   40.2580   22.1400   36.0180 N   0  0  0  0  0  0  0  0  0  0  0  0
   36.3950   20.9840   33.5470 C   0  0  0  0  0  0  0  0  0  0  0  0
   35.4600   20.6850   34.5250 C   0  0  0  0  0  0  0  0  0  0  0  0
   35.7670   21.0360   35.8670 C   0  0  0  0  0  0  0  0  0  0  0  0
   36.9610   21.6450   36.1000 N   0  0  0  0  0  0  0  0  0  0  0  0
   37.8500   21.9220   35.1270 C   0  0  0  0  0  0  0  0  0  0  0  0
   37.5430   21.5820   33.8630 N   0  0  0  0  0  0  0  0  0  0  0  0
   34.9380   20.8080   36.9670 N   0  0  0  0  0  0  0  0  0  0  0  0
   42.4410   23.0470   36.6740 C   0  0  0  0  0  0  0  0  0  0  0  0
   43.3020   24.0170   35.9630 C   0  0  0  0  0  0  0  0  0  0  0  0
   44.0380   25.0170   36.5580 C   0  0  0  0  0  0  0  0  0  0  0  0
   44.7140   25.7200   35.5650 C   0  0  0  0  0  0  0  0  0  0  0  0
   44.3410   25.0890   34.3880 C   0  0  0  0  0  0  0  0  0  0  0  0
   43.5210   24.1090   34.6890 O   0  0  0  0  0  0  0  0  0  0  0  0
   44.7770   25.4470   33.0830 N   0  0  0  0  0  0  0  0  0  0  0  0
   38.4732   24.6303   34.7856 H   0  0  0  0  0  0  0  0  0  0  0  0
   40.9992   25.3051   35.6243 H   0  0  0  0  0  0  0  0  0  0  0  0
   36.1872   20.7249   32.4983 H   0  0  0  0  0  0  0  0  0  0  0  0
   34.5104   20.1916   34.2704 H   0  0  0  0  0  0  0  0  0  0  0  0
   35.2407   21.0959   37.9085 H   0  0  0  0  0  0  0  0  0  0  0  0
   34.0237   20.3519   36.8371 H   0  0  0  0  0  0  0  0  0  0  0  0
   42.4275   23.2761   37.7498 H   0  0  0  0  0  0  0  0  0  0  0  0
   42.8235   22.0239   36.5436 H   0  0  0  0  0  0  0  0  0  0  0  0
   44.0840   25.2254   37.6371 H   0  0  0  0  0  0  0  0  0  0  0  0
   45.3896   26.5796   35.6862 H   0  0  0  0  0  0  0  0  0  0  0  0
   45.4251   26.2373   32.9553 H   0  0  0  0  0  0  0  0  0  0  0  0
   44.4448   24.9161   32.2653 H   0  0  0  0  0  0  0  0  0  0  0  0
  1  5  2  0
  2  1  1  0
  2  3  2  0
  3  4  1  0
  4 13  1  0
  5  4  1  0
  6 11  2  0
  6  7  1  0
  7  8  2  0
  8  9  1  0
  8 12  1  0
 10  1  1  0
 10  9  2  0
 11 10  1  0
 14 15  2  0
 14 13  1  0
 16 15  1  0
 17 18  1  0
 17 16  2  0
 18 14  1  0
 19 17  1  0
  2 20  1  0
  3 21  1  0
  6 22  1  0
  7 23  1  0
 12 24  1  0
 12 25  1  0
 13 26  1  0
 13 27  1  0
 15 28  1  0
 16 29  1  0
 19 30  1  0
 19 31  1  0
M  ISO  8  20  14  21  14  22  14  23  14  26   8  27   8  28  14  29  14
M  END
>  <minimizedAffinity>  (1) 
-4.48502636

>  <minimizedRMSD>  (1) 
0.0121678626

$$$$
