
     RDKit          3D

 36 39  0  0  1  0  0  0  0  0999 V2000
   38.4450   23.7170   36.0590 N   0  0  0  0  0  0  0  0  0  0  0  0
   37.5700   24.4050   37.0240 C   0  0  0  0  0  0  0  0  0  0  0  0
   37.9900   23.7710   38.3420 C   0  0  0  0  0  0  0  0  0  0  0  0
   39.2660   22.9910   38.0270 C   0  0  0  0  0  0  0  0  0  0  0  0
   39.6760   23.7110   36.7880 C   0  0  1  0  0  0  0  0  0  0  0  0
   40.8860   23.3370   36.1230 C   0  0  0  0  0  0  0  0  0  0  0  0
   41.5030   23.9780   35.0330 C   0  0  0  0  0  0  0  0  0  0  0  0
   42.6190   23.3540   34.6200 N   0  0  0  0  0  0  0  0  0  0  0  0
   42.8060   22.2880   35.3930 C   0  0  0  0  0  0  0  0  0  0  0  0
   43.7840   21.3150   35.4150 C   0  0  0  0  0  0  0  0  0  0  0  0
   43.7600   20.2880   36.3490 C   0  0  0  0  0  0  0  0  0  0  0  0
   42.7220   20.2570   37.2690 C   0  0  0  0  0  0  0  0  0  0  0  0
   41.7720   21.2420   37.2100 C   0  0  0  0  0  0  0  0  0  0  0  0
   41.7700   22.2740   36.2940 C   0  0  0  0  0  0  0  0  0  0  0  0
   38.0960   23.2270   34.7810 C   0  0  0  0  0  0  0  0  0  0  0  0
   38.0820   24.0520   33.6340 C   0  0  0  0  0  0  0  0  0  0  0  0
   37.7160   23.4930   32.4120 C   0  0  0  0  0  0  0  0  0  0  0  0
   37.3890   22.1660   32.3960 N   0  0  0  0  0  0  0  0  0  0  0  0
   37.4140   21.4060   33.5170 C   0  0  0  0  0  0  0  0  0  0  0  0
   37.7660   21.9280   34.7110 N   0  0  0  0  0  0  0  0  0  0  0  0
   37.7529   25.4897   37.0263 H   0  0  0  0  0  0  0  0  0  0  0  0
   36.4976   24.2990   36.8034 H   0  0  0  0  0  0  0  0  0  0  0  0
   38.1890   24.5465   39.0963 H   0  0  0  0  0  0  0  0  0  0  0  0
   37.2035   23.1210   38.7530 H   0  0  0  0  0  0  0  0  0  0  0  0
   40.0156   23.0852   38.8265 H   0  0  0  0  0  0  0  0  0  0  0  0
   39.1434   21.9027   37.9244 H   0  0  0  0  0  0  0  0  0  0  0  0
   40.0704   24.7192   36.9830 H   0  0  0  0  0  0  0  0  0  0  0  0
   41.1123   24.8948   34.5673 H   0  0  0  0  0  0  0  0  0  0  0  0
   43.2241   23.6497   33.8407 H   0  0  0  0  0  0  0  0  0  0  0  0
   44.5993   21.3537   34.6776 H   0  0  0  0  0  0  0  0  0  0  0  0
   44.5450   19.5175   36.3593 H   0  0  0  0  0  0  0  0  0  0  0  0
   42.6634   19.4616   38.0266 H   0  0  0  0  0  0  0  0  0  0  0  0
   40.9535   21.2080   37.9441 H   0  0  0  0  0  0  0  0  0  0  0  0
   38.3549   25.1153   33.7048 H   0  0  0  0  0  0  0  0  0  0  0  0
   37.6910   24.0974   31.4933 H   0  0  0  0  0  0  0  0  0  0  0  0
   37.1420   20.3421   33.4530 H   0  0  0  0  0  0  0  0  0  0  0  0
  1  5  1  0
  1  2  1  0
  2  3  1  0
  4  3  1  0
  5  4  1  0
  6 14  1  0
  6  5  1  0
  7  6  2  0
  8  7  1  0
  8  9  1  0
  9 10  2  0
  9 14  1  0
 10 11  1  0
 11 12  2  0
 13 12  1  0
 14 13  2  0
 15  1  1  0
 16 15  2  0
 17 16  1  0
 18 17  2  0
 18 19  1  0
 19 20  2  0
 20 15  1  0
  2 21  1  0
  2 22  1  0
  3 23  1  0
  3 24  1  0
  4 25  1  0
  4 26  1  0
  5 27  1  1
  7 28  1  0
  8 29  1  0
 10 30  1  0
 11 31  1  0
 12 32  1  0
 13 33  1  0
 16 34  1  0
 17 35  1  0
 19 36  1  0
M  ISO  8  21  13  22  13  23  13  24  13  25  13  26  13  27  13  28  14
M  ISO  8  29   9  30  14  31  14  32  14  33  14  34  14  35  14  36  14
M  END
>  <minimizedAffinity>  (1) 
-4.74243164

>  <minimizedRMSD>  (1) 
3.05734468

$$$$
