
     RDKit          3D

 16 17  0  0  0  0  0  0  0  0999 V2000
   37.9800   24.7450   33.7430 C   0  0  0  0  0  0  0  0  0  0  0  0
   37.9260   25.2320   35.0530 C   0  0  0  0  0  0  0  0  0  0  0  0
   37.4070   26.5070   35.2270 C   0  0  0  0  0  0  0  0  0  0  0  0
   36.9830   27.2160   34.1490 N   0  0  0  0  0  0  0  0  0  0  0  0
   37.0570   26.7000   32.8940 C   0  0  0  0  0  0  0  0  0  0  0  0
   37.5530   25.4730   32.7070 N   0  0  0  0  0  0  0  0  0  0  0  0
   38.4020   24.4070   36.1540 C   0  0  0  0  0  0  0  0  0  0  0  0
   37.8430   24.5820   37.4650 C   0  0  0  0  0  0  0  0  0  0  0  0
   38.7140   23.3670   38.5150 S   0  0  0  0  0  0  0  0  0  0  0  0
   39.7080   22.8090   36.9940 C   0  0  0  0  0  0  0  0  0  0  0  0
   39.3220   23.4600   36.1580 N   0  0  0  0  0  0  0  0  0  0  0  0
   38.3838   23.7381   33.5611 H   0  0  0  0  0  0  0  0  0  0  0  0
   37.3392   26.9422   36.2350 H   0  0  0  0  0  0  0  0  0  0  0  0
   36.7094   27.2909   32.0338 H   0  0  0  0  0  0  0  0  0  0  0  0
   37.0609   25.2926   37.7705 H   0  0  0  0  0  0  0  0  0  0  0  0
   40.4824   22.0296   36.9413 H   0  0  0  0  0  0  0  0  0  0  0  0
  1  2  2  0
  2  3  1  0
  2  7  1  0
  4  3  2  0
  5  4  1  0
  6  5  2  0
  6  1  1  0
  7 11  1  0
  7  8  2  0
  8  9  1  0
 10  9  1  0
 11 10  2  0
  1 12  1  0
  3 13  1  0
  5 14  1  0
  8 15  1  0
 10 16  1  0
M  ISO  5  12  14  13  14  14  14  15  14  16  14
M  END
>  <minimizedAffinity>  (1) 
-3.07685852

>  <minimizedRMSD>  (1) 
4.45571232

$$$$
