
     RDKit          3D

 29 31  0  0  1  0  0  0  0  0999 V2000
   38.4830   23.8440   36.2220 N   0  0  0  0  0  0  0  0  0  0  0  0
   37.6760   24.7720   37.0250 C   0  0  0  0  0  0  0  0  0  0  0  0
   37.8970   24.2110   38.4420 C   0  0  0  0  0  0  0  0  0  0  0  0
   39.0340   23.2040   38.3130 C   0  0  0  0  0  0  0  0  0  0  0  0
   39.6690   23.7160   37.0300 C   0  0  1  0  0  0  0  0  0  0  0  0
   38.1380   23.2530   34.9740 C   0  0  0  0  0  0  0  0  0  0  0  0
   37.6460   21.9540   34.8550 C   0  0  0  0  0  0  0  0  0  0  0  0
   37.3380   21.4680   33.5830 C   0  0  0  0  0  0  0  0  0  0  0  0
   37.5400   22.3070   32.5180 N   0  0  0  0  0  0  0  0  0  0  0  0
   38.0180   23.5600   32.6660 C   0  0  0  0  0  0  0  0  0  0  0  0
   38.3190   24.0400   33.8810 N   0  0  0  0  0  0  0  0  0  0  0  0
   40.6450   22.8100   36.5050 N   0  0  0  0  0  0  0  0  0  0  0  0
   41.3750   22.7550   35.3700 C   0  0  0  0  0  0  0  0  0  0  0  0
   42.1640   21.6430   35.4000 C   0  0  0  0  0  0  0  0  0  0  0  0
   41.9060   21.0260   36.5640 N   0  0  0  0  0  0  0  0  0  0  0  0
   40.9790   21.7360   37.2410 C   0  0  0  0  0  0  0  0  0  0  0  0
   38.0440   25.8050   36.9384 H   0  0  0  0  0  0  0  0  0  0  0  0
   36.6201   24.8306   36.7221 H   0  0  0  0  0  0  0  0  0  0  0  0
   38.1762   25.0183   39.1351 H   0  0  0  0  0  0  0  0  0  0  0  0
   36.9843   23.7446   38.8414 H   0  0  0  0  0  0  0  0  0  0  0  0
   39.7281   23.2558   39.1648 H   0  0  0  0  0  0  0  0  0  0  0  0
   38.7278   22.1476   38.2977 H   0  0  0  0  0  0  0  0  0  0  0  0
   40.2565   24.6418   37.1180 H   0  0  0  0  0  0  0  0  0  0  0  0
   37.5033   21.3245   35.7457 H   0  0  0  0  0  0  0  0  0  0  0  0
   36.9477   20.4495   33.4407 H   0  0  0  0  0  0  0  0  0  0  0  0
   38.1624   24.1950   31.7795 H   0  0  0  0  0  0  0  0  0  0  0  0
   41.3389   23.4897   34.5521 H   0  0  0  0  0  0  0  0  0  0  0  0
   42.8718   21.3163   34.6239 H   0  0  0  0  0  0  0  0  0  0  0  0
   40.5667   21.4792   38.2279 H   0  0  0  0  0  0  0  0  0  0  0  0
  1  2  1  0
  1  5  1  0
  2  3  1  0
  4  3  1  0
  5  4  1  0
  6  1  1  0
  7  6  2  0
  8  7  1  0
  9 10  1  0
  9  8  2  0
 10 11  2  0
 11  6  1  0
 12  5  1  0
 12 16  1  0
 13 14  2  0
 13 12  1  0
 14 15  1  0
 15 16  2  0
  2 17  1  0
  2 18  1  0
  3 19  1  0
  3 20  1  0
  4 21  1  0
  4 22  1  0
  5 23  1  1
  7 24  1  0
  8 25  1  0
 10 26  1  0
 13 27  1  0
 14 28  1  0
 16 29  1  0
M  ISO  8  17  13  18  13  19  13  20  13  21  13  22  13  23  13  24  14
M  ISO  5  25  14  26  14  27  14  28  14  29  14
M  END
>  <minimizedAffinity>  (1) 
-3.80327582

>  <minimizedRMSD>  (1) 
1.24004233

$$$$
