
     RDKit          3D

 29 31  0  0  1  0  0  0  0  0999 V2000
   38.5120   23.6370   36.2310 N   0  0  0  0  0  0  0  0  0  0  0  0
   37.7750   24.0840   37.3970 C   0  0  0  0  0  0  0  0  0  0  0  0
   38.5360   23.3890   38.5330 C   0  0  0  0  0  0  0  0  0  0  0  0
   39.7920   22.8180   37.8990 C   0  0  0  0  0  0  0  0  0  0  0  0
   39.8970   23.7230   36.6740 C   0  0  1  0  0  0  0  0  0  0  0  0
   38.0110   23.2140   34.9620 C   0  0  0  0  0  0  0  0  0  0  0  0
   37.5710   21.8900   34.7410 C   0  0  0  0  0  0  0  0  0  0  0  0
   37.0960   21.5510   33.4730 C   0  0  0  0  0  0  0  0  0  0  0  0
   37.0880   22.5380   32.5170 N   0  0  0  0  0  0  0  0  0  0  0  0
   37.5150   23.7820   32.7710 C   0  0  0  0  0  0  0  0  0  0  0  0
   37.9760   24.1300   33.9850 N   0  0  0  0  0  0  0  0  0  0  0  0
   40.8520   23.0810   35.7370 C   0  0  0  0  0  0  0  0  0  0  0  0
   41.5950   23.7420   34.7560 C   0  0  0  0  0  0  0  0  0  0  0  0
   42.3710   22.8550   34.0740 C   0  0  0  0  0  0  0  0  0  0  0  0
   42.1110   21.6480   34.6300 N   0  0  0  0  0  0  0  0  0  0  0  0
   41.2210   21.7810   35.6050 N   0  0  0  0  0  0  0  0  0  0  0  0
   37.8132   25.1785   37.4999 H   0  0  0  0  0  0  0  0  0  0  0  0
   36.7022   23.8428   37.3660 H   0  0  0  0  0  0  0  0  0  0  0  0
   38.7983   24.1135   39.3180 H   0  0  0  0  0  0  0  0  0  0  0  0
   37.9284   22.6041   39.0072 H   0  0  0  0  0  0  0  0  0  0  0  0
   40.6661   22.9194   38.5590 H   0  0  0  0  0  0  0  0  0  0  0  0
   39.7552   21.7405   37.6805 H   0  0  0  0  0  0  0  0  0  0  0  0
   40.2550   24.7554   36.8007 H   0  0  0  0  0  0  0  0  0  0  0  0
   37.6020   21.1440   35.5488 H   0  0  0  0  0  0  0  0  0  0  0  0
   36.7421   20.5341   33.2480 H   0  0  0  0  0  0  0  0  0  0  0  0
   37.4879   24.5347   31.9693 H   0  0  0  0  0  0  0  0  0  0  0  0
   41.5584   24.8242   34.5622 H   0  0  0  0  0  0  0  0  0  0  0  0
   43.0625   23.0728   33.2467 H   0  0  0  0  0  0  0  0  0  0  0  0
   42.5406   20.7582   34.3391 H   0  0  0  0  0  0  0  0  0  0  0  0
  1  5  1  0
  1  2  1  0
  2  3  1  0
  4  3  1  0
  5  4  1  0
  6  1  1  0
  7  6  2  0
  8  7  1  0
  9 10  1  0
  9  8  2  0
 10 11  2  0
 11  6  1  0
 12  5  1  0
 13 12  1  0
 14 15  1  0
 14 13  2  0
 15 16  1  0
 16 12  2  0
  2 17  1  0
  2 18  1  0
  3 19  1  0
  3 20  1  0
  4 21  1  0
  4 22  1  0
  5 23  1  1
  7 24  1  0
  8 25  1  0
 10 26  1  0
 13 27  1  0
 14 28  1  0
 15 29  1  0
M  ISO  8  17  13  18  13  19  13  20  13  21  13  22  13  23  13  24  14
M  ISO  5  25  14  26  14  27  14  28  14  29   9
M  END
>  <minimizedAffinity>  (1) 
-3.65766311

>  <minimizedRMSD>  (1) 
0.815012157

$$$$
