
     RDKit          3D

 23 24  0  0  1  0  0  0  0  0999 V2000
   38.6520   22.5840   36.0560 N   0  0  0  0  0  0  0  0  0  0  0  0
   38.5930   23.5680   37.1260 C   0  0  0  0  0  0  0  0  0  0  0  0
   39.7020   23.0780   38.0480 C   0  0  0  0  0  0  0  0  0  0  0  0
   40.4910   22.0490   37.2470 C   0  0  0  0  0  0  0  0  0  0  0  0
   40.0910   22.4350   35.8380 C   0  0  2  0  0  0  0  0  0  0  0  0
   37.5780   21.9190   35.3770 C   0  0  0  0  0  0  0  0  0  0  0  0
   36.5020   21.3510   36.0770 C   0  0  0  0  0  0  0  0  0  0  0  0
   35.4970   20.7210   35.3420 C   0  0  0  0  0  0  0  0  0  0  0  0
   35.6240   20.6970   33.9780 N   0  0  0  0  0  0  0  0  0  0  0  0
   36.6730   21.2560   33.3480 C   0  0  0  0  0  0  0  0  0  0  0  0
   37.6440   21.8630   34.0410 N   0  0  0  0  0  0  0  0  0  0  0  0
   40.8640   23.9830   35.3580 S   0  0  0  0  0  0  0  0  0  0  0  0
   38.7995   24.5817   36.7520 H   0  0  0  0  0  0  0  0  0  0  0  0
   37.6084   23.6468   37.6101 H   0  0  0  0  0  0  0  0  0  0  0  0
   40.3529   23.9149   38.3411 H   0  0  0  0  0  0  0  0  0  0  0  0
   39.2943   22.6425   38.9722 H   0  0  0  0  0  0  0  0  0  0  0  0
   41.5744   22.1542   37.4054 H   0  0  0  0  0  0  0  0  0  0  0  0
   40.2836   21.0020   37.5131 H   0  0  0  0  0  0  0  0  0  0  0  0
   40.3758   21.7361   35.0378 H   0  0  0  0  0  0  0  0  0  0  0  0
   36.4524   21.4011   37.1747 H   0  0  0  0  0  0  0  0  0  0  0  0
   34.6321   20.2593   35.8408 H   0  0  0  0  0  0  0  0  0  0  0  0
   36.7335   21.2137   32.2505 H   0  0  0  0  0  0  0  0  0  0  0  0
   41.2148   24.6856   36.4806 H   0  0  0  0  0  0  0  0  0  0  0  0
  1  2  1  0
  2  3  1  0
  4  3  1  0
  5  1  1  0
  5  4  1  0
  6  1  1  0
  6  7  2  0
  8  7  1  0
  9  8  2  0
 10  9  1  0
 10 11  2  0
 11  6  1  0
 12  5  1  0
  2 13  1  0
  2 14  1  0
  3 15  1  0
  3 16  1  0
  4 17  1  0
  4 18  1  0
  5 19  1  6
  7 20  1  0
  8 21  1  0
 10 22  1  0
 12 23  1  0
M  ISO  8  13  13  14  13  15  13  16  13  17  13  18  13  19  13  20  14
M  ISO  3  21  14  22  14  23  11
M  END
>  <minimizedAffinity>  (1) 
-3.57608819

>  <minimizedRMSD>  (1) 
1.28937328

$$$$
