
     RDKit          3D

 25 26  0  0  1  0  0  0  0  0999 V2000
   38.6300   23.4970   36.0680 N   0  0  0  0  0  0  0  0  0  0  0  0
   37.9940   24.1090   37.2380 C   0  0  0  0  0  0  0  0  0  0  0  0
   38.7320   23.4000   38.3850 C   0  0  0  0  0  0  0  0  0  0  0  0
   39.9130   22.6910   37.7280 C   0  0  0  0  0  0  0  0  0  0  0  0
   40.0200   23.4820   36.4440 C   0  0  1  0  0  0  0  0  0  0  0  0
   37.9950   23.0420   34.8710 C   0  0  0  0  0  0  0  0  0  0  0  0
   37.4310   21.7610   34.7610 C   0  0  0  0  0  0  0  0  0  0  0  0
   36.8330   21.4010   33.5570 C   0  0  0  0  0  0  0  0  0  0  0  0
   36.8310   22.3280   32.5440 N   0  0  0  0  0  0  0  0  0  0  0  0
   37.3810   23.5410   32.6860 C   0  0  0  0  0  0  0  0  0  0  0  0
   37.9680   23.9230   33.8390 N   0  0  0  0  0  0  0  0  0  0  0  0
   40.9060   22.8630   35.4150 C   0  0  0  0  0  0  0  0  0  0  0  0
   38.1590   25.1962   37.2638 H   0  0  0  0  0  0  0  0  0  0  0  0
   36.9002   23.9964   37.2675 H   0  0  0  0  0  0  0  0  0  0  0  0
   39.0859   24.1320   39.1259 H   0  0  0  0  0  0  0  0  0  0  0  0
   38.0776   22.6960   38.9199 H   0  0  0  0  0  0  0  0  0  0  0  0
   40.8267   22.7739   38.3348 H   0  0  0  0  0  0  0  0  0  0  0  0
   39.7829   21.6072   37.5925 H   0  0  0  0  0  0  0  0  0  0  0  0
   40.4912   24.4701   36.5520 H   0  0  0  0  0  0  0  0  0  0  0  0
   37.4611   21.0583   35.6067 H   0  0  0  0  0  0  0  0  0  0  0  0
   36.3779   20.4087   33.4216 H   0  0  0  0  0  0  0  0  0  0  0  0
   37.3533   24.2440   31.8404 H   0  0  0  0  0  0  0  0  0  0  0  0
   41.7099   22.3014   35.9133 H   0  0  0  0  0  0  0  0  0  0  0  0
   40.3162   22.1794   34.7866 H   0  0  0  0  0  0  0  0  0  0  0  0
   41.3450   23.6519   34.7866 H   0  0  0  0  0  0  0  0  0  0  0  0
  1  5  1  0
  1  2  1  0
  2  3  1  0
  4  3  1  0
  5  4  1  0
  6  1  1  0
  7  6  2  0
  8  7  1  0
  9 10  1  0
  9  8  2  0
 10 11  2  0
 11  6  1  0
 12  5  1  0
  2 13  1  0
  2 14  1  0
  3 15  1  0
  3 16  1  0
  4 17  1  0
  4 18  1  0
  5 19  1  1
  7 20  1  0
  8 21  1  0
 10 22  1  0
 12 23  1  0
 12 24  1  0
 12 25  1  0
M  ISO  8  13  13  14  13  15  13  16  13  17  13  18  13  19  13  20  14
M  ISO  5  21  14  22  14  23   8  24   8  25   8
M  END
>  <minimizedAffinity>  (1) 
-3.42455363

>  <minimizedRMSD>  (1) 
0.531254351

$$$$
