
     RDKit          3D

 39 42  0  0  1  0  0  0  0  0999 V2000
   38.5970   23.6490   36.1040 N   0  0  0  0  0  0  0  0  0  0  0  0
   37.8460   24.1090   37.2620 C   0  0  0  0  0  0  0  0  0  0  0  0
   38.5650   23.3540   38.4000 C   0  0  0  0  0  0  0  0  0  0  0  0
   39.8230   22.7760   37.7630 C   0  0  0  0  0  0  0  0  0  0  0  0
   39.9520   23.7030   36.5680 C   0  0  1  0  0  0  0  0  0  0  0  0
   38.0710   23.2490   34.8240 C   0  0  0  0  0  0  0  0  0  0  0  0
   37.6760   21.9400   34.5500 C   0  0  0  0  0  0  0  0  0  0  0  0
   37.1800   21.6330   33.2900 C   0  0  0  0  0  0  0  0  0  0  0  0
   37.1070   22.6640   32.3810 N   0  0  0  0  0  0  0  0  0  0  0  0
   37.4930   23.9030   32.6760 C   0  0  0  0  0  0  0  0  0  0  0  0
   37.9810   24.2300   33.8910 N   0  0  0  0  0  0  0  0  0  0  0  0
   40.9510   23.2240   35.5570 C   0  0  0  0  0  0  0  0  0  0  0  0
   42.2420   23.8610   35.7240 N   0  0  0  0  0  0  0  0  0  0  0  0
   43.2890   23.4240   36.4590 C   0  0  0  0  0  0  0  0  0  0  0  0
   44.3380   24.2780   36.3830 N   0  0  0  0  0  0  0  0  0  0  0  0
   43.9740   25.3100   35.5740 C   0  0  0  0  0  0  0  0  0  0  0  0
   44.6470   26.4300   35.1670 C   0  0  0  0  0  0  0  0  0  0  0  0
   45.8240   26.6670   35.5350 O   0  0  0  0  0  0  0  0  0  0  0  0
   44.0390   27.3080   34.3480 N   0  0  0  0  0  0  0  0  0  0  0  0
   42.7800   27.0100   33.9830 C   0  0  0  0  0  0  0  0  0  0  0  0
   42.0160   27.8620   33.1120 N   0  0  0  0  0  0  0  0  0  0  0  0
   42.0870   25.9070   34.3710 N   0  0  0  0  0  0  0  0  0  0  0  0
   42.6830   25.0160   35.1940 C   0  0  0  0  0  0  0  0  0  0  0  0
   37.9251   25.1989   37.3876 H   0  0  0  0  0  0  0  0  0  0  0  0
   36.7641   23.9186   37.2050 H   0  0  0  0  0  0  0  0  0  0  0  0
   38.8276   24.0442   39.2153 H   0  0  0  0  0  0  0  0  0  0  0  0
   37.9297   22.5711   38.8398 H   0  0  0  0  0  0  0  0  0  0  0  0
   40.6921   22.8484   38.4334 H   0  0  0  0  0  0  0  0  0  0  0  0
   39.7727   21.7045   37.5193 H   0  0  0  0  0  0  0  0  0  0  0  0
   40.3318   24.7118   36.7874 H   0  0  0  0  0  0  0  0  0  0  0  0
   37.7563   21.1607   35.3221 H   0  0  0  0  0  0  0  0  0  0  0  0
   36.8602   20.6131   33.0303 H   0  0  0  0  0  0  0  0  0  0  0  0
   37.4118   24.6844   31.9060 H   0  0  0  0  0  0  0  0  0  0  0  0
   40.5719   23.4490   34.5492 H   0  0  0  0  0  0  0  0  0  0  0  0
   41.0857   22.1416   35.6995 H   0  0  0  0  0  0  0  0  0  0  0  0
   43.2892   22.4929   37.0447 H   0  0  0  0  0  0  0  0  0  0  0  0
   44.5124   28.1615   34.0189 H   0  0  0  0  0  0  0  0  0  0  0  0
   41.0535   27.6030   32.8526 H   0  0  0  0  0  0  0  0  0  0  0  0
   42.4314   28.7312   32.7476 H   0  0  0  0  0  0  0  0  0  0  0  0
  1  5  1  0
  1  2  1  0
  2  3  1  0
  4  3  1  0
  5  4  1  0
  6  1  1  0
  7  6  2  0
  8  7  1  0
  9 10  1  0
  9  8  2  0
 10 11  2  0
 11  6  1  0
 12 13  1  0
 12  5  1  0
 13 14  1  0
 15 14  2  0
 16 15  1  0
 17 18  2  0
 17 16  1  0
 19 17  1  0
 20 19  1  0
 20 22  2  0
 21 20  1  0
 22 23  1  0
 23 16  2  0
 23 13  1  0
  2 24  1  0
  2 25  1  0
  3 26  1  0
  3 27  1  0
  4 28  1  0
  4 29  1  0
  5 30  1  1
  7 31  1  0
  8 32  1  0
 10 33  1  0
 12 34  1  0
 12 35  1  0
 14 36  1  0
 19 37  1  0
 21 38  1  0
 21 39  1  0
M  ISO  8  24  13  25  13  26  13  27  13  28  13  29  13  30  13  31  14
M  ISO  6  32  14  33  14  34   8  35   8  36  14  37   9
M  END
>  <minimizedAffinity>  (1) 
-5.42938471

>  <minimizedRMSD>  (1) 
1.78465402

$$$$
