
     RDKit          3D

 38 40  0  0  1  0  0  0  0  0999 V2000
   38.4550   23.6140   36.1080 N   0  0  0  0  0  0  0  0  0  0  0  0
   37.7110   24.3580   37.1300 C   0  0  0  0  0  0  0  0  0  0  0  0
   38.2600   23.7130   38.4130 C   0  0  0  0  0  0  0  0  0  0  0  0
   39.4660   22.8790   37.9590 C   0  0  0  0  0  0  0  0  0  0  0  0
   39.7760   23.5670   36.6610 C   0  0  1  0  0  0  0  0  0  0  0  0
   37.9370   23.0850   34.8760 C   0  0  0  0  0  0  0  0  0  0  0  0
   37.4070   21.8010   34.7730 C   0  0  0  0  0  0  0  0  0  0  0  0
   36.9280   21.3720   33.5400 C   0  0  0  0  0  0  0  0  0  0  0  0
   37.0080   22.2530   32.4820 N   0  0  0  0  0  0  0  0  0  0  0  0
   37.5220   23.4740   32.6240 C   0  0  0  0  0  0  0  0  0  0  0  0
   37.9960   23.9250   33.8000 N   0  0  0  0  0  0  0  0  0  0  0  0
   40.7360   22.8010   35.7930 C   0  0  0  0  0  0  0  0  0  0  0  0
   44.3420   24.9940   35.7700 C   0  0  0  0  0  0  0  0  0  0  0  0
   44.3260   23.8350   36.5410 C   0  0  0  0  0  0  0  0  0  0  0  0
   43.1400   23.1250   36.5420 C   0  0  0  0  0  0  0  0  0  0  0  0
   42.0340   23.5270   35.8270 C   0  0  0  0  0  0  0  0  0  0  0  0
   42.1100   24.6840   35.0800 C   0  0  0  0  0  0  0  0  0  0  0  0
   43.2520   25.4540   35.0230 C   0  0  0  0  0  0  0  0  0  0  0  0
   45.8050   25.9840   35.6950 S   0  0  0  0  0  0  0  0  0  0  0  0
   45.4890   27.3390   35.1290 O   0  0  0  0  0  0  0  0  0  0  0  0
   46.4110   26.1090   37.0700 O   0  0  0  0  0  0  0  0  0  0  0  0
   37.9347   25.4343   37.0903 H   0  0  0  0  0  0  0  0  0  0  0  0
   36.6172   24.3051   37.0258 H   0  0  0  0  0  0  0  0  0  0  0  0
   38.5734   24.4862   39.1299 H   0  0  0  0  0  0  0  0  0  0  0  0
   37.5025   23.0982   38.9211 H   0  0  0  0  0  0  0  0  0  0  0  0
   40.3029   22.9489   38.6695 H   0  0  0  0  0  0  0  0  0  0  0  0
   39.2816   21.7974   37.8807 H   0  0  0  0  0  0  0  0  0  0  0  0
   40.2846   24.5370   36.7633 H   0  0  0  0  0  0  0  0  0  0  0  0
   37.3681   21.1388   35.6505 H   0  0  0  0  0  0  0  0  0  0  0  0
   36.5007   20.3663   33.4131 H   0  0  0  0  0  0  0  0  0  0  0  0
   37.5603   24.1378   31.7477 H   0  0  0  0  0  0  0  0  0  0  0  0
   40.3569   22.7546   34.7614 H   0  0  0  0  0  0  0  0  0  0  0  0
   40.8552   21.7700   36.1576 H   0  0  0  0  0  0  0  0  0  0  0  0
   45.2042   23.5042   37.1148 H   0  0  0  0  0  0  0  0  0  0  0  0
   43.0772   22.2023   37.1376 H   0  0  0  0  0  0  0  0  0  0  0  0
   41.2264   25.0042   34.5084 H   0  0  0  0  0  0  0  0  0  0  0  0
   43.3033   26.3760   34.4253 H   0  0  0  0  0  0  0  0  0  0  0  0
   46.7140   25.3764   34.8695 H   0  0  0  0  0  0  0  0  0  0  0  0
  1  5  1  0
  1  2  1  0
  2  3  1  0
  4  3  1  0
  5  4  1  0
  6  1  1  0
  7  6  2  0
  8  7  1  0
  9 10  1  0
  9  8  2  0
 10 11  2  0
 11  6  1  0
 12 16  1  0
 12  5  1  0
 13 14  2  0
 14 15  1  0
 16 15  2  0
 17 16  1  0
 18 17  2  0
 18 13  1  0
 19 13  1  0
 19 21  2  0
 20 19  2  0
  2 22  1  0
  2 23  1  0
  3 24  1  0
  3 25  1  0
  4 26  1  0
  4 27  1  0
  5 28  1  1
  7 29  1  0
  8 30  1  0
 10 31  1  0
 12 32  1  0
 12 33  1  0
 14 34  1  0
 15 35  1  0
 17 36  1  0
 18 37  1  0
 19 38  1  0
M  ISO  8  22  13  23  13  24  13  25  13  26  13  27  13  28  13  29  14
M  ISO  8  30  14  31  14  32   8  33   8  34  14  35  14  36  14  37  14
M  ISO  1  38  11
M  END
>  <minimizedAffinity>  (1) 
-4.84725332

>  <minimizedRMSD>  (1) 
1.49969578

$$$$
