
     RDKit          3D

 35 37  0  0  1  0  0  0  0  0999 V2000
   38.5050   23.6230   36.3190 N   0  0  0  0  0  0  0  0  0  0  0  0
   38.0150   24.8440   36.9470 C   0  0  0  0  0  0  0  0  0  0  0  0
   38.0070   24.4420   38.4390 C   0  0  0  0  0  0  0  0  0  0  0  0
   38.8000   23.1270   38.4920 C   0  0  0  0  0  0  0  0  0  0  0  0
   39.5680   23.2460   37.2030 C   0  0  1  0  0  0  0  0  0  0  0  0
   38.0300   22.9900   35.1350 C   0  0  0  0  0  0  0  0  0  0  0  0
   37.2240   21.8350   35.1620 C   0  0  0  0  0  0  0  0  0  0  0  0
   36.8050   21.2850   33.9540 C   0  0  0  0  0  0  0  0  0  0  0  0
   37.2010   21.8990   32.7990 N   0  0  0  0  0  0  0  0  0  0  0  0
   37.9680   22.9980   32.8060 C   0  0  0  0  0  0  0  0  0  0  0  0
   38.3880   23.5520   33.9600 N   0  0  0  0  0  0  0  0  0  0  0  0
   40.2570   21.9910   36.8050 C   0  0  0  0  0  0  0  0  0  0  0  0
   41.6880   22.0730   36.5430 C   0  0  0  0  0  0  0  0  0  0  0  0
   42.2240   23.3640   36.4400 C   0  0  0  0  0  0  0  0  0  0  0  0
   43.5890   23.4740   36.1900 C   0  0  0  0  0  0  0  0  0  0  0  0
   44.3490   22.3270   36.0540 C   0  0  0  0  0  0  0  0  0  0  0  0
   43.7980   21.0690   36.1590 C   0  0  0  0  0  0  0  0  0  0  0  0
   42.4530   20.9290   36.4060 C   0  0  0  0  0  0  0  0  0  0  0  0
   38.6929   25.6905   36.7627 H   0  0  0  0  0  0  0  0  0  0  0  0
   37.0390   25.1821   36.5686 H   0  0  0  0  0  0  0  0  0  0  0  0
   38.4950   25.2144   39.0516 H   0  0  0  0  0  0  0  0  0  0  0  0
   36.9868   24.3294   38.8346 H   0  0  0  0  0  0  0  0  0  0  0  0
   39.4679   23.0858   39.3650 H   0  0  0  0  0  0  0  0  0  0  0  0
   38.1901   22.2169   38.5906 H   0  0  0  0  0  0  0  0  0  0  0  0
   40.4108   23.9522   37.2333 H   0  0  0  0  0  0  0  0  0  0  0  0
   36.9317   21.3770   36.1184 H   0  0  0  0  0  0  0  0  0  0  0  0
   36.1746   20.3839   33.9297 H   0  0  0  0  0  0  0  0  0  0  0  0
   38.2605   23.4570   31.8501 H   0  0  0  0  0  0  0  0  0  0  0  0
   40.1098   21.2612   37.6148 H   0  0  0  0  0  0  0  0  0  0  0  0
   39.8069   21.7132   35.8405 H   0  0  0  0  0  0  0  0  0  0  0  0
   41.5903   24.2561   36.5524 H   0  0  0  0  0  0  0  0  0  0  0  0
   44.0588   24.4647   36.1014 H   0  0  0  0  0  0  0  0  0  0  0  0
   45.4268   22.4221   35.8559 H   0  0  0  0  0  0  0  0  0  0  0  0
   44.4331   20.1780   36.0454 H   0  0  0  0  0  0  0  0  0  0  0  0
   41.9965   19.9319   36.4925 H   0  0  0  0  0  0  0  0  0  0  0  0
  1  2  1  0
  1  5  1  0
  2  3  1  0
  3  4  1  0
  5  4  1  0
  6  7  2  0
  6  1  1  0
  8  7  1  0
  9 10  1  0
  9  8  2  0
 10 11  2  0
 11  6  1  0
 12  5  1  0
 13 12  1  0
 14 13  2  0
 15 14  1  0
 16 17  1  0
 16 15  2  0
 17 18  2  0
 18 13  1  0
  2 19  1  0
  2 20  1  0
  3 21  1  0
  3 22  1  0
  4 23  1  0
  4 24  1  0
  5 25  1  1
  7 26  1  0
  8 27  1  0
 10 28  1  0
 12 29  1  0
 12 30  1  0
 14 31  1  0
 15 32  1  0
 16 33  1  0
 17 34  1  0
 18 35  1  0
M  ISO  8  19  13  20  13  21  13  22  13  23  13  24  13  25  13  26  14
M  ISO  8  27  14  28  14  29   8  30   8  31  14  32  14  33  14  34  14
M  ISO  1  35  14
M  END
>  <minimizedAffinity>  (1) 
-4.59825659

>  <minimizedRMSD>  (1) 
1.17257965

$$$$
