
     RDKit          3D

 38 40  0  0  1  0  0  0  0  0999 V2000
   38.4790   23.6090   36.2940 N   0  0  0  0  0  0  0  0  0  0  0  0
   37.9360   24.7970   36.9490 C   0  0  0  0  0  0  0  0  0  0  0  0
   37.9850   24.3930   38.4120 C   0  0  0  0  0  0  0  0  0  0  0  0
   38.8550   23.1270   38.4520 C   0  0  0  0  0  0  0  0  0  0  0  0
   39.5920   23.2520   37.1530 C   0  0  1  0  0  0  0  0  0  0  0  0
   38.0000   22.9780   35.0930 C   0  0  0  0  0  0  0  0  0  0  0  0
   37.2160   21.8250   35.1270 C   0  0  0  0  0  0  0  0  0  0  0  0
   36.7970   21.2790   33.9160 C   0  0  0  0  0  0  0  0  0  0  0  0
   37.1830   21.9130   32.7590 N   0  0  0  0  0  0  0  0  0  0  0  0
   37.9440   23.0270   32.7730 C   0  0  0  0  0  0  0  0  0  0  0  0
   38.3730   23.5890   33.9280 N   0  0  0  0  0  0  0  0  0  0  0  0
   40.3020   22.0420   36.6900 C   0  0  0  0  0  0  0  0  0  0  0  0
   41.7240   21.8800   37.0660 C   0  0  0  0  0  0  0  0  0  0  0  0
   42.4500   20.7570   36.4140 C   0  0  0  0  0  0  0  0  0  0  0  0
   43.8490   21.2840   36.1400 C   0  0  0  0  0  0  0  0  0  0  0  0
   43.6700   22.7530   35.8980 C   0  0  0  0  0  0  0  0  0  0  0  0
   42.4430   23.1660   36.6440 C   0  0  0  0  0  0  0  0  0  0  0  0
   38.5607   25.6817   36.7564 H   0  0  0  0  0  0  0  0  0  0  0  0
   36.9329   25.0807   36.5980 H   0  0  0  0  0  0  0  0  0  0  0  0
   38.4382   25.1916   39.0177 H   0  0  0  0  0  0  0  0  0  0  0  0
   36.9804   24.2143   38.8228 H   0  0  0  0  0  0  0  0  0  0  0  0
   39.5430   23.1355   39.3103 H   0  0  0  0  0  0  0  0  0  0  0  0
   38.2906   22.1899   38.5672 H   0  0  0  0  0  0  0  0  0  0  0  0
   40.4324   23.9605   37.1949 H   0  0  0  0  0  0  0  0  0  0  0  0
   36.9363   21.3597   36.0837 H   0  0  0  0  0  0  0  0  0  0  0  0
   36.1776   20.3704   33.8865 H   0  0  0  0  0  0  0  0  0  0  0  0
   38.2246   23.4930   31.8169 H   0  0  0  0  0  0  0  0  0  0  0  0
   40.2521   22.0347   35.5912 H   0  0  0  0  0  0  0  0  0  0  0  0
   39.7888   21.2128   37.1990 H   0  0  0  0  0  0  0  0  0  0  0  0
   41.7283   21.6641   38.1446 H   0  0  0  0  0  0  0  0  0  0  0  0
   42.4916   19.8855   37.0839 H   0  0  0  0  0  0  0  0  0  0  0  0
   41.9495   20.4279   35.4914 H   0  0  0  0  0  0  0  0  0  0  0  0
   44.5036   21.1120   37.0071 H   0  0  0  0  0  0  0  0  0  0  0  0
   44.3205   20.7788   35.2842 H   0  0  0  0  0  0  0  0  0  0  0  0
   44.5442   23.3075   36.2699 H   0  0  0  0  0  0  0  0  0  0  0  0
   43.5701   22.9672   34.8237 H   0  0  0  0  0  0  0  0  0  0  0  0
   42.7200   23.7532   37.5319 H   0  0  0  0  0  0  0  0  0  0  0  0
   41.7927   23.7924   36.0158 H   0  0  0  0  0  0  0  0  0  0  0  0
  1  2  1  0
  1  5  1  0
  2  3  1  0
  3  4  1  0
  5  4  1  0
  6  7  2  0
  6  1  1  0
  8  7  1  0
  9 10  1  0
  9  8  2  0
 10 11  2  0
 11  6  1  0
 12 13  1  0
 12  5  1  0
 14 13  1  0
 15 14  1  0
 16 15  1  0
 16 17  1  0
 17 13  1  0
  2 18  1  0
  2 19  1  0
  3 20  1  0
  3 21  1  0
  4 22  1  0
  4 23  1  0
  5 24  1  1
  7 25  1  0
  8 26  1  0
 10 27  1  0
 12 28  1  0
 12 29  1  0
 13 30  1  0
 14 31  1  0
 14 32  1  0
 15 33  1  0
 15 34  1  0
 16 35  1  0
 16 36  1  0
 17 37  1  0
 17 38  1  0
M  ISO  8  18  13  19  13  20  13  21  13  22  13  23  13  24  13  25  14
M  ISO  8  26  14  27  14  28   8  29   8  30  13  31  13  32  13  33  13
M  ISO  5  34  13  35  13  36  13  37  13  38  13
M  END
>  <minimizedAffinity>  (1) 
-4.45176506

>  <minimizedRMSD>  (1) 
1.31052613

$$$$
