
     RDKit          3D

 33 35  0  0  1  0  0  0  0  0999 V2000
   38.4150   23.6000   36.1100 N   0  0  0  0  0  0  0  0  0  0  0  0
   37.6170   24.1370   37.2070 C   0  0  0  0  0  0  0  0  0  0  0  0
   38.2530   23.4580   38.4210 C   0  0  0  0  0  0  0  0  0  0  0  0
   39.5640   22.8620   37.8920 C   0  0  0  0  0  0  0  0  0  0  0  0
   39.7510   23.6750   36.6440 C   0  0  1  0  0  0  0  0  0  0  0  0
   37.9560   23.1270   34.8380 C   0  0  0  0  0  0  0  0  0  0  0  0
   37.5070   21.8000   34.6580 C   0  0  0  0  0  0  0  0  0  0  0  0
   37.0810   21.4240   33.3960 C   0  0  0  0  0  0  0  0  0  0  0  0
   37.1210   22.3670   32.3910 N   0  0  0  0  0  0  0  0  0  0  0  0
   37.5510   23.6050   32.6030 C   0  0  0  0  0  0  0  0  0  0  0  0
   37.9810   24.0300   33.8210 N   0  0  0  0  0  0  0  0  0  0  0  0
   40.7760   23.1280   35.7050 C   0  0  0  0  0  0  0  0  0  0  0  0
   42.0940   23.7520   35.7790 C   0  0  0  0  0  0  0  0  0  0  0  0
   43.1750   23.2530   36.5190 C   0  0  0  0  0  0  0  0  0  0  0  0
   44.4040   23.8780   36.5610 C   0  0  0  0  0  0  0  0  0  0  0  0
   44.5790   25.0300   35.8520 N   0  0  0  0  0  0  0  0  0  0  0  0
   43.5150   25.5010   35.1380 C   0  0  0  0  0  0  0  0  0  0  0  0
   42.3090   24.8940   35.0950 N   0  0  0  0  0  0  0  0  0  0  0  0
   37.7063   25.2317   37.2683 H   0  0  0  0  0  0  0  0  0  0  0  0
   36.5381   23.9477   37.1062 H   0  0  0  0  0  0  0  0  0  0  0  0
   38.4534   24.1922   39.2153 H   0  0  0  0  0  0  0  0  0  0  0  0
   37.5963   22.6934   38.8615 H   0  0  0  0  0  0  0  0  0  0  0  0
   40.3922   23.0097   38.6007 H   0  0  0  0  0  0  0  0  0  0  0  0
   39.5405   21.7741   37.7308 H   0  0  0  0  0  0  0  0  0  0  0  0
   40.1376   24.6894   36.8214 H   0  0  0  0  0  0  0  0  0  0  0  0
   37.4962   21.0869   35.4955 H   0  0  0  0  0  0  0  0  0  0  0  0
   36.7212   20.4030   33.2006 H   0  0  0  0  0  0  0  0  0  0  0  0
   37.5598   24.3136   31.7617 H   0  0  0  0  0  0  0  0  0  0  0  0
   40.3982   23.2549   34.6797 H   0  0  0  0  0  0  0  0  0  0  0  0
   40.9227   22.0777   35.9971 H   0  0  0  0  0  0  0  0  0  0  0  0
   43.0373   22.3233   37.0906 H   0  0  0  0  0  0  0  0  0  0  0  0
   45.2275   23.4552   37.1552 H   0  0  0  0  0  0  0  0  0  0  0  0
   43.6476   26.4298   34.5637 H   0  0  0  0  0  0  0  0  0  0  0  0
  1  5  1  0
  1  2  1  0
  2  3  1  0
  4  3  1  0
  5  4  1  0
  6  1  1  0
  7  6  2  0
  8  7  1  0
  9 10  1  0
  9  8  2  0
 10 11  2  0
 11  6  1  0
 12 13  1  0
 12  5  1  0
 13 14  2  0
 14 15  1  0
 16 15  2  0
 17 16  1  0
 18 17  2  0
 18 13  1  0
  2 19  1  0
  2 20  1  0
  3 21  1  0
  3 22  1  0
  4 23  1  0
  4 24  1  0
  5 25  1  1
  7 26  1  0
  8 27  1  0
 10 28  1  0
 12 29  1  0
 12 30  1  0
 14 31  1  0
 15 32  1  0
 17 33  1  0
M  ISO  8  19  13  20  13  21  13  22  13  23  13  24  13  25  13  26  14
M  ISO  7  27  14  28  14  29   8  30   8  31  14  32  14  33  14
M  END
>  <minimizedAffinity>  (1) 
-4.26368952

>  <minimizedRMSD>  (1) 
1.11137366

$$$$
