
     RDKit          3D

 37 39  0  0  1  0  0  0  0  0999 V2000
   38.7120   23.4700   36.0650 N   0  0  0  0  0  0  0  0  0  0  0  0
   38.1010   24.1600   37.2090 C   0  0  0  0  0  0  0  0  0  0  0  0
   38.7740   23.4500   38.3810 C   0  0  0  0  0  0  0  0  0  0  0  0
   39.9120   22.6330   37.7540 C   0  0  0  0  0  0  0  0  0  0  0  0
   40.0970   23.3890   36.4470 C   0  0  1  0  0  0  0  0  0  0  0  0
   38.0430   23.0140   34.8830 C   0  0  0  0  0  0  0  0  0  0  0  0
   37.4430   21.7630   34.7830 C   0  0  0  0  0  0  0  0  0  0  0  0
   36.8210   21.4120   33.5920 C   0  0  0  0  0  0  0  0  0  0  0  0
   36.8370   22.3350   32.5660 N   0  0  0  0  0  0  0  0  0  0  0  0
   37.4210   23.5210   32.7000 C   0  0  0  0  0  0  0  0  0  0  0  0
   38.0300   23.8920   33.8330 N   0  0  0  0  0  0  0  0  0  0  0  0
   40.9250   22.6450   35.4530 C   0  0  0  0  0  0  0  0  0  0  0  0
   42.1660   23.2650   35.1450 N   0  0  0  0  0  0  0  0  0  0  0  0
   42.1900   24.6850   35.0970 C   0  0  0  0  0  0  0  0  0  0  0  0
   43.4890   25.1250   35.7720 C   0  0  0  0  0  0  0  0  0  0  0  0
   43.7820   24.0010   36.7180 C   0  0  0  0  0  0  0  0  0  0  0  0
   43.2430   22.8150   35.9910 C   0  0  0  0  0  0  0  0  0  0  0  0
   38.3339   25.2350   37.2020 H   0  0  0  0  0  0  0  0  0  0  0  0
   37.0020   24.1162   37.2268 H   0  0  0  0  0  0  0  0  0  0  0  0
   39.1739   24.1822   39.0979 H   0  0  0  0  0  0  0  0  0  0  0  0
   38.0691   22.8149   38.9376 H   0  0  0  0  0  0  0  0  0  0  0  0
   40.8214   22.6596   38.3724 H   0  0  0  0  0  0  0  0  0  0  0  0
   39.7012   21.5594   37.6404 H   0  0  0  0  0  0  0  0  0  0  0  0
   40.6358   24.3452   36.5206 H   0  0  0  0  0  0  0  0  0  0  0  0
   37.4609   21.0641   35.6323 H   0  0  0  0  0  0  0  0  0  0  0  0
   36.3331   20.4336   33.4707 H   0  0  0  0  0  0  0  0  0  0  0  0
   37.4035   24.2212   31.8518 H   0  0  0  0  0  0  0  0  0  0  0  0
   41.1314   21.6431   35.8576 H   0  0  0  0  0  0  0  0  0  0  0  0
   40.3459   22.6175   34.5182 H   0  0  0  0  0  0  0  0  0  0  0  0
   42.1699   25.0295   34.0525 H   0  0  0  0  0  0  0  0  0  0  0  0
   41.3143   25.1132   35.6067 H   0  0  0  0  0  0  0  0  0  0  0  0
   44.2970   25.2405   35.0346 H   0  0  0  0  0  0  0  0  0  0  0  0
   43.4050   26.1001   36.2741 H   0  0  0  0  0  0  0  0  0  0  0  0
   44.8633   23.9014   36.8936 H   0  0  0  0  0  0  0  0  0  0  0  0
   43.3390   24.1415   37.7150 H   0  0  0  0  0  0  0  0  0  0  0  0
   42.8672   22.0739   36.7118 H   0  0  0  0  0  0  0  0  0  0  0  0
   44.0330   22.3443   35.3874 H   0  0  0  0  0  0  0  0  0  0  0  0
  1  5  1  0
  1  2  1  0
  2  3  1  0
  4  3  1  0
  5  4  1  0
  6  1  1  0
  7  6  2  0
  8  7  1  0
  9 10  1  0
  9  8  2  0
 10 11  2  0
 11  6  1  0
 12  5  1  0
 13 12  1  0
 13 17  1  0
 14 13  1  0
 14 15  1  0
 15 16  1  0
 17 16  1  0
  2 18  1  0
  2 19  1  0
  3 20  1  0
  3 21  1  0
  4 22  1  0
  4 23  1  0
  5 24  1  1
  7 25  1  0
  8 26  1  0
 10 27  1  0
 12 28  1  0
 12 29  1  0
 14 30  1  0
 14 31  1  0
 15 32  1  0
 15 33  1  0
 16 34  1  0
 16 35  1  0
 17 36  1  0
 17 37  1  0
M  ISO  8  18  13  19  13  20  13  21  13  22  13  23  13  24  13  25  14
M  ISO  8  26  14  27  14  28   8  29   8  30  13  31  13  32  13  33  13
M  ISO  4  34  13  35  13  36  13  37  13
M  END
>  <minimizedAffinity>  (1) 
-4.12625504

>  <minimizedRMSD>  (1) 
0.64904505

$$$$
