
     RDKit          3D

 38 40  0  0  1  0  0  0  0  0999 V2000
   38.5660   23.5700   36.0590 N   0  0  0  0  0  0  0  0  0  0  0  0
   37.8990   24.3280   37.1220 C   0  0  0  0  0  0  0  0  0  0  0  0
   38.4600   23.6520   38.3740 C   0  0  0  0  0  0  0  0  0  0  0  0
   39.6330   22.8020   37.8730 C   0  0  0  0  0  0  0  0  0  0  0  0
   39.9150   23.4750   36.5630 C   0  0  1  0  0  0  0  0  0  0  0  0
   37.9890   23.0720   34.8540 C   0  0  0  0  0  0  0  0  0  0  0  0
   37.4220   21.8020   34.7610 C   0  0  0  0  0  0  0  0  0  0  0  0
   36.8840   21.4080   33.5350 C   0  0  0  0  0  0  0  0  0  0  0  0
   36.9420   22.2980   32.4820 N   0  0  0  0  0  0  0  0  0  0  0  0
   37.4960   23.5100   32.6150 C   0  0  0  0  0  0  0  0  0  0  0  0
   38.0220   23.9170   33.7780 N   0  0  0  0  0  0  0  0  0  0  0  0
   40.8140   22.7330   35.6520 C   0  0  0  0  0  0  0  0  0  0  0  0
   42.1070   23.3260   35.4140 N   0  0  0  0  0  0  0  0  0  0  0  0
   42.9620   23.2820   36.5780 C   0  0  0  0  0  0  0  0  0  0  0  0
   44.2090   24.0870   36.2820 C   0  0  0  0  0  0  0  0  0  0  0  0
   43.9130   25.4010   35.9390 O   0  0  0  0  0  0  0  0  0  0  0  0
   43.1010   25.4280   34.8030 C   0  0  0  0  0  0  0  0  0  0  0  0
   41.8100   24.7440   35.1510 C   0  0  0  0  0  0  0  0  0  0  0  0
   38.1684   25.3939   37.0856 H   0  0  0  0  0  0  0  0  0  0  0  0
   36.8008   24.3177   37.0598 H   0  0  0  0  0  0  0  0  0  0  0  0
   38.8086   24.4045   39.0966 H   0  0  0  0  0  0  0  0  0  0  0  0
   37.7018   23.0462   38.8918 H   0  0  0  0  0  0  0  0  0  0  0  0
   40.4957   22.8586   38.5531 H   0  0  0  0  0  0  0  0  0  0  0  0
   39.4216   21.7250   37.8000 H   0  0  0  0  0  0  0  0  0  0  0  0
   40.4664   24.4218   36.6608 H   0  0  0  0  0  0  0  0  0  0  0  0
   37.3992   21.1285   35.6304 H   0  0  0  0  0  0  0  0  0  0  0  0
   36.4263   20.4154   33.4115 H   0  0  0  0  0  0  0  0  0  0  0  0
   37.5197   24.1875   31.7487 H   0  0  0  0  0  0  0  0  0  0  0  0
   40.9767   21.7333   36.0811 H   0  0  0  0  0  0  0  0  0  0  0  0
   40.3070   22.7285   34.6758 H   0  0  0  0  0  0  0  0  0  0  0  0
   42.4365   23.7145   37.4422 H   0  0  0  0  0  0  0  0  0  0  0  0
   43.2295   22.2412   36.8128 H   0  0  0  0  0  0  0  0  0  0  0  0
   44.8503   24.0894   37.1757 H   0  0  0  0  0  0  0  0  0  0  0  0
   44.7190   23.6199   35.4266 H   0  0  0  0  0  0  0  0  0  0  0  0
   43.5954   24.8975   33.9759 H   0  0  0  0  0  0  0  0  0  0  0  0
   42.9155   26.4647   34.4854 H   0  0  0  0  0  0  0  0  0  0  0  0
   41.3714   25.2067   36.0474 H   0  0  0  0  0  0  0  0  0  0  0  0
   41.0908   24.8384   34.3241 H   0  0  0  0  0  0  0  0  0  0  0  0
  1  5  1  0
  1  2  1  0
  2  3  1  0
  4  3  1  0
  5  4  1  0
  6  1  1  0
  7  6  2  0
  8  7  1  0
  9 10  1  0
  9  8  2  0
 10 11  2  0
 11  6  1  0
 12  5  1  0
 13 12  1  0
 13 14  1  0
 15 14  1  0
 16 15  1  0
 17 18  1  0
 17 16  1  0
 18 13  1  0
  2 19  1  0
  2 20  1  0
  3 21  1  0
  3 22  1  0
  4 23  1  0
  4 24  1  0
  5 25  1  1
  7 26  1  0
  8 27  1  0
 10 28  1  0
 12 29  1  0
 12 30  1  0
 14 31  1  0
 14 32  1  0
 15 33  1  0
 15 34  1  0
 17 35  1  0
 17 36  1  0
 18 37  1  0
 18 38  1  0
M  ISO  8  19  13  20  13  21  13  22  13  23  13  24  13  25  13  26  14
M  ISO  8  27  14  28  14  29   8  30   8  31  13  32  13  33  13  34  13
M  ISO  4  35  13  36  13  37  13  38  13
M  END
>  <minimizedAffinity>  (1) 
-4.10358

>  <minimizedRMSD>  (1) 
1.47909057

$$$$
