
     RDKit          3D

 32 34  0  0  1  0  0  0  0  0999 V2000
   38.4680   23.6110   36.2840 N   0  0  0  0  0  0  0  0  0  0  0  0
   37.8990   24.7810   36.9480 C   0  0  0  0  0  0  0  0  0  0  0  0
   37.9890   24.3630   38.4200 C   0  0  0  0  0  0  0  0  0  0  0  0
   38.8580   23.1200   38.4300 C   0  0  0  0  0  0  0  0  0  0  0  0
   39.6000   23.2810   37.1110 C   0  0  1  0  0  0  0  0  0  0  0  0
   37.9850   22.9710   35.0900 C   0  0  0  0  0  0  0  0  0  0  0  0
   37.2010   21.8190   35.1210 C   0  0  0  0  0  0  0  0  0  0  0  0
   36.7870   21.2820   33.9010 C   0  0  0  0  0  0  0  0  0  0  0  0
   37.1700   21.9120   32.7470 N   0  0  0  0  0  0  0  0  0  0  0  0
   37.9220   23.0150   32.7610 C   0  0  0  0  0  0  0  0  0  0  0  0
   38.3410   23.5640   33.9150 N   0  0  0  0  0  0  0  0  0  0  0  0
   40.3000   22.0300   36.6820 C   0  0  0  0  0  0  0  0  0  0  0  0
   41.6260   21.8340   37.3470 C   0  0  0  0  0  0  0  0  0  0  0  0
   42.9030   22.0100   36.6230 C   0  0  0  0  0  0  0  0  0  0  0  0
   42.4180   20.6070   36.8230 C   0  0  0  0  0  0  0  0  0  0  0  0
   38.4925   25.6855   36.7491 H   0  0  0  0  0  0  0  0  0  0  0  0
   36.8833   25.0395   36.6140 H   0  0  0  0  0  0  0  0  0  0  0  0
   38.4510   25.1611   39.0197 H   0  0  0  0  0  0  0  0  0  0  0  0
   36.9963   24.1732   38.8541 H   0  0  0  0  0  0  0  0  0  0  0  0
   39.5493   23.1161   39.2856 H   0  0  0  0  0  0  0  0  0  0  0  0
   38.3019   22.1760   38.5277 H   0  0  0  0  0  0  0  0  0  0  0  0
   40.4239   24.0098   37.1051 H   0  0  0  0  0  0  0  0  0  0  0  0
   36.9182   21.3490   36.0745 H   0  0  0  0  0  0  0  0  0  0  0  0
   36.1674   20.3737   33.8673 H   0  0  0  0  0  0  0  0  0  0  0  0
   38.2051   23.4851   31.8077 H   0  0  0  0  0  0  0  0  0  0  0  0
   39.6578   21.1704   36.9242 H   0  0  0  0  0  0  0  0  0  0  0  0
   40.4878   22.1168   35.6016 H   0  0  0  0  0  0  0  0  0  0  0  0
   41.2598   22.2399   38.3015 H   0  0  0  0  0  0  0  0  0  0  0  0
   43.7919   22.3592   37.1689 H   0  0  0  0  0  0  0  0  0  0  0  0
   43.2025   22.5927   35.7394 H   0  0  0  0  0  0  0  0  0  0  0  0
   42.0388   20.0235   35.9711 H   0  0  0  0  0  0  0  0  0  0  0  0
   42.8272   19.6852   37.2621 H   0  0  0  0  0  0  0  0  0  0  0  0
  1  2  1  0
  1  5  1  0
  2  3  1  0
  3  4  1  0
  5  4  1  0
  6  7  2  0
  6  1  1  0
  8  7  1  0
  9 10  1  0
  9  8  2  0
 10 11  2  0
 11  6  1  0
 12  5  1  0
 12 13  1  0
 14 15  1  0
 14 13  1  0
 15 13  1  0
  2 16  1  0
  2 17  1  0
  3 18  1  0
  3 19  1  0
  4 20  1  0
  4 21  1  0
  5 22  1  1
  7 23  1  0
  8 24  1  0
 10 25  1  0
 12 26  1  0
 12 27  1  0
 13 28  1  0
 14 29  1  0
 14 30  1  0
 15 31  1  0
 15 32  1  0
M  ISO  8  16  13  17  13  18  13  19  13  20  13  21  13  22  13  23  14
M  ISO  8  24  14  25  14  26   8  27   8  28  13  29  13  30  13  31  13
M  ISO  1  32  13
M  END
>  <minimizedAffinity>  (1) 
-4.08161497

>  <minimizedRMSD>  (1) 
1.22970688

$$$$
