
     RDKit          3D

 32 34  0  0  1  0  0  0  0  0999 V2000
   38.4700   23.5970   36.1010 N   0  0  0  0  0  0  0  0  0  0  0  0
   37.6980   24.1530   37.2190 C   0  0  0  0  0  0  0  0  0  0  0  0
   38.3650   23.4530   38.4130 C   0  0  0  0  0  0  0  0  0  0  0  0
   39.6520   22.8480   37.8570 C   0  0  0  0  0  0  0  0  0  0  0  0
   39.8170   23.6680   36.6020 C   0  0  1  0  0  0  0  0  0  0  0  0
   37.9730   23.1170   34.8490 C   0  0  0  0  0  0  0  0  0  0  0  0
   37.5230   21.8010   34.6690 C   0  0  0  0  0  0  0  0  0  0  0  0
   37.0610   21.4390   33.4120 C   0  0  0  0  0  0  0  0  0  0  0  0
   37.0730   22.3900   32.4210 N   0  0  0  0  0  0  0  0  0  0  0  0
   37.5100   23.6380   32.6240 C   0  0  0  0  0  0  0  0  0  0  0  0
   37.9600   24.0100   33.8320 N   0  0  0  0  0  0  0  0  0  0  0  0
   40.8280   23.1220   35.6490 C   0  0  0  0  0  0  0  0  0  0  0  0
   42.1950   23.6220   35.8880 C   0  0  0  0  0  0  0  0  0  0  0  0
   42.7330   24.7930   35.3550 C   0  0  0  0  0  0  0  0  0  0  0  0
   44.0160   24.9480   35.7800 N   0  0  0  0  0  0  0  0  0  0  0  0
   44.2890   23.8900   36.5750 C   0  0  0  0  0  0  0  0  0  0  0  0
   43.1950   23.1130   36.6250 N   0  0  0  0  0  0  0  0  0  0  0  0
   37.8055   25.2460   37.2800 H   0  0  0  0  0  0  0  0  0  0  0  0
   36.6127   23.9895   37.1461 H   0  0  0  0  0  0  0  0  0  0  0  0
   38.5923   24.1790   39.2076 H   0  0  0  0  0  0  0  0  0  0  0  0
   37.7111   22.6886   38.8582 H   0  0  0  0  0  0  0  0  0  0  0  0
   40.4975   22.9859   38.5470 H   0  0  0  0  0  0  0  0  0  0  0  0
   39.6161   21.7607   37.6944 H   0  0  0  0  0  0  0  0  0  0  0  0
   40.2070   24.6834   36.7656 H   0  0  0  0  0  0  0  0  0  0  0  0
   37.5360   21.0786   35.4984 H   0  0  0  0  0  0  0  0  0  0  0  0
   36.6958   20.4203   33.2147 H   0  0  0  0  0  0  0  0  0  0  0  0
   37.5003   24.3627   31.7965 H   0  0  0  0  0  0  0  0  0  0  0  0
   40.5293   23.4007   34.6277 H   0  0  0  0  0  0  0  0  0  0  0  0
   40.8531   22.0320   35.7947 H   0  0  0  0  0  0  0  0  0  0  0  0
   42.1994   25.4879   34.6899 H   0  0  0  0  0  0  0  0  0  0  0  0
   45.2413   23.6986   37.0912 H   0  0  0  0  0  0  0  0  0  0  0  0
   43.1311   22.2362   37.1617 H   0  0  0  0  0  0  0  0  0  0  0  0
  1  5  1  0
  1  2  1  0
  2  3  1  0
  4  3  1  0
  5  4  1  0
  6  1  1  0
  7  6  2  0
  8  7  1  0
  9 10  1  0
  9  8  2  0
 10 11  2  0
 11  6  1  0
 12 13  1  0
 12  5  1  0
 13 17  1  0
 14 15  1  0
 14 13  2  0
 15 16  2  0
 16 17  1  0
  2 18  1  0
  2 19  1  0
  3 20  1  0
  3 21  1  0
  4 22  1  0
  4 23  1  0
  5 24  1  1
  7 25  1  0
  8 26  1  0
 10 27  1  0
 12 28  1  0
 12 29  1  0
 14 30  1  0
 16 31  1  0
 17 32  1  0
M  ISO  8  18  13  19  13  20  13  21  13  22  13  23  13  24  13  25  14
M  ISO  7  26  14  27  14  28   8  29   8  30  14  31  14  32   9
M  END
>  <minimizedAffinity>  (1) 
-4.02975702

>  <minimizedRMSD>  (1) 
0.730309784

$$$$
