
     RDKit          3D

 31 33  0  0  1  0  0  0  0  0999 V2000
   38.4500   23.6480   36.0800 N   0  0  0  0  0  0  0  0  0  0  0  0
   37.6340   24.1670   37.1860 C   0  0  0  0  0  0  0  0  0  0  0  0
   38.2590   23.4360   38.3780 C   0  0  0  0  0  0  0  0  0  0  0  0
   39.5650   22.8350   37.8520 C   0  0  0  0  0  0  0  0  0  0  0  0
   39.7770   23.7000   36.6370 C   0  0  1  0  0  0  0  0  0  0  0  0
   37.9980   23.2140   34.7950 C   0  0  0  0  0  0  0  0  0  0  0  0
   37.6010   21.9000   34.5380 C   0  0  0  0  0  0  0  0  0  0  0  0
   37.1790   21.5810   33.2570 C   0  0  0  0  0  0  0  0  0  0  0  0
   37.1720   22.5640   32.3070 N   0  0  0  0  0  0  0  0  0  0  0  0
   37.5630   23.8200   32.5920 C   0  0  0  0  0  0  0  0  0  0  0  0
   37.9810   24.1690   33.8310 N   0  0  0  0  0  0  0  0  0  0  0  0
   40.8210   23.1680   35.6990 C   0  0  0  0  0  0  0  0  0  0  0  0
   42.1290   23.7230   35.9020 N   0  0  0  0  0  0  0  0  0  0  0  0
   42.6300   24.8330   35.2860 C   0  0  0  0  0  0  0  0  0  0  0  0
   43.8780   25.0150   35.7490 N   0  0  0  0  0  0  0  0  0  0  0  0
   44.1660   24.0500   36.6360 C   0  0  0  0  0  0  0  0  0  0  0  0
   43.0830   23.2830   36.7050 N   0  0  0  0  0  0  0  0  0  0  0  0
   37.7333   25.2581   37.2839 H   0  0  0  0  0  0  0  0  0  0  0  0
   36.5529   24.0014   37.0685 H   0  0  0  0  0  0  0  0  0  0  0  0
   38.4631   24.1412   39.1971 H   0  0  0  0  0  0  0  0  0  0  0  0
   37.5874   22.6630   38.7797 H   0  0  0  0  0  0  0  0  0  0  0  0
   40.3851   22.9412   38.5774 H   0  0  0  0  0  0  0  0  0  0  0  0
   39.5313   21.7538   37.6522 H   0  0  0  0  0  0  0  0  0  0  0  0
   40.1603   24.7085   36.8515 H   0  0  0  0  0  0  0  0  0  0  0  0
   37.6227   21.1383   35.3313 H   0  0  0  0  0  0  0  0  0  0  0  0
   36.8566   20.5587   33.0100 H   0  0  0  0  0  0  0  0  0  0  0  0
   37.5423   24.5815   31.7984 H   0  0  0  0  0  0  0  0  0  0  0  0
   40.5066   23.3925   34.6691 H   0  0  0  0  0  0  0  0  0  0  0  0
   40.9011   22.0882   35.8931 H   0  0  0  0  0  0  0  0  0  0  0  0
   42.1093   25.4612   34.5483 H   0  0  0  0  0  0  0  0  0  0  0  0
   45.1062   23.9204   37.1921 H   0  0  0  0  0  0  0  0  0  0  0  0
  1  5  1  0
  1  2  1  0
  2  3  1  0
  4  3  1  0
  5  4  1  0
  6  1  1  0
  7  6  2  0
  8  7  1  0
  9 10  1  0
  9  8  2  0
 10 11  2  0
 11  6  1  0
 12 13  1  0
 12  5  1  0
 13 17  1  0
 14 15  2  0
 14 13  1  0
 15 16  1  0
 16 17  2  0
  2 18  1  0
  2 19  1  0
  3 20  1  0
  3 21  1  0
  4 22  1  0
  4 23  1  0
  5 24  1  1
  7 25  1  0
  8 26  1  0
 10 27  1  0
 12 28  1  0
 12 29  1  0
 14 30  1  0
 16 31  1  0
M  ISO  8  18  13  19  13  20  13  21  13  22  13  23  13  24  13  25  14
M  ISO  6  26  14  27  14  28   8  29   8  30  14  31  14
M  END
>  <minimizedAffinity>  (1) 
-3.99484372

>  <minimizedRMSD>  (1) 
0.847176731

$$$$
