
     RDKit          3D

 26 27  0  0  1  0  0  0  0  0999 V2000
   38.6130   23.5010   36.0800 N   0  0  0  0  0  0  0  0  0  0  0  0
   37.9610   24.0920   37.2490 C   0  0  0  0  0  0  0  0  0  0  0  0
   38.7120   23.4120   38.3950 C   0  0  0  0  0  0  0  0  0  0  0  0
   39.8920   22.7030   37.7290 C   0  0  0  0  0  0  0  0  0  0  0  0
   39.9970   23.5170   36.4600 C   0  0  1  0  0  0  0  0  0  0  0  0
   37.9910   23.0390   34.8860 C   0  0  0  0  0  0  0  0  0  0  0  0
   37.4370   21.7660   34.7630 C   0  0  0  0  0  0  0  0  0  0  0  0
   36.8490   21.4030   33.5500 C   0  0  0  0  0  0  0  0  0  0  0  0
   36.8490   22.3250   32.5410 N   0  0  0  0  0  0  0  0  0  0  0  0
   37.3880   23.5400   32.6900 C   0  0  0  0  0  0  0  0  0  0  0  0
   37.9640   23.9240   33.8460 N   0  0  0  0  0  0  0  0  0  0  0  0
   40.9030   22.8960   35.4360 C   0  0  0  0  0  0  0  0  0  0  0  0
   42.2100   22.9950   35.9550 O   0  0  0  0  0  0  0  0  0  0  0  0
   38.0937   25.1837   37.2738 H   0  0  0  0  0  0  0  0  0  0  0  0
   36.8714   23.9436   37.2770 H   0  0  0  0  0  0  0  0  0  0  0  0
   39.0686   24.1583   39.1202 H   0  0  0  0  0  0  0  0  0  0  0  0
   38.0708   22.7130   38.9520 H   0  0  0  0  0  0  0  0  0  0  0  0
   40.8066   22.7720   38.3363 H   0  0  0  0  0  0  0  0  0  0  0  0
   39.7607   21.6213   37.5788 H   0  0  0  0  0  0  0  0  0  0  0  0
   40.4434   24.5162   36.5710 H   0  0  0  0  0  0  0  0  0  0  0  0
   37.4626   21.0602   35.6063 H   0  0  0  0  0  0  0  0  0  0  0  0
   36.4007   20.4082   33.4109 H   0  0  0  0  0  0  0  0  0  0  0  0
   37.3603   24.2449   31.8460 H   0  0  0  0  0  0  0  0  0  0  0  0
   40.8293   23.4392   34.4823 H   0  0  0  0  0  0  0  0  0  0  0  0
   40.6280   21.8491   35.2400 H   0  0  0  0  0  0  0  0  0  0  0  0
   42.1733   22.9922   36.9443 H   0  0  0  0  0  0  0  0  0  0  0  0
  1  5  1  0
  1  2  1  0
  2  3  1  0
  4  3  1  0
  5  4  1  0
  6  1  1  0
  7  6  2  0
  8  7  1  0
  9 10  1  0
  9  8  2  0
 10 11  2  0
 11  6  1  0
 12 13  1  0
 12  5  1  0
  2 14  1  0
  2 15  1  0
  3 16  1  0
  3 17  1  0
  4 18  1  0
  4 19  1  0
  5 20  1  1
  7 21  1  0
  8 22  1  0
 10 23  1  0
 12 24  1  0
 12 25  1  0
 13 26  1  0
M  ISO  8  14  13  15  13  16  13  17  13  18  13  19  13  20  13  21  14
M  ISO  5  22  14  23  14  24   8  25   8  26   3
M  END
>  <minimizedAffinity>  (1) 
-3.35907221

>  <minimizedRMSD>  (1) 
0.0280876961

$$$$
