
     RDKit          3D

 39 42  0  0  1  0  0  0  0  0999 V2000
   38.4300   23.6430   36.1410 N   0  0  0  0  0  0  0  0  0  0  0  0
   37.6210   24.1380   37.2470 C   0  0  0  0  0  0  0  0  0  0  0  0
   38.2430   23.4400   38.4450 C   0  0  0  0  0  0  0  0  0  0  0  0
   39.5410   22.8210   37.9140 C   0  0  0  0  0  0  0  0  0  0  0  0
   39.7690   23.7040   36.6970 C   0  0  1  0  0  0  0  0  0  0  0  0
   37.9780   23.2170   34.8500 C   0  0  0  0  0  0  0  0  0  0  0  0
   37.5820   21.9100   34.5870 C   0  0  0  0  0  0  0  0  0  0  0  0
   37.1630   21.6010   33.2970 C   0  0  0  0  0  0  0  0  0  0  0  0
   37.1640   22.6150   32.3540 N   0  0  0  0  0  0  0  0  0  0  0  0
   37.5510   23.8560   32.6490 C   0  0  0  0  0  0  0  0  0  0  0  0
   37.9650   24.1910   33.8940 N   0  0  0  0  0  0  0  0  0  0  0  0
   40.7970   23.1500   35.7460 C   0  0  0  0  0  0  0  0  0  0  0  0
   42.1230   23.7310   35.8210 C   0  0  0  0  0  0  0  0  0  0  0  0
   43.1440   23.2810   36.5660 N   0  0  0  0  0  0  0  0  0  0  0  0
   44.3580   23.9040   36.5930 C   0  0  0  0  0  0  0  0  0  0  0  0
   44.6310   25.0110   35.8820 N   0  0  0  0  0  0  0  0  0  0  0  0
   43.6410   25.5100   35.1120 C   0  0  0  0  0  0  0  0  0  0  0  0
   43.8780   26.6470   34.3690 C   0  0  0  0  0  0  0  0  0  0  0  0
   42.8900   27.1960   33.5660 C   0  0  0  0  0  0  0  0  0  0  0  0
   41.6620   26.5750   33.5310 C   0  0  0  0  0  0  0  0  0  0  0  0
   41.4310   25.4260   34.2850 C   0  0  0  0  0  0  0  0  0  0  0  0
   42.4010   24.8700   35.0860 C   0  0  0  0  0  0  0  0  0  0  0  0
   37.6991   25.2314   37.3388 H   0  0  0  0  0  0  0  0  0  0  0  0
   36.5461   23.9357   37.1300 H   0  0  0  0  0  0  0  0  0  0  0  0
   38.4588   24.1636   39.2449 H   0  0  0  0  0  0  0  0  0  0  0  0
   37.5712   22.6837   38.8771 H   0  0  0  0  0  0  0  0  0  0  0  0
   40.3622   22.9061   38.6409 H   0  0  0  0  0  0  0  0  0  0  0  0
   39.4905   21.7425   37.7038 H   0  0  0  0  0  0  0  0  0  0  0  0
   40.1641   24.7074   36.9141 H   0  0  0  0  0  0  0  0  0  0  0  0
   37.5996   21.1434   35.3756 H   0  0  0  0  0  0  0  0  0  0  0  0
   36.8408   20.5826   33.0342 H   0  0  0  0  0  0  0  0  0  0  0  0
   37.5337   24.6255   31.8632 H   0  0  0  0  0  0  0  0  0  0  0  0
   40.4225   23.3014   34.7228 H   0  0  0  0  0  0  0  0  0  0  0  0
   40.9230   22.0957   36.0333 H   0  0  0  0  0  0  0  0  0  0  0  0
   45.1506   23.4798   37.2269 H   0  0  0  0  0  0  0  0  0  0  0  0
   44.8670   27.1264   34.4140 H   0  0  0  0  0  0  0  0  0  0  0  0
   43.0821   28.1026   32.9734 H   0  0  0  0  0  0  0  0  0  0  0  0
   40.8581   26.9882   32.9041 H   0  0  0  0  0  0  0  0  0  0  0  0
   40.4412   24.9485   34.2380 H   0  0  0  0  0  0  0  0  0  0  0  0
  1  5  1  0
  1  2  1  0
  2  3  1  0
  4  3  1  0
  5  4  1  0
  6  1  1  0
  7  6  2  0
  8  7  1  0
  9 10  1  0
  9  8  2  0
 10 11  2  0
 11  6  1  0
 12 13  1  0
 12  5  1  0
 13 14  2  0
 14 15  1  0
 16 15  2  0
 17 16  1  0
 18 17  2  0
 19 18  1  0
 20 19  2  0
 20 21  1  0
 21 22  2  0
 22 17  1  0
 22 13  1  0
  2 23  1  0
  2 24  1  0
  3 25  1  0
  3 26  1  0
  4 27  1  0
  4 28  1  0
  5 29  1  1
  7 30  1  0
  8 31  1  0
 10 32  1  0
 12 33  1  0
 12 34  1  0
 15 35  1  0
 18 36  1  0
 19 37  1  0
 20 38  1  0
 21 39  1  0
M  ISO  8  23  13  24  13  25  13  26  13  27  13  28  13  29  13  30  14
M  ISO  8  31  14  32  14  33   8  34   8  35  14  36  14  37  14  38  14
M  ISO  1  39  14
M  END
>  <minimizedAffinity>  (1) 
-4.8375206

>  <minimizedRMSD>  (1) 
1.37997198

$$$$
