
     RDKit          3D

 48 53  0  0  1  0  0  0  0  0999 V2000
   40.9130   23.2250   35.6080 C   0  0  0  0  0  0  0  0  0  0  0  0
   42.2420   23.7510   35.7070 C   0  0  0  0  0  0  0  0  0  0  0  0
   43.1630   23.4360   36.6340 N   0  0  0  0  0  0  0  0  0  0  0  0
   44.3340   24.1660   36.8180 C   0  0  0  0  0  0  0  0  0  0  0  0
   44.6510   25.2490   36.1060 N   0  0  0  0  0  0  0  0  0  0  0  0
   43.7670   25.6110   35.1600 C   0  0  0  0  0  0  0  0  0  0  0  0
   44.0840   26.7120   34.3680 C   0  0  0  0  0  0  0  0  0  0  0  0
   43.2380   27.0770   33.3420 C   0  0  0  0  0  0  0  0  0  0  0  0
   42.0930   26.3130   33.1170 C   0  0  0  0  0  0  0  0  0  0  0  0
   41.8200   25.2200   33.9240 C   0  0  0  0  0  0  0  0  0  0  0  0
   42.6060   24.8220   35.0060 C   0  0  0  0  0  0  0  0  0  0  0  0
   41.2700   23.9560   33.1780 C   0  0  2  0  0  0  0  0  0  0  0  0
   40.9280   24.1560   31.8090 C   0  0  0  0  0  0  0  0  0  0  0  0
   40.5020   23.1710   30.9870 C   0  0  0  0  0  0  0  0  0  0  0  0
   40.5630   22.2080   31.9030 N   0  0  0  0  0  0  0  0  0  0  0  0
   40.9540   22.6780   32.9680 N   0  0  0  0  0  0  0  0  0  0  0  0
   38.5250   23.6600   36.1320 N   0  0  0  0  0  0  0  0  0  0  0  0
   37.7390   24.0940   37.2760 C   0  0  0  0  0  0  0  0  0  0  0  0
   38.4190   23.3840   38.4230 C   0  0  0  0  0  0  0  0  0  0  0  0
   39.7130   22.8610   37.8390 C   0  0  0  0  0  0  0  0  0  0  0  0
   39.8760   23.7700   36.6290 C   0  0  1  0  0  0  0  0  0  0  0  0
   38.0280   23.2500   34.8640 C   0  0  0  0  0  0  0  0  0  0  0  0
   37.7310   21.9130   34.5380 C   0  0  0  0  0  0  0  0  0  0  0  0
   37.2650   21.6410   33.2570 C   0  0  0  0  0  0  0  0  0  0  0  0
   37.1280   22.7320   32.3950 N   0  0  0  0  0  0  0  0  0  0  0  0
   37.4160   23.9660   32.7460 C   0  0  0  0  0  0  0  0  0  0  0  0
   37.8790   24.3050   33.9850 N   0  0  0  0  0  0  0  0  0  0  0  0
   40.5385   23.4498   34.5984 H   0  0  0  0  0  0  0  0  0  0  0  0
   41.0063   22.1519   35.8310 H   0  0  0  0  0  0  0  0  0  0  0  0
   45.0377   23.8310   37.5943 H   0  0  0  0  0  0  0  0  0  0  0  0
   45.0025   27.2862   34.5595 H   0  0  0  0  0  0  0  0  0  0  0  0
   43.4615   27.9522   32.7143 H   0  0  0  0  0  0  0  0  0  0  0  0
   41.4068   26.5780   32.2991 H   0  0  0  0  0  0  0  0  0  0  0  0
   42.2942   23.6847   32.8825 H   0  0  0  0  0  0  0  0  0  0  0  0
   39.8874   24.3646   32.0983 H   0  0  0  0  0  0  0  0  0  0  0  0
   39.4820   23.3393   30.6111 H   0  0  0  0  0  0  0  0  0  0  0  0
   41.0575   23.0162   30.0503 H   0  0  0  0  0  0  0  0  0  0  0  0
   39.6271   21.7977   32.0322 H   0  0  0  0  0  0  0  0  0  0  0  0
   37.7856   25.1860   37.3999 H   0  0  0  0  0  0  0  0  0  0  0  0
   36.6675   23.8613   37.1876 H   0  0  0  0  0  0  0  0  0  0  0  0
   38.6205   24.0838   39.2474 H   0  0  0  0  0  0  0  0  0  0  0  0
   37.7966   22.5795   38.8417 H   0  0  0  0  0  0  0  0  0  0  0  0
   40.5492   22.9743   38.5446 H   0  0  0  0  0  0  0  0  0  0  0  0
   39.7007   21.7873   37.6003 H   0  0  0  0  0  0  0  0  0  0  0  0
   40.2481   24.7848   36.8335 H   0  0  0  0  0  0  0  0  0  0  0  0
   37.8638   21.1075   35.2752 H   0  0  0  0  0  0  0  0  0  0  0  0
   37.0165   20.6180   32.9379 H   0  0  0  0  0  0  0  0  0  0  0  0
   37.2769   24.7659   32.0038 H   0  0  0  0  0  0  0  0  0  0  0  0
  1  2  1  0
  1 21  1  0
  2  3  2  0
  3  4  1  0
  5  4  2  0
  6  5  1  0
  7  6  2  0
  8  7  1  0
  9  8  2  0
  9 10  1  0
 10 11  2  0
 11  6  1  0
 11  2  1  0
 12 10  1  0
 13 14  1  0
 13 16  1  0
 13 12  1  0
 14 15  1  0
 16 15  1  0
 16 12  1  0
 17 21  1  0
 17 18  1  0
 18 19  1  0
 20 19  1  0
 21 20  1  0
 22 17  1  0
 23 22  2  0
 24 23  1  0
 25 26  1  0
 25 24  2  0
 26 27  2  0
 27 22  1  0
  1 28  1  0
  1 29  1  0
  4 30  1  0
  7 31  1  0
  8 32  1  0
  9 33  1  0
 12 34  1  1
 13 35  1  0
 14 36  1  0
 14 37  1  0
 15 38  1  0
 18 39  1  0
 18 40  1  0
 19 41  1  0
 19 42  1  0
 20 43  1  0
 20 44  1  0
 21 45  1  1
 23 46  1  0
 24 47  1  0
 26 48  1  0
M  ISO  8  28   8  29   8  30  14  31  14  32  14  33  14  34  13  35  13
M  ISO  8  36  13  37  13  38   5  39  13  40  13  41  13  42  13  43  13
M  ISO  5  44  13  45  13  46  14  47  14  48  14
M  END
>  <minimizedAffinity>  (1) 
-4.78576899

>  <minimizedRMSD>  (1) 
0.510522723

$$$$
