
     RDKit          3D

 46 50  0  0  1  0  0  0  0  0999 V2000
   40.9240   23.2580   35.5870 C   0  0  0  0  0  0  0  0  0  0  0  0
   42.2510   23.7840   35.7010 C   0  0  0  0  0  0  0  0  0  0  0  0
   43.1490   23.4900   36.6570 N   0  0  0  0  0  0  0  0  0  0  0  0
   44.3160   24.2200   36.8530 C   0  0  0  0  0  0  0  0  0  0  0  0
   44.6550   25.2880   36.1200 N   0  0  0  0  0  0  0  0  0  0  0  0
   43.7930   25.6280   35.1470 C   0  0  0  0  0  0  0  0  0  0  0  0
   44.1270   26.7140   34.3420 C   0  0  0  0  0  0  0  0  0  0  0  0
   43.3030   27.0620   33.2930 C   0  0  0  0  0  0  0  0  0  0  0  0
   42.1610   26.2960   33.0560 C   0  0  0  0  0  0  0  0  0  0  0  0
   41.8700   25.2180   33.8770 C   0  0  0  0  0  0  0  0  0  0  0  0
   42.6330   24.8380   34.9830 C   0  0  0  0  0  0  0  0  0  0  0  0
   41.3710   23.9070   33.1600 C   0  0  0  0  0  0  0  0  0  0  0  0
   41.0190   24.0980   31.7900 C   0  0  0  0  0  0  0  0  0  0  0  0
   40.5800   23.0910   30.9890 C   0  0  0  0  0  0  0  0  0  0  0  0
   40.6620   22.1480   31.9730 C   0  0  0  0  0  0  0  0  0  0  0  0
   41.0670   22.6650   33.0180 O   0  0  0  0  0  0  0  0  0  0  0  0
   38.5340   23.6450   36.1360 N   0  0  0  0  0  0  0  0  0  0  0  0
   37.7480   24.0400   37.2950 C   0  0  0  0  0  0  0  0  0  0  0  0
   38.4470   23.3150   38.4200 C   0  0  0  0  0  0  0  0  0  0  0  0
   39.7430   22.8260   37.8160 C   0  0  0  0  0  0  0  0  0  0  0  0
   39.8850   23.7640   36.6250 C   0  0  1  0  0  0  0  0  0  0  0  0
   38.0350   23.2560   34.8600 C   0  0  0  0  0  0  0  0  0  0  0  0
   37.7050   21.9310   34.5230 C   0  0  0  0  0  0  0  0  0  0  0  0
   37.2360   21.6880   33.2380 C   0  0  0  0  0  0  0  0  0  0  0  0
   37.1300   22.7920   32.3850 N   0  0  0  0  0  0  0  0  0  0  0  0
   37.4480   24.0120   32.7490 C   0  0  0  0  0  0  0  0  0  0  0  0
   37.9170   24.3210   33.9910 N   0  0  0  0  0  0  0  0  0  0  0  0
   40.5479   23.5147   34.5857 H   0  0  0  0  0  0  0  0  0  0  0  0
   41.0219   22.1788   35.7763 H   0  0  0  0  0  0  0  0  0  0  0  0
   44.9988   23.9025   37.6549 H   0  0  0  0  0  0  0  0  0  0  0  0
   45.0423   27.2904   34.5418 H   0  0  0  0  0  0  0  0  0  0  0  0
   43.5410   27.9263   32.6555 H   0  0  0  0  0  0  0  0  0  0  0  0
   41.4929   26.5473   32.2190 H   0  0  0  0  0  0  0  0  0  0  0  0
   41.1071   25.1075   31.3621 H   0  0  0  0  0  0  0  0  0  0  0  0
   40.2715   23.0507   29.9339 H   0  0  0  0  0  0  0  0  0  0  0  0
   40.4052   21.0852   31.8523 H   0  0  0  0  0  0  0  0  0  0  0  0
   37.7777   25.1295   37.4440 H   0  0  0  0  0  0  0  0  0  0  0  0
   36.6798   23.7924   37.2079 H   0  0  0  0  0  0  0  0  0  0  0  0
   38.6439   23.9989   39.2588 H   0  0  0  0  0  0  0  0  0  0  0  0
   37.8400   22.4916   38.8244 H   0  0  0  0  0  0  0  0  0  0  0  0
   40.5823   22.9362   38.5185 H   0  0  0  0  0  0  0  0  0  0  0  0
   39.7444   21.7579   37.5529 H   0  0  0  0  0  0  0  0  0  0  0  0
   40.2434   24.7797   36.8483 H   0  0  0  0  0  0  0  0  0  0  0  0
   37.8145   21.1147   35.2522 H   0  0  0  0  0  0  0  0  0  0  0  0
   36.9610   20.6757   32.9069 H   0  0  0  0  0  0  0  0  0  0  0  0
   37.3304   24.8243   32.0167 H   0  0  0  0  0  0  0  0  0  0  0  0
  1  2  1  0
  1 21  1  0
  2  3  2  0
  3  4  1  0
  5  4  2  0
  6  5  1  0
  7  6  2  0
  8  7  1  0
  9  8  2  0
  9 10  1  0
 10 11  2  0
 11  6  1  0
 11  2  1  0
 12 10  1  0
 13 12  2  0
 14 13  1  0
 14 15  2  0
 15 16  1  0
 16 12  1  0
 17 21  1  0
 17 18  1  0
 18 19  1  0
 20 19  1  0
 21 20  1  0
 22 17  1  0
 23 22  2  0
 24 23  1  0
 25 26  1  0
 25 24  2  0
 26 27  2  0
 27 22  1  0
  1 28  1  0
  1 29  1  0
  4 30  1  0
  7 31  1  0
  8 32  1  0
  9 33  1  0
 13 34  1  0
 14 35  1  0
 15 36  1  0
 18 37  1  0
 18 38  1  0
 19 39  1  0
 19 40  1  0
 20 41  1  0
 20 42  1  0
 21 43  1  1
 23 44  1  0
 24 45  1  0
 26 46  1  0
M  ISO  8  28   8  29   8  30  14  31  14  32  14  33  14  34  14  35  14
M  ISO  8  36  14  37  13  38  13  39  13  40  13  41  13  42  13  43  13
M  ISO  3  44  14  45  14  46  14
M  END
>  <minimizedAffinity>  (1) 
-4.75733805

>  <minimizedRMSD>  (1) 
0.301167071

$$$$
