
     RDKit          3D

 46 50  0  0  1  0  0  0  0  0999 V2000
   40.8110   23.1750   35.6670 C   0  0  0  0  0  0  0  0  0  0  0  0
   42.1290   23.7330   35.7480 C   0  0  0  0  0  0  0  0  0  0  0  0
   43.0430   23.4990   36.7040 N   0  0  0  0  0  0  0  0  0  0  0  0
   44.1990   24.2710   36.8450 C   0  0  0  0  0  0  0  0  0  0  0  0
   44.5020   25.3110   36.0610 N   0  0  0  0  0  0  0  0  0  0  0  0
   43.6160   25.5840   35.0840 C   0  0  0  0  0  0  0  0  0  0  0  0
   43.9290   26.6230   34.2230 C   0  0  0  0  0  0  0  0  0  0  0  0
   43.0920   26.8940   33.1500 C   0  0  0  0  0  0  0  0  0  0  0  0
   41.9680   26.0900   32.9680 C   0  0  0  0  0  0  0  0  0  0  0  0
   41.7030   25.0580   33.8560 C   0  0  0  0  0  0  0  0  0  0  0  0
   42.4760   24.7620   34.9750 C   0  0  0  0  0  0  0  0  0  0  0  0
   41.2030   23.8230   33.1340 N   0  0  0  0  0  0  0  0  0  0  0  0
   41.0950   22.5120   33.1140 N   0  0  0  0  0  0  0  0  0  0  0  0
   40.7480   21.8580   32.0950 C   0  0  0  0  0  0  0  0  0  0  0  0
   40.5270   22.7650   31.1020 C   0  0  0  0  0  0  0  0  0  0  0  0
   40.8180   23.8920   31.8090 C   0  0  0  0  0  0  0  0  0  0  0  0
   38.4200   23.6540   36.1170 N   0  0  0  0  0  0  0  0  0  0  0  0
   37.6090   24.1190   37.2290 C   0  0  0  0  0  0  0  0  0  0  0  0
   38.2390   23.4140   38.4050 C   0  0  0  0  0  0  0  0  0  0  0  0
   39.5420   22.8560   37.8700 C   0  0  0  0  0  0  0  0  0  0  0  0
   39.7580   23.7460   36.6550 C   0  0  1  0  0  0  0  0  0  0  0  0
   37.9570   23.2300   34.8310 C   0  0  0  0  0  0  0  0  0  0  0  0
   37.6600   21.8920   34.5160 C   0  0  0  0  0  0  0  0  0  0  0  0
   37.2200   21.6210   33.2260 C   0  0  0  0  0  0  0  0  0  0  0  0
   37.1110   22.7090   32.3580 N   0  0  0  0  0  0  0  0  0  0  0  0
   37.3980   23.9370   32.7060 C   0  0  0  0  0  0  0  0  0  0  0  0
   37.8380   24.2830   33.9500 N   0  0  0  0  0  0  0  0  0  0  0  0
   40.4382   23.3439   34.6460 H   0  0  0  0  0  0  0  0  0  0  0  0
   40.9247   22.1157   35.9409 H   0  0  0  0  0  0  0  0  0  0  0  0
   44.9019   24.0075   37.6490 H   0  0  0  0  0  0  0  0  0  0  0  0
   44.8329   27.2277   34.3884 H   0  0  0  0  0  0  0  0  0  0  0  0
   43.3100   27.7226   32.4602 H   0  0  0  0  0  0  0  0  0  0  0  0
   41.2914   26.2739   32.1204 H   0  0  0  0  0  0  0  0  0  0  0  0
   40.6435   20.7655   32.0208 H   0  0  0  0  0  0  0  0  0  0  0  0
   40.2122   22.6292   30.0568 H   0  0  0  0  0  0  0  0  0  0  0  0
   40.7453   24.8732   31.3171 H   0  0  0  0  0  0  0  0  0  0  0  0
   37.6729   25.2116   37.3389 H   0  0  0  0  0  0  0  0  0  0  0  0
   36.5364   23.9053   37.1109 H   0  0  0  0  0  0  0  0  0  0  0  0
   38.4286   24.1222   39.2250 H   0  0  0  0  0  0  0  0  0  0  0  0
   37.5880   22.6276   38.8147 H   0  0  0  0  0  0  0  0  0  0  0  0
   40.3579   22.9630   38.6000 H   0  0  0  0  0  0  0  0  0  0  0  0
   39.5178   21.7792   37.6464 H   0  0  0  0  0  0  0  0  0  0  0  0
   40.1447   24.7545   36.8634 H   0  0  0  0  0  0  0  0  0  0  0  0
   37.7716   21.0911   35.2617 H   0  0  0  0  0  0  0  0  0  0  0  0
   36.9698   20.5992   32.9045 H   0  0  0  0  0  0  0  0  0  0  0  0
   37.2782   24.7326   31.9559 H   0  0  0  0  0  0  0  0  0  0  0  0
  1  2  1  0
  1 21  1  0
  2  3  2  0
  3  4  1  0
  5  4  2  0
  6  5  1  0
  7  6  2  0
  8  7  1  0
  9  8  2  0
  9 10  1  0
 10 11  2  0
 11  6  1  0
 11  2  1  0
 12 10  1  0
 13 12  1  0
 14 13  2  0
 15 16  2  0
 15 14  1  0
 16 12  1  0
 17 21  1  0
 17 18  1  0
 18 19  1  0
 20 19  1  0
 21 20  1  0
 22 17  1  0
 23 22  2  0
 24 23  1  0
 25 26  1  0
 25 24  2  0
 26 27  2  0
 27 22  1  0
  1 28  1  0
  1 29  1  0
  4 30  1  0
  7 31  1  0
  8 32  1  0
  9 33  1  0
 14 34  1  0
 15 35  1  0
 16 36  1  0
 18 37  1  0
 18 38  1  0
 19 39  1  0
 19 40  1  0
 20 41  1  0
 20 42  1  0
 21 43  1  1
 23 44  1  0
 24 45  1  0
 26 46  1  0
M  ISO  8  28   8  29   8  30  14  31  14  32  14  33  14  34  14  35  14
M  ISO  8  36  14  37  13  38  13  39  13  40  13  41  13  42  13  43  13
M  ISO  3  44  14  45  14  46  14
M  END
>  <minimizedAffinity>  (1) 
-4.74830055

>  <minimizedRMSD>  (1) 
0.343960077

$$$$
