
     RDKit          3D

 42 45  0  0  1  0  0  0  0  0999 V2000
   38.6720   23.5790   35.7880 N   0  0  0  0  0  0  0  0  0  0  0  0
   38.0590   23.8260   37.0810 C   0  0  0  0  0  0  0  0  0  0  0  0
   38.9850   23.0880   38.0230 C   0  0  0  0  0  0  0  0  0  0  0  0
   40.1950   22.7610   37.1810 C   0  0  0  0  0  0  0  0  0  0  0  0
   40.0770   23.7730   36.0550 C   0  0  1  0  0  0  0  0  0  0  0  0
   37.9910   23.2420   34.5960 C   0  0  0  0  0  0  0  0  0  0  0  0
   37.5350   21.9460   34.2840 C   0  0  0  0  0  0  0  0  0  0  0  0
   36.9150   21.7390   33.0570 C   0  0  0  0  0  0  0  0  0  0  0  0
   36.7940   22.8490   32.2200 N   0  0  0  0  0  0  0  0  0  0  0  0
   37.2330   24.0550   32.5500 C   0  0  0  0  0  0  0  0  0  0  0  0
   37.8470   24.3150   33.7430 N   0  0  0  0  0  0  0  0  0  0  0  0
   40.9620   23.4480   34.8240 C   0  0  0  0  0  0  0  0  0  0  0  0
   42.1880   22.7570   35.0600 C   0  0  0  0  0  0  0  0  0  0  0  0
   42.3730   21.4320   35.1780 N   0  0  0  0  0  0  0  0  0  0  0  0
   43.5290   20.8530   35.6860 C   0  0  0  0  0  0  0  0  0  0  0  0
   44.5730   21.5710   36.1220 N   0  0  0  0  0  0  0  0  0  0  0  0
   44.4500   22.9020   36.0270 C   0  0  0  0  0  0  0  0  0  0  0  0
   45.5280   23.6800   36.4440 C   0  0  0  0  0  0  0  0  0  0  0  0
   45.4650   25.0440   36.3080 C   0  0  0  0  0  0  0  0  0  0  0  0
   44.3380   25.5970   35.7410 C   0  0  0  0  0  0  0  0  0  0  0  0
   43.2750   24.8270   35.3260 C   0  0  0  0  0  0  0  0  0  0  0  0
   43.2740   23.4390   35.4870 C   0  0  0  0  0  0  0  0  0  0  0  0
   42.5150   25.3190   34.2010 C   0  0  0  0  0  0  0  0  0  0  0  0
   43.7100   26.1350   33.6150 F   0  0  0  0  0  0  0  0  0  0  0  0
   42.0570   25.5720   33.0820 F   0  0  0  0  0  0  0  0  0  0  0  0
   41.9450   26.5240   34.6970 F   0  0  0  0  0  0  0  0  0  0  0  0
   38.0321   24.9015   37.3102 H   0  0  0  0  0  0  0  0  0  0  0  0
   37.0120   23.4943   37.1427 H   0  0  0  0  0  0  0  0  0  0  0  0
   39.2641   23.7266   38.8741 H   0  0  0  0  0  0  0  0  0  0  0  0
   38.5175   22.1894   38.4519 H   0  0  0  0  0  0  0  0  0  0  0  0
   41.1268   22.9010   37.7485 H   0  0  0  0  0  0  0  0  0  0  0  0
   40.2280   21.7165   36.8377 H   0  0  0  0  0  0  0  0  0  0  0  0
   40.4057   24.7949   36.2951 H   0  0  0  0  0  0  0  0  0  0  0  0
   37.6665   21.1170   34.9949 H   0  0  0  0  0  0  0  0  0  0  0  0
   36.5383   20.7489   32.7605 H   0  0  0  0  0  0  0  0  0  0  0  0
   37.0978   24.8799   31.8350 H   0  0  0  0  0  0  0  0  0  0  0  0
   41.2097   24.4016   34.3349 H   0  0  0  0  0  0  0  0  0  0  0  0
   40.3596   22.7533   34.2203 H   0  0  0  0  0  0  0  0  0  0  0  0
   43.5901   19.7557   35.7324 H   0  0  0  0  0  0  0  0  0  0  0  0
   46.4206   23.2056   36.8779 H   0  0  0  0  0  0  0  0  0  0  0  0
   46.2959   25.6816   36.6443 H   0  0  0  0  0  0  0  0  0  0  0  0
   44.2858   26.6886   35.6158 H   0  0  0  0  0  0  0  0  0  0  0  0
  1  5  1  0
  1  2  1  0
  2  3  1  0
  4  3  1  0
  5  4  1  0
  6  1  1  0
  7  6  2  0
  8  7  1  0
  9 10  1  0
  9  8  2  0
 10 11  2  0
 11  6  1  0
 12 13  1  0
 12  5  1  0
 13 14  2  0
 13 22  1  0
 14 15  1  0
 15 16  2  0
 17 16  1  0
 17 18  2  0
 19 18  1  0
 20 19  2  0
 21 22  2  0
 21 20  1  0
 22 17  1  0
 23 26  1  0
 23 21  1  0
 24 23  1  0
 25 23  1  0
  2 27  1  0
  2 28  1  0
  3 29  1  0
  3 30  1  0
  4 31  1  0
  4 32  1  0
  5 33  1  1
  7 34  1  0
  8 35  1  0
 10 36  1  0
 12 37  1  0
 12 38  1  0
 15 39  1  0
 18 40  1  0
 19 41  1  0
 20 42  1  0
M  ISO  8  27  13  28  13  29  13  30  13  31  13  32  13  33  13  34  14
M  ISO  8  35  14  36  14  37   8  38   8  39  14  40  14  41  14  42  14
M  END
>  <minimizedAffinity>  (1) 
-4.74418783

>  <minimizedRMSD>  (1) 
2.34833097

$$$$
