
     RDKit          3D

 46 51  0  0  1  0  0  0  0  0999 V2000
   40.9150   23.2170   35.6410 C   0  0  0  0  0  0  0  0  0  0  0  0
   42.2350   23.7710   35.7250 C   0  0  0  0  0  0  0  0  0  0  0  0
   43.1470   23.5220   36.6810 N   0  0  0  0  0  0  0  0  0  0  0  0
   44.3030   24.2840   36.8420 C   0  0  0  0  0  0  0  0  0  0  0  0
   44.6120   25.3350   36.0760 N   0  0  0  0  0  0  0  0  0  0  0  0
   43.7360   25.6310   35.0980 C   0  0  0  0  0  0  0  0  0  0  0  0
   44.0480   26.6850   34.2550 C   0  0  0  0  0  0  0  0  0  0  0  0
   43.2220   26.9820   33.1890 C   0  0  0  0  0  0  0  0  0  0  0  0
   42.0910   26.1840   32.9850 C   0  0  0  0  0  0  0  0  0  0  0  0
   41.8230   25.1330   33.8550 C   0  0  0  0  0  0  0  0  0  0  0  0
   42.5930   24.8120   34.9720 C   0  0  0  0  0  0  0  0  0  0  0  0
   41.2860   23.8370   33.1260 C   0  0  1  0  0  0  0  0  0  0  0  0
   41.0240   22.5460   32.9720 N   0  0  0  0  0  0  0  0  0  0  0  0
   40.6110   22.1210   31.8900 O   0  0  0  0  0  0  0  0  0  0  0  0
   40.5090   23.0910   31.0680 C   0  0  0  0  0  0  0  0  0  0  0  0
   40.9120   24.0070   31.8640 N   0  0  0  0  0  0  0  0  0  0  0  0
   38.5280   23.6580   36.1570 N   0  0  0  0  0  0  0  0  0  0  0  0
   37.7360   24.0740   37.3040 C   0  0  0  0  0  0  0  0  0  0  0  0
   38.4080   23.3470   38.4440 C   0  0  0  0  0  0  0  0  0  0  0  0
   39.7000   22.8290   37.8590 C   0  0  0  0  0  0  0  0  0  0  0  0
   39.8760   23.7540   36.6600 C   0  0  1  0  0  0  0  0  0  0  0  0
   38.0330   23.2760   34.8800 C   0  0  0  0  0  0  0  0  0  0  0  0
   37.7350   21.9450   34.5250 C   0  0  0  0  0  0  0  0  0  0  0  0
   37.2730   21.7010   33.2380 C   0  0  0  0  0  0  0  0  0  0  0  0
   37.1390   22.8100   32.3980 N   0  0  0  0  0  0  0  0  0  0  0  0
   37.4280   24.0360   32.7780 C   0  0  0  0  0  0  0  0  0  0  0  0
   37.8890   24.3500   34.0250 N   0  0  0  0  0  0  0  0  0  0  0  0
   40.5299   23.4213   34.6311 H   0  0  0  0  0  0  0  0  0  0  0  0
   41.0307   22.1488   35.8767 H   0  0  0  0  0  0  0  0  0  0  0  0
   45.0007   24.0045   37.6452 H   0  0  0  0  0  0  0  0  0  0  0  0
   44.9526   27.2846   34.4345 H   0  0  0  0  0  0  0  0  0  0  0  0
   43.4473   27.8239   32.5178 H   0  0  0  0  0  0  0  0  0  0  0  0
   41.4167   26.3872   32.1400 H   0  0  0  0  0  0  0  0  0  0  0  0
   42.2703   23.6932   32.6565 H   0  0  0  0  0  0  0  0  0  0  0  0
   41.1658   22.9734   30.1935 H   0  0  0  0  0  0  0  0  0  0  0  0
   39.5249   23.2408   30.5999 H   0  0  0  0  0  0  0  0  0  0  0  0
   37.7821   25.1639   37.4450 H   0  0  0  0  0  0  0  0  0  0  0  0
   36.6652   23.8421   37.2057 H   0  0  0  0  0  0  0  0  0  0  0  0
   38.6083   24.0350   39.2786 H   0  0  0  0  0  0  0  0  0  0  0  0
   37.7813   22.5392   38.8498 H   0  0  0  0  0  0  0  0  0  0  0  0
   40.5330   22.9288   38.5705 H   0  0  0  0  0  0  0  0  0  0  0  0
   39.6825   21.7591   37.6042 H   0  0  0  0  0  0  0  0  0  0  0  0
   40.2530   24.7643   36.8773 H   0  0  0  0  0  0  0  0  0  0  0  0
   37.8644   21.1240   35.2456 H   0  0  0  0  0  0  0  0  0  0  0  0
   37.0249   20.6851   32.8968 H   0  0  0  0  0  0  0  0  0  0  0  0
   37.2911   24.8517   32.0529 H   0  0  0  0  0  0  0  0  0  0  0  0
  1  2  1  0
  1 21  1  0
  2  3  2  0
  3  4  1  0
  5  4  2  0
  6  5  1  0
  7  6  2  0
  8  7  1  0
  9  8  2  0
  9 10  1  0
 10 11  2  0
 11  6  1  0
 11  2  1  0
 12 10  1  0
 13 14  1  0
 13 12  1  0
 15 14  1  0
 16 15  1  0
 16 13  1  0
 16 12  1  0
 17 21  1  0
 17 18  1  0
 18 19  1  0
 20 19  1  0
 21 20  1  0
 22 17  1  0
 23 22  2  0
 24 23  1  0
 25 26  1  0
 25 24  2  0
 26 27  2  0
 27 22  1  0
  1 28  1  0
  1 29  1  0
  4 30  1  0
  7 31  1  0
  8 32  1  0
  9 33  1  0
 12 34  1  1
 15 35  1  0
 15 36  1  0
 18 37  1  0
 18 38  1  0
 19 39  1  0
 19 40  1  0
 20 41  1  0
 20 42  1  0
 21 43  1  1
 23 44  1  0
 24 45  1  0
 26 46  1  0
M  ISO  8  28   8  29   8  30  14  31  14  32  14  33  14  34  13  35  13
M  ISO  8  36  13  37  13  38  13  39  13  40  13  41  13  42  13  43  13
M  ISO  3  44  14  45  14  46  14
M  END
>  <minimizedAffinity>  (1) 
-4.74242115

>  <minimizedRMSD>  (1) 
0.318995088

$$$$
