
     RDKit          3D

 42 45  0  0  1  0  0  0  0  0999 V2000
   38.5110   23.6360   36.0910 N   0  0  0  0  0  0  0  0  0  0  0  0
   37.7270   24.0300   37.2510 C   0  0  0  0  0  0  0  0  0  0  0  0
   38.4450   23.3130   38.3760 C   0  0  0  0  0  0  0  0  0  0  0  0
   39.7540   22.8680   37.7710 C   0  0  0  0  0  0  0  0  0  0  0  0
   39.8660   23.7770   36.5630 C   0  0  1  0  0  0  0  0  0  0  0  0
   38.0000   23.2260   34.8400 C   0  0  0  0  0  0  0  0  0  0  0  0
   37.7210   21.8910   34.4950 C   0  0  0  0  0  0  0  0  0  0  0  0
   37.2580   21.6150   33.2150 C   0  0  0  0  0  0  0  0  0  0  0  0
   37.1050   22.7070   32.3600 N   0  0  0  0  0  0  0  0  0  0  0  0
   37.3750   23.9480   32.7210 C   0  0  0  0  0  0  0  0  0  0  0  0
   37.8270   24.2450   33.9650 N   0  0  0  0  0  0  0  0  0  0  0  0
   40.9100   23.3030   35.5210 C   0  0  0  0  0  0  0  0  0  0  0  0
   42.2380   23.8120   35.6910 C   0  0  0  0  0  0  0  0  0  0  0  0
   43.0930   23.5100   36.6810 N   0  0  0  0  0  0  0  0  0  0  0  0
   44.2730   24.2310   36.9030 C   0  0  0  0  0  0  0  0  0  0  0  0
   44.6490   25.2750   36.1740 N   0  0  0  0  0  0  0  0  0  0  0  0
   43.8260   25.6330   35.1520 C   0  0  0  0  0  0  0  0  0  0  0  0
   44.2140   26.6700   34.3360 C   0  0  0  0  0  0  0  0  0  0  0  0
   43.4320   26.9670   33.2370 C   0  0  0  0  0  0  0  0  0  0  0  0
   42.3180   26.2280   32.9770 C   0  0  0  0  0  0  0  0  0  0  0  0
   41.9570   25.1930   33.8240 C   0  0  0  0  0  0  0  0  0  0  0  0
   42.6630   24.8580   34.9670 C   0  0  0  0  0  0  0  0  0  0  0  0
   41.0820   24.3210   33.0360 C   0  0  0  0  0  0  0  0  0  0  0  0
   37.7470   25.1203   37.3951 H   0  0  0  0  0  0  0  0  0  0  0  0
   36.6600   23.7744   37.1723 H   0  0  0  0  0  0  0  0  0  0  0  0
   38.6200   23.9946   39.2215 H   0  0  0  0  0  0  0  0  0  0  0  0
   37.8609   22.4693   38.7723 H   0  0  0  0  0  0  0  0  0  0  0  0
   40.5904   23.0243   38.4681 H   0  0  0  0  0  0  0  0  0  0  0  0
   39.7882   21.7964   37.5252 H   0  0  0  0  0  0  0  0  0  0  0  0
   40.2126   24.8002   36.7701 H   0  0  0  0  0  0  0  0  0  0  0  0
   37.8668   21.0812   35.2251 H   0  0  0  0  0  0  0  0  0  0  0  0
   37.0243   20.5897   32.8923 H   0  0  0  0  0  0  0  0  0  0  0  0
   37.2298   24.7614   31.9948 H   0  0  0  0  0  0  0  0  0  0  0  0
   40.5562   23.6097   34.5256 H   0  0  0  0  0  0  0  0  0  0  0  0
   40.9892   22.2138   35.6527 H   0  0  0  0  0  0  0  0  0  0  0  0
   44.9262   23.9139   37.7293 H   0  0  0  0  0  0  0  0  0  0  0  0
   45.1242   27.2482   34.5532 H   0  0  0  0  0  0  0  0  0  0  0  0
   43.7085   27.7991   32.5728 H   0  0  0  0  0  0  0  0  0  0  0  0
   41.7037   26.4534   32.0928 H   0  0  0  0  0  0  0  0  0  0  0  0
   40.4680   23.7091   33.7132 H   0  0  0  0  0  0  0  0  0  0  0  0
   40.4266   24.9358   32.4016 H   0  0  0  0  0  0  0  0  0  0  0  0
   41.6946   23.6635   32.4016 H   0  0  0  0  0  0  0  0  0  0  0  0
  1  5  1  0
  1  2  1  0
  2  3  1  0
  4  3  1  0
  5  4  1  0
  6  1  1  0
  7  6  2  0
  8  7  1  0
  9 10  1  0
  9  8  2  0
 10 11  2  0
 11  6  1  0
 12 13  1  0
 12  5  1  0
 13 14  2  0
 14 15  1  0
 16 15  2  0
 17 16  1  0
 18 17  2  0
 19 18  1  0
 20 19  2  0
 20 21  1  0
 21 22  2  0
 22 17  1  0
 22 13  1  0
 23 21  1  0
  2 24  1  0
  2 25  1  0
  3 26  1  0
  3 27  1  0
  4 28  1  0
  4 29  1  0
  5 30  1  1
  7 31  1  0
  8 32  1  0
 10 33  1  0
 12 34  1  0
 12 35  1  0
 15 36  1  0
 18 37  1  0
 19 38  1  0
 20 39  1  0
 23 40  1  0
 23 41  1  0
 23 42  1  0
M  ISO  8  24  13  25  13  26  13  27  13  28  13  29  13  30  13  31  14
M  ISO  8  32  14  33  14  34   8  35   8  36  14  37  14  38  14  39  14
M  ISO  3  40   8  41   8  42   8
M  END
>  <minimizedAffinity>  (1) 
-4.74078941

>  <minimizedRMSD>  (1) 
0.337852776

$$$$
