
     RDKit          3D

 46 50  0  0  1  0  0  0  0  0999 V2000
   38.8210   23.8200   35.8130 N   0  0  0  0  0  0  0  0  0  0  0  0
   38.2050   24.0010   37.1170 C   0  0  0  0  0  0  0  0  0  0  0  0
   39.0370   23.0870   37.9950 C   0  0  0  0  0  0  0  0  0  0  0  0
   40.2310   22.7130   37.1330 C   0  0  0  0  0  0  0  0  0  0  0  0
   40.2310   23.8460   36.1200 C   0  0  1  0  0  0  0  0  0  0  0  0
   38.1400   23.6580   34.5860 C   0  0  0  0  0  0  0  0  0  0  0  0
   37.7470   22.4260   34.0440 C   0  0  0  0  0  0  0  0  0  0  0  0
   37.1150   22.4100   32.8060 C   0  0  0  0  0  0  0  0  0  0  0  0
   36.9190   23.6380   32.1930 N   0  0  0  0  0  0  0  0  0  0  0  0
   37.2960   24.7730   32.7310 C   0  0  0  0  0  0  0  0  0  0  0  0
   37.9140   24.8130   33.9370 N   0  0  0  0  0  0  0  0  0  0  0  0
   41.1060   23.5640   34.8730 C   0  0  0  0  0  0  0  0  0  0  0  0
   42.4930   23.3120   35.1370 C   0  0  0  0  0  0  0  0  0  0  0  0
   43.0400   22.1590   35.5570 N   0  0  0  0  0  0  0  0  0  0  0  0
   44.3640   22.0810   36.0050 C   0  0  0  0  0  0  0  0  0  0  0  0
   45.1890   23.1220   36.0700 N   0  0  0  0  0  0  0  0  0  0  0  0
   44.6890   24.3150   35.6540 C   0  0  0  0  0  0  0  0  0  0  0  0
   45.5360   25.3990   35.6250 C   0  0  0  0  0  0  0  0  0  0  0  0
   45.0800   26.5860   35.0930 C   0  0  0  0  0  0  0  0  0  0  0  0
   43.8170   26.6550   34.5980 C   0  0  0  0  0  0  0  0  0  0  0  0
   42.9940   25.5470   34.6490 C   0  0  0  0  0  0  0  0  0  0  0  0
   43.3680   24.3330   35.2000 C   0  0  0  0  0  0  0  0  0  0  0  0
   41.8840   25.8310   33.7030 C   0  0  0  0  0  0  0  0  0  0  0  0
   41.6250   27.1700   33.1280 C   0  0  0  0  0  0  0  0  0  0  0  0
   40.8270   26.9240   34.2640 C   0  0  0  0  0  0  0  0  0  0  0  0
   38.2763   25.0470   37.4499 H   0  0  0  0  0  0  0  0  0  0  0  0
   37.1298   23.7694   37.1330 H   0  0  0  0  0  0  0  0  0  0  0  0
   39.3636   23.6130   38.9042 H   0  0  0  0  0  0  0  0  0  0  0  0
   38.4730   22.2051   38.3329 H   0  0  0  0  0  0  0  0  0  0  0  0
   41.1617   22.6964   37.7191 H   0  0  0  0  0  0  0  0  0  0  0  0
   40.1690   21.7092   36.6873 H   0  0  0  0  0  0  0  0  0  0  0  0
   40.6471   24.8006   36.4745 H   0  0  0  0  0  0  0  0  0  0  0  0
   37.9354   21.4890   34.5886 H   0  0  0  0  0  0  0  0  0  0  0  0
   36.7871   21.4708   32.3366 H   0  0  0  0  0  0  0  0  0  0  0  0
   37.1067   25.7130   32.1920 H   0  0  0  0  0  0  0  0  0  0  0  0
   41.0407   24.4380   34.2083 H   0  0  0  0  0  0  0  0  0  0  0  0
   40.7099   22.6390   34.4286 H   0  0  0  0  0  0  0  0  0  0  0  0
   44.7450   21.0992   36.3225 H   0  0  0  0  0  0  0  0  0  0  0  0
   46.5597   25.3197   36.0197 H   0  0  0  0  0  0  0  0  0  0  0  0
   45.7337   27.4704   35.0695 H   0  0  0  0  0  0  0  0  0  0  0  0
   43.4497   27.5932   34.1566 H   0  0  0  0  0  0  0  0  0  0  0  0
   41.9423   24.8212   33.2706 H   0  0  0  0  0  0  0  0  0  0  0  0
   42.4146   27.9329   33.1951 H   0  0  0  0  0  0  0  0  0  0  0  0
   41.3593   27.4835   32.1076 H   0  0  0  0  0  0  0  0  0  0  0  0
   39.7451   26.7563   34.1572 H   0  0  0  0  0  0  0  0  0  0  0  0
   40.6463   27.4263   35.2258 H   0  0  0  0  0  0  0  0  0  0  0  0
  1  5  1  0
  1  2  1  0
  2  3  1  0
  4  3  1  0
  5  4  1  0
  6  1  1  0
  7  6  2  0
  8  7  1  0
  9 10  1  0
  9  8  2  0
 10 11  2  0
 11  6  1  0
 12 13  1  0
 12  5  1  0
 13 22  1  0
 13 14  2  0
 14 15  1  0
 15 16  2  0
 17 16  1  0
 18 17  2  0
 19 18  1  0
 20 21  1  0
 20 19  2  0
 21 22  2  0
 22 17  1  0
 23 25  1  0
 23 21  1  0
 24 23  1  0
 24 25  1  0
  2 26  1  0
  2 27  1  0
  3 28  1  0
  3 29  1  0
  4 30  1  0
  4 31  1  0
  5 32  1  1
  7 33  1  0
  8 34  1  0
 10 35  1  0
 12 36  1  0
 12 37  1  0
 15 38  1  0
 18 39  1  0
 19 40  1  0
 20 41  1  0
 23 42  1  0
 24 43  1  0
 24 44  1  0
 25 45  1  0
 25 46  1  0
M  ISO  8  26  13  27  13  28  13  29  13  30  13  31  13  32  13  33  14
M  ISO  8  34  14  35  14  36   8  37   8  38  14  39  14  40  14  41  14
M  ISO  5  42  13  43  13  44  13  45  13  46  13
M  END
>  <minimizedAffinity>  (1) 
-4.69035864

>  <minimizedRMSD>  (1) 
1.61446977

$$$$
