
     RDKit          3D

 40 43  0  0  1  0  0  0  0  0999 V2000
   38.5290   23.6420   35.9290 N   0  0  0  0  0  0  0  0  0  0  0  0
   37.7270   23.9310   37.1070 C   0  0  0  0  0  0  0  0  0  0  0  0
   38.4930   23.2320   38.2060 C   0  0  0  0  0  0  0  0  0  0  0  0
   39.8130   22.8620   37.5740 C   0  0  0  0  0  0  0  0  0  0  0  0
   39.8800   23.8180   36.3950 C   0  0  1  0  0  0  0  0  0  0  0  0
   38.0350   23.2770   34.6570 C   0  0  0  0  0  0  0  0  0  0  0  0
   37.8610   21.9490   34.2340 C   0  0  0  0  0  0  0  0  0  0  0  0
   37.4150   21.7130   32.9350 C   0  0  0  0  0  0  0  0  0  0  0  0
   37.1730   22.8260   32.1450 N   0  0  0  0  0  0  0  0  0  0  0  0
   37.3470   24.0830   32.5800 C   0  0  0  0  0  0  0  0  0  0  0  0
   37.7780   24.3550   33.8410 N   0  0  0  0  0  0  0  0  0  0  0  0
   40.9340   23.4520   35.3380 C   0  0  0  0  0  0  0  0  0  0  0  0
   42.2690   23.9520   35.6050 C   0  0  0  0  0  0  0  0  0  0  0  0
   43.0580   23.6120   36.6340 N   0  0  0  0  0  0  0  0  0  0  0  0
   44.2520   24.2630   36.9150 C   0  0  0  0  0  0  0  0  0  0  0  0
   44.7210   25.2830   36.2030 N   0  0  0  0  0  0  0  0  0  0  0  0
   43.9740   25.6850   35.1380 C   0  0  0  0  0  0  0  0  0  0  0  0
   44.4500   26.7080   34.3610 C   0  0  0  0  0  0  0  0  0  0  0  0
   43.7490   27.1030   33.2290 C   0  0  0  0  0  0  0  0  0  0  0  0
   42.5700   26.4320   32.9100 C   0  0  0  0  0  0  0  0  0  0  0  0
   42.1360   25.3990   33.7360 C   0  0  0  0  0  0  0  0  0  0  0  0
   42.7770   24.9770   34.8940 C   0  0  0  0  0  0  0  0  0  0  0  0
   41.1840   24.1860   32.9080 S   0  0  0  0  0  0  0  0  0  0  0  0
   37.6675   25.0138   37.2911 H   0  0  0  0  0  0  0  0  0  0  0  0
   36.6832   23.5953   37.0191 H   0  0  0  0  0  0  0  0  0  0  0  0
   38.6474   23.9063   39.0612 H   0  0  0  0  0  0  0  0  0  0  0  0
   37.9563   22.3543   38.5954 H   0  0  0  0  0  0  0  0  0  0  0  0
   40.6490   23.0267   38.2697 H   0  0  0  0  0  0  0  0  0  0  0  0
   39.8858   21.8020   37.2892 H   0  0  0  0  0  0  0  0  0  0  0  0
   40.1879   24.8454   36.6394 H   0  0  0  0  0  0  0  0  0  0  0  0
   38.0727   21.1114   34.9149 H   0  0  0  0  0  0  0  0  0  0  0  0
   37.2623   20.6922   32.5547 H   0  0  0  0  0  0  0  0  0  0  0  0
   37.1348   24.9185   31.8966 H   0  0  0  0  0  0  0  0  0  0  0  0
   40.6038   23.8600   34.3713 H   0  0  0  0  0  0  0  0  0  0  0  0
   41.0094   22.3546   35.3461 H   0  0  0  0  0  0  0  0  0  0  0  0
   44.8430   23.9151   37.7751 H   0  0  0  0  0  0  0  0  0  0  0  0
   45.3867   27.2162   34.6335 H   0  0  0  0  0  0  0  0  0  0  0  0
   44.1159   27.9265   32.5988 H   0  0  0  0  0  0  0  0  0  0  0  0
   41.9908   26.7145   32.0185 H   0  0  0  0  0  0  0  0  0  0  0  0
   40.5583   23.3888   33.8299 H   0  0  0  0  0  0  0  0  0  0  0  0
  1  5  1  0
  1  2  1  0
  2  3  1  0
  4  3  1  0
  5  4  1  0
  6  1  1  0
  7  6  2  0
  8  7  1  0
  9 10  1  0
  9  8  2  0
 10 11  2  0
 11  6  1  0
 12 13  1  0
 12  5  1  0
 13 14  2  0
 14 15  1  0
 16 15  2  0
 17 16  1  0
 18 17  2  0
 19 18  1  0
 20 19  2  0
 20 21  1  0
 21 22  2  0
 22 17  1  0
 22 13  1  0
 23 21  1  0
  2 24  1  0
  2 25  1  0
  3 26  1  0
  3 27  1  0
  4 28  1  0
  4 29  1  0
  5 30  1  1
  7 31  1  0
  8 32  1  0
 10 33  1  0
 12 34  1  0
 12 35  1  0
 15 36  1  0
 18 37  1  0
 19 38  1  0
 20 39  1  0
 23 40  1  0
M  ISO  8  24  13  25  13  26  13  27  13  28  13  29  13  30  13  31  14
M  ISO  8  32  14  33  14  34   8  35   8  36  14  37  14  38  14  39  14
M  ISO  1  40  11
M  END
>  <minimizedAffinity>  (1) 
-4.6274457

>  <minimizedRMSD>  (1) 
0.510523856

$$$$
