
     RDKit          3D

 33 34  0  0  0  0  0  0  0  0999 V2000
   38.3420   26.0550   35.0320 C   0  0  0  0  0  0  0  0  0  0  0  0
   37.7470   22.7880   36.5750 C   0  0  0  0  0  0  0  0  0  0  0  0
   37.7240   23.0610   37.9550 C   0  0  0  0  0  0  0  0  0  0  0  0
   37.9210   24.4120   38.3550 C   0  0  0  0  0  0  0  0  0  0  0  0
   38.1150   25.3390   37.3860 N   0  0  0  0  0  0  0  0  0  0  0  0
   38.1290   25.0330   36.0740 C   0  0  0  0  0  0  0  0  0  0  0  0
   37.9440   23.7560   35.6670 N   0  0  0  0  0  0  0  0  0  0  0  0
   39.5090   26.9620   35.4250 C   0  0  0  0  0  0  0  0  0  0  0  0
   37.0990   26.9180   34.9070 C   0  0  0  0  0  0  0  0  0  0  0  0
   38.7110   25.4690   33.6940 C   0  0  0  0  0  0  0  0  0  0  0  0
   38.1130   26.1110   32.5680 N   0  0  0  0  0  0  0  0  0  0  0  0
   38.8100   27.2140   32.1640 C   0  0  0  0  0  0  0  0  0  0  0  0
   38.3790   27.9730   31.0830 C   0  0  0  0  0  0  0  0  0  0  0  0
   37.2270   27.5630   30.4450 C   0  0  0  0  0  0  0  0  0  0  0  0
   36.7040   28.2710   29.3310 N   0  0  0  0  0  0  0  0  0  0  0  0
   36.5480   26.4740   30.8530 N   0  0  0  0  0  0  0  0  0  0  0  0
   36.9950   25.7550   31.9130 C   0  0  0  0  0  0  0  0  0  0  0  0
   36.4080   24.7360   32.3350 O   0  0  0  0  0  0  0  0  0  0  0  0
   37.5996   21.7535   36.2313 H   0  0  0  0  0  0  0  0  0  0  0  0
   37.5605   22.2629   38.6941 H   0  0  0  0  0  0  0  0  0  0  0  0
   37.9160   24.6952   39.4179 H   0  0  0  0  0  0  0  0  0  0  0  0
   39.5784   27.0159   36.5215 H   0  0  0  0  0  0  0  0  0  0  0  0
   40.4452   26.5521   35.0181 H   0  0  0  0  0  0  0  0  0  0  0  0
   39.3428   27.9704   35.0181 H   0  0  0  0  0  0  0  0  0  0  0  0
   36.7287   27.1751   35.9104 H   0  0  0  0  0  0  0  0  0  0  0  0
   37.3461   27.8398   34.3600 H   0  0  0  0  0  0  0  0  0  0  0  0
   36.3217   26.3643   34.3600 H   0  0  0  0  0  0  0  0  0  0  0  0
   39.8035   25.5334   33.5830 H   0  0  0  0  0  0  0  0  0  0  0  0
   38.3320   24.4364   33.6959 H   0  0  0  0  0  0  0  0  0  0  0  0
   39.7245   27.5052   32.7015 H   0  0  0  0  0  0  0  0  0  0  0  0
   38.9330   28.8631   30.7501 H   0  0  0  0  0  0  0  0  0  0  0  0
   37.1874   29.1106   28.9812 H   0  0  0  0  0  0  0  0  0  0  0  0
   35.8411   27.9451   28.8726 H   0  0  0  0  0  0  0  0  0  0  0  0
  1  8  1  0
  1  6  1  0
  2  3  2  0
  3  4  1  0
  5  4  2  0
  6  5  1  0
  7  6  2  0
  7  2  1  0
  9  1  1  0
 10  1  1  0
 11 10  1  0
 12 11  1  0
 13 12  2  0
 14 16  2  0
 14 13  1  0
 15 14  1  0
 16 17  1  0
 17 18  2  0
 17 11  1  0
  2 19  1  0
  3 20  1  0
  4 21  1  0
  8 22  1  0
  8 23  1  0
  8 24  1  0
  9 25  1  0
  9 26  1  0
  9 27  1  0
 10 28  1  0
 10 29  1  0
 12 30  1  0
 13 31  1  0
 15 32  1  0
 15 33  1  0
M  ISO  8  19  14  20  14  21  14  22   8  23   8  24   8  25   8  26   8
M  ISO  5  27   8  28   8  29   8  30  14  31  14
M  END
>  <minimizedAffinity>  (1) 
-4.68939114

>  <minimizedRMSD>  (1) 
2.66145039

$$$$
