
     RDKit          3D

 31 32  0  0  0  0  0  0  0  0999 V2000
   38.8210   25.7090   34.9780 C   0  0  0  0  0  0  0  0  0  0  0  0
   37.9720   24.3290   38.2650 C   0  0  0  0  0  0  0  0  0  0  0  0
   38.8030   23.1880   38.3620 C   0  0  0  0  0  0  0  0  0  0  0  0
   39.6550   22.9060   37.2780 C   0  0  0  0  0  0  0  0  0  0  0  0
   39.6300   23.7430   36.2100 N   0  0  0  0  0  0  0  0  0  0  0  0
   38.8230   24.8290   36.1460 C   0  0  0  0  0  0  0  0  0  0  0  0
   38.0040   25.1090   37.1730 N   0  0  0  0  0  0  0  0  0  0  0  0
   39.9620   25.3770   34.0230 C   0  0  0  0  0  0  0  0  0  0  0  0
   38.9800   27.1510   35.4240 C   0  0  0  0  0  0  0  0  0  0  0  0
   37.5390   25.6030   34.1630 C   0  0  0  0  0  0  0  0  0  0  0  0
   37.2460   26.8100   33.3770 C   0  0  0  0  0  0  0  0  0  0  0  0
   36.4180   27.8100   33.8720 C   0  0  0  0  0  0  0  0  0  0  0  0
   36.0920   28.9840   33.1880 C   0  0  0  0  0  0  0  0  0  0  0  0
   36.6320   29.1700   31.9220 C   0  0  0  0  0  0  0  0  0  0  0  0
   37.4550   28.1700   31.4360 C   0  0  0  0  0  0  0  0  0  0  0  0
   37.7290   27.0600   32.1480 N   0  0  0  0  0  0  0  0  0  0  0  0
   37.2926   24.5795   39.0931 H   0  0  0  0  0  0  0  0  0  0  0  0
   38.7838   22.5439   39.2535 H   0  0  0  0  0  0  0  0  0  0  0  0
   40.3224   22.0318   37.2958 H   0  0  0  0  0  0  0  0  0  0  0  0
   40.8602   25.1156   34.6017 H   0  0  0  0  0  0  0  0  0  0  0  0
   39.6736   24.5255   33.3891 H   0  0  0  0  0  0  0  0  0  0  0  0
   40.1755   26.2503   33.3891 H   0  0  0  0  0  0  0  0  0  0  0  0
   38.9850   27.1964   36.5230 H   0  0  0  0  0  0  0  0  0  0  0  0
   39.9278   27.5524   35.0361 H   0  0  0  0  0  0  0  0  0  0  0  0
   38.1424   27.7493   35.0361 H   0  0  0  0  0  0  0  0  0  0  0  0
   37.6339   24.7518   33.4727 H   0  0  0  0  0  0  0  0  0  0  0  0
   36.7113   25.4702   34.8752 H   0  0  0  0  0  0  0  0  0  0  0  0
   35.9882   27.6672   34.8744 H   0  0  0  0  0  0  0  0  0  0  0  0
   35.4286   29.7372   33.6380 H   0  0  0  0  0  0  0  0  0  0  0  0
   36.4148   30.0726   31.3319 H   0  0  0  0  0  0  0  0  0  0  0  0
   37.8997   28.2850   30.4365 H   0  0  0  0  0  0  0  0  0  0  0  0
  1  9  1  0
  1  6  1  0
  2  3  2  0
  4  3  1  0
  5  4  2  0
  6  5  1  0
  6  7  2  0
  7  2  1  0
  8  1  1  0
 10  1  1  0
 11 12  2  0
 11 10  1  0
 13 12  1  0
 14 13  2  0
 15 14  1  0
 15 16  2  0
 16 11  1  0
  2 17  1  0
  3 18  1  0
  4 19  1  0
  8 20  1  0
  8 21  1  0
  8 22  1  0
  9 23  1  0
  9 24  1  0
  9 25  1  0
 10 26  1  0
 10 27  1  0
 12 28  1  0
 13 29  1  0
 14 30  1  0
 15 31  1  0
M  ISO  8  17  14  18  14  19  14  20   8  21   8  22   8  23   8  24   8
M  ISO  7  25   8  26   8  27   8  28  14  29  14  30  14  31  14
M  END
>  <minimizedAffinity>  (1) 
-4.373703

>  <minimizedRMSD>  (1) 
2.6691463

$$$$
