
     RDKit          3D

 35 37  0  0  0  0  0  0  0  0999 V2000
   38.8000   25.8730   35.1630 C   0  0  0  0  0  0  0  0  0  0  0  0
   39.4790   22.9120   37.2180 C   0  0  0  0  0  0  0  0  0  0  0  0
   38.6930   23.1210   38.3730 C   0  0  0  0  0  0  0  0  0  0  0  0
   37.9250   24.3000   38.4320 C   0  0  0  0  0  0  0  0  0  0  0  0
   37.9790   25.1710   37.3810 N   0  0  0  0  0  0  0  0  0  0  0  0
   38.7450   24.9290   36.2980 C   0  0  0  0  0  0  0  0  0  0  0  0
   39.4960   23.8020   36.2090 N   0  0  0  0  0  0  0  0  0  0  0  0
   38.7310   27.3100   35.6680 C   0  0  0  0  0  0  0  0  0  0  0  0
   37.5980   25.6370   34.2540 C   0  0  0  0  0  0  0  0  0  0  0  0
   40.0670   25.7470   34.3530 C   0  0  0  0  0  0  0  0  0  0  0  0
   39.9080   25.9480   32.9510 N   0  0  0  0  0  0  0  0  0  0  0  0
   39.9680   27.1870   32.3830 C   0  0  0  0  0  0  0  0  0  0  0  0
   39.7840   27.0890   31.0520 N   0  0  0  0  0  0  0  0  0  0  0  0
   39.6020   25.7730   30.7400 C   0  0  0  0  0  0  0  0  0  0  0  0
   39.3730   25.0740   29.5570 C   0  0  0  0  0  0  0  0  0  0  0  0
   39.2370   23.7410   29.6090 N   0  0  0  0  0  0  0  0  0  0  0  0
   39.3180   23.0780   30.7950 C   0  0  0  0  0  0  0  0  0  0  0  0
   39.5420   23.7660   31.9450 N   0  0  0  0  0  0  0  0  0  0  0  0
   39.6840   25.0940   31.9370 C   0  0  0  0  0  0  0  0  0  0  0  0
   39.3000   25.8330   28.3570 N   0  0  0  0  0  0  0  0  0  0  0  0
   40.0910   22.0011   37.1418 H   0  0  0  0  0  0  0  0  0  0  0  0
   38.6813   22.3904   39.1953 H   0  0  0  0  0  0  0  0  0  0  0  0
   37.2942   24.5153   39.3070 H   0  0  0  0  0  0  0  0  0  0  0  0
   38.7309   27.3125   36.7680 H   0  0  0  0  0  0  0  0  0  0  0  0
   39.6033   27.8702   35.3002 H   0  0  0  0  0  0  0  0  0  0  0  0
   37.8091   27.7840   35.3002 H   0  0  0  0  0  0  0  0  0  0  0  0
   36.7026   25.4612   34.8683 H   0  0  0  0  0  0  0  0  0  0  0  0
   37.4392   26.5211   33.6191 H   0  0  0  0  0  0  0  0  0  0  0  0
   37.7853   24.7585   33.6191 H   0  0  0  0  0  0  0  0  0  0  0  0
   40.7855   26.4921   34.7252 H   0  0  0  0  0  0  0  0  0  0  0  0
   40.4098   24.7093   34.4779 H   0  0  0  0  0  0  0  0  0  0  0  0
   40.1408   28.1256   32.9300 H   0  0  0  0  0  0  0  0  0  0  0  0
   39.2020   21.9845   30.8224 H   0  0  0  0  0  0  0  0  0  0  0  0
   39.4134   26.8563   28.3872 H   0  0  0  0  0  0  0  0  0  0  0  0
   39.1337   25.3596   27.4575 H   0  0  0  0  0  0  0  0  0  0  0  0
  1  8  1  0
  1  6  1  0
  2  3  2  0
  3  4  1  0
  5  4  2  0
  6  5  1  0
  7  6  2  0
  7  2  1  0
  9  1  1  0
 10  1  1  0
 11 10  1  0
 12 11  1  0
 13 12  2  0
 14 13  1  0
 14 19  2  0
 15 16  2  0
 15 14  1  0
 16 17  1  0
 17 18  2  0
 19 18  1  0
 19 11  1  0
 20 15  1  0
  2 21  1  0
  3 22  1  0
  4 23  1  0
  8 24  1  0
  8 25  1  0
  8 26  1  0
  9 27  1  0
  9 28  1  0
  9 29  1  0
 10 30  1  0
 10 31  1  0
 12 32  1  0
 17 33  1  0
 20 34  1  0
 20 35  1  0
M  ISO  8  21  14  22  14  23  14  24   8  25   8  26   8  27   8  28   8
M  ISO  5  29   8  30   8  31   8  32  14  33  14
M  END
>  <minimizedAffinity>  (1) 
-4.31508017

>  <minimizedRMSD>  (1) 
2.58144259

$$$$
