
     RDKit          3D

 29 30  0  0  0  0  0  0  0  0999 V2000
   38.7240   23.2330   36.6160 C   0  0  0  0  0  0  0  0  0  0  0  0
   38.3430   26.8610   36.2190 C   0  0  0  0  0  0  0  0  0  0  0  0
   39.1380   27.1350   35.0700 C   0  0  0  0  0  0  0  0  0  0  0  0
   39.8000   26.0660   34.4460 C   0  0  0  0  0  0  0  0  0  0  0  0
   39.6350   24.8280   34.9830 N   0  0  0  0  0  0  0  0  0  0  0  0
   38.8740   24.5960   36.0730 C   0  0  0  0  0  0  0  0  0  0  0  0
   38.2290   25.6150   36.6890 N   0  0  0  0  0  0  0  0  0  0  0  0
   38.9340   22.1740   35.5480 C   0  0  0  0  0  0  0  0  0  0  0  0
   37.2960   23.0720   37.1640 C   0  0  0  0  0  0  0  0  0  0  0  0
   39.6850   22.9320   37.7380 C   0  0  0  0  0  0  0  0  0  0  0  0
   41.0320   22.5610   37.2540 C   0  0  0  0  0  0  0  0  0  0  0  0
   41.4690   21.2670   37.4510 C   0  0  0  0  0  0  0  0  0  0  0  0
   42.7460   21.1840   36.9110 C   0  0  0  0  0  0  0  0  0  0  0  0
   43.0210   22.4400   36.4100 C   0  0  0  0  0  0  0  0  0  0  0  0
   41.9890   23.2040   36.6360 O   0  0  0  0  0  0  0  0  0  0  0  0
   37.8169   27.6837   36.7254 H   0  0  0  0  0  0  0  0  0  0  0  0
   39.2312   28.1596   34.6807 H   0  0  0  0  0  0  0  0  0  0  0  0
   40.4280   26.2239   33.5568 H   0  0  0  0  0  0  0  0  0  0  0  0
   39.1266   21.2029   36.0274 H   0  0  0  0  0  0  0  0  0  0  0  0
   38.0328   22.1013   34.9215 H   0  0  0  0  0  0  0  0  0  0  0  0
   39.7948   22.4507   34.9215 H   0  0  0  0  0  0  0  0  0  0  0  0
   37.3228   23.0750   38.2637 H   0  0  0  0  0  0  0  0  0  0  0  0
   36.6713   23.9054   36.8101 H   0  0  0  0  0  0  0  0  0  0  0  0
   36.8726   22.1204   36.8101 H   0  0  0  0  0  0  0  0  0  0  0  0
   39.7736   23.8251   38.3741 H   0  0  0  0  0  0  0  0  0  0  0  0
   39.2848   22.0724   38.2955 H   0  0  0  0  0  0  0  0  0  0  0  0
   40.9120   20.4556   37.9422 H   0  0  0  0  0  0  0  0  0  0  0  0
   43.4016   20.3010   36.8876 H   0  0  0  0  0  0  0  0  0  0  0  0
   43.9506   22.7442   35.9067 H   0  0  0  0  0  0  0  0  0  0  0  0
  1  9  1  0
  1 10  1  0
  2  7  2  0
  3  2  1  0
  4  5  1  0
  4  3  2  0
  5  6  2  0
  6  1  1  0
  6  7  1  0
  8  1  1  0
 11 12  2  0
 11 10  1  0
 13 12  1  0
 14 15  1  0
 14 13  2  0
 15 11  1  0
  2 16  1  0
  3 17  1  0
  4 18  1  0
  8 19  1  0
  8 20  1  0
  8 21  1  0
  9 22  1  0
  9 23  1  0
  9 24  1  0
 10 25  1  0
 10 26  1  0
 12 27  1  0
 13 28  1  0
 14 29  1  0
M  ISO  8  16  14  17  14  18  14  19   8  20   8  21   8  22   8  23   8
M  ISO  6  24   8  25   8  26   8  27  14  28  14  29  14
M  END
>  <minimizedAffinity>  (1) 
-4.22472334

>  <minimizedRMSD>  (1) 
5.57888079

$$$$
