
     RDKit          3D

 32 33  0  0  0  0  0  0  0  0999 V2000
   38.5300   24.8370   34.7430 C   0  0  0  0  0  0  0  0  0  0  0  0
   39.7250   22.8450   37.5570 C   0  0  0  0  0  0  0  0  0  0  0  0
   38.9070   23.2520   38.6270 C   0  0  0  0  0  0  0  0  0  0  0  0
   37.9340   24.2270   38.3590 C   0  0  0  0  0  0  0  0  0  0  0  0
   37.8280   24.7280   37.0910 N   0  0  0  0  0  0  0  0  0  0  0  0
   38.6350   24.3080   36.0960 C   0  0  0  0  0  0  0  0  0  0  0  0
   39.5830   23.3660   36.3290 N   0  0  0  0  0  0  0  0  0  0  0  0
   38.0610   23.7530   33.7620 C   0  0  0  0  0  0  0  0  0  0  0  0
   39.9130   25.2980   34.2510 C   0  0  0  0  0  0  0  0  0  0  0  0
   37.5540   25.9850   34.6000 C   0  0  0  0  0  0  0  0  0  0  0  0
   37.4590   26.4710   33.1960 C   0  0  0  0  0  0  0  0  0  0  0  0
   38.3770   27.3490   32.6550 C   0  0  0  0  0  0  0  0  0  0  0  0
   38.2990   27.8110   31.3420 C   0  0  0  0  0  0  0  0  0  0  0  0
   37.2390   27.3600   30.5490 C   0  0  0  0  0  0  0  0  0  0  0  0
   36.2970   26.4740   31.0720 C   0  0  0  0  0  0  0  0  0  0  0  0
   36.4290   26.0550   32.3720 C   0  0  0  0  0  0  0  0  0  0  0  0
   40.4984   22.0824   37.7313 H   0  0  0  0  0  0  0  0  0  0  0  0
   39.0254   22.8232   39.6330 H   0  0  0  0  0  0  0  0  0  0  0  0
   37.2662   24.5831   39.1573 H   0  0  0  0  0  0  0  0  0  0  0  0
   37.6859   22.8860   34.3255 H   0  0  0  0  0  0  0  0  0  0  0  0
   37.2563   24.1548   33.1288 H   0  0  0  0  0  0  0  0  0  0  0  0
   38.9049   23.4416   33.1288 H   0  0  0  0  0  0  0  0  0  0  0  0
   40.5572   25.5127   35.1164 H   0  0  0  0  0  0  0  0  0  0  0  0
   40.3693   24.5034   33.6424 H   0  0  0  0  0  0  0  0  0  0  0  0
   39.8013   26.2075   33.6424 H   0  0  0  0  0  0  0  0  0  0  0  0
   36.5593   25.6469   34.9259 H   0  0  0  0  0  0  0  0  0  0  0  0
   37.9177   26.8167   35.2213 H   0  0  0  0  0  0  0  0  0  0  0  0
   39.2060   27.6992   33.2875 H   0  0  0  0  0  0  0  0  0  0  0  0
   39.0487   28.5093   30.9417 H   0  0  0  0  0  0  0  0  0  0  0  0
   37.1477   27.7053   29.5086 H   0  0  0  0  0  0  0  0  0  0  0  0
   35.4615   26.1168   30.4520 H   0  0  0  0  0  0  0  0  0  0  0  0
   35.6818   25.3567   32.7771 H   0  0  0  0  0  0  0  0  0  0  0  0
  1  6  1  0
  2  3  2  0
  4  3  1  0
  5  4  2  0
  6  7  2  0
  6  5  1  0
  7  2  1  0
  8  1  1  0
  9  1  1  0
 10  1  1  0
 11 10  1  0
 12 11  2  0
 13 12  1  0
 14 15  1  0
 14 13  2  0
 15 16  2  0
 16 11  1  0
  2 17  1  0
  3 18  1  0
  4 19  1  0
  8 20  1  0
  8 21  1  0
  8 22  1  0
  9 23  1  0
  9 24  1  0
  9 25  1  0
 10 26  1  0
 10 27  1  0
 12 28  1  0
 13 29  1  0
 14 30  1  0
 15 31  1  0
 16 32  1  0
M  ISO  8  17  14  18  14  19  14  20   8  21   8  22   8  23   8  24   8
M  ISO  8  25   8  26   8  27   8  28  14  29  14  30  14  31  14  32  14
M  END
>  <minimizedAffinity>  (1) 
-4.17806864

>  <minimizedRMSD>  (1) 
2.7590909

$$$$
