
     RDKit          3D

 29 30  0  0  0  0  0  0  0  0999 V2000
   38.5010   26.4400   34.8920 C   0  0  0  0  0  0  0  0  0  0  0  0
   38.2180   23.8750   37.4870 C   0  0  0  0  0  0  0  0  0  0  0  0
   39.3020   23.0200   37.2310 C   0  0  0  0  0  0  0  0  0  0  0  0
   40.1360   23.3480   36.1450 C   0  0  0  0  0  0  0  0  0  0  0  0
   39.8520   24.4660   35.4030 N   0  0  0  0  0  0  0  0  0  0  0  0
   38.7890   25.2600   35.6930 C   0  0  0  0  0  0  0  0  0  0  0  0
   37.9960   24.9510   36.7250 N   0  0  0  0  0  0  0  0  0  0  0  0
   39.6690   26.7950   33.9690 C   0  0  0  0  0  0  0  0  0  0  0  0
   38.2100   27.6270   35.7930 C   0  0  0  0  0  0  0  0  0  0  0  0
   37.2960   26.2450   33.9760 C   0  0  0  0  0  0  0  0  0  0  0  0
   37.6580   25.7200   32.6350 C   0  0  0  0  0  0  0  0  0  0  0  0
   36.5430   24.8830   32.0050 C   0  0  0  0  0  0  0  0  0  0  0  0
   36.8970   26.2220   31.4140 C   0  0  0  0  0  0  0  0  0  0  0  0
   37.5417   23.6564   38.3265 H   0  0  0  0  0  0  0  0  0  0  0  0
   39.4915   22.1322   37.8521 H   0  0  0  0  0  0  0  0  0  0  0  0
   41.0020   22.7173   35.8955 H   0  0  0  0  0  0  0  0  0  0  0  0
   40.5473   27.0619   34.5751 H   0  0  0  0  0  0  0  0  0  0  0  0
   39.9108   25.9298   33.3342 H   0  0  0  0  0  0  0  0  0  0  0  0
   39.3884   27.6484   33.3342 H   0  0  0  0  0  0  0  0  0  0  0  0
   38.2863   27.3159   36.8453 H   0  0  0  0  0  0  0  0  0  0  0  0
   38.9388   28.4264   35.5932 H   0  0  0  0  0  0  0  0  0  0  0  0
   37.1941   27.9986   35.5932 H   0  0  0  0  0  0  0  0  0  0  0  0
   36.6049   25.5353   34.4542 H   0  0  0  0  0  0  0  0  0  0  0  0
   36.8364   27.2332   33.8265 H   0  0  0  0  0  0  0  0  0  0  0  0
   38.7300   25.6210   32.8608 H   0  0  0  0  0  0  0  0  0  0  0  0
   36.7900   23.9597   31.4606 H   0  0  0  0  0  0  0  0  0  0  0  0
   35.6174   24.4181   32.3754 H   0  0  0  0  0  0  0  0  0  0  0  0
   37.4007   26.2743   30.4375 H   0  0  0  0  0  0  0  0  0  0  0  0
   36.3334   27.1360   31.1752 H   0  0  0  0  0  0  0  0  0  0  0  0
  1  6  1  0
  1  9  1  0
  3  2  2  0
  4  3  1  0
  5  6  1  0
  5  4  2  0
  6  7  2  0
  7  2  1  0
  8  1  1  0
 10  1  1  0
 11 10  1  0
 12 11  1  0
 13 12  1  0
 13 11  1  0
  2 14  1  0
  3 15  1  0
  4 16  1  0
  8 17  1  0
  8 18  1  0
  8 19  1  0
  9 20  1  0
  9 21  1  0
  9 22  1  0
 10 23  1  0
 10 24  1  0
 11 25  1  0
 12 26  1  0
 12 27  1  0
 13 28  1  0
 13 29  1  0
M  ISO  8  14  14  15  14  16  14  17   8  18   8  19   8  20   8  21   8
M  ISO  8  22   8  23   8  24   8  25  13  26  13  27  13  28  13  29  13
M  END
>  <minimizedAffinity>  (1) 
-3.57551432

>  <minimizedRMSD>  (1) 
3.57258439

$$$$
