
     RDKit          3D

 23 23  0  0  0  0  0  0  0  0999 V2000
   38.7430   26.0310   35.0680 C   0  0  0  0  0  0  0  0  0  0  0  0
   39.7570   23.0330   36.8920 C   0  0  0  0  0  0  0  0  0  0  0  0
   38.9670   23.0590   38.0520 C   0  0  0  0  0  0  0  0  0  0  0  0
   38.0720   24.1400   38.1920 C   0  0  0  0  0  0  0  0  0  0  0  0
   38.0260   25.0830   37.2060 N   0  0  0  0  0  0  0  0  0  0  0  0
   38.8220   25.0030   36.0990 C   0  0  0  0  0  0  0  0  0  0  0  0
   39.6920   23.9750   35.9360 N   0  0  0  0  0  0  0  0  0  0  0  0
   38.5190   27.4160   35.6370 C   0  0  0  0  0  0  0  0  0  0  0  0
   37.5780   25.7030   34.1160 C   0  0  0  0  0  0  0  0  0  0  0  0
   40.0200   26.1260   34.2440 C   0  0  0  0  0  0  0  0  0  0  0  0
   40.9950   26.6760   35.0860 O   0  0  0  0  0  0  0  0  0  0  0  0
   40.4639   22.2007   36.7591 H   0  0  0  0  0  0  0  0  0  0  0  0
   39.0425   22.2721   38.8170 H   0  0  0  0  0  0  0  0  0  0  0  0
   37.4244   24.2216   39.0774 H   0  0  0  0  0  0  0  0  0  0  0  0
   38.5270   27.3667   36.7359 H   0  0  0  0  0  0  0  0  0  0  0  0
   39.3203   28.0872   35.2943 H   0  0  0  0  0  0  0  0  0  0  0  0
   37.5470   27.8004   35.2943 H   0  0  0  0  0  0  0  0  0  0  0  0
   36.6834   25.4511   34.7045 H   0  0  0  0  0  0  0  0  0  0  0  0
   37.3658   26.5763   33.4817 H   0  0  0  0  0  0  0  0  0  0  0  0
   37.8526   24.8472   33.4817 H   0  0  0  0  0  0  0  0  0  0  0  0
   40.3297   25.1261   33.9059 H   0  0  0  0  0  0  0  0  0  0  0  0
   39.8709   26.7469   33.3483 H   0  0  0  0  0  0  0  0  0  0  0  0
   40.7360   26.5299   36.0303 H   0  0  0  0  0  0  0  0  0  0  0  0
  1  8  1  0
  1  6  1  0
  2  3  2  0
  3  4  1  0
  5  4  2  0
  6  5  1  0
  7  6  2  0
  7  2  1  0
  9  1  1  0
 10  1  1  0
 10 11  1  0
  2 12  1  0
  3 13  1  0
  4 14  1  0
  8 15  1  0
  8 16  1  0
  8 17  1  0
  9 18  1  0
  9 19  1  0
  9 20  1  0
 10 21  1  0
 10 22  1  0
 11 23  1  0
M  ISO  8  12  14  13  14  14  14  15   8  16   8  17   8  18   8  19   8
M  ISO  4  20   8  21   8  22   8  23   3
M  END
>  <minimizedAffinity>  (1) 
-3.47561598

>  <minimizedRMSD>  (1) 
0.447288394

$$$$
