
     RDKit          3D

 23 23  0  0  0  0  0  0  0  0999 V2000
   38.7310   26.1250   35.2590 C   0  0  0  0  0  0  0  0  0  0  0  0
   39.4560   23.0260   37.0480 C   0  0  0  0  0  0  0  0  0  0  0  0
   38.7220   23.1480   38.2380 C   0  0  0  0  0  0  0  0  0  0  0  0
   37.9600   24.3370   38.4140 C   0  0  0  0  0  0  0  0  0  0  0  0
   37.9950   25.2640   37.4280 N   0  0  0  0  0  0  0  0  0  0  0  0
   38.7290   25.0910   36.2880 C   0  0  0  0  0  0  0  0  0  0  0  0
   39.4520   23.9790   36.1040 N   0  0  0  0  0  0  0  0  0  0  0  0
   38.0830   27.4180   35.7240 C   0  0  0  0  0  0  0  0  0  0  0  0
   37.9990   25.6370   34.0230 C   0  0  0  0  0  0  0  0  0  0  0  0
   40.1450   26.5180   34.8390 C   0  0  0  0  0  0  0  0  0  0  0  0
   40.1320   26.9870   33.0790 S   0  0  0  0  0  0  0  0  0  0  0  0
   40.0549   22.1181   36.8839 H   0  0  0  0  0  0  0  0  0  0  0  0
   38.7351   22.3575   39.0028 H   0  0  0  0  0  0  0  0  0  0  0  0
   37.3613   24.4978   39.3227 H   0  0  0  0  0  0  0  0  0  0  0  0
   38.0688   27.4463   36.8235 H   0  0  0  0  0  0  0  0  0  0  0  0
   38.6584   28.2744   35.3426 H   0  0  0  0  0  0  0  0  0  0  0  0
   37.0525   27.4696   35.3426 H   0  0  0  0  0  0  0  0  0  0  0  0
   37.1191   25.0504   34.3257 H   0  0  0  0  0  0  0  0  0  0  0  0
   37.6754   26.5007   33.4236 H   0  0  0  0  0  0  0  0  0  0  0  0
   38.6718   25.0061   33.4236 H   0  0  0  0  0  0  0  0  0  0  0  0
   40.4864   27.3700   35.4452 H   0  0  0  0  0  0  0  0  0  0  0  0
   40.8277   25.6692   34.9924 H   0  0  0  0  0  0  0  0  0  0  0  0
   40.0942   28.3522   32.9705 H   0  0  0  0  0  0  0  0  0  0  0  0
  1  8  1  0
  1  6  1  0
  2  3  2  0
  3  4  1  0
  5  4  2  0
  6  5  1  0
  7  6  2  0
  7  2  1  0
  9  1  1  0
 10  1  1  0
 11 10  1  0
  2 12  1  0
  3 13  1  0
  4 14  1  0
  8 15  1  0
  8 16  1  0
  8 17  1  0
  9 18  1  0
  9 19  1  0
  9 20  1  0
 10 21  1  0
 10 22  1  0
 11 23  1  0
M  ISO  8  12  14  13  14  14  14  15   8  16   8  17   8  18   8  19   8
M  ISO  4  20   8  21   8  22   8  23  11
M  END
>  <minimizedAffinity>  (1) 
-3.30194092

>  <minimizedRMSD>  (1) 
0.700872302

$$$$
