
     RDKit          3D

 26 27  0  0  0  0  0  0  0  0999 V2000
   39.0940   24.3160   35.9310 N   0  0  0  0  0  0  0  0  0  0  0  0
   40.3870   24.1850   35.5770 C   0  0  0  0  0  0  0  0  0  0  0  0
   41.1520   23.2060   36.2100 C   0  0  0  0  0  0  0  0  0  0  0  0
   40.5800   22.4090   37.1660 C   0  0  0  0  0  0  0  0  0  0  0  0
   41.1870   21.5060   37.7860 O   0  0  0  0  0  0  0  0  0  0  0  0
   39.2770   22.5680   37.4970 N   0  0  0  0  0  0  0  0  0  0  0  0
   38.5550   23.5220   36.8710 C   0  0  0  0  0  0  0  0  0  0  0  0
   37.3550   23.6710   37.1750 O   0  0  0  0  0  0  0  0  0  0  0  0
   37.8750   25.0190   33.9680 C   0  0  0  0  0  0  0  0  0  0  0  0
   38.3970   25.3240   35.2470 C   0  0  0  0  0  0  0  0  0  0  0  0
   38.1820   26.6060   35.7370 C   0  0  0  0  0  0  0  0  0  0  0  0
   37.4880   27.5040   34.9790 N   0  0  0  0  0  0  0  0  0  0  0  0
   37.0060   27.1880   33.7730 C   0  0  0  0  0  0  0  0  0  0  0  0
   37.2010   25.9360   33.2660 N   0  0  0  0  0  0  0  0  0  0  0  0
   36.2440   28.1250   32.9050 C   0  0  0  0  0  0  0  0  0  0  0  0
   35.3950   27.4620   32.0420 F   0  0  0  0  0  0  0  0  0  0  0  0
   37.1060   28.9040   32.1350 F   0  0  0  0  0  0  0  0  0  0  0  0
   35.4710   28.9890   33.6460 F   0  0  0  0  0  0  0  0  0  0  0  0
   42.6120   22.9840   35.8780 C   0  0  0  0  0  0  0  0  0  0  0  0
   40.8288   24.8347   34.8071 H   0  0  0  0  0  0  0  0  0  0  0  0
   38.8431   21.9706   38.2152 H   0  0  0  0  0  0  0  0  0  0  0  0
   38.0255   24.0146   33.5456 H   0  0  0  0  0  0  0  0  0  0  0  0
   38.5673   26.8945   36.7261 H   0  0  0  0  0  0  0  0  0  0  0  0
   43.1906   22.8960   36.8094 H   0  0  0  0  0  0  0  0  0  0  0  0
   42.7182   22.0594   35.2917 H   0  0  0  0  0  0  0  0  0  0  0  0
   42.9882   23.8353   35.2917 H   0  0  0  0  0  0  0  0  0  0  0  0
  1  7  1  0
  2  1  1  0
  2  3  2  0
  3  4  1  0
  4  6  1  0
  4  5  2  0
  7  8  2  0
  7  6  1  0
  9 10  2  0
 10 11  1  0
 10  1  1  0
 12 11  2  0
 13 12  1  0
 14 13  2  0
 14  9  1  0
 15 18  1  0
 15 13  1  0
 16 15  1  0
 17 15  1  0
 19  3  1  0
  2 20  1  0
  6 21  1  0
  9 22  1  0
 11 23  1  0
 19 24  1  0
 19 25  1  0
 19 26  1  0
M  ISO  7  20  14  21   9  22  14  23  14  24   8  25   8  26   8
M  END
>  <minimizedAffinity>  (1) 
-5.25320435

>  <minimizedRMSD>  (1) 
6.23298216

$$$$
