
     RDKit          3D

 40 42  0  0  0  0  0  0  0  0999 V2000
   38.7400   26.1170   35.1880 C   0  0  0  0  0  0  0  0  0  0  0  0
   39.4340   23.0210   37.0080 C   0  0  0  0  0  0  0  0  0  0  0  0
   38.7100   23.1870   38.2160 C   0  0  0  0  0  0  0  0  0  0  0  0
   37.9810   24.3860   38.3890 C   0  0  0  0  0  0  0  0  0  0  0  0
   38.0260   25.2950   37.3820 N   0  0  0  0  0  0  0  0  0  0  0  0
   38.7320   25.0960   36.2380 C   0  0  0  0  0  0  0  0  0  0  0  0
   39.4270   23.9650   36.0630 N   0  0  0  0  0  0  0  0  0  0  0  0
   37.8560   27.2990   35.5290 C   0  0  0  0  0  0  0  0  0  0  0  0
   38.2450   25.4990   33.8800 C   0  0  0  0  0  0  0  0  0  0  0  0
   40.1280   26.6800   34.9490 C   0  0  0  0  0  0  0  0  0  0  0  0
   41.0320   25.7360   34.3730 N   0  0  0  0  0  0  0  0  0  0  0  0
   42.4050   26.0660   34.3460 C   0  0  0  0  0  0  0  0  0  0  0  0
   42.9030   27.0840   33.5620 C   0  0  0  0  0  0  0  0  0  0  0  0
   44.2340   27.4370   33.5090 C   0  0  0  0  0  0  0  0  0  0  0  0
   45.1550   26.7660   34.2620 C   0  0  0  0  0  0  0  0  0  0  0  0
   44.7120   25.7400   35.0630 C   0  0  0  0  0  0  0  0  0  0  0  0
   45.6500   25.0690   35.8200 C   0  0  0  0  0  0  0  0  0  0  0  0
   45.2510   24.0370   36.6360 C   0  0  0  0  0  0  0  0  0  0  0  0
   43.9180   23.6840   36.6870 C   0  0  0  0  0  0  0  0  0  0  0  0
   43.0180   24.3840   35.9130 C   0  0  0  0  0  0  0  0  0  0  0  0
   43.3750   25.4240   35.0830 C   0  0  0  0  0  0  0  0  0  0  0  0
   40.0114   22.0988   36.8464 H   0  0  0  0  0  0  0  0  0  0  0  0
   38.7154   22.4084   38.9930 H   0  0  0  0  0  0  0  0  0  0  0  0
   37.4001   24.5748   39.3038 H   0  0  0  0  0  0  0  0  0  0  0  0
   37.7819   27.3981   36.6220 H   0  0  0  0  0  0  0  0  0  0  0  0
   38.2914   28.2165   35.1063 H   0  0  0  0  0  0  0  0  0  0  0  0
   36.8529   27.1407   35.1063 H   0  0  0  0  0  0  0  0  0  0  0  0
   37.5717   24.6583   34.1034 H   0  0  0  0  0  0  0  0  0  0  0  0
   37.7026   26.2585   33.2978 H   0  0  0  0  0  0  0  0  0  0  0  0
   39.1046   25.1355   33.2978 H   0  0  0  0  0  0  0  0  0  0  0  0
   40.0428   27.5406   34.2693 H   0  0  0  0  0  0  0  0  0  0  0  0
   40.5366   26.9637   35.9301 H   0  0  0  0  0  0  0  0  0  0  0  0
   40.6931   24.8423   33.9892 H   0  0  0  0  0  0  0  0  0  0  0  0
   42.1940   27.6500   32.9399 H   0  0  0  0  0  0  0  0  0  0  0  0
   44.5561   28.2627   32.8575 H   0  0  0  0  0  0  0  0  0  0  0  0
   46.2202   27.0385   34.2286 H   0  0  0  0  0  0  0  0  0  0  0  0
   46.7103   25.3578   35.7710 H   0  0  0  0  0  0  0  0  0  0  0  0
   45.9902   23.4957   37.2448 H   0  0  0  0  0  0  0  0  0  0  0  0
   43.5804   22.8600   37.3328 H   0  0  0  0  0  0  0  0  0  0  0  0
   41.9572   24.0968   35.9605 H   0  0  0  0  0  0  0  0  0  0  0  0
  1  8  1  0
  1  6  1  0
  2  3  2  0
  3  4  1  0
  5  4  2  0
  6  5  1  0
  7  6  2  0
  7  2  1  0
  9  1  1  0
 10  1  1  0
 11 10  1  0
 12 11  1  0
 12 21  1  0
 13 12  2  0
 14 13  1  0
 14 15  2  0
 15 16  1  0
 16 21  2  0
 16 17  1  0
 17 18  2  0
 18 19  1  0
 20 19  2  0
 21 20  1  0
  2 22  1  0
  3 23  1  0
  4 24  1  0
  8 25  1  0
  8 26  1  0
  8 27  1  0
  9 28  1  0
  9 29  1  0
  9 30  1  0
 10 31  1  0
 10 32  1  0
 11 33  1  0
 13 34  1  0
 14 35  1  0
 15 36  1  0
 17 37  1  0
 18 38  1  0
 19 39  1  0
 20 40  1  0
M  ISO  8  22  14  23  14  24  14  25   8  26   8  27   8  28   8  29   8
M  ISO  8  30   8  31   8  32   8  34  14  35  14  36  14  37  14  38  14
M  ISO  2  39  14  40  14
M  END
>  <minimizedAffinity>  (1) 
-4.81754732

>  <minimizedRMSD>  (1) 
1.54710329

$$$$
