
     RDKit          3D

 37 38  0  0  0  0  0  0  0  0999 V2000
   38.3190   26.0240   34.9960 C   0  0  0  0  0  0  0  0  0  0  0  0
   37.9730   22.8390   36.7340 C   0  0  0  0  0  0  0  0  0  0  0  0
   37.8940   23.2130   38.0960 C   0  0  0  0  0  0  0  0  0  0  0  0
   37.9630   24.6010   38.4050 C   0  0  0  0  0  0  0  0  0  0  0  0
   38.0990   25.4560   37.3740 N   0  0  0  0  0  0  0  0  0  0  0  0
   38.1720   25.0580   36.0640 C   0  0  0  0  0  0  0  0  0  0  0  0
   38.1070   23.7540   35.7750 N   0  0  0  0  0  0  0  0  0  0  0  0
   39.5070   26.9560   35.2160 C   0  0  0  0  0  0  0  0  0  0  0  0
   37.0710   26.8990   34.9080 C   0  0  0  0  0  0  0  0  0  0  0  0
   38.5410   25.3780   33.6360 C   0  0  0  0  0  0  0  0  0  0  0  0
   37.3440   24.8150   33.1070 N   0  0  0  0  0  0  0  0  0  0  0  0
   37.6160   23.6270   31.8850 S   0  0  0  0  0  0  0  0  0  0  0  0
   39.0510   23.1580   32.0220 O   0  0  0  0  0  0  0  0  0  0  0  0
   37.4070   24.1620   30.5180 O   0  0  0  0  0  0  0  0  0  0  0  0
   36.6180   22.2410   32.2570 C   0  0  0  0  0  0  0  0  0  0  0  0
   36.7100   21.5910   33.4790 C   0  0  0  0  0  0  0  0  0  0  0  0
   35.9230   20.4930   33.7830 C   0  0  0  0  0  0  0  0  0  0  0  0
   35.0250   20.0210   32.8630 C   0  0  0  0  0  0  0  0  0  0  0  0
   34.9110   20.6410   31.6440 C   0  0  0  0  0  0  0  0  0  0  0  0
   35.7010   21.7440   31.3410 C   0  0  0  0  0  0  0  0  0  0  0  0
   37.9229   21.7743   36.4621 H   0  0  0  0  0  0  0  0  0  0  0  0
   37.7832   22.4581   38.8883 H   0  0  0  0  0  0  0  0  0  0  0  0
   37.9075   24.9600   39.4433 H   0  0  0  0  0  0  0  0  0  0  0  0
   39.6748   27.0877   36.2951 H   0  0  0  0  0  0  0  0  0  0  0  0
   40.4057   26.5195   34.7557 H   0  0  0  0  0  0  0  0  0  0  0  0
   39.2969   27.9327   34.7557 H   0  0  0  0  0  0  0  0  0  0  0  0
   36.7223   27.1435   35.9222 H   0  0  0  0  0  0  0  0  0  0  0  0
   37.3113   27.8274   34.3692 H   0  0  0  0  0  0  0  0  0  0  0  0
   36.2801   26.3566   34.3692 H   0  0  0  0  0  0  0  0  0  0  0  0
   38.9124   26.1419   32.9371 H   0  0  0  0  0  0  0  0  0  0  0  0
   39.2701   24.5642   33.7631 H   0  0  0  0  0  0  0  0  0  0  0  0
   36.8234   24.3742   33.8787 H   0  0  0  0  0  0  0  0  0  0  0  0
   37.4280   21.9580   34.2272 H   0  0  0  0  0  0  0  0  0  0  0  0
   36.0189   20.0006   34.7620 H   0  0  0  0  0  0  0  0  0  0  0  0
   34.3979   19.1489   33.1001 H   0  0  0  0  0  0  0  0  0  0  0  0
   34.1910   20.2633   30.9031 H   0  0  0  0  0  0  0  0  0  0  0  0
   35.5978   22.2306   30.3599 H   0  0  0  0  0  0  0  0  0  0  0  0
  1  8  1  0
  1  6  1  0
  2  3  2  0
  3  4  1  0
  5  4  2  0
  6  5  1  0
  7  6  2  0
  7  2  1  0
  9  1  1  0
 10  1  1  0
 11 10  1  0
 12 13  2  0
 12 15  1  0
 12 11  1  0
 14 12  2  0
 15 16  2  0
 16 17  1  0
 18 17  2  0
 19 18  1  0
 20 19  2  0
 20 15  1  0
  2 21  1  0
  3 22  1  0
  4 23  1  0
  8 24  1  0
  8 25  1  0
  8 26  1  0
  9 27  1  0
  9 28  1  0
  9 29  1  0
 10 30  1  0
 10 31  1  0
 11 32  1  0
 16 33  1  0
 17 34  1  0
 18 35  1  0
 19 36  1  0
 20 37  1  0
M  ISO  8  21  14  22  14  23  14  24   8  25   8  26   8  27   8  28   8
M  ISO  8  29   8  30   8  31   8  32   5  33  14  34  14  35  14  36  14
M  ISO  1  37  14
M  END
>  <minimizedAffinity>  (1) 
-4.80798626

>  <minimizedRMSD>  (1) 
6.28799057

$$$$
