
     RDKit          3D

 35 37  0  0  0  0  0  0  0  0999 V2000
   38.7750   26.0890   35.1670 C   0  0  0  0  0  0  0  0  0  0  0  0
   39.4420   23.0170   37.0270 C   0  0  0  0  0  0  0  0  0  0  0  0
   38.7050   23.1810   38.2220 C   0  0  0  0  0  0  0  0  0  0  0  0
   37.9710   24.3790   38.3720 C   0  0  0  0  0  0  0  0  0  0  0  0
   38.0190   25.2860   37.3690 N   0  0  0  0  0  0  0  0  0  0  0  0
   38.7420   25.0870   36.2360 C   0  0  0  0  0  0  0  0  0  0  0  0
   39.4510   23.9530   36.0700 N   0  0  0  0  0  0  0  0  0  0  0  0
   37.8940   27.2890   35.5190 C   0  0  0  0  0  0  0  0  0  0  0  0
   38.2860   25.4870   33.8740 C   0  0  0  0  0  0  0  0  0  0  0  0
   40.1600   26.6760   34.9500 C   0  0  0  0  0  0  0  0  0  0  0  0
   41.0650   25.7120   34.3850 N   0  0  0  0  0  0  0  0  0  0  0  0
   45.1550   24.5880   36.3070 N   0  0  0  0  0  0  0  0  0  0  0  0
   44.1360   23.7780   36.6910 C   0  0  0  0  0  0  0  0  0  0  0  0
   42.9920   24.1860   36.0790 N   0  0  0  0  0  0  0  0  0  0  0  0
   43.3040   25.2530   35.3130 C   0  0  0  0  0  0  0  0  0  0  0  0
   42.4560   26.0090   34.4990 C   0  0  0  0  0  0  0  0  0  0  0  0
   43.0660   27.0190   33.8540 N   0  0  0  0  0  0  0  0  0  0  0  0
   44.3680   27.2660   33.9860 C   0  0  0  0  0  0  0  0  0  0  0  0
   45.1510   26.5250   34.7700 N   0  0  0  0  0  0  0  0  0  0  0  0
   44.6500   25.4890   35.4640 C   0  0  0  0  0  0  0  0  0  0  0  0
   40.0239   22.0953   36.8794 H   0  0  0  0  0  0  0  0  0  0  0  0
   38.7030   22.4071   39.0037 H   0  0  0  0  0  0  0  0  0  0  0  0
   37.3774   24.5689   39.2784 H   0  0  0  0  0  0  0  0  0  0  0  0
   37.8241   27.3843   36.6126 H   0  0  0  0  0  0  0  0  0  0  0  0
   38.3362   28.2043   35.0987 H   0  0  0  0  0  0  0  0  0  0  0  0
   36.8882   27.1413   35.0987 H   0  0  0  0  0  0  0  0  0  0  0  0
   37.6063   24.6503   34.0930 H   0  0  0  0  0  0  0  0  0  0  0  0
   37.7503   26.2520   33.2928 H   0  0  0  0  0  0  0  0  0  0  0  0
   39.1446   25.1195   33.2928 H   0  0  0  0  0  0  0  0  0  0  0  0
   40.0803   27.5336   34.2657 H   0  0  0  0  0  0  0  0  0  0  0  0
   40.5572   26.9865   35.9276 H   0  0  0  0  0  0  0  0  0  0  0  0
   40.7280   24.8549   33.9237 H   0  0  0  0  0  0  0  0  0  0  0  0
   46.1368   24.5194   36.6107 H   0  0  0  0  0  0  0  0  0  0  0  0
   44.2215   22.9288   37.3850 H   0  0  0  0  0  0  0  0  0  0  0  0
   44.8105   28.1066   33.4315 H   0  0  0  0  0  0  0  0  0  0  0  0
  1  8  1  0
  1  6  1  0
  2  3  2  0
  3  4  1  0
  5  4  2  0
  6  5  1  0
  7  6  2  0
  7  2  1  0
  9  1  1  0
 10  1  1  0
 11 16  1  0
 11 10  1  0
 12 13  1  0
 14 13  2  0
 15 20  2  0
 15 14  1  0
 16 15  1  0
 17 18  1  0
 17 16  2  0
 18 19  2  0
 19 20  1  0
 20 12  1  0
  2 21  1  0
  3 22  1  0
  4 23  1  0
  8 24  1  0
  8 25  1  0
  8 26  1  0
  9 27  1  0
  9 28  1  0
  9 29  1  0
 10 30  1  0
 10 31  1  0
 11 32  1  0
 12 33  1  0
 13 34  1  0
 18 35  1  0
M  ISO  8  21  14  22  14  23  14  24   8  25   8  26   8  27   8  28   8
M  ISO  6  29   8  30   8  31   8  33   9  34  14  35  14
M  END
>  <minimizedAffinity>  (1) 
-4.43581867

>  <minimizedRMSD>  (1) 
1.08874595

$$$$
