
     RDKit          3D

 30 31  0  0  0  0  0  0  0  0999 V2000
   37.9530   26.4440   33.9250 C   0  0  0  0  0  0  0  0  0  0  0  0
   37.9040   25.8950   32.6250 C   0  0  0  0  0  0  0  0  0  0  0  0
   38.0200   24.5160   32.5270 C   0  0  0  0  0  0  0  0  0  0  0  0
   38.1730   23.7590   33.6620 N   0  0  0  0  0  0  0  0  0  0  0  0
   38.2140   24.3220   34.8730 C   0  0  0  0  0  0  0  0  0  0  0  0
   38.1030   25.6650   35.0000 N   0  0  0  0  0  0  0  0  0  0  0  0
   38.3730   23.5330   36.0470 N   0  0  0  0  0  0  0  0  0  0  0  0
   39.6460   22.9810   36.3630 C   0  0  0  0  0  0  0  0  0  0  0  0
   40.7230   23.6380   36.0080 N   0  0  0  0  0  0  0  0  0  0  0  0
   39.7550   21.7390   37.0530 N   0  0  0  0  0  0  0  0  0  0  0  0
   41.6770   23.2780   36.2160 H   0  0  0  0  0  0  0  0  0  0  0  0
   37.7440   26.7670   31.5270 N   0  0  0  0  0  0  0  0  0  0  0  0
   38.8770   27.3330   31.1060 C   0  0  0  0  0  0  0  0  0  0  0  0
   38.8010   28.2150   30.0180 C   0  0  0  0  0  0  0  0  0  0  0  0
   37.5840   28.4610   29.4340 C   0  0  0  0  0  0  0  0  0  0  0  0
   37.4390   29.2360   28.4590 O   0  0  0  0  0  0  0  0  0  0  0  0
   36.4680   27.8660   29.8950 N   0  0  0  0  0  0  0  0  0  0  0  0
   36.5510   27.0190   30.9420 C   0  0  0  0  0  0  0  0  0  0  0  0
   35.5310   26.4730   31.3660 O   0  0  0  0  0  0  0  0  0  0  0  0
   40.0310   28.9000   29.4750 C   0  0  0  0  0  0  0  0  0  0  0  0
   37.8661   27.5328   34.0550 H   0  0  0  0  0  0  0  0  0  0  0  0
   37.9894   24.0296   31.5408 H   0  0  0  0  0  0  0  0  0  0  0  0
   37.5682   23.3619   36.6666 H   0  0  0  0  0  0  0  0  0  0  0  0
   40.6838   21.3527   37.2744 H   0  0  0  0  0  0  0  0  0  0  0  0
   38.9050   21.2276   37.3303 H   0  0  0  0  0  0  0  0  0  0  0  0
   39.8377   27.1152   31.5956 H   0  0  0  0  0  0  0  0  0  0  0  0
   35.5578   28.0558   29.4519 H   0  0  0  0  0  0  0  0  0  0  0  0
   40.6559   29.2480   30.3107 H   0  0  0  0  0  0  0  0  0  0  0  0
   40.6038   28.1910   28.8592 H   0  0  0  0  0  0  0  0  0  0  0  0
   39.7299   29.7603   28.8592 H   0  0  0  0  0  0  0  0  0  0  0  0
  1  6  2  0
  2  1  1  0
  3  2  2  0
  3  4  1  0
  4  5  2  0
  5  6  1  0
  5  7  1  0
  7  8  1  0
  8 10  1  0
  9 11  1  0
  9  8  2  0
 12  2  1  0
 13 12  1  0
 14 13  2  0
 15 17  1  0
 15 14  1  0
 16 15  2  0
 17 18  1  0
 18 19  2  0
 18 12  1  0
 20 14  1  0
  1 21  1  0
  3 22  1  0
  7 23  1  0
 10 24  1  0
 10 25  1  0
 13 26  1  0
 17 27  1  0
 20 28  1  0
 20 29  1  0
 20 30  1  0
M  ISO  7  21  14  22  14  26  14  27   9  28   8  29   8  30   8
M  END
>  <minimizedAffinity>  (1) 
-4.95706224

>  <minimizedRMSD>  (1) 
4.35042286

$$$$
