
     RDKit          3D

 36 37  0  0  1  0  0  0  0  0999 V2000
   38.8490   26.2380   35.1980 C   0  0  0  0  0  0  0  0  0  0  0  0
   39.4770   23.0350   36.8430 C   0  0  0  0  0  0  0  0  0  0  0  0
   38.7160   23.1190   38.0200 C   0  0  0  0  0  0  0  0  0  0  0  0
   37.9720   24.3090   38.2460 C   0  0  0  0  0  0  0  0  0  0  0  0
   38.0520   25.2710   37.3100 N   0  0  0  0  0  0  0  0  0  0  0  0
   38.8090   25.1530   36.1690 C   0  0  0  0  0  0  0  0  0  0  0  0
   39.5080   24.0290   35.9630 N   0  0  0  0  0  0  0  0  0  0  0  0
   38.0830   27.4640   35.6620 C   0  0  0  0  0  0  0  0  0  0  0  0
   38.2130   25.7680   33.8920 C   0  0  0  0  0  0  0  0  0  0  0  0
   40.2700   26.7000   34.9090 C   0  0  0  0  0  0  0  0  0  0  0  0
   40.8350   26.0450   33.7780 N   0  0  0  0  0  0  0  0  0  0  0  0
   42.8500   27.3310   34.0070 N   0  0  0  0  0  0  0  0  0  0  0  0
   44.2090   27.0830   34.4450 C   0  0  0  0  0  0  0  0  0  0  0  0
   44.2240   25.7240   35.0850 C   0  0  0  0  0  0  0  0  0  0  0  0
   42.7590   25.3410   35.1320 C   0  0  0  0  0  0  0  0  0  0  0  0
   42.2750   26.0140   33.8540 C   0  0  1  0  0  0  0  0  0  0  0  0
   40.0613   22.1243   36.6452 H   0  0  0  0  0  0  0  0  0  0  0  0
   38.6962   22.2908   38.7437 H   0  0  0  0  0  0  0  0  0  0  0  0
   37.3567   24.4375   39.1487 H   0  0  0  0  0  0  0  0  0  0  0  0
   38.0660   27.4913   36.7615 H   0  0  0  0  0  0  0  0  0  0  0  0
   38.5757   28.3704   35.2803 H   0  0  0  0  0  0  0  0  0  0  0  0
   37.0523   27.4186   35.2803 H   0  0  0  0  0  0  0  0  0  0  0  0
   37.3468   25.1279   34.1155 H   0  0  0  0  0  0  0  0  0  0  0  0
   37.8832   26.6411   33.3098 H   0  0  0  0  0  0  0  0  0  0  0  0
   38.9508   25.1964   33.3098 H   0  0  0  0  0  0  0  0  0  0  0  0
   40.2574   27.7835   34.7198 H   0  0  0  0  0  0  0  0  0  0  0  0
   40.8880   26.4504   35.7841 H   0  0  0  0  0  0  0  0  0  0  0  0
   40.4805   25.0788   33.7384 H   0  0  0  0  0  0  0  0  0  0  0  0
   42.3331   27.8745   34.7129 H   0  0  0  0  0  0  0  0  0  0  0  0
   44.8928   27.1023   33.5836 H   0  0  0  0  0  0  0  0  0  0  0  0
   44.5390   27.8549   35.1558 H   0  0  0  0  0  0  0  0  0  0  0  0
   44.7983   25.0092   34.4773 H   0  0  0  0  0  0  0  0  0  0  0  0
   44.7001   25.7219   36.0766 H   0  0  0  0  0  0  0  0  0  0  0  0
   42.6198   24.2504   35.0982 H   0  0  0  0  0  0  0  0  0  0  0  0
   42.2280   25.6425   36.0469 H   0  0  0  0  0  0  0  0  0  0  0  0
   42.5693   25.5030   32.9254 H   0  0  0  0  0  0  0  0  0  0  0  0
  1  8  1  0
  1  6  1  0
  2  3  2  0
  3  4  1  0
  5  4  2  0
  6  5  1  0
  7  6  2  0
  7  2  1  0
  9  1  1  0
 10  1  1  0
 11 10  1  0
 12 13  1  0
 13 14  1  0
 14 15  1  0
 16 11  1  0
 16 12  1  0
 16 15  1  0
  2 17  1  0
  3 18  1  0
  4 19  1  0
  8 20  1  0
  8 21  1  0
  8 22  1  0
  9 23  1  0
  9 24  1  0
  9 25  1  0
 10 26  1  0
 10 27  1  0
 11 28  1  0
 12 29  1  0
 13 30  1  0
 13 31  1  0
 14 32  1  0
 14 33  1  0
 15 34  1  0
 15 35  1  0
 16 36  1  6
M  ISO  8  17  14  18  14  19  14  20   8  21   8  22   8  23   8  24   8
M  ISO  8  25   8  26   8  27   8  28   5  29   5  30  13  31  13  32  13
M  ISO  4  33  13  34  13  35  13  36  13
M  END
>  <minimizedAffinity>  (1) 
-3.97240472

>  <minimizedRMSD>  (1) 
0.658998132

$$$$
