
     RDKit          3D

 33 33  0  0  0  0  0  0  0  0999 V2000
   38.5060   25.8630   34.9560 C   0  0  0  0  0  0  0  0  0  0  0  0
   39.6990   23.0440   36.9460 C   0  0  0  0  0  0  0  0  0  0  0  0
   38.9840   23.1510   38.1470 C   0  0  0  0  0  0  0  0  0  0  0  0
   38.0740   24.2230   38.2650 C   0  0  0  0  0  0  0  0  0  0  0  0
   37.9510   25.0690   37.2170 N   0  0  0  0  0  0  0  0  0  0  0  0
   38.6700   24.9250   36.0620 C   0  0  0  0  0  0  0  0  0  0  0  0
   39.5400   23.9110   35.9370 N   0  0  0  0  0  0  0  0  0  0  0  0
   37.1710   26.6100   35.0420 C   0  0  0  0  0  0  0  0  0  0  0  0
   38.5460   25.1300   33.6370 C   0  0  0  0  0  0  0  0  0  0  0  0
   39.5770   26.9460   34.9600 C   0  0  0  0  0  0  0  0  0  0  0  0
   40.8680   26.4270   35.2090 N   0  0  0  0  0  0  0  0  0  0  0  0
   41.8730   26.5980   34.2350 C   0  0  0  0  0  0  0  0  0  0  0  0
   42.3000   25.2170   33.7260 C   0  0  0  0  0  0  0  0  0  0  0  0
   41.5810   27.4870   33.0800 C   0  0  0  0  0  0  0  0  0  0  0  0
   40.4164   22.2185   36.8277 H   0  0  0  0  0  0  0  0  0  0  0  0
   39.1265   22.4286   38.9642 H   0  0  0  0  0  0  0  0  0  0  0  0
   37.4827   24.3662   39.1814 H   0  0  0  0  0  0  0  0  0  0  0  0
   36.9023   26.7603   36.0980 H   0  0  0  0  0  0  0  0  0  0  0  0
   37.2647   27.5868   34.5449 H   0  0  0  0  0  0  0  0  0  0  0  0
   36.3876   26.0192   34.5449 H   0  0  0  0  0  0  0  0  0  0  0  0
   38.6051   24.0471   33.8210 H   0  0  0  0  0  0  0  0  0  0  0  0
   37.6342   25.3554   33.0644 H   0  0  0  0  0  0  0  0  0  0  0  0
   39.4278   25.4533   33.0644 H   0  0  0  0  0  0  0  0  0  0  0  0
   39.5796   27.4437   33.9790 H   0  0  0  0  0  0  0  0  0  0  0  0
   39.3375   27.6512   35.7695 H   0  0  0  0  0  0  0  0  0  0  0  0
   41.2088   26.8682   36.0750 H   0  0  0  0  0  0  0  0  0  0  0  0
   42.6725   27.1360   34.7654 H   0  0  0  0  0  0  0  0  0  0  0  0
   42.5039   24.5575   34.5824 H   0  0  0  0  0  0  0  0  0  0  0  0
   41.4932   24.7858   33.1151 H   0  0  0  0  0  0  0  0  0  0  0  0
   43.2094   25.3164   33.1151 H   0  0  0  0  0  0  0  0  0  0  0  0
   41.2575   28.4719   33.4479 H   0  0  0  0  0  0  0  0  0  0  0  0
   42.4880   27.6038   32.4687 H   0  0  0  0  0  0  0  0  0  0  0  0
   40.7814   27.0432   32.4687 H   0  0  0  0  0  0  0  0  0  0  0  0
  1 10  1  0
  1  8  1  0
  1  6  1  0
  2  3  2  0
  3  4  1  0
  5  4  2  0
  6  5  1  0
  7  6  2  0
  7  2  1  0
  9  1  1  0
 10 11  1  0
 12 11  1  0
 13 12  1  0
 14 12  1  0
  2 15  1  0
  3 16  1  0
  4 17  1  0
  8 18  1  0
  8 19  1  0
  8 20  1  0
  9 21  1  0
  9 22  1  0
  9 23  1  0
 10 24  1  0
 10 25  1  0
 11 26  1  0
 12 27  1  0
 13 28  1  0
 13 29  1  0
 13 30  1  0
 14 31  1  0
 14 32  1  0
 14 33  1  0
M  ISO  8  15  14  16  14  17  14  18   8  19   8  20   8  21   8  22   8
M  ISO  8  23   8  24   8  25   8  26   5  27   8  28   8  29   8  30   8
M  ISO  3  31   8  32   8  33   8
M  END
>  <minimizedAffinity>  (1) 
-3.58870816

>  <minimizedRMSD>  (1) 
0.862348139

$$$$
