
     RDKit          3D

 25 26  0  0  0  0  0  0  0  0999 V2000
   39.2340   24.2220   36.0810 N   0  0  0  0  0  0  0  0  0  0  0  0
   40.5180   24.1260   35.7060 C   0  0  0  0  0  0  0  0  0  0  0  0
   41.3050   23.1280   36.2670 C   0  0  0  0  0  0  0  0  0  0  0  0
   40.7310   22.2700   37.1950 C   0  0  0  0  0  0  0  0  0  0  0  0
   41.3730   21.3410   37.7510 O   0  0  0  0  0  0  0  0  0  0  0  0
   39.4480   22.4010   37.5390 N   0  0  0  0  0  0  0  0  0  0  0  0
   38.6980   23.3730   36.9860 C   0  0  0  0  0  0  0  0  0  0  0  0
   37.5120   23.4940   37.3060 O   0  0  0  0  0  0  0  0  0  0  0  0
   37.9320   25.0140   34.1920 C   0  0  0  0  0  0  0  0  0  0  0  0
   38.5140   25.2690   35.4540 C   0  0  0  0  0  0  0  0  0  0  0  0
   38.3430   26.5370   35.9970 C   0  0  0  0  0  0  0  0  0  0  0  0
   37.6260   27.4740   35.2980 N   0  0  0  0  0  0  0  0  0  0  0  0
   37.0880   27.1980   34.1070 C   0  0  0  0  0  0  0  0  0  0  0  0
   37.2430   25.9750   33.5630 N   0  0  0  0  0  0  0  0  0  0  0  0
   36.3470   28.2740   33.4570 C   0  0  0  0  0  0  0  0  0  0  0  0
   36.6880   28.6250   32.3180 O   0  0  0  0  0  0  0  0  0  0  0  0
   42.7530   22.9380   35.9130 C   0  0  0  0  0  0  0  0  0  0  0  0
   40.9401   24.8242   34.9682 H   0  0  0  0  0  0  0  0  0  0  0  0
   39.0315   21.7583   38.2277 H   0  0  0  0  0  0  0  0  0  0  0  0
   38.0450   24.0244   33.7252 H   0  0  0  0  0  0  0  0  0  0  0  0
   38.7778   26.7861   36.9762 H   0  0  0  0  0  0  0  0  0  0  0  0
   35.5039   28.7632   33.9668 H   0  0  0  0  0  0  0  0  0  0  0  0
   43.3486   22.8599   36.8345 H   0  0  0  0  0  0  0  0  0  0  0  0
   42.8684   22.0170   35.3227 H   0  0  0  0  0  0  0  0  0  0  0  0
   43.1021   23.7980   35.3227 H   0  0  0  0  0  0  0  0  0  0  0  0
  1  7  1  0
  2  1  1  0
  2  3  2  0
  3  4  1  0
  4  6  1  0
  4  5  2  0
  7  8  2  0
  7  6  1  0
  9 10  2  0
 10 11  1  0
 10  1  1  0
 12 11  2  0
 13 12  1  0
 14 13  2  0
 14  9  1  0
 15 13  1  0
 16 15  2  0
 17  3  1  0
  2 18  1  0
  6 19  1  0
  9 20  1  0
 11 21  1  0
 15 22  1  0
 17 23  1  0
 17 24  1  0
 17 25  1  0
M  ISO  8  18  14  19   9  20  14  21  14  22   6  23   8  24   8  25   8
M  END
>  <minimizedAffinity>  (1) 
-4.75918198

>  <minimizedRMSD>  (1) 
5.58076763

$$$$
