
     RDKit          3D

 26 27  0  0  0  0  0  0  0  0999 V2000
   37.6020   26.6810   31.9210 N   0  0  0  0  0  0  0  0  0  0  0  0
   38.7510   27.2620   31.5140 C   0  0  0  0  0  0  0  0  0  0  0  0
   38.7300   28.0130   30.3400 C   0  0  0  0  0  0  0  0  0  0  0  0
   37.5470   28.1380   29.6370 C   0  0  0  0  0  0  0  0  0  0  0  0
   37.4480   28.7940   28.5770 O   0  0  0  0  0  0  0  0  0  0  0  0
   36.4210   27.5430   30.0770 N   0  0  0  0  0  0  0  0  0  0  0  0
   36.4740   26.8220   31.2170 C   0  0  0  0  0  0  0  0  0  0  0  0
   35.4390   26.2730   31.6250 O   0  0  0  0  0  0  0  0  0  0  0  0
   37.4570   26.5880   34.3310 C   0  0  0  0  0  0  0  0  0  0  0  0
   37.7170   25.9410   33.1200 C   0  0  0  0  0  0  0  0  0  0  0  0
   38.0790   24.5980   33.1660 C   0  0  0  0  0  0  0  0  0  0  0  0
   38.1610   23.9750   34.3860 N   0  0  0  0  0  0  0  0  0  0  0  0
   37.9040   24.6250   35.5230 C   0  0  0  0  0  0  0  0  0  0  0  0
   37.5540   25.9270   35.4950 N   0  0  0  0  0  0  0  0  0  0  0  0
   38.0220   23.8700   36.7670 C   0  0  0  0  0  0  0  0  0  0  0  0
   38.0180   24.5110   37.8420 O   0  0  0  0  0  0  0  0  0  0  0  0
   38.1350   22.4870   36.8290 O   0  0  0  0  0  0  0  0  0  0  0  0
   39.9570   28.7020   29.7980 C   0  0  0  0  0  0  0  0  0  0  0  0
   39.6787   27.1457   32.0935 H   0  0  0  0  0  0  0  0  0  0  0  0
   35.5383   27.6363   29.5545 H   0  0  0  0  0  0  0  0  0  0  0  0
   37.1699   27.6499   34.3302 H   0  0  0  0  0  0  0  0  0  0  0  0
   38.2957   24.0452   32.2400 H   0  0  0  0  0  0  0  0  0  0  0  0
   38.2118   22.0355   37.7067 H   0  0  0  0  0  0  0  0  0  0  0  0
   40.5804   29.0520   30.6340 H   0  0  0  0  0  0  0  0  0  0  0  0
   40.5326   27.9952   29.1823 H   0  0  0  0  0  0  0  0  0  0  0  0
   39.6531   29.5614   29.1823 H   0  0  0  0  0  0  0  0  0  0  0  0
  1 10  1  0
  2  1  1  0
  3  2  2  0
  4  6  1  0
  4  3  1  0
  5  4  2  0
  6  7  1  0
  7  8  2  0
  7  1  1  0
  9 14  2  0
 10 11  2  0
 10  9  1  0
 11 12  1  0
 12 13  2  0
 13 15  1  0
 14 13  1  0
 15 17  1  0
 15 16  2  0
 18  3  1  0
  2 19  1  0
  6 20  1  0
  9 21  1  0
 11 22  1  0
 17 23  1  0
 18 24  1  0
 18 25  1  0
 18 26  1  0
M  ISO  8  19  14  20   9  21  14  22  14  23   3  24   8  25   8  26   8
M  END
>  <minimizedAffinity>  (1) 
-4.6614337

>  <minimizedRMSD>  (1) 
3.88082933

$$$$
