
     RDKit          3D

 41 43  0  0  0  0  0  0  0  0999 V2000
   40.2550   26.5910   34.9910 C   0  0  0  0  0  0  0  0  0  0  0  0
   40.9960   25.3760   34.6960 N   0  0  0  0  0  0  0  0  0  0  0  0
   42.3780   25.3020   34.9760 C   0  0  0  0  0  0  0  0  0  0  0  0
   43.3330   26.1180   34.3610 C   0  0  0  0  0  0  0  0  0  0  0  0
   44.6960   26.1330   34.6190 C   0  0  0  0  0  0  0  0  0  0  0  0
   45.0940   25.2300   35.6010 C   0  0  0  0  0  0  0  0  0  0  0  0
   44.1570   24.3890   36.2440 C   0  0  0  0  0  0  0  0  0  0  0  0
   42.7790   24.4150   35.9280 C   0  0  0  0  0  0  0  0  0  0  0  0
   42.2740   23.1990   36.5070 C   0  0  0  0  0  0  0  0  0  0  0  0
   43.0530   22.0430   36.4510 C   0  0  0  0  0  0  0  0  0  0  0  0
   42.3750   21.0020   37.0920 C   0  0  0  0  0  0  0  0  0  0  0  0
   41.1880   21.5980   37.5150 C   0  0  0  0  0  0  0  0  0  0  0  0
   41.2080   22.8300   37.1470 O   0  0  0  0  0  0  0  0  0  0  0  0
   38.7640   26.3430   35.0370 C   0  0  0  0  0  0  0  0  0  0  0  0
   37.9100   22.9480   36.0020 C   0  0  0  0  0  0  0  0  0  0  0  0
   37.7350   22.9990   37.3620 C   0  0  0  0  0  0  0  0  0  0  0  0
   37.9040   24.2350   37.9900 C   0  0  0  0  0  0  0  0  0  0  0  0
   38.2310   25.2850   37.1990 N   0  0  0  0  0  0  0  0  0  0  0  0
   38.4030   25.2060   35.8570 C   0  0  0  0  0  0  0  0  0  0  0  0
   38.2320   24.0220   35.3090 N   0  0  0  0  0  0  0  0  0  0  0  0
   38.1520   27.6400   35.6070 C   0  0  0  0  0  0  0  0  0  0  0  0
   38.2610   26.1900   33.6340 C   0  0  0  0  0  0  0  0  0  0  0  0
   40.4680   27.3362   34.2104 H   0  0  0  0  0  0  0  0  0  0  0  0
   40.5719   26.9527   35.9803 H   0  0  0  0  0  0  0  0  0  0  0  0
   40.5118   24.5668   34.2816 H   0  0  0  0  0  0  0  0  0  0  0  0
   42.9666   26.8182   33.5959 H   0  0  0  0  0  0  0  0  0  0  0  0
   45.3985   26.7980   34.0952 H   0  0  0  0  0  0  0  0  0  0  0  0
   46.1559   25.1698   35.8815 H   0  0  0  0  0  0  0  0  0  0  0  0
   44.5120   23.6908   37.0163 H   0  0  0  0  0  0  0  0  0  0  0  0
   44.0429   21.9634   35.9779 H   0  0  0  0  0  0  0  0  0  0  0  0
   42.7007   19.9604   37.2298 H   0  0  0  0  0  0  0  0  0  0  0  0
   40.3763   21.1014   38.0669 H   0  0  0  0  0  0  0  0  0  0  0  0
   37.7787   21.9895   35.4784 H   0  0  0  0  0  0  0  0  0  0  0  0
   37.4712   22.0990   37.9368 H   0  0  0  0  0  0  0  0  0  0  0  0
   37.7774   24.3505   39.0766 H   0  0  0  0  0  0  0  0  0  0  0  0
   38.1701   27.6017   36.7062 H   0  0  0  0  0  0  0  0  0  0  0  0
   38.7371   28.5046   35.2605 H   0  0  0  0  0  0  0  0  0  0  0  0
   37.1126   27.7381   35.2605 H   0  0  0  0  0  0  0  0  0  0  0  0
   37.2088   25.8699   33.6546 H   0  0  0  0  0  0  0  0  0  0  0  0
   38.3411   27.1531   33.1087 H   0  0  0  0  0  0  0  0  0  0  0  0
   38.8638   25.4346   33.1087 H   0  0  0  0  0  0  0  0  0  0  0  0
  1 14  1  0
  2  3  1  0
  2  1  1  0
  3  8  2  0
  4  5  2  0
  4  3  1  0
  5  6  1  0
  6  7  2  0
  8  7  1  0
  8  9  1  0
  9 13  1  0
 10  9  2  0
 10 11  1  0
 11 12  2  0
 13 12  1  0
 14 21  1  0
 14 19  1  0
 15 16  2  0
 16 17  1  0
 18 17  2  0
 19 18  1  0
 20 19  2  0
 20 15  1  0
 22 14  1  0
  1 23  1  0
  1 24  1  0
  2 25  1  0
  4 26  1  0
  5 27  1  0
  6 28  1  0
  7 29  1  0
 10 30  1  0
 11 31  1  0
 12 32  1  0
 15 33  1  0
 16 34  1  0
 17 35  1  0
 21 36  1  0
 21 37  1  0
 21 38  1  0
 22 39  1  0
 22 40  1  0
 22 41  1  0
M  ISO  8  23   8  24   8  26  14  27  14  28  14  29  14  30  14  31  14
M  ISO  8  32  14  33  14  34  14  35  14  36   8  37   8  38   8  39   8
M  ISO  2  40   8  41   8
M  END
>  <minimizedAffinity>  (1) 
-5.01940107

>  <minimizedRMSD>  (1) 
1.55042958

$$$$
