
     RDKit          3D

 47 49  0  0  0  0  0  0  0  0999 V2000
   40.2760   26.7400   34.9510 C   0  0  0  0  0  0  0  0  0  0  0  0
   41.0480   25.6480   34.3830 N   0  0  0  0  0  0  0  0  0  0  0  0
   42.3960   25.4680   34.7850 C   0  0  0  0  0  0  0  0  0  0  0  0
   43.4410   26.3460   34.4310 C   0  0  0  0  0  0  0  0  0  0  0  0
   44.7660   26.2410   34.8300 C   0  0  0  0  0  0  0  0  0  0  0  0
   45.0000   25.1430   35.6600 C   0  0  0  0  0  0  0  0  0  0  0  0
   43.9880   24.2360   36.0380 C   0  0  0  0  0  0  0  0  0  0  0  0
   42.6660   24.3920   35.5920 C   0  0  0  0  0  0  0  0  0  0  0  0
   42.0080   23.1080   35.9270 C   0  0  0  0  0  0  0  0  0  0  0  0
   43.1810   22.0920   36.3040 C   0  0  0  0  0  0  0  0  0  0  0  0
   42.4960   21.0410   37.1140 C   0  0  0  0  0  0  0  0  0  0  0  0
   41.0180   21.4790   37.1890 C   0  0  0  0  0  0  0  0  0  0  0  0
   41.3080   23.0050   37.2090 C   0  0  0  0  0  0  0  0  0  0  0  0
   38.7870   26.4750   34.8630 C   0  0  0  0  0  0  0  0  0  0  0  0
   38.1770   22.9030   34.9630 C   0  0  0  0  0  0  0  0  0  0  0  0
   37.7350   22.6590   36.2400 C   0  0  0  0  0  0  0  0  0  0  0  0
   37.6290   23.7400   37.1170 C   0  0  0  0  0  0  0  0  0  0  0  0
   37.9760   24.9520   36.6290 N   0  0  0  0  0  0  0  0  0  0  0  0
   38.4140   25.1690   35.3640 C   0  0  0  0  0  0  0  0  0  0  0  0
   38.4950   24.1200   34.5770 N   0  0  0  0  0  0  0  0  0  0  0  0
   38.1200   27.5830   35.7050 C   0  0  0  0  0  0  0  0  0  0  0  0
   38.3520   26.6700   33.4420 C   0  0  0  0  0  0  0  0  0  0  0  0
   40.5550   26.8624   36.0080 H   0  0  0  0  0  0  0  0  0  0  0  0
   40.4976   27.6525   34.3780 H   0  0  0  0  0  0  0  0  0  0  0  0
   40.6206   25.0112   33.6955 H   0  0  0  0  0  0  0  0  0  0  0  0
   43.1820   27.1926   33.7781 H   0  0  0  0  0  0  0  0  0  0  0  0
   45.5502   26.9491   34.5242 H   0  0  0  0  0  0  0  0  0  0  0  0
   46.0203   24.9776   36.0364 H   0  0  0  0  0  0  0  0  0  0  0  0
   44.2395   23.3902   36.6948 H   0  0  0  0  0  0  0  0  0  0  0  0
   41.3321   22.9533   35.0730 H   0  0  0  0  0  0  0  0  0  0  0  0
   43.6297   21.6581   35.3982 H   0  0  0  0  0  0  0  0  0  0  0  0
   44.0056   22.5771   36.8469 H   0  0  0  0  0  0  0  0  0  0  0  0
   42.5822   20.0602   36.6236 H   0  0  0  0  0  0  0  0  0  0  0  0
   42.9434   20.9389   38.1137 H   0  0  0  0  0  0  0  0  0  0  0  0
   40.4363   21.1675   36.3089 H   0  0  0  0  0  0  0  0  0  0  0  0
   40.4124   21.0703   38.0113 H   0  0  0  0  0  0  0  0  0  0  0  0
   41.9481   23.2945   38.0555 H   0  0  0  0  0  0  0  0  0  0  0  0
   40.4303   23.6572   37.3285 H   0  0  0  0  0  0  0  0  0  0  0  0
   38.2666   22.0684   34.2520 H   0  0  0  0  0  0  0  0  0  0  0  0
   37.4720   21.6408   36.5627 H   0  0  0  0  0  0  0  0  0  0  0  0
   37.2808   23.6121   38.1526 H   0  0  0  0  0  0  0  0  0  0  0  0
   38.2534   27.3615   36.7742 H   0  0  0  0  0  0  0  0  0  0  0  0
   38.5851   28.5519   35.4705 H   0  0  0  0  0  0  0  0  0  0  0  0
   37.0461   27.6254   35.4705 H   0  0  0  0  0  0  0  0  0  0  0  0
   37.3484   27.1199   33.4242 H   0  0  0  0  0  0  0  0  0  0  0  0
   39.0616   27.3362   32.9294 H   0  0  0  0  0  0  0  0  0  0  0  0
   38.3268   25.6970   32.9294 H   0  0  0  0  0  0  0  0  0  0  0  0
  2  3  1  0
  2  1  1  0
  3  8  1  0
  4  3  2  0
  4  5  1  0
  5  6  2  0
  6  7  1  0
  8  9  1  0
  8  7  2  0
  9 10  1  0
  9 13  1  0
 10 11  1  0
 11 12  1  0
 12 13  1  0
 14  1  1  0
 14 19  1  0
 14 21  1  0
 15 16  2  0
 16 17  1  0
 18 17  2  0
 19 18  1  0
 20 15  1  0
 20 19  2  0
 22 14  1  0
  1 23  1  0
  1 24  1  0
  2 25  1  0
  4 26  1  0
  5 27  1  0
  6 28  1  0
  7 29  1  0
  9 30  1  0
 10 31  1  0
 10 32  1  0
 11 33  1  0
 11 34  1  0
 12 35  1  0
 12 36  1  0
 13 37  1  0
 13 38  1  0
 15 39  1  0
 16 40  1  0
 17 41  1  0
 21 42  1  0
 21 43  1  0
 21 44  1  0
 22 45  1  0
 22 46  1  0
 22 47  1  0
M  ISO  8  23   8  24   8  26  14  27  14  28  14  29  14  30  13  31  13
M  ISO  8  32  13  33  13  34  13  35  13  36  13  37  13  38  13  39  14
M  ISO  8  40  14  41  14  42   8  43   8  44   8  45   8  46   8  47   8
M  END
>  <minimizedAffinity>  (1) 
-4.97051382

>  <minimizedRMSD>  (1) 
1.46963716

$$$$
