
     RDKit          3D

 30 32  0  0  0  0  0  0  0  0999 V2000
   38.1650   25.6350   34.7200 N   0  0  0  0  0  0  0  0  0  0  0  0
   38.1120   24.3210   34.5200 C   0  0  0  0  0  0  0  0  0  0  0  0
   38.1220   23.4720   35.6350 C   0  0  0  0  0  0  0  0  0  0  0  0
   38.1850   24.0180   36.8890 C   0  0  0  0  0  0  0  0  0  0  0  0
   38.1990   23.3510   37.9540 O   0  0  0  0  0  0  0  0  0  0  0  0
   38.2380   25.3620   37.0500 N   0  0  0  0  0  0  0  0  0  0  0  0
   38.2270   26.1630   35.9650 C   0  0  0  0  0  0  0  0  0  0  0  0
   38.2750   27.3850   36.1070 O   0  0  0  0  0  0  0  0  0  0  0  0
   36.9260   26.8410   33.0290 C   0  0  0  0  0  0  0  0  0  0  0  0
   38.1510   26.4050   33.5460 C   0  0  0  0  0  0  0  0  0  0  0  0
   39.3040   26.7730   32.8380 C   0  0  0  0  0  0  0  0  0  0  0  0
   39.1560   27.5290   31.7020 N   0  0  0  0  0  0  0  0  0  0  0  0
   37.9630   27.9210   31.2510 C   0  0  0  0  0  0  0  0  0  0  0  0
   36.8440   27.5760   31.9170 N   0  0  0  0  0  0  0  0  0  0  0  0
   37.9030   28.7220   30.0330 C   0  0  0  0  0  0  0  0  0  0  0  0
   38.3820   28.4700   28.7720 C   0  0  0  0  0  0  0  0  0  0  0  0
   38.0720   29.5230   27.9930 N   0  0  0  0  0  0  0  0  0  0  0  0
   37.4020   30.4460   28.7420 C   0  0  0  0  0  0  0  0  0  0  0  0
   37.3170   29.9320   29.9610 N   0  0  0  0  0  0  0  0  0  0  0  0
   38.0660   21.9750   35.5310 C   0  0  0  0  0  0  0  0  0  0  0  0
   38.0614   23.9095   33.5011 H   0  0  0  0  0  0  0  0  0  0  0  0
   38.2864   25.7695   37.9947 H   0  0  0  0  0  0  0  0  0  0  0  0
   35.9996   26.5693   33.5561 H   0  0  0  0  0  0  0  0  0  0  0  0
   40.3013   26.4638   33.1840 H   0  0  0  0  0  0  0  0  0  0  0  0
   38.9236   27.5670   28.4540 H   0  0  0  0  0  0  0  0  0  0  0  0
   37.0123   31.4174   28.4037 H   0  0  0  0  0  0  0  0  0  0  0  0
   36.8589   30.4008   30.7555 H   0  0  0  0  0  0  0  0  0  0  0  0
   38.0496   21.5377   36.5402 H   0  0  0  0  0  0  0  0  0  0  0  0
   37.1562   21.6789   34.9883 H   0  0  0  0  0  0  0  0  0  0  0  0
   38.9512   21.6118   34.9883 H   0  0  0  0  0  0  0  0  0  0  0  0
  1  7  1  0
  2  1  1  0
  2  3  2  0
  3  4  1  0
  4  6  1  0
  4  5  2  0
  7  8  2  0
  7  6  1  0
  9 10  2  0
 10  1  1  0
 11 10  1  0
 12 11  2  0
 13 12  1  0
 13 14  2  0
 14  9  1  0
 15 13  1  0
 16 15  2  0
 17 18  2  0
 17 16  1  0
 18 19  1  0
 19 15  1  0
 20  3  1  0
  2 21  1  0
  6 22  1  0
  9 23  1  0
 11 24  1  0
 16 25  1  0
 18 26  1  0
 19 27  1  0
 20 28  1  0
 20 29  1  0
 20 30  1  0
M  ISO  8  21  14  22   9  23  14  24  14  25  14  26  14  27   9  28   8
M  ISO  2  29   8  30   8
M  END
>  <minimizedAffinity>  (1) 
-4.55244017

>  <minimizedRMSD>  (1) 
8.50581455

$$$$
