
     RDKit          3D

 46 48  0  0  0  0  0  0  0  0999 V2000
   40.5880   26.5460   34.7210 C   0  0  0  0  0  0  0  0  0  0  0  0
   41.2660   25.2650   34.5360 N   0  0  0  0  0  0  0  0  0  0  0  0
   42.5140   25.0770   35.1730 C   0  0  0  0  0  0  0  0  0  0  0  0
   43.6310   25.9100   35.0030 C   0  0  0  0  0  0  0  0  0  0  0  0
   44.8550   25.7710   35.6320 C   0  0  0  0  0  0  0  0  0  0  0  0
   44.9310   24.6900   36.5080 C   0  0  0  0  0  0  0  0  0  0  0  0
   43.8300   23.8230   36.7080 C   0  0  0  0  0  0  0  0  0  0  0  0
   42.6090   24.0130   36.0280 C   0  0  0  0  0  0  0  0  0  0  0  0
   41.9480   22.7970   36.2500 N   0  0  0  0  0  0  0  0  0  0  0  0
   41.4800   22.0360   37.3780 C   0  0  0  0  0  0  0  0  0  0  0  0
   42.2770   20.7280   37.3170 C   0  0  0  0  0  0  0  0  0  0  0  0
   42.6780   20.6460   35.8620 C   0  0  0  0  0  0  0  0  0  0  0  0
   41.6790   21.7090   35.2990 C   0  0  0  0  0  0  0  0  0  0  0  0
   39.0860   26.3680   34.8040 C   0  0  0  0  0  0  0  0  0  0  0  0
   38.1820   22.8600   34.5850 C   0  0  0  0  0  0  0  0  0  0  0  0
   38.0060   22.4480   35.8740 C   0  0  0  0  0  0  0  0  0  0  0  0
   38.1940   23.3980   36.8770 C   0  0  0  0  0  0  0  0  0  0  0  0
   38.5370   24.6440   36.4810 N   0  0  0  0  0  0  0  0  0  0  0  0
   38.7080   25.0170   35.1870 C   0  0  0  0  0  0  0  0  0  0  0  0
   38.5240   24.1020   34.2510 N   0  0  0  0  0  0  0  0  0  0  0  0
   38.6000   27.3860   35.8450 C   0  0  0  0  0  0  0  0  0  0  0  0
   38.4800   26.7570   33.4880 C   0  0  0  0  0  0  0  0  0  0  0  0
   40.8244   27.2024   33.8706 H   0  0  0  0  0  0  0  0  0  0  0  0
   40.9372   26.9900   35.6649 H   0  0  0  0  0  0  0  0  0  0  0  0
   40.8474   24.5215   33.9590 H   0  0  0  0  0  0  0  0  0  0  0  0
   43.5227   26.7524   34.3039 H   0  0  0  0  0  0  0  0  0  0  0  0
   45.6974   26.4560   35.4556 H   0  0  0  0  0  0  0  0  0  0  0  0
   45.8669   24.5064   37.0560 H   0  0  0  0  0  0  0  0  0  0  0  0
   43.9290   22.9818   37.4098 H   0  0  0  0  0  0  0  0  0  0  0  0
   41.6816   22.5705   38.3180 H   0  0  0  0  0  0  0  0  0  0  0  0
   40.3938   21.8654   37.3454 H   0  0  0  0  0  0  0  0  0  0  0  0
   43.1614   20.7724   37.9696 H   0  0  0  0  0  0  0  0  0  0  0  0
   41.7047   19.8536   37.6603 H   0  0  0  0  0  0  0  0  0  0  0  0
   43.7273   20.9350   35.7023 H   0  0  0  0  0  0  0  0  0  0  0  0
   42.6282   19.6473   35.4037 H   0  0  0  0  0  0  0  0  0  0  0  0
   41.9199   21.9953   34.2646 H   0  0  0  0  0  0  0  0  0  0  0  0
   40.6297   21.3857   35.2318 H   0  0  0  0  0  0  0  0  0  0  0  0
   38.0332   22.1263   33.7790 H   0  0  0  0  0  0  0  0  0  0  0  0
   37.7277   21.4106   36.1116 H   0  0  0  0  0  0  0  0  0  0  0  0
   38.0691   23.1455   37.9403 H   0  0  0  0  0  0  0  0  0  0  0  0
   38.7869   26.9945   36.8558 H   0  0  0  0  0  0  0  0  0  0  0  0
   39.1429   28.3335   35.7126 H   0  0  0  0  0  0  0  0  0  0  0  0
   37.5219   27.5596   35.7126 H   0  0  0  0  0  0  0  0  0  0  0  0
   37.5663   27.3435   33.6642 H   0  0  0  0  0  0  0  0  0  0  0  0
   39.1999   27.3622   32.9174 H   0  0  0  0  0  0  0  0  0  0  0  0
   38.2295   25.8505   32.9174 H   0  0  0  0  0  0  0  0  0  0  0  0
  1 14  1  0
  2  1  1  0
  2  3  1  0
  3  8  1  0
  4  3  2  0
  4  5  1  0
  5  6  2  0
  6  7  1  0
  8  9  1  0
  8  7  2  0
  9 10  1  0
 11 10  1  0
 12 11  1  0
 13 12  1  0
 13  9  1  0
 14 19  1  0
 14 21  1  0
 15 16  2  0
 16 17  1  0
 18 17  2  0
 19 18  1  0
 20 15  1  0
 20 19  2  0
 22 14  1  0
  1 23  1  0
  1 24  1  0
  2 25  1  0
  4 26  1  0
  5 27  1  0
  6 28  1  0
  7 29  1  0
 10 30  1  0
 10 31  1  0
 11 32  1  0
 11 33  1  0
 12 34  1  0
 12 35  1  0
 13 36  1  0
 13 37  1  0
 15 38  1  0
 16 39  1  0
 17 40  1  0
 21 41  1  0
 21 42  1  0
 21 43  1  0
 22 44  1  0
 22 45  1  0
 22 46  1  0
M  ISO  8  23   8  24   8  26  14  27  14  28  14  29  14  30  13  31  13
M  ISO  8  32  13  33  13  34  13  35  13  36  13  37  13  38  14  39  14
M  ISO  7  40  14  41   8  42   8  43   8  44   8  45   8  46   8
M  END
>  <minimizedAffinity>  (1) 
-4.83378744

>  <minimizedRMSD>  (1) 
1.33537424

$$$$
