
     RDKit          3D

 48 50  0  0  0  0  0  0  0  0999 V2000
   40.1650   26.8150   34.9120 C   0  0  0  0  0  0  0  0  0  0  0  0
   40.9780   25.8290   34.2050 N   0  0  0  0  0  0  0  0  0  0  0  0
   42.3020   25.5860   34.6530 C   0  0  0  0  0  0  0  0  0  0  0  0
   43.4000   26.3980   34.3010 C   0  0  0  0  0  0  0  0  0  0  0  0
   44.7000   26.2060   34.7120 C   0  0  0  0  0  0  0  0  0  0  0  0
   44.8850   25.1060   35.5460 C   0  0  0  0  0  0  0  0  0  0  0  0
   43.8020   24.2740   35.9140 C   0  0  0  0  0  0  0  0  0  0  0  0
   42.4950   24.5120   35.4590 C   0  0  0  0  0  0  0  0  0  0  0  0
   41.8640   23.3700   35.9070 N   0  0  0  0  0  0  0  0  0  0  0  0
   41.7970   22.2230   35.0290 C   0  0  0  0  0  0  0  0  0  0  0  0
   42.5760   21.0470   35.5670 C   0  0  0  0  0  0  0  0  0  0  0  0
   42.3760   20.8740   36.9940 N   0  0  0  0  0  0  0  0  0  0  0  0
   41.0770   21.4950   37.2550 C   0  0  0  0  0  0  0  0  0  0  0  0
   41.3450   22.9820   37.1860 C   0  0  0  0  0  0  0  0  0  0  0  0
   38.6920   26.4960   34.8040 C   0  0  0  0  0  0  0  0  0  0  0  0
   38.1370   22.9100   34.9470 C   0  0  0  0  0  0  0  0  0  0  0  0
   37.7520   22.6650   36.2430 C   0  0  0  0  0  0  0  0  0  0  0  0
   37.6720   23.7490   37.1110 C   0  0  0  0  0  0  0  0  0  0  0  0
   37.9800   24.9640   36.6090 N   0  0  0  0  0  0  0  0  0  0  0  0
   38.3630   25.1760   35.3150 C   0  0  0  0  0  0  0  0  0  0  0  0
   38.4310   24.1280   34.5110 N   0  0  0  0  0  0  0  0  0  0  0  0
   37.9710   27.5900   35.6070 C   0  0  0  0  0  0  0  0  0  0  0  0
   38.2640   26.6510   33.3700 C   0  0  0  0  0  0  0  0  0  0  0  0
   40.4528   26.8209   35.9737 H   0  0  0  0  0  0  0  0  0  0  0  0
   40.3400   27.7997   34.4541 H   0  0  0  0  0  0  0  0  0  0  0  0
   40.5968   25.3190   33.3954 H   0  0  0  0  0  0  0  0  0  0  0  0
   43.2012   27.2567   33.6429 H   0  0  0  0  0  0  0  0  0  0  0  0
   45.5246   26.8670   34.4068 H   0  0  0  0  0  0  0  0  0  0  0  0
   45.8924   24.8800   35.9257 H   0  0  0  0  0  0  0  0  0  0  0  0
   43.9890   23.4155   36.5759 H   0  0  0  0  0  0  0  0  0  0  0  0
   42.2098   22.5028   34.0485 H   0  0  0  0  0  0  0  0  0  0  0  0
   40.7424   21.9209   34.9478 H   0  0  0  0  0  0  0  0  0  0  0  0
   42.2465   20.1346   35.0483 H   0  0  0  0  0  0  0  0  0  0  0  0
   43.6453   21.2373   35.3927 H   0  0  0  0  0  0  0  0  0  0  0  0
   42.3588   19.8743   37.2415 H   0  0  0  0  0  0  0  0  0  0  0  0
   40.3434   21.1967   36.4915 H   0  0  0  0  0  0  0  0  0  0  0  0
   40.6564   21.1912   38.2250 H   0  0  0  0  0  0  0  0  0  0  0  0
   42.0766   23.2485   37.9630 H   0  0  0  0  0  0  0  0  0  0  0  0
   40.3924   23.5091   37.3430 H   0  0  0  0  0  0  0  0  0  0  0  0
   38.2039   22.0655   34.2454 H   0  0  0  0  0  0  0  0  0  0  0  0
   37.5150   21.6460   36.5827 H   0  0  0  0  0  0  0  0  0  0  0  0
   37.3708   23.6218   38.1613 H   0  0  0  0  0  0  0  0  0  0  0  0
   38.0972   27.3985   36.6828 H   0  0  0  0  0  0  0  0  0  0  0  0
   38.3998   28.5715   35.3565 H   0  0  0  0  0  0  0  0  0  0  0  0
   36.8999   27.5830   35.3565 H   0  0  0  0  0  0  0  0  0  0  0  0
   37.2303   27.0254   33.3343 H   0  0  0  0  0  0  0  0  0  0  0  0
   38.9302   27.3650   32.8636 H   0  0  0  0  0  0  0  0  0  0  0  0
   38.3186   25.6760   32.8636 H   0  0  0  0  0  0  0  0  0  0  0  0
  2  3  1  0
  2  1  1  0
  3  8  1  0
  4  3  2  0
  4  5  1  0
  5  6  2  0
  6  7  1  0
  8  9  1  0
  8  7  2  0
  9 14  1  0
 10 11  1  0
 10  9  1  0
 11 12  1  0
 12 13  1  0
 14 13  1  0
 15  1  1  0
 15 20  1  0
 15 22  1  0
 16 17  2  0
 17 18  1  0
 19 18  2  0
 20 19  1  0
 21 16  1  0
 21 20  2  0
 23 15  1  0
  1 24  1  0
  1 25  1  0
  2 26  1  0
  4 27  1  0
  5 28  1  0
  6 29  1  0
  7 30  1  0
 10 31  1  0
 10 32  1  0
 11 33  1  0
 11 34  1  0
 12 35  1  0
 13 36  1  0
 13 37  1  0
 14 38  1  0
 14 39  1  0
 16 40  1  0
 17 41  1  0
 18 42  1  0
 22 43  1  0
 22 44  1  0
 22 45  1  0
 23 46  1  0
 23 47  1  0
 23 48  1  0
M  ISO  8  24   8  25   8  27  14  28  14  29  14  30  14  31  13  32  13
M  ISO  8  33  13  34  13  35   5  36  13  37  13  38  13  39  13  40  14
M  ISO  8  41  14  42  14  43   8  44   8  45   8  46   8  47   8  48   8
M  END
>  <minimizedAffinity>  (1) 
-4.60035086

>  <minimizedRMSD>  (1) 
1.45964193

$$$$
