
     RDKit          3D

 40 42  0  0  0  0  0  0  0  0999 V2000
   40.4550   26.5320   34.7930 C   0  0  0  0  0  0  0  0  0  0  0  0
   41.1310   25.3430   34.3100 N   0  0  0  0  0  0  0  0  0  0  0  0
   42.1990   24.7690   35.0320 C   0  0  0  0  0  0  0  0  0  0  0  0
   42.0090   23.7470   35.9580 C   0  0  0  0  0  0  0  0  0  0  0  0
   42.9880   23.0740   36.6850 C   0  0  0  0  0  0  0  0  0  0  0  0
   44.2720   23.5220   36.4000 C   0  0  0  0  0  0  0  0  0  0  0  0
   44.5050   24.5510   35.4720 C   0  0  0  0  0  0  0  0  0  0  0  0
   43.4570   25.2010   34.7720 C   0  0  0  0  0  0  0  0  0  0  0  0
   44.0430   26.3870   34.2120 C   0  0  0  0  0  0  0  0  0  0  0  0
   45.2560   26.8040   35.0300 C   0  0  0  0  0  0  0  0  0  0  0  0
   46.0080   28.1110   34.1310 S   0  0  0  0  0  0  0  0  0  0  0  0
   44.6690   28.0010   32.7550 C   0  0  0  0  0  0  0  0  0  0  0  0
   43.9940   27.1310   33.1550 N   0  0  0  0  0  0  0  0  0  0  0  0
   38.9660   26.3480   34.9110 C   0  0  0  0  0  0  0  0  0  0  0  0
   37.9850   22.8610   34.4490 C   0  0  0  0  0  0  0  0  0  0  0  0
   37.9120   22.3520   35.7210 C   0  0  0  0  0  0  0  0  0  0  0  0
   38.1970   23.2140   36.7790 C   0  0  0  0  0  0  0  0  0  0  0  0
   38.5290   24.4930   36.4740 N   0  0  0  0  0  0  0  0  0  0  0  0
   38.5970   24.9690   35.2130 C   0  0  0  0  0  0  0  0  0  0  0  0
   38.3170   24.1180   34.2590 N   0  0  0  0  0  0  0  0  0  0  0  0
   38.5070   27.2880   36.0250 C   0  0  0  0  0  0  0  0  0  0  0  0
   38.3100   26.8000   33.6360 C   0  0  0  0  0  0  0  0  0  0  0  0
   40.6529   27.3576   34.0936 H   0  0  0  0  0  0  0  0  0  0  0  0
   40.8431   26.7483   35.7993 H   0  0  0  0  0  0  0  0  0  0  0  0
   40.8267   24.9108   33.4260 H   0  0  0  0  0  0  0  0  0  0  0  0
   40.9689   23.4361   36.1354 H   0  0  0  0  0  0  0  0  0  0  0  0
   42.7683   22.2738   37.4071 H   0  0  0  0  0  0  0  0  0  0  0  0
   45.1276   23.0595   36.9138 H   0  0  0  0  0  0  0  0  0  0  0  0
   45.5418   24.8649   35.2809 H   0  0  0  0  0  0  0  0  0  0  0  0
   45.5920   26.3757   35.9859 H   0  0  0  0  0  0  0  0  0  0  0  0
   44.5646   28.5968   31.8362 H   0  0  0  0  0  0  0  0  0  0  0  0
   37.7650   22.2152   33.5861 H   0  0  0  0  0  0  0  0  0  0  0  0
   37.6385   21.3016   35.8996 H   0  0  0  0  0  0  0  0  0  0  0  0
   38.1542   22.8694   37.8227 H   0  0  0  0  0  0  0  0  0  0  0  0
   38.7286   26.8342   37.0022 H   0  0  0  0  0  0  0  0  0  0  0  0
   39.0381   28.2473   35.9373 H   0  0  0  0  0  0  0  0  0  0  0  0
   37.4239   27.4591   35.9373 H   0  0  0  0  0  0  0  0  0  0  0  0
   37.4258   27.4093   33.8746 H   0  0  0  0  0  0  0  0  0  0  0  0
   39.0217   27.4003   33.0503 H   0  0  0  0  0  0  0  0  0  0  0  0
   38.0025   25.9211   33.0503 H   0  0  0  0  0  0  0  0  0  0  0  0
  1 14  1  0
  2  1  1  0
  2  3  1  0
  3  4  2  0
  4  5  1  0
  6  5  2  0
  7  6  1  0
  8  3  1  0
  8  7  2  0
  9  8  1  0
  9 10  2  0
 11 10  1  0
 12 13  2  0
 12 11  1  0
 13  9  1  0
 14 19  1  0
 14 21  1  0
 15 16  2  0
 16 17  1  0
 18 17  2  0
 19 18  1  0
 20 15  1  0
 20 19  2  0
 22 14  1  0
  1 23  1  0
  1 24  1  0
  2 25  1  0
  4 26  1  0
  5 27  1  0
  6 28  1  0
  7 29  1  0
 10 30  1  0
 12 31  1  0
 15 32  1  0
 16 33  1  0
 17 34  1  0
 21 35  1  0
 21 36  1  0
 21 37  1  0
 22 38  1  0
 22 39  1  0
 22 40  1  0
M  ISO  8  23   8  24   8  26  14  27  14  28  14  29  14  30  14  31  14
M  ISO  8  32  14  33  14  34  14  35   8  36   8  37   8  38   8  39   8
M  ISO  1  40   8
M  END
>  <minimizedAffinity>  (1) 
-4.57434416

>  <minimizedRMSD>  (1) 
4.08390188

$$$$
