
     RDKit          3D

 36 37  0  0  0  0  0  0  0  0999 V2000
   38.5810   26.0990   35.2030 C   0  0  0  0  0  0  0  0  0  0  0  0
   37.6450   22.8630   36.5870 C   0  0  0  0  0  0  0  0  0  0  0  0
   37.6280   23.0530   37.9480 C   0  0  0  0  0  0  0  0  0  0  0  0
   37.9390   24.3310   38.4220 C   0  0  0  0  0  0  0  0  0  0  0  0
   38.2380   25.2870   37.5070 N   0  0  0  0  0  0  0  0  0  0  0  0
   38.2520   25.0720   36.1700 C   0  0  0  0  0  0  0  0  0  0  0  0
   37.9490   23.8590   35.7860 N   0  0  0  0  0  0  0  0  0  0  0  0
   38.3320   27.4960   35.7950 C   0  0  0  0  0  0  0  0  0  0  0  0
   37.7350   25.9700   33.9710 C   0  0  0  0  0  0  0  0  0  0  0  0
   40.0390   26.0770   34.7980 C   0  0  0  0  0  0  0  0  0  0  0  0
   40.5690   24.7250   34.7670 N   0  0  0  0  0  0  0  0  0  0  0  0
   41.8380   24.4580   35.3440 C   0  0  0  0  0  0  0  0  0  0  0  0
   42.9480   25.3050   35.2050 C   0  0  0  0  0  0  0  0  0  0  0  0
   44.1920   25.1060   35.7840 C   0  0  0  0  0  0  0  0  0  0  0  0
   44.2870   23.9580   36.5610 C   0  0  0  0  0  0  0  0  0  0  0  0
   43.1980   23.0860   36.7240 C   0  0  0  0  0  0  0  0  0  0  0  0
   41.9540   23.3300   36.1050 C   0  0  0  0  0  0  0  0  0  0  0  0
   41.2000   22.1230   36.2420 C   0  0  0  0  0  0  0  0  0  0  0  0
   40.9980   22.0410   37.4770 O   0  0  0  0  0  0  0  0  0  0  0  0
   37.4036   21.8752   36.1675 H   0  0  0  0  0  0  0  0  0  0  0  0
   37.3796   22.2323   38.6370 H   0  0  0  0  0  0  0  0  0  0  0  0
   37.9412   24.5536   39.4992 H   0  0  0  0  0  0  0  0  0  0  0  0
   38.3427   27.4360   36.8933 H   0  0  0  0  0  0  0  0  0  0  0  0
   39.1218   28.1833   35.4576 H   0  0  0  0  0  0  0  0  0  0  0  0
   37.3534   27.8681   35.4576 H   0  0  0  0  0  0  0  0  0  0  0  0
   36.6862   25.8101   34.2615 H   0  0  0  0  0  0  0  0  0  0  0  0
   37.8138   26.8905   33.3740 H   0  0  0  0  0  0  0  0  0  0  0  0
   38.0846   25.1148   33.3740 H   0  0  0  0  0  0  0  0  0  0  0  0
   40.1372   26.5212   33.7965 H   0  0  0  0  0  0  0  0  0  0  0  0
   40.6098   26.6514   35.5425 H   0  0  0  0  0  0  0  0  0  0  0  0
   40.0279   23.9656   34.3295 H   0  0  0  0  0  0  0  0  0  0  0  0
   42.8203   26.2036   34.5836 H   0  0  0  0  0  0  0  0  0  0  0  0
   45.0338   25.7993   35.6402 H   0  0  0  0  0  0  0  0  0  0  0  0
   45.2390   23.7263   37.0610 H   0  0  0  0  0  0  0  0  0  0  0  0
   43.3182   22.1898   37.3504 H   0  0  0  0  0  0  0  0  0  0  0  0
   40.8744   21.4306   35.4517 H   0  0  0  0  0  0  0  0  0  0  0  0
  1  8  1  0
  1  6  1  0
  2  3  2  0
  3  4  1  0
  5  4  2  0
  6  5  1  0
  7  6  2  0
  7  2  1  0
  9  1  1  0
 10  1  1  0
 11 10  1  0
 11 12  1  0
 12 17  1  0
 13 12  2  0
 13 14  1  0
 14 15  2  0
 15 16  1  0
 17 18  1  0
 17 16  2  0
 18 19  2  0
  2 20  1  0
  3 21  1  0
  4 22  1  0
  8 23  1  0
  8 24  1  0
  8 25  1  0
  9 26  1  0
  9 27  1  0
  9 28  1  0
 10 29  1  0
 10 30  1  0
 11 31  1  0
 13 32  1  0
 14 33  1  0
 15 34  1  0
 16 35  1  0
 18 36  1  0
M  ISO  8  20  14  21  14  22  14  23   8  24   8  25   8  26   8  27   8
M  ISO  8  28   8  29   8  30   8  32  14  33  14  34  14  35  14  36   6
M  END
>  <minimizedAffinity>  (1) 
-4.54352808

>  <minimizedRMSD>  (1) 
0.423289776

$$$$
