
     RDKit          3D

 35 36  0  0  0  0  0  0  0  0999 V2000
   38.5720   26.1520   35.1360 C   0  0  0  0  0  0  0  0  0  0  0  0
   37.7310   22.8880   36.5030 C   0  0  0  0  0  0  0  0  0  0  0  0
   37.6730   23.0850   37.8710 C   0  0  0  0  0  0  0  0  0  0  0  0
   37.9270   24.3780   38.3520 C   0  0  0  0  0  0  0  0  0  0  0  0
   38.2130   25.3500   37.4430 N   0  0  0  0  0  0  0  0  0  0  0  0
   38.2590   25.0990   36.1000 C   0  0  0  0  0  0  0  0  0  0  0  0
   38.0180   23.8770   35.6500 N   0  0  0  0  0  0  0  0  0  0  0  0
   38.0940   27.5230   35.6450 C   0  0  0  0  0  0  0  0  0  0  0  0
   37.9100   25.8950   33.8150 C   0  0  0  0  0  0  0  0  0  0  0  0
   40.0650   26.3170   34.9060 C   0  0  0  0  0  0  0  0  0  0  0  0
   40.6880   25.0600   34.5490 N   0  0  0  0  0  0  0  0  0  0  0  0
   41.8610   24.6400   35.2410 C   0  0  0  0  0  0  0  0  0  0  0  0
   43.0420   25.3740   35.2610 C   0  0  0  0  0  0  0  0  0  0  0  0
   44.1930   25.0050   35.9190 C   0  0  0  0  0  0  0  0  0  0  0  0
   44.1270   23.8000   36.6040 C   0  0  0  0  0  0  0  0  0  0  0  0
   42.9600   23.0270   36.6110 C   0  0  0  0  0  0  0  0  0  0  0  0
   41.8120   23.4470   35.9240 C   0  0  0  0  0  0  0  0  0  0  0  0
   40.8900   22.4680   36.1350 O   0  0  0  0  0  0  0  0  0  0  0  0
   37.5341   21.8825   36.1028 H   0  0  0  0  0  0  0  0  0  0  0  0
   37.4364   22.2580   38.5566 H   0  0  0  0  0  0  0  0  0  0  0  0
   37.8961   24.5993   39.4291 H   0  0  0  0  0  0  0  0  0  0  0  0
   38.0930   27.5258   36.7450 H   0  0  0  0  0  0  0  0  0  0  0  0
   38.7717   28.3074   35.2770 H   0  0  0  0  0  0  0  0  0  0  0  0
   37.0755   27.7160   35.2770 H   0  0  0  0  0  0  0  0  0  0  0  0
   36.8966   25.5016   33.9831 H   0  0  0  0  0  0  0  0  0  0  0  0
   37.8489   26.8347   33.2465 H   0  0  0  0  0  0  0  0  0  0  0  0
   38.4990   25.1602   33.2465 H   0  0  0  0  0  0  0  0  0  0  0  0
   40.2237   27.0389   34.0913 H   0  0  0  0  0  0  0  0  0  0  0  0
   40.5210   26.6755   35.8406 H   0  0  0  0  0  0  0  0  0  0  0  0
   40.2874   24.4748   33.8021 H   0  0  0  0  0  0  0  0  0  0  0  0
   43.0574   26.3244   34.7073 H   0  0  0  0  0  0  0  0  0  0  0  0
   45.1029   25.6229   35.9030 H   0  0  0  0  0  0  0  0  0  0  0  0
   45.0111   23.4445   37.1535 H   0  0  0  0  0  0  0  0  0  0  0  0
   42.9433   22.0760   37.1636 H   0  0  0  0  0  0  0  0  0  0  0  0
   41.1214   21.6814   36.6898 H   0  0  0  0  0  0  0  0  0  0  0  0
  1  8  1  0
  1  6  1  0
  2  3  2  0
  3  4  1  0
  5  4  2  0
  6  5  1  0
  7  6  2  0
  7  2  1  0
  9  1  1  0
 10  1  1  0
 11 10  1  0
 11 12  1  0
 12 13  2  0
 12 17  1  0
 13 14  1  0
 14 15  2  0
 15 16  1  0
 17 18  1  0
 17 16  2  0
  2 19  1  0
  3 20  1  0
  4 21  1  0
  8 22  1  0
  8 23  1  0
  8 24  1  0
  9 25  1  0
  9 26  1  0
  9 27  1  0
 10 28  1  0
 10 29  1  0
 11 30  1  0
 13 31  1  0
 14 32  1  0
 15 33  1  0
 16 34  1  0
 18 35  1  0
M  ISO  8  19  14  20  14  21  14  22   8  23   8  24   8  25   8  26   8
M  ISO  8  27   8  28   8  29   8  31  14  32  14  33  14  34  14  35   3
M  END
>  <minimizedAffinity>  (1) 
-4.4087472

>  <minimizedRMSD>  (1) 
0.140411228

$$$$
