
     RDKit          3D

 24 25  0  0  0  0  0  0  0  0999 V2000
   39.2920   25.2220   34.5060 N   0  0  0  0  0  0  0  0  0  0  0  0
   40.4050   25.9690   34.4980 C   0  0  0  0  0  0  0  0  0  0  0  0
   40.6700   26.7380   33.3600 C   0  0  0  0  0  0  0  0  0  0  0  0
   39.7930   26.7040   32.3030 C   0  0  0  0  0  0  0  0  0  0  0  0
   39.9460   27.3580   31.2420 O   0  0  0  0  0  0  0  0  0  0  0  0
   38.6970   25.9430   32.3620 N   0  0  0  0  0  0  0  0  0  0  0  0
   38.4470   25.2030   33.4640 C   0  0  0  0  0  0  0  0  0  0  0  0
   37.4340   24.5000   33.5180 O   0  0  0  0  0  0  0  0  0  0  0  0
   38.1970   24.9790   36.6580 C   0  0  0  0  0  0  0  0  0  0  0  0
   39.1040   24.4790   35.6950 C   0  0  0  0  0  0  0  0  0  0  0  0
   39.7480   23.2870   35.9870 C   0  0  0  0  0  0  0  0  0  0  0  0
   39.4820   22.6550   37.1770 N   0  0  0  0  0  0  0  0  0  0  0  0
   38.6110   23.1680   38.0650 C   0  0  0  0  0  0  0  0  0  0  0  0
   37.9630   24.3420   37.8040 N   0  0  0  0  0  0  0  0  0  0  0  0
   38.3770   22.4870   39.2600 O   0  0  0  0  0  0  0  0  0  0  0  0
   41.8950   27.6160   33.2400 C   0  0  0  0  0  0  0  0  0  0  0  0
   41.0888   25.9770   35.3596 H   0  0  0  0  0  0  0  0  0  0  0  0
   38.0424   25.9204   31.5671 H   0  0  0  0  0  0  0  0  0  0  0  0
   37.6690   25.9223   36.4544 H   0  0  0  0  0  0  0  0  0  0  0  0
   40.4639   22.8522   35.2739 H   0  0  0  0  0  0  0  0  0  0  0  0
   37.7386   22.8537   39.9219 H   0  0  0  0  0  0  0  0  0  0  0  0
   42.2590   27.8769   34.2447 H   0  0  0  0  0  0  0  0  0  0  0  0
   42.6819   27.0750   32.6940 H   0  0  0  0  0  0  0  0  0  0  0  0
   41.6354   28.5350   32.6940 H   0  0  0  0  0  0  0  0  0  0  0  0
  1 10  1  0
  2  1  1  0
  3  2  2  0
  4  6  1  0
  4  3  1  0
  5  4  2  0
  6  7  1  0
  7  8  2  0
  7  1  1  0
  9 14  2  0
 10 11  2  0
 10  9  1  0
 11 12  1  0
 12 13  2  0
 13 15  1  0
 14 13  1  0
 16  3  1  0
  2 17  1  0
  6 18  1  0
  9 19  1  0
 11 20  1  0
 15 21  1  0
 16 22  1  0
 16 23  1  0
 16 24  1  0
M  ISO  8  17  14  18   9  19  14  20  14  21   3  22   8  23   8  24   8
M  END
>  <minimizedAffinity>  (1) 
-4.39908981

>  <minimizedRMSD>  (1) 
1.03418911

$$$$
