
     RDKit          3D

 39 41  0  0  0  0  0  0  0  0999 V2000
   40.2200   26.4300   34.9880 C   0  0  0  0  0  0  0  0  0  0  0  0
   40.9340   25.1840   34.7720 N   0  0  0  0  0  0  0  0  0  0  0  0
   42.3130   25.1000   35.0780 C   0  0  0  0  0  0  0  0  0  0  0  0
   43.3040   25.8670   34.4780 C   0  0  0  0  0  0  0  0  0  0  0  0
   44.6640   25.8480   34.7570 C   0  0  0  0  0  0  0  0  0  0  0  0
   45.0190   24.9480   35.7640 C   0  0  0  0  0  0  0  0  0  0  0  0
   44.0440   24.1430   36.4080 C   0  0  0  0  0  0  0  0  0  0  0  0
   42.6790   24.2160   36.0560 C   0  0  0  0  0  0  0  0  0  0  0  0
   42.0850   23.0470   36.6390 C   0  0  0  0  0  0  0  0  0  0  0  0
   41.1070   22.5730   37.3960 N   0  0  0  0  0  0  0  0  0  0  0  0
   41.2740   21.3300   37.7140 O   0  0  0  0  0  0  0  0  0  0  0  0
   42.3880   20.9100   37.1740 C   0  0  0  0  0  0  0  0  0  0  0  0
   42.9000   21.9570   36.5090 N   0  0  0  0  0  0  0  0  0  0  0  0
   38.7210   26.2140   35.0690 C   0  0  0  0  0  0  0  0  0  0  0  0
   37.7860   22.8830   36.1960 C   0  0  0  0  0  0  0  0  0  0  0  0
   37.6530   23.0010   37.5550 C   0  0  0  0  0  0  0  0  0  0  0  0
   37.8800   24.2550   38.1260 C   0  0  0  0  0  0  0  0  0  0  0  0
   38.2200   25.2610   37.2820 N   0  0  0  0  0  0  0  0  0  0  0  0
   38.3490   25.1250   35.9440 C   0  0  0  0  0  0  0  0  0  0  0  0
   38.1210   23.9280   35.4700 N   0  0  0  0  0  0  0  0  0  0  0  0
   38.1500   27.5490   35.5880 C   0  0  0  0  0  0  0  0  0  0  0  0
   38.1980   25.9950   33.6820 C   0  0  0  0  0  0  0  0  0  0  0  0
   40.4366   27.1136   34.1539 H   0  0  0  0  0  0  0  0  0  0  0  0
   40.5562   26.8550   35.9453 H   0  0  0  0  0  0  0  0  0  0  0  0
   40.4377   24.3631   34.3969 H   0  0  0  0  0  0  0  0  0  0  0  0
   42.9748   26.5665   33.6955 H   0  0  0  0  0  0  0  0  0  0  0  0
   45.3940   26.4829   34.2335 H   0  0  0  0  0  0  0  0  0  0  0  0
   46.0739   24.8615   36.0635 H   0  0  0  0  0  0  0  0  0  0  0  0
   44.3589   23.4466   37.1991 H   0  0  0  0  0  0  0  0  0  0  0  0
   42.8191   19.9008   37.2496 H   0  0  0  0  0  0  0  0  0  0  0  0
   37.6121   21.9113   35.7106 H   0  0  0  0  0  0  0  0  0  0  0  0
   37.3764   22.1360   38.1758 H   0  0  0  0  0  0  0  0  0  0  0  0
   37.7874   24.4193   39.2097 H   0  0  0  0  0  0  0  0  0  0  0  0
   38.1515   27.5455   36.6880 H   0  0  0  0  0  0  0  0  0  0  0  0
   38.7714   28.3801   35.2231 H   0  0  0  0  0  0  0  0  0  0  0  0
   37.1198   27.6737   35.2231 H   0  0  0  0  0  0  0  0  0  0  0  0
   37.1845   25.5706   33.7350 H   0  0  0  0  0  0  0  0  0  0  0  0
   38.1659   26.9552   33.1464 H   0  0  0  0  0  0  0  0  0  0  0  0
   38.8597   25.2984   33.1464 H   0  0  0  0  0  0  0  0  0  0  0  0
  1 14  1  0
  2  1  1  0
  2  3  1  0
  3  8  2  0
  4  5  2  0
  4  3  1  0
  5  6  1  0
  6  7  2  0
  8  7  1  0
  8  9  1  0
  9 10  2  0
 10 11  1  0
 12 11  1  0
 13  9  1  0
 13 12  2  0
 14 21  1  0
 14 19  1  0
 15 16  2  0
 16 17  1  0
 18 17  2  0
 19 18  1  0
 20 19  2  0
 20 15  1  0
 22 14  1  0
  1 23  1  0
  1 24  1  0
  2 25  1  0
  4 26  1  0
  5 27  1  0
  6 28  1  0
  7 29  1  0
 12 30  1  0
 15 31  1  0
 16 32  1  0
 17 33  1  0
 21 34  1  0
 21 35  1  0
 21 36  1  0
 22 37  1  0
 22 38  1  0
 22 39  1  0
M  ISO  8  23   8  24   8  26  14  27  14  28  14  29  14  30  14  31  14
M  ISO  8  32  14  33  14  34   8  35   8  36   8  37   8  38   8  39   8
M  END
>  <minimizedAffinity>  (1) 
-4.91068649

>  <minimizedRMSD>  (1) 
1.42289364

$$$$
