
     RDKit          3D

 49 52  0  0  1  0  0  0  0  0999 V2000
   38.9930   25.7780   34.5290 C   0  0  1  0  0  0  0  0  0  0  0  0
   37.8260   22.6820   36.0540 C   0  0  0  0  0  0  0  0  0  0  0  0
   37.5600   22.9980   37.3500 C   0  0  0  0  0  0  0  0  0  0  0  0
   37.7730   24.3100   37.7460 C   0  0  0  0  0  0  0  0  0  0  0  0
   38.2290   25.1700   36.8080 N   0  0  0  0  0  0  0  0  0  0  0  0
   38.4910   24.8390   35.5190 C   0  0  0  0  0  0  0  0  0  0  0  0
   38.2690   23.5960   35.2190 N   0  0  0  0  0  0  0  0  0  0  0  0
   38.1970   27.1020   34.6300 C   0  0  0  0  0  0  0  0  0  0  0  0
   40.4340   26.1550   34.7660 C   0  0  0  0  0  0  0  0  0  0  0  0
   41.3440   25.0350   34.5040 N   0  0  0  0  0  0  0  0  0  0  0  0
   42.6220   25.0450   35.0890 C   0  0  0  0  0  0  0  0  0  0  0  0
   43.6810   25.8880   34.7430 C   0  0  0  0  0  0  0  0  0  0  0  0
   44.9390   25.9600   35.3350 C   0  0  0  0  0  0  0  0  0  0  0  0
   45.1190   25.0790   36.3890 C   0  0  0  0  0  0  0  0  0  0  0  0
   44.0800   24.2140   36.7670 C   0  0  0  0  0  0  0  0  0  0  0  0
   42.8310   24.1880   36.1190 C   0  0  0  0  0  0  0  0  0  0  0  0
   42.1490   23.0880   36.7360 C   0  0  0  0  0  0  0  0  0  0  0  0
   41.1030   22.6120   37.3680 N   0  0  0  0  0  0  0  0  0  0  0  0
   41.2030   21.3400   37.6390 O   0  0  0  0  0  0  0  0  0  0  0  0
   42.3540   20.9020   37.1850 C   0  0  0  0  0  0  0  0  0  0  0  0
   42.9520   21.9600   36.6260 N   0  0  0  0  0  0  0  0  0  0  0  0
   38.8430   25.2280   33.1580 C   0  0  0  0  0  0  0  0  0  0  0  0
   38.3370   26.1170   32.1600 N   0  0  0  0  0  0  0  0  0  0  0  0
   39.1160   27.0860   31.5930 C   0  0  0  0  0  0  0  0  0  0  0  0
   38.6720   27.9620   30.6250 C   0  0  0  0  0  0  0  0  0  0  0  0
   37.3730   27.8910   30.1750 C   0  0  0  0  0  0  0  0  0  0  0  0
   36.9800   28.6820   29.3050 O   0  0  0  0  0  0  0  0  0  0  0  0
   36.6040   26.9400   30.7290 N   0  0  0  0  0  0  0  0  0  0  0  0
   37.0860   26.1110   31.6690 C   0  0  0  0  0  0  0  0  0  0  0  0
   36.2750   25.2630   32.1140 O   0  0  0  0  0  0  0  0  0  0  0  0
   37.6690   21.6520   35.7011 H   0  0  0  0  0  0  0  0  0  0  0  0
   37.1898   22.2414   38.0574 H   0  0  0  0  0  0  0  0  0  0  0  0
   37.5793   24.6366   38.7784 H   0  0  0  0  0  0  0  0  0  0  0  0
   38.0433   27.3576   35.6888 H   0  0  0  0  0  0  0  0  0  0  0  0
   38.7608   27.9073   34.1365 H   0  0  0  0  0  0  0  0  0  0  0  0
   37.2213   26.9818   34.1365 H   0  0  0  0  0  0  0  0  0  0  0  0
   40.6971   26.9899   34.0999 H   0  0  0  0  0  0  0  0  0  0  0  0
   40.5416   26.4408   35.8228 H   0  0  0  0  0  0  0  0  0  0  0  0
   41.0511   24.2533   33.9007 H   0  0  0  0  0  0  0  0  0  0  0  0
   43.4995   26.5759   33.9040 H   0  0  0  0  0  0  0  0  0  0  0  0
   45.7211   26.6551   34.9958 H   0  0  0  0  0  0  0  0  0  0  0  0
   46.0766   25.0573   36.9299 H   0  0  0  0  0  0  0  0  0  0  0  0
   44.2498   23.5253   37.6078 H   0  0  0  0  0  0  0  0  0  0  0  0
   42.7461   19.8763   37.2507 H   0  0  0  0  0  0  0  0  0  0  0  0
   39.8342   24.8848   32.8266 H   0  0  0  0  0  0  0  0  0  0  0  0
   38.0869   24.4340   33.2470 H   0  0  0  0  0  0  0  0  0  0  0  0
   40.1599   27.1724   31.9289 H   0  0  0  0  0  0  0  0  0  0  0  0
   39.3562   28.7179   30.2122 H   0  0  0  0  0  0  0  0  0  0  0  0
   35.6240   26.8443   30.4267 H   0  0  0  0  0  0  0  0  0  0  0  0
  1 22  1  6
  1  8  1  0
  1  9  1  0
  1  6  1  0
  2  3  2  0
  3  4  1  0
  5  4  2  0
  6  5  1  0
  7  6  2  0
  7  2  1  0
 10  9  1  0
 10 11  1  0
 11 16  1  0
 12 11  2  0
 12 13  1  0
 13 14  2  0
 14 15  1  0
 16 17  1  0
 16 15  2  0
 17 18  2  0
 18 19  1  0
 20 19  1  0
 21 17  1  0
 21 20  2  0
 23 22  1  0
 24 23  1  0
 25 24  2  0
 26 25  1  0
 26 28  1  0
 27 26  2  0
 28 29  1  0
 29 30  2  0
 29 23  1  0
  2 31  1  0
  3 32  1  0
  4 33  1  0
  8 34  1  0
  8 35  1  0
  8 36  1  0
  9 37  1  0
  9 38  1  0
 10 39  1  0
 12 40  1  0
 13 41  1  0
 14 42  1  0
 15 43  1  0
 20 44  1  0
 22 45  1  0
 22 46  1  0
 24 47  1  0
 25 48  1  0
 28 49  1  0
M  ISO  8  31  14  32  14  33  14  34   8  35   8  36   8  37   8  38   8
M  ISO  8  40  14  41  14  42  14  43  14  44  14  45   8  46   8  47  14
M  ISO  2  48  14  49   9
M  END
>  <minimizedAffinity>  (1) 
-5.79661465

>  <minimizedRMSD>  (1) 
1.01815677

$$$$
