
     RDKit          3D

 51 54  0  0  1  0  0  0  0  0999 V2000
   38.7460   26.2140   35.0480 C   0  0  1  0  0  0  0  0  0  0  0  0
   37.7660   22.8950   36.2100 C   0  0  0  0  0  0  0  0  0  0  0  0
   37.6360   23.0100   37.5570 C   0  0  0  0  0  0  0  0  0  0  0  0
   37.8760   24.2500   38.1230 C   0  0  0  0  0  0  0  0  0  0  0  0
   38.2230   25.2450   37.2850 N   0  0  0  0  0  0  0  0  0  0  0  0
   38.3530   25.1310   35.9470 C   0  0  0  0  0  0  0  0  0  0  0  0
   38.1110   23.9300   35.4690 N   0  0  0  0  0  0  0  0  0  0  0  0
   38.1420   27.5410   35.5840 C   0  0  0  0  0  0  0  0  0  0  0  0
   40.2330   26.4410   35.0520 C   0  0  0  0  0  0  0  0  0  0  0  0
   40.9520   25.1990   34.7450 N   0  0  0  0  0  0  0  0  0  0  0  0
   42.3230   25.1080   35.0560 C   0  0  0  0  0  0  0  0  0  0  0  0
   43.3320   25.9150   34.5360 C   0  0  0  0  0  0  0  0  0  0  0  0
   44.6870   25.8940   34.8510 C   0  0  0  0  0  0  0  0  0  0  0  0
   45.0290   24.9470   35.8010 C   0  0  0  0  0  0  0  0  0  0  0  0
   44.0420   24.1080   36.3520 C   0  0  0  0  0  0  0  0  0  0  0  0
   42.6830   24.1830   35.9770 C   0  0  0  0  0  0  0  0  0  0  0  0
   42.0790   23.0850   36.6690 C   0  0  0  0  0  0  0  0  0  0  0  0
   41.0980   22.6040   37.3910 N   0  0  0  0  0  0  0  0  0  0  0  0
   41.2480   21.3410   37.6950 O   0  0  0  0  0  0  0  0  0  0  0  0
   42.3780   20.9190   37.1660 C   0  0  0  0  0  0  0  0  0  0  0  0
   42.8960   21.9730   36.5350 N   0  0  0  0  0  0  0  0  0  0  0  0
   38.2260   25.9780   33.6880 C   0  0  0  0  0  0  0  0  0  0  0  0
   37.5840   27.0550   32.9980 N   0  0  0  0  0  0  0  0  0  0  0  0
   36.5230   26.3760   32.1680 C   0  0  0  0  0  0  0  0  0  0  0  0
   36.2740   27.3330   31.0540 C   0  0  0  0  0  0  0  0  0  0  0  0
   37.4970   28.2160   31.0090 C   0  0  0  0  0  0  0  0  0  0  0  0
   38.4790   27.4340   31.8590 C   0  0  0  0  0  0  0  0  0  0  0  0
   37.5806   21.9231   35.7294 H   0  0  0  0  0  0  0  0  0  0  0  0
   37.3498   22.1474   38.1767 H   0  0  0  0  0  0  0  0  0  0  0  0
   37.7874   24.4149   39.2070 H   0  0  0  0  0  0  0  0  0  0  0  0
   38.1477   27.5285   36.6839 H   0  0  0  0  0  0  0  0  0  0  0  0
   38.7428   28.3892   35.2238 H   0  0  0  0  0  0  0  0  0  0  0  0
   37.1079   27.6450   35.2238 H   0  0  0  0  0  0  0  0  0  0  0  0
   40.4839   27.1991   34.2954 H   0  0  0  0  0  0  0  0  0  0  0  0
   40.5340   26.7837   36.0530 H   0  0  0  0  0  0  0  0  0  0  0  0
   40.4614   24.4055   34.3085 H   0  0  0  0  0  0  0  0  0  0  0  0
   43.0204   26.6577   33.7868 H   0  0  0  0  0  0  0  0  0  0  0  0
   45.4208   26.5694   34.3868 H   0  0  0  0  0  0  0  0  0  0  0  0
   46.0753   24.8498   36.1264 H   0  0  0  0  0  0  0  0  0  0  0  0
   44.3416   23.3641   37.1049 H   0  0  0  0  0  0  0  0  0  0  0  0
   42.8054   19.9075   37.2313 H   0  0  0  0  0  0  0  0  0  0  0  0
   39.0764   25.6583   33.0679 H   0  0  0  0  0  0  0  0  0  0  0  0
   37.4231   25.2406   33.8349 H   0  0  0  0  0  0  0  0  0  0  0  0
   36.8853   25.4117   31.7822 H   0  0  0  0  0  0  0  0  0  0  0  0
   35.6138   26.1492   32.7441 H   0  0  0  0  0  0  0  0  0  0  0  0
   36.1522   26.7942   30.1028 H   0  0  0  0  0  0  0  0  0  0  0  0
   35.3532   27.9142   31.2099 H   0  0  0  0  0  0  0  0  0  0  0  0
   37.8660   28.3362   29.9797 H   0  0  0  0  0  0  0  0  0  0  0  0
   37.3184   29.2411   31.3658 H   0  0  0  0  0  0  0  0  0  0  0  0
   38.8646   26.5500   31.3300 H   0  0  0  0  0  0  0  0  0  0  0  0
   39.3882   27.9835   32.1444 H   0  0  0  0  0  0  0  0  0  0  0  0
  1 22  1  6
  1  9  1  0
  1  8  1  0
  1  6  1  0
  2  3  2  0
  3  4  1  0
  5  4  2  0
  6  5  1  0
  7  6  2  0
  7  2  1  0
 10  9  1  0
 10 11  1  0
 11 16  2  0
 12 13  2  0
 12 11  1  0
 13 14  1  0
 14 15  2  0
 16 15  1  0
 16 17  1  0
 17 18  2  0
 18 19  1  0
 20 19  1  0
 21 17  1  0
 21 20  2  0
 23 22  1  0
 24 23  1  0
 25 24  1  0
 26 25  1  0
 26 27  1  0
 27 23  1  0
  2 28  1  0
  3 29  1  0
  4 30  1  0
  8 31  1  0
  8 32  1  0
  8 33  1  0
  9 34  1  0
  9 35  1  0
 10 36  1  0
 12 37  1  0
 13 38  1  0
 14 39  1  0
 15 40  1  0
 20 41  1  0
 22 42  1  0
 22 43  1  0
 24 44  1  0
 24 45  1  0
 25 46  1  0
 25 47  1  0
 26 48  1  0
 26 49  1  0
 27 50  1  0
 27 51  1  0
M  ISO  8  28  14  29  14  30  14  31   8  32   8  33   8  34   8  35   8
M  ISO  8  37  14  38  14  39  14  40  14  41  14  42   8  43   8  44  13
M  ISO  7  45  13  46  13  47  13  48  13  49  13  50  13  51  13
M  END
>  <minimizedAffinity>  (1) 
-5.43197536

>  <minimizedRMSD>  (1) 
0.629972041

$$$$
