
     RDKit          3D

 46 49  0  0  1  0  0  0  0  0999 V2000
   38.4340   26.0760   35.1620 C   0  0  1  0  0  0  0  0  0  0  0  0
   37.6910   22.9620   36.8900 C   0  0  0  0  0  0  0  0  0  0  0  0
   37.7100   23.2820   38.2130 C   0  0  0  0  0  0  0  0  0  0  0  0
   37.9790   24.6000   38.5550 C   0  0  0  0  0  0  0  0  0  0  0  0
   38.2010   25.4600   37.5360 N   0  0  0  0  0  0  0  0  0  0  0  0
   38.1790   25.1310   36.2190 C   0  0  0  0  0  0  0  0  0  0  0  0
   37.9210   23.8800   35.9750 N   0  0  0  0  0  0  0  0  0  0  0  0
   37.8370   27.4500   35.5140 C   0  0  0  0  0  0  0  0  0  0  0  0
   39.9090   26.3150   34.9210 C   0  0  0  0  0  0  0  0  0  0  0  0
   40.6510   25.0590   34.7830 N   0  0  0  0  0  0  0  0  0  0  0  0
   42.0360   25.0550   35.0210 C   0  0  0  0  0  0  0  0  0  0  0  0
   42.9660   25.9130   34.4350 C   0  0  0  0  0  0  0  0  0  0  0  0
   44.3430   25.9620   34.6820 C   0  0  0  0  0  0  0  0  0  0  0  0
   44.7840   25.0480   35.6170 C   0  0  0  0  0  0  0  0  0  0  0  0
   43.8760   24.1690   36.2260 C   0  0  0  0  0  0  0  0  0  0  0  0
   42.4980   24.1640   35.9290 C   0  0  0  0  0  0  0  0  0  0  0  0
   41.9900   23.0400   36.6650 C   0  0  0  0  0  0  0  0  0  0  0  0
   41.0780   22.5150   37.4430 N   0  0  0  0  0  0  0  0  0  0  0  0
   41.3210   21.2680   37.7310 O   0  0  0  0  0  0  0  0  0  0  0  0
   42.4320   20.8950   37.1440 C   0  0  0  0  0  0  0  0  0  0  0  0
   42.8570   21.9720   36.4830 N   0  0  0  0  0  0  0  0  0  0  0  0
   37.8140   25.6290   33.8810 C   0  0  0  0  0  0  0  0  0  0  0  0
   37.6180   26.7390   32.9730 N   0  0  0  0  0  0  0  0  0  0  0  0
   36.5310   27.5020   32.9460 N   0  0  0  0  0  0  0  0  0  0  0  0
   36.6380   28.4480   32.0020 C   0  0  0  0  0  0  0  0  0  0  0  0
   37.8480   28.3120   31.3700 C   0  0  0  0  0  0  0  0  0  0  0  0
   38.4230   27.2480   31.9970 C   0  0  0  0  0  0  0  0  0  0  0  0
   37.4815   21.9268   36.5827 H   0  0  0  0  0  0  0  0  0  0  0  0
   37.5187   22.5219   38.9848 H   0  0  0  0  0  0  0  0  0  0  0  0
   38.0100   24.9287   39.6043 H   0  0  0  0  0  0  0  0  0  0  0  0
   37.7893   27.5598   36.6075 H   0  0  0  0  0  0  0  0  0  0  0  0
   38.4712   28.2441   35.0931 H   0  0  0  0  0  0  0  0  0  0  0  0
   36.8237   27.5282   35.0931 H   0  0  0  0  0  0  0  0  0  0  0  0
   40.0280   26.9015   33.9981 H   0  0  0  0  0  0  0  0  0  0  0  0
   40.3130   26.8557   35.7896 H   0  0  0  0  0  0  0  0  0  0  0  0
   40.1644   24.1915   34.5154 H   0  0  0  0  0  0  0  0  0  0  0  0
   42.5748   26.6298   33.6980 H   0  0  0  0  0  0  0  0  0  0  0  0
   45.0159   26.6686   34.1742 H   0  0  0  0  0  0  0  0  0  0  0  0
   45.8500   25.0085   35.8854 H   0  0  0  0  0  0  0  0  0  0  0  0
   44.2562   23.4518   36.9683 H   0  0  0  0  0  0  0  0  0  0  0  0
   42.9109   19.9057   37.1874 H   0  0  0  0  0  0  0  0  0  0  0  0
   38.4728   24.8885   33.4039 H   0  0  0  0  0  0  0  0  0  0  0  0
   36.8314   25.1893   34.1071 H   0  0  0  0  0  0  0  0  0  0  0  0
   35.8786   29.2098   31.7716 H   0  0  0  0  0  0  0  0  0  0  0  0
   38.2577   28.9195   30.5496 H   0  0  0  0  0  0  0  0  0  0  0  0
   39.4165   26.8478   31.7463 H   0  0  0  0  0  0  0  0  0  0  0  0
  1 22  1  6
  1  8  1  0
  1  6  1  0
  2  3  2  0
  3  4  1  0
  5  4  2  0
  6  5  1  0
  7  6  2  0
  7  2  1  0
  9  1  1  0
 10  9  1  0
 10 11  1  0
 11 16  2  0
 12 13  2  0
 12 11  1  0
 13 14  1  0
 14 15  2  0
 16 15  1  0
 16 17  1  0
 17 18  2  0
 18 19  1  0
 20 19  1  0
 21 17  1  0
 21 20  2  0
 23 22  1  0
 24 23  1  0
 25 24  2  0
 26 27  2  0
 26 25  1  0
 27 23  1  0
  2 28  1  0
  3 29  1  0
  4 30  1  0
  8 31  1  0
  8 32  1  0
  8 33  1  0
  9 34  1  0
  9 35  1  0
 10 36  1  0
 12 37  1  0
 13 38  1  0
 14 39  1  0
 15 40  1  0
 20 41  1  0
 22 42  1  0
 22 43  1  0
 25 44  1  0
 26 45  1  0
 27 46  1  0
M  ISO  8  28  14  29  14  30  14  31   8  32   8  33   8  34   8  35   8
M  ISO  8  37  14  38  14  39  14  40  14  41  14  42   8  43   8  44  14
M  ISO  2  45  14  46  14
M  END
>  <minimizedAffinity>  (1) 
-5.324471

>  <minimizedRMSD>  (1) 
0.705917239

$$$$
