
     RDKit          3D

 46 49  0  0  1  0  0  0  0  0999 V2000
   38.6070   26.0770   34.7450 C   0  0  1  0  0  0  0  0  0  0  0  0
   37.7800   22.5490   34.7760 C   0  0  0  0  0  0  0  0  0  0  0  0
   37.5540   22.2440   36.1040 C   0  0  0  0  0  0  0  0  0  0  0  0
   37.6800   23.2750   37.0390 C   0  0  0  0  0  0  0  0  0  0  0  0
   38.0170   24.4950   36.5610 N   0  0  0  0  0  0  0  0  0  0  0  0
   38.2350   24.7760   35.2630 C   0  0  0  0  0  0  0  0  0  0  0  0
   38.1030   23.7730   34.4240 N   0  0  0  0  0  0  0  0  0  0  0  0
   38.7230   27.0730   35.9420 C   0  0  0  0  0  0  0  0  0  0  0  0
   39.9860   26.1030   34.1150 C   0  0  0  0  0  0  0  0  0  0  0  0
   40.7460   24.9060   34.4890 N   0  0  0  0  0  0  0  0  0  0  0  0
   42.0750   25.0370   34.9240 C   0  0  0  0  0  0  0  0  0  0  0  0
   43.0120   25.9510   34.4400 C   0  0  0  0  0  0  0  0  0  0  0  0
   44.3220   26.1360   34.8900 C   0  0  0  0  0  0  0  0  0  0  0  0
   44.6870   25.3060   35.9320 C   0  0  0  0  0  0  0  0  0  0  0  0
   43.7700   24.3740   36.4430 C   0  0  0  0  0  0  0  0  0  0  0  0
   42.4640   24.2310   35.9400 C   0  0  0  0  0  0  0  0  0  0  0  0
   41.9420   23.0980   36.6500 C   0  0  0  0  0  0  0  0  0  0  0  0
   41.0080   22.5530   37.3880 N   0  0  0  0  0  0  0  0  0  0  0  0
   41.2540   21.3090   37.6940 O   0  0  0  0  0  0  0  0  0  0  0  0
   42.4010   20.9620   37.1550 C   0  0  0  0  0  0  0  0  0  0  0  0
   42.8350   22.0450   36.5110 N   0  0  0  0  0  0  0  0  0  0  0  0
   37.6330   26.6400   33.8080 C   0  0  0  0  0  0  0  0  0  0  0  0
   37.8660   26.5960   32.3750 C   0  0  0  0  0  0  0  0  0  0  0  0
   38.0860   27.7940   31.6690 C   0  0  0  0  0  0  0  0  0  0  0  0
   38.2450   27.4610   30.3420 C   0  0  0  0  0  0  0  0  0  0  0  0
   38.1200   26.1060   30.2790 N   0  0  0  0  0  0  0  0  0  0  0  0
   37.8930   25.5800   31.4890 N   0  0  0  0  0  0  0  0  0  0  0  0
   37.6893   21.7644   34.0104 H   0  0  0  0  0  0  0  0  0  0  0  0
   37.2840   21.2241   36.4152 H   0  0  0  0  0  0  0  0  0  0  0  0
   37.5131   23.1028   38.1125 H   0  0  0  0  0  0  0  0  0  0  0  0
   38.6583   26.5172   36.8891 H   0  0  0  0  0  0  0  0  0  0  0  0
   39.6883   27.5978   35.8901 H   0  0  0  0  0  0  0  0  0  0  0  0
   37.9041   27.8056   35.8901 H   0  0  0  0  0  0  0  0  0  0  0  0
   40.5253   26.9968   34.4618 H   0  0  0  0  0  0  0  0  0  0  0  0
   39.8760   26.1262   33.0208 H   0  0  0  0  0  0  0  0  0  0  0  0
   40.3081   23.9754   34.4331 H   0  0  0  0  0  0  0  0  0  0  0  0
   42.6830   26.5972   33.6129 H   0  0  0  0  0  0  0  0  0  0  0  0
   45.0043   26.8792   34.4518 H   0  0  0  0  0  0  0  0  0  0  0  0
   45.6972   25.3754   36.3618 H   0  0  0  0  0  0  0  0  0  0  0  0
   44.0868   23.7265   37.2739 H   0  0  0  0  0  0  0  0  0  0  0  0
   42.8985   19.9832   37.2214 H   0  0  0  0  0  0  0  0  0  0  0  0
   36.6844   26.1128   33.9876 H   0  0  0  0  0  0  0  0  0  0  0  0
   37.6772   27.7167   34.0288 H   0  0  0  0  0  0  0  0  0  0  0  0
   38.1238   28.8066   32.0971 H   0  0  0  0  0  0  0  0  0  0  0  0
   38.4342   28.1485   29.5045 H   0  0  0  0  0  0  0  0  0  0  0  0
   38.1911   25.5561   29.4110 H   0  0  0  0  0  0  0  0  0  0  0  0
  1 22  1  6
  1  6  1  0
  1  8  1  0
  2  3  2  0
  3  4  1  0
  5  4  2  0
  6  5  1  0
  7  2  1  0
  7  6  2  0
  9 10  1  0
  9  1  1  0
 10 11  1  0
 11 16  2  0
 12 13  2  0
 12 11  1  0
 13 14  1  0
 14 15  2  0
 16 15  1  0
 16 17  1  0
 17 18  2  0
 18 19  1  0
 20 19  1  0
 21 17  1  0
 21 20  2  0
 23 22  1  0
 24 23  1  0
 25 24  2  0
 26 25  1  0
 26 27  1  0
 27 23  2  0
  2 28  1  0
  3 29  1  0
  4 30  1  0
  8 31  1  0
  8 32  1  0
  8 33  1  0
  9 34  1  0
  9 35  1  0
 10 36  1  0
 12 37  1  0
 13 38  1  0
 14 39  1  0
 15 40  1  0
 20 41  1  0
 22 42  1  0
 22 43  1  0
 24 44  1  0
 25 45  1  0
 26 46  1  0
M  ISO  8  28  14  29  14  30  14  31   8  32   8  33   8  34   8  35   8
M  ISO  8  37  14  38  14  39  14  40  14  41  14  42   8  43   8  44  14
M  ISO  2  45  14  46   9
M  END
>  <minimizedAffinity>  (1) 
-5.30822897

>  <minimizedRMSD>  (1) 
1.56471145

$$$$
