
     RDKit          3D

 29 30  0  0  0  0  0  0  0  0999 V2000
   38.1310   25.8380   32.5450 N   0  0  0  0  0  0  0  0  0  0  0  0
   39.3090   26.4070   32.2800 C   0  0  0  0  0  0  0  0  0  0  0  0
   39.4550   27.1350   31.0990 C   0  0  0  0  0  0  0  0  0  0  0  0
   38.3830   27.2440   30.2470 C   0  0  0  0  0  0  0  0  0  0  0  0
   38.4330   27.8800   29.1670 O   0  0  0  0  0  0  0  0  0  0  0  0
   37.2110   26.6590   30.5420 N   0  0  0  0  0  0  0  0  0  0  0  0
   37.1030   25.9620   31.6920 C   0  0  0  0  0  0  0  0  0  0  0  0
   36.0140   25.4230   31.9630 O   0  0  0  0  0  0  0  0  0  0  0  0
   37.8150   25.8420   34.9460 C   0  0  0  0  0  0  0  0  0  0  0  0
   38.0740   25.1230   33.7580 C   0  0  0  0  0  0  0  0  0  0  0  0
   38.2570   23.7530   33.8700 C   0  0  0  0  0  0  0  0  0  0  0  0
   38.1820   23.1530   35.0920 N   0  0  0  0  0  0  0  0  0  0  0  0
   37.9310   23.8820   36.2060 C   0  0  0  0  0  0  0  0  0  0  0  0
   37.7470   25.2340   36.1260 N   0  0  0  0  0  0  0  0  0  0  0  0
   37.8340   23.3110   37.5660 C   0  0  0  0  0  0  0  0  0  0  0  0
   37.9830   24.3820   38.6290 C   0  0  0  0  0  0  0  0  0  0  0  0
   40.7540   27.8150   30.7360 C   0  0  0  0  0  0  0  0  0  0  0  0
   40.1504   26.3036   32.9810 H   0  0  0  0  0  0  0  0  0  0  0  0
   36.4085   26.7410   29.9015 H   0  0  0  0  0  0  0  0  0  0  0  0
   37.6661   26.9306   34.8933 H   0  0  0  0  0  0  0  0  0  0  0  0
   38.4627   23.1504   32.9730 H   0  0  0  0  0  0  0  0  0  0  0  0
   36.8532   22.8266   37.6814 H   0  0  0  0  0  0  0  0  0  0  0  0
   38.6477   22.5818   37.6936 H   0  0  0  0  0  0  0  0  0  0  0  0
   37.9188   23.9209   39.6256 H   0  0  0  0  0  0  0  0  0  0  0  0
   38.9587   24.8773   38.5163 H   0  0  0  0  0  0  0  0  0  0  0  0
   37.1795   25.1248   38.5163 H   0  0  0  0  0  0  0  0  0  0  0  0
   41.2901   28.0957   31.6546 H   0  0  0  0  0  0  0  0  0  0  0  0
   41.3755   27.1266   30.1445 H   0  0  0  0  0  0  0  0  0  0  0  0
   40.5424   28.7180   30.1445 H   0  0  0  0  0  0  0  0  0  0  0  0
  1 10  1  0
  2  1  1  0
  3  2  2  0
  4  6  1  0
  4  3  1  0
  5  4  2  0
  6  7  1  0
  7  8  2  0
  7  1  1  0
  9 14  2  0
 10 11  2  0
 10  9  1  0
 11 12  1  0
 12 13  2  0
 13 15  1  0
 14 13  1  0
 15 16  1  0
 17  3  1  0
  2 18  1  0
  6 19  1  0
  9 20  1  0
 11 21  1  0
 15 22  1  0
 15 23  1  0
 16 24  1  0
 16 25  1  0
 16 26  1  0
 17 27  1  0
 17 28  1  0
 17 29  1  0
M  ISO  8  18  14  19   9  20  14  21  14  22   8  23   8  24   8  25   8
M  ISO  4  26   8  27   8  28   8  29   8
M  END
>  <minimizedAffinity>  (1) 
-4.16193867

>  <minimizedRMSD>  (1) 
2.78513932

$$$$
