
     RDKit          3D

 22 23  0  0  0  0  0  0  0  0999 V2000
   38.1270   26.4500   35.7360 C   0  0  0  0  0  0  0  0  0  0  0  0
   38.7630   27.5140   35.8330 O   0  0  0  0  0  0  0  0  0  0  0  0
   38.4720   23.3470   37.8370 C   0  0  0  0  0  0  0  0  0  0  0  0
   37.9840   24.5840   37.4210 C   0  0  0  0  0  0  0  0  0  0  0  0
   38.5310   25.1680   36.2900 C   0  0  0  0  0  0  0  0  0  0  0  0
   39.5320   24.5020   35.6300 N   0  0  0  0  0  0  0  0  0  0  0  0
   39.9830   23.3040   36.0610 C   0  0  0  0  0  0  0  0  0  0  0  0
   39.4600   22.7220   37.1590 N   0  0  0  0  0  0  0  0  0  0  0  0
   36.9290   26.5620   35.0220 O   0  0  0  0  0  0  0  0  0  0  0  0
   37.0270   26.9690   33.6830 C   0  0  0  0  0  0  0  0  0  0  0  0
   36.6030   28.1650   33.1630 C   0  0  0  0  0  0  0  0  0  0  0  0
   36.7630   28.4250   31.8380 C   0  0  0  0  0  0  0  0  0  0  0  0
   37.3510   27.5040   30.9850 C   0  0  0  0  0  0  0  0  0  0  0  0
   37.7580   26.3100   31.5800 C   0  0  0  0  0  0  0  0  0  0  0  0
   37.6070   26.0380   32.8850 N   0  0  0  0  0  0  0  0  0  0  0  0
   38.0459   22.8710   38.7325 H   0  0  0  0  0  0  0  0  0  0  0  0
   37.1806   25.0868   37.9793 H   0  0  0  0  0  0  0  0  0  0  0  0
   40.7877   22.7964   35.5089 H   0  0  0  0  0  0  0  0  0  0  0  0
   36.1335   28.9139   33.8177 H   0  0  0  0  0  0  0  0  0  0  0  0
   36.4180   29.3881   31.4338 H   0  0  0  0  0  0  0  0  0  0  0  0
   37.4874   27.7015   29.9115 H   0  0  0  0  0  0  0  0  0  0  0  0
   38.2299   25.5476   30.9427 H   0  0  0  0  0  0  0  0  0  0  0  0
  1  2  2  0
  1  5  1  0
  4  3  2  0
  5  4  1  0
  6  7  1  0
  6  5  2  0
  7  8  2  0
  8  3  1  0
  9  1  1  0
 10  9  1  0
 11 10  2  0
 12 11  1  0
 13 14  1  0
 13 12  2  0
 14 15  2  0
 15 10  1  0
  3 16  1  0
  4 17  1  0
  7 18  1  0
 11 19  1  0
 12 20  1  0
 13 21  1  0
 14 22  1  0
M  ISO  7  16  14  17  14  18  14  19  14  20  14  21  14  22  14
M  END
>  <minimizedAffinity>  (1) 
-4.00018883

>  <minimizedRMSD>  (1) 
6.57243872

$$$$
