
     RDKit          3D

 26 27  0  0  0  0  0  0  0  0999 V2000
   38.7940   24.9790   33.3640 N   0  0  0  0  0  0  0  0  0  0  0  0
   39.7310   25.8910   33.1160 C   0  0  0  0  0  0  0  0  0  0  0  0
   39.8320   26.4100   31.8170 C   0  0  0  0  0  0  0  0  0  0  0  0
   38.9700   25.9660   30.8490 C   0  0  0  0  0  0  0  0  0  0  0  0
   39.0010   26.3830   29.6690 O   0  0  0  0  0  0  0  0  0  0  0  0
   38.0320   25.0360   31.1470 N   0  0  0  0  0  0  0  0  0  0  0  0
   37.9650   24.5610   32.4020 C   0  0  0  0  0  0  0  0  0  0  0  0
   37.0960   23.7040   32.6690 O   0  0  0  0  0  0  0  0  0  0  0  0
   37.9990   25.2340   35.6370 C   0  0  0  0  0  0  0  0  0  0  0  0
   38.7640   24.5100   34.7000 C   0  0  0  0  0  0  0  0  0  0  0  0
   39.4460   23.3790   35.1430 C   0  0  0  0  0  0  0  0  0  0  0  0
   39.3420   23.0220   36.4630 N   0  0  0  0  0  0  0  0  0  0  0  0
   38.6050   23.7310   37.3290 C   0  0  0  0  0  0  0  0  0  0  0  0
   37.9420   24.8260   36.9110 N   0  0  0  0  0  0  0  0  0  0  0  0
   38.4970   23.3390   38.7600 C   0  0  0  0  0  0  0  0  0  0  0  0
   40.8630   27.4480   31.4410 C   0  0  0  0  0  0  0  0  0  0  0  0
   40.4107   26.2300   33.9117 H   0  0  0  0  0  0  0  0  0  0  0  0
   37.3809   24.6984   30.4238 H   0  0  0  0  0  0  0  0  0  0  0  0
   37.4494   26.1332   35.3218 H   0  0  0  0  0  0  0  0  0  0  0  0
   40.0561   22.7839   34.4476 H   0  0  0  0  0  0  0  0  0  0  0  0
   38.7354   24.2042   39.3962 H   0  0  0  0  0  0  0  0  0  0  0  0
   37.4720   23.0001   38.9710 H   0  0  0  0  0  0  0  0  0  0  0  0
   39.2038   22.5229   38.9710 H   0  0  0  0  0  0  0  0  0  0  0  0
   41.2952   27.8831   32.3542 H   0  0  0  0  0  0  0  0  0  0  0  0
   41.6595   26.9755   30.8475 H   0  0  0  0  0  0  0  0  0  0  0  0
   40.3851   28.2413   30.8475 H   0  0  0  0  0  0  0  0  0  0  0  0
  1 10  1  0
  2  1  1  0
  3  2  2  0
  4  6  1  0
  4  3  1  0
  5  4  2  0
  6  7  1  0
  7  8  2  0
  7  1  1  0
  9 14  2  0
 10 11  2  0
 10  9  1  0
 11 12  1  0
 12 13  2  0
 13 15  1  0
 14 13  1  0
 16  3  1  0
  2 17  1  0
  6 18  1  0
  9 19  1  0
 11 20  1  0
 15 21  1  0
 15 22  1  0
 15 23  1  0
 16 24  1  0
 16 25  1  0
 16 26  1  0
M  ISO  8  17  14  18   9  19  14  20  14  21   8  22   8  23   8  24   8
M  ISO  2  25   8  26   8
M  END
>  <minimizedAffinity>  (1) 
-3.63478684

>  <minimizedRMSD>  (1) 
1.46389151

$$$$
