
     RDKit          3D

 18 19  0  0  0  0  0  0  0  0999 V2000
   41.0280   21.8590   37.4740 C   0  0  0  0  0  0  0  0  0  0  0  0
   39.9640   22.7230   37.7080 C   0  0  0  0  0  0  0  0  0  0  0  0
   39.4230   23.4210   36.6410 C   0  0  0  0  0  0  0  0  0  0  0  0
   39.9670   23.2230   35.3990 N   0  0  0  0  0  0  0  0  0  0  0  0
   41.0050   22.3710   35.2080 C   0  0  0  0  0  0  0  0  0  0  0  0
   41.5380   21.6880   36.2410 N   0  0  0  0  0  0  0  0  0  0  0  0
   38.3180   24.3560   36.7140 C   0  0  0  0  0  0  0  0  0  0  0  0
   37.1750   24.0950   37.1280 O   0  0  0  0  0  0  0  0  0  0  0  0
   38.4800   25.6830   36.2990 O   0  0  0  0  0  0  0  0  0  0  0  0
   37.8240   26.1580   35.1710 C   0  0  0  0  0  0  0  0  0  0  0  0
   37.4650   25.6880   33.9640 N   0  0  0  0  0  0  0  0  0  0  0  0
   36.8490   26.6240   33.2970 O   0  0  0  0  0  0  0  0  0  0  0  0
   36.7800   27.7290   34.0270 C   0  0  0  0  0  0  0  0  0  0  0  0
   37.3890   27.4270   35.1910 N   0  0  0  0  0  0  0  0  0  0  0  0
   41.4630   21.3022   38.3170 H   0  0  0  0  0  0  0  0  0  0  0  0
   39.5590   22.8500   38.7228 H   0  0  0  0  0  0  0  0  0  0  0  0
   41.4172   22.2356   34.1972 H   0  0  0  0  0  0  0  0  0  0  0  0
   36.3228   28.6883   33.7429 H   0  0  0  0  0  0  0  0  0  0  0  0
  1  2  2  0
  3  7  1  0
  3  2  1  0
  4  3  2  0
  5  4  1  0
  5  6  2  0
  6  1  1  0
  7  8  2  0
  9  7  1  0
 10 14  1  0
 10  9  1  0
 11 10  2  0
 12 11  1  0
 12 13  1  0
 13 14  2  0
  1 15  1  0
  2 16  1  0
  5 17  1  0
 13 18  1  0
M  ISO  4  15  14  16  14  17  14  18  14
M  END
>  <minimizedAffinity>  (1) 
-3.6065681

>  <minimizedRMSD>  (1) 
4.83013248

$$$$
