
     RDKit          3D

 19 20  0  0  0  0  0  0  0  0999 V2000
   38.2260   27.6200   31.6890 C   0  0  0  0  0  0  0  0  0  0  0  0
   38.5790   27.0770   32.9350 C   0  0  0  0  0  0  0  0  0  0  0  0
   37.7170   27.2560   34.0030 C   0  0  0  0  0  0  0  0  0  0  0  0
   36.5710   27.9490   33.7930 N   0  0  0  0  0  0  0  0  0  0  0  0
   36.2410   28.4670   32.5930 C   0  0  0  0  0  0  0  0  0  0  0  0
   37.0820   28.2990   31.5330 N   0  0  0  0  0  0  0  0  0  0  0  0
   37.9480   26.7530   35.3470 C   0  0  0  0  0  0  0  0  0  0  0  0
   38.6510   27.3260   36.2110 O   0  0  0  0  0  0  0  0  0  0  0  0
   37.3740   25.5470   35.7710 O   0  0  0  0  0  0  0  0  0  0  0  0
   38.1870   24.6010   36.4330 C   0  0  0  0  0  0  0  0  0  0  0  0
   38.0850   24.1990   37.8440 C   0  0  0  0  0  0  0  0  0  0  0  0
   39.4740   22.9810   37.8310 S   0  0  0  0  0  0  0  0  0  0  0  0
   39.9000   23.2320   36.0270 C   0  0  0  0  0  0  0  0  0  0  0  0
   39.0420   24.1710   35.4990 N   0  0  0  0  0  0  0  0  0  0  0  0
   38.8985   27.4858   30.8289 H   0  0  0  0  0  0  0  0  0  0  0  0
   39.5202   26.5214   33.0595 H   0  0  0  0  0  0  0  0  0  0  0  0
   35.2992   29.0217   32.4697 H   0  0  0  0  0  0  0  0  0  0  0  0
   37.4036   24.5193   38.6459 H   0  0  0  0  0  0  0  0  0  0  0  0
   40.7021   22.7157   35.4792 H   0  0  0  0  0  0  0  0  0  0  0  0
  1  2  2  0
  2  3  1  0
  3  7  1  0
  4  3  2  0
  5  4  1  0
  6  1  1  0
  6  5  2  0
  7  9  1  0
  7  8  2  0
  9 10  1  0
 10 11  2  0
 12 11  1  0
 13 12  1  0
 14 13  2  0
 14 10  1  0
  1 15  1  0
  2 16  1  0
  5 17  1  0
 11 18  1  0
 13 19  1  0
M  ISO  5  15  14  16  14  17  14  18  14  19  14
M  END
>  <minimizedAffinity>  (1) 
-3.51549578

>  <minimizedRMSD>  (1) 
5.97023726

$$$$
