
     RDKit          3D

 20 21  0  0  0  0  0  0  0  0999 V2000
   39.1770   22.2850   36.3590 C   0  0  0  0  0  0  0  0  0  0  0  0
   38.6070   23.5380   36.1550 C   0  0  0  0  0  0  0  0  0  0  0  0
   39.4080   24.5720   35.6670 C   0  0  0  0  0  0  0  0  0  0  0  0
   40.7080   24.2900   35.4160 N   0  0  0  0  0  0  0  0  0  0  0  0
   41.2390   23.0730   35.6190 C   0  0  0  0  0  0  0  0  0  0  0  0
   40.4690   22.0600   36.0940 N   0  0  0  0  0  0  0  0  0  0  0  0
   38.9370   25.9280   35.4110 C   0  0  0  0  0  0  0  0  0  0  0  0
   39.6840   26.9410   35.3750 O   0  0  0  0  0  0  0  0  0  0  0  0
   37.5940   26.1780   35.1860 O   0  0  0  0  0  0  0  0  0  0  0  0
   37.0900   26.6390   33.9920 C   0  0  0  0  0  0  0  0  0  0  0  0
   36.6830   27.9120   33.9460 C   0  0  0  0  0  0  0  0  0  0  0  0
   36.1530   28.6130   32.9120 C   0  0  0  0  0  0  0  0  0  0  0  0
   36.0920   27.6790   31.7570 C   0  0  0  0  0  0  0  0  0  0  0  0
   36.7940   26.0300   32.3940 S   0  0  0  0  0  0  0  0  0  0  0  0
   38.5541   21.4647   36.7451 H   0  0  0  0  0  0  0  0  0  0  0  0
   37.5431   23.7108   36.3746 H   0  0  0  0  0  0  0  0  0  0  0  0
   42.3023   22.8960   35.3996 H   0  0  0  0  0  0  0  0  0  0  0  0
   36.7943   28.4739   34.8851 H   0  0  0  0  0  0  0  0  0  0  0  0
   35.8318   29.6650   32.9257 H   0  0  0  0  0  0  0  0  0  0  0  0
   35.7188   27.8962   30.7453 H   0  0  0  0  0  0  0  0  0  0  0  0
  2  1  2  0
  3  2  1  0
  4  5  1  0
  4  3  2  0
  5  6  2  0
  6  1  1  0
  7  3  1  0
  8  7  2  0
  9  7  1  0
 10  9  1  0
 11 10  2  0
 12 11  1  0
 13 14  1  0
 13 12  2  0
 14 10  1  0
  1 15  1  0
  2 16  1  0
  5 17  1  0
 11 18  1  0
 12 19  1  0
 13 20  1  0
M  ISO  6  15  14  16  14  17  14  18  14  19  14  20  14
M  END
>  <minimizedAffinity>  (1) 
-3.39384246

>  <minimizedRMSD>  (1) 
6.04049778

$$$$
