
     RDKit          3D

 15 15  0  0  0  0  0  0  0  0999 V2000
   40.1030   26.2320   34.7400 C   0  0  0  0  0  0  0  0  0  0  0  0
   39.9160   24.8950   35.0840 C   0  0  0  0  0  0  0  0  0  0  0  0
   38.9000   24.5880   35.9970 C   0  0  0  0  0  0  0  0  0  0  0  0
   38.1600   25.6140   36.4910 N   0  0  0  0  0  0  0  0  0  0  0  0
   38.3680   26.9040   36.1350 C   0  0  0  0  0  0  0  0  0  0  0  0
   39.3440   27.2250   35.2540 N   0  0  0  0  0  0  0  0  0  0  0  0
   38.5680   23.2580   36.4650 C   0  0  0  0  0  0  0  0  0  0  0  0
   37.4100   22.8700   36.7570 O   0  0  0  0  0  0  0  0  0  0  0  0
   39.5470   22.2950   36.6260 O   0  0  0  0  0  0  0  0  0  0  0  0
   40.5030   22.3490   37.6110 C   0  0  0  0  0  0  0  0  0  0  0  0
   41.4010   21.4540   37.6120 O   0  0  0  0  0  0  0  0  0  0  0  0
   40.8975   26.4888   34.0238 H   0  0  0  0  0  0  0  0  0  0  0  0
   40.5473   24.1048   34.6515 H   0  0  0  0  0  0  0  0  0  0  0  0
   37.7388   27.6971   36.5652 H   0  0  0  0  0  0  0  0  0  0  0  0
   40.4898   23.1420   38.3732 H   0  0  0  0  0  0  0  0  0  0  0  0
  1  2  2  0
  1  6  1  0
  2  3  1  0
  3  7  1  0
  3  4  2  0
  5  4  1  0
  6  5  2  0
  7  9  1  0
  7  8  2  0
  9 10  1  0
 10 11  2  0
  1 12  1  0
  2 13  1  0
  5 14  1  0
 10 15  1  0
M  ISO  4  12  14  13  14  14  14  15   6
M  END
>  <minimizedAffinity>  (1) 
-3.21165895

>  <minimizedRMSD>  (1) 
3.93427134

$$$$
