
     RDKit          3D

 39 41  0  0  0  0  0  0  0  0999 V2000
   41.6870   25.9530   32.7790 N   0  0  0  0  0  0  0  0  0  0  0  0
   42.7020   25.5550   31.9800 C   0  0  0  0  0  0  0  0  0  0  0  0
   43.6340   26.5230   31.5790 C   0  0  0  0  0  0  0  0  0  0  0  0
   43.4900   27.8180   32.0020 C   0  0  0  0  0  0  0  0  0  0  0  0
   44.2750   28.7470   31.6930 O   0  0  0  0  0  0  0  0  0  0  0  0
   42.4550   28.1650   32.8020 N   0  0  0  0  0  0  0  0  0  0  0  0
   41.5740   27.2240   33.1740 C   0  0  0  0  0  0  0  0  0  0  0  0
   40.6200   27.5470   33.9120 O   0  0  0  0  0  0  0  0  0  0  0  0
   41.0260   24.1920   34.2970 C   0  0  0  0  0  0  0  0  0  0  0  0
   40.8030   24.9210   33.1300 C   0  0  0  0  0  0  0  0  0  0  0  0
   39.6820   24.5590   32.3810 C   0  0  0  0  0  0  0  0  0  0  0  0
   38.8750   23.5380   32.8040 N   0  0  0  0  0  0  0  0  0  0  0  0
   39.1460   22.8680   33.9470 C   0  0  0  0  0  0  0  0  0  0  0  0
   40.2260   23.2010   34.6900 N   0  0  0  0  0  0  0  0  0  0  0  0
   38.2250   21.7710   34.3430 C   0  0  0  0  0  0  0  0  0  0  0  0
   37.9720   21.7690   35.8360 C   0  0  0  0  0  0  0  0  0  0  0  0
   36.5010   21.9680   36.1740 C   0  0  0  0  0  0  0  0  0  0  0  0
   35.6620   20.8750   35.5590 C   0  0  0  0  0  0  0  0  0  0  0  0
   36.0170   20.7680   34.0910 C   0  0  0  0  0  0  0  0  0  0  0  0
   36.9040   21.8970   33.6370 C   0  0  0  0  0  0  0  0  0  0  0  0
   44.8070   26.1890   30.6870 C   0  0  0  0  0  0  0  0  0  0  0  0
   42.7938   24.5080   31.6555 H   0  0  0  0  0  0  0  0  0  0  0  0
   42.3452   29.1382   33.1209 H   0  0  0  0  0  0  0  0  0  0  0  0
   41.8975   24.4448   34.9188 H   0  0  0  0  0  0  0  0  0  0  0  0
   39.4471   25.0951   31.4497 H   0  0  0  0  0  0  0  0  0  0  0  0
   38.7144   20.8286   34.0562 H   0  0  0  0  0  0  0  0  0  0  0  0
   38.3024   20.8046   36.2493 H   0  0  0  0  0  0  0  0  0  0  0  0
   38.5337   22.6076   36.2732 H   0  0  0  0  0  0  0  0  0  0  0  0
   36.3753   21.9487   37.2666 H   0  0  0  0  0  0  0  0  0  0  0  0
   36.1724   22.9370   35.7702 H   0  0  0  0  0  0  0  0  0  0  0  0
   35.8703   19.9192   36.0621 H   0  0  0  0  0  0  0  0  0  0  0  0
   34.5934   21.1096   35.6731 H   0  0  0  0  0  0  0  0  0  0  0  0
   36.5409   19.8157   33.9216 H   0  0  0  0  0  0  0  0  0  0  0  0
   35.0826   20.8189   33.5128 H   0  0  0  0  0  0  0  0  0  0  0  0
   37.0561   21.8365   32.5492 H   0  0  0  0  0  0  0  0  0  0  0  0
   36.4378   22.8647   33.8741 H   0  0  0  0  0  0  0  0  0  0  0  0
   45.6805   25.9403   31.3076 H   0  0  0  0  0  0  0  0  0  0  0  0
   44.5513   25.3280   30.0520 H   0  0  0  0  0  0  0  0  0  0  0  0
   45.0432   27.0556   30.0520 H   0  0  0  0  0  0  0  0  0  0  0  0
  1 10  1  0
  1  7  1  0
  2  1  1  0
  3  2  2  0
  3  4  1  0
  4  6  1  0
  5  4  2  0
  6  7  1  0
  7  8  2  0
  9 14  2  0
 10  9  1  0
 11 12  1  0
 11 10  2  0
 12 13  2  0
 13 15  1  0
 13 14  1  0
 15 16  1  0
 16 17  1  0
 18 17  1  0
 19 18  1  0
 20 19  1  0
 20 15  1  0
 21  3  1  0
  2 22  1  0
  6 23  1  0
  9 24  1  0
 11 25  1  0
 15 26  1  0
 16 27  1  0
 16 28  1  0
 17 29  1  0
 17 30  1  0
 18 31  1  0
 18 32  1  0
 19 33  1  0
 19 34  1  0
 20 35  1  0
 20 36  1  0
 21 37  1  0
 21 38  1  0
 21 39  1  0
M  ISO  8  22  14  23   9  24  14  25  14  26  13  27  13  28  13  29  13
M  ISO  8  30  13  31  13  32  13  33  13  34  13  35  13  36  13  37   8
M  ISO  2  38   8  39   8
M  END
>  <minimizedAffinity>  (1) 
-3.28206134

>  <minimizedRMSD>  (1) 
5.39664602

$$$$
