
     RDKit          3D

 39 42  0  0  0  0  0  0  0  0999 V2000
   36.2940   28.4720   32.7720 C   0  0  0  0  0  0  0  0  0  0  0  0
   37.3110   28.2030   31.8650 C   0  0  0  0  0  0  0  0  0  0  0  0
   37.4270   29.0330   30.7570 C   0  0  0  0  0  0  0  0  0  0  0  0
   36.5810   30.0970   30.5290 C   0  0  0  0  0  0  0  0  0  0  0  0
   35.5740   30.3550   31.4370 C   0  0  0  0  0  0  0  0  0  0  0  0
   35.4260   29.5570   32.5460 C   0  0  0  0  0  0  0  0  0  0  0  0
   34.3680   29.7850   33.5510 C   0  0  0  0  0  0  0  0  0  0  0  0
   33.1690   29.1370   33.2530 C   0  0  0  0  0  0  0  0  0  0  0  0
   32.0990   29.2690   34.1120 C   0  0  0  0  0  0  0  0  0  0  0  0
   32.2710   30.0410   35.2320 C   0  0  0  0  0  0  0  0  0  0  0  0
   33.4550   30.6910   35.5430 C   0  0  0  0  0  0  0  0  0  0  0  0
   33.6210   31.4680   36.6770 C   0  0  0  0  0  0  0  0  0  0  0  0
   34.8150   32.0980   36.9480 C   0  0  0  0  0  0  0  0  0  0  0  0
   35.8550   31.9220   36.0350 C   0  0  0  0  0  0  0  0  0  0  0  0
   35.7330   31.1540   34.8920 C   0  0  0  0  0  0  0  0  0  0  0  0
   34.5220   30.5590   34.6840 C   0  0  0  0  0  0  0  0  0  0  0  0
   36.1050   27.6920   33.9080 O   0  0  0  0  0  0  0  0  0  0  0  0
   37.1210   27.4010   34.7900 C   0  0  0  0  0  0  0  0  0  0  0  0
   37.5830   28.3680   35.4300 O   0  0  0  0  0  0  0  0  0  0  0  0
   38.4600   24.1240   36.1220 C   0  0  0  0  0  0  0  0  0  0  0  0
   38.0300   25.4490   36.1240 C   0  0  0  0  0  0  0  0  0  0  0  0
   37.5950   26.0300   34.9310 C   0  0  0  0  0  0  0  0  0  0  0  0
   37.6150   25.2500   33.7980 N   0  0  0  0  0  0  0  0  0  0  0  0
   38.0330   23.9750   33.8160 C   0  0  0  0  0  0  0  0  0  0  0  0
   38.4600   23.3970   34.9740 N   0  0  0  0  0  0  0  0  0  0  0  0
   38.0016   27.3608   32.0189 H   0  0  0  0  0  0  0  0  0  0  0  0
   38.2283   28.8325   30.0306 H   0  0  0  0  0  0  0  0  0  0  0  0
   36.7063   30.7300   29.6382 H   0  0  0  0  0  0  0  0  0  0  0  0
   34.8893   31.2001   31.2728 H   0  0  0  0  0  0  0  0  0  0  0  0
   33.0784   28.5271   32.3421 H   0  0  0  0  0  0  0  0  0  0  0  0
   31.1397   28.7718   33.9059 H   0  0  0  0  0  0  0  0  0  0  0  0
   31.4217   30.1506   35.9224 H   0  0  0  0  0  0  0  0  0  0  0  0
   32.7804   31.5846   37.3769 H   0  0  0  0  0  0  0  0  0  0  0  0
   34.9437   32.7158   37.8490 H   0  0  0  0  0  0  0  0  0  0  0  0
   36.8168   32.4173   36.2338 H   0  0  0  0  0  0  0  0  0  0  0  0
   36.5680   31.0289   34.1870 H   0  0  0  0  0  0  0  0  0  0  0  0
   38.8030   23.6615   37.0593 H   0  0  0  0  0  0  0  0  0  0  0  0
   38.0331   26.0322   37.0567 H   0  0  0  0  0  0  0  0  0  0  0  0
   38.0310   23.3893   32.8849 H   0  0  0  0  0  0  0  0  0  0  0  0
  1 17  1  0
  2  1  2  0
  3  2  1  0
  4  3  2  0
  4  5  1  0
  5  6  2  0
  6  1  1  0
  6  7  1  0
  7 16  1  0
  8  7  2  0
  8  9  1  0
  9 10  2  0
 10 11  1  0
 11 12  2  0
 12 13  1  0
 14 13  2  0
 15 14  1  0
 16 15  2  0
 16 11  1  0
 17 18  1  0
 18 22  1  0
 18 19  2  0
 20 21  2  0
 22 21  1  0
 23 24  1  0
 23 22  2  0
 24 25  2  0
 25 20  1  0
  2 26  1  0
  3 27  1  0
  4 28  1  0
  5 29  1  0
  8 30  1  0
  9 31  1  0
 10 32  1  0
 12 33  1  0
 13 34  1  0
 14 35  1  0
 15 36  1  0
 20 37  1  0
 21 38  1  0
 24 39  1  0
M  ISO  8  26  14  27  14  28  14  29  14  30  14  31  14  32  14  33  14
M  ISO  6  34  14  35  14  36  14  37  14  38  14  39  14
M  END
>  <minimizedAffinity>  (1) 
-6.07088089

>  <minimizedRMSD>  (1) 
1.86641216

$$$$
