
     RDKit          3D

 37 40  0  0  0  0  0  0  0  0999 V2000
   36.5330   28.0270   33.3970 C   0  0  0  0  0  0  0  0  0  0  0  0
   37.4640   27.6640   32.4590 C   0  0  0  0  0  0  0  0  0  0  0  0
   37.4790   28.2920   31.2100 C   0  0  0  0  0  0  0  0  0  0  0  0
   36.5450   29.2890   30.9190 C   0  0  0  0  0  0  0  0  0  0  0  0
   35.6080   29.6500   31.8710 C   0  0  0  0  0  0  0  0  0  0  0  0
   35.6100   29.0190   33.0930 C   0  0  0  0  0  0  0  0  0  0  0  0
   34.5810   29.4830   34.0060 C   0  0  0  0  0  0  0  0  0  0  0  0
   33.2510   29.1040   34.1940 C   0  0  0  0  0  0  0  0  0  0  0  0
   32.7120   29.8600   35.1920 N   0  0  0  0  0  0  0  0  0  0  0  0
   33.6570   30.7150   35.6550 C   0  0  0  0  0  0  0  0  0  0  0  0
   33.5880   31.6590   36.6420 C   0  0  0  0  0  0  0  0  0  0  0  0
   34.7050   32.4310   36.9450 C   0  0  0  0  0  0  0  0  0  0  0  0
   35.8810   32.2400   36.2460 C   0  0  0  0  0  0  0  0  0  0  0  0
   35.9120   31.2670   35.2460 C   0  0  0  0  0  0  0  0  0  0  0  0
   34.8120   30.4870   34.9270 C   0  0  0  0  0  0  0  0  0  0  0  0
   36.4750   27.4350   34.6480 O   0  0  0  0  0  0  0  0  0  0  0  0
   37.5890   26.9720   35.3130 C   0  0  0  0  0  0  0  0  0  0  0  0
   38.3890   27.8520   35.7070 O   0  0  0  0  0  0  0  0  0  0  0  0
   38.0400   23.5310   36.8190 C   0  0  0  0  0  0  0  0  0  0  0  0
   37.8380   24.9060   36.7590 C   0  0  0  0  0  0  0  0  0  0  0  0
   37.7930   25.5390   35.5270 C   0  0  0  0  0  0  0  0  0  0  0  0
   37.9510   24.7710   34.4180 N   0  0  0  0  0  0  0  0  0  0  0  0
   38.1480   23.4330   34.4800 C   0  0  0  0  0  0  0  0  0  0  0  0
   38.1910   22.8120   35.6910 N   0  0  0  0  0  0  0  0  0  0  0  0
   38.1992   26.8787   32.6888 H   0  0  0  0  0  0  0  0  0  0  0  0
   38.2260   28.0011   30.4568 H   0  0  0  0  0  0  0  0  0  0  0  0
   36.5543   29.7850   29.9372 H   0  0  0  0  0  0  0  0  0  0  0  0
   34.8684   30.4344   31.6525 H   0  0  0  0  0  0  0  0  0  0  0  0
   32.7232   28.3219   33.6284 H   0  0  0  0  0  0  0  0  0  0  0  0
   31.7442   29.7927   35.5381 H   0  0  0  0  0  0  0  0  0  0  0  0
   32.6496   31.8079   37.1962 H   0  0  0  0  0  0  0  0  0  0  0  0
   34.6519   33.1909   37.7385 H   0  0  0  0  0  0  0  0  0  0  0  0
   36.7736   32.8417   36.4726 H   0  0  0  0  0  0  0  0  0  0  0  0
   36.8476   31.1130   34.6884 H   0  0  0  0  0  0  0  0  0  0  0  0
   38.0766   23.0271   37.7961 H   0  0  0  0  0  0  0  0  0  0  0  0
   37.7147   25.4877   37.6844 H   0  0  0  0  0  0  0  0  0  0  0  0
   38.2728   22.8498   33.5557 H   0  0  0  0  0  0  0  0  0  0  0  0
  1 16  1  0
  2  1  2  0
  3  2  1  0
  4  3  2  0
  4  5  1  0
  5  6  2  0
  6  1  1  0
  6  7  1  0
  7  8  2  0
  7 15  1  0
  8  9  1  0
  9 10  1  0
 10 11  2  0
 11 12  1  0
 13 12  2  0
 14 13  1  0
 15 14  2  0
 15 10  1  0
 16 17  1  0
 17 21  1  0
 17 18  2  0
 20 19  2  0
 21 20  1  0
 22 23  1  0
 22 21  2  0
 23 24  2  0
 24 19  1  0
  2 25  1  0
  3 26  1  0
  4 27  1  0
  5 28  1  0
  8 29  1  0
  9 30  1  0
 11 31  1  0
 12 32  1  0
 13 33  1  0
 14 34  1  0
 19 35  1  0
 20 36  1  0
 23 37  1  0
M  ISO  8  25  14  26  14  27  14  28  14  29  14  30   9  31  14  32  14
M  ISO  5  33  14  34  14  35  14  36  14  37  14
M  END
>  <minimizedAffinity>  (1) 
-6.03153706

>  <minimizedRMSD>  (1) 
1.28424799

$$$$
