
     RDKit          3D

 34 36  0  0  0  0  0  0  0  0999 V2000
   36.4760   28.0280   33.5330 C   0  0  0  0  0  0  0  0  0  0  0  0
   36.9230   27.3570   32.4260 C   0  0  0  0  0  0  0  0  0  0  0  0
   36.8260   27.9810   31.1890 C   0  0  0  0  0  0  0  0  0  0  0  0
   36.2880   29.2600   31.0610 C   0  0  0  0  0  0  0  0  0  0  0  0
   35.8410   29.9260   32.1880 C   0  0  0  0  0  0  0  0  0  0  0  0
   35.9380   29.3060   33.4150 C   0  0  0  0  0  0  0  0  0  0  0  0
   35.4450   30.0910   34.4960 N   0  0  0  0  0  0  0  0  0  0  0  0
   36.1510   30.9020   35.3130 C   0  0  0  0  0  0  0  0  0  0  0  0
   35.5070   31.5940   36.3190 C   0  0  0  0  0  0  0  0  0  0  0  0
   34.1410   31.4690   36.5020 C   0  0  0  0  0  0  0  0  0  0  0  0
   33.4870   32.1870   37.5420 N   0  0  0  0  0  0  0  0  0  0  0  0
   33.4500   30.6420   35.6630 N   0  0  0  0  0  0  0  0  0  0  0  0
   34.0970   29.9680   34.6790 C   0  0  0  0  0  0  0  0  0  0  0  0
   33.3320   29.2380   33.9760 O   0  0  0  0  0  0  0  0  0  0  0  0
   36.5310   27.4820   34.8220 O   0  0  0  0  0  0  0  0  0  0  0  0
   37.6760   26.9550   35.3620 C   0  0  0  0  0  0  0  0  0  0  0  0
   38.5730   27.7860   35.6280 O   0  0  0  0  0  0  0  0  0  0  0  0
   37.8690   23.5150   36.9280 C   0  0  0  0  0  0  0  0  0  0  0  0
   37.7260   24.9000   36.8430 C   0  0  0  0  0  0  0  0  0  0  0  0
   37.8080   25.5130   35.5990 C   0  0  0  0  0  0  0  0  0  0  0  0
   38.0240   24.7250   34.5130 N   0  0  0  0  0  0  0  0  0  0  0  0
   38.1620   23.3850   34.6000 C   0  0  0  0  0  0  0  0  0  0  0  0
   38.0840   22.7780   35.8100 N   0  0  0  0  0  0  0  0  0  0  0  0
   37.3492   26.3468   32.5145 H   0  0  0  0  0  0  0  0  0  0  0  0
   37.1815   27.4543   30.2911 H   0  0  0  0  0  0  0  0  0  0  0  0
   36.2193   29.7362   30.0718 H   0  0  0  0  0  0  0  0  0  0  0  0
   35.4140   30.9364   32.1060 H   0  0  0  0  0  0  0  0  0  0  0  0
   37.2371   31.0110   35.1771 H   0  0  0  0  0  0  0  0  0  0  0  0
   36.0864   32.2524   36.9829 H   0  0  0  0  0  0  0  0  0  0  0  0
   32.4701   32.0904   37.6739 H   0  0  0  0  0  0  0  0  0  0  0  0
   34.0306   32.8034   38.1629 H   0  0  0  0  0  0  0  0  0  0  0  0
   37.8070   23.0178   37.9073 H   0  0  0  0  0  0  0  0  0  0  0  0
   37.5506   25.4988   37.7489 H   0  0  0  0  0  0  0  0  0  0  0  0
   38.3370   22.7879   33.6929 H   0  0  0  0  0  0  0  0  0  0  0  0
  1 15  1  0
  2  1  2  0
  3  2  1  0
  4  3  2  0
  4  5  1  0
  5  6  2  0
  6  1  1  0
  6  7  1  0
  7 13  1  0
  7  8  1  0
  8  9  2  0
  9 10  1  0
 10 11  1  0
 12 10  2  0
 13 12  1  0
 14 13  2  0
 15 16  1  0
 16 20  1  0
 16 17  2  0
 19 18  2  0
 20 19  1  0
 21 22  1  0
 21 20  2  0
 22 23  2  0
 23 18  1  0
  2 24  1  0
  3 25  1  0
  4 26  1  0
  5 27  1  0
  8 28  1  0
  9 29  1  0
 11 30  1  0
 11 31  1  0
 18 32  1  0
 19 33  1  0
 22 34  1  0
M  ISO  8  24  14  25  14  26  14  27  14  28  14  29  14  32  14  33  14
M  ISO  1  34  14
M  END
>  <minimizedAffinity>  (1) 
-5.55125141

>  <minimizedRMSD>  (1) 
1.7352978

$$$$
