
     RDKit          3D

 34 37  0  0  0  0  0  0  0  0999 V2000
   36.9050   27.8040   33.0830 C   0  0  0  0  0  0  0  0  0  0  0  0
   37.9380   27.3510   32.2810 C   0  0  0  0  0  0  0  0  0  0  0  0
   38.1610   27.9910   31.0590 C   0  0  0  0  0  0  0  0  0  0  0  0
   37.3690   29.0570   30.6490 C   0  0  0  0  0  0  0  0  0  0  0  0
   36.3520   29.4860   31.4610 C   0  0  0  0  0  0  0  0  0  0  0  0
   36.1090   28.8800   32.6620 C   0  0  0  0  0  0  0  0  0  0  0  0
   35.0390   29.3710   33.4600 N   0  0  0  0  0  0  0  0  0  0  0  0
   33.7790   28.9850   33.1260 C   0  0  0  0  0  0  0  0  0  0  0  0
   32.9090   29.5480   33.9930 N   0  0  0  0  0  0  0  0  0  0  0  0
   33.5980   30.2950   34.8830 C   0  0  0  0  0  0  0  0  0  0  0  0
   33.3220   31.0980   35.9820 C   0  0  0  0  0  0  0  0  0  0  0  0
   34.3240   31.7130   36.6540 N   0  0  0  0  0  0  0  0  0  0  0  0
   35.6150   31.5380   36.2440 C   0  0  0  0  0  0  0  0  0  0  0  0
   35.9630   30.7650   35.1740 N   0  0  0  0  0  0  0  0  0  0  0  0
   34.9260   30.1700   34.5320 C   0  0  0  0  0  0  0  0  0  0  0  0
   36.6150   27.2210   34.3180 O   0  0  0  0  0  0  0  0  0  0  0  0
   37.6130   26.8770   35.2230 C   0  0  0  0  0  0  0  0  0  0  0  0
   38.2600   27.8470   35.7150 O   0  0  0  0  0  0  0  0  0  0  0  0
   38.2470   23.6260   37.0370 C   0  0  0  0  0  0  0  0  0  0  0  0
   38.0060   24.9710   36.8290 C   0  0  0  0  0  0  0  0  0  0  0  0
   37.8660   25.4880   35.5530 C   0  0  0  0  0  0  0  0  0  0  0  0
   37.9770   24.5990   34.5340 N   0  0  0  0  0  0  0  0  0  0  0  0
   38.2100   23.2940   34.7260 C   0  0  0  0  0  0  0  0  0  0  0  0
   38.3470   22.7910   35.9720 N   0  0  0  0  0  0  0  0  0  0  0  0
   38.5685   26.5072   32.5980 H   0  0  0  0  0  0  0  0  0  0  0  0
   38.9785   27.6447   30.4095 H   0  0  0  0  0  0  0  0  0  0  0  0
   37.5564   29.5505   29.6840 H   0  0  0  0  0  0  0  0  0  0  0  0
   35.7224   30.3297   31.1420 H   0  0  0  0  0  0  0  0  0  0  0  0
   33.5120   28.3237   32.2885 H   0  0  0  0  0  0  0  0  0  0  0  0
   32.2809   31.2356   36.3093 H   0  0  0  0  0  0  0  0  0  0  0  0
   36.4144   32.0453   36.8040 H   0  0  0  0  0  0  0  0  0  0  0  0
   38.3570   23.2350   38.0592 H   0  0  0  0  0  0  0  0  0  0  0  0
   37.9238   25.6440   37.6952 H   0  0  0  0  0  0  0  0  0  0  0  0
   38.2908   22.6234   33.8578 H   0  0  0  0  0  0  0  0  0  0  0  0
  1 16  1  0
  2  1  2  0
  3  2  1  0
  4  3  2  0
  4  5  1  0
  5  6  2  0
  6  1  1  0
  6  7  1  0
  7 15  1  0
  8  7  1  0
  8  9  2  0
  9 10  1  0
 10 11  2  0
 11 12  1  0
 13 12  2  0
 14 13  1  0
 15 10  1  0
 15 14  2  0
 16 17  1  0
 17 21  1  0
 17 18  2  0
 20 19  2  0
 21 20  1  0
 22 23  1  0
 22 21  2  0
 23 24  2  0
 24 19  1  0
  2 25  1  0
  3 26  1  0
  4 27  1  0
  5 28  1  0
  8 29  1  0
 11 30  1  0
 13 31  1  0
 19 32  1  0
 20 33  1  0
 23 34  1  0
M  ISO  8  25  14  26  14  27  14  28  14  29  14  30  14  31  14  32  14
M  ISO  2  33  14  34  14
M  END
>  <minimizedAffinity>  (1) 
-5.42158127

>  <minimizedRMSD>  (1) 
1.36334193

$$$$
