
     RDKit          3D

 33 35  0  0  0  0  0  0  0  0999 V2000
   36.7220   27.8180   33.5390 C   0  0  0  0  0  0  0  0  0  0  0  0
   37.4040   27.1400   32.5620 C   0  0  0  0  0  0  0  0  0  0  0  0
   37.4210   27.6530   31.2630 C   0  0  0  0  0  0  0  0  0  0  0  0
   36.7700   28.8260   30.9390 C   0  0  0  0  0  0  0  0  0  0  0  0
   36.0870   29.5000   31.9270 C   0  0  0  0  0  0  0  0  0  0  0  0
   36.0600   29.0060   33.2200 C   0  0  0  0  0  0  0  0  0  0  0  0
   35.3310   29.7360   34.2520 C   0  0  0  0  0  0  0  0  0  0  0  0
   36.0020   30.6380   35.0520 C   0  0  0  0  0  0  0  0  0  0  0  0
   35.2550   31.2970   36.0100 C   0  0  0  0  0  0  0  0  0  0  0  0
   33.9050   31.0790   36.1740 C   0  0  0  0  0  0  0  0  0  0  0  0
   33.2660   30.1680   35.3540 C   0  0  0  0  0  0  0  0  0  0  0  0
   33.9770   29.4750   34.3690 C   0  0  0  0  0  0  0  0  0  0  0  0
   36.6670   27.3600   34.8480 O   0  0  0  0  0  0  0  0  0  0  0  0
   37.7920   26.8760   35.5070 C   0  0  0  0  0  0  0  0  0  0  0  0
   38.6870   27.7140   35.7810 O   0  0  0  0  0  0  0  0  0  0  0  0
   37.9300   23.5400   37.2810 C   0  0  0  0  0  0  0  0  0  0  0  0
   37.8310   24.9190   37.1200 C   0  0  0  0  0  0  0  0  0  0  0  0
   37.8820   25.4520   35.8430 C   0  0  0  0  0  0  0  0  0  0  0  0
   38.0290   24.5750   34.8040 N   0  0  0  0  0  0  0  0  0  0  0  0
   38.1240   23.2490   34.9750 C   0  0  0  0  0  0  0  0  0  0  0  0
   38.0750   22.7220   36.2130 N   0  0  0  0  0  0  0  0  0  0  0  0
   37.9312   26.2039   32.7981 H   0  0  0  0  0  0  0  0  0  0  0  0
   37.9670   27.1084   30.4785 H   0  0  0  0  0  0  0  0  0  0  0  0
   36.7961   29.2155   29.9106 H   0  0  0  0  0  0  0  0  0  0  0  0
   35.5603   30.4355   31.6875 H   0  0  0  0  0  0  0  0  0  0  0  0
   37.0797   30.8237   34.9330 H   0  0  0  0  0  0  0  0  0  0  0  0
   35.7575   32.0229   36.6662 H   0  0  0  0  0  0  0  0  0  0  0  0
   33.3427   31.6227   36.9474 H   0  0  0  0  0  0  0  0  0  0  0  0
   32.1881   29.9864   35.4773 H   0  0  0  0  0  0  0  0  0  0  0  0
   33.4779   28.7485   33.7109 H   0  0  0  0  0  0  0  0  0  0  0  0
   37.8897   23.1086   38.2921 H   0  0  0  0  0  0  0  0  0  0  0  0
   37.7139   25.5759   37.9945 H   0  0  0  0  0  0  0  0  0  0  0  0
   38.2422   22.5900   34.1022 H   0  0  0  0  0  0  0  0  0  0  0  0
  1 13  1  0
  2  1  2  0
  3  2  1  0
  4  3  2  0
  4  5  1  0
  5  6  2  0
  6  1  1  0
  6  7  1  0
  7 12  1  0
  7  8  2  0
  8  9  1  0
  9 10  2  0
 11 10  1  0
 12 11  2  0
 13 14  1  0
 14 15  2  0
 14 18  1  0
 17 16  2  0
 18 17  1  0
 19 20  1  0
 19 18  2  0
 20 21  2  0
 21 16  1  0
  2 22  1  0
  3 23  1  0
  4 24  1  0
  5 25  1  0
  8 26  1  0
  9 27  1  0
 10 28  1  0
 11 29  1  0
 12 30  1  0
 16 31  1  0
 17 32  1  0
 20 33  1  0
M  ISO  8  22  14  23  14  24  14  25  14  26  14  27  14  28  14  29  14
M  ISO  4  30  14  31  14  32  14  33  14
M  END
>  <minimizedAffinity>  (1) 
-5.39046049

>  <minimizedRMSD>  (1) 
1.24696851

$$$$
