
     RDKit          3D

 30 32  0  0  0  0  0  0  0  0999 V2000
   36.7700   27.7150   33.6300 C   0  0  0  0  0  0  0  0  0  0  0  0
   37.3630   27.0210   32.6120 C   0  0  0  0  0  0  0  0  0  0  0  0
   37.3430   27.5340   31.3280 C   0  0  0  0  0  0  0  0  0  0  0  0
   36.7370   28.7350   31.0410 C   0  0  0  0  0  0  0  0  0  0  0  0
   36.1430   29.4270   32.0610 C   0  0  0  0  0  0  0  0  0  0  0  0
   36.1530   28.9290   33.3550 C   0  0  0  0  0  0  0  0  0  0  0  0
   35.4590   29.7920   34.3680 C   0  0  0  0  0  0  0  0  0  0  0  0
   35.9880   30.6730   35.1860 C   0  0  0  0  0  0  0  0  0  0  0  0
   35.2790   31.3950   36.0590 C   0  0  0  0  0  0  0  0  0  0  0  0
   33.9290   31.1440   36.0380 C   0  0  0  0  0  0  0  0  0  0  0  0
   33.7690   29.8150   34.6920 S   0  0  0  0  0  0  0  0  0  0  0  0
   36.7530   27.2610   34.9350 O   0  0  0  0  0  0  0  0  0  0  0  0
   37.8840   26.7280   35.5510 C   0  0  0  0  0  0  0  0  0  0  0  0
   38.8150   27.5540   35.7940 O   0  0  0  0  0  0  0  0  0  0  0  0
   37.9690   23.4110   37.3610 C   0  0  0  0  0  0  0  0  0  0  0  0
   37.8950   24.7830   37.1690 C   0  0  0  0  0  0  0  0  0  0  0  0
   37.9510   25.3070   35.8790 C   0  0  0  0  0  0  0  0  0  0  0  0
   38.0780   24.4310   34.8520 N   0  0  0  0  0  0  0  0  0  0  0  0
   38.1480   23.0990   35.0540 C   0  0  0  0  0  0  0  0  0  0  0  0
   38.0940   22.5860   36.3030 N   0  0  0  0  0  0  0  0  0  0  0  0
   37.8544   26.0578   32.8138 H   0  0  0  0  0  0  0  0  0  0  0  0
   37.8234   26.9679   30.5164 H   0  0  0  0  0  0  0  0  0  0  0  0
   36.7301   29.1302   30.0145 H   0  0  0  0  0  0  0  0  0  0  0  0
   35.6521   30.3890   31.8522 H   0  0  0  0  0  0  0  0  0  0  0  0
   37.0768   30.8253   35.1505 H   0  0  0  0  0  0  0  0  0  0  0  0
   35.7383   32.1289   36.7376 H   0  0  0  0  0  0  0  0  0  0  0  0
   33.1366   31.6001   36.6496 H   0  0  0  0  0  0  0  0  0  0  0  0
   37.9256   22.9959   38.3788 H   0  0  0  0  0  0  0  0  0  0  0  0
   37.7923   25.4557   38.0332 H   0  0  0  0  0  0  0  0  0  0  0  0
   38.2502   22.4229   34.1923 H   0  0  0  0  0  0  0  0  0  0  0  0
  1 12  1  0
  2  1  2  0
  3  2  1  0
  4  3  2  0
  4  5  1  0
  5  6  2  0
  6  1  1  0
  6  7  1  0
  7 11  1  0
  7  8  2  0
  8  9  1  0
 10  9  2  0
 11 10  1  0
 12 13  1  0
 13 14  2  0
 13 17  1  0
 16 15  2  0
 17 16  1  0
 18 19  1  0
 18 17  2  0
 19 20  2  0
 20 15  1  0
  2 21  1  0
  3 22  1  0
  4 23  1  0
  5 24  1  0
  8 25  1  0
  9 26  1  0
 10 27  1  0
 15 28  1  0
 16 29  1  0
 19 30  1  0
M  ISO  8  21  14  22  14  23  14  24  14  25  14  26  14  27  14  28  14
M  ISO  2  29  14  30  14
M  END
>  <minimizedAffinity>  (1) 
-5.20085239

>  <minimizedRMSD>  (1) 
1.0950222

$$$$
