
     RDKit          3D

 32 34  0  0  0  0  0  0  0  0999 V2000
   36.7850   27.7840   33.4310 C   0  0  0  0  0  0  0  0  0  0  0  0
   37.5180   27.0810   32.4900 C   0  0  0  0  0  0  0  0  0  0  0  0
   37.5920   27.5640   31.1970 C   0  0  0  0  0  0  0  0  0  0  0  0
   36.9560   28.7280   30.8250 C   0  0  0  0  0  0  0  0  0  0  0  0
   36.2340   29.4180   31.7650 C   0  0  0  0  0  0  0  0  0  0  0  0
   36.1420   28.9620   33.0580 C   0  0  0  0  0  0  0  0  0  0  0  0
   35.3890   29.6520   34.0970 C   0  0  0  0  0  0  0  0  0  0  0  0
   35.9350   30.5860   34.9500 C   0  0  0  0  0  0  0  0  0  0  0  0
   35.2570   31.2560   35.9380 C   0  0  0  0  0  0  0  0  0  0  0  0
   33.9160   30.9880   36.1120 C   0  0  0  0  0  0  0  0  0  0  0  0
   33.3570   30.0560   35.2660 C   0  0  0  0  0  0  0  0  0  0  0  0
   34.0730   29.4320   34.3150 N   0  0  0  0  0  0  0  0  0  0  0  0
   36.6850   27.3310   34.7460 O   0  0  0  0  0  0  0  0  0  0  0  0
   37.7600   26.8950   35.4770 C   0  0  0  0  0  0  0  0  0  0  0  0
   38.5950   27.7680   35.7950 O   0  0  0  0  0  0  0  0  0  0  0  0
   37.9930   23.6030   37.3270 C   0  0  0  0  0  0  0  0  0  0  0  0
   37.8730   24.9720   37.1230 C   0  0  0  0  0  0  0  0  0  0  0  0
   37.8780   25.4830   35.8350 C   0  0  0  0  0  0  0  0  0  0  0  0
   38.0060   24.5860   34.7990 N   0  0  0  0  0  0  0  0  0  0  0  0
   38.1220   23.2660   35.0160 C   0  0  0  0  0  0  0  0  0  0  0  0
   38.1160   22.7610   36.2850 N   0  0  0  0  0  0  0  0  0  0  0  0
   38.0346   26.1504   32.7677 H   0  0  0  0  0  0  0  0  0  0  0  0
   38.1723   27.0059   30.4475 H   0  0  0  0  0  0  0  0  0  0  0  0
   37.0261   29.0978   29.7914 H   0  0  0  0  0  0  0  0  0  0  0  0
   35.7218   30.3488   31.4801 H   0  0  0  0  0  0  0  0  0  0  0  0
   37.0043   30.8141   34.8292 H   0  0  0  0  0  0  0  0  0  0  0  0
   35.7718   31.9896   36.5759 H   0  0  0  0  0  0  0  0  0  0  0  0
   33.3221   31.4933   36.8878 H   0  0  0  0  0  0  0  0  0  0  0  0
   32.2891   29.8143   35.3722 H   0  0  0  0  0  0  0  0  0  0  0  0
   37.9874   23.2032   38.3517 H   0  0  0  0  0  0  0  0  0  0  0  0
   37.7741   25.6500   37.9836 H   0  0  0  0  0  0  0  0  0  0  0  0
   38.2232   22.5822   34.1603 H   0  0  0  0  0  0  0  0  0  0  0  0
  1 13  1  0
  2  1  2  0
  3  2  1  0
  4  3  2  0
  4  5  1  0
  5  6  2  0
  6  1  1  0
  6  7  1  0
  7 12  1  0
  7  8  2  0
  8  9  1  0
  9 10  2  0
 11 10  1  0
 12 11  2  0
 13 14  1  0
 14 15  2  0
 14 18  1  0
 17 16  2  0
 18 17  1  0
 19 20  1  0
 19 18  2  0
 20 21  2  0
 21 16  1  0
  2 22  1  0
  3 23  1  0
  4 24  1  0
  5 25  1  0
  8 26  1  0
  9 27  1  0
 10 28  1  0
 11 29  1  0
 16 30  1  0
 17 31  1  0
 20 32  1  0
M  ISO  8  22  14  23  14  24  14  25  14  26  14  27  14  28  14  29  14
M  ISO  3  30  14  31  14  32  14
M  END
>  <minimizedAffinity>  (1) 
-5.14650393

>  <minimizedRMSD>  (1) 
1.24530685

$$$$
