
     RDKit          3D

 30 32  0  0  0  0  0  0  0  0999 V2000
   36.8670   27.7090   33.4140 C   0  0  0  0  0  0  0  0  0  0  0  0
   37.6750   27.0780   32.4790 C   0  0  0  0  0  0  0  0  0  0  0  0
   37.7970   27.6060   31.2020 C   0  0  0  0  0  0  0  0  0  0  0  0
   37.1280   28.7550   30.8380 C   0  0  0  0  0  0  0  0  0  0  0  0
   36.3310   29.3720   31.7660 C   0  0  0  0  0  0  0  0  0  0  0  0
   36.1920   28.8670   33.0470 C   0  0  0  0  0  0  0  0  0  0  0  0
   35.3370   29.5530   33.9980 C   0  0  0  0  0  0  0  0  0  0  0  0
   35.6970   30.5430   34.8620 C   0  0  0  0  0  0  0  0  0  0  0  0
   34.5150   30.8450   35.5360 C   0  0  0  0  0  0  0  0  0  0  0  0
   33.5400   30.0180   35.0280 C   0  0  0  0  0  0  0  0  0  0  0  0
   34.0560   29.2570   34.1120 O   0  0  0  0  0  0  0  0  0  0  0  0
   36.7290   27.2010   34.6940 O   0  0  0  0  0  0  0  0  0  0  0  0
   37.8110   26.7610   35.4420 C   0  0  0  0  0  0  0  0  0  0  0  0
   38.6530   27.6290   35.7730 O   0  0  0  0  0  0  0  0  0  0  0  0
   38.0020   23.4670   37.2940 C   0  0  0  0  0  0  0  0  0  0  0  0
   37.8930   24.8400   37.0830 C   0  0  0  0  0  0  0  0  0  0  0  0
   37.9150   25.3500   35.7970 C   0  0  0  0  0  0  0  0  0  0  0  0
   38.0440   24.4500   34.7860 N   0  0  0  0  0  0  0  0  0  0  0  0
   38.1480   23.1220   34.9890 C   0  0  0  0  0  0  0  0  0  0  0  0
   38.1270   22.6280   36.2420 N   0  0  0  0  0  0  0  0  0  0  0  0
   38.2180   26.1605   32.7499 H   0  0  0  0  0  0  0  0  0  0  0  0
   38.4390   27.0988   30.4668 H   0  0  0  0  0  0  0  0  0  0  0  0
   37.2319   29.1678   29.8237 H   0  0  0  0  0  0  0  0  0  0  0  0
   35.7901   30.2883   31.4870 H   0  0  0  0  0  0  0  0  0  0  0  0
   36.6894   30.9980   34.9964 H   0  0  0  0  0  0  0  0  0  0  0  0
   34.3862   31.6011   36.3245 H   0  0  0  0  0  0  0  0  0  0  0  0
   32.4877   30.0039   35.3481 H   0  0  0  0  0  0  0  0  0  0  0  0
   37.9863   23.0656   38.3180 H   0  0  0  0  0  0  0  0  0  0  0  0
   37.7892   25.5203   37.9412 H   0  0  0  0  0  0  0  0  0  0  0  0
   38.2501   22.4410   34.1312 H   0  0  0  0  0  0  0  0  0  0  0  0
  1 12  1  0
  2  1  2  0
  3  2  1  0
  4  3  2  0
  4  5  1  0
  5  6  2  0
  6  1  1  0
  6  7  1  0
  7 11  1  0
  7  8  2  0
  8  9  1  0
 10  9  2  0
 11 10  1  0
 12 13  1  0
 13 14  2  0
 13 17  1  0
 16 15  2  0
 17 16  1  0
 18 19  1  0
 18 17  2  0
 19 20  2  0
 20 15  1  0
  2 21  1  0
  3 22  1  0
  4 23  1  0
  5 24  1  0
  8 25  1  0
  9 26  1  0
 10 27  1  0
 15 28  1  0
 16 29  1  0
 19 30  1  0
M  ISO  8  21  14  22  14  23  14  24  14  25  14  26  14  27  14  28  14
M  ISO  2  29  14  30  14
M  END
>  <minimizedAffinity>  (1) 
-5.00782871

>  <minimizedRMSD>  (1) 
1.17059278

$$$$
