
     RDKit          3D

 31 33  0  0  0  0  0  0  0  0999 V2000
   36.8370   27.7960   33.3690 C   0  0  0  0  0  0  0  0  0  0  0  0
   37.6480   27.1390   32.4570 C   0  0  0  0  0  0  0  0  0  0  0  0
   37.7530   27.6640   31.1760 C   0  0  0  0  0  0  0  0  0  0  0  0
   37.0830   28.8040   30.7900 C   0  0  0  0  0  0  0  0  0  0  0  0
   36.2870   29.4380   31.7080 C   0  0  0  0  0  0  0  0  0  0  0  0
   36.1470   28.9580   32.9990 C   0  0  0  0  0  0  0  0  0  0  0  0
   35.3160   29.5910   34.0100 C   0  0  0  0  0  0  0  0  0  0  0  0
   35.7800   30.5700   34.8520 C   0  0  0  0  0  0  0  0  0  0  0  0
   34.9990   31.1770   35.8150 C   0  0  0  0  0  0  0  0  0  0  0  0
   33.7120   30.7940   35.9370 N   0  0  0  0  0  0  0  0  0  0  0  0
   33.2560   29.8340   35.1090 C   0  0  0  0  0  0  0  0  0  0  0  0
   34.0280   29.2600   34.1860 N   0  0  0  0  0  0  0  0  0  0  0  0
   36.6890   27.3200   34.6730 O   0  0  0  0  0  0  0  0  0  0  0  0
   37.7470   26.9000   35.4420 C   0  0  0  0  0  0  0  0  0  0  0  0
   38.5500   27.7910   35.7890 O   0  0  0  0  0  0  0  0  0  0  0  0
   38.0130   23.6290   37.3250 C   0  0  0  0  0  0  0  0  0  0  0  0
   37.8850   24.9870   37.1020 C   0  0  0  0  0  0  0  0  0  0  0  0
   37.8760   25.4900   35.8010 C   0  0  0  0  0  0  0  0  0  0  0  0
   37.9970   24.5880   34.7870 N   0  0  0  0  0  0  0  0  0  0  0  0
   38.1210   23.2730   35.0100 C   0  0  0  0  0  0  0  0  0  0  0  0
   38.1310   22.7740   36.2740 N   0  0  0  0  0  0  0  0  0  0  0  0
   38.1934   26.2267   32.7403 H   0  0  0  0  0  0  0  0  0  0  0  0
   38.3939   27.1515   30.4434 H   0  0  0  0  0  0  0  0  0  0  0  0
   37.1846   29.1968   29.7676 H   0  0  0  0  0  0  0  0  0  0  0  0
   35.7468   30.3494   31.4122 H   0  0  0  0  0  0  0  0  0  0  0  0
   36.8286   30.8876   34.7546 H   0  0  0  0  0  0  0  0  0  0  0  0
   35.4177   31.9563   36.4687 H   0  0  0  0  0  0  0  0  0  0  0  0
   32.2080   29.5119   35.1978 H   0  0  0  0  0  0  0  0  0  0  0  0
   38.0194   23.2393   38.3537 H   0  0  0  0  0  0  0  0  0  0  0  0
   37.7897   25.6749   37.9551 H   0  0  0  0  0  0  0  0  0  0  0  0
   38.2163   22.5860   34.1562 H   0  0  0  0  0  0  0  0  0  0  0  0
  1 13  1  0
  2  1  2  0
  3  2  1  0
  4  3  2  0
  4  5  1  0
  5  6  2  0
  6  1  1  0
  6  7  1  0
  7 12  1  0
  7  8  2  0
  8  9  1  0
  9 10  2  0
 11 10  1  0
 12 11  2  0
 13 14  1  0
 14 15  2  0
 14 18  1  0
 17 16  2  0
 18 17  1  0
 19 20  1  0
 19 18  2  0
 20 21  2  0
 21 16  1  0
  2 22  1  0
  3 23  1  0
  4 24  1  0
  5 25  1  0
  8 26  1  0
  9 27  1  0
 11 28  1  0
 16 29  1  0
 17 30  1  0
 20 31  1  0
M  ISO  8  22  14  23  14  24  14  25  14  26  14  27  14  28  14  29  14
M  ISO  2  30  14  31  14
M  END
>  <minimizedAffinity>  (1) 
-5.00343561

>  <minimizedRMSD>  (1) 
1.25820673

$$$$
