
     RDKit          3D

 30 32  0  0  0  0  0  0  0  0999 V2000
   36.8790   27.7450   33.5590 C   0  0  0  0  0  0  0  0  0  0  0  0
   37.6940   27.1380   32.6150 C   0  0  0  0  0  0  0  0  0  0  0  0
   37.7930   27.6710   31.3360 C   0  0  0  0  0  0  0  0  0  0  0  0
   37.0880   28.8000   30.9910 C   0  0  0  0  0  0  0  0  0  0  0  0
   36.2860   29.3950   31.9240 C   0  0  0  0  0  0  0  0  0  0  0  0
   36.1720   28.8820   33.2080 C   0  0  0  0  0  0  0  0  0  0  0  0
   35.2910   29.5850   34.1280 C   0  0  0  0  0  0  0  0  0  0  0  0
   35.6420   30.5900   35.0040 C   0  0  0  0  0  0  0  0  0  0  0  0
   34.5870   31.0180   35.7080 N   0  0  0  0  0  0  0  0  0  0  0  0
   33.5410   30.3070   35.3070 C   0  0  0  0  0  0  0  0  0  0  0  0
   33.9750   29.4540   34.3630 N   0  0  0  0  0  0  0  0  0  0  0  0
   36.7820   27.2160   34.8270 O   0  0  0  0  0  0  0  0  0  0  0  0
   37.8680   26.7230   35.5360 C   0  0  0  0  0  0  0  0  0  0  0  0
   38.7360   27.5610   35.8590 O   0  0  0  0  0  0  0  0  0  0  0  0
   37.9890   23.3960   37.3300 C   0  0  0  0  0  0  0  0  0  0  0  0
   37.9050   24.7730   37.1580 C   0  0  0  0  0  0  0  0  0  0  0  0
   37.9460   25.3100   35.8620 C   0  0  0  0  0  0  0  0  0  0  0  0
   38.0680   24.4370   34.8310 N   0  0  0  0  0  0  0  0  0  0  0  0
   38.1490   23.0980   35.0230 C   0  0  0  0  0  0  0  0  0  0  0  0
   38.1110   22.5690   36.2600 N   0  0  0  0  0  0  0  0  0  0  0  0
   38.2623   26.2340   32.8793 H   0  0  0  0  0  0  0  0  0  0  0  0
   38.4416   27.1852   30.5921 H   0  0  0  0  0  0  0  0  0  0  0  0
   37.1685   29.2189   29.9771 H   0  0  0  0  0  0  0  0  0  0  0  0
   35.7200   30.2980   31.6517 H   0  0  0  0  0  0  0  0  0  0  0  0
   36.6611   30.9900   35.1110 H   0  0  0  0  0  0  0  0  0  0  0  0
   32.5096   30.3986   35.6783 H   0  0  0  0  0  0  0  0  0  0  0  0
   33.3687   28.7783   33.8764 H   0  0  0  0  0  0  0  0  0  0  0  0
   37.9563   22.9717   38.3443 H   0  0  0  0  0  0  0  0  0  0  0  0
   37.8072   25.4360   38.0303 H   0  0  0  0  0  0  0  0  0  0  0  0
   38.2475   22.4321   34.1530 H   0  0  0  0  0  0  0  0  0  0  0  0
  1 12  1  0
  2  1  2  0
  3  2  1  0
  4  3  2  0
  4  5  1  0
  5  6  2  0
  6  1  1  0
  6  7  1  0
  7 11  1  0
  7  8  2  0
  8  9  1  0
 10  9  2  0
 11 10  1  0
 12 13  1  0
 13 14  2  0
 13 17  1  0
 16 15  2  0
 17 16  1  0
 18 19  1  0
 18 17  2  0
 19 20  2  0
 20 15  1  0
  2 21  1  0
  3 22  1  0
  4 23  1  0
  5 24  1  0
  8 25  1  0
 10 26  1  0
 11 27  1  0
 15 28  1  0
 16 29  1  0
 19 30  1  0
M  ISO  8  21  14  22  14  23  14  24  14  25  14  26  14  27   9  28  14
M  ISO  2  29  14  30  14
M  END
>  <minimizedAffinity>  (1) 
-4.94316483

>  <minimizedRMSD>  (1) 
1.06722808

$$$$
