
     RDKit          3D

 30 32  0  0  0  0  0  0  0  0999 V2000
   36.7810   27.8820   33.2840 C   0  0  0  0  0  0  0  0  0  0  0  0
   36.8780   27.6340   34.6400 C   0  0  0  0  0  0  0  0  0  0  0  0
   38.0780   27.1670   35.1660 C   0  0  0  0  0  0  0  0  0  0  0  0
   39.1650   26.9520   34.3430 C   0  0  0  0  0  0  0  0  0  0  0  0
   39.0700   27.1980   32.9940 C   0  0  0  0  0  0  0  0  0  0  0  0
   37.8950   27.6560   32.4690 C   0  0  0  0  0  0  0  0  0  0  0  0
   37.7480   27.9320   31.0420 C   0  0  0  0  0  0  0  0  0  0  0  0
   38.7260   28.4480   30.2100 C   0  0  0  0  0  0  0  0  0  0  0  0
   38.2020   28.5610   28.9390 C   0  0  0  0  0  0  0  0  0  0  0  0
   36.9180   28.1170   29.0020 N   0  0  0  0  0  0  0  0  0  0  0  0
   36.6750   27.7530   30.2500 N   0  0  0  0  0  0  0  0  0  0  0  0
   35.6050   28.3510   32.7010 O   0  0  0  0  0  0  0  0  0  0  0  0
   34.9800   29.5010   33.1380 C   0  0  0  0  0  0  0  0  0  0  0  0
   35.6540   30.5590   33.0840 O   0  0  0  0  0  0  0  0  0  0  0  0
   31.2070   29.3040   33.4310 C   0  0  0  0  0  0  0  0  0  0  0  0
   32.4620   29.3540   32.8480 C   0  0  0  0  0  0  0  0  0  0  0  0
   33.6080   29.4430   33.6290 C   0  0  0  0  0  0  0  0  0  0  0  0
   33.4260   29.4790   34.9930 N   0  0  0  0  0  0  0  0  0  0  0  0
   32.2000   29.4320   35.5510 C   0  0  0  0  0  0  0  0  0  0  0  0
   31.0850   29.3440   34.7790 N   0  0  0  0  0  0  0  0  0  0  0  0
   36.0132   27.8045   35.2981 H   0  0  0  0  0  0  0  0  0  0  0  0
   38.1612   26.9678   36.2446 H   0  0  0  0  0  0  0  0  0  0  0  0
   40.1100   26.5827   34.7679 H   0  0  0  0  0  0  0  0  0  0  0  0
   39.9372   27.0266   32.3394 H   0  0  0  0  0  0  0  0  0  0  0  0
   39.7480   28.7217   30.5111 H   0  0  0  0  0  0  0  0  0  0  0  0
   38.7225   28.9378   28.0462 H   0  0  0  0  0  0  0  0  0  0  0  0
   36.2528   28.0722   28.2169 H   0  0  0  0  0  0  0  0  0  0  0  0
   30.3094   29.2318   32.7993 H   0  0  0  0  0  0  0  0  0  0  0  0
   32.5530   29.3229   31.7522 H   0  0  0  0  0  0  0  0  0  0  0  0
   32.1006   29.4653   36.6460 H   0  0  0  0  0  0  0  0  0  0  0  0
  1  2  2  0
  2  3  1  0
  4  3  2  0
  5  4  1  0
  6  5  2  0
  6  1  1  0
  7  6  1  0
  8  7  1  0
  9 10  1  0
  9  8  2  0
 10 11  1  0
 11  7  2  0
 12 13  1  0
 12  1  1  0
 13 17  1  0
 14 13  2  0
 15 20  2  0
 16 15  1  0
 16 17  2  0
 17 18  1  0
 18 19  2  0
 20 19  1  0
  2 21  1  0
  3 22  1  0
  4 23  1  0
  5 24  1  0
  8 25  1  0
  9 26  1  0
 10 27  1  0
 15 28  1  0
 16 29  1  0
 19 30  1  0
M  ISO  8  21  14  22  14  23  14  24  14  25  14  26  14  27   9  28  14
M  ISO  2  29  14  30  14
M  END
>  <minimizedAffinity>  (1) 
-4.8819437

>  <minimizedRMSD>  (1) 
6.58210278

$$$$
