
     RDKit          3D

 30 32  0  0  0  0  0  0  0  0999 V2000
   36.9280   27.6820   33.6440 C   0  0  0  0  0  0  0  0  0  0  0  0
   37.7800   27.1680   32.6890 C   0  0  0  0  0  0  0  0  0  0  0  0
   37.8280   27.7780   31.4410 C   0  0  0  0  0  0  0  0  0  0  0  0
   37.0470   28.8810   31.1390 C   0  0  0  0  0  0  0  0  0  0  0  0
   36.1960   29.3900   32.1040 C   0  0  0  0  0  0  0  0  0  0  0  0
   36.1410   28.7950   33.3370 C   0  0  0  0  0  0  0  0  0  0  0  0
   35.2240   29.3510   34.3640 C   0  0  0  0  0  0  0  0  0  0  0  0
   35.7840   30.5230   35.1650 C   0  0  0  0  0  0  0  0  0  0  0  0
   34.6140   30.6720   34.2330 C   0  0  0  0  0  0  0  0  0  0  0  0
   36.8250   27.1240   34.9160 O   0  0  0  0  0  0  0  0  0  0  0  0
   37.9040   26.6240   35.5960 C   0  0  0  0  0  0  0  0  0  0  0  0
   38.7910   27.4700   35.9220 O   0  0  0  0  0  0  0  0  0  0  0  0
   38.0990   23.2970   37.3610 C   0  0  0  0  0  0  0  0  0  0  0  0
   37.9950   24.6720   37.1980 C   0  0  0  0  0  0  0  0  0  0  0  0
   38.0040   25.2030   35.9130 C   0  0  0  0  0  0  0  0  0  0  0  0
   38.1170   24.3400   34.8510 N   0  0  0  0  0  0  0  0  0  0  0  0
   38.2170   23.0080   35.0300 C   0  0  0  0  0  0  0  0  0  0  0  0
   38.2080   22.4810   36.2880 N   0  0  0  0  0  0  0  0  0  0  0  0
   38.4088   26.2930   32.9105 H   0  0  0  0  0  0  0  0  0  0  0  0
   38.5041   27.3740   30.6731 H   0  0  0  0  0  0  0  0  0  0  0  0
   37.1025   29.3468   30.1440 H   0  0  0  0  0  0  0  0  0  0  0  0
   35.5683   30.2658   31.8829 H   0  0  0  0  0  0  0  0  0  0  0  0
   34.7907   28.3591   34.5600 H   0  0  0  0  0  0  0  0  0  0  0  0
   35.6377   30.5730   36.2541 H   0  0  0  0  0  0  0  0  0  0  0  0
   36.7669   31.0023   35.2840 H   0  0  0  0  0  0  0  0  0  0  0  0
   34.7326   31.2360   33.2961 H   0  0  0  0  0  0  0  0  0  0  0  0
   33.5898   31.0574   34.3446 H   0  0  0  0  0  0  0  0  0  0  0  0
   38.0927   22.8669   38.3734 H   0  0  0  0  0  0  0  0  0  0  0  0
   37.9067   25.3321   38.0735 H   0  0  0  0  0  0  0  0  0  0  0  0
   38.3062   22.3432   34.1582 H   0  0  0  0  0  0  0  0  0  0  0  0
  1 10  1  0
  2  1  2  0
  3  2  1  0
  4  3  2  0
  4  5  1  0
  5  6  2  0
  6  1  1  0
  6  7  1  0
  7  8  1  0
  9  7  1  0
  9  8  1  0
 10 11  1  0
 11 15  1  0
 11 12  2  0
 14 13  2  0
 15 14  1  0
 16 17  1  0
 16 15  2  0
 17 18  2  0
 18 13  1  0
  2 19  1  0
  3 20  1  0
  4 21  1  0
  5 22  1  0
  7 23  1  0
  8 24  1  0
  8 25  1  0
  9 26  1  0
  9 27  1  0
 13 28  1  0
 14 29  1  0
 17 30  1  0
M  ISO  8  19  14  20  14  21  14  22  14  23  13  24  13  25  13  26  13
M  ISO  4  27  13  28  14  29  14  30  14
M  END
>  <minimizedAffinity>  (1) 
-4.83013916

>  <minimizedRMSD>  (1) 
1.31772065

$$$$
