
     RDKit          3D

 26 27  0  0  0  0  0  0  0  0999 V2000
   36.8340   27.6990   33.6310 C   0  0  0  0  0  0  0  0  0  0  0  0
   37.5460   27.1310   32.6040 C   0  0  0  0  0  0  0  0  0  0  0  0
   37.5580   27.7470   31.3540 C   0  0  0  0  0  0  0  0  0  0  0  0
   36.8670   28.9180   31.1280 C   0  0  0  0  0  0  0  0  0  0  0  0
   36.1570   29.4830   32.1570 C   0  0  0  0  0  0  0  0  0  0  0  0
   36.1420   28.8810   33.3890 C   0  0  0  0  0  0  0  0  0  0  0  0
   35.3640   29.5510   34.4110 C   0  0  0  0  0  0  0  0  0  0  0  0
   35.8140   30.4430   35.1950 O   0  0  0  0  0  0  0  0  0  0  0  0
   34.0390   29.3510   34.7080 O   0  0  0  0  0  0  0  0  0  0  0  0
   36.7850   27.1330   34.8950 O   0  0  0  0  0  0  0  0  0  0  0  0
   37.9030   26.6400   35.5360 C   0  0  0  0  0  0  0  0  0  0  0  0
   38.7830   27.4780   35.8270 O   0  0  0  0  0  0  0  0  0  0  0  0
   38.1160   23.2820   37.2660 C   0  0  0  0  0  0  0  0  0  0  0  0
   38.0060   24.6510   37.1060 C   0  0  0  0  0  0  0  0  0  0  0  0
   38.0120   25.2100   35.8380 C   0  0  0  0  0  0  0  0  0  0  0  0
   38.1320   24.3560   34.7680 N   0  0  0  0  0  0  0  0  0  0  0  0
   38.2380   23.0250   34.9420 C   0  0  0  0  0  0  0  0  0  0  0  0
   38.2320   22.4740   36.1760 N   0  0  0  0  0  0  0  0  0  0  0  0
   38.1030   26.1965   32.7665 H   0  0  0  0  0  0  0  0  0  0  0  0
   38.1295   27.2903   30.5325 H   0  0  0  0  0  0  0  0  0  0  0  0
   36.8846   29.3931   30.1360 H   0  0  0  0  0  0  0  0  0  0  0  0
   35.6005   30.4177   31.9940 H   0  0  0  0  0  0  0  0  0  0  0  0
   33.6104   29.8709   35.4333 H   0  0  0  0  0  0  0  0  0  0  0  0
   38.1098   22.8449   38.2754 H   0  0  0  0  0  0  0  0  0  0  0  0
   37.9133   25.2996   37.9896 H   0  0  0  0  0  0  0  0  0  0  0  0
   38.3314   22.3725   34.0613 H   0  0  0  0  0  0  0  0  0  0  0  0
  1 10  1  0
  2  1  2  0
  3  2  1  0
  4  3  2  0
  4  5  1  0
  5  6  2  0
  6  1  1  0
  6  7  1  0
  7  9  1  0
  7  8  2  0
 10 11  1  0
 11 12  2  0
 11 15  1  0
 14 13  2  0
 15 14  1  0
 16 17  1  0
 16 15  2  0
 17 18  2  0
 18 13  1  0
  2 19  1  0
  3 20  1  0
  4 21  1  0
  5 22  1  0
  9 23  1  0
 13 24  1  0
 14 25  1  0
 17 26  1  0
M  ISO  8  19  14  20  14  21  14  22  14  23   3  24  14  25  14  26  14
M  END
>  <minimizedAffinity>  (1) 
-4.6576972

>  <minimizedRMSD>  (1) 
0.898626864

$$$$
