
     RDKit          3D

 35 36  0  0  0  0  0  0  0  0999 V2000
   37.4030   27.4970   32.9810 C   0  0  0  0  0  0  0  0  0  0  0  0
   38.3790   26.8280   32.2740 C   0  0  0  0  0  0  0  0  0  0  0  0
   38.7380   27.2760   31.0070 C   0  0  0  0  0  0  0  0  0  0  0  0
   38.1300   28.3800   30.4540 C   0  0  0  0  0  0  0  0  0  0  0  0
   37.1610   29.0450   31.1560 C   0  0  0  0  0  0  0  0  0  0  0  0
   36.7840   28.6240   32.4120 C   0  0  0  0  0  0  0  0  0  0  0  0
   35.7280   29.3930   33.1110 C   0  0  0  0  0  0  0  0  0  0  0  0
   35.6860   30.8450   32.6330 C   0  0  0  0  0  0  0  0  0  0  0  0
   34.3260   28.8540   32.7800 C   0  0  0  0  0  0  0  0  0  0  0  0
   35.8070   29.3950   34.5960 C   0  0  0  0  0  0  0  0  0  0  0  0
   37.0030   27.0980   34.2480 O   0  0  0  0  0  0  0  0  0  0  0  0
   37.9140   26.6950   35.2130 C   0  0  0  0  0  0  0  0  0  0  0  0
   38.6810   27.5920   35.6810 O   0  0  0  0  0  0  0  0  0  0  0  0
   37.9620   23.4960   37.2160 C   0  0  0  0  0  0  0  0  0  0  0  0
   37.9110   24.8590   36.9560 C   0  0  0  0  0  0  0  0  0  0  0  0
   37.9580   25.2950   35.6440 C   0  0  0  0  0  0  0  0  0  0  0  0
   38.0520   24.3540   34.6530 N   0  0  0  0  0  0  0  0  0  0  0  0
   38.1000   23.0280   34.9230 C   0  0  0  0  0  0  0  0  0  0  0  0
   38.0560   22.5940   36.1970 N   0  0  0  0  0  0  0  0  0  0  0  0
   38.8708   25.9455   32.7090 H   0  0  0  0  0  0  0  0  0  0  0  0
   39.5159   26.7424   30.4412 H   0  0  0  0  0  0  0  0  0  0  0  0
   38.4216   28.7267   29.4516 H   0  0  0  0  0  0  0  0  0  0  0  0
   36.6772   29.9271   30.7112 H   0  0  0  0  0  0  0  0  0  0  0  0
   35.6666   31.5172   33.5035 H   0  0  0  0  0  0  0  0  0  0  0  0
   36.5784   31.0571   32.0258 H   0  0  0  0  0  0  0  0  0  0  0  0
   34.7828   31.0052   32.0258 H   0  0  0  0  0  0  0  0  0  0  0  0
   33.7835   28.6454   33.7139 H   0  0  0  0  0  0  0  0  0  0  0  0
   33.7736   29.6039   32.1947 H   0  0  0  0  0  0  0  0  0  0  0  0
   34.4182   27.9272   32.1947 H   0  0  0  0  0  0  0  0  0  0  0  0
   34.7912   29.3693   35.0173 H   0  0  0  0  0  0  0  0  0  0  0  0
   36.3669   28.5107   34.9346 H   0  0  0  0  0  0  0  0  0  0  0  0
   36.3214   30.3065   34.9346 H   0  0  0  0  0  0  0  0  0  0  0  0
   37.9262   23.1394   38.2560 H   0  0  0  0  0  0  0  0  0  0  0  0
   37.8343   25.5819   37.7816 H   0  0  0  0  0  0  0  0  0  0  0  0
   38.1752   22.3031   34.0991 H   0  0  0  0  0  0  0  0  0  0  0  0
  1 11  1  0
  2  1  2  0
  3  2  1  0
  4  3  2  0
  4  5  1  0
  5  6  2  0
  6  1  1  0
  6  7  1  0
  7 10  1  0
  8  7  1  0
  9  7  1  0
 11 12  1  0
 12 16  1  0
 12 13  2  0
 15 14  2  0
 16 15  1  0
 17 18  1  0
 17 16  2  0
 18 19  2  0
 19 14  1  0
  2 20  1  0
  3 21  1  0
  4 22  1  0
  5 23  1  0
  8 24  1  0
  8 25  1  0
  8 26  1  0
  9 27  1  0
  9 28  1  0
  9 29  1  0
 10 30  1  0
 10 31  1  0
 10 32  1  0
 14 33  1  0
 15 34  1  0
 18 35  1  0
M  ISO  8  20  14  21  14  22  14  23  14  24   8  25   8  26   8  27   8
M  ISO  8  28   8  29   8  30   8  31   8  32   8  33  14  34  14  35  14
M  END
>  <minimizedAffinity>  (1) 
-4.56464195

>  <minimizedRMSD>  (1) 
1.47251964

$$$$
