
     RDKit          3D

 26 27  0  0  0  0  0  0  0  0999 V2000
   36.9960   26.5610   34.8080 O   0  0  0  0  0  0  0  0  0  0  0  0
   37.1390   27.0920   33.5190 C   0  0  0  0  0  0  0  0  0  0  0  0
   37.9160   26.5050   32.5570 C   0  0  0  0  0  0  0  0  0  0  0  0
   38.0000   27.1010   31.3030 C   0  0  0  0  0  0  0  0  0  0  0  0
   37.3130   28.2750   31.0160 C   0  0  0  0  0  0  0  0  0  0  0  0
   36.5370   28.8520   31.9870 C   0  0  0  0  0  0  0  0  0  0  0  0
   36.4370   28.2790   33.2430 C   0  0  0  0  0  0  0  0  0  0  0  0
   35.5770   28.9760   34.2260 C   0  0  0  0  0  0  0  0  0  0  0  0
   38.0610   26.4690   35.6850 C   0  0  0  0  0  0  0  0  0  0  0  0
   38.6310   27.5560   35.9660 O   0  0  0  0  0  0  0  0  0  0  0  0
   38.4320   23.3720   37.8170 C   0  0  0  0  0  0  0  0  0  0  0  0
   37.9610   24.6170   37.3940 C   0  0  0  0  0  0  0  0  0  0  0  0
   38.4680   25.1850   36.2300 C   0  0  0  0  0  0  0  0  0  0  0  0
   39.4110   24.4790   35.5610 N   0  0  0  0  0  0  0  0  0  0  0  0
   39.8690   23.2810   35.9630 C   0  0  0  0  0  0  0  0  0  0  0  0
   39.3750   22.7190   37.1030 N   0  0  0  0  0  0  0  0  0  0  0  0
   38.4653   25.5766   32.7722 H   0  0  0  0  0  0  0  0  0  0  0  0
   38.6214   26.6349   30.5242 H   0  0  0  0  0  0  0  0  0  0  0  0
   37.3914   28.7358   30.0203 H   0  0  0  0  0  0  0  0  0  0  0  0
   35.9883   29.7794   31.7661 H   0  0  0  0  0  0  0  0  0  0  0  0
   35.8990   28.7150   35.2449 H   0  0  0  0  0  0  0  0  0  0  0  0
   35.6620   30.0632   34.0817 H   0  0  0  0  0  0  0  0  0  0  0  0
   34.5310   28.6677   34.0817 H   0  0  0  0  0  0  0  0  0  0  0  0
   38.0327   22.9203   38.7371 H   0  0  0  0  0  0  0  0  0  0  0  0
   37.1933   25.1454   37.9782 H   0  0  0  0  0  0  0  0  0  0  0  0
   40.6377   22.7571   35.3759 H   0  0  0  0  0  0  0  0  0  0  0  0
  1  9  1  0
  2  1  1  0
  3  2  2  0
  4  3  1  0
  5  4  2  0
  5  6  1  0
  6  7  2  0
  7  2  1  0
  7  8  1  0
  9 10  2  0
  9 13  1  0
 12 11  2  0
 13 12  1  0
 14 15  1  0
 14 13  2  0
 15 16  2  0
 16 11  1  0
  3 17  1  0
  4 18  1  0
  5 19  1  0
  6 20  1  0
  8 21  1  0
  8 22  1  0
  8 23  1  0
 11 24  1  0
 12 25  1  0
 15 26  1  0
M  ISO  8  17  14  18  14  19  14  20  14  21   8  22   8  23   8  24  14
M  ISO  2  25  14  26  14
M  END
>  <minimizedAffinity>  (1) 
-4.40949297

>  <minimizedRMSD>  (1) 
0.491287708

$$$$
