
     RDKit          3D

 24 25  0  0  0  0  0  0  0  0999 V2000
   37.0250   26.5440   34.7470 O   0  0  0  0  0  0  0  0  0  0  0  0
   37.2200   26.9310   33.4160 C   0  0  0  0  0  0  0  0  0  0  0  0
   37.9830   26.2010   32.5330 C   0  0  0  0  0  0  0  0  0  0  0  0
   38.1160   26.6730   31.2300 C   0  0  0  0  0  0  0  0  0  0  0  0
   37.5100   27.8360   30.8060 C   0  0  0  0  0  0  0  0  0  0  0  0
   36.7420   28.5650   31.7050 C   0  0  0  0  0  0  0  0  0  0  0  0
   36.6010   28.1150   32.9940 C   0  0  0  0  0  0  0  0  0  0  0  0
   35.6110   29.0430   34.1770 S   0  0  0  0  0  0  0  0  0  0  0  0
   38.0610   26.4650   35.6560 C   0  0  0  0  0  0  0  0  0  0  0  0
   38.6010   27.5660   35.9440 O   0  0  0  0  0  0  0  0  0  0  0  0
   38.4180   23.3840   37.8090 C   0  0  0  0  0  0  0  0  0  0  0  0
   37.9530   24.6220   37.3700 C   0  0  0  0  0  0  0  0  0  0  0  0
   38.4630   25.1840   36.2140 C   0  0  0  0  0  0  0  0  0  0  0  0
   39.4190   24.4840   35.5420 N   0  0  0  0  0  0  0  0  0  0  0  0
   39.8620   23.2890   35.9750 C   0  0  0  0  0  0  0  0  0  0  0  0
   39.3630   22.7260   37.1160 N   0  0  0  0  0  0  0  0  0  0  0  0
   38.4748   25.2691   32.8486 H   0  0  0  0  0  0  0  0  0  0  0  0
   38.7245   26.0991   30.5157 H   0  0  0  0  0  0  0  0  0  0  0  0
   37.6329   28.1824   29.7692 H   0  0  0  0  0  0  0  0  0  0  0  0
   36.2505   29.4960   31.3863 H   0  0  0  0  0  0  0  0  0  0  0  0
   35.9791   28.6979   35.4507 H   0  0  0  0  0  0  0  0  0  0  0  0
   38.0087   22.9421   38.7294 H   0  0  0  0  0  0  0  0  0  0  0  0
   37.1792   25.1530   37.9438 H   0  0  0  0  0  0  0  0  0  0  0  0
   40.6367   22.7580   35.4024 H   0  0  0  0  0  0  0  0  0  0  0  0
  1  9  1  0
  2  1  1  0
  3  2  2  0
  4  3  1  0
  5  4  2  0
  5  6  1  0
  6  7  2  0
  7  2  1  0
  7  8  1  0
  9 10  2  0
  9 13  1  0
 12 11  2  0
 13 12  1  0
 14 15  1  0
 14 13  2  0
 15 16  2  0
 16 11  1  0
  3 17  1  0
  4 18  1  0
  5 19  1  0
  6 20  1  0
  8 21  1  0
 11 22  1  0
 12 23  1  0
 15 24  1  0
M  ISO  8  17  14  18  14  19  14  20  14  21  11  22  14  23  14  24  14
M  END
>  <minimizedAffinity>  (1) 
-4.16208649

>  <minimizedRMSD>  (1) 
0.753676891

$$$$
