
     RDKit          3D

 44 47  0  0  0  0  0  0  0  0999 V2000
   36.7190   28.0100   33.3840 C   0  0  0  0  0  0  0  0  0  0  0  0
   37.4970   27.3950   32.4460 C   0  0  0  0  0  0  0  0  0  0  0  0
   37.5800   27.9170   31.1560 C   0  0  0  0  0  0  0  0  0  0  0  0
   36.8730   29.0610   30.8270 C   0  0  0  0  0  0  0  0  0  0  0  0
   36.0900   29.6730   31.7850 C   0  0  0  0  0  0  0  0  0  0  0  0
   36.0070   29.1620   33.0510 C   0  0  0  0  0  0  0  0  0  0  0  0
   35.2000   29.7610   34.1070 C   0  0  0  0  0  0  0  0  0  0  0  0
   35.6590   30.7180   34.9790 C   0  0  0  0  0  0  0  0  0  0  0  0
   34.9020   31.2870   35.9760 C   0  0  0  0  0  0  0  0  0  0  0  0
   33.6380   30.9010   36.1250 N   0  0  0  0  0  0  0  0  0  0  0  0
   33.1630   29.9690   35.2890 C   0  0  0  0  0  0  0  0  0  0  0  0
   33.9080   29.4250   34.3250 N   0  0  0  0  0  0  0  0  0  0  0  0
   36.6360   27.4930   34.6630 O   0  0  0  0  0  0  0  0  0  0  0  0
   37.6970   26.9860   35.3760 C   0  0  0  0  0  0  0  0  0  0  0  0
   38.4900   27.8550   35.8440 O   0  0  0  0  0  0  0  0  0  0  0  0
   38.2490   23.5360   36.7820 C   0  0  0  0  0  0  0  0  0  0  0  0
   38.1010   24.9220   36.7610 C   0  0  0  0  0  0  0  0  0  0  0  0
   37.8700   25.5630   35.5600 C   0  0  0  0  0  0  0  0  0  0  0  0
   37.7960   24.7910   34.4350 N   0  0  0  0  0  0  0  0  0  0  0  0
   37.9410   23.4430   34.4610 C   0  0  0  0  0  0  0  0  0  0  0  0
   38.1650   22.8170   35.6190 N   0  0  0  0  0  0  0  0  0  0  0  0
   37.8520   22.7070   33.2460 N   0  0  0  0  0  0  0  0  0  0  0  0
   37.3000   23.3000   32.0440 C   0  0  0  0  0  0  0  0  0  0  0  0
   36.5000   22.2280   31.3360 C   0  0  0  0  0  0  0  0  0  0  0  0
   37.2330   21.1100   31.0330 O   0  0  0  0  0  0  0  0  0  0  0  0
   38.4080   20.9540   31.7260 C   0  0  0  0  0  0  0  0  0  0  0  0
   38.3170   21.3350   33.1920 C   0  0  0  0  0  0  0  0  0  0  0  0
   38.0591   26.4865   32.7083 H   0  0  0  0  0  0  0  0  0  0  0  0
   38.2065   27.4205   30.4004 H   0  0  0  0  0  0  0  0  0  0  0  0
   36.9347   29.4785   29.8112 H   0  0  0  0  0  0  0  0  0  0  0  0
   35.5265   30.5819   31.5274 H   0  0  0  0  0  0  0  0  0  0  0  0
   36.7018   31.0515   34.8726 H   0  0  0  0  0  0  0  0  0  0  0  0
   35.3351   32.0496   36.6400 H   0  0  0  0  0  0  0  0  0  0  0  0
   32.1195   29.6395   35.4012 H   0  0  0  0  0  0  0  0  0  0  0  0
   38.4337   23.0184   37.7349 H   0  0  0  0  0  0  0  0  0  0  0  0
   38.1677   25.5006   37.6941 H   0  0  0  0  0  0  0  0  0  0  0  0
   36.6462   24.1445   32.3076 H   0  0  0  0  0  0  0  0  0  0  0  0
   38.1027   23.6783   31.3939 H   0  0  0  0  0  0  0  0  0  0  0  0
   35.6640   21.9307   31.9862 H   0  0  0  0  0  0  0  0  0  0  0  0
   36.1552   22.6571   30.3836 H   0  0  0  0  0  0  0  0  0  0  0  0
   38.7098   19.8982   31.6614 H   0  0  0  0  0  0  0  0  0  0  0  0
   39.1405   21.6337   31.2661 H   0  0  0  0  0  0  0  0  0  0  0  0
   37.6062   20.6747   33.7104 H   0  0  0  0  0  0  0  0  0  0  0  0
   39.2948   21.2325   33.6853 H   0  0  0  0  0  0  0  0  0  0  0  0
  1 13  1  0
  2  1  2  0
  3  2  1  0
  4  3  2  0
  4  5  1  0
  5  6  2  0
  6  1  1  0
  6  7  1  0
  7 12  1  0
  7  8  2  0
  8  9  1  0
  9 10  2  0
 11 10  1  0
 12 11  2  0
 13 14  1  0
 14 18  1  0
 14 15  2  0
 17 16  2  0
 18 17  1  0
 19 20  1  0
 19 18  2  0
 20 21  2  0
 21 16  1  0
 22 20  1  0
 23 22  1  0
 24 23  1  0
 25 24  1  0
 25 26  1  0
 26 27  1  0
 27 22  1  0
  2 28  1  0
  3 29  1  0
  4 30  1  0
  5 31  1  0
  8 32  1  0
  9 33  1  0
 11 34  1  0
 16 35  1  0
 17 36  1  0
 23 37  1  0
 23 38  1  0
 24 39  1  0
 24 40  1  0
 26 41  1  0
 26 42  1  0
 27 43  1  0
 27 44  1  0
M  ISO  8  28  14  29  14  30  14  31  14  32  14  33  14  34  14  35  14
M  ISO  8  36  14  37  13  38  13  39  13  40  13  41  13  42  13  43  13
M  ISO  1  44  13
M  END
>  <minimizedAffinity>  (1) 
-5.94065237

>  <minimizedRMSD>  (1) 
0.594562054

$$$$
