
     RDKit          3D

 38 41  0  0  0  0  0  0  0  0999 V2000
   36.8750   27.7180   33.4050 C   0  0  0  0  0  0  0  0  0  0  0  0
   37.6770   27.0470   32.5240 C   0  0  0  0  0  0  0  0  0  0  0  0
   37.8140   27.5050   31.2150 C   0  0  0  0  0  0  0  0  0  0  0  0
   37.1300   28.6470   30.8100 C   0  0  0  0  0  0  0  0  0  0  0  0
   36.3330   29.3040   31.7050 C   0  0  0  0  0  0  0  0  0  0  0  0
   36.1960   28.8620   32.9830 C   0  0  0  0  0  0  0  0  0  0  0  0
   35.3580   29.5230   33.9860 C   0  0  0  0  0  0  0  0  0  0  0  0
   35.8020   30.5110   34.8300 C   0  0  0  0  0  0  0  0  0  0  0  0
   35.0110   31.1330   35.7750 C   0  0  0  0  0  0  0  0  0  0  0  0
   33.7410   30.7720   35.8960 N   0  0  0  0  0  0  0  0  0  0  0  0
   33.2800   29.8090   35.0830 C   0  0  0  0  0  0  0  0  0  0  0  0
   34.0520   29.2080   34.1680 N   0  0  0  0  0  0  0  0  0  0  0  0
   36.7430   27.2620   34.7040 O   0  0  0  0  0  0  0  0  0  0  0  0
   37.7860   26.8430   35.4940 C   0  0  0  0  0  0  0  0  0  0  0  0
   38.6290   27.7350   35.7870 O   0  0  0  0  0  0  0  0  0  0  0  0
   37.9950   23.6760   37.5310 C   0  0  0  0  0  0  0  0  0  0  0  0
   37.9020   25.0390   37.2530 C   0  0  0  0  0  0  0  0  0  0  0  0
   37.8780   25.4660   35.9390 C   0  0  0  0  0  0  0  0  0  0  0  0
   37.9480   24.5120   34.9590 N   0  0  0  0  0  0  0  0  0  0  0  0
   38.0400   23.1880   35.2320 C   0  0  0  0  0  0  0  0  0  0  0  0
   38.0620   22.7780   36.5160 N   0  0  0  0  0  0  0  0  0  0  0  0
   38.1080   22.2530   34.1560 N   0  0  0  0  0  0  0  0  0  0  0  0
   36.9880   21.6880   33.6850 N   0  0  0  0  0  0  0  0  0  0  0  0
   37.3240   20.8460   32.6720 C   0  0  0  0  0  0  0  0  0  0  0  0
   38.7060   20.9410   32.5640 C   0  0  0  0  0  0  0  0  0  0  0  0
   39.2040   21.8280   33.5000 C   0  0  0  0  0  0  0  0  0  0  0  0
   38.2149   26.1442   32.8490 H   0  0  0  0  0  0  0  0  0  0  0  0
   38.4595   26.9665   30.5056 H   0  0  0  0  0  0  0  0  0  0  0  0
   37.2298   29.0176   29.7791 H   0  0  0  0  0  0  0  0  0  0  0  0
   35.7925   30.2071   31.3852 H   0  0  0  0  0  0  0  0  0  0  0  0
   36.8527   30.8262   34.7480 H   0  0  0  0  0  0  0  0  0  0  0  0
   35.4296   31.9193   36.4204 H   0  0  0  0  0  0  0  0  0  0  0  0
   32.2276   29.5013   35.1714 H   0  0  0  0  0  0  0  0  0  0  0  0
   38.0141   23.3282   38.5744 H   0  0  0  0  0  0  0  0  0  0  0  0
   37.8481   25.7693   38.0738 H   0  0  0  0  0  0  0  0  0  0  0  0
   36.6475   20.2235   32.0679 H   0  0  0  0  0  0  0  0  0  0  0  0
   39.3178   20.3881   31.8360 H   0  0  0  0  0  0  0  0  0  0  0  0
   40.2513   22.1187   33.6693 H   0  0  0  0  0  0  0  0  0  0  0  0
  1 13  1  0
  2  1  2  0
  3  2  1  0
  4  3  2  0
  4  5  1  0
  5  6  2  0
  6  1  1  0
  6  7  1  0
  7 12  1  0
  7  8  2  0
  8  9  1  0
  9 10  2  0
 11 10  1  0
 12 11  2  0
 13 14  1  0
 14 15  2  0
 14 18  1  0
 17 16  2  0
 18 17  1  0
 19 20  1  0
 19 18  2  0
 20 21  2  0
 21 16  1  0
 22 20  1  0
 23 22  1  0
 24 23  2  0
 25 24  1  0
 25 26  2  0
 26 22  1  0
  2 27  1  0
  3 28  1  0
  4 29  1  0
  5 30  1  0
  8 31  1  0
  9 32  1  0
 11 33  1  0
 16 34  1  0
 17 35  1  0
 24 36  1  0
 25 37  1  0
 26 38  1  0
M  ISO  8  27  14  28  14  29  14  30  14  31  14  32  14  33  14  34  14
M  ISO  4  35  14  36  14  37  14  38  14
M  END
>  <minimizedAffinity>  (1) 
-5.80695152

>  <minimizedRMSD>  (1) 
0.205112234

$$$$
