
     RDKit          3D

 43 45  0  0  0  0  0  0  0  0999 V2000
   36.7820   27.7480   33.4080 C   0  0  0  0  0  0  0  0  0  0  0  0
   37.5390   27.0530   32.5130 C   0  0  0  0  0  0  0  0  0  0  0  0
   37.6110   27.4760   31.1830 C   0  0  0  0  0  0  0  0  0  0  0  0
   36.9130   28.5960   30.7870 C   0  0  0  0  0  0  0  0  0  0  0  0
   36.1530   29.2870   31.6970 C   0  0  0  0  0  0  0  0  0  0  0  0
   36.0830   28.8760   32.9960 C   0  0  0  0  0  0  0  0  0  0  0  0
   35.2970   29.5610   34.0140 C   0  0  0  0  0  0  0  0  0  0  0  0
   35.7840   30.5520   34.8360 C   0  0  0  0  0  0  0  0  0  0  0  0
   35.0180   31.1890   35.7970 C   0  0  0  0  0  0  0  0  0  0  0  0
   33.7480   30.8490   35.9600 N   0  0  0  0  0  0  0  0  0  0  0  0
   33.2460   29.8840   35.1720 C   0  0  0  0  0  0  0  0  0  0  0  0
   33.9800   29.2630   34.2390 N   0  0  0  0  0  0  0  0  0  0  0  0
   36.7190   27.3220   34.7210 O   0  0  0  0  0  0  0  0  0  0  0  0
   37.7870   26.8720   35.4640 C   0  0  0  0  0  0  0  0  0  0  0  0
   38.6270   27.7500   35.7640 O   0  0  0  0  0  0  0  0  0  0  0  0
   38.0690   23.6240   37.3580 C   0  0  0  0  0  0  0  0  0  0  0  0
   37.9730   24.9940   37.1440 C   0  0  0  0  0  0  0  0  0  0  0  0
   37.8910   25.4860   35.8480 C   0  0  0  0  0  0  0  0  0  0  0  0
   37.9090   24.5650   34.8430 N   0  0  0  0  0  0  0  0  0  0  0  0
   38.0020   23.2330   35.0500 C   0  0  0  0  0  0  0  0  0  0  0  0
   38.0810   22.7730   36.3060 N   0  0  0  0  0  0  0  0  0  0  0  0
   38.0170   22.2930   33.9240 C   0  0  0  0  0  0  0  0  0  0  0  0
   39.0310   21.5840   33.7100 O   0  0  0  0  0  0  0  0  0  0  0  0
   36.9270   22.1780   33.0930 O   0  0  0  0  0  0  0  0  0  0  0  0
   36.1730   20.9970   33.0560 C   0  0  0  0  0  0  0  0  0  0  0  0
   35.0320   21.0500   32.0880 C   0  0  0  0  0  0  0  0  0  0  0  0
   35.6380   20.5850   34.4020 C   0  0  0  0  0  0  0  0  0  0  0  0
   38.0930   26.1597   32.8372 H   0  0  0  0  0  0  0  0  0  0  0  0
   38.2210   26.9184   30.4570 H   0  0  0  0  0  0  0  0  0  0  0  0
   36.9649   28.9360   29.7422 H   0  0  0  0  0  0  0  0  0  0  0  0
   35.5957   30.1796   31.3764 H   0  0  0  0  0  0  0  0  0  0  0  0
   36.8360   30.8532   34.7234 H   0  0  0  0  0  0  0  0  0  0  0  0
   35.4628   31.9758   36.4240 H   0  0  0  0  0  0  0  0  0  0  0  0
   32.1927   29.5927   35.2974 H   0  0  0  0  0  0  0  0  0  0  0  0
   38.1353   23.2312   38.3834 H   0  0  0  0  0  0  0  0  0  0  0  0
   37.9620   25.6864   37.9987 H   0  0  0  0  0  0  0  0  0  0  0  0
   36.8966   20.2423   32.7142 H   0  0  0  0  0  0  0  0  0  0  0  0
   34.0828   21.0941   32.6421 H   0  0  0  0  0  0  0  0  0  0  0  0
   35.1291   21.9446   31.4553 H   0  0  0  0  0  0  0  0  0  0  0  0
   35.0458   20.1502   31.4553 H   0  0  0  0  0  0  0  0  0  0  0  0
   36.2422   21.0503   35.1948 H   0  0  0  0  0  0  0  0  0  0  0  0
   34.5925   20.9135   34.4972 H   0  0  0  0  0  0  0  0  0  0  0  0
   35.6885   19.4903   34.4972 H   0  0  0  0  0  0  0  0  0  0  0  0
  1 13  1  0
  2  1  2  0
  3  2  1  0
  4  3  2  0
  4  5  1  0
  5  6  2  0
  6  1  1  0
  6  7  1  0
  7 12  1  0
  7  8  2  0
  8  9  1  0
  9 10  2  0
 11 10  1  0
 12 11  2  0
 13 14  1  0
 14 15  2  0
 14 18  1  0
 17 16  2  0
 18 17  1  0
 19 20  1  0
 19 18  2  0
 20 21  2  0
 21 16  1  0
 22 20  1  0
 23 22  2  0
 24 22  1  0
 25 24  1  0
 25 27  1  0
 26 25  1  0
  2 28  1  0
  3 29  1  0
  4 30  1  0
  5 31  1  0
  8 32  1  0
  9 33  1  0
 11 34  1  0
 16 35  1  0
 17 36  1  0
 25 37  1  0
 26 38  1  0
 26 39  1  0
 26 40  1  0
 27 41  1  0
 27 42  1  0
 27 43  1  0
M  ISO  8  28  14  29  14  30  14  31  14  32  14  33  14  34  14  35  14
M  ISO  8  36  14  37   8  38   8  39   8  40   8  41   8  42   8  43   8
M  END
>  <minimizedAffinity>  (1) 
-5.73829365

>  <minimizedRMSD>  (1) 
0.557238102

$$$$
