
     RDKit          3D

 37 39  0  0  0  0  0  0  0  0999 V2000
   36.8200   27.6310   33.4110 C   0  0  0  0  0  0  0  0  0  0  0  0
   37.5510   26.9020   32.5260 C   0  0  0  0  0  0  0  0  0  0  0  0
   37.6350   27.3150   31.1940 C   0  0  0  0  0  0  0  0  0  0  0  0
   36.9850   28.4520   30.7720 C   0  0  0  0  0  0  0  0  0  0  0  0
   36.2450   29.1820   31.6830 C   0  0  0  0  0  0  0  0  0  0  0  0
   36.1520   28.7920   32.9950 C   0  0  0  0  0  0  0  0  0  0  0  0
   35.3950   29.5120   33.9910 C   0  0  0  0  0  0  0  0  0  0  0  0
   35.9220   30.4720   34.8210 C   0  0  0  0  0  0  0  0  0  0  0  0
   35.1890   31.1540   35.7700 C   0  0  0  0  0  0  0  0  0  0  0  0
   33.8900   30.8870   35.9150 N   0  0  0  0  0  0  0  0  0  0  0  0
   33.3440   29.9490   35.1160 C   0  0  0  0  0  0  0  0  0  0  0  0
   34.0650   29.2900   34.1950 N   0  0  0  0  0  0  0  0  0  0  0  0
   36.7340   27.2300   34.7200 O   0  0  0  0  0  0  0  0  0  0  0  0
   37.8050   26.8350   35.4940 C   0  0  0  0  0  0  0  0  0  0  0  0
   38.6680   27.7250   35.7160 O   0  0  0  0  0  0  0  0  0  0  0  0
   38.0300   23.7530   37.6530 C   0  0  0  0  0  0  0  0  0  0  0  0
   37.9410   25.1060   37.3230 C   0  0  0  0  0  0  0  0  0  0  0  0
   37.8980   25.4840   35.9990 C   0  0  0  0  0  0  0  0  0  0  0  0
   37.9450   24.4920   35.0780 N   0  0  0  0  0  0  0  0  0  0  0  0
   38.0320   23.1750   35.3730 C   0  0  0  0  0  0  0  0  0  0  0  0
   38.0730   22.8180   36.6650 N   0  0  0  0  0  0  0  0  0  0  0  0
   38.0800   22.1480   34.3350 C   0  0  0  0  0  0  0  0  0  0  0  0
   39.1950   21.7710   33.8740 O   0  0  0  0  0  0  0  0  0  0  0  0
   36.9180   21.5850   33.8530 O   0  0  0  0  0  0  0  0  0  0  0  0
   36.8630   20.9370   32.6040 C   0  0  0  0  0  0  0  0  0  0  0  0
   38.0733   25.9922   32.8570 H   0  0  0  0  0  0  0  0  0  0  0  0
   38.2257   26.7263   30.4766 H   0  0  0  0  0  0  0  0  0  0  0  0
   37.0534   28.7759   29.7230 H   0  0  0  0  0  0  0  0  0  0  0  0
   35.7220   30.0908   31.3505 H   0  0  0  0  0  0  0  0  0  0  0  0
   36.9913   30.7107   34.7229 H   0  0  0  0  0  0  0  0  0  0  0  0
   35.6723   31.9128   36.4029 H   0  0  0  0  0  0  0  0  0  0  0  0
   32.2742   29.7161   35.2218 H   0  0  0  0  0  0  0  0  0  0  0  0
   38.0653   23.4433   38.7079 H   0  0  0  0  0  0  0  0  0  0  0  0
   37.9053   25.8671   38.1164 H   0  0  0  0  0  0  0  0  0  0  0  0
   36.7709   19.8517   32.7577 H   0  0  0  0  0  0  0  0  0  0  0  0
   35.9926   21.3025   32.0393 H   0  0  0  0  0  0  0  0  0  0  0  0
   37.7825   21.1506   32.0393 H   0  0  0  0  0  0  0  0  0  0  0  0
  1 13  1  0
  2  1  2  0
  3  2  1  0
  4  3  2  0
  4  5  1  0
  5  6  2  0
  6  1  1  0
  6  7  1  0
  7 12  1  0
  7  8  2  0
  8  9  1  0
  9 10  2  0
 11 10  1  0
 12 11  2  0
 13 14  1  0
 14 15  2  0
 14 18  1  0
 17 16  2  0
 18 17  1  0
 19 20  1  0
 19 18  2  0
 20 21  2  0
 21 16  1  0
 22 20  1  0
 23 22  2  0
 24 22  1  0
 25 24  1  0
  2 26  1  0
  3 27  1  0
  4 28  1  0
  5 29  1  0
  8 30  1  0
  9 31  1  0
 11 32  1  0
 16 33  1  0
 17 34  1  0
 25 35  1  0
 25 36  1  0
 25 37  1  0
M  ISO  8  26  14  27  14  28  14  29  14  30  14  31  14  32  14  33  14
M  ISO  4  34  14  35   8  36   8  37   8
M  END
>  <minimizedAffinity>  (1) 
-5.17286777

>  <minimizedRMSD>  (1) 
0.11076647

$$$$
