
     RDKit          3D

 41 44  0  0  0  0  0  0  0  0999 V2000
   39.3000   24.9780   34.3780 N   0  0  0  0  0  0  0  0  0  0  0  0
   40.1990   25.9690   34.4140 C   0  0  0  0  0  0  0  0  0  0  0  0
   40.5000   26.6200   33.2150 C   0  0  0  0  0  0  0  0  0  0  0  0
   39.8780   26.2340   32.0520 C   0  0  0  0  0  0  0  0  0  0  0  0
   40.1090   26.7820   30.9490 O   0  0  0  0  0  0  0  0  0  0  0  0
   38.9790   25.2330   32.0550 N   0  0  0  0  0  0  0  0  0  0  0  0
   38.7050   24.6200   33.2210 C   0  0  0  0  0  0  0  0  0  0  0  0
   37.8650   23.6830   33.2280 O   0  0  0  0  0  0  0  0  0  0  0  0
   37.9560   24.8300   36.3840 C   0  0  0  0  0  0  0  0  0  0  0  0
   39.0420   24.3650   35.6220 C   0  0  0  0  0  0  0  0  0  0  0  0
   39.7980   23.3250   36.1470 C   0  0  0  0  0  0  0  0  0  0  0  0
   39.4350   22.8190   37.3750 N   0  0  0  0  0  0  0  0  0  0  0  0
   38.4000   23.2790   38.0760 C   0  0  0  0  0  0  0  0  0  0  0  0
   37.6720   24.2820   37.5700 N   0  0  0  0  0  0  0  0  0  0  0  0
   38.2760   22.5640   39.2930 N   0  0  0  0  0  0  0  0  0  0  0  0
   41.5010   27.7500   33.1620 C   0  0  0  0  0  0  0  0  0  0  0  0
   42.8530   27.2540   32.8500 C   0  0  0  0  0  0  0  0  0  0  0  0
   43.4510   26.1600   33.4800 C   0  0  0  0  0  0  0  0  0  0  0  0
   44.7390   25.8150   33.0720 C   0  0  0  0  0  0  0  0  0  0  0  0
   45.4280   26.5000   32.0920 C   0  0  0  0  0  0  0  0  0  0  0  0
   44.7970   27.5870   31.4860 C   0  0  0  0  0  0  0  0  0  0  0  0
   45.5090   28.2550   30.5060 C   0  0  0  0  0  0  0  0  0  0  0  0
   44.9370   29.3490   29.8620 C   0  0  0  0  0  0  0  0  0  0  0  0
   43.6620   29.7270   30.2330 C   0  0  0  0  0  0  0  0  0  0  0  0
   42.9590   29.0540   31.2130 C   0  0  0  0  0  0  0  0  0  0  0  0
   43.5230   27.9530   31.8670 C   0  0  0  0  0  0  0  0  0  0  0  0
   40.6849   26.2613   35.3566 H   0  0  0  0  0  0  0  0  0  0  0  0
   38.5112   24.9426   31.1845 H   0  0  0  0  0  0  0  0  0  0  0  0
   37.3341   25.6524   36.0009 H   0  0  0  0  0  0  0  0  0  0  0  0
   40.6603   22.9180   35.5986 H   0  0  0  0  0  0  0  0  0  0  0  0
   37.5210   22.7983   39.9533 H   0  0  0  0  0  0  0  0  0  0  0  0
   38.9408   21.8100   39.5173 H   0  0  0  0  0  0  0  0  0  0  0  0
   41.1934   28.4649   32.3846 H   0  0  0  0  0  0  0  0  0  0  0  0
   41.5287   28.2356   34.1486 H   0  0  0  0  0  0  0  0  0  0  0  0
   42.9278   25.5944   34.2651 H   0  0  0  0  0  0  0  0  0  0  0  0
   45.2290   24.9562   33.5541 H   0  0  0  0  0  0  0  0  0  0  0  0
   46.4440   26.1982   31.7975 H   0  0  0  0  0  0  0  0  0  0  0  0
   46.5226   27.9234   30.2367 H   0  0  0  0  0  0  0  0  0  0  0  0
   45.4849   29.8960   29.0806 H   0  0  0  0  0  0  0  0  0  0  0  0
   43.1931   30.5880   29.7343 H   0  0  0  0  0  0  0  0  0  0  0  0
   41.9457   29.3868   31.4821 H   0  0  0  0  0  0  0  0  0  0  0  0
  1  2  1  0
  1 10  1  0
  3  2  2  0
  4  6  1  0
  4  3  1  0
  5  4  2  0
  6  7  1  0
  7  8  2  0
  7  1  1  0
  9 14  2  0
 10 11  2  0
 10  9  1  0
 11 12  1  0
 12 13  2  0
 13 15  1  0
 14 13  1  0
 16  3  1  0
 17 16  1  0
 17 18  2  0
 19 18  1  0
 20 19  2  0
 21 26  2  0
 21 20  1  0
 22 21  1  0
 23 24  1  0
 23 22  2  0
 24 25  2  0
 25 26  1  0
 26 17  1  0
  2 27  1  0
  6 28  1  0
  9 29  1  0
 11 30  1  0
 15 31  1  0
 15 32  1  0
 16 33  1  0
 16 34  1  0
 18 35  1  0
 19 36  1  0
 20 37  1  0
 22 38  1  0
 23 39  1  0
 24 40  1  0
 25 41  1  0
M  ISO  8  27  14  28   9  29  14  30  14  33   8  34   8  35  14  36  14
M  ISO  5  37  14  38  14  39  14  40  14  41  14
M  END
>  <minimizedAffinity>  (1) 
-4.79511833

>  <minimizedRMSD>  (1) 
1.46229136

$$$$
