
     RDKit          3D

 25 27  0  0  0  0  0  0  0  0999 V2000
   37.7760   23.9320   33.5640 C   0  0  0  0  0  0  0  0  0  0  0  0
   38.2910   22.8480   34.1730 N   0  0  0  0  0  0  0  0  0  0  0  0
   38.8330   22.9390   35.3990 C   0  0  0  0  0  0  0  0  0  0  0  0
   38.8600   24.1490   36.0330 N   0  0  0  0  0  0  0  0  0  0  0  0
   38.3500   25.2470   35.4400 C   0  0  0  0  0  0  0  0  0  0  0  0
   38.3870   26.4720   36.1030 C   0  0  0  0  0  0  0  0  0  0  0  0
   37.8590   27.6170   35.4950 C   0  0  0  0  0  0  0  0  0  0  0  0
   37.3120   27.4770   34.2360 C   0  0  0  0  0  0  0  0  0  0  0  0
   37.2460   26.3000   33.5320 C   0  0  0  0  0  0  0  0  0  0  0  0
   37.7760   25.1960   34.1640 C   0  0  0  0  0  0  0  0  0  0  0  0
   37.0600   23.7510   31.9180 S   0  0  0  0  0  0  0  0  0  0  0  0
   36.4120   22.0910   31.7100 C   0  0  0  0  0  0  0  0  0  0  0  0
   35.2270   21.6590   32.3770 C   0  0  0  0  0  0  0  0  0  0  0  0
   34.8300   20.3370   32.1270 C   0  0  0  0  0  0  0  0  0  0  0  0
   35.5670   19.5720   31.2960 N   0  0  0  0  0  0  0  0  0  0  0  0
   36.6820   20.0280   30.6890 C   0  0  0  0  0  0  0  0  0  0  0  0
   37.0980   21.2890   30.9020 N   0  0  0  0  0  0  0  0  0  0  0  0
   39.2514   22.0470   35.8881 H   0  0  0  0  0  0  0  0  0  0  0  0
   38.8322   26.5395   37.1066 H   0  0  0  0  0  0  0  0  0  0  0  0
   37.8794   28.5928   36.0024 H   0  0  0  0  0  0  0  0  0  0  0  0
   36.8969   28.3775   33.7597 H   0  0  0  0  0  0  0  0  0  0  0  0
   36.7990   26.2420   32.5286 H   0  0  0  0  0  0  0  0  0  0  0  0
   34.6594   22.3221   33.0464 H   0  0  0  0  0  0  0  0  0  0  0  0
   33.9268   19.9285   32.6039 H   0  0  0  0  0  0  0  0  0  0  0  0
   37.2518   19.3675   30.0189 H   0  0  0  0  0  0  0  0  0  0  0  0
  1 10  1  0
  1  2  2  0
  2  3  1  0
  3  4  2  0
  5  4  1  0
  5  6  2  0
  7  6  1  0
  8  7  2  0
  9 10  2  0
  9  8  1  0
 10  5  1  0
 11  1  1  0
 12 11  1  0
 12 13  2  0
 14 13  1  0
 15 14  2  0
 16 17  2  0
 16 15  1  0
 17 12  1  0
  3 18  1  0
  6 19  1  0
  7 20  1  0
  8 21  1  0
  9 22  1  0
 13 23  1  0
 14 24  1  0
 16 25  1  0
M  ISO  8  18  14  19  14  20  14  21  14  22  14  23  14  24  14  25  14
M  END
>  <minimizedAffinity>  (1) 
-4.61858606

>  <minimizedRMSD>  (1) 
4.09541273

$$$$
