
     RDKit          3D

 23 24  0  0  1  0  0  0  0  0999 V2000
   37.9660   22.6170   33.9430 C   0  0  0  0  0  0  0  0  0  0  0  0
   37.0940   21.5260   33.7340 C   0  0  0  0  0  0  0  0  0  0  0  0
   36.1610   21.6490   32.7260 C   0  0  0  0  0  0  0  0  0  0  0  0
   36.1200   22.7940   31.9880 N   0  0  0  0  0  0  0  0  0  0  0  0
   36.9710   23.8210   32.2160 C   0  0  0  0  0  0  0  0  0  0  0  0
   37.8930   23.7360   33.1890 N   0  0  0  0  0  0  0  0  0  0  0  0
   39.2430   22.6710   35.1950 S   0  0  0  0  0  0  0  0  0  0  0  0
   39.1710   22.4910   37.9080 N   0  0  0  0  0  0  0  0  0  0  0  0
   39.0160   23.5360   38.8960 C   0  0  0  0  0  0  0  0  0  0  0  0
   37.8630   24.4160   38.4380 C   0  0  0  0  0  0  0  0  0  0  0  0
   37.9240   24.2720   36.9290 C   0  0  0  0  0  0  0  0  0  0  0  0
   38.3530   22.8580   36.7790 C   0  0  1  0  0  0  0  0  0  0  0  0
   37.1564   20.6164   34.3494 H   0  0  0  0  0  0  0  0  0  0  0  0
   35.4561   20.8302   32.5194 H   0  0  0  0  0  0  0  0  0  0  0  0
   36.9074   24.7308   31.6009 H   0  0  0  0  0  0  0  0  0  0  0  0
   40.1577   22.4177   37.6217 H   0  0  0  0  0  0  0  0  0  0  0  0
   38.7881   23.0961   39.8781 H   0  0  0  0  0  0  0  0  0  0  0  0
   39.9414   24.1225   38.9945 H   0  0  0  0  0  0  0  0  0  0  0  0
   36.9032   24.0528   38.8341 H   0  0  0  0  0  0  0  0  0  0  0  0
   37.9401   25.4573   38.7840 H   0  0  0  0  0  0  0  0  0  0  0  0
   36.9393   24.4432   36.4697 H   0  0  0  0  0  0  0  0  0  0  0  0
   38.5911   24.9957   36.4378 H   0  0  0  0  0  0  0  0  0  0  0  0
   37.4845   22.1832   36.7599 H   0  0  0  0  0  0  0  0  0  0  0  0
  1  7  1  0
  2  1  2  0
  3  2  1  0
  4  5  1  0
  4  3  2  0
  5  6  2  0
  6  1  1  0
  8  9  1  0
 10  9  1  0
 11 10  1  0
 12  7  1  0
 12 11  1  0
 12  8  1  0
  2 13  1  0
  3 14  1  0
  5 15  1  0
  8 16  1  0
  9 17  1  0
  9 18  1  0
 10 19  1  0
 10 20  1  0
 11 21  1  0
 11 22  1  0
 12 23  1  6
M  ISO  8  13  14  14  14  15  14  16   5  17  13  18  13  19  13  20  13
M  ISO  3  21  13  22  13  23  13
M  END
>  <minimizedAffinity>  (1) 
-3.59881043

>  <minimizedRMSD>  (1) 
2.48451471

$$$$
