
     RDKit          3D

 27 28  0  0  0  0  0  0  0  0999 V2000
   39.2890   25.2410   34.4330 N   0  0  0  0  0  0  0  0  0  0  0  0
   40.3920   26.0230   34.4300 C   0  0  0  0  0  0  0  0  0  0  0  0
   40.6980   26.7400   33.2700 C   0  0  0  0  0  0  0  0  0  0  0  0
   39.8730   26.6300   32.1760 C   0  0  0  0  0  0  0  0  0  0  0  0
   40.0810   27.2430   31.0960 O   0  0  0  0  0  0  0  0  0  0  0  0
   38.7750   25.8360   32.2130 N   0  0  0  0  0  0  0  0  0  0  0  0
   38.5080   25.1600   33.3420 C   0  0  0  0  0  0  0  0  0  0  0  0
   37.5020   24.4290   33.3870 O   0  0  0  0  0  0  0  0  0  0  0  0
   38.1820   25.1170   36.5580 C   0  0  0  0  0  0  0  0  0  0  0  0
   39.0620   24.5590   35.6380 C   0  0  0  0  0  0  0  0  0  0  0  0
   39.6690   23.3450   35.9750 C   0  0  0  0  0  0  0  0  0  0  0  0
   39.3570   22.7850   37.1920 N   0  0  0  0  0  0  0  0  0  0  0  0
   38.5010   23.3600   38.0460 C   0  0  0  0  0  0  0  0  0  0  0  0
   37.9200   24.5180   37.7300 N   0  0  0  0  0  0  0  0  0  0  0  0
   38.3630   22.5770   39.2230 N   0  0  0  0  0  0  0  0  0  0  0  0
   41.8960   27.6370   33.1600 C   0  0  0  0  0  0  0  0  0  0  0  0
   42.8690   27.3750   34.1760 N   0  0  0  0  0  0  0  0  0  0  0  0
   41.0340   26.0933   35.3204 H   0  0  0  0  0  0  0  0  0  0  0  0
   38.1583   25.7530   31.3922 H   0  0  0  0  0  0  0  0  0  0  0  0
   37.6892   26.0712   36.3200 H   0  0  0  0  0  0  0  0  0  0  0  0
   40.3739   22.8534   35.2884 H   0  0  0  0  0  0  0  0  0  0  0  0
   37.7360   22.8888   39.9784 H   0  0  0  0  0  0  0  0  0  0  0  0
   38.8899   21.6974   39.3211 H   0  0  0  0  0  0  0  0  0  0  0  0
   42.3629   27.4837   32.1759 H   0  0  0  0  0  0  0  0  0  0  0  0
   41.5511   28.6740   33.2855 H   0  0  0  0  0  0  0  0  0  0  0  0
   42.4367   27.4914   35.1036 H   0  0  0  0  0  0  0  0  0  0  0  0
   43.2167   26.4104   34.0779 H   0  0  0  0  0  0  0  0  0  0  0  0
  1 10  1  0
  2  1  1  0
  3  2  2  0
  4  6  1  0
  4  3  1  0
  5  4  2  0
  6  7  1  0
  7  8  2  0
  7  1  1  0
  9 14  2  0
 10 11  2  0
 10  9  1  0
 11 12  1  0
 12 13  2  0
 13 15  1  0
 14 13  1  0
 16  3  1  0
 16 17  1  0
  2 18  1  0
  6 19  1  0
  9 20  1  0
 11 21  1  0
 15 22  1  0
 15 23  1  0
 16 24  1  0
 16 25  1  0
 17 26  1  0
 17 27  1  0
M  ISO  8  18  14  19   9  20  14  21  14  24   8  25   8  26   5  27   5
M  END
>  <minimizedAffinity>  (1) 
-4.61056995

>  <minimizedRMSD>  (1) 
0.216891333

$$$$
