
     RDKit          3D

 23 23  0  0  0  0  0  0  0  0999 V2000
   37.9470   22.6360   34.3780 C   0  0  0  0  0  0  0  0  0  0  0  0
   38.1540   24.0190   34.2070 C   0  0  0  0  0  0  0  0  0  0  0  0
   38.1130   24.8350   35.3230 C   0  0  0  0  0  0  0  0  0  0  0  0
   37.8760   24.2730   36.5400 N   0  0  0  0  0  0  0  0  0  0  0  0
   37.6820   22.9460   36.6740 C   0  0  0  0  0  0  0  0  0  0  0  0
   37.7160   22.1290   35.6030 N   0  0  0  0  0  0  0  0  0  0  0  0
   37.9630   21.4410   33.0640 S   0  0  0  0  0  0  0  0  0  0  0  0
   36.3440   21.1460   32.3320 C   0  0  0  0  0  0  0  0  0  0  0  0
   35.7260   22.4720   31.9500 C   0  0  0  0  0  0  0  0  0  0  0  0
   36.3720   20.1710   31.2070 C   0  0  0  0  0  0  0  0  0  0  0  0
   35.5050   20.5150   33.4520 C   0  0  0  0  0  0  0  0  0  0  0  0
   38.3439   24.4402   33.2087 H   0  0  0  0  0  0  0  0  0  0  0  0
   38.2693   25.9198   35.2288 H   0  0  0  0  0  0  0  0  0  0  0  0
   37.4932   22.5238   37.6721 H   0  0  0  0  0  0  0  0  0  0  0  0
   35.4654   23.0310   32.8608 H   0  0  0  0  0  0  0  0  0  0  0  0
   36.4455   23.0542   31.3556 H   0  0  0  0  0  0  0  0  0  0  0  0
   34.8174   22.2954   31.3556 H   0  0  0  0  0  0  0  0  0  0  0  0
   36.4014   19.1476   31.6093 H   0  0  0  0  0  0  0  0  0  0  0  0
   35.4699   20.2967   30.5903 H   0  0  0  0  0  0  0  0  0  0  0  0
   37.2654   20.3483   30.5903 H   0  0  0  0  0  0  0  0  0  0  0  0
   35.9093   20.8191   34.4288 H   0  0  0  0  0  0  0  0  0  0  0  0
   34.4624   20.8547   33.3649 H   0  0  0  0  0  0  0  0  0  0  0  0
   35.5421   19.4191   33.3649 H   0  0  0  0  0  0  0  0  0  0  0  0
  1  6  2  0
  2  1  1  0
  2  3  2  0
  3  4  1  0
  4  5  2  0
  6  5  1  0
  7  1  1  0
  8  7  1  0
  8 11  1  0
  9  8  1  0
 10  8  1  0
  2 12  1  0
  3 13  1  0
  5 14  1  0
  9 15  1  0
  9 16  1  0
  9 17  1  0
 10 18  1  0
 10 19  1  0
 10 20  1  0
 11 21  1  0
 11 22  1  0
 11 23  1  0
M  ISO  8  12  14  13  14  14  14  15   8  16   8  17   8  18   8  19   8
M  ISO  4  20   8  21   8  22   8  23   8
M  END
>  <minimizedAffinity>  (1) 
-3.09256768

>  <minimizedRMSD>  (1) 
4.94510889

$$$$
