
     RDKit          3D

 17 17  0  0  0  0  0  0  0  0999 V2000
   38.2840   22.5610   36.0940 C   0  0  0  0  0  0  0  0  0  0  0  0
   37.4190   23.1920   37.0220 C   0  0  0  0  0  0  0  0  0  0  0  0
   37.9420   23.5340   38.2620 C   0  0  0  0  0  0  0  0  0  0  0  0
   39.2400   23.2530   38.5320 N   0  0  0  0  0  0  0  0  0  0  0  0
   40.0410   22.6450   37.6140 C   0  0  0  0  0  0  0  0  0  0  0  0
   39.5630   22.3010   36.4020 N   0  0  0  0  0  0  0  0  0  0  0  0
   37.7760   22.0570   34.4560 S   0  0  0  0  0  0  0  0  0  0  0  0
   37.8160   23.4150   33.2770 C   0  0  0  0  0  0  0  0  0  0  0  0
   36.8050   23.1690   32.1510 C   0  0  0  0  0  0  0  0  0  0  0  0
   36.3696   23.4036   36.7689 H   0  0  0  0  0  0  0  0  0  0  0  0
   37.3106   24.0269   39.0159 H   0  0  0  0  0  0  0  0  0  0  0  0
   41.0907   22.4321   37.8647 H   0  0  0  0  0  0  0  0  0  0  0  0
   37.5631   24.3525   33.7939 H   0  0  0  0  0  0  0  0  0  0  0  0
   38.8249   23.4849   32.8443 H   0  0  0  0  0  0  0  0  0  0  0  0
   35.8231   22.9301   32.5856 H   0  0  0  0  0  0  0  0  0  0  0  0
   36.7209   24.0729   31.5298 H   0  0  0  0  0  0  0  0  0  0  0  0
   37.1456   22.3275   31.5298 H   0  0  0  0  0  0  0  0  0  0  0  0
  1  6  2  0
  1  2  1  0
  2  3  2  0
  3  4  1  0
  5  4  2  0
  6  5  1  0
  7  1  1  0
  8  7  1  0
  9  8  1  0
  2 10  1  0
  3 11  1  0
  5 12  1  0
  8 13  1  0
  8 14  1  0
  9 15  1  0
  9 16  1  0
  9 17  1  0
M  ISO  8  10  14  11  14  12  14  13   8  14   8  15   8  16   8  17   8
M  END
>  <minimizedAffinity>  (1) 
-2.79247212

>  <minimizedRMSD>  (1) 
4.97946262

$$$$
