
     RDKit          3D

 14 14  0  0  0  0  0  0  0  0999 V2000
   37.4320   21.9350   34.9250 C   0  0  0  0  0  0  0  0  0  0  0  0
   36.3760   21.0620   35.2920 C   0  0  0  0  0  0  0  0  0  0  0  0
   35.5560   20.5750   34.2880 C   0  0  0  0  0  0  0  0  0  0  0  0
   35.8030   20.9580   33.0020 N   0  0  0  0  0  0  0  0  0  0  0  0
   36.8170   21.7920   32.6820 C   0  0  0  0  0  0  0  0  0  0  0  0
   37.6330   22.2820   33.6400 N   0  0  0  0  0  0  0  0  0  0  0  0
   38.5740   22.6490   36.0930 S   0  0  0  0  0  0  0  0  0  0  0  0
   37.6490   23.6790   37.2860 C   0  0  0  0  0  0  0  0  0  0  0  0
   36.2133   20.7802   36.3428 H   0  0  0  0  0  0  0  0  0  0  0  0
   34.7240   19.8945   34.5221 H   0  0  0  0  0  0  0  0  0  0  0  0
   36.9793   22.0744   31.6313 H   0  0  0  0  0  0  0  0  0  0  0  0
   37.9158   23.3819   38.3110 H   0  0  0  0  0  0  0  0  0  0  0  0
   37.9055   24.7376   37.1325 H   0  0  0  0  0  0  0  0  0  0  0  0
   36.5690   23.5374   37.1325 H   0  0  0  0  0  0  0  0  0  0  0  0
  1  2  2  0
  1  7  1  0
  3  2  1  0
  4  3  2  0
  5  4  1  0
  5  6  2  0
  6  1  1  0
  7  8  1  0
  2  9  1  0
  3 10  1  0
  5 11  1  0
  8 12  1  0
  8 13  1  0
  8 14  1  0
M  ISO  6   9  14  10  14  11  14  12   8  13   8  14   8
M  END
>  <minimizedAffinity>  (1) 
-2.23589778

>  <minimizedRMSD>  (1) 
0.864797235

$$$$
