
     RDKit          3D

 40 43  0  0  0  0  0  0  0  0999 V2000
   42.7890   23.5110   35.5450 C   0  0  0  0  0  0  0  0  0  0  0  0
   42.0630   22.7450   36.4600 C   0  0  0  0  0  0  0  0  0  0  0  0
   40.6890   22.7830   36.4910 C   0  0  0  0  0  0  0  0  0  0  0  0
   39.9950   23.5850   35.6110 C   0  0  0  0  0  0  0  0  0  0  0  0
   40.6740   24.3510   34.6980 C   0  0  0  0  0  0  0  0  0  0  0  0
   42.0560   24.3040   34.6780 C   0  0  0  0  0  0  0  0  0  0  0  0
   44.5260   23.4110   35.5100 S   0  0  0  0  0  0  0  0  0  0  0  0
   44.9320   21.9830   35.5470 O   0  0  0  0  0  0  0  0  0  0  0  0
   44.9860   24.0380   34.2000 O   0  0  0  0  0  0  0  0  0  0  0  0
   45.2510   24.2400   36.8570 C   0  0  0  0  0  0  0  0  0  0  0  0
   44.5240   25.2070   37.5680 C   0  0  0  0  0  0  0  0  0  0  0  0
   44.9870   25.9280   38.6350 C   0  0  0  0  0  0  0  0  0  0  0  0
   46.2790   25.6930   39.0560 C   0  0  0  0  0  0  0  0  0  0  0  0
   47.0450   24.7550   38.3990 C   0  0  0  0  0  0  0  0  0  0  0  0
   48.3470   24.5200   38.8310 C   0  0  0  0  0  0  0  0  0  0  0  0
   49.1160   23.5790   38.1760 C   0  0  0  0  0  0  0  0  0  0  0  0
   48.6070   22.8620   37.0930 C   0  0  0  0  0  0  0  0  0  0  0  0
   47.3110   23.1480   36.7210 C   0  0  0  0  0  0  0  0  0  0  0  0
   46.5100   24.0700   37.3350 C   0  0  0  0  0  0  0  0  0  0  0  0
   38.2190   23.7550   35.5200 S   0  0  0  0  0  0  0  0  0  0  0  0
   37.7240   23.1240   33.9330 C   0  0  0  0  0  0  0  0  0  0  0  0
   37.6140   21.7260   33.6500 C   0  0  0  0  0  0  0  0  0  0  0  0
   37.2170   21.3840   32.3720 C   0  0  0  0  0  0  0  0  0  0  0  0
   36.9540   22.3470   31.4610 N   0  0  0  0  0  0  0  0  0  0  0  0
   37.0720   23.6630   31.7700 C   0  0  0  0  0  0  0  0  0  0  0  0
   37.4540   24.0280   32.9970 N   0  0  0  0  0  0  0  0  0  0  0  0
   42.6009   22.0989   37.1694 H   0  0  0  0  0  0  0  0  0  0  0  0
   40.1409   22.1702   37.2218 H   0  0  0  0  0  0  0  0  0  0  0  0
   40.1272   24.9933   33.9920 H   0  0  0  0  0  0  0  0  0  0  0  0
   42.5946   24.9213   33.9440 H   0  0  0  0  0  0  0  0  0  0  0  0
   43.4926   25.4024   37.2392 H   0  0  0  0  0  0  0  0  0  0  0  0
   44.3504   26.6697   39.1396 H   0  0  0  0  0  0  0  0  0  0  0  0
   46.6944   26.2496   39.9090 H   0  0  0  0  0  0  0  0  0  0  0  0
   48.7588   25.0779   39.6849 H   0  0  0  0  0  0  0  0  0  0  0  0
   50.1461   23.3917   38.5133 H   0  0  0  0  0  0  0  0  0  0  0  0
   49.2083   22.1081   36.5638 H   0  0  0  0  0  0  0  0  0  0  0  0
   46.8909   22.5943   35.8684 H   0  0  0  0  0  0  0  0  0  0  0  0
   37.8342   20.9628   34.4109 H   0  0  0  0  0  0  0  0  0  0  0  0
   37.1146   20.3244   32.0948 H   0  0  0  0  0  0  0  0  0  0  0  0
   36.8533   24.4285   31.0109 H   0  0  0  0  0  0  0  0  0  0  0  0
  1  2  2  0
  2  3  1  0
  4  3  2  0
  5  4  1  0
  6  5  2  0
  6  1  1  0
  7  1  1  0
  7  8  2  0
  7 10  1  0
  9  7  2  0
 10 19  1  0
 10 11  2  0
 11 12  1  0
 12 13  2  0
 14 15  2  0
 14 13  1  0
 16 15  1  0
 17 16  2  0
 18 17  1  0
 18 19  2  0
 19 14  1  0
 20  4  1  0
 21 20  1  0
 22 21  2  0
 23 22  1  0
 24 25  1  0
 24 23  2  0
 25 26  2  0
 26 21  1  0
  2 27  1  0
  3 28  1  0
  5 29  1  0
  6 30  1  0
 11 31  1  0
 12 32  1  0
 13 33  1  0
 15 34  1  0
 16 35  1  0
 17 36  1  0
 18 37  1  0
 22 38  1  0
 23 39  1  0
 25 40  1  0
M  ISO  8  27  14  28  14  29  14  30  14  31  14  32  14  33  14  34  14
M  ISO  6  35  14  36  14  37  14  38  14  39  14  40  14
M  END
>  <minimizedAffinity>  (1) 
-5.53048611

>  <minimizedRMSD>  (1) 
1.23643303

$$$$
