
     RDKit          3D

 38 41  0  0  0  0  0  0  0  0999 V2000
   42.7610   24.0100   35.2950 C   0  0  0  0  0  0  0  0  0  0  0  0
   41.9520   23.2130   36.0800 C   0  0  0  0  0  0  0  0  0  0  0  0
   40.5840   23.3000   36.0140 C   0  0  0  0  0  0  0  0  0  0  0  0
   39.9810   24.1930   35.1510 C   0  0  0  0  0  0  0  0  0  0  0  0
   40.7510   25.0060   34.3470 C   0  0  0  0  0  0  0  0  0  0  0  0
   42.1190   24.8950   34.4380 C   0  0  0  0  0  0  0  0  0  0  0  0
   44.4960   23.8840   35.3660 S   0  0  0  0  0  0  0  0  0  0  0  0
   44.8550   22.4320   35.3140 O   0  0  0  0  0  0  0  0  0  0  0  0
   45.0750   24.5870   34.1570 O   0  0  0  0  0  0  0  0  0  0  0  0
   45.1540   24.5320   36.8410 C   0  0  0  0  0  0  0  0  0  0  0  0
   44.3860   25.4160   37.5460 N   0  0  0  0  0  0  0  0  0  0  0  0
   44.8510   25.9430   38.6860 C   0  0  0  0  0  0  0  0  0  0  0  0
   46.0630   25.6880   39.2510 N   0  0  0  0  0  0  0  0  0  0  0  0
   46.8300   24.8190   38.5640 C   0  0  0  0  0  0  0  0  0  0  0  0
   48.1040   24.4770   39.0330 C   0  0  0  0  0  0  0  0  0  0  0  0
   48.9440   23.5880   38.3530 C   0  0  0  0  0  0  0  0  0  0  0  0
   48.4420   23.0470   37.1640 C   0  0  0  0  0  0  0  0  0  0  0  0
   47.2000   23.4020   36.7420 C   0  0  0  0  0  0  0  0  0  0  0  0
   46.3700   24.2650   37.3920 C   0  0  0  0  0  0  0  0  0  0  0  0
   38.2200   24.4170   34.9620 S   0  0  0  0  0  0  0  0  0  0  0  0
   37.7450   23.5030   33.5040 C   0  0  0  0  0  0  0  0  0  0  0  0
   37.9880   22.1110   33.3720 C   0  0  0  0  0  0  0  0  0  0  0  0
   37.5770   21.5120   32.1980 C   0  0  0  0  0  0  0  0  0  0  0  0
   36.9770   22.2550   31.2460 N   0  0  0  0  0  0  0  0  0  0  0  0
   36.7620   23.5810   31.4050 C   0  0  0  0  0  0  0  0  0  0  0  0
   37.1450   24.2040   32.5340 N   0  0  0  0  0  0  0  0  0  0  0  0
   42.4133   22.4935   36.7725 H   0  0  0  0  0  0  0  0  0  0  0  0
   39.9639   22.6540   36.6529 H   0  0  0  0  0  0  0  0  0  0  0  0
   40.2855   25.7219   33.6536 H   0  0  0  0  0  0  0  0  0  0  0  0
   42.7376   25.5414   33.7981 H   0  0  0  0  0  0  0  0  0  0  0  0
   44.1923   26.6474   39.2150 H   0  0  0  0  0  0  0  0  0  0  0  0
   48.4587   24.9247   39.9731 H   0  0  0  0  0  0  0  0  0  0  0  0
   49.9435   23.3288   38.7321 H   0  0  0  0  0  0  0  0  0  0  0  0
   49.0472   22.3409   36.5764 H   0  0  0  0  0  0  0  0  0  0  0  0
   46.8368   22.9584   35.8032 H   0  0  0  0  0  0  0  0  0  0  0  0
   38.4815   21.5354   34.1690 H   0  0  0  0  0  0  0  0  0  0  0  0
   37.7380   20.4353   32.0402 H   0  0  0  0  0  0  0  0  0  0  0  0
   36.2703   24.1541   30.6051 H   0  0  0  0  0  0  0  0  0  0  0  0
  1  7  1  0
  1  2  2  0
  3  2  1  0
  4  3  2  0
  5  6  2  0
  5  4  1  0
  6  1  1  0
  7 10  1  0
  8  7  2  0
  9  7  2  0
 10 19  1  0
 10 11  2  0
 11 12  1  0
 12 13  2  0
 14 15  2  0
 14 13  1  0
 16 15  1  0
 17 16  2  0
 18 17  1  0
 18 19  2  0
 19 14  1  0
 20  4  1  0
 21 20  1  0
 22 21  2  0
 23 22  1  0
 24 25  1  0
 24 23  2  0
 25 26  2  0
 26 21  1  0
  2 27  1  0
  3 28  1  0
  5 29  1  0
  6 30  1  0
 12 31  1  0
 15 32  1  0
 16 33  1  0
 17 34  1  0
 18 35  1  0
 22 36  1  0
 23 37  1  0
 25 38  1  0
M  ISO  8  27  14  28  14  29  14  30  14  31  14  32  14  33  14  34  14
M  ISO  4  35  14  36  14  37  14  38  14
M  END
>  <minimizedAffinity>  (1) 
-5.02180576

>  <minimizedRMSD>  (1) 
1.41129231

$$$$
