
     RDKit          3D

 33 35  0  0  0  0  0  0  0  0999 V2000
   42.7860   24.0460   35.4810 C   0  0  0  0  0  0  0  0  0  0  0  0
   42.0390   23.0880   36.1660 C   0  0  0  0  0  0  0  0  0  0  0  0
   40.6710   23.1840   36.2340 C   0  0  0  0  0  0  0  0  0  0  0  0
   40.0060   24.2270   35.6290 C   0  0  0  0  0  0  0  0  0  0  0  0
   40.7080   25.1850   34.9500 C   0  0  0  0  0  0  0  0  0  0  0  0
   42.0860   25.0830   34.8830 C   0  0  0  0  0  0  0  0  0  0  0  0
   44.5110   23.8940   35.3610 S   0  0  0  0  0  0  0  0  0  0  0  0
   44.8800   22.4700   35.2060 O   0  0  0  0  0  0  0  0  0  0  0  0
   44.9710   24.7100   34.1660 O   0  0  0  0  0  0  0  0  0  0  0  0
   45.2200   24.5410   36.8250 C   0  0  0  0  0  0  0  0  0  0  0  0
   44.4900   25.3980   37.6210 C   0  0  0  0  0  0  0  0  0  0  0  0
   44.9840   25.9510   38.7940 C   0  0  0  0  0  0  0  0  0  0  0  0
   46.2690   25.5770   39.1080 C   0  0  0  0  0  0  0  0  0  0  0  0
   47.0060   24.7210   38.3180 C   0  0  0  0  0  0  0  0  0  0  0  0
   46.4760   24.2040   37.1730 N   0  0  0  0  0  0  0  0  0  0  0  0
   38.2350   24.4760   35.6390 S   0  0  0  0  0  0  0  0  0  0  0  0
   37.7600   24.8190   33.9560 C   0  0  0  0  0  0  0  0  0  0  0  0
   37.9090   23.8740   32.9060 C   0  0  0  0  0  0  0  0  0  0  0  0
   37.5030   24.2680   31.6490 C   0  0  0  0  0  0  0  0  0  0  0  0
   36.9900   25.5030   31.4600 N   0  0  0  0  0  0  0  0  0  0  0  0
   36.8600   26.3800   32.4820 C   0  0  0  0  0  0  0  0  0  0  0  0
   37.2470   26.0260   33.7160 N   0  0  0  0  0  0  0  0  0  0  0  0
   42.5509   22.2471   36.6567 H   0  0  0  0  0  0  0  0  0  0  0  0
   40.0992   22.4182   36.7786 H   0  0  0  0  0  0  0  0  0  0  0  0
   40.1853   26.0227   34.4652 H   0  0  0  0  0  0  0  0  0  0  0  0
   42.6477   25.8536   34.3346 H   0  0  0  0  0  0  0  0  0  0  0  0
   43.4665   25.6559   37.3113 H   0  0  0  0  0  0  0  0  0  0  0  0
   44.3942   26.6343   39.4226 H   0  0  0  0  0  0  0  0  0  0  0  0
   46.7268   25.9762   40.0251 H   0  0  0  0  0  0  0  0  0  0  0  0
   48.0309   24.4526   38.6139 H   0  0  0  0  0  0  0  0  0  0  0  0
   38.3291   22.8737   33.0876 H   0  0  0  0  0  0  0  0  0  0  0  0
   37.5969   23.5760   30.7991 H   0  0  0  0  0  0  0  0  0  0  0  0
   36.4384   27.3798   32.3012 H   0  0  0  0  0  0  0  0  0  0  0  0
  1  2  2  0
  2  3  1  0
  4 16  1  0
  4  3  2  0
  5  4  1  0
  6  5  2  0
  6  1  1  0
  7  1  1  0
  7 10  1  0
  8  7  2  0
  9  7  2  0
 10 15  1  0
 10 11  2  0
 11 12  1  0
 12 13  2  0
 14 13  1  0
 15 14  2  0
 17 16  1  0
 18 17  2  0
 19 18  1  0
 20 19  2  0
 20 21  1  0
 21 22  2  0
 22 17  1  0
  2 23  1  0
  3 24  1  0
  5 25  1  0
  6 26  1  0
 11 27  1  0
 12 28  1  0
 13 29  1  0
 14 30  1  0
 18 31  1  0
 19 32  1  0
 21 33  1  0
M  ISO  8  23  14  24  14  25  14  26  14  27  14  28  14  29  14  30  14
M  ISO  3  31  14  32  14  33  14
M  END
>  <minimizedAffinity>  (1) 
-4.86927414

>  <minimizedRMSD>  (1) 
1.79597294

$$$$
