
     RDKit          3D

 35 38  0  0  0  0  0  0  0  0999 V2000
   42.7750   23.3910   35.7510 C   0  0  0  0  0  0  0  0  0  0  0  0
   42.0110   22.6250   36.6320 C   0  0  0  0  0  0  0  0  0  0  0  0
   40.6400   22.6970   36.6210 C   0  0  0  0  0  0  0  0  0  0  0  0
   39.9910   23.5390   35.7300 C   0  0  0  0  0  0  0  0  0  0  0  0
   40.7140   24.3030   34.8530 C   0  0  0  0  0  0  0  0  0  0  0  0
   42.0940   24.2200   34.8750 C   0  0  0  0  0  0  0  0  0  0  0  0
   44.5090   23.2710   35.7630 S   0  0  0  0  0  0  0  0  0  0  0  0
   44.9070   21.8480   35.8540 O   0  0  0  0  0  0  0  0  0  0  0  0
   45.0300   23.8900   34.4740 O   0  0  0  0  0  0  0  0  0  0  0  0
   48.3250   24.5530   38.5440 N   0  0  0  0  0  0  0  0  0  0  0  0
   48.5410   23.5710   37.6520 C   0  0  0  0  0  0  0  0  0  0  0  0
   47.4060   23.3380   36.9720 N   0  0  0  0  0  0  0  0  0  0  0  0
   46.4790   24.1970   37.4620 C   0  0  0  0  0  0  0  0  0  0  0  0
   45.1540   24.2920   37.0320 C   0  0  0  0  0  0  0  0  0  0  0  0
   44.4150   25.2190   37.6620 N   0  0  0  0  0  0  0  0  0  0  0  0
   44.9440   26.0000   38.6490 C   0  0  0  0  0  0  0  0  0  0  0  0
   46.2270   25.8900   39.0460 N   0  0  0  0  0  0  0  0  0  0  0  0
   47.0310   24.9690   38.4470 C   0  0  0  0  0  0  0  0  0  0  0  0
   38.2230   23.7440   35.5940 S   0  0  0  0  0  0  0  0  0  0  0  0
   37.7620   23.1360   33.9900 C   0  0  0  0  0  0  0  0  0  0  0  0
   37.6510   21.7510   33.6900 C   0  0  0  0  0  0  0  0  0  0  0  0
   37.2810   21.4020   32.4050 C   0  0  0  0  0  0  0  0  0  0  0  0
   37.0430   22.3720   31.4970 N   0  0  0  0  0  0  0  0  0  0  0  0
   37.1560   23.6850   31.8160 C   0  0  0  0  0  0  0  0  0  0  0  0
   37.5140   24.0700   33.0520 N   0  0  0  0  0  0  0  0  0  0  0  0
   42.5137   21.9546   37.3447 H   0  0  0  0  0  0  0  0  0  0  0  0
   40.0538   22.0844   37.3217 H   0  0  0  0  0  0  0  0  0  0  0  0
   40.2053   24.9716   34.1429 H   0  0  0  0  0  0  0  0  0  0  0  0
   42.6727   24.8354   34.1704 H   0  0  0  0  0  0  0  0  0  0  0  0
   49.0261   24.9310   39.1970 H   0  0  0  0  0  0  0  0  0  0  0  0
   49.4943   23.0428   37.5027 H   0  0  0  0  0  0  0  0  0  0  0  0
   44.2998   26.7458   39.1377 H   0  0  0  0  0  0  0  0  0  0  0  0
   37.8523   20.9847   34.4531 H   0  0  0  0  0  0  0  0  0  0  0  0
   37.1813   20.3430   32.1246 H   0  0  0  0  0  0  0  0  0  0  0  0
   36.9511   24.4474   31.0500 H   0  0  0  0  0  0  0  0  0  0  0  0
  1  7  1  0
  1  2  2  0
  3  2  1  0
  4  3  2  0
  5  6  2  0
  5  4  1  0
  6  1  1  0
  7  8  2  0
  7 14  1  0
  9  7  2  0
 11 10  1  0
 12 13  1  0
 12 11  2  0
 13 18  2  0
 14 13  1  0
 14 15  2  0
 15 16  1  0
 16 17  2  0
 18 10  1  0
 18 17  1  0
 19  4  1  0
 20 19  1  0
 21 20  2  0
 22 21  1  0
 23 24  1  0
 23 22  2  0
 24 25  2  0
 25 20  1  0
  2 26  1  0
  3 27  1  0
  5 28  1  0
  6 29  1  0
 10 30  1  0
 11 31  1  0
 16 32  1  0
 21 33  1  0
 22 34  1  0
 24 35  1  0
M  ISO  8  26  14  27  14  28  14  29  14  30   9  31  14  32  14  33  14
M  ISO  2  34  14  35  14
M  END
>  <minimizedAffinity>  (1) 
-4.70682907

>  <minimizedRMSD>  (1) 
0.986184716

$$$$
