
     RDKit          3D

 36 38  0  0  1  0  0  0  0  0999 V2000
   42.8680   24.7920   35.4250 C   0  0  0  0  0  0  0  0  0  0  0  0
   42.3380   23.6220   35.9730 C   0  0  0  0  0  0  0  0  0  0  0  0
   40.9880   23.3770   35.9400 C   0  0  0  0  0  0  0  0  0  0  0  0
   40.1250   24.2960   35.3580 C   0  0  0  0  0  0  0  0  0  0  0  0
   40.6110   25.4460   34.8160 C   0  0  0  0  0  0  0  0  0  0  0  0
   41.9770   25.6880   34.8520 C   0  0  0  0  0  0  0  0  0  0  0  0
   44.5830   25.0690   35.4280 S   0  0  0  0  0  0  0  0  0  0  0  0
   45.2350   24.1840   34.4350 O   0  0  0  0  0  0  0  0  0  0  0  0
   44.8260   26.5290   35.0920 O   0  0  0  0  0  0  0  0  0  0  0  0
   46.6570   24.8240   37.0990 N   0  0  0  0  0  0  0  0  0  0  0  0
   46.9540   24.7820   38.5160 C   0  0  0  0  0  0  0  0  0  0  0  0
   45.7830   25.5030   39.1870 C   0  0  0  0  0  0  0  0  0  0  0  0
   44.7810   25.7250   38.0680 C   0  0  0  0  0  0  0  0  0  0  0  0
   45.1980   24.7170   37.0520 C   0  0  1  0  0  0  0  0  0  0  0  0
   38.3530   24.1140   35.2420 S   0  0  0  0  0  0  0  0  0  0  0  0
   37.8740   24.7600   33.6580 C   0  0  0  0  0  0  0  0  0  0  0  0
   38.1440   24.0720   32.4330 C   0  0  0  0  0  0  0  0  0  0  0  0
   37.7210   24.6750   31.2670 C   0  0  0  0  0  0  0  0  0  0  0  0
   37.0840   25.8620   31.3230 N   0  0  0  0  0  0  0  0  0  0  0  0
   36.8440   26.4880   32.5020 C   0  0  0  0  0  0  0  0  0  0  0  0
   37.2420   25.9270   33.6550 N   0  0  0  0  0  0  0  0  0  0  0  0
   43.0116   22.8868   36.4374 H   0  0  0  0  0  0  0  0  0  0  0  0
   40.5883   22.4496   36.3760 H   0  0  0  0  0  0  0  0  0  0  0  0
   39.9288   26.1753   34.3547 H   0  0  0  0  0  0  0  0  0  0  0  0
   42.3653   26.6188   34.4128 H   0  0  0  0  0  0  0  0  0  0  0  0
   46.9747   25.7108   36.6825 H   0  0  0  0  0  0  0  0  0  0  0  0
   47.0196   23.7415   38.8667 H   0  0  0  0  0  0  0  0  0  0  0  0
   47.9193   25.2545   38.7502 H   0  0  0  0  0  0  0  0  0  0  0  0
   45.3467   24.8798   39.9815 H   0  0  0  0  0  0  0  0  0  0  0  0
   46.0906   26.4444   39.6656 H   0  0  0  0  0  0  0  0  0  0  0  0
   43.7532   25.5391   38.4129 H   0  0  0  0  0  0  0  0  0  0  0  0
   44.7755   26.7559   37.6843 H   0  0  0  0  0  0  0  0  0  0  0  0
   44.8058   23.7121   37.2671 H   0  0  0  0  0  0  0  0  0  0  0  0
   38.6663   23.1040   32.4216 H   0  0  0  0  0  0  0  0  0  0  0  0
   37.9024   24.1901   30.2964 H   0  0  0  0  0  0  0  0  0  0  0  0
   36.3226   27.4565   32.5136 H   0  0  0  0  0  0  0  0  0  0  0  0
  1  7  1  0
  1  2  2  0
  3  2  1  0
  4  3  2  0
  5  6  2  0
  5  4  1  0
  6  1  1  0
  8  7  2  0
  9  7  2  0
 10 11  1  0
 11 12  1  0
 13 12  1  0
 14  7  1  0
 14 10  1  0
 14 13  1  0
 15  4  1  0
 16 15  1  0
 17 16  2  0
 18 19  2  0
 18 17  1  0
 19 20  1  0
 20 21  2  0
 21 16  1  0
  2 22  1  0
  3 23  1  0
  5 24  1  0
  6 25  1  0
 10 26  1  0
 11 27  1  0
 11 28  1  0
 12 29  1  0
 12 30  1  0
 13 31  1  0
 13 32  1  0
 14 33  1  1
 17 34  1  0
 18 35  1  0
 20 36  1  0
M  ISO  8  22  14  23  14  24  14  25  14  26   5  27  13  28  13  29  13
M  ISO  7  30  13  31  13  32  13  33  13  34  14  35  14  36  14
M  END
>  <minimizedAffinity>  (1) 
-4.7051096

>  <minimizedRMSD>  (1) 
1.98676336

$$$$
