
     RDKit          3D

 31 33  0  0  0  0  0  0  0  0999 V2000
   42.1490   25.6700   34.6580 C   0  0  0  0  0  0  0  0  0  0  0  0
   41.4950   24.5190   35.0990 C   0  0  0  0  0  0  0  0  0  0  0  0
   40.1390   24.5460   35.3330 C   0  0  0  0  0  0  0  0  0  0  0  0
   39.4050   25.7080   35.1350 C   0  0  0  0  0  0  0  0  0  0  0  0
   40.0300   26.8430   34.7040 C   0  0  0  0  0  0  0  0  0  0  0  0
   41.3950   26.8160   34.4700 C   0  0  0  0  0  0  0  0  0  0  0  0
   43.8610   25.6220   34.3410 S   0  0  0  0  0  0  0  0  0  0  0  0
   44.1520   24.5910   33.3210 O   0  0  0  0  0  0  0  0  0  0  0  0
   44.2840   26.9990   33.8560 O   0  0  0  0  0  0  0  0  0  0  0  0
   44.6770   25.3350   35.8860 C   0  0  0  0  0  0  0  0  0  0  0  0
   45.5960   24.3530   36.1790 C   0  0  0  0  0  0  0  0  0  0  0  0
   45.8990   24.5790   37.4830 N   0  0  0  0  0  0  0  0  0  0  0  0
   45.1970   25.6410   37.9450 C   0  0  0  0  0  0  0  0  0  0  0  0
   44.4350   26.1070   36.9390 N   0  0  0  0  0  0  0  0  0  0  0  0
   37.6490   25.8720   35.4020 S   0  0  0  0  0  0  0  0  0  0  0  0
   36.9930   26.6690   33.9550 C   0  0  0  0  0  0  0  0  0  0  0  0
   36.9090   26.0030   32.6880 C   0  0  0  0  0  0  0  0  0  0  0  0
   36.3810   26.7220   31.6370 C   0  0  0  0  0  0  0  0  0  0  0  0
   35.9720   27.9940   31.8290 N   0  0  0  0  0  0  0  0  0  0  0  0
   36.0660   28.5950   33.0410 C   0  0  0  0  0  0  0  0  0  0  0  0
   36.5760   27.9250   34.0940 N   0  0  0  0  0  0  0  0  0  0  0  0
   42.0628   23.5907   35.2595 H   0  0  0  0  0  0  0  0  0  0  0  0
   39.6300   23.6352   35.6814 H   0  0  0  0  0  0  0  0  0  0  0  0
   39.4563   27.7679   34.5445 H   0  0  0  0  0  0  0  0  0  0  0  0
   41.8951   27.7327   34.1244 H   0  0  0  0  0  0  0  0  0  0  0  0
   45.9912   23.5707   35.5143 H   0  0  0  0  0  0  0  0  0  0  0  0
   45.2420   26.0510   38.9648 H   0  0  0  0  0  0  0  0  0  0  0  0
   43.7886   26.9080   36.9780 H   0  0  0  0  0  0  0  0  0  0  0  0
   37.2505   24.9652   32.5604 H   0  0  0  0  0  0  0  0  0  0  0  0
   36.2931   26.2596   30.6428 H   0  0  0  0  0  0  0  0  0  0  0  0
   35.7248   29.6333   33.1655 H   0  0  0  0  0  0  0  0  0  0  0  0
  1  2  2  0
  2  3  1  0
  4  3  2  0
  4 15  1  0
  5  4  1  0
  6  1  1  0
  6  5  2  0
  7  1  1  0
  7 10  1  0
  8  7  2  0
  9  7  2  0
 10 11  2  0
 10 14  1  0
 11 12  1  0
 12 13  2  0
 14 13  1  0
 16 21  1  0
 16 15  1  0
 17 16  2  0
 18 19  2  0
 18 17  1  0
 19 20  1  0
 20 21  2  0
  2 22  1  0
  3 23  1  0
  5 24  1  0
  6 25  1  0
 11 26  1  0
 13 27  1  0
 14 28  1  0
 17 29  1  0
 18 30  1  0
 20 31  1  0
M  ISO  8  22  14  23  14  24  14  25  14  26  14  27  14  28   9  29  14
M  ISO  2  30  14  31  14
M  END
>  <minimizedAffinity>  (1) 
-4.5546546

>  <minimizedRMSD>  (1) 
3.46542001

$$$$
