
     RDKit          3D

 32 34  0  0  0  0  0  0  0  0999 V2000
   42.7180   24.1170   35.4700 C   0  0  0  0  0  0  0  0  0  0  0  0
   41.9420   23.1540   36.1180 C   0  0  0  0  0  0  0  0  0  0  0  0
   40.5740   23.2520   36.1540 C   0  0  0  0  0  0  0  0  0  0  0  0
   39.9380   24.3200   35.5420 C   0  0  0  0  0  0  0  0  0  0  0  0
   40.6600   25.2790   34.8990 C   0  0  0  0  0  0  0  0  0  0  0  0
   42.0400   25.1690   34.8710 C   0  0  0  0  0  0  0  0  0  0  0  0
   44.4500   23.9500   35.4030 S   0  0  0  0  0  0  0  0  0  0  0  0
   44.7950   22.5200   35.2140 O   0  0  0  0  0  0  0  0  0  0  0  0
   44.9390   24.7720   34.2170 O   0  0  0  0  0  0  0  0  0  0  0  0
   45.1490   24.6050   36.8760 C   0  0  0  0  0  0  0  0  0  0  0  0
   44.4900   25.4570   37.7440 C   0  0  0  0  0  0  0  0  0  0  0  0
   45.1320   25.9070   38.8640 C   0  0  0  0  0  0  0  0  0  0  0  0
   46.4130   25.5370   39.1520 N   0  0  0  0  0  0  0  0  0  0  0  0
   47.0360   24.7070   38.2930 C   0  0  0  0  0  0  0  0  0  0  0  0
   46.4130   24.2480   37.1740 N   0  0  0  0  0  0  0  0  0  0  0  0
   38.1670   24.5740   35.5140 S   0  0  0  0  0  0  0  0  0  0  0  0
   37.7200   24.8510   33.8120 C   0  0  0  0  0  0  0  0  0  0  0  0
   37.9230   23.8660   32.7980 C   0  0  0  0  0  0  0  0  0  0  0  0
   37.5320   24.2040   31.5120 C   0  0  0  0  0  0  0  0  0  0  0  0
   36.9920   25.4160   31.2760 N   0  0  0  0  0  0  0  0  0  0  0  0
   36.8150   26.3230   32.2590 C   0  0  0  0  0  0  0  0  0  0  0  0
   37.1810   26.0310   33.5180 N   0  0  0  0  0  0  0  0  0  0  0  0
   42.4360   22.3021   36.6081 H   0  0  0  0  0  0  0  0  0  0  0  0
   39.9814   22.4818   36.6694 H   0  0  0  0  0  0  0  0  0  0  0  0
   40.1559   26.1259   34.4106 H   0  0  0  0  0  0  0  0  0  0  0  0
   42.6216   25.9461   34.3536 H   0  0  0  0  0  0  0  0  0  0  0  0
   43.4566   25.7703   37.5345 H   0  0  0  0  0  0  0  0  0  0  0  0
   44.6023   26.5844   39.5500 H   0  0  0  0  0  0  0  0  0  0  0  0
   48.0699   24.3939   38.5007 H   0  0  0  0  0  0  0  0  0  0  0  0
   38.3682   22.8864   33.0266 H   0  0  0  0  0  0  0  0  0  0  0  0
   37.6618   23.4867   30.6882 H   0  0  0  0  0  0  0  0  0  0  0  0
   36.3705   27.3026   32.0292 H   0  0  0  0  0  0  0  0  0  0  0  0
  1  2  2  0
  2  3  1  0
  4  3  2  0
  5  4  1  0
  6  5  2  0
  6  1  1  0
  7  1  1  0
  7 10  1  0
  8  7  2  0
  9  7  2  0
 10 15  1  0
 10 11  2  0
 11 12  1  0
 12 13  2  0
 14 13  1  0
 15 14  2  0
 16  4  1  0
 17 16  1  0
 18 17  2  0
 19 18  1  0
 20 19  2  0
 20 21  1  0
 21 22  2  0
 22 17  1  0
  2 23  1  0
  3 24  1  0
  5 25  1  0
  6 26  1  0
 11 27  1  0
 12 28  1  0
 14 29  1  0
 18 30  1  0
 19 31  1  0
 21 32  1  0
M  ISO  8  23  14  24  14  25  14  26  14  27  14  28  14  29  14  30  14
M  ISO  2  31  14  32  14
M  END
>  <minimizedAffinity>  (1) 
-4.46819401

>  <minimizedRMSD>  (1) 
1.78913021

$$$$
