
     RDKit          3D

 38 40  0  0  0  0  0  0  0  0999 V2000
   39.4330   25.3810   34.5900 N   0  0  0  0  0  0  0  0  0  0  0  0
   40.6170   26.0290   34.6130 C   0  0  0  0  0  0  0  0  0  0  0  0
   40.9930   26.7770   33.4970 C   0  0  0  0  0  0  0  0  0  0  0  0
   40.1390   26.8310   32.4060 C   0  0  0  0  0  0  0  0  0  0  0  0
   40.3860   27.4720   31.3630 O   0  0  0  0  0  0  0  0  0  0  0  0
   38.9560   26.1630   32.4260 N   0  0  0  0  0  0  0  0  0  0  0  0
   38.6230   25.4480   33.5200 C   0  0  0  0  0  0  0  0  0  0  0  0
   37.5420   24.8350   33.5430 O   0  0  0  0  0  0  0  0  0  0  0  0
   38.2210   25.1870   36.6680 C   0  0  0  0  0  0  0  0  0  0  0  0
   39.1510   24.6560   35.7600 C   0  0  0  0  0  0  0  0  0  0  0  0
   39.7280   23.4440   36.0920 C   0  0  0  0  0  0  0  0  0  0  0  0
   39.3750   22.8310   37.2640 N   0  0  0  0  0  0  0  0  0  0  0  0
   38.4810   23.3740   38.1020 C   0  0  0  0  0  0  0  0  0  0  0  0
   37.9020   24.5610   37.7990 N   0  0  0  0  0  0  0  0  0  0  0  0
   38.2820   22.5580   39.2450 N   0  0  0  0  0  0  0  0  0  0  0  0
   42.2720   27.5320   33.3980 C   0  0  0  0  0  0  0  0  0  0  0  0
   43.3290   26.5420   33.2050 N   0  0  0  0  0  0  0  0  0  0  0  0
   44.0720   26.8070   31.9910 C   0  0  0  0  0  0  0  0  0  0  0  0
   45.5440   26.9070   32.3180 C   0  0  0  0  0  0  0  0  0  0  0  0
   45.6940   27.9770   33.1770 O   0  0  0  0  0  0  0  0  0  0  0  0
   45.1590   27.6700   34.4030 C   0  0  0  0  0  0  0  0  0  0  0  0
   44.2190   26.4810   34.3390 C   0  0  0  0  0  0  0  0  0  0  0  0
   41.2724   25.9684   35.4943 H   0  0  0  0  0  0  0  0  0  0  0  0
   38.3214   26.2022   31.6157 H   0  0  0  0  0  0  0  0  0  0  0  0
   37.7412   26.1497   36.4379 H   0  0  0  0  0  0  0  0  0  0  0  0
   40.4637   22.9769   35.4207 H   0  0  0  0  0  0  0  0  0  0  0  0
   37.6198   22.8506   39.9777 H   0  0  0  0  0  0  0  0  0  0  0  0
   38.7997   21.6729   39.3423 H   0  0  0  0  0  0  0  0  0  0  0  0
   42.2391   28.2233   32.5430 H   0  0  0  0  0  0  0  0  0  0  0  0
   42.4501   28.1300   34.3039 H   0  0  0  0  0  0  0  0  0  0  0  0
   43.7286   27.7541   31.5494 H   0  0  0  0  0  0  0  0  0  0  0  0
   43.9087   25.9896   31.2732 H   0  0  0  0  0  0  0  0  0  0  0  0
   45.8870   25.9815   32.8037 H   0  0  0  0  0  0  0  0  0  0  0  0
   46.1405   27.0496   31.4049 H   0  0  0  0  0  0  0  0  0  0  0  0
   45.9787   27.4360   35.0982 H   0  0  0  0  0  0  0  0  0  0  0  0
   44.5789   28.5399   34.7446 H   0  0  0  0  0  0  0  0  0  0  0  0
   43.6170   26.4571   35.2593 H   0  0  0  0  0  0  0  0  0  0  0  0
   44.8329   25.5743   34.2343 H   0  0  0  0  0  0  0  0  0  0  0  0
  1  2  1  0
  1 10  1  0
  3  2  2  0
  4  6  1  0
  4  3  1  0
  5  4  2  0
  6  7  1  0
  7  8  2  0
  7  1  1  0
  9 14  2  0
 10 11  2  0
 10  9  1  0
 11 12  1  0
 12 13  2  0
 13 15  1  0
 14 13  1  0
 16  3  1  0
 17 16  1  0
 17 22  1  0
 18 19  1  0
 18 17  1  0
 19 20  1  0
 20 21  1  0
 22 21  1  0
  2 23  1  0
  6 24  1  0
  9 25  1  0
 11 26  1  0
 15 27  1  0
 15 28  1  0
 16 29  1  0
 16 30  1  0
 18 31  1  0
 18 32  1  0
 19 33  1  0
 19 34  1  0
 21 35  1  0
 21 36  1  0
 22 37  1  0
 22 38  1  0
M  ISO  8  23  14  24   9  25  14  26  14  29   8  30   8  31  13  32  13
M  ISO  6  33  13  34  13  35  13  36  13  37  13  38  13
M  END
>  <minimizedAffinity>  (1) 
-4.5638938

>  <minimizedRMSD>  (1) 
0.692794144

$$$$
