
     RDKit          3D

 42 46  0  0  0  0  0  0  0  0999 V2000
   43.8310   25.7270   34.9300 C   0  0  0  0  0  0  0  0  0  0  0  0
   43.0800   24.6110   35.3100 C   0  0  0  0  0  0  0  0  0  0  0  0
   41.7370   24.5420   35.0300 C   0  0  0  0  0  0  0  0  0  0  0  0
   41.0950   25.5800   34.3630 C   0  0  0  0  0  0  0  0  0  0  0  0
   41.8000   26.6790   33.9820 C   0  0  0  0  0  0  0  0  0  0  0  0
   43.1610   26.7410   34.2690 C   0  0  0  0  0  0  0  0  0  0  0  0
   45.5220   25.8070   35.2870 S   0  0  0  0  0  0  0  0  0  0  0  0
   46.2340   24.7770   34.4770 O   0  0  0  0  0  0  0  0  0  0  0  0
   46.0240   27.1910   34.9160 O   0  0  0  0  0  0  0  0  0  0  0  0
   46.8380   24.8330   38.8350 N   0  0  0  0  0  0  0  0  0  0  0  0
   46.9320   24.8390   37.5180 N   0  0  0  0  0  0  0  0  0  0  0  0
   45.8850   25.5040   36.9830 C   0  0  0  0  0  0  0  0  0  0  0  0
   45.1320   25.9120   38.0720 C   0  0  0  0  0  0  0  0  0  0  0  0
   45.7130   25.5010   39.2290 C   0  0  0  0  0  0  0  0  0  0  0  0
   39.3710   25.6280   33.9370 S   0  0  0  0  0  0  0  0  0  0  0  0
   38.5750   24.3230   34.8500 C   0  0  0  0  0  0  0  0  0  0  0  0
   38.5560   24.2770   36.2620 C   0  0  0  0  0  0  0  0  0  0  0  0
   37.9160   23.2290   36.8710 C   0  0  0  0  0  0  0  0  0  0  0  0
   37.3340   22.2920   36.0940 N   0  0  0  0  0  0  0  0  0  0  0  0
   37.3560   22.3410   34.7510 C   0  0  0  0  0  0  0  0  0  0  0  0
   37.9810   23.3630   34.1700 N   0  0  0  0  0  0  0  0  0  0  0  0
   36.7250   21.3210   33.9770 N   0  0  0  0  0  0  0  0  0  0  0  0
   35.8090   20.4510   34.4410 C   0  0  0  0  0  0  0  0  0  0  0  0
   35.4140   19.6170   33.4420 N   0  0  0  0  0  0  0  0  0  0  0  0
   36.1230   20.0140   32.3640 C   0  0  0  0  0  0  0  0  0  0  0  0
   36.0850   19.4830   31.0950 C   0  0  0  0  0  0  0  0  0  0  0  0
   36.8970   20.0510   30.1570 N   0  0  0  0  0  0  0  0  0  0  0  0
   37.6970   21.1000   30.5020 C   0  0  0  0  0  0  0  0  0  0  0  0
   37.7520   21.6410   31.7470 N   0  0  0  0  0  0  0  0  0  0  0  0
   36.9620   21.0910   32.6720 C   0  0  0  0  0  0  0  0  0  0  0  0
   43.5694   23.7797   35.8386 H   0  0  0  0  0  0  0  0  0  0  0  0
   41.1626   23.6555   35.3369 H   0  0  0  0  0  0  0  0  0  0  0  0
   41.3024   27.5064   33.4550 H   0  0  0  0  0  0  0  0  0  0  0  0
   43.7262   27.6319   33.9577 H   0  0  0  0  0  0  0  0  0  0  0  0
   47.5143   24.3893   39.4727 H   0  0  0  0  0  0  0  0  0  0  0  0
   44.1965   26.4871   38.0087 H   0  0  0  0  0  0  0  0  0  0  0  0
   45.3566   25.6688   40.2561 H   0  0  0  0  0  0  0  0  0  0  0  0
   39.0429   25.0630   36.8580 H   0  0  0  0  0  0  0  0  0  0  0  0
   37.8778   23.1536   37.9677 H   0  0  0  0  0  0  0  0  0  0  0  0
   35.4352   20.4192   35.4750 H   0  0  0  0  0  0  0  0  0  0  0  0
   35.4278   18.6364   30.8473 H   0  0  0  0  0  0  0  0  0  0  0  0
   38.3389   21.5361   29.7224 H   0  0  0  0  0  0  0  0  0  0  0  0
  1  7  1  0
  1  2  2  0
  3  2  1  0
  4  3  2  0
  5  6  2  0
  5  4  1  0
  6  1  1  0
  7 12  1  0
  8  7  2  0
  9  7  2  0
 10 14  1  0
 11 10  1  0
 12 11  2  0
 12 13  1  0
 13 14  2  0
 15  4  1  0
 15 16  1  0
 16 17  2  0
 17 18  1  0
 19 18  2  0
 20 19  1  0
 21 20  2  0
 21 16  1  0
 22 23  1  0
 22 20  1  0
 24 23  2  0
 25 30  2  0
 25 24  1  0
 26 25  1  0
 27 28  1  0
 27 26  2  0
 28 29  2  0
 29 30  1  0
 30 22  1  0
  2 31  1  0
  3 32  1  0
  5 33  1  0
  6 34  1  0
 10 35  1  0
 13 36  1  0
 14 37  1  0
 17 38  1  0
 18 39  1  0
 23 40  1  0
 26 41  1  0
 28 42  1  0
M  ISO  8  31  14  32  14  33  14  34  14  35   9  36  14  37  14  38  14
M  ISO  4  39  14  40  14  41  14  42  14
M  END
>  <minimizedAffinity>  (1) 
-6.05084515

>  <minimizedRMSD>  (1) 
1.396577

$$$$
