
     RDKit          3D

 41 44  0  0  0  0  0  0  0  0999 V2000
   43.6410   25.8290   34.8780 C   0  0  0  0  0  0  0  0  0  0  0  0
   42.9120   24.6990   35.2550 C   0  0  0  0  0  0  0  0  0  0  0  0
   41.5660   24.6140   35.0140 C   0  0  0  0  0  0  0  0  0  0  0  0
   40.8940   25.6540   34.3850 C   0  0  0  0  0  0  0  0  0  0  0  0
   41.5820   26.7710   34.0050 C   0  0  0  0  0  0  0  0  0  0  0  0
   42.9330   26.8390   34.2560 C   0  0  0  0  0  0  0  0  0  0  0  0
   45.3400   25.9300   35.1860 S   0  0  0  0  0  0  0  0  0  0  0  0
   46.0460   24.9390   34.3290 O   0  0  0  0  0  0  0  0  0  0  0  0
   45.7990   27.3400   34.8560 O   0  0  0  0  0  0  0  0  0  0  0  0
   46.7800   24.9230   38.6680 N   0  0  0  0  0  0  0  0  0  0  0  0
   46.8430   24.9760   37.3560 N   0  0  0  0  0  0  0  0  0  0  0  0
   45.7470   25.5990   36.8670 C   0  0  0  0  0  0  0  0  0  0  0  0
   45.0050   25.9240   37.9790 C   0  0  0  0  0  0  0  0  0  0  0  0
   45.6330   25.5100   39.1150 C   0  0  0  0  0  0  0  0  0  0  0  0
   39.1590   25.6900   34.0050 S   0  0  0  0  0  0  0  0  0  0  0  0
   38.4510   24.1910   34.6790 C   0  0  0  0  0  0  0  0  0  0  0  0
   38.4720   23.9120   36.0640 C   0  0  0  0  0  0  0  0  0  0  0  0
   37.9000   22.7310   36.4750 C   0  0  0  0  0  0  0  0  0  0  0  0
   37.3500   21.9010   35.5630 N   0  0  0  0  0  0  0  0  0  0  0  0
   37.3440   22.1960   34.2350 C   0  0  0  0  0  0  0  0  0  0  0  0
   37.8950   23.3380   33.8200 N   0  0  0  0  0  0  0  0  0  0  0  0
   36.7290   21.2460   33.3120 C   0  0  0  0  0  0  0  0  0  0  0  0
   35.7310   20.4090   33.8130 C   0  0  0  0  0  0  0  0  0  0  0  0
   35.1940   19.5310   32.8720 C   0  0  0  0  0  0  0  0  0  0  0  0
   35.5860   19.4620   31.5460 C   0  0  0  0  0  0  0  0  0  0  0  0
   36.5930   20.3430   31.1470 C   0  0  0  0  0  0  0  0  0  0  0  0
   37.1790   21.2420   32.0070 C   0  0  0  0  0  0  0  0  0  0  0  0
   43.4266   23.8641   35.7532 H   0  0  0  0  0  0  0  0  0  0  0  0
   41.0128   23.7143   35.3213 H   0  0  0  0  0  0  0  0  0  0  0  0
   41.0640   27.6033   33.5060 H   0  0  0  0  0  0  0  0  0  0  0  0
   43.4769   27.7434   33.9457 H   0  0  0  0  0  0  0  0  0  0  0  0
   47.4965   24.4977   39.2735 H   0  0  0  0  0  0  0  0  0  0  0  0
   44.0373   26.4465   37.9543 H   0  0  0  0  0  0  0  0  0  0  0  0
   45.2927   25.6233   40.1549 H   0  0  0  0  0  0  0  0  0  0  0  0
   38.9265   24.6097   36.7827 H   0  0  0  0  0  0  0  0  0  0  0  0
   37.8905   22.4636   37.5420 H   0  0  0  0  0  0  0  0  0  0  0  0
   35.3966   20.4392   34.8605 H   0  0  0  0  0  0  0  0  0  0  0  0
   34.4026   18.8444   33.2072 H   0  0  0  0  0  0  0  0  0  0  0  0
   35.1280   18.7502   30.8434 H   0  0  0  0  0  0  0  0  0  0  0  0
   36.9319   20.3169   30.1008 H   0  0  0  0  0  0  0  0  0  0  0  0
   37.9708   21.9272   31.6701 H   0  0  0  0  0  0  0  0  0  0  0  0
  1  7  1  0
  1  2  2  0
  3  2  1  0
  4  3  2  0
  5  6  2  0
  5  4  1  0
  6  1  1  0
  7 12  1  0
  8  7  2  0
  9  7  2  0
 10 14  1  0
 11 10  1  0
 12 11  2  0
 12 13  1  0
 13 14  2  0
 15  4  1  0
 15 16  1  0
 16 17  2  0
 17 18  1  0
 19 18  2  0
 20 19  1  0
 21 20  2  0
 21 16  1  0
 22 23  2  0
 22 20  1  0
 24 23  1  0
 25 24  2  0
 26 25  1  0
 26 27  2  0
 27 22  1  0
  2 28  1  0
  3 29  1  0
  5 30  1  0
  6 31  1  0
 10 32  1  0
 13 33  1  0
 14 34  1  0
 17 35  1  0
 18 36  1  0
 23 37  1  0
 24 38  1  0
 25 39  1  0
 26 40  1  0
 27 41  1  0
M  ISO  8  28  14  29  14  30  14  31  14  32   9  33  14  34  14  35  14
M  ISO  6  36  14  37  14  38  14  39  14  40  14  41  14
M  END
>  <minimizedAffinity>  (1) 
-5.83963299

>  <minimizedRMSD>  (1) 
1.58151209

$$$$
