
     RDKit          3D

 39 41  0  0  0  0  0  0  0  0999 V2000
   39.4000   25.4260   34.5540 N   0  0  0  0  0  0  0  0  0  0  0  0
   40.5930   26.0420   34.5460 C   0  0  0  0  0  0  0  0  0  0  0  0
   40.9640   26.7860   33.4290 C   0  0  0  0  0  0  0  0  0  0  0  0
   40.0790   26.8610   32.3600 C   0  0  0  0  0  0  0  0  0  0  0  0
   40.3140   27.5040   31.3070 O   0  0  0  0  0  0  0  0  0  0  0  0
   38.8750   26.2240   32.4000 N   0  0  0  0  0  0  0  0  0  0  0  0
   38.5620   25.5180   33.5020 C   0  0  0  0  0  0  0  0  0  0  0  0
   37.4680   24.9300   33.5560 O   0  0  0  0  0  0  0  0  0  0  0  0
   38.2190   25.2220   36.6460 C   0  0  0  0  0  0  0  0  0  0  0  0
   39.1290   24.7010   35.7330 C   0  0  0  0  0  0  0  0  0  0  0  0
   39.7300   23.4740   36.0400 C   0  0  0  0  0  0  0  0  0  0  0  0
   39.3880   22.8560   37.2190 N   0  0  0  0  0  0  0  0  0  0  0  0
   38.5070   23.3930   38.0710 C   0  0  0  0  0  0  0  0  0  0  0  0
   37.9340   24.5660   37.7740 N   0  0  0  0  0  0  0  0  0  0  0  0
   38.3310   22.5660   39.2060 N   0  0  0  0  0  0  0  0  0  0  0  0
   42.2570   27.5160   33.2900 C   0  0  0  0  0  0  0  0  0  0  0  0
   43.3060   26.6040   33.6210 N   0  0  0  0  0  0  0  0  0  0  0  0
   43.6630   25.6860   32.5630 C   0  0  0  0  0  0  0  0  0  0  0  0
   44.4230   24.5720   33.2090 C   0  0  0  0  0  0  0  0  0  0  0  0
   45.5580   25.0340   33.9260 N   0  0  0  0  0  0  0  0  0  0  0  0
   45.7190   26.4390   34.0690 C   0  0  0  0  0  0  0  0  0  0  0  0
   44.4470   27.2060   34.2530 C   0  0  0  0  0  0  0  0  0  0  0  0
   41.2683   25.9600   35.4104 H   0  0  0  0  0  0  0  0  0  0  0  0
   38.2208   26.2815   31.6065 H   0  0  0  0  0  0  0  0  0  0  0  0
   37.7287   26.1843   36.4372 H   0  0  0  0  0  0  0  0  0  0  0  0
   40.4580   23.0160   35.3543 H   0  0  0  0  0  0  0  0  0  0  0  0
   37.6805   22.8483   39.9530 H   0  0  0  0  0  0  0  0  0  0  0  0
   38.8534   21.6818   39.2850 H   0  0  0  0  0  0  0  0  0  0  0  0
   42.3792   27.8687   32.2553 H   0  0  0  0  0  0  0  0  0  0  0  0
   42.2806   28.3903   33.9571 H   0  0  0  0  0  0  0  0  0  0  0  0
   44.2919   26.1925   31.8160 H   0  0  0  0  0  0  0  0  0  0  0  0
   42.7696   25.3101   32.0430 H   0  0  0  0  0  0  0  0  0  0  0  0
   43.7544   24.0467   33.9069 H   0  0  0  0  0  0  0  0  0  0  0  0
   44.7800   23.9037   32.4116 H   0  0  0  0  0  0  0  0  0  0  0  0
   45.5092   24.6315   34.8728 H   0  0  0  0  0  0  0  0  0  0  0  0
   46.3576   26.6218   34.9458 H   0  0  0  0  0  0  0  0  0  0  0  0
   46.1593   26.7955   33.1261 H   0  0  0  0  0  0  0  0  0  0  0  0
   44.5855   28.2123   33.8309 H   0  0  0  0  0  0  0  0  0  0  0  0
   44.2398   27.2250   35.3331 H   0  0  0  0  0  0  0  0  0  0  0  0
  1 10  1  0
  2  1  1  0
  3  2  2  0
  4  6  1  0
  4  3  1  0
  5  4  2  0
  6  7  1  0
  7  8  2  0
  7  1  1  0
  9 14  2  0
 10 11  2  0
 10  9  1  0
 11 12  1  0
 12 13  2  0
 13 15  1  0
 14 13  1  0
 16  3  1  0
 16 17  1  0
 17 22  1  0
 18 19  1  0
 18 17  1  0
 19 20  1  0
 20 21  1  0
 21 22  1  0
  2 23  1  0
  6 24  1  0
  9 25  1  0
 11 26  1  0
 15 27  1  0
 15 28  1  0
 16 29  1  0
 16 30  1  0
 18 31  1  0
 18 32  1  0
 19 33  1  0
 19 34  1  0
 20 35  1  0
 21 36  1  0
 21 37  1  0
 22 38  1  0
 22 39  1  0
M  ISO  8  23  14  24   9  25  14  26  14  29   8  30   8  31  13  32  13
M  ISO  7  33  13  34  13  35   5  36  13  37  13  38  13  39  13
M  END
>  <minimizedAffinity>  (1) 
-4.50382662

>  <minimizedRMSD>  (1) 
1.43776071

$$$$
