
     RDKit          3D

 43 46  0  0  0  0  0  0  0  0999 V2000
   43.6670   25.8380   34.8820 C   0  0  0  0  0  0  0  0  0  0  0  0
   42.9500   24.7050   35.2650 C   0  0  0  0  0  0  0  0  0  0  0  0
   41.6070   24.6090   35.0250 C   0  0  0  0  0  0  0  0  0  0  0  0
   40.9210   25.6340   34.3970 C   0  0  0  0  0  0  0  0  0  0  0  0
   41.5910   26.7600   34.0080 C   0  0  0  0  0  0  0  0  0  0  0  0
   42.9520   26.8400   34.2580 C   0  0  0  0  0  0  0  0  0  0  0  0
   45.3650   25.9430   35.1930 S   0  0  0  0  0  0  0  0  0  0  0  0
   46.0750   24.9620   34.3250 O   0  0  0  0  0  0  0  0  0  0  0  0
   45.8200   27.3520   34.8610 O   0  0  0  0  0  0  0  0  0  0  0  0
   46.8130   24.8970   38.6690 N   0  0  0  0  0  0  0  0  0  0  0  0
   46.8770   24.9560   37.3380 N   0  0  0  0  0  0  0  0  0  0  0  0
   45.7820   25.5920   36.8730 C   0  0  0  0  0  0  0  0  0  0  0  0
   45.0480   25.9180   37.9900 C   0  0  0  0  0  0  0  0  0  0  0  0
   45.6810   25.4880   39.1150 C   0  0  0  0  0  0  0  0  0  0  0  0
   39.1760   25.6640   34.0120 S   0  0  0  0  0  0  0  0  0  0  0  0
   38.4700   24.2140   34.7530 C   0  0  0  0  0  0  0  0  0  0  0  0
   38.4370   24.0250   36.1580 C   0  0  0  0  0  0  0  0  0  0  0  0
   37.8730   22.8760   36.6480 C   0  0  0  0  0  0  0  0  0  0  0  0
   37.3700   21.9690   35.7680 N   0  0  0  0  0  0  0  0  0  0  0  0
   37.4120   22.1680   34.4400 C   0  0  0  0  0  0  0  0  0  0  0  0
   37.9630   23.2920   33.9580 N   0  0  0  0  0  0  0  0  0  0  0  0
   36.8670   21.1780   33.5750 N   0  0  0  0  0  0  0  0  0  0  0  0
   35.5870   20.5420   33.8150 C   0  0  0  0  0  0  0  0  0  0  0  0
   35.3570   19.6240   32.6500 C   0  0  0  0  0  0  0  0  0  0  0  0
   36.3790   19.9870   31.5970 C   0  0  0  0  0  0  0  0  0  0  0  0
   37.4870   20.6700   32.3660 C   0  0  0  0  0  0  0  0  0  0  0  0
   43.4718   23.8770   35.7671 H   0  0  0  0  0  0  0  0  0  0  0  0
   41.0642   23.7041   35.3356 H   0  0  0  0  0  0  0  0  0  0  0  0
   41.0619   27.5844   33.5076 H   0  0  0  0  0  0  0  0  0  0  0  0
   43.4888   27.7471   33.9434 H   0  0  0  0  0  0  0  0  0  0  0  0
   47.5256   24.4624   39.2725 H   0  0  0  0  0  0  0  0  0  0  0  0
   44.0857   26.4508   37.9756 H   0  0  0  0  0  0  0  0  0  0  0  0
   45.3461   25.5969   40.1571 H   0  0  0  0  0  0  0  0  0  0  0  0
   38.8540   24.7823   36.8382 H   0  0  0  0  0  0  0  0  0  0  0  0
   37.8280   22.6910   37.7314 H   0  0  0  0  0  0  0  0  0  0  0  0
   35.6148   19.9690   34.7536 H   0  0  0  0  0  0  0  0  0  0  0  0
   34.7799   21.2834   33.9096 H   0  0  0  0  0  0  0  0  0  0  0  0
   35.4897   18.5773   32.9611 H   0  0  0  0  0  0  0  0  0  0  0  0
   34.3342   19.7314   32.2598 H   0  0  0  0  0  0  0  0  0  0  0  0
   35.9444   20.6698   30.8521 H   0  0  0  0  0  0  0  0  0  0  0  0
   36.7361   19.1085   31.0396 H   0  0  0  0  0  0  0  0  0  0  0  0
   38.2814   19.9510   32.6148 H   0  0  0  0  0  0  0  0  0  0  0  0
   37.9538   21.4746   31.7789 H   0  0  0  0  0  0  0  0  0  0  0  0
  1  7  1  0
  1  2  2  0
  3  2  1  0
  4  3  2  0
  5  6  2  0
  5  4  1  0
  6  1  1  0
  7 12  1  0
  8  7  2  0
  9  7  2  0
 10 14  1  0
 11 10  1  0
 12 11  2  0
 12 13  1  0
 13 14  2  0
 15  4  1  0
 15 16  1  0
 16 17  2  0
 17 18  1  0
 19 18  2  0
 20 19  1  0
 21 20  2  0
 21 16  1  0
 22 23  1  0
 22 20  1  0
 24 23  1  0
 25 26  1  0
 25 24  1  0
 26 22  1  0
  2 27  1  0
  3 28  1  0
  5 29  1  0
  6 30  1  0
 10 31  1  0
 13 32  1  0
 14 33  1  0
 17 34  1  0
 18 35  1  0
 23 36  1  0
 23 37  1  0
 24 38  1  0
 24 39  1  0
 25 40  1  0
 25 41  1  0
 26 42  1  0
 26 43  1  0
M  ISO  8  27  14  28  14  29  14  30  14  31   9  32  14  33  14  34  14
M  ISO  8  35  14  36  13  37  13  38  13  39  13  40  13  41  13  42  13
M  ISO  1  43  13
M  END
>  <minimizedAffinity>  (1) 
-5.74344206

>  <minimizedRMSD>  (1) 
1.25368333

$$$$
