
     RDKit          3D

 44 47  0  0  0  0  0  0  0  0999 V2000
   43.5810   25.8360   34.8890 C   0  0  0  0  0  0  0  0  0  0  0  0
   42.8600   24.7100   35.2600 C   0  0  0  0  0  0  0  0  0  0  0  0
   41.5060   24.6270   35.0310 C   0  0  0  0  0  0  0  0  0  0  0  0
   40.8330   25.6740   34.4210 C   0  0  0  0  0  0  0  0  0  0  0  0
   41.5120   26.7990   34.0400 C   0  0  0  0  0  0  0  0  0  0  0  0
   42.8740   26.8690   34.2770 C   0  0  0  0  0  0  0  0  0  0  0  0
   45.2880   25.9410   35.1790 S   0  0  0  0  0  0  0  0  0  0  0  0
   45.9800   24.9480   34.3100 O   0  0  0  0  0  0  0  0  0  0  0  0
   45.7460   27.3530   34.8290 O   0  0  0  0  0  0  0  0  0  0  0  0
   46.7650   24.9200   38.6460 N   0  0  0  0  0  0  0  0  0  0  0  0
   46.8130   24.9720   37.3170 N   0  0  0  0  0  0  0  0  0  0  0  0
   45.7150   25.6060   36.8500 C   0  0  0  0  0  0  0  0  0  0  0  0
   44.9840   25.9410   37.9780 C   0  0  0  0  0  0  0  0  0  0  0  0
   45.6280   25.5190   39.1030 C   0  0  0  0  0  0  0  0  0  0  0  0
   39.0930   25.7120   34.0590 S   0  0  0  0  0  0  0  0  0  0  0  0
   38.4040   24.1950   34.6650 C   0  0  0  0  0  0  0  0  0  0  0  0
   38.3400   23.8800   36.0560 C   0  0  0  0  0  0  0  0  0  0  0  0
   37.7870   22.6770   36.4290 C   0  0  0  0  0  0  0  0  0  0  0  0
   37.3310   21.8470   35.4820 N   0  0  0  0  0  0  0  0  0  0  0  0
   37.4040   22.1740   34.1640 C   0  0  0  0  0  0  0  0  0  0  0  0
   37.9310   23.3260   33.7710 N   0  0  0  0  0  0  0  0  0  0  0  0
   36.8980   21.2450   33.2120 N   0  0  0  0  0  0  0  0  0  0  0  0
   37.7300   20.4050   32.3710 C   0  0  0  0  0  0  0  0  0  0  0  0
   37.4330   20.6910   30.8980 C   0  0  0  0  0  0  0  0  0  0  0  0
   36.0660   20.7780   30.6750 O   0  0  0  0  0  0  0  0  0  0  0  0
   35.2880   20.3060   31.7040 C   0  0  0  0  0  0  0  0  0  0  0  0
   35.4760   21.0670   33.0110 C   0  0  0  0  0  0  0  0  0  0  0  0
   43.3793   23.8703   35.7450 H   0  0  0  0  0  0  0  0  0  0  0  0
   40.9544   23.7247   35.3337 H   0  0  0  0  0  0  0  0  0  0  0  0
   40.9849   27.6332   33.5539 H   0  0  0  0  0  0  0  0  0  0  0  0
   43.4187   27.7742   33.9706 H   0  0  0  0  0  0  0  0  0  0  0  0
   47.4841   24.4888   39.2443 H   0  0  0  0  0  0  0  0  0  0  0  0
   44.0207   26.4721   37.9675 H   0  0  0  0  0  0  0  0  0  0  0  0
   45.3029   25.6357   40.1474 H   0  0  0  0  0  0  0  0  0  0  0  0
   38.7235   24.5821   36.8110 H   0  0  0  0  0  0  0  0  0  0  0  0
   37.7202   22.4002   37.4915 H   0  0  0  0  0  0  0  0  0  0  0  0
   38.7895   20.6166   32.5777 H   0  0  0  0  0  0  0  0  0  0  0  0
   37.5143   19.3481   32.5865 H   0  0  0  0  0  0  0  0  0  0  0  0
   37.9053   21.6429   30.6139 H   0  0  0  0  0  0  0  0  0  0  0  0
   37.8355   19.8657   30.2922 H   0  0  0  0  0  0  0  0  0  0  0  0
   34.2322   20.3837   31.4053 H   0  0  0  0  0  0  0  0  0  0  0  0
   35.5954   19.2663   31.8895 H   0  0  0  0  0  0  0  0  0  0  0  0
   34.9802   22.0470   32.9493 H   0  0  0  0  0  0  0  0  0  0  0  0
   35.0336   20.5098   33.8500 H   0  0  0  0  0  0  0  0  0  0  0  0
  1  7  1  0
  1  2  2  0
  3  2  1  0
  4  3  2  0
  5  6  2  0
  5  4  1  0
  6  1  1  0
  7 12  1  0
  8  7  2  0
  9  7  2  0
 10 14  1  0
 11 10  1  0
 12 11  2  0
 12 13  1  0
 13 14  2  0
 15  4  1  0
 15 16  1  0
 16 17  2  0
 17 18  1  0
 19 18  2  0
 20 19  1  0
 21 20  2  0
 21 16  1  0
 22 20  1  0
 23 22  1  0
 24 23  1  0
 25 24  1  0
 25 26  1  0
 26 27  1  0
 27 22  1  0
  2 28  1  0
  3 29  1  0
  5 30  1  0
  6 31  1  0
 10 32  1  0
 13 33  1  0
 14 34  1  0
 17 35  1  0
 18 36  1  0
 23 37  1  0
 23 38  1  0
 24 39  1  0
 24 40  1  0
 26 41  1  0
 26 42  1  0
 27 43  1  0
 27 44  1  0
M  ISO  8  28  14  29  14  30  14  31  14  32   9  33  14  34  14  35  14
M  ISO  8  36  14  37  13  38  13  39  13  40  13  41  13  42  13  43  13
M  ISO  1  44  13
M  END
>  <minimizedAffinity>  (1) 
-5.66040182

>  <minimizedRMSD>  (1) 
1.57023108

$$$$
