
     RDKit          3D

 46 49  0  0  0  0  0  0  0  0999 V2000
   43.5000   25.4840   35.0310 C   0  0  0  0  0  0  0  0  0  0  0  0
   42.7220   24.4070   35.4340 C   0  0  0  0  0  0  0  0  0  0  0  0
   41.3560   24.4120   35.2760 C   0  0  0  0  0  0  0  0  0  0  0  0
   40.7220   25.5140   34.7000 C   0  0  0  0  0  0  0  0  0  0  0  0
   41.4600   26.5900   34.2940 C   0  0  0  0  0  0  0  0  0  0  0  0
   42.8370   26.5600   34.4640 C   0  0  0  0  0  0  0  0  0  0  0  0
   45.2210   25.4680   35.2340 S   0  0  0  0  0  0  0  0  0  0  0  0
   45.7810   24.2950   34.5100 O   0  0  0  0  0  0  0  0  0  0  0  0
   45.7880   26.7580   34.6720 O   0  0  0  0  0  0  0  0  0  0  0  0
   46.8020   24.8830   38.7620 N   0  0  0  0  0  0  0  0  0  0  0  0
   46.8070   24.7580   37.4360 N   0  0  0  0  0  0  0  0  0  0  0  0
   45.7070   25.3430   36.9190 C   0  0  0  0  0  0  0  0  0  0  0  0
   45.0250   25.8380   38.0190 C   0  0  0  0  0  0  0  0  0  0  0  0
   45.6980   25.5550   39.1640 C   0  0  0  0  0  0  0  0  0  0  0  0
   38.9660   25.6710   34.4280 S   0  0  0  0  0  0  0  0  0  0  0  0
   38.2270   24.1290   34.9100 C   0  0  0  0  0  0  0  0  0  0  0  0
   37.9510   23.8350   36.2850 C   0  0  0  0  0  0  0  0  0  0  0  0
   37.3740   22.6050   36.5580 C   0  0  0  0  0  0  0  0  0  0  0  0
   37.1010   21.7530   35.5470 N   0  0  0  0  0  0  0  0  0  0  0  0
   37.3820   22.0790   34.2650 C   0  0  0  0  0  0  0  0  0  0  0  0
   37.9380   23.2550   33.9630 N   0  0  0  0  0  0  0  0  0  0  0  0
   37.0760   21.1490   33.2310 N   0  0  0  0  0  0  0  0  0  0  0  0
   37.5880   21.2200   31.8860 C   0  0  0  0  0  0  0  0  0  0  0  0
   36.4140   21.4770   30.9660 C   0  0  0  0  0  0  0  0  0  0  0  0
   35.0800   21.3070   31.6170 C   0  0  0  0  0  0  0  0  0  0  0  0
   34.9870   20.1750   32.6010 C   0  0  0  0  0  0  0  0  0  0  0  0
   36.1930   20.0240   33.4850 C   0  0  0  0  0  0  0  0  0  0  0  0
   43.2084   23.5316   35.8891 H   0  0  0  0  0  0  0  0  0  0  0  0
   40.7621   23.5462   35.6041 H   0  0  0  0  0  0  0  0  0  0  0  0
   40.9711   27.4647   33.8403 H   0  0  0  0  0  0  0  0  0  0  0  0
   43.4272   27.4278   34.1344 H   0  0  0  0  0  0  0  0  0  0  0  0
   47.5328   24.5206   39.3908 H   0  0  0  0  0  0  0  0  0  0  0  0
   44.0713   26.3841   37.9713 H   0  0  0  0  0  0  0  0  0  0  0  0
   45.4091   25.8150   40.1931 H   0  0  0  0  0  0  0  0  0  0  0  0
   38.1860   24.5516   37.0858 H   0  0  0  0  0  0  0  0  0  0  0  0
   37.1392   22.3237   37.5952 H   0  0  0  0  0  0  0  0  0  0  0  0
   38.3162   22.0404   31.8040 H   0  0  0  0  0  0  0  0  0  0  0  0
   38.0955   20.2826   31.6144 H   0  0  0  0  0  0  0  0  0  0  0  0
   36.4777   20.7760   30.1207 H   0  0  0  0  0  0  0  0  0  0  0  0
   36.4817   22.5290   30.6517 H   0  0  0  0  0  0  0  0  0  0  0  0
   34.8392   22.2398   32.1479 H   0  0  0  0  0  0  0  0  0  0  0  0
   34.3744   21.0666   30.8081 H   0  0  0  0  0  0  0  0  0  0  0  0
   34.1094   20.3465   33.2417 H   0  0  0  0  0  0  0  0  0  0  0  0
   34.9109   19.2498   32.0109 H   0  0  0  0  0  0  0  0  0  0  0  0
   36.7113   19.0820   33.2525 H   0  0  0  0  0  0  0  0  0  0  0  0
   35.8926   20.0037   34.5430 H   0  0  0  0  0  0  0  0  0  0  0  0
  1  7  1  0
  1  2  2  0
  3  2  1  0
  4  3  2  0
  5  6  2  0
  5  4  1  0
  6  1  1  0
  7 12  1  0
  8  7  2  0
  9  7  2  0
 10 14  1  0
 11 10  1  0
 12 11  2  0
 12 13  1  0
 13 14  2  0
 15  4  1  0
 15 16  1  0
 16 17  2  0
 17 18  1  0
 19 18  2  0
 20 19  1  0
 21 20  2  0
 21 16  1  0
 22 27  1  0
 22 20  1  0
 23 22  1  0
 24 25  1  0
 24 23  1  0
 25 26  1  0
 26 27  1  0
  2 28  1  0
  3 29  1  0
  5 30  1  0
  6 31  1  0
 10 32  1  0
 13 33  1  0
 14 34  1  0
 17 35  1  0
 18 36  1  0
 23 37  1  0
 23 38  1  0
 24 39  1  0
 24 40  1  0
 25 41  1  0
 25 42  1  0
 26 43  1  0
 26 44  1  0
 27 45  1  0
 27 46  1  0
M  ISO  8  28  14  29  14  30  14  31  14  32   9  33  14  34  14  35  14
M  ISO  8  36  14  37  13  38  13  39  13  40  13  41  13  42  13  43  13
M  ISO  3  44  13  45  13  46  13
M  END
>  <minimizedAffinity>  (1) 
-5.65705109

>  <minimizedRMSD>  (1) 
1.46638274

$$$$
