
     RDKit          3D

 39 42  0  0  0  0  0  0  0  0999 V2000
   43.5800   25.8160   34.8930 C   0  0  0  0  0  0  0  0  0  0  0  0
   42.8610   24.6850   35.2680 C   0  0  0  0  0  0  0  0  0  0  0  0
   41.5090   24.6160   35.0300 C   0  0  0  0  0  0  0  0  0  0  0  0
   40.8370   25.6590   34.4180 C   0  0  0  0  0  0  0  0  0  0  0  0
   41.5190   26.7770   34.0410 C   0  0  0  0  0  0  0  0  0  0  0  0
   42.8760   26.8420   34.2820 C   0  0  0  0  0  0  0  0  0  0  0  0
   45.2910   25.9190   35.1860 S   0  0  0  0  0  0  0  0  0  0  0  0
   45.9830   24.9210   34.3260 O   0  0  0  0  0  0  0  0  0  0  0  0
   45.7500   27.3190   34.8330 O   0  0  0  0  0  0  0  0  0  0  0  0
   46.7570   24.9080   38.6650 N   0  0  0  0  0  0  0  0  0  0  0  0
   46.8160   24.9470   37.3340 N   0  0  0  0  0  0  0  0  0  0  0  0
   45.7150   25.5900   36.8640 C   0  0  0  0  0  0  0  0  0  0  0  0
   44.9910   25.9370   37.9810 C   0  0  0  0  0  0  0  0  0  0  0  0
   45.6220   25.5220   39.1120 C   0  0  0  0  0  0  0  0  0  0  0  0
   39.0940   25.6960   34.0540 S   0  0  0  0  0  0  0  0  0  0  0  0
   38.3980   24.1880   34.7000 C   0  0  0  0  0  0  0  0  0  0  0  0
   38.3650   23.8950   36.0840 C   0  0  0  0  0  0  0  0  0  0  0  0
   37.8040   22.6990   36.4800 C   0  0  0  0  0  0  0  0  0  0  0  0
   37.3120   21.8610   35.5350 N   0  0  0  0  0  0  0  0  0  0  0  0
   37.3620   22.1700   34.2280 C   0  0  0  0  0  0  0  0  0  0  0  0
   37.9000   23.3210   33.8250 N   0  0  0  0  0  0  0  0  0  0  0  0
   36.8250   21.2510   33.2130 C   0  0  0  0  0  0  0  0  0  0  0  0
   35.7110   20.4700   33.5150 C   0  0  0  0  0  0  0  0  0  0  0  0
   35.2420   19.6260   32.5430 C   0  0  0  0  0  0  0  0  0  0  0  0
   35.8290   19.5460   31.3310 N   0  0  0  0  0  0  0  0  0  0  0  0
   36.9040   20.2990   31.0410 C   0  0  0  0  0  0  0  0  0  0  0  0
   37.3780   21.1370   31.9910 N   0  0  0  0  0  0  0  0  0  0  0  0
   43.3759   23.8443   35.7560 H   0  0  0  0  0  0  0  0  0  0  0  0
   40.9521   23.7165   35.3312 H   0  0  0  0  0  0  0  0  0  0  0  0
   40.9967   27.6131   33.5530 H   0  0  0  0  0  0  0  0  0  0  0  0
   43.4224   27.7464   33.9763 H   0  0  0  0  0  0  0  0  0  0  0  0
   47.4681   24.4753   39.2716 H   0  0  0  0  0  0  0  0  0  0  0  0
   44.0326   26.4765   37.9620 H   0  0  0  0  0  0  0  0  0  0  0  0
   45.2921   25.6518   40.1533 H   0  0  0  0  0  0  0  0  0  0  0  0
   38.7747   24.6003   36.8221 H   0  0  0  0  0  0  0  0  0  0  0  0
   37.7566   22.4295   37.5454 H   0  0  0  0  0  0  0  0  0  0  0  0
   35.2249   20.5291   34.5000 H   0  0  0  0  0  0  0  0  0  0  0  0
   34.3646   18.9977   32.7562 H   0  0  0  0  0  0  0  0  0  0  0  0
   37.3867   20.2352   30.0546 H   0  0  0  0  0  0  0  0  0  0  0  0
  1  7  1  0
  1  2  2  0
  3  2  1  0
  4  3  2  0
  5  6  2  0
  5  4  1  0
  6  1  1  0
  7 12  1  0
  8  7  2  0
  9  7  2  0
 10 14  1  0
 11 10  1  0
 12 11  2  0
 12 13  1  0
 13 14  2  0
 15  4  1  0
 15 16  1  0
 16 17  2  0
 17 18  1  0
 19 18  2  0
 20 19  1  0
 21 20  2  0
 21 16  1  0
 22 23  2  0
 22 20  1  0
 24 23  1  0
 25 24  2  0
 26 25  1  0
 26 27  2  0
 27 22  1  0
  2 28  1  0
  3 29  1  0
  5 30  1  0
  6 31  1  0
 10 32  1  0
 13 33  1  0
 14 34  1  0
 17 35  1  0
 18 36  1  0
 23 37  1  0
 24 38  1  0
 26 39  1  0
M  ISO  8  28  14  29  14  30  14  31  14  32   9  33  14  34  14  35  14
M  ISO  4  36  14  37  14  38  14  39  14
M  END
>  <minimizedAffinity>  (1) 
-5.56678629

>  <minimizedRMSD>  (1) 
1.56116831

$$$$
