
     RDKit          3D

 38 41  0  0  0  0  0  0  0  0999 V2000
   43.6290   25.8210   34.8840 C   0  0  0  0  0  0  0  0  0  0  0  0
   42.9000   24.6990   35.2690 C   0  0  0  0  0  0  0  0  0  0  0  0
   41.5530   24.6230   35.0310 C   0  0  0  0  0  0  0  0  0  0  0  0
   40.8830   25.6550   34.4020 C   0  0  0  0  0  0  0  0  0  0  0  0
   41.5730   26.7700   34.0110 C   0  0  0  0  0  0  0  0  0  0  0  0
   42.9280   26.8390   34.2560 C   0  0  0  0  0  0  0  0  0  0  0  0
   45.3320   25.9070   35.1920 S   0  0  0  0  0  0  0  0  0  0  0  0
   46.0320   24.9100   34.3410 O   0  0  0  0  0  0  0  0  0  0  0  0
   45.8050   27.3210   34.8510 O   0  0  0  0  0  0  0  0  0  0  0  0
   46.7700   24.9130   38.6860 N   0  0  0  0  0  0  0  0  0  0  0  0
   46.8300   24.9560   37.3680 N   0  0  0  0  0  0  0  0  0  0  0  0
   45.7480   25.5810   36.8710 C   0  0  0  0  0  0  0  0  0  0  0  0
   45.0010   25.9310   37.9890 C   0  0  0  0  0  0  0  0  0  0  0  0
   45.6330   25.5170   39.1200 C   0  0  0  0  0  0  0  0  0  0  0  0
   39.1380   25.7000   34.0220 S   0  0  0  0  0  0  0  0  0  0  0  0
   38.4140   24.2480   34.7570 C   0  0  0  0  0  0  0  0  0  0  0  0
   38.3410   24.0730   36.1560 C   0  0  0  0  0  0  0  0  0  0  0  0
   37.7590   22.9090   36.6220 C   0  0  0  0  0  0  0  0  0  0  0  0
   37.2970   22.0090   35.7410 N   0  0  0  0  0  0  0  0  0  0  0  0
   37.3810   22.2070   34.4110 C   0  0  0  0  0  0  0  0  0  0  0  0
   37.9410   23.3270   33.9390 N   0  0  0  0  0  0  0  0  0  0  0  0
   36.8550   21.1790   33.5770 N   0  0  0  0  0  0  0  0  0  0  0  0
   35.7720   20.4960   33.9920 C   0  0  0  0  0  0  0  0  0  0  0  0
   35.4850   19.5840   33.0130 C   0  0  0  0  0  0  0  0  0  0  0  0
   36.3770   19.7000   32.0050 N   0  0  0  0  0  0  0  0  0  0  0  0
   37.2100   20.6890   32.3760 C   0  0  0  0  0  0  0  0  0  0  0  0
   43.4115   23.8640   35.7700 H   0  0  0  0  0  0  0  0  0  0  0  0
   40.9967   23.7275   35.3451 H   0  0  0  0  0  0  0  0  0  0  0  0
   41.0540   27.5995   33.5084 H   0  0  0  0  0  0  0  0  0  0  0  0
   43.4757   27.7391   33.9401 H   0  0  0  0  0  0  0  0  0  0  0  0
   47.4808   24.4844   39.2959 H   0  0  0  0  0  0  0  0  0  0  0  0
   44.0395   26.4647   37.9632 H   0  0  0  0  0  0  0  0  0  0  0  0
   45.2968   25.6436   40.1597 H   0  0  0  0  0  0  0  0  0  0  0  0
   38.7320   24.8333   36.8482 H   0  0  0  0  0  0  0  0  0  0  0  0
   37.6756   22.7228   37.7029 H   0  0  0  0  0  0  0  0  0  0  0  0
   35.2242   20.6424   34.9346 H   0  0  0  0  0  0  0  0  0  0  0  0
   34.6533   18.8647   33.0423 H   0  0  0  0  0  0  0  0  0  0  0  0
   38.0625   21.0470   31.7802 H   0  0  0  0  0  0  0  0  0  0  0  0
  1  7  1  0
  1  2  2  0
  3  2  1  0
  4  3  2  0
  5  6  2  0
  5  4  1  0
  6  1  1  0
  7 12  1  0
  8  7  2  0
  9  7  2  0
 10 14  1  0
 11 10  1  0
 12 11  2  0
 12 13  1  0
 13 14  2  0
 15  4  1  0
 15 16  1  0
 16 17  2  0
 17 18  1  0
 19 18  2  0
 20 19  1  0
 21 20  2  0
 21 16  1  0
 22 23  1  0
 22 20  1  0
 24 23  2  0
 25 26  2  0
 25 24  1  0
 26 22  1  0
  2 27  1  0
  3 28  1  0
  5 29  1  0
  6 30  1  0
 10 31  1  0
 13 32  1  0
 14 33  1  0
 17 34  1  0
 18 35  1  0
 23 36  1  0
 24 37  1  0
 26 38  1  0
M  ISO  8  27  14  28  14  29  14  30  14  31   9  32  14  33  14  34  14
M  ISO  4  35  14  36  14  37  14  38  14
M  END
>  <minimizedAffinity>  (1) 
-5.52035379

>  <minimizedRMSD>  (1) 
1.25115526

$$$$
