
     RDKit          3D

 38 41  0  0  0  0  0  0  0  0999 V2000
   43.6160   25.8280   34.8880 C   0  0  0  0  0  0  0  0  0  0  0  0
   42.8870   24.7110   35.2670 C   0  0  0  0  0  0  0  0  0  0  0  0
   41.5430   24.6160   35.0370 C   0  0  0  0  0  0  0  0  0  0  0  0
   40.8700   25.6540   34.4100 C   0  0  0  0  0  0  0  0  0  0  0  0
   41.5450   26.7830   34.0150 C   0  0  0  0  0  0  0  0  0  0  0  0
   42.9120   26.8440   34.2650 C   0  0  0  0  0  0  0  0  0  0  0  0
   45.3220   25.9280   35.1900 S   0  0  0  0  0  0  0  0  0  0  0  0
   46.0220   24.9420   34.3210 O   0  0  0  0  0  0  0  0  0  0  0  0
   45.7790   27.3370   34.8380 O   0  0  0  0  0  0  0  0  0  0  0  0
   46.7740   24.9200   38.6710 N   0  0  0  0  0  0  0  0  0  0  0  0
   46.8260   24.9740   37.3570 N   0  0  0  0  0  0  0  0  0  0  0  0
   45.7330   25.5990   36.8700 C   0  0  0  0  0  0  0  0  0  0  0  0
   44.9930   25.9320   37.9880 C   0  0  0  0  0  0  0  0  0  0  0  0
   45.6310   25.5140   39.1170 C   0  0  0  0  0  0  0  0  0  0  0  0
   39.1240   25.6910   34.0360 S   0  0  0  0  0  0  0  0  0  0  0  0
   38.4100   24.2400   34.7650 C   0  0  0  0  0  0  0  0  0  0  0  0
   38.3220   24.0640   36.1660 C   0  0  0  0  0  0  0  0  0  0  0  0
   37.7550   22.9110   36.6500 C   0  0  0  0  0  0  0  0  0  0  0  0
   37.3080   21.9980   35.7750 N   0  0  0  0  0  0  0  0  0  0  0  0
   37.4030   22.1890   34.4360 C   0  0  0  0  0  0  0  0  0  0  0  0
   37.9510   23.3050   33.9520 N   0  0  0  0  0  0  0  0  0  0  0  0
   36.8860   21.1340   33.5700 C   0  0  0  0  0  0  0  0  0  0  0  0
   35.6600   20.5330   33.8510 C   0  0  0  0  0  0  0  0  0  0  0  0
   35.4110   19.5670   32.8740 C   0  0  0  0  0  0  0  0  0  0  0  0
   36.4740   19.6140   32.0490 N   0  0  0  0  0  0  0  0  0  0  0  0
   37.3500   20.5250   32.4400 N   0  0  0  0  0  0  0  0  0  0  0  0
   43.4044   23.8786   35.7664 H   0  0  0  0  0  0  0  0  0  0  0  0
   40.9945   23.7152   35.3496 H   0  0  0  0  0  0  0  0  0  0  0  0
   41.0214   27.6123   33.5169 H   0  0  0  0  0  0  0  0  0  0  0  0
   43.4609   27.7444   33.9520 H   0  0  0  0  0  0  0  0  0  0  0  0
   47.4913   24.4919   39.2736 H   0  0  0  0  0  0  0  0  0  0  0  0
   44.0276   26.4588   37.9694 H   0  0  0  0  0  0  0  0  0  0  0  0
   45.2973   25.6302   40.1587 H   0  0  0  0  0  0  0  0  0  0  0  0
   38.7001   24.8350   36.8534 H   0  0  0  0  0  0  0  0  0  0  0  0
   37.6691   22.7395   37.7332 H   0  0  0  0  0  0  0  0  0  0  0  0
   35.0015   20.7778   34.6974 H   0  0  0  0  0  0  0  0  0  0  0  0
   34.5336   18.9082   32.7952 H   0  0  0  0  0  0  0  0  0  0  0  0
   36.5905   19.0162   31.2184 H   0  0  0  0  0  0  0  0  0  0  0  0
  1  7  1  0
  1  2  2  0
  3  2  1  0
  4  3  2  0
  5  6  2  0
  5  4  1  0
  6  1  1  0
  7 12  1  0
  8  7  2  0
  9  7  2  0
 10 14  1  0
 11 10  1  0
 12 11  2  0
 12 13  1  0
 13 14  2  0
 15  4  1  0
 15 16  1  0
 16 17  2  0
 17 18  1  0
 19 18  2  0
 20 19  1  0
 21 20  2  0
 21 16  1  0
 22 23  1  0
 22 20  1  0
 24 23  2  0
 25 26  1  0
 25 24  1  0
 26 22  2  0
  2 27  1  0
  3 28  1  0
  5 29  1  0
  6 30  1  0
 10 31  1  0
 13 32  1  0
 14 33  1  0
 17 34  1  0
 18 35  1  0
 23 36  1  0
 24 37  1  0
 25 38  1  0
M  ISO  8  27  14  28  14  29  14  30  14  31   9  32  14  33  14  34  14
M  ISO  4  35  14  36  14  37  14  38   9
M  END
>  <minimizedAffinity>  (1) 
-5.40584946

>  <minimizedRMSD>  (1) 
1.28892434

$$$$
