
     RDKit          3D

 33 35  0  0  0  0  0  0  0  0999 V2000
   43.6580   25.6930   34.9770 C   0  0  0  0  0  0  0  0  0  0  0  0
   43.0380   24.5270   35.3970 C   0  0  0  0  0  0  0  0  0  0  0  0
   41.7100   24.2940   35.1760 C   0  0  0  0  0  0  0  0  0  0  0  0
   40.9410   25.2430   34.5130 C   0  0  0  0  0  0  0  0  0  0  0  0
   41.5140   26.4100   34.0800 C   0  0  0  0  0  0  0  0  0  0  0  0
   42.8600   26.6160   34.3190 C   0  0  0  0  0  0  0  0  0  0  0  0
   45.3410   25.9640   35.2690 S   0  0  0  0  0  0  0  0  0  0  0  0
   46.1390   25.1010   34.3550 O   0  0  0  0  0  0  0  0  0  0  0  0
   45.6460   27.4360   35.0070 O   0  0  0  0  0  0  0  0  0  0  0  0
   46.9030   24.8750   38.6740 N   0  0  0  0  0  0  0  0  0  0  0  0
   46.9220   24.9460   37.3480 N   0  0  0  0  0  0  0  0  0  0  0  0
   45.8120   25.5970   36.9240 C   0  0  0  0  0  0  0  0  0  0  0  0
   45.1300   25.9090   38.0770 C   0  0  0  0  0  0  0  0  0  0  0  0
   45.7960   25.4670   39.1700 C   0  0  0  0  0  0  0  0  0  0  0  0
   39.1990   25.0990   34.1430 S   0  0  0  0  0  0  0  0  0  0  0  0
   38.4330   24.3440   35.5540 C   0  0  0  0  0  0  0  0  0  0  0  0
   38.3940   24.9880   36.8120 C   0  0  0  0  0  0  0  0  0  0  0  0
   37.7740   24.3190   37.8540 C   0  0  0  0  0  0  0  0  0  0  0  0
   37.2400   23.0950   37.6230 N   0  0  0  0  0  0  0  0  0  0  0  0
   37.2980   22.5140   36.4060 C   0  0  0  0  0  0  0  0  0  0  0  0
   37.8940   23.1450   35.3840 N   0  0  0  0  0  0  0  0  0  0  0  0
   36.6920   21.2300   36.3270 N   0  0  0  0  0  0  0  0  0  0  0  0
   43.6327   23.7664   35.9240 H   0  0  0  0  0  0  0  0  0  0  0  0
   41.2501   23.3567   35.5223 H   0  0  0  0  0  0  0  0  0  0  0  0
   40.9152   27.1674   33.5530 H   0  0  0  0  0  0  0  0  0  0  0  0
   43.3180   27.5538   33.9717 H   0  0  0  0  0  0  0  0  0  0  0  0
   47.6339   24.4287   39.2463 H   0  0  0  0  0  0  0  0  0  0  0  0
   44.1707   26.4464   38.1072 H   0  0  0  0  0  0  0  0  0  0  0  0
   45.5012   25.5677   40.2250 H   0  0  0  0  0  0  0  0  0  0  0  0
   38.8394   25.9832   36.9576 H   0  0  0  0  0  0  0  0  0  0  0  0
   37.7158   24.7741   38.8538 H   0  0  0  0  0  0  0  0  0  0  0  0
   36.6909   20.7150   35.4350 H   0  0  0  0  0  0  0  0  0  0  0  0
   36.2541   20.8149   37.1618 H   0  0  0  0  0  0  0  0  0  0  0  0
  1  7  1  0
  1  2  2  0
  3  2  1  0
  4  3  2  0
  5  6  2  0
  5  4  1  0
  6  1  1  0
  7 12  1  0
  8  7  2  0
  9  7  2  0
 10 14  1  0
 11 10  1  0
 12 11  2  0
 12 13  1  0
 13 14  2  0
 15  4  1  0
 15 16  1  0
 16 17  2  0
 17 18  1  0
 19 18  2  0
 20 19  1  0
 21 16  1  0
 21 20  2  0
 22 20  1  0
  2 23  1  0
  3 24  1  0
  5 25  1  0
  6 26  1  0
 10 27  1  0
 13 28  1  0
 14 29  1  0
 17 30  1  0
 18 31  1  0
 22 32  1  0
 22 33  1  0
M  ISO  8  23  14  24  14  25  14  26  14  27   9  28  14  29  14  30  14
M  ISO  1  31  14
M  END
>  <minimizedAffinity>  (1) 
-4.93569613

>  <minimizedRMSD>  (1) 
0.334842026

$$$$
