
     RDKit          3D

 34 36  0  0  0  0  0  0  0  0999 V2000
   43.7050   25.7320   34.9590 C   0  0  0  0  0  0  0  0  0  0  0  0
   43.0180   24.6010   35.3740 C   0  0  0  0  0  0  0  0  0  0  0  0
   41.6880   24.4390   35.1360 C   0  0  0  0  0  0  0  0  0  0  0  0
   40.9680   25.4220   34.4560 C   0  0  0  0  0  0  0  0  0  0  0  0
   41.6050   26.5520   34.0300 C   0  0  0  0  0  0  0  0  0  0  0  0
   42.9650   26.6910   34.2870 C   0  0  0  0  0  0  0  0  0  0  0  0
   45.4010   25.9180   35.2740 S   0  0  0  0  0  0  0  0  0  0  0  0
   46.1560   24.9850   34.3910 O   0  0  0  0  0  0  0  0  0  0  0  0
   45.7810   27.3510   34.9780 O   0  0  0  0  0  0  0  0  0  0  0  0
   46.8540   24.8500   38.7420 N   0  0  0  0  0  0  0  0  0  0  0  0
   46.9020   24.9020   37.4140 N   0  0  0  0  0  0  0  0  0  0  0  0
   45.8210   25.5690   36.9490 C   0  0  0  0  0  0  0  0  0  0  0  0
   45.1080   25.9240   38.0770 C   0  0  0  0  0  0  0  0  0  0  0  0
   45.7460   25.4800   39.1950 C   0  0  0  0  0  0  0  0  0  0  0  0
   39.2310   25.3720   34.0620 S   0  0  0  0  0  0  0  0  0  0  0  0
   38.4380   24.4250   35.3540 C   0  0  0  0  0  0  0  0  0  0  0  0
   38.3700   24.9230   36.6930 C   0  0  0  0  0  0  0  0  0  0  0  0
   37.7340   24.1060   37.6080 C   0  0  0  0  0  0  0  0  0  0  0  0
   37.2190   22.9110   37.2170 N   0  0  0  0  0  0  0  0  0  0  0  0
   37.3140   22.4960   35.9430 C   0  0  0  0  0  0  0  0  0  0  0  0
   37.9180   23.2550   35.0380 N   0  0  0  0  0  0  0  0  0  0  0  0
   36.7410   21.1830   35.5450 C   0  0  0  0  0  0  0  0  0  0  0  0
   43.5642   23.8117   35.9113 H   0  0  0  0  0  0  0  0  0  0  0  0
   41.1776   23.5280   35.4816 H   0  0  0  0  0  0  0  0  0  0  0  0
   41.0530   27.3378   33.4935 H   0  0  0  0  0  0  0  0  0  0  0  0
   43.4751   27.6023   33.9415 H   0  0  0  0  0  0  0  0  0  0  0  0
   47.5591   24.3954   39.3396 H   0  0  0  0  0  0  0  0  0  0  0  0
   44.1615   26.4844   38.0730 H   0  0  0  0  0  0  0  0  0  0  0  0
   45.4289   25.6063   40.2407 H   0  0  0  0  0  0  0  0  0  0  0  0
   38.7975   25.8960   36.9768 H   0  0  0  0  0  0  0  0  0  0  0  0
   37.6443   24.4243   38.6571 H   0  0  0  0  0  0  0  0  0  0  0  0
   36.4887   20.6048   36.4461 H   0  0  0  0  0  0  0  0  0  0  0  0
   35.8320   21.3457   34.9472 H   0  0  0  0  0  0  0  0  0  0  0  0
   37.4784   20.6272   34.9472 H   0  0  0  0  0  0  0  0  0  0  0  0
  1  7  1  0
  1  2  2  0
  3  2  1  0
  4  3  2  0
  5  6  2  0
  5  4  1  0
  6  1  1  0
  7 12  1  0
  8  7  2  0
  9  7  2  0
 10 14  1  0
 11 10  1  0
 12 11  2  0
 12 13  1  0
 13 14  2  0
 15  4  1  0
 15 16  1  0
 16 17  2  0
 17 18  1  0
 19 18  2  0
 20 19  1  0
 21 16  1  0
 21 20  2  0
 22 20  1  0
  2 23  1  0
  3 24  1  0
  5 25  1  0
  6 26  1  0
 10 27  1  0
 13 28  1  0
 14 29  1  0
 17 30  1  0
 18 31  1  0
 22 32  1  0
 22 33  1  0
 22 34  1  0
M  ISO  8  23  14  24  14  25  14  26  14  27   9  28  14  29  14  30  14
M  ISO  4  31  14  32   8  33   8  34   8
M  END
>  <minimizedAffinity>  (1) 
-4.65066195

>  <minimizedRMSD>  (1) 
0.170244545

$$$$
