
     RDKit          3D

 32 34  0  0  0  0  0  0  0  0999 V2000
   39.3180   25.2580   34.4520 N   0  0  0  0  0  0  0  0  0  0  0  0
   40.3950   26.0480   34.4510 C   0  0  0  0  0  0  0  0  0  0  0  0
   40.7220   26.7500   33.2980 C   0  0  0  0  0  0  0  0  0  0  0  0
   39.9220   26.6140   32.1790 C   0  0  0  0  0  0  0  0  0  0  0  0
   40.1270   27.2000   31.0930 O   0  0  0  0  0  0  0  0  0  0  0  0
   38.8390   25.8110   32.2030 N   0  0  0  0  0  0  0  0  0  0  0  0
   38.5540   25.1450   33.3410 C   0  0  0  0  0  0  0  0  0  0  0  0
   37.5480   24.3930   33.3790 O   0  0  0  0  0  0  0  0  0  0  0  0
   38.1690   25.1360   36.5690 C   0  0  0  0  0  0  0  0  0  0  0  0
   39.0690   24.5820   35.6680 C   0  0  0  0  0  0  0  0  0  0  0  0
   39.6880   23.3730   36.0130 C   0  0  0  0  0  0  0  0  0  0  0  0
   39.3660   22.8100   37.2200 N   0  0  0  0  0  0  0  0  0  0  0  0
   38.4990   23.3630   38.0660 C   0  0  0  0  0  0  0  0  0  0  0  0
   37.9080   24.5240   37.7290 N   0  0  0  0  0  0  0  0  0  0  0  0
   38.3510   22.5780   39.2340 N   0  0  0  0  0  0  0  0  0  0  0  0
   41.9110   27.6520   33.1960 C   0  0  0  0  0  0  0  0  0  0  0  0
   43.0900   26.7450   33.2710 C   0  0  0  0  0  0  0  0  0  0  0  0
   44.1550   27.0670   34.0820 C   0  0  0  0  0  0  0  0  0  0  0  0
   45.1530   26.1240   34.0320 C   0  0  0  0  0  0  0  0  0  0  0  0
   44.6070   25.2080   33.1250 C   0  0  0  0  0  0  0  0  0  0  0  0
   43.4230   25.6010   32.7130 O   0  0  0  0  0  0  0  0  0  0  0  0
   41.0164   26.1417   35.3538 H   0  0  0  0  0  0  0  0  0  0  0  0
   38.2419   25.7083   31.3700 H   0  0  0  0  0  0  0  0  0  0  0  0
   37.6675   26.0846   36.3268 H   0  0  0  0  0  0  0  0  0  0  0  0
   40.4093   22.8914   35.3365 H   0  0  0  0  0  0  0  0  0  0  0  0
   37.7103   22.8819   39.9810 H   0  0  0  0  0  0  0  0  0  0  0  0
   38.8840   21.7027   39.3372 H   0  0  0  0  0  0  0  0  0  0  0  0
   41.9231   28.3715   34.0280 H   0  0  0  0  0  0  0  0  0  0  0  0
   41.9028   28.2434   32.2685 H   0  0  0  0  0  0  0  0  0  0  0  0
   44.2016   27.9759   34.6998 H   0  0  0  0  0  0  0  0  0  0  0  0
   46.1174   26.0963   34.5603 H   0  0  0  0  0  0  0  0  0  0  0  0
   45.1036   24.2818   32.8002 H   0  0  0  0  0  0  0  0  0  0  0  0
  1 10  1  0
  2  1  1  0
  3  2  2  0
  4  6  1  0
  4  3  1  0
  5  4  2  0
  6  7  1  0
  7  8  2  0
  7  1  1  0
  9 14  2  0
 10 11  2  0
 10  9  1  0
 11 12  1  0
 12 13  2  0
 13 15  1  0
 14 13  1  0
 16 17  1  0
 16  3  1  0
 17 18  2  0
 19 18  1  0
 20 19  2  0
 21 20  1  0
 21 17  1  0
  2 22  1  0
  6 23  1  0
  9 24  1  0
 11 25  1  0
 15 26  1  0
 15 27  1  0
 16 28  1  0
 16 29  1  0
 18 30  1  0
 19 31  1  0
 20 32  1  0
M  ISO  8  22  14  23   9  24  14  25  14  28   8  29   8  30  14  31  14
M  ISO  1  32  14
M  END
>  <minimizedAffinity>  (1) 
-4.45087862

>  <minimizedRMSD>  (1) 
0.87329191

$$$$
