
     RDKit          3D

 36 39  0  0  0  0  0  0  0  0999 V2000
   39.9450   22.4980   36.8810 C   0  0  0  0  0  0  0  0  0  0  0  0
   39.3840   23.2130   37.9550 C   0  0  0  0  0  0  0  0  0  0  0  0
   37.9910   23.3850   37.9560 C   0  0  0  0  0  0  0  0  0  0  0  0
   37.2670   22.8660   36.9450 N   0  0  0  0  0  0  0  0  0  0  0  0
   37.8280   22.1810   35.9200 C   0  0  0  0  0  0  0  0  0  0  0  0
   39.1680   22.0020   35.8980 N   0  0  0  0  0  0  0  0  0  0  0  0
   37.0140   21.6530   34.8780 N   0  0  0  0  0  0  0  0  0  0  0  0
   37.3170   21.9170   33.6050 C   0  0  0  0  0  0  0  0  0  0  0  0
   36.5240   21.4050   32.5890 C   0  0  0  0  0  0  0  0  0  0  0  0
   36.7790   21.6420   31.1350 C   0  0  0  0  0  0  0  0  0  0  0  0
   35.4390   20.6290   32.9800 C   0  0  0  0  0  0  0  0  0  0  0  0
   34.7010   20.1500   32.0810 O   0  0  0  0  0  0  0  0  0  0  0  0
   35.1340   20.3630   34.2610 N   0  0  0  0  0  0  0  0  0  0  0  0
   35.9540   20.8990   35.1930 C   0  0  0  0  0  0  0  0  0  0  0  0
   35.6900   20.6650   36.4090 O   0  0  0  0  0  0  0  0  0  0  0  0
   41.3520   22.2690   36.7880 N   0  0  0  0  0  0  0  0  0  0  0  0
   42.0040   21.1730   37.2200 C   0  0  0  0  0  0  0  0  0  0  0  0
   43.3180   21.3600   36.9400 N   0  0  0  0  0  0  0  0  0  0  0  0
   43.4490   22.5480   36.3490 C   0  0  0  0  0  0  0  0  0  0  0  0
   44.5010   23.2850   35.8430 C   0  0  0  0  0  0  0  0  0  0  0  0
   44.3290   24.5240   35.2720 N   0  0  0  0  0  0  0  0  0  0  0  0
   43.0760   25.0570   35.1980 C   0  0  0  0  0  0  0  0  0  0  0  0
   42.0210   24.3650   35.6830 N   0  0  0  0  0  0  0  0  0  0  0  0
   42.2220   23.1490   36.2380 C   0  0  0  0  0  0  0  0  0  0  0  0
   45.8190   22.7540   35.9020 N   0  0  0  0  0  0  0  0  0  0  0  0
   40.0116   23.6207   38.7612 H   0  0  0  0  0  0  0  0  0  0  0  0
   37.4974   23.9356   38.7704 H   0  0  0  0  0  0  0  0  0  0  0  0
   38.1920   22.5381   33.3629 H   0  0  0  0  0  0  0  0  0  0  0  0
   37.5803   22.3867   31.0199 H   0  0  0  0  0  0  0  0  0  0  0  0
   37.0836   20.6989   30.6577 H   0  0  0  0  0  0  0  0  0  0  0  0
   35.8607   22.0147   30.6577 H   0  0  0  0  0  0  0  0  0  0  0  0
   34.3220   19.7839   34.5185 H   0  0  0  0  0  0  0  0  0  0  0  0
   41.5566   20.2940   37.7069 H   0  0  0  0  0  0  0  0  0  0  0  0
   42.9242   26.0477   34.7447 H   0  0  0  0  0  0  0  0  0  0  0  0
   46.6101   23.2966   35.5270 H   0  0  0  0  0  0  0  0  0  0  0  0
   45.9825   21.8268   36.3197 H   0  0  0  0  0  0  0  0  0  0  0  0
  1  2  2  0
  2  3  1  0
  4  3  2  0
  5  4  1  0
  6  5  2  0
  6  1  1  0
  7 14  1  0
  7  5  1  0
  8  7  1  0
  9 11  1  0
  9  8  2  0
 10  9  1  0
 11 13  1  0
 12 11  2  0
 13 14  1  0
 14 15  2  0
 16  1  1  0
 16 17  1  0
 18 17  2  0
 19 18  1  0
 20 25  1  0
 20 19  2  0
 21 20  1  0
 22 21  2  0
 22 23  1  0
 23 24  2  0
 24 19  1  0
 24 16  1  0
  2 26  1  0
  3 27  1  0
  8 28  1  0
 10 29  1  0
 10 30  1  0
 10 31  1  0
 13 32  1  0
 17 33  1  0
 22 34  1  0
 25 35  1  0
 25 36  1  0
M  ISO  8  26  14  27  14  28  14  29   8  30   8  31   8  32   9  33  14
M  ISO  1  34  14
M  END
>  <minimizedAffinity>  (1) 
-6.33809233

>  <minimizedRMSD>  (1) 
1.42308676

$$$$
