
     RDKit          3D

 37 41  0  0  0  0  0  0  0  0999 V2000
   39.8570   22.5410   36.9150 C   0  0  0  0  0  0  0  0  0  0  0  0
   39.3040   23.2290   38.0320 C   0  0  0  0  0  0  0  0  0  0  0  0
   37.9060   23.3670   38.0670 C   0  0  0  0  0  0  0  0  0  0  0  0
   37.1720   22.8460   37.0540 N   0  0  0  0  0  0  0  0  0  0  0  0
   37.7300   22.1970   36.0070 C   0  0  0  0  0  0  0  0  0  0  0  0
   39.0700   22.0580   35.9610 N   0  0  0  0  0  0  0  0  0  0  0  0
   36.9460   21.6540   34.9500 N   0  0  0  0  0  0  0  0  0  0  0  0
   35.8760   20.8440   35.0320 C   0  0  0  0  0  0  0  0  0  0  0  0
   35.4140   20.5500   33.7980 N   0  0  0  0  0  0  0  0  0  0  0  0
   36.2060   21.1880   32.9230 C   0  0  0  0  0  0  0  0  0  0  0  0
   36.1460   21.2050   31.5380 C   0  0  0  0  0  0  0  0  0  0  0  0
   35.2540   20.5610   30.9110 O   0  0  0  0  0  0  0  0  0  0  0  0
   37.0460   21.9170   30.8230 N   0  0  0  0  0  0  0  0  0  0  0  0
   37.9690   22.5810   31.5480 C   0  0  0  0  0  0  0  0  0  0  0  0
   38.9850   23.3760   30.9480 N   0  0  0  0  0  0  0  0  0  0  0  0
   38.0580   22.5870   32.9070 N   0  0  0  0  0  0  0  0  0  0  0  0
   37.1650   21.8790   33.6370 C   0  0  0  0  0  0  0  0  0  0  0  0
   41.2590   22.3530   36.7940 N   0  0  0  0  0  0  0  0  0  0  0  0
   41.9630   21.2810   37.2310 C   0  0  0  0  0  0  0  0  0  0  0  0
   43.2590   21.5030   36.9170 N   0  0  0  0  0  0  0  0  0  0  0  0
   43.3460   22.6750   36.3080 C   0  0  0  0  0  0  0  0  0  0  0  0
   44.3630   23.4420   35.7620 C   0  0  0  0  0  0  0  0  0  0  0  0
   44.1450   24.6530   35.1800 N   0  0  0  0  0  0  0  0  0  0  0  0
   42.8800   25.1470   35.1230 C   0  0  0  0  0  0  0  0  0  0  0  0
   41.8480   24.4430   35.6400 N   0  0  0  0  0  0  0  0  0  0  0  0
   42.0940   23.2590   36.2040 C   0  0  0  0  0  0  0  0  0  0  0  0
   45.6970   22.9610   35.8000 N   0  0  0  0  0  0  0  0  0  0  0  0
   39.9420   23.6341   38.8313 H   0  0  0  0  0  0  0  0  0  0  0  0
   37.4160   23.8889   38.9022 H   0  0  0  0  0  0  0  0  0  0  0  0
   35.4391   20.4735   35.9711 H   0  0  0  0  0  0  0  0  0  0  0  0
   37.0278   21.9500   29.7937 H   0  0  0  0  0  0  0  0  0  0  0  0
   39.6709   23.8671   31.5390 H   0  0  0  0  0  0  0  0  0  0  0  0
   39.0346   23.4605   29.9227 H   0  0  0  0  0  0  0  0  0  0  0  0
   41.5567   20.3970   37.7443 H   0  0  0  0  0  0  0  0  0  0  0  0
   42.6950   26.1246   34.6538 H   0  0  0  0  0  0  0  0  0  0  0  0
   46.4592   23.5242   35.3967 H   0  0  0  0  0  0  0  0  0  0  0  0
   45.9034   22.0485   36.2309 H   0  0  0  0  0  0  0  0  0  0  0  0
  1  2  2  0
  2  3  1  0
  4  3  2  0
  5  4  1  0
  6  5  2  0
  6  1  1  0
  7  8  1  0
  7  5  1  0
  9  8  2  0
 10 17  2  0
 10  9  1  0
 11 10  1  0
 12 11  2  0
 13 11  1  0
 13 14  1  0
 14 16  2  0
 15 14  1  0
 16 17  1  0
 17  7  1  0
 18  1  1  0
 18 19  1  0
 20 19  2  0
 21 20  1  0
 22 27  1  0
 22 21  2  0
 23 22  1  0
 24 23  2  0
 24 25  1  0
 25 26  2  0
 26 21  1  0
 26 18  1  0
  2 28  1  0
  3 29  1  0
  8 30  1  0
 13 31  1  0
 15 32  1  0
 15 33  1  0
 19 34  1  0
 24 35  1  0
 27 36  1  0
 27 37  1  0
M  ISO  6  28  14  29  14  30  14  31   9  34  14  35  14
M  END
>  <minimizedAffinity>  (1) 
-6.13684988

>  <minimizedRMSD>  (1) 
1.26964819

$$$$
