
     RDKit          3D

 39 43  0  0  0  0  0  0  0  0999 V2000
   39.8860   22.5280   36.9300 C   0  0  0  0  0  0  0  0  0  0  0  0
   39.4090   23.1830   38.0710 C   0  0  0  0  0  0  0  0  0  0  0  0
   38.0210   23.4260   38.1070 C   0  0  0  0  0  0  0  0  0  0  0  0
   37.2500   23.0320   37.0830 N   0  0  0  0  0  0  0  0  0  0  0  0
   37.7250   22.4030   35.9930 C   0  0  0  0  0  0  0  0  0  0  0  0
   39.0460   22.1830   35.9790 N   0  0  0  0  0  0  0  0  0  0  0  0
   41.2770   22.2180   36.7720 N   0  0  0  0  0  0  0  0  0  0  0  0
   41.8810   21.0680   37.1820 C   0  0  0  0  0  0  0  0  0  0  0  0
   43.1940   21.1750   36.8520 N   0  0  0  0  0  0  0  0  0  0  0  0
   43.3690   22.3570   36.2620 C   0  0  0  0  0  0  0  0  0  0  0  0
   44.4410   23.0370   35.7150 C   0  0  0  0  0  0  0  0  0  0  0  0
   44.3210   24.2850   35.1550 N   0  0  0  0  0  0  0  0  0  0  0  0
   43.1070   24.8900   35.1290 C   0  0  0  0  0  0  0  0  0  0  0  0
   42.0250   24.2640   35.6530 N   0  0  0  0  0  0  0  0  0  0  0  0
   42.1740   23.0460   36.1930 C   0  0  0  0  0  0  0  0  0  0  0  0
   45.7240   22.4450   35.7400 N   0  0  0  0  0  0  0  0  0  0  0  0
   37.0420   21.9110   34.8020 C   0  0  0  0  0  0  0  0  0  0  0  0
   36.1890   20.8000   34.8300 C   0  0  0  0  0  0  0  0  0  0  0  0
   35.5350   20.3190   33.7270 C   0  0  0  0  0  0  0  0  0  0  0  0
   35.6950   20.9290   32.5050 C   0  0  0  0  0  0  0  0  0  0  0  0
   36.5120   22.0140   32.4160 C   0  0  0  0  0  0  0  0  0  0  0  0
   36.6510   22.6020   31.1780 C   0  0  0  0  0  0  0  0  0  0  0  0
   37.4630   23.7040   31.0150 C   0  0  0  0  0  0  0  0  0  0  0  0
   38.1240   24.1840   32.1500 C   0  0  0  0  0  0  0  0  0  0  0  0
   37.9430   23.5530   33.3610 C   0  0  0  0  0  0  0  0  0  0  0  0
   37.1450   22.4580   33.5490 C   0  0  0  0  0  0  0  0  0  0  0  0
   40.0765   23.4895   38.8898 H   0  0  0  0  0  0  0  0  0  0  0  0
   37.5721   23.9368   38.9716 H   0  0  0  0  0  0  0  0  0  0  0  0
   41.3982   20.2165   37.6838 H   0  0  0  0  0  0  0  0  0  0  0  0
   43.0007   25.8895   34.6822 H   0  0  0  0  0  0  0  0  0  0  0  0
   46.5292   22.9436   35.3350 H   0  0  0  0  0  0  0  0  0  0  0  0
   45.8539   21.5150   36.1632 H   0  0  0  0  0  0  0  0  0  0  0  0
   36.0362   20.2859   35.7904 H   0  0  0  0  0  0  0  0  0  0  0  0
   34.8789   19.4409   33.8190 H   0  0  0  0  0  0  0  0  0  0  0  0
   35.1723   20.5471   31.6157 H   0  0  0  0  0  0  0  0  0  0  0  0
   36.1103   22.1893   30.3135 H   0  0  0  0  0  0  0  0  0  0  0  0
   37.5858   24.1854   30.0336 H   0  0  0  0  0  0  0  0  0  0  0  0
   38.7847   25.0604   32.0762 H   0  0  0  0  0  0  0  0  0  0  0  0
   38.4755   23.9564   34.2349 H   0  0  0  0  0  0  0  0  0  0  0  0
  1  2  2  0
  2  3  1  0
  4  3  2  0
  5  4  1  0
  6  5  2  0
  6  1  1  0
  7  1  1  0
  7  8  1  0
  9  8  2  0
 10  9  1  0
 11 16  1  0
 11 10  2  0
 12 11  1  0
 13 12  2  0
 13 14  1  0
 14 15  2  0
 15 10  1  0
 15  7  1  0
 17 18  2  0
 17  5  1  0
 19 18  1  0
 20 19  2  0
 21 20  1  0
 21 26  2  0
 22 21  1  0
 23 22  2  0
 23 24  1  0
 24 25  2  0
 25 26  1  0
 26 17  1  0
  2 27  1  0
  3 28  1  0
  8 29  1  0
 13 30  1  0
 16 31  1  0
 16 32  1  0
 18 33  1  0
 19 34  1  0
 20 35  1  0
 22 36  1  0
 23 37  1  0
 24 38  1  0
 25 39  1  0
M  ISO  8  27  14  28  14  29  14  30  14  33  14  34  14  35  14  36  14
M  ISO  3  37  14  38  14  39  14
M  END
>  <minimizedAffinity>  (1) 
-6.13421965

>  <minimizedRMSD>  (1) 
1.87950301

$$$$
