
     RDKit          3D

 39 42  0  0  0  0  0  0  0  0999 V2000
   40.5680   24.1670   35.4520 N   0  0  0  0  0  0  0  0  0  0  0  0
   41.7960   23.7890   35.8600 C   0  0  0  0  0  0  0  0  0  0  0  0
   42.6670   24.7350   35.4120 N   0  0  0  0  0  0  0  0  0  0  0  0
   41.9680   25.6610   34.7480 C   0  0  0  0  0  0  0  0  0  0  0  0
   42.2820   26.8300   34.0830 C   0  0  0  0  0  0  0  0  0  0  0  0
   41.3250   27.6000   33.4750 N   0  0  0  0  0  0  0  0  0  0  0  0
   40.0270   27.2130   33.5220 C   0  0  0  0  0  0  0  0  0  0  0  0
   39.6690   26.0720   34.1630 N   0  0  0  0  0  0  0  0  0  0  0  0
   40.6310   25.3380   34.7490 C   0  0  0  0  0  0  0  0  0  0  0  0
   39.3400   23.4680   35.6990 C   0  0  0  0  0  0  0  0  0  0  0  0
   38.7220   23.4990   36.9770 C   0  0  0  0  0  0  0  0  0  0  0  0
   37.5240   22.7910   37.1360 C   0  0  0  0  0  0  0  0  0  0  0  0
   37.0260   22.1150   36.0570 N   0  0  0  0  0  0  0  0  0  0  0  0
   37.6410   22.1080   34.8570 C   0  0  0  0  0  0  0  0  0  0  0  0
   38.7970   22.7820   34.6760 N   0  0  0  0  0  0  0  0  0  0  0  0
   37.0500   21.3540   33.7190 C   0  0  0  0  0  0  0  0  0  0  0  0
   36.7400   22.3050   32.5650 C   0  0  0  0  0  0  0  0  0  0  0  0
   36.4900   21.4480   31.3360 C   0  0  0  0  0  0  0  0  0  0  0  0
   35.2530   20.6170   31.6090 C   0  0  0  0  0  0  0  0  0  0  0  0
   35.3240   19.8520   32.8910 C   0  0  0  0  0  0  0  0  0  0  0  0
   35.7770   20.6510   34.0680 C   0  0  0  0  0  0  0  0  0  0  0  0
   43.6270   27.2640   34.0140 N   0  0  0  0  0  0  0  0  0  0  0  0
   42.0461   22.8900   36.4424 H   0  0  0  0  0  0  0  0  0  0  0  0
   39.2566   27.8296   33.0360 H   0  0  0  0  0  0  0  0  0  0  0  0
   39.1681   24.0589   37.8122 H   0  0  0  0  0  0  0  0  0  0  0  0
   36.9984   22.7792   38.1022 H   0  0  0  0  0  0  0  0  0  0  0  0
   37.8012   20.5999   33.4415 H   0  0  0  0  0  0  0  0  0  0  0  0
   35.8456   22.9017   32.7974 H   0  0  0  0  0  0  0  0  0  0  0  0
   37.5754   23.0000   32.3948 H   0  0  0  0  0  0  0  0  0  0  0  0
   37.3526   20.7901   31.1542 H   0  0  0  0  0  0  0  0  0  0  0  0
   36.3470   22.0775   30.4453 H   0  0  0  0  0  0  0  0  0  0  0  0
   34.3835   21.2894   31.6517 H   0  0  0  0  0  0  0  0  0  0  0  0
   35.1695   19.8813   30.7955 H   0  0  0  0  0  0  0  0  0  0  0  0
   34.3213   19.4565   33.1104 H   0  0  0  0  0  0  0  0  0  0  0  0
   36.0762   19.0633   32.7418 H   0  0  0  0  0  0  0  0  0  0  0  0
   35.9481   19.9818   34.9241 H   0  0  0  0  0  0  0  0  0  0  0  0
   35.0062   21.3890   34.3348 H   0  0  0  0  0  0  0  0  0  0  0  0
   43.8621   28.1357   33.5183 H   0  0  0  0  0  0  0  0  0  0  0  0
   44.3710   26.7082   34.4595 H   0  0  0  0  0  0  0  0  0  0  0  0
  1 10  1  0
  1  2  1  0
  3  2  2  0
  4  9  2  0
  4  3  1  0
  5  4  1  0
  6  7  1  0
  6  5  2  0
  7  8  2  0
  8  9  1  0
  9  1  1  0
 10 11  2  0
 11 12  1  0
 13 12  2  0
 14 13  1  0
 15 14  2  0
 15 10  1  0
 16 21  1  0
 16 14  1  0
 17 16  1  0
 18 19  1  0
 18 17  1  0
 19 20  1  0
 20 21  1  0
 22  5  1  0
  2 23  1  0
  7 24  1  0
 11 25  1  0
 12 26  1  0
 16 27  1  0
 17 28  1  0
 17 29  1  0
 18 30  1  0
 18 31  1  0
 19 32  1  0
 19 33  1  0
 20 34  1  0
 20 35  1  0
 21 36  1  0
 21 37  1  0
 22 38  1  0
 22 39  1  0
M  ISO  8  23  14  24  14  25  14  26  14  27  13  28  13  29  13  30  13
M  ISO  7  31  13  32  13  33  13  34  13  35  13  36  13  37  13
M  END
>  <minimizedAffinity>  (1) 
-5.58065462

>  <minimizedRMSD>  (1) 
1.45877814

$$$$
