
     RDKit          3D

 30 33  0  0  0  0  0  0  0  0999 V2000
   37.8880   25.2070   34.7420 N   0  0  0  0  0  0  0  0  0  0  0  0
   37.7280   26.5600   34.7240 C   0  0  0  0  0  0  0  0  0  0  0  0
   37.2870   26.8690   33.4720 N   0  0  0  0  0  0  0  0  0  0  0  0
   37.1890   25.7420   32.7700 C   0  0  0  0  0  0  0  0  0  0  0  0
   36.8110   25.4050   31.4830 C   0  0  0  0  0  0  0  0  0  0  0  0
   36.8110   24.1100   31.0250 N   0  0  0  0  0  0  0  0  0  0  0  0
   37.1990   23.1030   31.8650 C   0  0  0  0  0  0  0  0  0  0  0  0
   37.5740   23.3830   33.1270 N   0  0  0  0  0  0  0  0  0  0  0  0
   37.5610   24.6720   33.5440 C   0  0  0  0  0  0  0  0  0  0  0  0
   38.3380   24.4440   35.8660 C   0  0  0  0  0  0  0  0  0  0  0  0
   37.5280   24.3420   37.0360 C   0  0  0  0  0  0  0  0  0  0  0  0
   38.0300   23.5830   38.0980 C   0  0  0  0  0  0  0  0  0  0  0  0
   39.2530   22.9880   37.9580 N   0  0  0  0  0  0  0  0  0  0  0  0
   39.9960   23.1120   36.8140 C   0  0  0  0  0  0  0  0  0  0  0  0
   39.5250   23.8390   35.7870 N   0  0  0  0  0  0  0  0  0  0  0  0
   41.2970   22.4520   36.7220 C   0  0  0  0  0  0  0  0  0  0  0  0
   42.4990   22.9720   36.3010 C   0  0  0  0  0  0  0  0  0  0  0  0
   43.4520   21.9630   36.3900 C   0  0  0  0  0  0  0  0  0  0  0  0
   42.7530   20.8560   36.8760 C   0  0  0  0  0  0  0  0  0  0  0  0
   41.5200   21.1970   37.0480 O   0  0  0  0  0  0  0  0  0  0  0  0
   36.3980   26.4290   30.5870 N   0  0  0  0  0  0  0  0  0  0  0  0
   37.9164   27.2601   35.5513 H   0  0  0  0  0  0  0  0  0  0  0  0
   37.2046   22.0623   31.5087 H   0  0  0  0  0  0  0  0  0  0  0  0
   36.5491   24.8397   37.1001 H   0  0  0  0  0  0  0  0  0  0  0  0
   37.4526   23.4671   39.0271 H   0  0  0  0  0  0  0  0  0  0  0  0
   42.6749   24.0015   35.9558 H   0  0  0  0  0  0  0  0  0  0  0  0
   44.5201   22.0235   36.1342 H   0  0  0  0  0  0  0  0  0  0  0  0
   43.1803   19.8627   37.0778 H   0  0  0  0  0  0  0  0  0  0  0  0
   36.1144   26.1892   29.6263 H   0  0  0  0  0  0  0  0  0  0  0  0
   36.3824   27.4106   30.8987 H   0  0  0  0  0  0  0  0  0  0  0  0
  1 10  1  0
  2  1  1  0
  3  2  2  0
  4  3  1  0
  4  9  2  0
  5  4  1  0
  6  5  2  0
  6  7  1  0
  7  8  2  0
  8  9  1  0
  9  1  1  0
 10 11  2  0
 11 12  1  0
 13 12  2  0
 14 13  1  0
 15 10  1  0
 15 14  2  0
 16 14  1  0
 16 20  1  0
 17 18  1  0
 17 16  2  0
 18 19  2  0
 19 20  1  0
 21  5  1  0
  2 22  1  0
  7 23  1  0
 11 24  1  0
 12 25  1  0
 17 26  1  0
 18 27  1  0
 19 28  1  0
 21 29  1  0
 21 30  1  0
M  ISO  7  22  14  23  14  24  14  25  14  26  14  27  14  28  14
M  END
>  <minimizedAffinity>  (1) 
-5.4482708

>  <minimizedRMSD>  (1) 
5.68545771

$$$$
