
     RDKit          3D

 32 35  0  0  0  0  0  0  0  0999 V2000
   39.8930   22.5210   36.7340 C   0  0  0  0  0  0  0  0  0  0  0  0
   39.2790   23.1290   37.8470 C   0  0  0  0  0  0  0  0  0  0  0  0
   37.8870   23.2710   37.8250 C   0  0  0  0  0  0  0  0  0  0  0  0
   37.2100   22.8190   36.7400 N   0  0  0  0  0  0  0  0  0  0  0  0
   37.8260   22.2410   35.6880 C   0  0  0  0  0  0  0  0  0  0  0  0
   39.1760   22.0890   35.6830 N   0  0  0  0  0  0  0  0  0  0  0  0
   41.3150   22.3380   36.6800 N   0  0  0  0  0  0  0  0  0  0  0  0
   42.0000   21.2700   37.1230 C   0  0  0  0  0  0  0  0  0  0  0  0
   43.3110   21.5130   36.8760 N   0  0  0  0  0  0  0  0  0  0  0  0
   43.4140   22.6980   36.2990 C   0  0  0  0  0  0  0  0  0  0  0  0
   44.4510   23.4830   35.8190 C   0  0  0  0  0  0  0  0  0  0  0  0
   44.2530   24.7130   35.2500 N   0  0  0  0  0  0  0  0  0  0  0  0
   42.9860   25.1910   35.1470 C   0  0  0  0  0  0  0  0  0  0  0  0
   41.9310   24.4760   35.5950 N   0  0  0  0  0  0  0  0  0  0  0  0
   42.1610   23.2720   36.1480 C   0  0  0  0  0  0  0  0  0  0  0  0
   45.7840   23.0070   35.9140 N   0  0  0  0  0  0  0  0  0  0  0  0
   37.0270   21.7800   34.5580 C   0  0  0  0  0  0  0  0  0  0  0  0
   36.0810   20.7920   34.7340 C   0  0  0  0  0  0  0  0  0  0  0  0
   35.3170   20.3510   33.6560 C   0  0  0  0  0  0  0  0  0  0  0  0
   35.5930   20.9810   32.4400 C   0  0  0  0  0  0  0  0  0  0  0  0
   36.5510   21.9790   32.2700 C   0  0  0  0  0  0  0  0  0  0  0  0
   37.2460   22.3490   33.3570 N   0  0  0  0  0  0  0  0  0  0  0  0
   39.8733   23.4799   38.7036 H   0  0  0  0  0  0  0  0  0  0  0  0
   37.3549   23.7378   38.6670 H   0  0  0  0  0  0  0  0  0  0  0  0
   41.5780   20.3708   37.5955 H   0  0  0  0  0  0  0  0  0  0  0  0
   42.8159   26.1774   34.6909 H   0  0  0  0  0  0  0  0  0  0  0  0
   46.5624   23.5816   35.5607 H   0  0  0  0  0  0  0  0  0  0  0  0
   45.9734   22.0868   36.3362 H   0  0  0  0  0  0  0  0  0  0  0  0
   35.9292   20.3503   35.7299 H   0  0  0  0  0  0  0  0  0  0  0  0
   34.5534   19.5654   33.7548 H   0  0  0  0  0  0  0  0  0  0  0  0
   35.0155   20.6684   31.5575 H   0  0  0  0  0  0  0  0  0  0  0  0
   36.7295   22.4428   31.2886 H   0  0  0  0  0  0  0  0  0  0  0  0
  1  2  2  0
  3  2  1  0
  4  3  2  0
  5  4  1  0
  6  5  2  0
  6  1  1  0
  7  1  1  0
  7  8  1  0
  9  8  2  0
 10  9  1  0
 11 16  1  0
 11 10  2  0
 12 11  1  0
 13 12  2  0
 13 14  1  0
 14 15  2  0
 15 10  1  0
 15  7  1  0
 17 18  2  0
 17  5  1  0
 19 18  1  0
 20 19  2  0
 21 20  1  0
 21 22  2  0
 22 17  1  0
  2 23  1  0
  3 24  1  0
  8 25  1  0
 13 26  1  0
 16 27  1  0
 16 28  1  0
 18 29  1  0
 19 30  1  0
 20 31  1  0
 21 32  1  0
M  ISO  8  23  14  24  14  25  14  26  14  29  14  30  14  31  14  32  14
M  END
>  <minimizedAffinity>  (1) 
-5.26102066

>  <minimizedRMSD>  (1) 
1.44392288

$$$$
