
     RDKit          3D

 30 33  0  0  0  0  0  0  0  0999 V2000
   41.1790   22.3600   36.7130 N   0  0  0  0  0  0  0  0  0  0  0  0
   41.8890   21.3010   37.1780 C   0  0  0  0  0  0  0  0  0  0  0  0
   43.1950   21.5510   36.8850 N   0  0  0  0  0  0  0  0  0  0  0  0
   43.2680   22.7280   36.2600 C   0  0  0  0  0  0  0  0  0  0  0  0
   44.2800   23.5020   35.7290 C   0  0  0  0  0  0  0  0  0  0  0  0
   44.0480   24.7110   35.1260 N   0  0  0  0  0  0  0  0  0  0  0  0
   42.7640   25.1790   35.0410 C   0  0  0  0  0  0  0  0  0  0  0  0
   41.7450   24.4580   35.5460 N   0  0  0  0  0  0  0  0  0  0  0  0
   42.0020   23.2830   36.1270 C   0  0  0  0  0  0  0  0  0  0  0  0
   39.7700   22.5210   36.8030 C   0  0  0  0  0  0  0  0  0  0  0  0
   39.1600   23.2040   37.8710 C   0  0  0  0  0  0  0  0  0  0  0  0
   37.7690   23.3220   37.8930 C   0  0  0  0  0  0  0  0  0  0  0  0
   37.0660   22.7630   36.8630 N   0  0  0  0  0  0  0  0  0  0  0  0
   37.6740   22.1120   35.8490 C   0  0  0  0  0  0  0  0  0  0  0  0
   39.0240   21.9900   35.8150 N   0  0  0  0  0  0  0  0  0  0  0  0
   36.8670   21.5570   34.8150 N   0  0  0  0  0  0  0  0  0  0  0  0
   37.1850   21.7750   33.5280 C   0  0  0  0  0  0  0  0  0  0  0  0
   36.2480   21.1300   32.7510 C   0  0  0  0  0  0  0  0  0  0  0  0
   35.3580   20.5190   33.5740 N   0  0  0  0  0  0  0  0  0  0  0  0
   35.7600   20.7950   34.8270 C   0  0  0  0  0  0  0  0  0  0  0  0
   45.6200   23.0380   35.8040 N   0  0  0  0  0  0  0  0  0  0  0  0
   41.4880   20.4144   37.6910 H   0  0  0  0  0  0  0  0  0  0  0  0
   42.5643   26.1472   34.5586 H   0  0  0  0  0  0  0  0  0  0  0  0
   39.7699   23.6386   38.6767 H   0  0  0  0  0  0  0  0  0  0  0  0
   37.2561   23.8474   38.7121 H   0  0  0  0  0  0  0  0  0  0  0  0
   38.0394   22.3625   33.1609 H   0  0  0  0  0  0  0  0  0  0  0  0
   36.2249   21.1130   31.6514 H   0  0  0  0  0  0  0  0  0  0  0  0
   35.2521   20.4449   35.7377 H   0  0  0  0  0  0  0  0  0  0  0  0
   46.3844   23.6060   35.4116 H   0  0  0  0  0  0  0  0  0  0  0  0
   45.8275   22.1335   36.2508 H   0  0  0  0  0  0  0  0  0  0  0  0
  1 10  1  0
  1  2  1  0
  3  2  2  0
  4  3  1  0
  5 21  1  0
  5  4  2  0
  6  5  1  0
  7  6  2  0
  7  8  1  0
  8  9  2  0
  9  4  1  0
  9  1  1  0
 10 11  2  0
 11 12  1  0
 13 12  2  0
 14 13  1  0
 15 14  2  0
 15 10  1  0
 16 20  1  0
 16 14  1  0
 17 16  1  0
 18 17  2  0
 18 19  1  0
 19 20  2  0
  2 22  1  0
  7 23  1  0
 11 24  1  0
 12 25  1  0
 17 26  1  0
 18 27  1  0
 20 28  1  0
 21 29  1  0
 21 30  1  0
M  ISO  7  22  14  23  14  24  14  25  14  26  14  27  14  28  14
M  END
>  <minimizedAffinity>  (1) 
-5.22639847

>  <minimizedRMSD>  (1) 
1.29579008

$$$$
