
     RDKit          3D

 36 39  0  0  0  0  0  0  0  0999 V2000
   41.3210   22.3480   36.6340 N   0  0  0  0  0  0  0  0  0  0  0  0
   42.0120   21.2700   37.0960 C   0  0  0  0  0  0  0  0  0  0  0  0
   43.3320   21.5360   36.8710 N   0  0  0  0  0  0  0  0  0  0  0  0
   43.4200   22.7380   36.2930 C   0  0  0  0  0  0  0  0  0  0  0  0
   44.4460   23.5390   35.8360 C   0  0  0  0  0  0  0  0  0  0  0  0
   44.2350   24.7670   35.2670 N   0  0  0  0  0  0  0  0  0  0  0  0
   42.9540   25.2270   35.1420 C   0  0  0  0  0  0  0  0  0  0  0  0
   41.9110   24.4810   35.5740 N   0  0  0  0  0  0  0  0  0  0  0  0
   42.1590   23.2830   36.1270 C   0  0  0  0  0  0  0  0  0  0  0  0
   39.8940   22.4930   36.6710 C   0  0  0  0  0  0  0  0  0  0  0  0
   39.2490   23.0910   37.7870 C   0  0  0  0  0  0  0  0  0  0  0  0
   37.8560   23.2010   37.7550 C   0  0  0  0  0  0  0  0  0  0  0  0
   37.2080   22.7240   36.6500 N   0  0  0  0  0  0  0  0  0  0  0  0
   37.8470   22.1610   35.6050 C   0  0  0  0  0  0  0  0  0  0  0  0
   39.1980   22.0450   35.6150 N   0  0  0  0  0  0  0  0  0  0  0  0
   37.0690   21.6930   34.4950 N   0  0  0  0  0  0  0  0  0  0  0  0
   35.8860   20.9370   34.7670 C   0  0  0  0  0  0  0  0  0  0  0  0
   35.4300   20.0880   33.6150 C   0  0  0  0  0  0  0  0  0  0  0  0
   35.7630   20.6230   32.3790 O   0  0  0  0  0  0  0  0  0  0  0  0
   37.1450   20.7640   32.3110 C   0  0  0  0  0  0  0  0  0  0  0  0
   37.4900   21.9870   33.1410 C   0  0  0  0  0  0  0  0  0  0  0  0
   45.7910   23.0800   35.9550 N   0  0  0  0  0  0  0  0  0  0  0  0
   41.5908   20.3651   37.5584 H   0  0  0  0  0  0  0  0  0  0  0  0
   42.7695   26.2112   34.6867 H   0  0  0  0  0  0  0  0  0  0  0  0
   39.8275   23.4557   38.6486 H   0  0  0  0  0  0  0  0  0  0  0  0
   37.3011   23.6551   38.5891 H   0  0  0  0  0  0  0  0  0  0  0  0
   36.0851   20.2786   35.6254 H   0  0  0  0  0  0  0  0  0  0  0  0
   35.0828   21.6610   34.9686 H   0  0  0  0  0  0  0  0  0  0  0  0
   35.8974   19.0963   33.7045 H   0  0  0  0  0  0  0  0  0  0  0  0
   34.3325   20.0321   33.6631 H   0  0  0  0  0  0  0  0  0  0  0  0
   37.6396   19.8721   32.7232 H   0  0  0  0  0  0  0  0  0  0  0  0
   37.4845   20.8780   31.2709 H   0  0  0  0  0  0  0  0  0  0  0  0
   38.5736   22.1738   33.1114 H   0  0  0  0  0  0  0  0  0  0  0  0
   36.9892   22.8866   32.7537 H   0  0  0  0  0  0  0  0  0  0  0  0
   46.5673   23.6672   35.6182 H   0  0  0  0  0  0  0  0  0  0  0  0
   45.9861   22.1613   36.3778 H   0  0  0  0  0  0  0  0  0  0  0  0
  1 10  1  0
  1  2  1  0
  3  2  2  0
  4  3  1  0
  5 22  1  0
  5  4  2  0
  6  5  1  0
  7  6  2  0
  7  8  1  0
  8  9  2  0
  9  4  1  0
  9  1  1  0
 10 11  2  0
 12 11  1  0
 13 12  2  0
 14 15  2  0
 14 13  1  0
 15 10  1  0
 16 17  1  0
 16 14  1  0
 18 17  1  0
 19 18  1  0
 20 19  1  0
 20 21  1  0
 21 16  1  0
  2 23  1  0
  7 24  1  0
 11 25  1  0
 12 26  1  0
 17 27  1  0
 17 28  1  0
 18 29  1  0
 18 30  1  0
 20 31  1  0
 20 32  1  0
 21 33  1  0
 21 34  1  0
 22 35  1  0
 22 36  1  0
M  ISO  8  23  14  24  14  25  14  26  14  27  13  28  13  29  13  30  13
M  ISO  4  31  13  32  13  33  13  34  13
M  END
>  <minimizedAffinity>  (1) 
-5.16341114

>  <minimizedRMSD>  (1) 
1.36907291

$$$$
