
     RDKit          3D

 30 33  0  0  0  0  0  0  0  0999 V2000
   41.2920   22.5810   36.8240 N   0  0  0  0  0  0  0  0  0  0  0  0
   41.5860   21.2940   37.1240 C   0  0  0  0  0  0  0  0  0  0  0  0
   42.9030   21.1130   36.8140 N   0  0  0  0  0  0  0  0  0  0  0  0
   43.3840   22.2570   36.3430 C   0  0  0  0  0  0  0  0  0  0  0  0
   44.6040   22.6890   35.8780 C   0  0  0  0  0  0  0  0  0  0  0  0
   44.8180   23.9700   35.4390 N   0  0  0  0  0  0  0  0  0  0  0  0
   43.7870   24.8610   35.4600 C   0  0  0  0  0  0  0  0  0  0  0  0
   42.5700   24.4780   35.9090 N   0  0  0  0  0  0  0  0  0  0  0  0
   42.3930   23.2080   36.3340 C   0  0  0  0  0  0  0  0  0  0  0  0
   40.0250   23.2120   36.9870 C   0  0  0  0  0  0  0  0  0  0  0  0
   39.2650   23.0600   38.1610 C   0  0  0  0  0  0  0  0  0  0  0  0
   38.0380   23.7090   38.2390 C   0  0  0  0  0  0  0  0  0  0  0  0
   37.6310   24.4570   37.1860 N   0  0  0  0  0  0  0  0  0  0  0  0
   38.3830   24.5890   36.0630 C   0  0  0  0  0  0  0  0  0  0  0  0
   39.5710   23.9620   35.9820 N   0  0  0  0  0  0  0  0  0  0  0  0
   37.8660   25.4330   34.9390 C   0  0  0  0  0  0  0  0  0  0  0  0
   37.4030   26.7130   35.0710 C   0  0  0  0  0  0  0  0  0  0  0  0
   36.9580   27.3930   33.9930 C   0  0  0  0  0  0  0  0  0  0  0  0
   36.9820   26.7420   32.7140 C   0  0  0  0  0  0  0  0  0  0  0  0
   37.7100   25.0440   33.1980 S   0  0  0  0  0  0  0  0  0  0  0  0
   45.7020   21.7970   35.8390 N   0  0  0  0  0  0  0  0  0  0  0  0
   40.8982   20.5414   37.5368 H   0  0  0  0  0  0  0  0  0  0  0  0
   43.9447   25.8924   35.1115 H   0  0  0  0  0  0  0  0  0  0  0  0
   39.6318   22.4439   38.9952 H   0  0  0  0  0  0  0  0  0  0  0  0
   37.4105   23.6168   39.1378 H   0  0  0  0  0  0  0  0  0  0  0  0
   37.3931   27.1914   36.0615 H   0  0  0  0  0  0  0  0  0  0  0  0
   36.5853   28.4231   34.0926 H   0  0  0  0  0  0  0  0  0  0  0  0
   36.6682   27.1170   31.7286 H   0  0  0  0  0  0  0  0  0  0  0  0
   46.6159   22.1201   35.4908 H   0  0  0  0  0  0  0  0  0  0  0  0
   45.5872   20.8247   36.1588 H   0  0  0  0  0  0  0  0  0  0  0  0
  1 10  1  0
  1  2  1  0
  3  2  2  0
  4  3  1  0
  5  4  2  0
  6  7  2  0
  6  5  1  0
  7  8  1  0
  8  9  2  0
  9  4  1  0
  9  1  1  0
 10 11  2  0
 11 12  1  0
 13 12  2  0
 14 13  1  0
 15 14  2  0
 15 10  1  0
 16 17  2  0
 16 14  1  0
 18 17  1  0
 19 20  1  0
 19 18  2  0
 20 16  1  0
 21  5  1  0
  2 22  1  0
  7 23  1  0
 11 24  1  0
 12 25  1  0
 17 26  1  0
 18 27  1  0
 19 28  1  0
 21 29  1  0
 21 30  1  0
M  ISO  7  22  14  23  14  24  14  25  14  26  14  27  14  28  14
M  END
>  <minimizedAffinity>  (1) 
-5.05816412

>  <minimizedRMSD>  (1) 
3.50847054

$$$$
