
     RDKit          3D

 31 34  0  0  0  0  0  0  0  0999 V2000
   39.8800   22.5200   36.7510 C   0  0  0  0  0  0  0  0  0  0  0  0
   39.2720   23.1410   37.8820 C   0  0  0  0  0  0  0  0  0  0  0  0
   37.8750   23.2800   37.8620 C   0  0  0  0  0  0  0  0  0  0  0  0
   37.1910   22.8200   36.7810 N   0  0  0  0  0  0  0  0  0  0  0  0
   37.7980   22.2360   35.7250 C   0  0  0  0  0  0  0  0  0  0  0  0
   39.1370   22.0980   35.7350 N   0  0  0  0  0  0  0  0  0  0  0  0
   41.2860   22.3400   36.6870 N   0  0  0  0  0  0  0  0  0  0  0  0
   41.9730   21.2690   37.1340 C   0  0  0  0  0  0  0  0  0  0  0  0
   43.2830   21.5030   36.8790 N   0  0  0  0  0  0  0  0  0  0  0  0
   43.3910   22.6860   36.2920 C   0  0  0  0  0  0  0  0  0  0  0  0
   44.4210   23.4690   35.7990 C   0  0  0  0  0  0  0  0  0  0  0  0
   44.2300   24.6870   35.2280 N   0  0  0  0  0  0  0  0  0  0  0  0
   42.9530   25.1830   35.1250 C   0  0  0  0  0  0  0  0  0  0  0  0
   41.9090   24.4640   35.5880 N   0  0  0  0  0  0  0  0  0  0  0  0
   42.1360   23.2660   36.1450 C   0  0  0  0  0  0  0  0  0  0  0  0
   45.7590   22.9980   35.8840 N   0  0  0  0  0  0  0  0  0  0  0  0
   37.0120   21.7600   34.5880 C   0  0  0  0  0  0  0  0  0  0  0  0
   36.0510   20.7950   34.7910 C   0  0  0  0  0  0  0  0  0  0  0  0
   35.3360   20.3850   33.6600 C   0  0  0  0  0  0  0  0  0  0  0  0
   35.5980   20.9260   32.4560 N   0  0  0  0  0  0  0  0  0  0  0  0
   36.5400   21.8670   32.2790 C   0  0  0  0  0  0  0  0  0  0  0  0
   37.2420   22.2750   33.3670 N   0  0  0  0  0  0  0  0  0  0  0  0
   39.8717   23.4957   38.7332 H   0  0  0  0  0  0  0  0  0  0  0  0
   37.3453   23.7511   38.7031 H   0  0  0  0  0  0  0  0  0  0  0  0
   41.5499   20.3746   37.6147 H   0  0  0  0  0  0  0  0  0  0  0  0
   42.7813   26.1672   34.6647 H   0  0  0  0  0  0  0  0  0  0  0  0
   46.5317   23.5736   35.5199 H   0  0  0  0  0  0  0  0  0  0  0  0
   45.9561   22.0810   36.3097 H   0  0  0  0  0  0  0  0  0  0  0  0
   35.8561   20.3700   35.7867 H   0  0  0  0  0  0  0  0  0  0  0  0
   34.5553   19.6160   33.7557 H   0  0  0  0  0  0  0  0  0  0  0  0
   36.7364   22.2934   31.2842 H   0  0  0  0  0  0  0  0  0  0  0  0
  1  2  2  0
  3  2  1  0
  4  3  2  0
  5  6  2  0
  5  4  1  0
  6  1  1  0
  7  1  1  0
  7  8  1  0
  9  8  2  0
 10  9  1  0
 11 16  1  0
 11 10  2  0
 12 11  1  0
 13 12  2  0
 13 14  1  0
 14 15  2  0
 15 10  1  0
 15  7  1  0
 17 18  2  0
 17  5  1  0
 19 18  1  0
 20 19  2  0
 21 20  1  0
 21 22  2  0
 22 17  1  0
  2 23  1  0
  3 24  1  0
  8 25  1  0
 13 26  1  0
 16 27  1  0
 16 28  1  0
 18 29  1  0
 19 30  1  0
 21 31  1  0
M  ISO  7  23  14  24  14  25  14  26  14  29  14  30  14  31  14
M  END
>  <minimizedAffinity>  (1) 
-5.05604172

>  <minimizedRMSD>  (1) 
1.4341625

$$$$
