
     RDKit          3D

 30 33  0  0  0  0  0  0  0  0999 V2000
   39.7220   22.5370   36.8280 C   0  0  0  0  0  0  0  0  0  0  0  0
   39.1590   23.2220   37.9240 C   0  0  0  0  0  0  0  0  0  0  0  0
   37.7570   23.3320   37.9580 C   0  0  0  0  0  0  0  0  0  0  0  0
   37.0340   22.7850   36.9570 N   0  0  0  0  0  0  0  0  0  0  0  0
   37.6060   22.1330   35.9150 C   0  0  0  0  0  0  0  0  0  0  0  0
   38.9520   22.0190   35.8700 N   0  0  0  0  0  0  0  0  0  0  0  0
   41.1440   22.3740   36.7050 N   0  0  0  0  0  0  0  0  0  0  0  0
   41.8590   21.3300   37.1720 C   0  0  0  0  0  0  0  0  0  0  0  0
   43.1660   21.5790   36.8420 N   0  0  0  0  0  0  0  0  0  0  0  0
   43.2120   22.7430   36.1960 C   0  0  0  0  0  0  0  0  0  0  0  0
   44.2170   23.5080   35.6260 C   0  0  0  0  0  0  0  0  0  0  0  0
   43.9630   24.7070   35.0060 N   0  0  0  0  0  0  0  0  0  0  0  0
   42.6750   25.1700   34.9430 C   0  0  0  0  0  0  0  0  0  0  0  0
   41.6650   24.4560   35.4860 N   0  0  0  0  0  0  0  0  0  0  0  0
   41.9460   23.2780   36.0910 C   0  0  0  0  0  0  0  0  0  0  0  0
   45.5600   23.0540   35.6750 N   0  0  0  0  0  0  0  0  0  0  0  0
   36.8110   21.5470   34.8410 C   0  0  0  0  0  0  0  0  0  0  0  0
   37.2030   21.8070   33.5270 C   0  0  0  0  0  0  0  0  0  0  0  0
   36.2830   21.1360   32.7200 C   0  0  0  0  0  0  0  0  0  0  0  0
   35.3900   20.5120   33.5380 N   0  0  0  0  0  0  0  0  0  0  0  0
   35.7050   20.7580   34.8100 N   0  0  0  0  0  0  0  0  0  0  0  0
   39.7882   23.6515   38.7175 H   0  0  0  0  0  0  0  0  0  0  0  0
   37.2575   23.8552   38.7867 H   0  0  0  0  0  0  0  0  0  0  0  0
   41.4705   20.4531   37.7106 H   0  0  0  0  0  0  0  0  0  0  0  0
   42.4622   26.1287   34.4474 H   0  0  0  0  0  0  0  0  0  0  0  0
   46.3104   23.6192   35.2527 H   0  0  0  0  0  0  0  0  0  0  0  0
   45.7848   22.1592   36.1329 H   0  0  0  0  0  0  0  0  0  0  0  0
   38.0586   22.4141   33.1964 H   0  0  0  0  0  0  0  0  0  0  0  0
   36.2796   21.1148   31.6202 H   0  0  0  0  0  0  0  0  0  0  0  0
   34.5945   19.9388   33.2226 H   0  0  0  0  0  0  0  0  0  0  0  0
  1  2  2  0
  2  3  1  0
  4  3  2  0
  5  4  1  0
  6  5  2  0
  6  1  1  0
  7  1  1  0
  7  8  1  0
  9  8  2  0
 10  9  1  0
 11 16  1  0
 11 10  2  0
 12 11  1  0
 13 12  2  0
 13 14  1  0
 14 15  2  0
 15 10  1  0
 15  7  1  0
 17  5  1  0
 18 17  1  0
 19 18  2  0
 19 20  1  0
 20 21  1  0
 21 17  2  0
  2 22  1  0
  3 23  1  0
  8 24  1  0
 13 25  1  0
 16 26  1  0
 16 27  1  0
 18 28  1  0
 19 29  1  0
 20 30  1  0
M  ISO  7  22  14  23  14  24  14  25  14  28  14  29  14  30   9
M  END
>  <minimizedAffinity>  (1) 
-4.96177006

>  <minimizedRMSD>  (1) 
1.29407895

$$$$
