
     RDKit          3D

 30 33  0  0  0  0  0  0  0  0999 V2000
   41.3570   22.5420   36.8130 N   0  0  0  0  0  0  0  0  0  0  0  0
   41.6370   21.2450   37.1230 C   0  0  0  0  0  0  0  0  0  0  0  0
   42.9530   21.0630   36.8320 N   0  0  0  0  0  0  0  0  0  0  0  0
   43.4480   22.2120   36.3620 C   0  0  0  0  0  0  0  0  0  0  0  0
   44.6750   22.6570   35.9090 C   0  0  0  0  0  0  0  0  0  0  0  0
   44.8880   23.9330   35.4750 N   0  0  0  0  0  0  0  0  0  0  0  0
   43.8550   24.8180   35.4840 C   0  0  0  0  0  0  0  0  0  0  0  0
   42.6370   24.4400   35.9160 N   0  0  0  0  0  0  0  0  0  0  0  0
   42.4580   23.1790   36.3360 C   0  0  0  0  0  0  0  0  0  0  0  0
   40.0840   23.1710   36.9610 C   0  0  0  0  0  0  0  0  0  0  0  0
   39.3610   23.0630   38.1860 C   0  0  0  0  0  0  0  0  0  0  0  0
   38.1140   23.7090   38.2600 C   0  0  0  0  0  0  0  0  0  0  0  0
   37.6760   24.3930   37.1660 N   0  0  0  0  0  0  0  0  0  0  0  0
   38.3980   24.4700   36.0200 C   0  0  0  0  0  0  0  0  0  0  0  0
   39.5930   23.8630   35.9200 N   0  0  0  0  0  0  0  0  0  0  0  0
   37.8590   25.2240   34.8910 C   0  0  0  0  0  0  0  0  0  0  0  0
   37.3230   26.4910   34.9540 C   0  0  0  0  0  0  0  0  0  0  0  0
   36.9540   26.7980   33.7000 N   0  0  0  0  0  0  0  0  0  0  0  0
   37.2530   25.7510   32.8920 C   0  0  0  0  0  0  0  0  0  0  0  0
   37.8230   24.7560   33.6330 N   0  0  0  0  0  0  0  0  0  0  0  0
   45.7770   21.7610   35.8850 N   0  0  0  0  0  0  0  0  0  0  0  0
   40.9396   20.4964   37.5270 H   0  0  0  0  0  0  0  0  0  0  0  0
   44.0157   25.8491   35.1361 H   0  0  0  0  0  0  0  0  0  0  0  0
   39.7630   22.4968   39.0391 H   0  0  0  0  0  0  0  0  0  0  0  0
   37.5082   23.6633   39.1770 H   0  0  0  0  0  0  0  0  0  0  0  0
   37.2185   27.1224   35.8487 H   0  0  0  0  0  0  0  0  0  0  0  0
   37.0656   25.7097   31.8089 H   0  0  0  0  0  0  0  0  0  0  0  0
   38.1551   23.8404   33.2980 H   0  0  0  0  0  0  0  0  0  0  0  0
   46.6957   22.0835   35.5490 H   0  0  0  0  0  0  0  0  0  0  0  0
   45.6574   20.7889   36.2036 H   0  0  0  0  0  0  0  0  0  0  0  0
  1 10  1  0
  1  2  1  0
  3  2  2  0
  4  3  1  0
  5  4  2  0
  6  7  2  0
  6  5  1  0
  7  8  1  0
  8  9  2  0
  9  4  1  0
  9  1  1  0
 10 11  2  0
 11 12  1  0
 13 12  2  0
 14 13  1  0
 15 14  2  0
 15 10  1  0
 16 17  2  0
 16 14  1  0
 18 17  1  0
 19 20  1  0
 19 18  2  0
 20 16  1  0
 21  5  1  0
  2 22  1  0
  7 23  1  0
 11 24  1  0
 12 25  1  0
 17 26  1  0
 19 27  1  0
 20 28  1  0
 21 29  1  0
 21 30  1  0
M  ISO  7  22  14  23  14  24  14  25  14  26  14  27  14  28   9
M  END
>  <minimizedAffinity>  (1) 
-4.87419415

>  <minimizedRMSD>  (1) 
3.26730704

$$$$
