
     RDKit          3D

 29 32  0  0  0  0  0  0  0  0999 V2000
   41.2940   22.5690   36.8170 N   0  0  0  0  0  0  0  0  0  0  0  0
   41.5830   21.2820   37.1390 C   0  0  0  0  0  0  0  0  0  0  0  0
   42.9080   21.1120   36.8340 N   0  0  0  0  0  0  0  0  0  0  0  0
   43.3810   22.2520   36.3510 C   0  0  0  0  0  0  0  0  0  0  0  0
   44.6050   22.6900   35.8840 C   0  0  0  0  0  0  0  0  0  0  0  0
   44.8040   23.9620   35.4340 N   0  0  0  0  0  0  0  0  0  0  0  0
   43.7650   24.8540   35.4370 C   0  0  0  0  0  0  0  0  0  0  0  0
   42.5500   24.4700   35.8850 N   0  0  0  0  0  0  0  0  0  0  0  0
   42.3820   23.2110   36.3230 C   0  0  0  0  0  0  0  0  0  0  0  0
   40.0170   23.1960   36.9690 C   0  0  0  0  0  0  0  0  0  0  0  0
   39.2870   23.0620   38.1880 C   0  0  0  0  0  0  0  0  0  0  0  0
   38.0380   23.7130   38.2520 C   0  0  0  0  0  0  0  0  0  0  0  0
   37.6040   24.4120   37.1820 N   0  0  0  0  0  0  0  0  0  0  0  0
   38.3420   24.5110   36.0320 C   0  0  0  0  0  0  0  0  0  0  0  0
   39.5360   23.9030   35.9420 N   0  0  0  0  0  0  0  0  0  0  0  0
   37.8890   25.2630   34.8670 C   0  0  0  0  0  0  0  0  0  0  0  0
   37.4680   26.6000   34.9940 C   0  0  0  0  0  0  0  0  0  0  0  0
   37.0240   27.0360   33.2720 S   0  0  0  0  0  0  0  0  0  0  0  0
   37.5050   25.2740   32.6720 C   0  0  0  0  0  0  0  0  0  0  0  0
   37.8330   24.7890   33.6330 N   0  0  0  0  0  0  0  0  0  0  0  0
   45.7120   21.8040   35.8590 N   0  0  0  0  0  0  0  0  0  0  0  0
   40.8962   20.5317   37.5577 H   0  0  0  0  0  0  0  0  0  0  0  0
   43.9196   25.8813   35.0753 H   0  0  0  0  0  0  0  0  0  0  0  0
   39.6791   22.4800   39.0351 H   0  0  0  0  0  0  0  0  0  0  0  0
   37.4246   23.6520   39.1630 H   0  0  0  0  0  0  0  0  0  0  0  0
   37.4183   27.2245   35.8982 H   0  0  0  0  0  0  0  0  0  0  0  0
   37.4691   24.8514   31.6571 H   0  0  0  0  0  0  0  0  0  0  0  0
   46.6249   22.1301   35.5109 H   0  0  0  0  0  0  0  0  0  0  0  0
   45.6031   20.8344   36.1890 H   0  0  0  0  0  0  0  0  0  0  0  0
  1 10  1  0
  1  2  1  0
  3  2  2  0
  4  3  1  0
  5  4  2  0
  6  7  2  0
  6  5  1  0
  7  8  1  0
  8  9  2  0
  9  4  1  0
  9  1  1  0
 10 11  2  0
 11 12  1  0
 13 12  2  0
 14 13  1  0
 15 14  2  0
 15 10  1  0
 16 17  2  0
 16 14  1  0
 18 17  1  0
 19 18  1  0
 19 20  2  0
 20 16  1  0
 21  5  1  0
  2 22  1  0
  7 23  1  0
 11 24  1  0
 12 25  1  0
 17 26  1  0
 19 27  1  0
 21 28  1  0
 21 29  1  0
M  ISO  6  22  14  23  14  24  14  25  14  26  14  27  14
M  END
>  <minimizedAffinity>  (1) 
-4.84576082

>  <minimizedRMSD>  (1) 
3.3069334

$$$$
