
     RDKit          3D

 32 34  0  0  0  0  0  0  0  0999 V2000
   41.3010   22.5720   36.8450 N   0  0  0  0  0  0  0  0  0  0  0  0
   41.5610   21.2670   37.1250 C   0  0  0  0  0  0  0  0  0  0  0  0
   42.8620   21.0470   36.8030 N   0  0  0  0  0  0  0  0  0  0  0  0
   43.3710   22.1800   36.3440 C   0  0  0  0  0  0  0  0  0  0  0  0
   44.6040   22.5900   35.8700 C   0  0  0  0  0  0  0  0  0  0  0  0
   44.8490   23.8680   35.4480 N   0  0  0  0  0  0  0  0  0  0  0  0
   43.8400   24.7920   35.4910 C   0  0  0  0  0  0  0  0  0  0  0  0
   42.6180   24.4450   35.9450 N   0  0  0  0  0  0  0  0  0  0  0  0
   42.4070   23.1760   36.3550 C   0  0  0  0  0  0  0  0  0  0  0  0
   40.0530   23.2320   37.0310 C   0  0  0  0  0  0  0  0  0  0  0  0
   39.2930   23.0270   38.2190 C   0  0  0  0  0  0  0  0  0  0  0  0
   38.0760   23.7170   38.3180 C   0  0  0  0  0  0  0  0  0  0  0  0
   37.6930   24.5270   37.3020 N   0  0  0  0  0  0  0  0  0  0  0  0
   38.4390   24.6990   36.1880 C   0  0  0  0  0  0  0  0  0  0  0  0
   39.6150   24.0410   36.0740 N   0  0  0  0  0  0  0  0  0  0  0  0
   37.9160   25.6130   35.1370 C   0  0  0  0  0  0  0  0  0  0  0  0
   38.3470   27.0430   35.4890 C   0  0  0  0  0  0  0  0  0  0  0  0
   38.3280   25.2360   33.7520 C   0  0  0  0  0  0  0  0  0  0  0  0
   45.6750   21.6670   35.8110 N   0  0  0  0  0  0  0  0  0  0  0  0
   40.8534   20.5307   37.5339 H   0  0  0  0  0  0  0  0  0  0  0  0
   44.0265   25.8223   35.1538 H   0  0  0  0  0  0  0  0  0  0  0  0
   39.6440   22.3596   39.0199 H   0  0  0  0  0  0  0  0  0  0  0  0
   37.4410   23.6020   39.2088 H   0  0  0  0  0  0  0  0  0  0  0  0
   36.8189   25.5343   35.1269 H   0  0  0  0  0  0  0  0  0  0  0  0
   38.3813   27.1569   36.5825 H   0  0  0  0  0  0  0  0  0  0  0  0
   39.3443   27.2394   35.0684 H   0  0  0  0  0  0  0  0  0  0  0  0
   37.6244   27.7578   35.0684 H   0  0  0  0  0  0  0  0  0  0  0  0
   39.1388   24.4941   33.7998 H   0  0  0  0  0  0  0  0  0  0  0  0
   37.4680   24.8055   33.2180 H   0  0  0  0  0  0  0  0  0  0  0  0
   38.6807   26.1307   33.2180 H   0  0  0  0  0  0  0  0  0  0  0  0
   46.5951   21.9675   35.4588 H   0  0  0  0  0  0  0  0  0  0  0  0
   45.5345   20.6946   36.1203 H   0  0  0  0  0  0  0  0  0  0  0  0
  1 10  1  0
  1  2  1  0
  3  2  2  0
  4  9  2  0
  4  3  1  0
  5  4  1  0
  6  7  1  0
  6  5  2  0
  7  8  2  0
  8  9  1  0
  9  1  1  0
 10 11  2  0
 11 12  1  0
 13 12  2  0
 14 13  1  0
 15 14  2  0
 15 10  1  0
 16 17  1  0
 16 14  1  0
 18 16  1  0
 19  5  1  0
  2 20  1  0
  7 21  1  0
 11 22  1  0
 12 23  1  0
 16 24  1  0
 17 25  1  0
 17 26  1  0
 17 27  1  0
 18 28  1  0
 18 29  1  0
 18 30  1  0
 19 31  1  0
 19 32  1  0
M  ISO  8  20  14  21  14  22  14  23  14  24   8  25   8  26   8  27   8
M  ISO  3  28   8  29   8  30   8
M  END
>  <minimizedAffinity>  (1) 
-4.51388073

>  <minimizedRMSD>  (1) 
2.9822154

$$$$
