
     RDKit          3D

 31 33  0  0  0  0  0  0  0  0999 V2000
   39.3400   25.4100   34.5010 N   0  0  0  0  0  0  0  0  0  0  0  0
   40.4880   26.1190   34.5120 C   0  0  0  0  0  0  0  0  0  0  0  0
   40.8030   26.8590   33.3680 C   0  0  0  0  0  0  0  0  0  0  0  0
   39.9420   26.8400   32.2830 C   0  0  0  0  0  0  0  0  0  0  0  0
   40.1650   27.4790   31.2300 O   0  0  0  0  0  0  0  0  0  0  0  0
   38.8110   26.1170   32.3230 N   0  0  0  0  0  0  0  0  0  0  0  0
   38.5220   25.4100   33.4310 C   0  0  0  0  0  0  0  0  0  0  0  0
   37.4760   24.7400   33.4730 O   0  0  0  0  0  0  0  0  0  0  0  0
   38.1990   25.2090   36.6160 C   0  0  0  0  0  0  0  0  0  0  0  0
   39.0950   24.6920   35.6890 C   0  0  0  0  0  0  0  0  0  0  0  0
   39.7040   23.4690   36.0030 C   0  0  0  0  0  0  0  0  0  0  0  0
   39.3940   22.8550   37.1810 N   0  0  0  0  0  0  0  0  0  0  0  0
   38.5210   23.3910   38.0500 C   0  0  0  0  0  0  0  0  0  0  0  0
   37.9280   24.5690   37.7590 N   0  0  0  0  0  0  0  0  0  0  0  0
   38.3640   22.5710   39.1990 N   0  0  0  0  0  0  0  0  0  0  0  0
   42.0630   27.6810   33.2750 C   0  0  0  0  0  0  0  0  0  0  0  0
   43.2130   26.8070   33.4230 N   0  0  0  0  0  0  0  0  0  0  0  0
   44.1770   26.6530   34.3290 C   0  0  0  0  0  0  0  0  0  0  0  0
   45.0350   25.6660   33.9690 N   0  0  0  0  0  0  0  0  0  0  0  0
   44.5600   25.2090   32.7940 C   0  0  0  0  0  0  0  0  0  0  0  0
   43.4690   25.8950   32.4730 N   0  0  0  0  0  0  0  0  0  0  0  0
   41.1520   26.1150   35.3890 H   0  0  0  0  0  0  0  0  0  0  0  0
   38.1722   26.1038   31.5151 H   0  0  0  0  0  0  0  0  0  0  0  0
   37.7008   26.1668   36.4054 H   0  0  0  0  0  0  0  0  0  0  0  0
   40.4228   23.0102   35.3082 H   0  0  0  0  0  0  0  0  0  0  0  0
   37.7231   22.8577   39.9526 H   0  0  0  0  0  0  0  0  0  0  0  0
   38.8910   21.6896   39.2786 H   0  0  0  0  0  0  0  0  0  0  0  0
   42.1046   28.1818   32.2965 H   0  0  0  0  0  0  0  0  0  0  0  0
   42.0697   28.4400   34.0712 H   0  0  0  0  0  0  0  0  0  0  0  0
   44.2658   27.2487   35.2495 H   0  0  0  0  0  0  0  0  0  0  0  0
   45.0040   24.3987   32.1970 H   0  0  0  0  0  0  0  0  0  0  0  0
  1  2  1  0
  1 10  1  0
  3  2  2  0
  4  6  1  0
  4  3  1  0
  5  4  2  0
  6  7  1  0
  7  8  2  0
  7  1  1  0
  9 14  2  0
 10 11  2  0
 10  9  1  0
 11 12  1  0
 12 13  2  0
 13 15  1  0
 14 13  1  0
 16  3  1  0
 16 17  1  0
 17 18  1  0
 19 18  2  0
 20 19  1  0
 21 20  2  0
 21 17  1  0
  2 22  1  0
  6 23  1  0
  9 24  1  0
 11 25  1  0
 15 26  1  0
 15 27  1  0
 16 28  1  0
 16 29  1  0
 18 30  1  0
 20 31  1  0
M  ISO  8  22  14  23   9  24  14  25  14  28   8  29   8  30  14  31  14
M  END
>  <minimizedAffinity>  (1) 
-4.37066078

>  <minimizedRMSD>  (1) 
1.08761704

$$$$
