
     RDKit          3D

 25 27  0  0  0  0  0  0  0  0999 V2000
   41.1160   22.3730   36.6680 N   0  0  0  0  0  0  0  0  0  0  0  0
   41.8450   21.3310   37.1510 C   0  0  0  0  0  0  0  0  0  0  0  0
   43.1420   21.5870   36.8440 N   0  0  0  0  0  0  0  0  0  0  0  0
   43.1960   22.7530   36.1940 C   0  0  0  0  0  0  0  0  0  0  0  0
   44.1980   23.5180   35.6420 C   0  0  0  0  0  0  0  0  0  0  0  0
   43.9530   24.7100   35.0130 N   0  0  0  0  0  0  0  0  0  0  0  0
   42.6650   25.1680   34.9240 C   0  0  0  0  0  0  0  0  0  0  0  0
   41.6500   24.4490   35.4530 N   0  0  0  0  0  0  0  0  0  0  0  0
   41.9290   23.2790   36.0650 C   0  0  0  0  0  0  0  0  0  0  0  0
   39.7020   22.5150   36.7700 C   0  0  0  0  0  0  0  0  0  0  0  0
   39.1300   23.2170   37.8710 C   0  0  0  0  0  0  0  0  0  0  0  0
   37.7380   23.3250   37.9190 C   0  0  0  0  0  0  0  0  0  0  0  0
   37.0200   22.7510   36.9070 N   0  0  0  0  0  0  0  0  0  0  0  0
   37.5960   22.0950   35.8800 C   0  0  0  0  0  0  0  0  0  0  0  0
   38.9470   21.9800   35.8180 N   0  0  0  0  0  0  0  0  0  0  0  0
   36.7220   21.5270   34.8630 C   0  0  0  0  0  0  0  0  0  0  0  0
   35.7600   20.8280   35.2550 O   0  0  0  0  0  0  0  0  0  0  0  0
   45.5410   23.0780   35.7140 N   0  0  0  0  0  0  0  0  0  0  0  0
   41.4583   20.4514   37.6866 H   0  0  0  0  0  0  0  0  0  0  0  0
   42.4562   26.1235   34.4206 H   0  0  0  0  0  0  0  0  0  0  0  0
   39.7626   23.6582   38.6553 H   0  0  0  0  0  0  0  0  0  0  0  0
   37.2367   23.8539   38.7430 H   0  0  0  0  0  0  0  0  0  0  0  0
   36.9000   21.7051   33.7922 H   0  0  0  0  0  0  0  0  0  0  0  0
   46.2927   23.6487   35.3016 H   0  0  0  0  0  0  0  0  0  0  0  0
   45.7668   22.1870   36.1788 H   0  0  0  0  0  0  0  0  0  0  0  0
  1 10  1  0
  1  2  1  0
  3  2  2  0
  4  3  1  0
  5 18  1  0
  5  4  2  0
  6  5  1  0
  7  6  2  0
  7  8  1  0
  8  9  2  0
  9  4  1  0
  9  1  1  0
 10 11  2  0
 11 12  1  0
 13 12  2  0
 14 13  1  0
 15 14  2  0
 15 10  1  0
 16 17  2  0
 16 14  1  0
  2 19  1  0
  7 20  1  0
 11 21  1  0
 12 22  1  0
 16 23  1  0
 18 24  1  0
 18 25  1  0
M  ISO  5  19  14  20  14  21  14  22  14  23   6
M  END
>  <minimizedAffinity>  (1) 
-4.13978481

>  <minimizedRMSD>  (1) 
1.34896767

$$$$
