
     RDKit          3D

 25 27  0  0  0  0  0  0  0  0999 V2000
   41.0250   23.3090   36.2550 N   0  0  0  0  0  0  0  0  0  0  0  0
   42.0570   22.5250   36.6730 C   0  0  0  0  0  0  0  0  0  0  0  0
   43.1990   23.1040   36.2210 N   0  0  0  0  0  0  0  0  0  0  0  0
   42.8640   24.2120   35.5460 C   0  0  0  0  0  0  0  0  0  0  0  0
   43.5580   25.1930   34.8720 C   0  0  0  0  0  0  0  0  0  0  0  0
   42.9380   26.2390   34.2590 N   0  0  0  0  0  0  0  0  0  0  0  0
   41.5750   26.3250   34.3080 C   0  0  0  0  0  0  0  0  0  0  0  0
   40.8600   25.3830   34.9580 N   0  0  0  0  0  0  0  0  0  0  0  0
   41.5020   24.3710   35.5490 C   0  0  0  0  0  0  0  0  0  0  0  0
   39.6430   23.0750   36.5090 C   0  0  0  0  0  0  0  0  0  0  0  0
   39.0250   23.5110   37.6990 C   0  0  0  0  0  0  0  0  0  0  0  0
   37.6670   23.2410   37.8670 C   0  0  0  0  0  0  0  0  0  0  0  0
   37.0070   22.5820   36.8960 N   0  0  0  0  0  0  0  0  0  0  0  0
   37.6240   22.1700   35.7510 C   0  0  0  0  0  0  0  0  0  0  0  0
   38.9460   22.4190   35.5610 N   0  0  0  0  0  0  0  0  0  0  0  0
   36.9140   21.4670   34.7180 N   0  0  0  0  0  0  0  0  0  0  0  0
   44.9860   25.1250   34.8080 N   0  0  0  0  0  0  0  0  0  0  0  0
   41.9802   21.6001   37.2635 H   0  0  0  0  0  0  0  0  0  0  0  0
   41.0598   27.1636   33.8167 H   0  0  0  0  0  0  0  0  0  0  0  0
   39.5962   24.0475   38.4710 H   0  0  0  0  0  0  0  0  0  0  0  0
   37.1429   23.5617   38.7794 H   0  0  0  0  0  0  0  0  0  0  0  0
   37.4080   21.1690   33.8648 H   0  0  0  0  0  0  0  0  0  0  0  0
   35.9111   21.2612   34.8309 H   0  0  0  0  0  0  0  0  0  0  0  0
   45.5143   25.8533   34.3066 H   0  0  0  0  0  0  0  0  0  0  0  0
   45.4855   24.3478   35.2633 H   0  0  0  0  0  0  0  0  0  0  0  0
  1 10  1  0
  1  2  1  0
  3  2  2  0
  4  9  2  0
  4  3  1  0
  5  4  1  0
  6  7  1  0
  6  5  2  0
  7  8  2  0
  8  9  1  0
  9  1  1  0
 10 11  2  0
 11 12  1  0
 13 12  2  0
 14 13  1  0
 15 14  2  0
 15 10  1  0
 16 14  1  0
 17  5  1  0
  2 18  1  0
  7 19  1  0
 11 20  1  0
 12 21  1  0
 16 22  1  0
 16 23  1  0
 17 24  1  0
 17 25  1  0
M  ISO  4  18  14  19  14  20  14  21  14
M  END
>  <minimizedAffinity>  (1) 
-3.83562756

>  <minimizedRMSD>  (1) 
0.101735428

$$$$
