
     RDKit          3D

 26 28  0  0  0  0  0  0  0  0999 V2000
   41.0320   23.3140   36.2430 N   0  0  0  0  0  0  0  0  0  0  0  0
   42.0630   22.5570   36.6470 C   0  0  0  0  0  0  0  0  0  0  0  0
   43.1900   23.1610   36.1990 N   0  0  0  0  0  0  0  0  0  0  0  0
   42.8430   24.2650   35.5340 C   0  0  0  0  0  0  0  0  0  0  0  0
   43.5240   25.2620   34.8700 C   0  0  0  0  0  0  0  0  0  0  0  0
   42.8800   26.3060   34.2610 N   0  0  0  0  0  0  0  0  0  0  0  0
   41.5160   26.3740   34.3060 C   0  0  0  0  0  0  0  0  0  0  0  0
   40.8170   25.4150   34.9480 N   0  0  0  0  0  0  0  0  0  0  0  0
   41.4770   24.3960   35.5400 C   0  0  0  0  0  0  0  0  0  0  0  0
   39.6440   23.0670   36.4850 C   0  0  0  0  0  0  0  0  0  0  0  0
   39.0250   23.5230   37.6870 C   0  0  0  0  0  0  0  0  0  0  0  0
   37.6550   23.2410   37.8470 C   0  0  0  0  0  0  0  0  0  0  0  0
   37.0090   22.5590   36.8590 N   0  0  0  0  0  0  0  0  0  0  0  0
   37.6400   22.1480   35.7400 C   0  0  0  0  0  0  0  0  0  0  0  0
   38.9460   22.3990   35.5490 N   0  0  0  0  0  0  0  0  0  0  0  0
   36.8260   21.4090   34.7290 C   0  0  0  0  0  0  0  0  0  0  0  0
   44.9330   25.2460   34.7900 N   0  0  0  0  0  0  0  0  0  0  0  0
   42.0047   21.6257   37.2295 H   0  0  0  0  0  0  0  0  0  0  0  0
   40.9892   27.2085   33.8201 H   0  0  0  0  0  0  0  0  0  0  0  0
   39.5926   24.0702   38.4541 H   0  0  0  0  0  0  0  0  0  0  0  0
   37.1170   23.5642   38.7504 H   0  0  0  0  0  0  0  0  0  0  0  0
   36.1064   20.7557   35.2442 H   0  0  0  0  0  0  0  0  0  0  0  0
   36.2823   22.1285   34.0991 H   0  0  0  0  0  0  0  0  0  0  0  0
   37.4898   20.7985   34.0991 H   0  0  0  0  0  0  0  0  0  0  0  0
   45.4290   25.9978   34.2904 H   0  0  0  0  0  0  0  0  0  0  0  0
   45.4652   24.4825   35.2312 H   0  0  0  0  0  0  0  0  0  0  0  0
  1 10  1  0
  1  2  1  0
  3  2  2  0
  4  9  2  0
  4  3  1  0
  5  4  1  0
  6  7  1  0
  6  5  2  0
  7  8  2  0
  8  9  1  0
  9  1  1  0
 10 11  2  0
 11 12  1  0
 13 12  2  0
 14 13  1  0
 15 14  2  0
 15 10  1  0
 16 14  1  0
 17  5  1  0
  2 18  1  0
  7 19  1  0
 11 20  1  0
 12 21  1  0
 16 22  1  0
 16 23  1  0
 16 24  1  0
 17 25  1  0
 17 26  1  0
M  ISO  7  18  14  19  14  20  14  21  14  22   8  23   8  24   8
M  END
>  <minimizedAffinity>  (1) 
-3.81740022

>  <minimizedRMSD>  (1) 
0.0577709563

$$$$
