
     RDKit          3D

 24 26  0  0  0  0  0  0  0  0999 V2000
   41.0130   23.2970   36.2750 N   0  0  0  0  0  0  0  0  0  0  0  0
   42.0390   22.5070   36.6870 C   0  0  0  0  0  0  0  0  0  0  0  0
   43.1760   23.0800   36.2270 N   0  0  0  0  0  0  0  0  0  0  0  0
   42.8500   24.1870   35.5540 C   0  0  0  0  0  0  0  0  0  0  0  0
   43.5430   25.1620   34.8790 C   0  0  0  0  0  0  0  0  0  0  0  0
   42.9120   26.2170   34.2660 N   0  0  0  0  0  0  0  0  0  0  0  0
   41.5500   26.3150   34.3210 C   0  0  0  0  0  0  0  0  0  0  0  0
   40.8430   25.3730   34.9770 N   0  0  0  0  0  0  0  0  0  0  0  0
   41.4790   24.3540   35.5660 C   0  0  0  0  0  0  0  0  0  0  0  0
   39.6240   23.0690   36.5360 C   0  0  0  0  0  0  0  0  0  0  0  0
   39.0200   23.5100   37.7270 C   0  0  0  0  0  0  0  0  0  0  0  0
   37.6570   23.2380   37.8850 C   0  0  0  0  0  0  0  0  0  0  0  0
   36.9910   22.5770   36.9090 N   0  0  0  0  0  0  0  0  0  0  0  0
   37.5980   22.1640   35.7700 C   0  0  0  0  0  0  0  0  0  0  0  0
   38.9150   22.4140   35.5940 N   0  0  0  0  0  0  0  0  0  0  0  0
   36.9310   21.4840   34.7580 O   0  0  0  0  0  0  0  0  0  0  0  0
   44.9550   25.1110   34.7890 N   0  0  0  0  0  0  0  0  0  0  0  0
   41.9610   21.5828   37.2785 H   0  0  0  0  0  0  0  0  0  0  0  0
   41.0346   27.1559   33.8338 H   0  0  0  0  0  0  0  0  0  0  0  0
   39.5932   24.0444   38.4990 H   0  0  0  0  0  0  0  0  0  0  0  0
   37.1300   23.5589   38.7957 H   0  0  0  0  0  0  0  0  0  0  0  0
   37.4202   21.2034   33.9443 H   0  0  0  0  0  0  0  0  0  0  0  0
   45.4656   25.8470   34.2805 H   0  0  0  0  0  0  0  0  0  0  0  0
   45.4717   24.3379   35.2320 H   0  0  0  0  0  0  0  0  0  0  0  0
  1 10  1  0
  1  2  1  0
  3  2  2  0
  4  9  2  0
  4  3  1  0
  5  4  1  0
  6  7  1  0
  6  5  2  0
  7  8  2  0
  8  9  1  0
  9  1  1  0
 10 11  2  0
 11 12  1  0
 13 12  2  0
 14 13  1  0
 15 14  2  0
 15 10  1  0
 16 14  1  0
 17  5  1  0
  2 18  1  0
  7 19  1  0
 11 20  1  0
 12 21  1  0
 16 22  1  0
 17 23  1  0
 17 24  1  0
M  ISO  5  18  14  19  14  20  14  21  14  22   3
M  END
>  <minimizedAffinity>  (1) 
-3.8823607

>  <minimizedRMSD>  (1) 
0.116639778

$$$$
