
     RDKit          3D

 32 34  0  0  0  0  0  0  0  0999 V2000
   39.3520   25.4110   34.5230 N   0  0  0  0  0  0  0  0  0  0  0  0
   40.4970   26.0990   34.5050 C   0  0  0  0  0  0  0  0  0  0  0  0
   40.8170   26.8450   33.3670 C   0  0  0  0  0  0  0  0  0  0  0  0
   39.9450   26.8520   32.2930 C   0  0  0  0  0  0  0  0  0  0  0  0
   40.1500   27.4880   31.2390 O   0  0  0  0  0  0  0  0  0  0  0  0
   38.7990   26.1490   32.3410 N   0  0  0  0  0  0  0  0  0  0  0  0
   38.5180   25.4350   33.4590 C   0  0  0  0  0  0  0  0  0  0  0  0
   37.4470   24.7780   33.5020 O   0  0  0  0  0  0  0  0  0  0  0  0
   38.2080   25.2050   36.6280 C   0  0  0  0  0  0  0  0  0  0  0  0
   39.1050   24.6870   35.7030 C   0  0  0  0  0  0  0  0  0  0  0  0
   39.7040   23.4790   36.0060 C   0  0  0  0  0  0  0  0  0  0  0  0
   39.3860   22.8630   37.1890 N   0  0  0  0  0  0  0  0  0  0  0  0
   38.5230   23.3860   38.0520 C   0  0  0  0  0  0  0  0  0  0  0  0
   37.9330   24.5670   37.7660 N   0  0  0  0  0  0  0  0  0  0  0  0
   38.3560   22.5690   39.1960 N   0  0  0  0  0  0  0  0  0  0  0  0
   42.0820   27.6460   33.2550 C   0  0  0  0  0  0  0  0  0  0  0  0
   43.3000   26.7460   33.2500 C   0  0  0  0  0  0  0  0  0  0  0  0
   44.4100   27.1750   34.1550 C   0  0  0  0  0  0  0  0  0  0  0  0
   44.5830   27.2400   32.6790 C   0  0  0  0  0  0  0  0  0  0  0  0
   41.1759   26.0788   35.3703 H   0  0  0  0  0  0  0  0  0  0  0  0
   38.1472   26.1530   31.5434 H   0  0  0  0  0  0  0  0  0  0  0  0
   37.7127   26.1642   36.4169 H   0  0  0  0  0  0  0  0  0  0  0  0
   40.4226   23.0201   35.3110 H   0  0  0  0  0  0  0  0  0  0  0  0
   37.7125   22.8587   39.9462 H   0  0  0  0  0  0  0  0  0  0  0  0
   38.8780   21.6849   39.2781 H   0  0  0  0  0  0  0  0  0  0  0  0
   42.0591   28.2244   32.3196 H   0  0  0  0  0  0  0  0  0  0  0  0
   42.1479   28.3174   34.1239 H   0  0  0  0  0  0  0  0  0  0  0  0
   42.7015   25.8385   33.0816 H   0  0  0  0  0  0  0  0  0  0  0  0
   44.3164   28.1022   34.7395 H   0  0  0  0  0  0  0  0  0  0  0  0
   44.9629   26.7089   34.9839 H   0  0  0  0  0  0  0  0  0  0  0  0
   45.2653   26.5399   32.1747 H   0  0  0  0  0  0  0  0  0  0  0  0
   44.8618   28.0284   31.9643 H   0  0  0  0  0  0  0  0  0  0  0  0
  1 10  1  0
  2  1  1  0
  3  2  2  0
  4  6  1  0
  4  3  1  0
  5  4  2  0
  6  7  1  0
  7  8  2  0
  7  1  1  0
  9 14  2  0
 10 11  2  0
 10  9  1  0
 11 12  1  0
 12 13  2  0
 13 15  1  0
 14 13  1  0
 16  3  1  0
 17 16  1  0
 17 18  1  0
 19 17  1  0
 19 18  1  0
  2 20  1  0
  6 21  1  0
  9 22  1  0
 11 23  1  0
 15 24  1  0
 15 25  1  0
 16 26  1  0
 16 27  1  0
 17 28  1  0
 18 29  1  0
 18 30  1  0
 19 31  1  0
 19 32  1  0
M  ISO  8  20  14  21   9  22  14  23  14  26   8  27   8  28  13  29  13
M  ISO  3  30  13  31  13  32  13
M  END
>  <minimizedAffinity>  (1) 
-4.31895924

>  <minimizedRMSD>  (1) 
0.675266325

$$$$
