
     RDKit          3D

 38 42  0  0  0  0  0  0  0  0999 V2000
   39.9080   22.5310   37.0180 C   0  0  0  0  0  0  0  0  0  0  0  0
   39.4530   23.2780   38.1090 C   0  0  0  0  0  0  0  0  0  0  0  0
   38.0720   23.5190   38.1790 C   0  0  0  0  0  0  0  0  0  0  0  0
   37.2570   23.0310   37.2130 N   0  0  0  0  0  0  0  0  0  0  0  0
   37.7220   22.3140   36.1720 C   0  0  0  0  0  0  0  0  0  0  0  0
   39.0490   22.0790   36.0990 N   0  0  0  0  0  0  0  0  0  0  0  0
   41.2880   22.2230   36.8390 N   0  0  0  0  0  0  0  0  0  0  0  0
   41.9180   21.0810   37.2420 C   0  0  0  0  0  0  0  0  0  0  0  0
   43.2100   21.2000   36.8770 N   0  0  0  0  0  0  0  0  0  0  0  0
   43.3810   22.3850   36.2620 C   0  0  0  0  0  0  0  0  0  0  0  0
   44.4340   23.0470   35.6920 C   0  0  0  0  0  0  0  0  0  0  0  0
   44.2910   24.2890   35.1250 N   0  0  0  0  0  0  0  0  0  0  0  0
   43.0660   24.8950   35.1230 C   0  0  0  0  0  0  0  0  0  0  0  0
   42.0140   24.2590   35.6810 N   0  0  0  0  0  0  0  0  0  0  0  0
   42.1780   23.0440   36.2300 C   0  0  0  0  0  0  0  0  0  0  0  0
   45.7180   22.4670   35.6670 N   0  0  0  0  0  0  0  0  0  0  0  0
   36.9000   21.8090   35.1770 O   0  0  0  0  0  0  0  0  0  0  0  0
   37.1240   21.9630   33.8300 C   0  0  0  0  0  0  0  0  0  0  0  0
   37.8170   22.9790   33.2370 N   0  0  0  0  0  0  0  0  0  0  0  0
   37.9610   23.0070   31.8850 C   0  0  0  0  0  0  0  0  0  0  0  0
   37.4480   22.0680   31.0670 N   0  0  0  0  0  0  0  0  0  0  0  0
   36.7560   21.0500   31.6140 C   0  0  0  0  0  0  0  0  0  0  0  0
   36.2380   20.0960   30.7570 C   0  0  0  0  0  0  0  0  0  0  0  0
   35.5220   19.0440   31.3380 C   0  0  0  0  0  0  0  0  0  0  0  0
   35.3260   18.9370   32.7120 C   0  0  0  0  0  0  0  0  0  0  0  0
   35.8840   19.9380   33.4740 C   0  0  0  0  0  0  0  0  0  0  0  0
   36.5960   21.0000   33.0000 C   0  0  0  0  0  0  0  0  0  0  0  0
   40.1441   23.6585   38.8755 H   0  0  0  0  0  0  0  0  0  0  0  0
   37.6537   24.1009   39.0136 H   0  0  0  0  0  0  0  0  0  0  0  0
   41.4596   20.2281   37.7640 H   0  0  0  0  0  0  0  0  0  0  0  0
   42.9386   25.8900   34.6717 H   0  0  0  0  0  0  0  0  0  0  0  0
   46.5038   22.9740   35.2354 H   0  0  0  0  0  0  0  0  0  0  0  0
   45.8707   21.5360   36.0804 H   0  0  0  0  0  0  0  0  0  0  0  0
   38.5249   23.8384   31.4369 H   0  0  0  0  0  0  0  0  0  0  0  0
   36.3824   20.1615   29.6685 H   0  0  0  0  0  0  0  0  0  0  0  0
   35.0966   18.2699   30.6825 H   0  0  0  0  0  0  0  0  0  0  0  0
   34.7615   18.1059   33.1599 H   0  0  0  0  0  0  0  0  0  0  0  0
   35.7430   19.8758   34.5632 H   0  0  0  0  0  0  0  0  0  0  0  0
  1  2  2  0
  2  3  1  0
  4  3  2  0
  5  4  1  0
  6  5  2  0
  6  1  1  0
  7  1  1  0
  7  8  1  0
  9  8  2  0
 10  9  1  0
 11 10  2  0
 12 11  1  0
 13 12  2  0
 13 14  1  0
 14 15  2  0
 15 10  1  0
 15  7  1  0
 16 11  1  0
 17  5  1  0
 18 17  1  0
 19 18  2  0
 20 19  1  0
 21 22  1  0
 21 20  2  0
 22 27  2  0
 23 24  2  0
 23 22  1  0
 24 25  1  0
 25 26  2  0
 27 26  1  0
 27 18  1  0
  2 28  1  0
  3 29  1  0
  8 30  1  0
 13 31  1  0
 16 32  1  0
 16 33  1  0
 20 34  1  0
 23 35  1  0
 24 36  1  0
 25 37  1  0
 26 38  1  0
M  ISO  8  28  14  29  14  30  14  31  14  34  14  35  14  36  14  37  14
M  ISO  1  38  14
M  END
>  <minimizedAffinity>  (1) 
-5.95944309

>  <minimizedRMSD>  (1) 
1.57898533

$$$$
