
     RDKit          3D

 27 29  0  0  0  0  0  0  0  0999 V2000
   41.3220   22.2580   36.7960 N   0  0  0  0  0  0  0  0  0  0  0  0
   41.9560   21.1350   37.2240 C   0  0  0  0  0  0  0  0  0  0  0  0
   43.2700   21.2950   36.9000 N   0  0  0  0  0  0  0  0  0  0  0  0
   43.4080   22.4830   36.2950 C   0  0  0  0  0  0  0  0  0  0  0  0
   44.4530   23.1930   35.7520 C   0  0  0  0  0  0  0  0  0  0  0  0
   44.2820   24.4290   35.1820 N   0  0  0  0  0  0  0  0  0  0  0  0
   43.0490   24.9910   35.1400 C   0  0  0  0  0  0  0  0  0  0  0  0
   41.9990   24.3170   35.6660 N   0  0  0  0  0  0  0  0  0  0  0  0
   42.1880   23.1100   36.2190 C   0  0  0  0  0  0  0  0  0  0  0  0
   45.7640   22.6560   35.7680 N   0  0  0  0  0  0  0  0  0  0  0  0
   39.9170   22.5130   36.9360 C   0  0  0  0  0  0  0  0  0  0  0  0
   39.4020   23.1960   38.0530 C   0  0  0  0  0  0  0  0  0  0  0  0
   38.0140   23.3860   38.0810 C   0  0  0  0  0  0  0  0  0  0  0  0
   37.2480   22.9230   37.0660 N   0  0  0  0  0  0  0  0  0  0  0  0
   37.7790   22.2650   35.9980 C   0  0  0  0  0  0  0  0  0  0  0  0
   39.1110   22.0640   35.9390 N   0  0  0  0  0  0  0  0  0  0  0  0
   37.0010   21.7900   34.9610 O   0  0  0  0  0  0  0  0  0  0  0  0
   35.9320   20.9600   35.1820 C   0  0  0  0  0  0  0  0  0  0  0  0
   35.4110   20.2570   34.2520 O   0  0  0  0  0  0  0  0  0  0  0  0
   35.1850   20.6520   36.2850 O   0  0  0  0  0  0  0  0  0  0  0  0
   41.5005   20.2710   37.7300 H   0  0  0  0  0  0  0  0  0  0  0  0
   42.9034   25.9816   34.6845 H   0  0  0  0  0  0  0  0  0  0  0  0
   46.5445   23.1905   35.3604 H   0  0  0  0  0  0  0  0  0  0  0  0
   45.9366   21.7311   36.1872 H   0  0  0  0  0  0  0  0  0  0  0  0
   40.0536   23.5610   38.8605 H   0  0  0  0  0  0  0  0  0  0  0  0
   37.5473   23.9111   38.9274 H   0  0  0  0  0  0  0  0  0  0  0  0
   34.4377   20.0067   36.2123 H   0  0  0  0  0  0  0  0  0  0  0  0
  1 11  1  0
  1  2  1  0
  3  2  2  0
  4  3  1  0
  5 10  1  0
  5  4  2  0
  6  5  1  0
  7  6  2  0
  7  8  1  0
  8  9  2  0
  9  4  1  0
  9  1  1  0
 11 12  2  0
 12 13  1  0
 14 13  2  0
 15 14  1  0
 16 15  2  0
 16 11  1  0
 17 18  1  0
 17 15  1  0
 18 20  1  0
 19 18  2  0
  2 21  1  0
  7 22  1  0
 10 23  1  0
 10 24  1  0
 12 25  1  0
 13 26  1  0
 20 27  1  0
M  ISO  5  21  14  22  14  25  14  26  14  27   3
M  END
>  <minimizedAffinity>  (1) 
-4.950212

>  <minimizedRMSD>  (1) 
1.60806954

$$$$
