
     RDKit          3D

 31 34  0  0  0  0  0  0  0  0999 V2000
   42.8760   22.9680   36.2020 C   0  0  0  0  0  0  0  0  0  0  0  0
   42.4060   21.9130   37.0030 C   0  0  0  0  0  0  0  0  0  0  0  0
   41.0190   21.6940   36.9770 C   0  0  0  0  0  0  0  0  0  0  0  0
   40.2200   22.4700   36.2150 N   0  0  0  0  0  0  0  0  0  0  0  0
   40.7090   23.4870   35.4480 C   0  0  0  0  0  0  0  0  0  0  0  0
   42.0400   23.7090   35.4630 N   0  0  0  0  0  0  0  0  0  0  0  0
   44.2740   23.2920   36.1430 N   0  0  0  0  0  0  0  0  0  0  0  0
   45.1960   22.7020   35.3330 C   0  0  0  0  0  0  0  0  0  0  0  0
   46.3820   23.2910   35.5850 N   0  0  0  0  0  0  0  0  0  0  0  0
   46.1870   24.2270   36.5320 C   0  0  0  0  0  0  0  0  0  0  0  0
   46.9870   25.1330   37.1900 C   0  0  0  0  0  0  0  0  0  0  0  0
   46.4900   25.9850   38.1360 N   0  0  0  0  0  0  0  0  0  0  0  0
   45.1510   25.9460   38.4530 C   0  0  0  0  0  0  0  0  0  0  0  0
   44.3440   25.0670   37.8240 N   0  0  0  0  0  0  0  0  0  0  0  0
   44.8520   24.2460   36.9030 C   0  0  0  0  0  0  0  0  0  0  0  0
   48.3620   25.2180   36.9070 N   0  0  0  0  0  0  0  0  0  0  0  0
   39.9180   24.2970   34.6590 O   0  0  0  0  0  0  0  0  0  0  0  0
   39.0890   27.5550   35.8420 N   0  0  0  0  0  0  0  0  0  0  0  0
   39.9040   26.7980   35.1210 N   0  0  0  0  0  0  0  0  0  0  0  0
   39.4800   25.5020   35.1910 C   0  0  0  0  0  0  0  0  0  0  0  0
   38.3530   25.5040   35.9990 C   0  0  0  0  0  0  0  0  0  0  0  0
   38.0990   26.8150   36.4170 C   0  0  0  0  0  0  0  0  0  0  0  0
   43.0830   21.2967   37.6128 H   0  0  0  0  0  0  0  0  0  0  0  0
   40.5815   20.8855   37.5811 H   0  0  0  0  0  0  0  0  0  0  0  0
   45.0081   21.8957   34.6087 H   0  0  0  0  0  0  0  0  0  0  0  0
   44.7420   26.6269   39.2140 H   0  0  0  0  0  0  0  0  0  0  0  0
   48.9494   25.9006   37.4068 H   0  0  0  0  0  0  0  0  0  0  0  0
   48.7816   24.5976   36.1999 H   0  0  0  0  0  0  0  0  0  0  0  0
   39.1909   28.5738   35.9537 H   0  0  0  0  0  0  0  0  0  0  0  0
   37.7564   24.6197   36.2674 H   0  0  0  0  0  0  0  0  0  0  0  0
   37.2833   27.1691   37.0645 H   0  0  0  0  0  0  0  0  0  0  0  0
  1  2  2  0
  3  2  1  0
  4  3  2  0
  5  6  2  0
  5  4  1  0
  6  1  1  0
  7  1  1  0
  7 15  1  0
  8  9  2  0
  8  7  1  0
  9 10  1  0
 10 15  2  0
 10 11  1  0
 11 12  2  0
 12 13  1  0
 14 13  2  0
 15 14  1  0
 16 11  1  0
 17 20  1  0
 17  5  1  0
 18 22  1  0
 19 20  2  0
 19 18  1  0
 20 21  1  0
 21 22  2  0
  2 23  1  0
  3 24  1  0
  8 25  1  0
 13 26  1  0
 16 27  1  0
 16 28  1  0
 18 29  1  0
 21 30  1  0
 22 31  1  0
M  ISO  7  23  14  24  14  25  14  26  14  29   9  30  14  31  14
M  END
>  <minimizedAffinity>  (1) 
-4.81345177

>  <minimizedRMSD>  (1) 
4.86128187

$$$$
