
     RDKit          3D

 31 34  0  0  0  0  0  0  0  0999 V2000
   40.5080   24.1390   35.4420 N   0  0  0  0  0  0  0  0  0  0  0  0
   41.7360   23.7410   35.8620 C   0  0  0  0  0  0  0  0  0  0  0  0
   42.6070   24.6830   35.4350 N   0  0  0  0  0  0  0  0  0  0  0  0
   41.9240   25.6230   34.7760 C   0  0  0  0  0  0  0  0  0  0  0  0
   42.2380   26.8000   34.1260 C   0  0  0  0  0  0  0  0  0  0  0  0
   41.2950   27.5800   33.5230 N   0  0  0  0  0  0  0  0  0  0  0  0
   39.9820   27.1920   33.5550 C   0  0  0  0  0  0  0  0  0  0  0  0
   39.6480   26.0490   34.1820 N   0  0  0  0  0  0  0  0  0  0  0  0
   40.5860   25.3010   34.7650 C   0  0  0  0  0  0  0  0  0  0  0  0
   43.5900   27.2360   34.0710 N   0  0  0  0  0  0  0  0  0  0  0  0
   39.2810   23.4290   35.6770 C   0  0  0  0  0  0  0  0  0  0  0  0
   38.6220   23.5170   36.9260 C   0  0  0  0  0  0  0  0  0  0  0  0
   37.4320   22.7860   37.0510 C   0  0  0  0  0  0  0  0  0  0  0  0
   36.9830   22.0490   35.9970 N   0  0  0  0  0  0  0  0  0  0  0  0
   37.6380   21.9920   34.8230 C   0  0  0  0  0  0  0  0  0  0  0  0
   38.7920   22.6870   34.6690 N   0  0  0  0  0  0  0  0  0  0  0  0
   37.1890   21.2490   33.7500 O   0  0  0  0  0  0  0  0  0  0  0  0
   35.8540   20.7900   33.7980 C   0  0  0  0  0  0  0  0  0  0  0  0
   35.0240   20.8420   32.5400 C   0  0  0  0  0  0  0  0  0  0  0  0
   35.5030   19.5090   33.1140 C   0  0  0  0  0  0  0  0  0  0  0  0
   41.9749   22.8332   36.4354 H   0  0  0  0  0  0  0  0  0  0  0  0
   39.2085   27.8081   33.0733 H   0  0  0  0  0  0  0  0  0  0  0  0
   43.8289   28.1134   33.5872 H   0  0  0  0  0  0  0  0  0  0  0  0
   44.3306   26.6745   34.5149 H   0  0  0  0  0  0  0  0  0  0  0  0
   39.0206   24.1244   37.7520 H   0  0  0  0  0  0  0  0  0  0  0  0
   36.8651   22.8075   37.9934 H   0  0  0  0  0  0  0  0  0  0  0  0
   35.7307   21.1743   34.8213 H   0  0  0  0  0  0  0  0  0  0  0  0
   35.4582   21.2301   31.6068 H   0  0  0  0  0  0  0  0  0  0  0  0
   34.0503   21.2705   32.2604 H   0  0  0  0  0  0  0  0  0  0  0  0
   34.7825   18.8179   33.5758 H   0  0  0  0  0  0  0  0  0  0  0  0
   36.0731   18.6530   32.7238 H   0  0  0  0  0  0  0  0  0  0  0  0
  1 11  1  0
  1  2  1  0
  3  2  2  0
  4  3  1  0
  5  4  2  0
  6  7  2  0
  6  5  1  0
  7  8  1  0
  8  9  2  0
  9  4  1  0
  9  1  1  0
 10  5  1  0
 11 12  2  0
 12 13  1  0
 14 13  2  0
 15 14  1  0
 16 15  2  0
 16 11  1  0
 17 18  1  0
 17 15  1  0
 19 20  1  0
 19 18  1  0
 20 18  1  0
  2 21  1  0
  7 22  1  0
 10 23  1  0
 10 24  1  0
 12 25  1  0
 13 26  1  0
 18 27  1  0
 19 28  1  0
 19 29  1  0
 20 30  1  0
 20 31  1  0
M  ISO  8  21  14  22  14  25  14  26  14  27  13  28  13  29  13  30  13
M  ISO  1  31  13
M  END
>  <minimizedAffinity>  (1) 
-4.74834251

>  <minimizedRMSD>  (1) 
1.70898938

$$$$
