
     RDKit          3D

 33 35  0  0  0  0  0  0  0  0999 V2000
   41.2920   22.5600   36.8540 N   0  0  0  0  0  0  0  0  0  0  0  0
   41.6200   21.2740   37.1540 C   0  0  0  0  0  0  0  0  0  0  0  0
   42.9180   21.1320   36.8220 N   0  0  0  0  0  0  0  0  0  0  0  0
   43.3680   22.2990   36.3330 C   0  0  0  0  0  0  0  0  0  0  0  0
   44.5740   22.7560   35.8440 C   0  0  0  0  0  0  0  0  0  0  0  0
   44.7340   24.0480   35.3990 N   0  0  0  0  0  0  0  0  0  0  0  0
   43.6690   24.9170   35.4390 C   0  0  0  0  0  0  0  0  0  0  0  0
   42.4930   24.4760   35.9160 N   0  0  0  0  0  0  0  0  0  0  0  0
   42.3570   23.2240   36.3410 C   0  0  0  0  0  0  0  0  0  0  0  0
   45.7010   21.9020   35.7860 N   0  0  0  0  0  0  0  0  0  0  0  0
   39.9960   23.1630   37.0460 C   0  0  0  0  0  0  0  0  0  0  0  0
   39.3150   23.0350   38.2800 C   0  0  0  0  0  0  0  0  0  0  0  0
   38.0630   23.6620   38.3530 C   0  0  0  0  0  0  0  0  0  0  0  0
   37.5790   24.3370   37.2810 N   0  0  0  0  0  0  0  0  0  0  0  0
   38.2730   24.4310   36.1100 C   0  0  0  0  0  0  0  0  0  0  0  0
   39.4780   23.8390   36.0140 N   0  0  0  0  0  0  0  0  0  0  0  0
   37.7810   25.1170   35.0200 O   0  0  0  0  0  0  0  0  0  0  0  0
   38.3600   26.3300   34.6160 C   0  0  0  0  0  0  0  0  0  0  0  0
   38.5530   27.3050   35.7310 C   0  0  0  0  0  0  0  0  0  0  0  0
   37.3930   26.9470   33.6070 C   0  0  0  0  0  0  0  0  0  0  0  0
   40.9590   20.5056   37.5813 H   0  0  0  0  0  0  0  0  0  0  0  0
   43.7779   25.9535   35.0871 H   0  0  0  0  0  0  0  0  0  0  0  0
   46.5962   22.2549   35.4187 H   0  0  0  0  0  0  0  0  0  0  0  0
   45.6260   20.9275   36.1110 H   0  0  0  0  0  0  0  0  0  0  0  0
   39.7409   22.4789   39.1281 H   0  0  0  0  0  0  0  0  0  0  0  0
   37.4733   23.6064   39.2799 H   0  0  0  0  0  0  0  0  0  0  0  0
   39.3598   26.1201   34.2081 H   0  0  0  0  0  0  0  0  0  0  0  0
   38.4500   26.7849   36.6948 H   0  0  0  0  0  0  0  0  0  0  0  0
   39.5566   27.7497   35.6597 H   0  0  0  0  0  0  0  0  0  0  0  0
   37.7945   28.0985   35.6597 H   0  0  0  0  0  0  0  0  0  0  0  0
   36.5835   27.4635   34.1435 H   0  0  0  0  0  0  0  0  0  0  0  0
   37.9327   27.6680   32.9755 H   0  0  0  0  0  0  0  0  0  0  0  0
   36.9665   26.1537   32.9755 H   0  0  0  0  0  0  0  0  0  0  0  0
  1 11  1  0
  1  2  1  0
  3  2  2  0
  4  9  2  0
  4  3  1  0
  5  4  1  0
  6  7  1  0
  6  5  2  0
  7  8  2  0
  8  9  1  0
  9  1  1  0
 10  5  1  0
 11 12  2  0
 12 13  1  0
 14 13  2  0
 15 14  1  0
 16 15  2  0
 16 11  1  0
 17 15  1  0
 18 17  1  0
 18 19  1  0
 20 18  1  0
  2 21  1  0
  7 22  1  0
 10 23  1  0
 10 24  1  0
 12 25  1  0
 13 26  1  0
 18 27  1  0
 19 28  1  0
 19 29  1  0
 19 30  1  0
 20 31  1  0
 20 32  1  0
 20 33  1  0
M  ISO  8  21  14  22  14  25  14  26  14  27   8  28   8  29   8  30   8
M  ISO  3  31   8  32   8  33   8
M  END
>  <minimizedAffinity>  (1) 
-4.72163486

>  <minimizedRMSD>  (1) 
3.3330698

$$$$
