
     RDKit          3D

 31 34  0  0  0  0  0  0  0  0999 V2000
   39.7540   22.5540   36.8480 C   0  0  0  0  0  0  0  0  0  0  0  0
   39.1880   23.2150   37.9410 C   0  0  0  0  0  0  0  0  0  0  0  0
   37.7880   23.3250   37.9640 C   0  0  0  0  0  0  0  0  0  0  0  0
   37.0620   22.7970   36.9490 N   0  0  0  0  0  0  0  0  0  0  0  0
   37.6370   22.1570   35.8960 C   0  0  0  0  0  0  0  0  0  0  0  0
   38.9740   22.0490   35.8670 N   0  0  0  0  0  0  0  0  0  0  0  0
   41.1670   22.3820   36.7170 N   0  0  0  0  0  0  0  0  0  0  0  0
   41.8800   21.3170   37.1710 C   0  0  0  0  0  0  0  0  0  0  0  0
   43.1700   21.5390   36.8500 N   0  0  0  0  0  0  0  0  0  0  0  0
   43.2430   22.7130   36.2130 C   0  0  0  0  0  0  0  0  0  0  0  0
   44.2460   23.4750   35.6500 C   0  0  0  0  0  0  0  0  0  0  0  0
   44.0040   24.6790   35.0470 N   0  0  0  0  0  0  0  0  0  0  0  0
   42.7260   25.1650   34.9910 C   0  0  0  0  0  0  0  0  0  0  0  0
   41.7170   24.4460   35.5320 N   0  0  0  0  0  0  0  0  0  0  0  0
   41.9800   23.2750   36.1140 C   0  0  0  0  0  0  0  0  0  0  0  0
   45.5790   23.0280   35.6770 N   0  0  0  0  0  0  0  0  0  0  0  0
   36.8920   21.6240   34.8680 O   0  0  0  0  0  0  0  0  0  0  0  0
   37.3460   21.5420   33.5660 C   0  0  0  0  0  0  0  0  0  0  0  0
   36.3290   21.7720   32.6310 C   0  0  0  0  0  0  0  0  0  0  0  0
   36.8660   21.6720   31.3800 N   0  0  0  0  0  0  0  0  0  0  0  0
   38.1660   21.3890   31.5290 C   0  0  0  0  0  0  0  0  0  0  0  0
   38.4770   21.3060   32.8430 N   0  0  0  0  0  0  0  0  0  0  0  0
   39.8106   23.6305   38.7470 H   0  0  0  0  0  0  0  0  0  0  0  0
   37.2853   23.8353   38.7987 H   0  0  0  0  0  0  0  0  0  0  0  0
   41.4796   20.4398   37.7003 H   0  0  0  0  0  0  0  0  0  0  0  0
   42.5213   26.1327   34.5097 H   0  0  0  0  0  0  0  0  0  0  0  0
   46.3232   23.6016   35.2549 H   0  0  0  0  0  0  0  0  0  0  0  0
   45.8112   22.1270   36.1188 H   0  0  0  0  0  0  0  0  0  0  0  0
   35.2775   21.9950   32.8647 H   0  0  0  0  0  0  0  0  0  0  0  0
   38.8779   21.2449   30.7029 H   0  0  0  0  0  0  0  0  0  0  0  0
   39.4088   21.0998   33.2306 H   0  0  0  0  0  0  0  0  0  0  0  0
  1  2  2  0
  2  3  1  0
  4  3  2  0
  5  4  1  0
  6  5  2  0
  6  1  1  0
  7  1  1  0
  7  8  1  0
  9  8  2  0
 10  9  1  0
 11 16  1  0
 11 10  2  0
 12 11  1  0
 13 12  2  0
 13 14  1  0
 14 15  2  0
 15 10  1  0
 15  7  1  0
 17  5  1  0
 18 17  1  0
 19 18  2  0
 20 21  2  0
 20 19  1  0
 21 22  1  0
 22 18  1  0
  2 23  1  0
  3 24  1  0
  8 25  1  0
 13 26  1  0
 16 27  1  0
 16 28  1  0
 19 29  1  0
 21 30  1  0
 22 31  1  0
M  ISO  7  23  14  24  14  25  14  26  14  29  14  30  14  31   9
M  END
>  <minimizedAffinity>  (1) 
-4.70039606

>  <minimizedRMSD>  (1) 
1.46856737

$$$$
