
     RDKit          3D

 31 34  0  0  0  0  0  0  0  0999 V2000
   40.1170   23.2710   35.9000 C   0  0  0  0  0  0  0  0  0  0  0  0
   39.2570   23.5900   36.9780 C   0  0  0  0  0  0  0  0  0  0  0  0
   37.9590   23.0940   36.9120 C   0  0  0  0  0  0  0  0  0  0  0  0
   37.5740   22.3420   35.8460 N   0  0  0  0  0  0  0  0  0  0  0  0
   38.4280   22.0510   34.8230 C   0  0  0  0  0  0  0  0  0  0  0  0
   39.6860   22.5210   34.8670 N   0  0  0  0  0  0  0  0  0  0  0  0
   41.4720   23.7320   35.8710 N   0  0  0  0  0  0  0  0  0  0  0  0
   42.5260   23.1490   36.5030 C   0  0  0  0  0  0  0  0  0  0  0  0
   43.6130   23.8950   36.2170 N   0  0  0  0  0  0  0  0  0  0  0  0
   43.2340   24.9040   35.4350 C   0  0  0  0  0  0  0  0  0  0  0  0
   43.8700   25.9650   34.8330 C   0  0  0  0  0  0  0  0  0  0  0  0
   43.1870   26.8730   34.0570 N   0  0  0  0  0  0  0  0  0  0  0  0
   41.8480   26.7330   33.8660 C   0  0  0  0  0  0  0  0  0  0  0  0
   41.2020   25.7000   34.4450 N   0  0  0  0  0  0  0  0  0  0  0  0
   41.8780   24.8290   35.1960 C   0  0  0  0  0  0  0  0  0  0  0  0
   45.2660   26.1560   35.0000 N   0  0  0  0  0  0  0  0  0  0  0  0
   38.0640   21.2890   33.7260 O   0  0  0  0  0  0  0  0  0  0  0  0
   36.9340   21.5570   32.9640 C   0  0  0  0  0  0  0  0  0  0  0  0
   35.9160   20.5990   33.0100 C   0  0  0  0  0  0  0  0  0  0  0  0
   34.9100   21.0940   32.1750 C   0  0  0  0  0  0  0  0  0  0  0  0
   35.3790   22.3130   31.6790 C   0  0  0  0  0  0  0  0  0  0  0  0
   36.5920   22.5460   32.1790 O   0  0  0  0  0  0  0  0  0  0  0  0
   39.5985   24.2006   37.8269 H   0  0  0  0  0  0  0  0  0  0  0  0
   37.2451   23.3096   37.7206 H   0  0  0  0  0  0  0  0  0  0  0  0
   42.4975   22.2436   37.1271 H   0  0  0  0  0  0  0  0  0  0  0  0
   41.2970   27.4550   33.2454 H   0  0  0  0  0  0  0  0  0  0  0  0
   45.7347   26.9529   34.5459 H   0  0  0  0  0  0  0  0  0  0  0  0
   45.8107   25.4978   35.5753 H   0  0  0  0  0  0  0  0  0  0  0  0
   35.9086   19.6585   33.5804 H   0  0  0  0  0  0  0  0  0  0  0  0
   33.9430   20.6190   31.9530 H   0  0  0  0  0  0  0  0  0  0  0  0
   34.8350   22.9735   30.9877 H   0  0  0  0  0  0  0  0  0  0  0  0
  1  2  2  0
  3  2  1  0
  4  3  2  0
  5  6  2  0
  5  4  1  0
  6  1  1  0
  7  1  1  0
  7  8  1  0
  9  8  2  0
 10  9  1  0
 11 16  1  0
 11 10  2  0
 12 11  1  0
 13 12  2  0
 13 14  1  0
 14 15  2  0
 15 10  1  0
 15  7  1  0
 17  5  1  0
 18 19  2  0
 18 17  1  0
 20 19  1  0
 21 20  2  0
 21 22  1  0
 22 18  1  0
  2 23  1  0
  3 24  1  0
  8 25  1  0
 13 26  1  0
 16 27  1  0
 16 28  1  0
 19 29  1  0
 20 30  1  0
 21 31  1  0
M  ISO  7  23  14  24  14  25  14  26  14  29  14  30  14  31  14
M  END
>  <minimizedAffinity>  (1) 
-4.64412594

>  <minimizedRMSD>  (1) 
1.77240586

$$$$
