
     RDKit          3D

 29 32  0  0  0  0  0  0  0  0999 V2000
   39.7140   22.5370   36.8100 C   0  0  0  0  0  0  0  0  0  0  0  0
   39.1450   23.2390   37.8990 C   0  0  0  0  0  0  0  0  0  0  0  0
   37.7530   23.3460   37.9270 C   0  0  0  0  0  0  0  0  0  0  0  0
   37.0190   22.7870   36.9350 N   0  0  0  0  0  0  0  0  0  0  0  0
   37.5960   22.1160   35.9000 C   0  0  0  0  0  0  0  0  0  0  0  0
   38.9430   22.0020   35.8560 N   0  0  0  0  0  0  0  0  0  0  0  0
   41.1300   22.3720   36.6900 N   0  0  0  0  0  0  0  0  0  0  0  0
   41.8500   21.3220   37.1570 C   0  0  0  0  0  0  0  0  0  0  0  0
   43.1370   21.5700   36.8340 N   0  0  0  0  0  0  0  0  0  0  0  0
   43.1980   22.7470   36.1850 C   0  0  0  0  0  0  0  0  0  0  0  0
   44.2020   23.4880   35.6350 C   0  0  0  0  0  0  0  0  0  0  0  0
   43.9530   24.6880   35.0180 N   0  0  0  0  0  0  0  0  0  0  0  0
   42.6640   25.1660   34.9440 C   0  0  0  0  0  0  0  0  0  0  0  0
   41.6660   24.4390   35.4850 N   0  0  0  0  0  0  0  0  0  0  0  0
   41.9360   23.2790   36.0780 C   0  0  0  0  0  0  0  0  0  0  0  0
   45.5470   23.0530   35.6770 N   0  0  0  0  0  0  0  0  0  0  0  0
   36.8630   21.5410   34.8820 O   0  0  0  0  0  0  0  0  0  0  0  0
   37.1510   21.7370   33.5610 C   0  0  0  0  0  0  0  0  0  0  0  0
   37.2460   22.8980   32.8950 N   0  0  0  0  0  0  0  0  0  0  0  0
   37.5370   22.6490   31.6520 O   0  0  0  0  0  0  0  0  0  0  0  0
   37.6400   21.3380   31.4690 C   0  0  0  0  0  0  0  0  0  0  0  0
   37.4000   20.7490   32.6560 N   0  0  0  0  0  0  0  0  0  0  0  0
   39.7712   23.6806   38.6882 H   0  0  0  0  0  0  0  0  0  0  0  0
   37.2555   23.8809   38.7494 H   0  0  0  0  0  0  0  0  0  0  0  0
   41.4623   20.4429   37.6926 H   0  0  0  0  0  0  0  0  0  0  0  0
   42.4518   26.1262   34.4511 H   0  0  0  0  0  0  0  0  0  0  0  0
   46.2883   23.6300   35.2546 H   0  0  0  0  0  0  0  0  0  0  0  0
   45.7853   22.1592   36.1300 H   0  0  0  0  0  0  0  0  0  0  0  0
   37.8772   20.8279   30.5237 H   0  0  0  0  0  0  0  0  0  0  0  0
  1  2  2  0
  2  3  1  0
  4  3  2  0
  5  4  1  0
  6  5  2  0
  6  1  1  0
  7  1  1  0
  7  8  1  0
  9  8  2  0
 10  9  1  0
 11 16  1  0
 11 10  2  0
 12 11  1  0
 13 12  2  0
 13 14  1  0
 14 15  2  0
 15 10  1  0
 15  7  1  0
 17  5  1  0
 18 17  1  0
 19 18  2  0
 20 19  1  0
 21 20  1  0
 21 22  2  0
 22 18  1  0
  2 23  1  0
  3 24  1  0
  8 25  1  0
 13 26  1  0
 16 27  1  0
 16 28  1  0
 21 29  1  0
M  ISO  5  23  14  24  14  25  14  26  14  29  14
M  END
>  <minimizedAffinity>  (1) 
-4.621984

>  <minimizedRMSD>  (1) 
1.39844394

$$$$
