
     RDKit          3D

 27 29  0  0  0  0  0  0  0  0999 V2000
   40.7510   23.9990   35.4840 N   0  0  0  0  0  0  0  0  0  0  0  0
   41.9470   23.5310   35.9560 C   0  0  0  0  0  0  0  0  0  0  0  0
   42.8730   24.4340   35.5860 N   0  0  0  0  0  0  0  0  0  0  0  0
   42.2730   25.4160   34.9160 C   0  0  0  0  0  0  0  0  0  0  0  0
   42.6840   26.5820   34.3090 C   0  0  0  0  0  0  0  0  0  0  0  0
   41.7970   27.4220   33.6760 N   0  0  0  0  0  0  0  0  0  0  0  0
   40.4780   27.1050   33.6390 C   0  0  0  0  0  0  0  0  0  0  0  0
   40.0290   25.9680   34.2220 N   0  0  0  0  0  0  0  0  0  0  0  0
   40.9190   25.1660   34.8340 C   0  0  0  0  0  0  0  0  0  0  0  0
   44.0410   26.9580   34.3190 N   0  0  0  0  0  0  0  0  0  0  0  0
   39.4780   23.3540   35.6480 C   0  0  0  0  0  0  0  0  0  0  0  0
   38.7430   23.4810   36.8480 C   0  0  0  0  0  0  0  0  0  0  0  0
   37.5120   22.8020   36.8900 C   0  0  0  0  0  0  0  0  0  0  0  0
   37.0990   22.0790   35.8100 N   0  0  0  0  0  0  0  0  0  0  0  0
   37.8470   21.9890   34.6750 C   0  0  0  0  0  0  0  0  0  0  0  0
   39.0300   22.6240   34.5960 N   0  0  0  0  0  0  0  0  0  0  0  0
   37.4210   21.2520   33.5960 O   0  0  0  0  0  0  0  0  0  0  0  0
   36.4600   21.6010   32.6580 C   0  0  0  0  0  0  0  0  0  0  0  0
   35.2160   21.2990   33.2210 F   0  0  0  0  0  0  0  0  0  0  0  0
   36.4750   22.9940   32.5680 F   0  0  0  0  0  0  0  0  0  0  0  0
   36.6320   21.0620   31.4210 F   0  0  0  0  0  0  0  0  0  0  0  0
   42.1169   22.6040   36.5232 H   0  0  0  0  0  0  0  0  0  0  0  0
   39.7688   27.7760   33.1321 H   0  0  0  0  0  0  0  0  0  0  0  0
   44.3365   27.8323   33.8617 H   0  0  0  0  0  0  0  0  0  0  0  0
   44.7380   26.3587   34.7836 H   0  0  0  0  0  0  0  0  0  0  0  0
   39.1111   24.0748   37.6977 H   0  0  0  0  0  0  0  0  0  0  0  0
   36.8840   22.8540   37.7916 H   0  0  0  0  0  0  0  0  0  0  0  0
  1 11  1  0
  1  2  1  0
  3  2  2  0
  4  3  1  0
  5 10  1  0
  5  4  2  0
  6  5  1  0
  7  6  2  0
  7  8  1  0
  8  9  2  0
  9  4  1  0
  9  1  1  0
 11 12  2  0
 12 13  1  0
 14 13  2  0
 15 14  1  0
 16 15  2  0
 16 11  1  0
 17 15  1  0
 18 19  1  0
 18 17  1  0
 20 18  1  0
 21 18  1  0
  2 22  1  0
  7 23  1  0
 10 24  1  0
 10 25  1  0
 12 26  1  0
 13 27  1  0
M  ISO  4  22  14  23  14  26  14  27  14
M  END
>  <minimizedAffinity>  (1) 
-4.46404123

>  <minimizedRMSD>  (1) 
1.40245235

$$$$
