
     RDKit          3D

 33 36  0  0  0  0  0  0  0  0999 V2000
   41.8490   23.4510   35.8710 C   0  0  0  0  0  0  0  0  0  0  0  0
   42.1260   22.3860   36.7300 C   0  0  0  0  0  0  0  0  0  0  0  0
   41.0550   21.8480   37.4420 C   0  0  0  0  0  0  0  0  0  0  0  0
   39.8290   22.3670   37.2740 N   0  0  0  0  0  0  0  0  0  0  0  0
   39.5610   23.4080   36.4340 C   0  0  0  0  0  0  0  0  0  0  0  0
   40.6060   23.9340   35.7380 N   0  0  0  0  0  0  0  0  0  0  0  0
   42.8840   24.0720   35.0960 N   0  0  0  0  0  0  0  0  0  0  0  0
   42.9950   24.0440   33.7480 C   0  0  0  0  0  0  0  0  0  0  0  0
   44.1060   24.7490   33.4320 N   0  0  0  0  0  0  0  0  0  0  0  0
   44.6570   25.1950   34.5520 C   0  0  0  0  0  0  0  0  0  0  0  0
   45.7650   25.9480   34.8620 C   0  0  0  0  0  0  0  0  0  0  0  0
   46.0890   26.2590   36.1690 N   0  0  0  0  0  0  0  0  0  0  0  0
   45.2930   25.8140   37.1880 C   0  0  0  0  0  0  0  0  0  0  0  0
   44.2000   25.0740   36.9070 N   0  0  0  0  0  0  0  0  0  0  0  0
   43.9020   24.7810   35.6290 C   0  0  0  0  0  0  0  0  0  0  0  0
   46.6120   26.4300   33.8490 N   0  0  0  0  0  0  0  0  0  0  0  0
   38.3210   23.9620   36.2370 O   0  0  0  0  0  0  0  0  0  0  0  0
   38.1280   25.2300   35.7740 C   0  0  0  0  0  0  0  0  0  0  0  0
   38.2840   26.5160   36.2300 C   0  0  0  0  0  0  0  0  0  0  0  0
   37.9850   27.6300   35.4820 C   0  0  0  0  0  0  0  0  0  0  0  0
   37.4990   27.4760   34.2010 C   0  0  0  0  0  0  0  0  0  0  0  0
   37.3410   26.1870   33.7380 C   0  0  0  0  0  0  0  0  0  0  0  0
   37.6450   25.0950   34.5000 N   0  0  0  0  0  0  0  0  0  0  0  0
   43.1457   21.9884   36.8403 H   0  0  0  0  0  0  0  0  0  0  0  0
   41.2131   21.0075   38.1338 H   0  0  0  0  0  0  0  0  0  0  0  0
   42.3132   23.5442   33.0441 H   0  0  0  0  0  0  0  0  0  0  0  0
   45.5423   26.0579   38.2312 H   0  0  0  0  0  0  0  0  0  0  0  0
   47.4390   26.9930   34.0938 H   0  0  0  0  0  0  0  0  0  0  0  0
   46.4056   26.2201   32.8620 H   0  0  0  0  0  0  0  0  0  0  0  0
   38.6694   26.6627   37.2498 H   0  0  0  0  0  0  0  0  0  0  0  0
   38.1323   28.6359   35.9020 H   0  0  0  0  0  0  0  0  0  0  0  0
   37.2479   28.3448   33.5748 H   0  0  0  0  0  0  0  0  0  0  0  0
   36.9566   26.0326   32.7190 H   0  0  0  0  0  0  0  0  0  0  0  0
  1  2  2  0
  2  3  1  0
  4  3  2  0
  5  4  1  0
  6  1  1  0
  6  5  2  0
  7 15  1  0
  7  1  1  0
  8  7  1  0
  9  8  2  0
  9 10  1  0
 10 11  2  0
 10 15  1  0
 11 12  1  0
 12 13  2  0
 14 13  1  0
 15 14  2  0
 16 11  1  0
 17  5  1  0
 18 19  2  0
 18 17  1  0
 20 19  1  0
 21 20  2  0
 22 21  1  0
 22 23  2  0
 23 18  1  0
  2 24  1  0
  3 25  1  0
  8 26  1  0
 13 27  1  0
 16 28  1  0
 16 29  1  0
 19 30  1  0
 20 31  1  0
 21 32  1  0
 22 33  1  0
M  ISO  8  24  14  25  14  26  14  27  14  30  14  31  14  32  14  33  14
M  END
>  <minimizedAffinity>  (1) 
-5.10327435

>  <minimizedRMSD>  (1) 
4.36824703

$$$$
