
     RDKit          3D

 46 50  0  0  0  0  0  0  0  0999 V2000
   43.3150   23.3290   35.7840 C   0  0  0  0  0  0  0  0  0  0  0  0
   44.1970   22.2760   35.5560 C   0  0  0  0  0  0  0  0  0  0  0  0
   43.8510   21.0310   36.0790 C   0  0  0  0  0  0  0  0  0  0  0  0
   42.7020   20.8990   36.7680 N   0  0  0  0  0  0  0  0  0  0  0  0
   41.8430   21.9300   36.9890 C   0  0  0  0  0  0  0  0  0  0  0  0
   42.1820   23.1490   36.4770 N   0  0  0  0  0  0  0  0  0  0  0  0
   43.5810   24.6520   35.2870 N   0  0  0  0  0  0  0  0  0  0  0  0
   42.7260   25.4340   34.6070 C   0  0  0  0  0  0  0  0  0  0  0  0
   43.3810   26.5840   34.3350 N   0  0  0  0  0  0  0  0  0  0  0  0
   44.6080   26.5040   34.8390 C   0  0  0  0  0  0  0  0  0  0  0  0
   45.7110   27.3380   34.8810 C   0  0  0  0  0  0  0  0  0  0  0  0
   46.8760   26.9580   35.4980 N   0  0  0  0  0  0  0  0  0  0  0  0
   46.9610   25.7300   36.0860 C   0  0  0  0  0  0  0  0  0  0  0  0
   45.9090   24.8930   36.0640 N   0  0  0  0  0  0  0  0  0  0  0  0
   44.7710   25.2880   35.4520 C   0  0  0  0  0  0  0  0  0  0  0  0
   45.6520   28.6100   34.2830 N   0  0  0  0  0  0  0  0  0  0  0  0
   40.6710   21.8480   37.6780 O   0  0  0  0  0  0  0  0  0  0  0  0
   39.7120   22.8100   37.7120 C   0  0  0  0  0  0  0  0  0  0  0  0
   38.8930   23.3120   38.7020 C   0  0  0  0  0  0  0  0  0  0  0  0
   37.9820   24.3090   38.4800 C   0  0  0  0  0  0  0  0  0  0  0  0
   37.8710   24.8440   37.2040 C   0  0  0  0  0  0  0  0  0  0  0  0
   38.6910   24.3370   36.2290 C   0  0  0  0  0  0  0  0  0  0  0  0
   39.5970   23.3400   36.4620 N   0  0  0  0  0  0  0  0  0  0  0  0
   38.4980   24.9550   34.9480 N   0  0  0  0  0  0  0  0  0  0  0  0
   37.9420   24.1460   34.0010 C   0  0  0  0  0  0  0  0  0  0  0  0
   37.6790   24.5670   32.7000 C   0  0  0  0  0  0  0  0  0  0  0  0
   37.0700   23.6330   31.7150 C   0  0  0  0  0  0  0  0  0  0  0  0
   38.0030   25.8680   32.3720 C   0  0  0  0  0  0  0  0  0  0  0  0
   37.7890   26.3070   31.2100 O   0  0  0  0  0  0  0  0  0  0  0  0
   38.5530   26.6330   33.3420 N   0  0  0  0  0  0  0  0  0  0  0  0
   38.7970   26.2060   34.5900 C   0  0  0  0  0  0  0  0  0  0  0  0
   39.3040   26.9040   35.4920 O   0  0  0  0  0  0  0  0  0  0  0  0
   45.1274   22.4204   34.9873 H   0  0  0  0  0  0  0  0  0  0  0  0
   44.5112   20.1638   35.9300 H   0  0  0  0  0  0  0  0  0  0  0  0
   41.6919   25.1858   34.3258 H   0  0  0  0  0  0  0  0  0  0  0  0
   47.8945   25.4232   36.5804 H   0  0  0  0  0  0  0  0  0  0  0  0
   46.4724   29.2320   34.3135 H   0  0  0  0  0  0  0  0  0  0  0  0
   44.7884   28.9193   33.8147 H   0  0  0  0  0  0  0  0  0  0  0  0
   38.9758   22.8922   39.7154 H   0  0  0  0  0  0  0  0  0  0  0  0
   37.3484   24.6801   39.2990 H   0  0  0  0  0  0  0  0  0  0  0  0
   37.1511   25.6458   36.9830 H   0  0  0  0  0  0  0  0  0  0  0  0
   37.6894   23.1119   34.2782 H   0  0  0  0  0  0  0  0  0  0  0  0
   36.5449   22.8277   32.2495 H   0  0  0  0  0  0  0  0  0  0  0  0
   36.3551   24.1809   31.0836 H   0  0  0  0  0  0  0  0  0  0  0  0
   37.8598   23.1998   31.0836 H   0  0  0  0  0  0  0  0  0  0  0  0
   38.8002   27.6051   33.1077 H   0  0  0  0  0  0  0  0  0  0  0  0
  1  6  1  0
  2  1  2  0
  2  3  1  0
  3  4  2  0
  4  5  1  0
  5 17  1  0
  6  5  2  0
  7 15  1  0
  7  1  1  0
  8  7  1  0
  9  8  2  0
  9 10  1  0
 10 11  2  0
 10 15  1  0
 11 12  1  0
 12 13  2  0
 14 13  1  0
 15 14  2  0
 16 11  1  0
 17 18  1  0
 18 19  2  0
 20 19  1  0
 21 20  2  0
 22 23  2  0
 22 21  1  0
 23 18  1  0
 24 22  1  0
 25 24  1  0
 26 25  2  0
 27 26  1  0
 28 26  1  0
 28 30  1  0
 29 28  2  0
 30 31  1  0
 31 24  1  0
 31 32  2  0
  2 33  1  0
  3 34  1  0
  8 35  1  0
 13 36  1  0
 16 37  1  0
 16 38  1  0
 19 39  1  0
 20 40  1  0
 21 41  1  0
 25 42  1  0
 27 43  1  0
 27 44  1  0
 27 45  1  0
 30 46  1  0
M  ISO  8  33  14  34  14  35  14  36  14  39  14  40  14  41  14  42  14
M  ISO  4  43   8  44   8  45   8  46   9
M  END
>  <minimizedAffinity>  (1) 
-7.17253685

>  <minimizedRMSD>  (1) 
2.97552443

$$$$
