
     RDKit          3D

 44 49  0  0  0  0  0  0  0  0999 V2000
   42.4670   23.3220   36.0170 C   0  0  0  0  0  0  0  0  0  0  0  0
   42.6890   22.1390   36.7290 C   0  0  0  0  0  0  0  0  0  0  0  0
   41.5660   21.4320   37.1510 C   0  0  0  0  0  0  0  0  0  0  0  0
   40.3410   21.9010   36.8640 N   0  0  0  0  0  0  0  0  0  0  0  0
   40.1240   23.0540   36.1710 C   0  0  0  0  0  0  0  0  0  0  0  0
   41.2220   23.7480   35.7570 N   0  0  0  0  0  0  0  0  0  0  0  0
   43.5600   24.1250   35.5390 N   0  0  0  0  0  0  0  0  0  0  0  0
   43.8560   24.3710   34.2520 C   0  0  0  0  0  0  0  0  0  0  0  0
   44.9570   25.1660   34.2550 N   0  0  0  0  0  0  0  0  0  0  0  0
   45.3120   25.3910   35.5130 C   0  0  0  0  0  0  0  0  0  0  0  0
   46.3160   26.1010   36.1220 C   0  0  0  0  0  0  0  0  0  0  0  0
   46.4280   26.1480   37.5020 N   0  0  0  0  0  0  0  0  0  0  0  0
   45.5300   25.4800   38.2810 C   0  0  0  0  0  0  0  0  0  0  0  0
   44.5370   24.7770   37.6900 N   0  0  0  0  0  0  0  0  0  0  0  0
   44.4410   24.7410   36.3510 C   0  0  0  0  0  0  0  0  0  0  0  0
   47.2720   26.8100   35.3690 N   0  0  0  0  0  0  0  0  0  0  0  0
   38.9050   23.5730   35.8560 O   0  0  0  0  0  0  0  0  0  0  0  0
   38.6440   24.8880   35.6370 C   0  0  0  0  0  0  0  0  0  0  0  0
   38.4270   25.9690   36.4760 C   0  0  0  0  0  0  0  0  0  0  0  0
   38.1780   27.2270   36.0060 C   0  0  0  0  0  0  0  0  0  0  0  0
   38.1400   27.4370   34.6450 C   0  0  0  0  0  0  0  0  0  0  0  0
   38.3560   26.3660   33.8150 C   0  0  0  0  0  0  0  0  0  0  0  0
   38.6060   25.1000   34.3000 N   0  0  0  0  0  0  0  0  0  0  0  0
   38.2960   26.6840   32.4210 N   0  0  0  0  0  0  0  0  0  0  0  0
   38.9300   26.0600   31.4110 C   0  0  0  0  0  0  0  0  0  0  0  0
   38.6250   26.6530   30.2210 N   0  0  0  0  0  0  0  0  0  0  0  0
   37.7730   27.6820   30.4910 C   0  0  0  0  0  0  0  0  0  0  0  0
   37.1840   28.5770   29.6160 C   0  0  0  0  0  0  0  0  0  0  0  0
   36.3740   29.4950   30.2120 N   0  0  0  0  0  0  0  0  0  0  0  0
   36.1590   29.5360   31.5350 C   0  0  0  0  0  0  0  0  0  0  0  0
   36.7660   28.6320   32.3270 N   0  0  0  0  0  0  0  0  0  0  0  0
   37.5870   27.6780   31.8580 C   0  0  0  0  0  0  0  0  0  0  0  0
   43.7067   21.7824   36.9463 H   0  0  0  0  0  0  0  0  0  0  0  0
   41.6817   20.4952   37.7159 H   0  0  0  0  0  0  0  0  0  0  0  0
   43.3134   24.0013   33.3694 H   0  0  0  0  0  0  0  0  0  0  0  0
   45.6122   25.5125   39.3774 H   0  0  0  0  0  0  0  0  0  0  0  0
   48.0171   27.3363   35.8473 H   0  0  0  0  0  0  0  0  0  0  0  0
   47.2260   26.8022   34.3401 H   0  0  0  0  0  0  0  0  0  0  0  0
   38.4564   25.8077   37.5637 H   0  0  0  0  0  0  0  0  0  0  0  0
   38.0102   28.0604   36.7041 H   0  0  0  0  0  0  0  0  0  0  0  0
   37.9415   28.4379   34.2341 H   0  0  0  0  0  0  0  0  0  0  0  0
   39.5990   25.1948   31.5284 H   0  0  0  0  0  0  0  0  0  0  0  0
   37.3556   28.5494   28.5298 H   0  0  0  0  0  0  0  0  0  0  0  0
   35.4950   30.2987   31.9678 H   0  0  0  0  0  0  0  0  0  0  0  0
  1  2  2  0
  2  3  1  0
  4  3  2  0
  5  4  1  0
  6  1  1  0
  6  5  2  0
  7  1  1  0
  7 15  1  0
  8  9  2  0
  8  7  1  0
  9 10  1  0
 10 11  1  0
 10 15  2  0
 11 12  2  0
 12 13  1  0
 14 13  2  0
 15 14  1  0
 16 11  1  0
 17  5  1  0
 18 17  1  0
 18 19  2  0
 20 19  1  0
 21 20  2  0
 22 23  2  0
 22 21  1  0
 23 18  1  0
 24 22  1  0
 25 24  1  0
 26 27  1  0
 26 25  2  0
 27 32  2  0
 28 29  2  0
 28 27  1  0
 29 30  1  0
 30 31  2  0
 32 31  1  0
 32 24  1  0
  2 33  1  0
  3 34  1  0
  8 35  1  0
 13 36  1  0
 16 37  1  0
 16 38  1  0
 19 39  1  0
 20 40  1  0
 21 41  1  0
 25 42  1  0
 28 43  1  0
 30 44  1  0
M  ISO  8  33  14  34  14  35  14  36  14  39  14  40  14  41  14  42  14
M  ISO  2  43  14  44  14
M  END
>  <minimizedAffinity>  (1) 
-6.72838593

>  <minimizedRMSD>  (1) 
1.33725286

$$$$
