
     RDKit          3D

 45 49  0  0  0  0  0  0  0  0999 V2000
   41.8790   23.4280   35.8990 C   0  0  0  0  0  0  0  0  0  0  0  0
   42.1410   22.2650   36.6200 C   0  0  0  0  0  0  0  0  0  0  0  0
   41.0880   21.7190   37.3710 C   0  0  0  0  0  0  0  0  0  0  0  0
   39.8940   22.3340   37.3570 N   0  0  0  0  0  0  0  0  0  0  0  0
   39.6370   23.4700   36.6520 C   0  0  0  0  0  0  0  0  0  0  0  0
   40.6600   23.9970   35.9260 N   0  0  0  0  0  0  0  0  0  0  0  0
   42.8880   24.0600   35.1040 N   0  0  0  0  0  0  0  0  0  0  0  0
   42.9710   24.0350   33.7580 C   0  0  0  0  0  0  0  0  0  0  0  0
   44.0690   24.7560   33.4220 N   0  0  0  0  0  0  0  0  0  0  0  0
   44.6350   25.2050   34.5350 C   0  0  0  0  0  0  0  0  0  0  0  0
   45.7380   25.9680   34.8290 C   0  0  0  0  0  0  0  0  0  0  0  0
   46.0850   26.2790   36.1220 N   0  0  0  0  0  0  0  0  0  0  0  0
   45.3150   25.8220   37.1670 C   0  0  0  0  0  0  0  0  0  0  0  0
   44.2250   25.0710   36.9020 N   0  0  0  0  0  0  0  0  0  0  0  0
   43.9070   24.7800   35.6320 C   0  0  0  0  0  0  0  0  0  0  0  0
   46.5580   26.4600   33.7980 N   0  0  0  0  0  0  0  0  0  0  0  0
   38.4390   24.1180   36.6180 O   0  0  0  0  0  0  0  0  0  0  0  0
   38.1910   25.2490   35.9260 C   0  0  0  0  0  0  0  0  0  0  0  0
   38.3590   26.5980   36.1820 C   0  0  0  0  0  0  0  0  0  0  0  0
   38.0270   27.5890   35.3100 C   0  0  0  0  0  0  0  0  0  0  0  0
   37.4860   27.2330   34.0810 C   0  0  0  0  0  0  0  0  0  0  0  0
   37.3160   25.8900   33.8180 C   0  0  0  0  0  0  0  0  0  0  0  0
   37.6570   24.9180   34.7120 N   0  0  0  0  0  0  0  0  0  0  0  0
   36.7520   25.5280   32.5370 N   0  0  0  0  0  0  0  0  0  0  0  0
   36.7900   24.1810   32.0150 C   0  0  0  0  0  0  0  0  0  0  0  0
   35.6160   24.1360   31.0650 C   0  0  0  0  0  0  0  0  0  0  0  0
   35.0760   25.5280   30.9420 C   0  0  0  0  0  0  0  0  0  0  0  0
   36.0900   26.4270   31.6140 C   0  0  0  0  0  0  0  0  0  0  0  0
   43.1344   21.7929   36.6015 H   0  0  0  0  0  0  0  0  0  0  0  0
   41.2383   20.8029   37.9610 H   0  0  0  0  0  0  0  0  0  0  0  0
   42.2816   23.5280   33.0669 H   0  0  0  0  0  0  0  0  0  0  0  0
   45.5843   26.0656   38.2053 H   0  0  0  0  0  0  0  0  0  0  0  0
   47.3840   27.0318   34.0254 H   0  0  0  0  0  0  0  0  0  0  0  0
   46.3326   26.2486   32.8154 H   0  0  0  0  0  0  0  0  0  0  0  0
   38.7883   26.8884   37.1522 H   0  0  0  0  0  0  0  0  0  0  0  0
   38.1832   28.6459   35.5720 H   0  0  0  0  0  0  0  0  0  0  0  0
   37.2026   27.9970   33.3421 H   0  0  0  0  0  0  0  0  0  0  0  0
   37.7338   23.9925   31.4824 H   0  0  0  0  0  0  0  0  0  0  0  0
   36.7327   23.4152   32.8026 H   0  0  0  0  0  0  0  0  0  0  0  0
   35.9449   23.7733   30.0800 H   0  0  0  0  0  0  0  0  0  0  0  0
   34.8403   23.4539   31.4432 H   0  0  0  0  0  0  0  0  0  0  0  0
   34.9638   25.8026   29.8828 H   0  0  0  0  0  0  0  0  0  0  0  0
   34.0839   25.6190   31.4083 H   0  0  0  0  0  0  0  0  0  0  0  0
   36.8011   26.8386   30.8827 H   0  0  0  0  0  0  0  0  0  0  0  0
   35.6392   27.3020   32.1052 H   0  0  0  0  0  0  0  0  0  0  0  0
  1  6  1  0
  1  2  2  0
  2  3  1  0
  4  3  2  0
  5  4  1  0
  6  5  2  0
  7 15  1  0
  7  1  1  0
  8  7  1  0
  9  8  2  0
  9 10  1  0
 10 11  2  0
 10 15  1  0
 11 12  1  0
 12 13  2  0
 14 13  1  0
 15 14  2  0
 16 11  1  0
 17  5  1  0
 18 19  2  0
 18 17  1  0
 20 19  1  0
 21 20  2  0
 22 21  1  0
 22 23  2  0
 23 18  1  0
 24 22  1  0
 25 24  1  0
 26 25  1  0
 27 26  1  0
 27 28  1  0
 28 24  1  0
  2 29  1  0
  3 30  1  0
  8 31  1  0
 13 32  1  0
 16 33  1  0
 16 34  1  0
 19 35  1  0
 20 36  1  0
 21 37  1  0
 25 38  1  0
 25 39  1  0
 26 40  1  0
 26 41  1  0
 27 42  1  0
 27 43  1  0
 28 44  1  0
 28 45  1  0
M  ISO  8  29  14  30  14  31  14  32  14  35  14  36  14  37  14  38  13
M  ISO  7  39  13  40  13  41  13  42  13  43  13  44  13  45  13
M  END
>  <minimizedAffinity>  (1) 
-6.4898591

>  <minimizedRMSD>  (1) 
0.3472794

$$$$
