
     RDKit          3D

 33 35  0  0  1  0  0  0  0  0999 V2000
   37.3500   25.8750   34.3490 C   0  0  0  0  0  0  0  0  0  0  0  0
   37.5350   26.2980   32.9730 N   0  0  0  0  0  0  0  0  0  0  0  0
   38.3390   25.8150   31.9830 C   0  0  0  0  0  0  0  0  0  0  0  0
   38.1810   26.5240   30.8590 N   0  0  0  0  0  0  0  0  0  0  0  0
   37.2700   27.4830   31.0970 C   0  0  0  0  0  0  0  0  0  0  0  0
   36.7820   28.4580   30.2380 C   0  0  0  0  0  0  0  0  0  0  0  0
   37.1980   28.5260   29.0430 O   0  0  0  0  0  0  0  0  0  0  0  0
   35.8650   29.3200   30.7030 N   0  0  0  0  0  0  0  0  0  0  0  0
   35.4690   29.1900   31.9840 C   0  0  0  0  0  0  0  0  0  0  0  0
   34.5000   30.1180   32.4340 N   0  0  0  0  0  0  0  0  0  0  0  0
   35.9560   28.2380   32.7960 N   0  0  0  0  0  0  0  0  0  0  0  0
   36.8740   27.3390   32.4080 C   0  0  0  0  0  0  0  0  0  0  0  0
   38.7210   25.7420   34.9720 C   0  0  2  0  0  0  0  0  0  0  0  0
   39.5980   22.9460   37.1590 C   0  0  0  0  0  0  0  0  0  0  0  0
   38.8110   23.1550   38.3100 C   0  0  0  0  0  0  0  0  0  0  0  0
   37.9720   24.2800   38.3210 C   0  0  0  0  0  0  0  0  0  0  0  0
   37.9720   25.1000   37.2120 N   0  0  0  0  0  0  0  0  0  0  0  0
   38.7490   24.8470   36.1380 C   0  0  0  0  0  0  0  0  0  0  0  0
   39.5470   23.7840   36.1180 N   0  0  0  0  0  0  0  0  0  0  0  0
   39.1780   27.1160   35.3830 C   0  0  0  0  0  0  0  0  0  0  0  0
   36.8291   24.9066   34.3774 H   0  0  0  0  0  0  0  0  0  0  0  0
   36.7431   26.6076   34.9012 H   0  0  0  0  0  0  0  0  0  0  0  0
   39.0230   24.9606   32.0931 H   0  0  0  0  0  0  0  0  0  0  0  0
   35.4759   30.0582   30.0993 H   0  0  0  0  0  0  0  0  0  0  0  0
   34.1549   30.0729   33.4034 H   0  0  0  0  0  0  0  0  0  0  0  0
   34.1398   30.8385   31.7921 H   0  0  0  0  0  0  0  0  0  0  0  0
   39.3900   25.2931   34.2230 H   0  0  0  0  0  0  0  0  0  0  0  0
   40.2684   22.0749   37.1163 H   0  0  0  0  0  0  0  0  0  0  0  0
   38.8529   22.4641   39.1649 H   0  0  0  0  0  0  0  0  0  0  0  0
   37.3331   24.5013   39.1887 H   0  0  0  0  0  0  0  0  0  0  0  0
   39.2000   27.1820   36.4808 H   0  0  0  0  0  0  0  0  0  0  0  0
   40.1863   27.3016   34.9843 H   0  0  0  0  0  0  0  0  0  0  0  0
   38.4818   27.8685   34.9843 H   0  0  0  0  0  0  0  0  0  0  0  0
  1 13  1  0
  2  1  1  0
  3  2  1  0
  4  5  1  0
  4  3  2  0
  5 12  2  0
  6  8  1  0
  6  5  1  0
  7  6  2  0
  8  9  1  0
  9 10  1  0
  9 11  2  0
 12 11  1  0
 12  2  1  0
 13 20  1  0
 13 18  1  0
 14 15  2  0
 15 16  1  0
 17 16  2  0
 18 17  1  0
 19 18  2  0
 19 14  1  0
  1 21  1  0
  1 22  1  0
  3 23  1  0
  8 24  1  0
 10 25  1  0
 10 26  1  0
 13 27  1  6
 14 28  1  0
 15 29  1  0
 16 30  1  0
 20 31  1  0
 20 32  1  0
 20 33  1  0
M  ISO  8  21   8  22   8  23  14  24   9  27   8  28  14  29  14  30  14
M  ISO  3  31   8  32   8  33   8
M  END
>  <minimizedAffinity>  (1) 
-5.07039213

>  <minimizedRMSD>  (1) 
5.46777153

$$$$
