
     RDKit          3D

 47 52  0  0  0  0  0  0  0  0999 V2000
   42.5640   23.2920   35.9490 C   0  0  0  0  0  0  0  0  0  0  0  0
   42.7220   22.1470   36.7240 C   0  0  0  0  0  0  0  0  0  0  0  0
   41.5600   21.4500   37.0700 C   0  0  0  0  0  0  0  0  0  0  0  0
   40.3650   21.9050   36.6510 N   0  0  0  0  0  0  0  0  0  0  0  0
   40.2170   23.0300   35.8920 C   0  0  0  0  0  0  0  0  0  0  0  0
   41.3490   23.7050   35.5560 N   0  0  0  0  0  0  0  0  0  0  0  0
   43.6960   24.0820   35.5410 N   0  0  0  0  0  0  0  0  0  0  0  0
   44.0930   24.3050   34.2780 C   0  0  0  0  0  0  0  0  0  0  0  0
   45.1930   25.0940   34.3470 N   0  0  0  0  0  0  0  0  0  0  0  0
   45.4540   25.3420   35.6170 C   0  0  0  0  0  0  0  0  0  0  0  0
   46.4130   26.0600   36.2990 C   0  0  0  0  0  0  0  0  0  0  0  0
   46.4230   26.1360   37.6880 N   0  0  0  0  0  0  0  0  0  0  0  0
   45.4600   25.4840   38.3900 C   0  0  0  0  0  0  0  0  0  0  0  0
   44.5090   24.7730   37.7620 N   0  0  0  0  0  0  0  0  0  0  0  0
   44.5200   24.7130   36.4110 C   0  0  0  0  0  0  0  0  0  0  0  0
   47.4250   26.7490   35.6040 N   0  0  0  0  0  0  0  0  0  0  0  0
   39.0330   23.5300   35.4460 O   0  0  0  0  0  0  0  0  0  0  0  0
   38.6810   24.8440   35.4640 C   0  0  0  0  0  0  0  0  0  0  0  0
   38.4520   25.7640   36.4460 C   0  0  0  0  0  0  0  0  0  0  0  0
   38.0990   27.0570   36.1920 C   0  0  0  0  0  0  0  0  0  0  0  0
   37.9640   27.4600   34.8720 C   0  0  0  0  0  0  0  0  0  0  0  0
   38.1920   26.5510   33.8780 C   0  0  0  0  0  0  0  0  0  0  0  0
   38.5400   25.2770   34.1950 N   0  0  0  0  0  0  0  0  0  0  0  0
   38.0480   26.8580   32.4620 C   0  0  0  0  0  0  0  0  0  0  0  0
   38.5570   25.9990   31.4880 C   0  0  0  0  0  0  0  0  0  0  0  0
   38.3500   26.4620   30.2500 N   0  0  0  0  0  0  0  0  0  0  0  0
   37.7040   27.6330   30.3520 C   0  0  0  0  0  0  0  0  0  0  0  0
   37.2440   28.5620   29.4420 C   0  0  0  0  0  0  0  0  0  0  0  0
   36.6060   29.7310   29.8390 C   0  0  0  0  0  0  0  0  0  0  0  0
   36.4430   29.9380   31.2090 C   0  0  0  0  0  0  0  0  0  0  0  0
   36.9110   28.9950   32.0900 C   0  0  0  0  0  0  0  0  0  0  0  0
   37.5300   27.8610   31.6970 C   0  0  0  0  0  0  0  0  0  0  0  0
   43.7157   21.8057   37.0496 H   0  0  0  0  0  0  0  0  0  0  0  0
   41.6224   20.5368   37.6800 H   0  0  0  0  0  0  0  0  0  0  0  0
   43.6173   23.9213   33.3634 H   0  0  0  0  0  0  0  0  0  0  0  0
   45.4590   25.5391   39.4886 H   0  0  0  0  0  0  0  0  0  0  0  0
   48.1361   27.2821   36.1247 H   0  0  0  0  0  0  0  0  0  0  0  0
   47.4544   26.7200   34.5748 H   0  0  0  0  0  0  0  0  0  0  0  0
   38.5573   25.4471   37.4941 H   0  0  0  0  0  0  0  0  0  0  0  0
   37.9252   27.7645   37.0162 H   0  0  0  0  0  0  0  0  0  0  0  0
   37.6782   28.4941   34.6294 H   0  0  0  0  0  0  0  0  0  0  0  0
   39.0689   25.0514   31.7117 H   0  0  0  0  0  0  0  0  0  0  0  0
   38.6359   26.0012   29.3743 H   0  0  0  0  0  0  0  0  0  0  0  0
   37.3867   28.3715   28.3681 H   0  0  0  0  0  0  0  0  0  0  0  0
   36.2441   30.4637   29.1026 H   0  0  0  0  0  0  0  0  0  0  0  0
   35.9452   30.8464   31.5790 H   0  0  0  0  0  0  0  0  0  0  0  0
   36.7753   29.1715   33.1672 H   0  0  0  0  0  0  0  0  0  0  0  0
  1  2  2  0
  2  3  1  0
  4  3  2  0
  5  4  1  0
  6  5  2  0
  6  1  1  0
  7  1  1  0
  7 15  1  0
  8  9  2  0
  8  7  1  0
  9 10  1  0
 10 11  1  0
 10 15  2  0
 11 12  2  0
 12 13  1  0
 14 13  2  0
 15 14  1  0
 16 11  1  0
 17 18  1  0
 17  5  1  0
 18 19  2  0
 20 19  1  0
 21 20  2  0
 22 23  2  0
 22 21  1  0
 23 18  1  0
 24 22  1  0
 25 24  2  0
 26 27  1  0
 26 25  1  0
 27 32  2  0
 28 29  2  0
 28 27  1  0
 29 30  1  0
 30 31  2  0
 32 31  1  0
 32 24  1  0
  2 33  1  0
  3 34  1  0
  8 35  1  0
 13 36  1  0
 16 37  1  0
 16 38  1  0
 19 39  1  0
 20 40  1  0
 21 41  1  0
 25 42  1  0
 26 43  1  0
 28 44  1  0
 29 45  1  0
 30 46  1  0
 31 47  1  0
M  ISO  8  33  14  34  14  35  14  36  14  39  14  40  14  41  14  42  14
M  ISO  5  43   9  44  14  45  14  46  14  47  14
M  END
>  <minimizedAffinity>  (1) 
-6.44196653

>  <minimizedRMSD>  (1) 
1.52351737

$$$$
