
     RDKit          3D

 46 50  0  0  0  0  0  0  0  0999 V2000
   41.9690   23.3610   35.9190 C   0  0  0  0  0  0  0  0  0  0  0  0
   42.2670   22.2110   36.6580 C   0  0  0  0  0  0  0  0  0  0  0  0
   41.2270   21.6480   37.4010 C   0  0  0  0  0  0  0  0  0  0  0  0
   40.0130   22.2210   37.3780 N   0  0  0  0  0  0  0  0  0  0  0  0
   39.7260   23.3400   36.6600 C   0  0  0  0  0  0  0  0  0  0  0  0
   40.7380   23.8910   35.9340 N   0  0  0  0  0  0  0  0  0  0  0  0
   42.9680   24.0150   35.1250 N   0  0  0  0  0  0  0  0  0  0  0  0
   43.0510   23.9980   33.7850 C   0  0  0  0  0  0  0  0  0  0  0  0
   44.1370   24.7370   33.4510 N   0  0  0  0  0  0  0  0  0  0  0  0
   44.6940   25.1890   34.5650 C   0  0  0  0  0  0  0  0  0  0  0  0
   45.7860   25.9680   34.8560 C   0  0  0  0  0  0  0  0  0  0  0  0
   46.1350   26.2850   36.1660 N   0  0  0  0  0  0  0  0  0  0  0  0
   45.3690   25.8080   37.1810 C   0  0  0  0  0  0  0  0  0  0  0  0
   44.2930   25.0420   36.9320 N   0  0  0  0  0  0  0  0  0  0  0  0
   43.9750   24.7470   35.6500 C   0  0  0  0  0  0  0  0  0  0  0  0
   46.6100   26.4840   33.8300 N   0  0  0  0  0  0  0  0  0  0  0  0
   38.5110   23.9560   36.6070 O   0  0  0  0  0  0  0  0  0  0  0  0
   38.2790   25.1760   36.0580 C   0  0  0  0  0  0  0  0  0  0  0  0
   38.4790   26.4730   36.4610 C   0  0  0  0  0  0  0  0  0  0  0  0
   38.1570   27.5630   35.7180 C   0  0  0  0  0  0  0  0  0  0  0  0
   37.5970   27.3730   34.4840 C   0  0  0  0  0  0  0  0  0  0  0  0
   37.3840   26.0670   34.0510 C   0  0  0  0  0  0  0  0  0  0  0  0
   37.7210   24.9810   34.8270 N   0  0  0  0  0  0  0  0  0  0  0  0
   36.7910   25.8520   32.7450 N   0  0  0  0  0  0  0  0  0  0  0  0
   36.8520   24.5380   32.1270 C   0  0  0  0  0  0  0  0  0  0  0  0
   35.5570   24.2690   31.4190 C   0  0  0  0  0  0  0  0  0  0  0  0
   35.0890   25.2920   30.6390 O   0  0  0  0  0  0  0  0  0  0  0  0
   35.7760   26.4730   30.6910 C   0  0  0  0  0  0  0  0  0  0  0  0
   36.1540   26.9290   32.0790 C   0  0  0  0  0  0  0  0  0  0  0  0
   43.2748   21.7702   36.6540 H   0  0  0  0  0  0  0  0  0  0  0  0
   41.4011   20.7422   38.0003 H   0  0  0  0  0  0  0  0  0  0  0  0
   42.3691   23.4835   33.0919 H   0  0  0  0  0  0  0  0  0  0  0  0
   45.6327   26.0518   38.2207 H   0  0  0  0  0  0  0  0  0  0  0  0
   47.4252   27.0667   34.0683 H   0  0  0  0  0  0  0  0  0  0  0  0
   46.3953   26.2773   32.8441 H   0  0  0  0  0  0  0  0  0  0  0  0
   38.9295   26.6402   37.4505 H   0  0  0  0  0  0  0  0  0  0  0  0
   38.3425   28.5777   36.1002 H   0  0  0  0  0  0  0  0  0  0  0  0
   37.3224   28.2295   33.8508 H   0  0  0  0  0  0  0  0  0  0  0  0
   37.6803   24.5090   31.4038 H   0  0  0  0  0  0  0  0  0  0  0  0
   37.0188   23.7723   32.8990 H   0  0  0  0  0  0  0  0  0  0  0  0
   35.6994   23.3890   30.7745 H   0  0  0  0  0  0  0  0  0  0  0  0
   34.8054   24.1227   32.2087 H   0  0  0  0  0  0  0  0  0  0  0  0
   36.7004   26.3563   30.1063 H   0  0  0  0  0  0  0  0  0  0  0  0
   35.0992   27.2409   30.2882 H   0  0  0  0  0  0  0  0  0  0  0  0
   36.8418   27.7850   32.0145 H   0  0  0  0  0  0  0  0  0  0  0  0
   35.2556   27.2383   32.6333 H   0  0  0  0  0  0  0  0  0  0  0  0
  1  6  1  0
  1  2  2  0
  2  3  1  0
  4  3  2  0
  5  4  1  0
  6  5  2  0
  7 15  1  0
  7  1  1  0
  8  7  1  0
  9  8  2  0
  9 10  1  0
 10 11  2  0
 10 15  1  0
 11 12  1  0
 12 13  2  0
 14 13  1  0
 15 14  2  0
 16 11  1  0
 17  5  1  0
 18 19  2  0
 18 17  1  0
 20 19  1  0
 21 20  2  0
 22 21  1  0
 22 23  2  0
 23 18  1  0
 24 22  1  0
 25 24  1  0
 26 25  1  0
 27 28  1  0
 27 26  1  0
 28 29  1  0
 29 24  1  0
  2 30  1  0
  3 31  1  0
  8 32  1  0
 13 33  1  0
 16 34  1  0
 16 35  1  0
 19 36  1  0
 20 37  1  0
 21 38  1  0
 25 39  1  0
 25 40  1  0
 26 41  1  0
 26 42  1  0
 28 43  1  0
 28 44  1  0
 29 45  1  0
 29 46  1  0
M  ISO  8  30  14  31  14  32  14  33  14  36  14  37  14  38  14  39  13
M  ISO  7  40  13  41  13  42  13  43  13  44  13  45  13  46  13
M  END
>  <minimizedAffinity>  (1) 
-6.41535139

>  <minimizedRMSD>  (1) 
0.299957812

$$$$
