
     RDKit          3D

 40 44  0  0  0  0  0  0  0  0999 V2000
   42.0360   23.5940   35.9510 C   0  0  0  0  0  0  0  0  0  0  0  0
   42.3150   22.3880   36.5970 C   0  0  0  0  0  0  0  0  0  0  0  0
   41.2260   21.6580   37.0720 C   0  0  0  0  0  0  0  0  0  0  0  0
   39.9870   22.1360   36.8910 N   0  0  0  0  0  0  0  0  0  0  0  0
   39.7130   23.3100   36.2620 C   0  0  0  0  0  0  0  0  0  0  0  0
   40.7750   24.0260   35.7970 N   0  0  0  0  0  0  0  0  0  0  0  0
   43.0860   24.4170   35.4280 N   0  0  0  0  0  0  0  0  0  0  0  0
   43.2090   24.8380   34.1550 C   0  0  0  0  0  0  0  0  0  0  0  0
   44.3290   25.5850   34.0820 N   0  0  0  0  0  0  0  0  0  0  0  0
   44.8880   25.6230   35.2900 C   0  0  0  0  0  0  0  0  0  0  0  0
   46.0070   26.2030   35.8370 C   0  0  0  0  0  0  0  0  0  0  0  0
   46.3220   26.0490   37.1690 N   0  0  0  0  0  0  0  0  0  0  0  0
   45.5170   25.3070   37.9850 C   0  0  0  0  0  0  0  0  0  0  0  0
   44.4090   24.7280   37.4660 N   0  0  0  0  0  0  0  0  0  0  0  0
   44.1180   24.8890   36.1600 C   0  0  0  0  0  0  0  0  0  0  0  0
   46.8690   26.9770   35.0330 N   0  0  0  0  0  0  0  0  0  0  0  0
   38.4720   23.8310   36.0570 O   0  0  0  0  0  0  0  0  0  0  0  0
   38.2160   25.0960   35.6680 C   0  0  0  0  0  0  0  0  0  0  0  0
   38.4040   26.3430   36.2430 C   0  0  0  0  0  0  0  0  0  0  0  0
   38.0520   27.5160   35.6380 C   0  0  0  0  0  0  0  0  0  0  0  0
   37.4800   27.4850   34.3950 C   0  0  0  0  0  0  0  0  0  0  0  0
   37.2900   26.2340   33.8140 C   0  0  0  0  0  0  0  0  0  0  0  0
   37.6450   25.0720   34.4290 N   0  0  0  0  0  0  0  0  0  0  0  0
   36.6700   26.1860   32.4640 C   0  0  0  0  0  0  0  0  0  0  0  0
   36.0800   25.1160   31.8850 C   0  0  0  0  0  0  0  0  0  0  0  0
   35.6270   25.4750   30.6270 C   0  0  0  0  0  0  0  0  0  0  0  0
   35.9590   26.7670   30.4780 N   0  0  0  0  0  0  0  0  0  0  0  0
   36.5880   27.2100   31.5770 N   0  0  0  0  0  0  0  0  0  0  0  0
   43.3471   22.0300   36.7254 H   0  0  0  0  0  0  0  0  0  0  0  0
   41.3821   20.7001   37.5897 H   0  0  0  0  0  0  0  0  0  0  0  0
   42.5215   24.6135   33.3262 H   0  0  0  0  0  0  0  0  0  0  0  0
   45.7654   25.1815   39.0492 H   0  0  0  0  0  0  0  0  0  0  0  0
   47.7072   27.4106   35.4458 H   0  0  0  0  0  0  0  0  0  0  0  0
   46.6605   27.1087   34.0330 H   0  0  0  0  0  0  0  0  0  0  0  0
   38.8621   26.3907   37.2419 H   0  0  0  0  0  0  0  0  0  0  0  0
   38.2266   28.4764   36.1450 H   0  0  0  0  0  0  0  0  0  0  0  0
   37.1831   28.4089   33.8771 H   0  0  0  0  0  0  0  0  0  0  0  0
   35.9765   24.1201   32.3404 H   0  0  0  0  0  0  0  0  0  0  0  0
   35.1041   24.8350   29.9011 H   0  0  0  0  0  0  0  0  0  0  0  0
   35.7600   27.3351   29.6422 H   0  0  0  0  0  0  0  0  0  0  0  0
  1  2  2  0
  2  3  1  0
  4  3  2  0
  5  4  1  0
  6  1  1  0
  6  5  2  0
  7  1  1  0
  7 15  1  0
  8  7  1  0
  9  8  2  0
  9 10  1  0
 10 11  2  0
 10 15  1  0
 11 12  1  0
 12 13  2  0
 14 13  1  0
 15 14  2  0
 16 11  1  0
 17  5  1  0
 18 17  1  0
 18 19  2  0
 20 19  1  0
 21 20  2  0
 22 21  1  0
 22 23  2  0
 23 18  1  0
 24 22  1  0
 25 24  1  0
 26 25  2  0
 27 26  1  0
 27 28  1  0
 28 24  2  0
  2 29  1  0
  3 30  1  0
  8 31  1  0
 13 32  1  0
 16 33  1  0
 16 34  1  0
 19 35  1  0
 20 36  1  0
 21 37  1  0
 25 38  1  0
 26 39  1  0
 27 40  1  0
M  ISO  8  29  14  30  14  31  14  32  14  35  14  36  14  37  14  38  14
M  ISO  2  39  14  40   9
M  END
>  <minimizedAffinity>  (1) 
-6.28411055

>  <minimizedRMSD>  (1) 
0.662178218

$$$$
