
     RDKit          3D

 39 43  0  0  0  0  0  0  0  0999 V2000
   42.1710   23.4470   35.9350 C   0  0  0  0  0  0  0  0  0  0  0  0
   42.3750   22.3210   36.7300 C   0  0  0  0  0  0  0  0  0  0  0  0
   41.2360   21.6530   37.1990 C   0  0  0  0  0  0  0  0  0  0  0  0
   40.0200   22.1180   36.8660 N   0  0  0  0  0  0  0  0  0  0  0  0
   39.8260   23.2200   36.0880 C   0  0  0  0  0  0  0  0  0  0  0  0
   40.9350   23.8710   35.6320 N   0  0  0  0  0  0  0  0  0  0  0  0
   43.2750   24.2010   35.4070 N   0  0  0  0  0  0  0  0  0  0  0  0
   43.5260   24.4410   34.1090 C   0  0  0  0  0  0  0  0  0  0  0  0
   44.6610   25.1860   34.0700 N   0  0  0  0  0  0  0  0  0  0  0  0
   45.0870   25.3920   35.3040 C   0  0  0  0  0  0  0  0  0  0  0  0
   46.1420   26.0480   35.8790 C   0  0  0  0  0  0  0  0  0  0  0  0
   46.3260   26.0880   37.2500 N   0  0  0  0  0  0  0  0  0  0  0  0
   45.4310   25.4560   38.0590 C   0  0  0  0  0  0  0  0  0  0  0  0
   44.3810   24.8000   37.5230 N   0  0  0  0  0  0  0  0  0  0  0  0
   44.2230   24.7750   36.1840 C   0  0  0  0  0  0  0  0  0  0  0  0
   47.0880   26.7140   35.0810 N   0  0  0  0  0  0  0  0  0  0  0  0
   38.6140   23.7270   35.7270 O   0  0  0  0  0  0  0  0  0  0  0  0
   38.3350   25.0460   35.5540 C   0  0  0  0  0  0  0  0  0  0  0  0
   38.4520   26.1580   36.3680 C   0  0  0  0  0  0  0  0  0  0  0  0
   38.0970   27.4140   35.9610 C   0  0  0  0  0  0  0  0  0  0  0  0
   37.5990   27.5860   34.6800 C   0  0  0  0  0  0  0  0  0  0  0  0
   37.4870   26.4780   33.8800 C   0  0  0  0  0  0  0  0  0  0  0  0
   37.8480   25.2160   34.2990 N   0  0  0  0  0  0  0  0  0  0  0  0
   36.9630   26.7640   32.5770 N   0  0  0  0  0  0  0  0  0  0  0  0
   36.2200   25.8260   31.9320 C   0  0  0  0  0  0  0  0  0  0  0  0
   35.8300   26.3010   30.7290 N   0  0  0  0  0  0  0  0  0  0  0  0
   36.3650   27.5490   30.6790 C   0  0  0  0  0  0  0  0  0  0  0  0
   37.0590   27.8350   31.8090 N   0  0  0  0  0  0  0  0  0  0  0  0
   43.3877   21.9711   36.9790 H   0  0  0  0  0  0  0  0  0  0  0  0
   41.3360   20.7590   37.8320 H   0  0  0  0  0  0  0  0  0  0  0  0
   42.9305   24.1015   33.2487 H   0  0  0  0  0  0  0  0  0  0  0  0
   45.5644   25.4805   39.1506 H   0  0  0  0  0  0  0  0  0  0  0  0
   47.8789   27.2052   35.5215 H   0  0  0  0  0  0  0  0  0  0  0  0
   46.9904   26.7109   34.0556 H   0  0  0  0  0  0  0  0  0  0  0  0
   38.8474   26.0263   37.3860 H   0  0  0  0  0  0  0  0  0  0  0  0
   38.2050   28.2732   36.6393 H   0  0  0  0  0  0  0  0  0  0  0  0
   37.3025   28.5807   34.3157 H   0  0  0  0  0  0  0  0  0  0  0  0
   35.9735   24.8304   32.3296 H   0  0  0  0  0  0  0  0  0  0  0  0
   36.2500   28.2394   29.8304 H   0  0  0  0  0  0  0  0  0  0  0  0
  1  2  2  0
  2  3  1  0
  4  3  2  0
  5  4  1  0
  6  1  1  0
  6  5  2  0
  7  1  1  0
  7 15  1  0
  8  7  1  0
  9  8  2  0
  9 10  1  0
 10 11  2  0
 10 15  1  0
 11 12  1  0
 12 13  2  0
 14 13  1  0
 15 14  2  0
 16 11  1  0
 17  5  1  0
 18 17  1  0
 18 19  2  0
 20 19  1  0
 21 20  2  0
 22 23  2  0
 22 21  1  0
 23 18  1  0
 24 22  1  0
 25 24  1  0
 26 25  2  0
 27 26  1  0
 27 28  2  0
 28 24  1  0
  2 29  1  0
  3 30  1  0
  8 31  1  0
 13 32  1  0
 16 33  1  0
 16 34  1  0
 19 35  1  0
 20 36  1  0
 21 37  1  0
 25 38  1  0
 27 39  1  0
M  ISO  8  29  14  30  14  31  14  32  14  35  14  36  14  37  14  38  14
M  ISO  1  39  14
M  END
>  <minimizedAffinity>  (1) 
-6.20912838

>  <minimizedRMSD>  (1) 
0.744272947

$$$$
