
     RDKit          3D

 40 44  0  0  0  0  0  0  0  0999 V2000
   42.1860   23.4260   35.9500 C   0  0  0  0  0  0  0  0  0  0  0  0
   42.4520   22.2480   36.6610 C   0  0  0  0  0  0  0  0  0  0  0  0
   41.3550   21.5390   37.1540 C   0  0  0  0  0  0  0  0  0  0  0  0
   40.1210   22.0040   36.9330 N   0  0  0  0  0  0  0  0  0  0  0  0
   39.8570   23.1520   36.2410 C   0  0  0  0  0  0  0  0  0  0  0  0
   40.9270   23.8430   35.7600 N   0  0  0  0  0  0  0  0  0  0  0  0
   43.2430   24.2210   35.4070 N   0  0  0  0  0  0  0  0  0  0  0  0
   43.4330   24.5150   34.1110 C   0  0  0  0  0  0  0  0  0  0  0  0
   44.5420   25.2850   34.0290 N   0  0  0  0  0  0  0  0  0  0  0  0
   45.0200   25.4560   35.2590 C   0  0  0  0  0  0  0  0  0  0  0  0
   46.0870   26.1180   35.8060 C   0  0  0  0  0  0  0  0  0  0  0  0
   46.3300   26.1120   37.1680 N   0  0  0  0  0  0  0  0  0  0  0  0
   45.4920   25.4320   38.0020 C   0  0  0  0  0  0  0  0  0  0  0  0
   44.4330   24.7710   37.4920 N   0  0  0  0  0  0  0  0  0  0  0  0
   44.2130   24.7890   36.1600 C   0  0  0  0  0  0  0  0  0  0  0  0
   46.9840   26.8330   34.9840 N   0  0  0  0  0  0  0  0  0  0  0  0
   38.6170   23.6630   35.9930 O   0  0  0  0  0  0  0  0  0  0  0  0
   38.3470   24.9580   35.7590 C   0  0  0  0  0  0  0  0  0  0  0  0
   38.5060   26.1290   36.4830 C   0  0  0  0  0  0  0  0  0  0  0  0
   38.1480   27.3630   36.0280 C   0  0  0  0  0  0  0  0  0  0  0  0
   37.5870   27.4740   34.7610 C   0  0  0  0  0  0  0  0  0  0  0  0
   37.4310   26.3020   34.0440 C   0  0  0  0  0  0  0  0  0  0  0  0
   37.7940   25.0790   34.5170 N   0  0  0  0  0  0  0  0  0  0  0  0
   36.8300   26.4460   32.6920 C   0  0  0  0  0  0  0  0  0  0  0  0
   36.9390   27.5840   31.8990 C   0  0  0  0  0  0  0  0  0  0  0  0
   36.2270   27.2490   30.7460 C   0  0  0  0  0  0  0  0  0  0  0  0
   35.7400   25.9540   30.9080 C   0  0  0  0  0  0  0  0  0  0  0  0
   36.1430   25.5320   32.1060 O   0  0  0  0  0  0  0  0  0  0  0  0
   43.4816   21.8968   36.8238 H   0  0  0  0  0  0  0  0  0  0  0  0
   41.5044   20.6069   37.7187 H   0  0  0  0  0  0  0  0  0  0  0  0
   42.8027   24.1895   33.2703 H   0  0  0  0  0  0  0  0  0  0  0  0
   45.6792   25.4228   39.0859 H   0  0  0  0  0  0  0  0  0  0  0  0
   47.7839   27.3281   35.4034 H   0  0  0  0  0  0  0  0  0  0  0  0
   46.8388   26.8597   33.9646 H   0  0  0  0  0  0  0  0  0  0  0  0
   38.9487   26.0582   37.4875 H   0  0  0  0  0  0  0  0  0  0  0  0
   38.3004   28.2556   36.6526 H   0  0  0  0  0  0  0  0  0  0  0  0
   37.2819   28.4471   34.3487 H   0  0  0  0  0  0  0  0  0  0  0  0
   37.4621   28.5245   32.1266 H   0  0  0  0  0  0  0  0  0  0  0  0
   36.0773   27.8926   29.8666 H   0  0  0  0  0  0  0  0  0  0  0  0
   35.1367   25.3869   30.1838 H   0  0  0  0  0  0  0  0  0  0  0  0
  1  2  2  0
  2  3  1  0
  4  3  2  0
  5  4  1  0
  6  1  1  0
  6  5  2  0
  7  1  1  0
  7 15  1  0
  8  7  1  0
  9  8  2  0
  9 10  1  0
 10 11  2  0
 10 15  1  0
 11 12  1  0
 12 13  2  0
 14 13  1  0
 15 14  2  0
 16 11  1  0
 17  5  1  0
 18 17  1  0
 18 19  2  0
 20 19  1  0
 21 20  2  0
 22 23  2  0
 22 21  1  0
 23 18  1  0
 24 22  1  0
 25 24  2  0
 26 27  2  0
 26 25  1  0
 27 28  1  0
 28 24  1  0
  2 29  1  0
  3 30  1  0
  8 31  1  0
 13 32  1  0
 16 33  1  0
 16 34  1  0
 19 35  1  0
 20 36  1  0
 21 37  1  0
 25 38  1  0
 26 39  1  0
 27 40  1  0
M  ISO  8  29  14  30  14  31  14  32  14  35  14  36  14  37  14  38  14
M  ISO  2  39  14  40  14
M  END
>  <minimizedAffinity>  (1) 
-6.03182316

>  <minimizedRMSD>  (1) 
0.698908746

$$$$
