
     RDKit          3D

 40 44  0  0  0  0  0  0  0  0999 V2000
   42.1810   23.4320   35.9800 C   0  0  0  0  0  0  0  0  0  0  0  0
   42.4720   22.2470   36.6370 C   0  0  0  0  0  0  0  0  0  0  0  0
   41.3910   21.5200   37.1570 C   0  0  0  0  0  0  0  0  0  0  0  0
   40.1420   21.9980   36.9960 N   0  0  0  0  0  0  0  0  0  0  0  0
   39.8610   23.1640   36.3490 C   0  0  0  0  0  0  0  0  0  0  0  0
   40.9130   23.8660   35.8460 N   0  0  0  0  0  0  0  0  0  0  0  0
   43.2170   24.2500   35.4120 N   0  0  0  0  0  0  0  0  0  0  0  0
   43.3560   24.5720   34.1090 C   0  0  0  0  0  0  0  0  0  0  0  0
   44.4560   25.3530   34.0130 N   0  0  0  0  0  0  0  0  0  0  0  0
   44.9760   25.5050   35.2290 C   0  0  0  0  0  0  0  0  0  0  0  0
   46.0630   26.1710   35.7490 C   0  0  0  0  0  0  0  0  0  0  0  0
   46.3400   26.1340   37.0920 N   0  0  0  0  0  0  0  0  0  0  0  0
   45.5410   25.4280   37.9540 C   0  0  0  0  0  0  0  0  0  0  0  0
   44.4700   24.7680   37.4610 N   0  0  0  0  0  0  0  0  0  0  0  0
   44.2040   24.8120   36.1370 C   0  0  0  0  0  0  0  0  0  0  0  0
   46.9170   26.9110   34.9110 N   0  0  0  0  0  0  0  0  0  0  0  0
   38.6150   23.6830   36.1650 O   0  0  0  0  0  0  0  0  0  0  0  0
   38.3500   24.9710   35.8270 C   0  0  0  0  0  0  0  0  0  0  0  0
   38.5400   26.1880   36.4430 C   0  0  0  0  0  0  0  0  0  0  0  0
   38.1850   27.3830   35.8980 C   0  0  0  0  0  0  0  0  0  0  0  0
   37.6030   27.3890   34.6590 C   0  0  0  0  0  0  0  0  0  0  0  0
   37.4010   26.1690   34.0190 C   0  0  0  0  0  0  0  0  0  0  0  0
   37.7700   24.9760   34.5930 N   0  0  0  0  0  0  0  0  0  0  0  0
   36.7720   26.1550   32.6760 C   0  0  0  0  0  0  0  0  0  0  0  0
   36.5590   27.2560   31.9030 C   0  0  0  0  0  0  0  0  0  0  0  0
   35.9700   26.7610   30.7870 N   0  0  0  0  0  0  0  0  0  0  0  0
   35.8500   25.4140   30.9190 C   0  0  0  0  0  0  0  0  0  0  0  0
   36.3440   25.0230   32.0890 N   0  0  0  0  0  0  0  0  0  0  0  0
   43.5072   21.8915   36.7461 H   0  0  0  0  0  0  0  0  0  0  0  0
   41.5609   20.5724   37.6891 H   0  0  0  0  0  0  0  0  0  0  0  0
   42.7003   24.2592   33.2831 H   0  0  0  0  0  0  0  0  0  0  0  0
   45.7683   25.3993   39.0299 H   0  0  0  0  0  0  0  0  0  0  0  0
   47.7277   27.4058   35.3095 H   0  0  0  0  0  0  0  0  0  0  0  0
   46.7316   26.9580   33.8989 H   0  0  0  0  0  0  0  0  0  0  0  0
   39.0083   26.1943   37.4383 H   0  0  0  0  0  0  0  0  0  0  0  0
   38.3617   28.3233   36.4408 H   0  0  0  0  0  0  0  0  0  0  0  0
   37.3027   28.3332   34.1813 H   0  0  0  0  0  0  0  0  0  0  0  0
   36.8072   28.3031   32.1312 H   0  0  0  0  0  0  0  0  0  0  0  0
   35.4080   24.7443   30.1665 H   0  0  0  0  0  0  0  0  0  0  0  0
   36.3892   24.0646   32.4637 H   0  0  0  0  0  0  0  0  0  0  0  0
  1  2  2  0
  2  3  1  0
  4  3  2  0
  5  4  1  0
  6  1  1  0
  6  5  2  0
  7  1  1  0
  7 15  1  0
  8  7  1  0
  9  8  2  0
  9 10  1  0
 10 11  2  0
 10 15  1  0
 11 12  1  0
 12 13  2  0
 14 13  1  0
 15 14  2  0
 16 11  1  0
 17  5  1  0
 18 17  1  0
 18 19  2  0
 20 19  1  0
 21 20  2  0
 22 23  2  0
 22 21  1  0
 23 18  1  0
 24 22  1  0
 25 24  2  0
 26 27  2  0
 26 25  1  0
 27 28  1  0
 28 24  1  0
  2 29  1  0
  3 30  1  0
  8 31  1  0
 13 32  1  0
 16 33  1  0
 16 34  1  0
 19 35  1  0
 20 36  1  0
 21 37  1  0
 25 38  1  0
 27 39  1  0
 28 40  1  0
M  ISO  8  29  14  30  14  31  14  32  14  35  14  36  14  37  14  38  14
M  ISO  2  39  14  40   9
M  END
>  <minimizedAffinity>  (1) 
-6.00843716

>  <minimizedRMSD>  (1) 
0.655062497

$$$$
