
     RDKit          3D

 45 48  0  0  0  0  0  0  0  0999 V2000
   41.9850   23.6040   35.9160 C   0  0  0  0  0  0  0  0  0  0  0  0
   42.2490   22.4140   36.5800 C   0  0  0  0  0  0  0  0  0  0  0  0
   41.1550   21.6900   37.0330 C   0  0  0  0  0  0  0  0  0  0  0  0
   39.9100   22.1590   36.8160 N   0  0  0  0  0  0  0  0  0  0  0  0
   39.6570   23.3290   36.1630 C   0  0  0  0  0  0  0  0  0  0  0  0
   40.7290   24.0390   35.7180 N   0  0  0  0  0  0  0  0  0  0  0  0
   43.0480   24.4280   35.4070 N   0  0  0  0  0  0  0  0  0  0  0  0
   43.1760   24.8660   34.1230 C   0  0  0  0  0  0  0  0  0  0  0  0
   44.3130   25.6080   34.0900 N   0  0  0  0  0  0  0  0  0  0  0  0
   44.8510   25.6230   35.2910 C   0  0  0  0  0  0  0  0  0  0  0  0
   45.9660   26.1880   35.8480 C   0  0  0  0  0  0  0  0  0  0  0  0
   46.2850   26.0220   37.1920 N   0  0  0  0  0  0  0  0  0  0  0  0
   45.4620   25.2750   37.9790 C   0  0  0  0  0  0  0  0  0  0  0  0
   44.3570   24.7080   37.4490 N   0  0  0  0  0  0  0  0  0  0  0  0
   44.0730   24.8840   36.1540 C   0  0  0  0  0  0  0  0  0  0  0  0
   46.8530   26.9730   35.0740 N   0  0  0  0  0  0  0  0  0  0  0  0
   38.4170   23.8450   35.9200 O   0  0  0  0  0  0  0  0  0  0  0  0
   38.1690   25.1240   35.5390 C   0  0  0  0  0  0  0  0  0  0  0  0
   38.2480   26.3510   36.1650 C   0  0  0  0  0  0  0  0  0  0  0  0
   37.9310   27.5260   35.5410 C   0  0  0  0  0  0  0  0  0  0  0  0
   37.5110   27.4910   34.2320 C   0  0  0  0  0  0  0  0  0  0  0  0
   37.4310   26.2690   33.6080 C   0  0  0  0  0  0  0  0  0  0  0  0
   37.7530   25.0920   34.2410 N   0  0  0  0  0  0  0  0  0  0  0  0
   36.9640   26.3430   32.1850 C   0  0  0  0  0  0  0  0  0  0  0  0
   36.0370   27.5290   32.0540 C   0  0  0  0  0  0  0  0  0  0  0  0
   36.2530   25.0520   31.8250 C   0  0  0  0  0  0  0  0  0  0  0  0
   38.1030   26.5030   31.2500 C   0  0  0  0  0  0  0  0  0  0  0  0
   43.2784   22.0609   36.7399 H   0  0  0  0  0  0  0  0  0  0  0  0
   41.3030   20.7392   37.5659 H   0  0  0  0  0  0  0  0  0  0  0  0
   42.4960   24.6602   33.2832 H   0  0  0  0  0  0  0  0  0  0  0  0
   45.6969   25.1338   39.0443 H   0  0  0  0  0  0  0  0  0  0  0  0
   47.6871   27.3900   35.5113 H   0  0  0  0  0  0  0  0  0  0  0  0
   46.6646   27.1275   34.0732 H   0  0  0  0  0  0  0  0  0  0  0  0
   38.5808   26.3857   37.2129 H   0  0  0  0  0  0  0  0  0  0  0  0
   38.0107   28.4831   36.0773 H   0  0  0  0  0  0  0  0  0  0  0  0
   37.2462   28.4160   33.6988 H   0  0  0  0  0  0  0  0  0  0  0  0
   35.7567   27.8876   33.0554 H   0  0  0  0  0  0  0  0  0  0  0  0
   36.5474   28.3345   31.5056 H   0  0  0  0  0  0  0  0  0  0  0  0
   35.1321   27.2283   31.5056 H   0  0  0  0  0  0  0  0  0  0  0  0
   35.9625   24.5244   32.7455 H   0  0  0  0  0  0  0  0  0  0  0  0
   35.3538   25.2810   31.2343 H   0  0  0  0  0  0  0  0  0  0  0  0
   36.9272   24.4145   31.2343 H   0  0  0  0  0  0  0  0  0  0  0  0
   39.0326   26.6336   31.8235 H   0  0  0  0  0  0  0  0  0  0  0  0
   38.1858   25.6077   30.6163 H   0  0  0  0  0  0  0  0  0  0  0  0
   37.9359   27.3865   30.6163 H   0  0  0  0  0  0  0  0  0  0  0  0
  1  2  2  0
  2  3  1  0
  4  3  2  0
  5  4  1  0
  6  1  1  0
  6  5  2  0
  7  1  1  0
  7 15  1  0
  8  7  1  0
  9  8  2  0
  9 10  1  0
 10 11  2  0
 10 15  1  0
 11 12  1  0
 12 13  2  0
 14 13  1  0
 15 14  2  0
 16 11  1  0
 17  5  1  0
 18 17  1  0
 18 19  2  0
 20 19  1  0
 21 20  2  0
 22 21  1  0
 22 23  2  0
 23 18  1  0
 24 22  1  0
 25 24  1  0
 26 24  1  0
 27 24  1  0
  2 28  1  0
  3 29  1  0
  8 30  1  0
 13 31  1  0
 16 32  1  0
 16 33  1  0
 19 34  1  0
 20 35  1  0
 21 36  1  0
 25 37  1  0
 25 38  1  0
 25 39  1  0
 26 40  1  0
 26 41  1  0
 26 42  1  0
 27 43  1  0
 27 44  1  0
 27 45  1  0
M  ISO  8  28  14  29  14  30  14  31  14  34  14  35  14  36  14  37   8
M  ISO  8  38   8  39   8  40   8  41   8  42   8  43   8  44   8  45   8
M  END
>  <minimizedAffinity>  (1) 
-5.93773603

>  <minimizedRMSD>  (1) 
0.735968173

$$$$
