
     RDKit          3D

 36 39  0  0  0  0  0  0  0  0999 V2000
   42.0100   23.6090   35.9390 C   0  0  0  0  0  0  0  0  0  0  0  0
   42.2950   22.4070   36.5840 C   0  0  0  0  0  0  0  0  0  0  0  0
   41.2080   21.6640   37.0590 C   0  0  0  0  0  0  0  0  0  0  0  0
   39.9640   22.1330   36.8770 N   0  0  0  0  0  0  0  0  0  0  0  0
   39.6890   23.3100   36.2460 C   0  0  0  0  0  0  0  0  0  0  0  0
   40.7470   24.0330   35.7840 N   0  0  0  0  0  0  0  0  0  0  0  0
   43.0580   24.4420   35.4180 N   0  0  0  0  0  0  0  0  0  0  0  0
   43.1570   24.8850   34.1440 C   0  0  0  0  0  0  0  0  0  0  0  0
   44.2860   25.6320   34.0880 N   0  0  0  0  0  0  0  0  0  0  0  0
   44.8540   25.6420   35.2890 C   0  0  0  0  0  0  0  0  0  0  0  0
   45.9810   26.2080   35.8350 C   0  0  0  0  0  0  0  0  0  0  0  0
   46.3170   26.0320   37.1620 N   0  0  0  0  0  0  0  0  0  0  0  0
   45.5170   25.2760   37.9660 C   0  0  0  0  0  0  0  0  0  0  0  0
   44.4030   24.7100   37.4480 N   0  0  0  0  0  0  0  0  0  0  0  0
   44.0920   24.8930   36.1550 C   0  0  0  0  0  0  0  0  0  0  0  0
   46.8340   26.9960   35.0400 N   0  0  0  0  0  0  0  0  0  0  0  0
   38.4450   23.8240   36.0400 O   0  0  0  0  0  0  0  0  0  0  0  0
   38.1810   25.0930   35.6290 C   0  0  0  0  0  0  0  0  0  0  0  0
   38.3140   26.3340   36.2200 C   0  0  0  0  0  0  0  0  0  0  0  0
   37.9700   27.5000   35.5890 C   0  0  0  0  0  0  0  0  0  0  0  0
   37.4630   27.4350   34.2980 C   0  0  0  0  0  0  0  0  0  0  0  0
   37.3360   26.1980   33.7230 C   0  0  0  0  0  0  0  0  0  0  0  0
   37.6840   25.0410   34.3650 N   0  0  0  0  0  0  0  0  0  0  0  0
   36.7810   26.2420   32.3310 C   0  0  0  0  0  0  0  0  0  0  0  0
   37.7600   26.1840   31.3960 F   0  0  0  0  0  0  0  0  0  0  0  0
   35.8910   27.2930   32.1670 F   0  0  0  0  0  0  0  0  0  0  0  0
   36.0310   25.0670   32.1770 F   0  0  0  0  0  0  0  0  0  0  0  0
   43.3297   22.0572   36.7142 H   0  0  0  0  0  0  0  0  0  0  0  0
   41.3716   20.7067   37.5755 H   0  0  0  0  0  0  0  0  0  0  0  0
   42.4600   24.6798   33.3181 H   0  0  0  0  0  0  0  0  0  0  0  0
   45.7746   25.1277   39.0251 H   0  0  0  0  0  0  0  0  0  0  0  0
   47.6778   27.4186   35.4526 H   0  0  0  0  0  0  0  0  0  0  0  0
   46.6145   27.1501   34.0455 H   0  0  0  0  0  0  0  0  0  0  0  0
   38.7141   26.3885   37.2432 H   0  0  0  0  0  0  0  0  0  0  0  0
   38.0930   28.4689   36.0951 H   0  0  0  0  0  0  0  0  0  0  0  0
   37.1729   28.3465   33.7549 H   0  0  0  0  0  0  0  0  0  0  0  0
  1  2  2  0
  2  3  1  0
  4  3  2  0
  5  4  1  0
  6  1  1  0
  6  5  2  0
  7  1  1  0
  7 15  1  0
  8  7  1  0
  9  8  2  0
  9 10  1  0
 10 11  2  0
 10 15  1  0
 11 12  1  0
 12 13  2  0
 14 13  1  0
 15 14  2  0
 16 11  1  0
 17  5  1  0
 18 17  1  0
 18 19  2  0
 20 19  1  0
 21 20  2  0
 22 21  1  0
 22 23  2  0
 23 18  1  0
 24 22  1  0
 25 24  1  0
 26 24  1  0
 27 24  1  0
  2 28  1  0
  3 29  1  0
  8 30  1  0
 13 31  1  0
 16 32  1  0
 16 33  1  0
 19 34  1  0
 20 35  1  0
 21 36  1  0
M  ISO  7  28  14  29  14  30  14  31  14  34  14  35  14  36  14
M  END
>  <minimizedAffinity>  (1) 
-5.87401104

>  <minimizedRMSD>  (1) 
0.730327427

$$$$
