
     RDKit          3D

 41 45  0  0  0  0  0  0  0  0999 V2000
   42.2680   23.3580   36.0080 C   0  0  0  0  0  0  0  0  0  0  0  0
   42.5730   22.1470   36.6340 C   0  0  0  0  0  0  0  0  0  0  0  0
   41.5030   21.4180   37.1560 C   0  0  0  0  0  0  0  0  0  0  0  0
   40.2510   21.8970   37.0400 N   0  0  0  0  0  0  0  0  0  0  0  0
   39.9580   23.0790   36.4290 C   0  0  0  0  0  0  0  0  0  0  0  0
   40.9990   23.7910   35.9190 N   0  0  0  0  0  0  0  0  0  0  0  0
   43.2920   24.1850   35.4390 N   0  0  0  0  0  0  0  0  0  0  0  0
   43.4370   24.4890   34.1380 C   0  0  0  0  0  0  0  0  0  0  0  0
   44.5230   25.2870   34.0400 N   0  0  0  0  0  0  0  0  0  0  0  0
   45.0330   25.4690   35.2580 C   0  0  0  0  0  0  0  0  0  0  0  0
   46.0970   26.1590   35.7730 C   0  0  0  0  0  0  0  0  0  0  0  0
   46.3740   26.1510   37.1370 N   0  0  0  0  0  0  0  0  0  0  0  0
   45.5700   25.4430   37.9720 C   0  0  0  0  0  0  0  0  0  0  0  0
   44.5180   24.7560   37.4970 N   0  0  0  0  0  0  0  0  0  0  0  0
   44.2680   24.7780   36.1680 C   0  0  0  0  0  0  0  0  0  0  0  0
   46.9420   26.8980   34.9320 N   0  0  0  0  0  0  0  0  0  0  0  0
   38.7100   23.6060   36.2850 O   0  0  0  0  0  0  0  0  0  0  0  0
   38.4390   24.8970   35.9950 C   0  0  0  0  0  0  0  0  0  0  0  0
   38.6160   26.0920   36.6540 C   0  0  0  0  0  0  0  0  0  0  0  0
   38.2450   27.3010   36.1320 C   0  0  0  0  0  0  0  0  0  0  0  0
   37.6640   27.3350   34.8780 C   0  0  0  0  0  0  0  0  0  0  0  0
   37.4850   26.1490   34.2140 C   0  0  0  0  0  0  0  0  0  0  0  0
   37.8650   24.9530   34.7600 N   0  0  0  0  0  0  0  0  0  0  0  0
   36.8710   26.1440   32.8820 C   0  0  0  0  0  0  0  0  0  0  0  0
   36.6570   27.2710   32.1440 C   0  0  0  0  0  0  0  0  0  0  0  0
   36.0740   27.2570   30.8840 C   0  0  0  0  0  0  0  0  0  0  0  0
   35.7040   26.0790   30.3610 N   0  0  0  0  0  0  0  0  0  0  0  0
   35.9180   24.9610   31.0960 C   0  0  0  0  0  0  0  0  0  0  0  0
   36.4830   24.9900   32.3160 N   0  0  0  0  0  0  0  0  0  0  0  0
   43.6086   21.7845   36.7120 H   0  0  0  0  0  0  0  0  0  0  0  0
   41.6825   20.4567   37.6597 H   0  0  0  0  0  0  0  0  0  0  0  0
   42.7945   24.1525   33.3110 H   0  0  0  0  0  0  0  0  0  0  0  0
   45.7831   25.4321   39.0511 H   0  0  0  0  0  0  0  0  0  0  0  0
   47.7403   27.4141   35.3286 H   0  0  0  0  0  0  0  0  0  0  0  0
   46.7642   26.9246   33.9178 H   0  0  0  0  0  0  0  0  0  0  0  0
   39.0795   26.0743   37.6514 H   0  0  0  0  0  0  0  0  0  0  0  0
   38.4061   28.2292   36.6998 H   0  0  0  0  0  0  0  0  0  0  0  0
   37.3536   28.2882   34.4251 H   0  0  0  0  0  0  0  0  0  0  0  0
   36.9615   28.2392   32.5682 H   0  0  0  0  0  0  0  0  0  0  0  0
   35.9189   28.1925   30.3265 H   0  0  0  0  0  0  0  0  0  0  0  0
   35.6171   23.9893   30.6774 H   0  0  0  0  0  0  0  0  0  0  0  0
  1  2  2  0
  2  3  1  0
  4  3  2  0
  5  4  1  0
  6  1  1  0
  6  5  2  0
  7  1  1  0
  7 15  1  0
  8  7  1  0
  9  8  2  0
  9 10  1  0
 10 11  2  0
 10 15  1  0
 11 12  1  0
 12 13  2  0
 14 13  1  0
 15 14  2  0
 16 11  1  0
 17  5  1  0
 18 17  1  0
 18 19  2  0
 20 19  1  0
 21 20  2  0
 22 23  2  0
 22 21  1  0
 23 18  1  0
 24 22  1  0
 25 24  2  0
 26 25  1  0
 27 26  2  0
 27 28  1  0
 28 29  2  0
 29 24  1  0
  2 30  1  0
  3 31  1  0
  8 32  1  0
 13 33  1  0
 16 34  1  0
 16 35  1  0
 19 36  1  0
 20 37  1  0
 21 38  1  0
 25 39  1  0
 26 40  1  0
 28 41  1  0
M  ISO  8  30  14  31  14  32  14  33  14  36  14  37  14  38  14  39  14
M  ISO  2  40  14  41  14
M  END
>  <minimizedAffinity>  (1) 
-5.86365891

>  <minimizedRMSD>  (1) 
0.734384954

$$$$
