
     RDKit          3D

 42 45  0  0  0  0  0  0  0  0999 V2000
   42.0060   23.6170   35.9260 C   0  0  0  0  0  0  0  0  0  0  0  0
   42.2820   22.4150   36.5960 C   0  0  0  0  0  0  0  0  0  0  0  0
   41.1900   21.6810   37.0650 C   0  0  0  0  0  0  0  0  0  0  0  0
   39.9400   22.1490   36.8580 N   0  0  0  0  0  0  0  0  0  0  0  0
   39.6790   23.3170   36.2070 C   0  0  0  0  0  0  0  0  0  0  0  0
   40.7440   24.0320   35.7510 N   0  0  0  0  0  0  0  0  0  0  0  0
   43.0580   24.4370   35.4110 N   0  0  0  0  0  0  0  0  0  0  0  0
   43.1750   24.8670   34.1350 C   0  0  0  0  0  0  0  0  0  0  0  0
   44.3150   25.6120   34.0890 N   0  0  0  0  0  0  0  0  0  0  0  0
   44.8610   25.6270   35.2900 C   0  0  0  0  0  0  0  0  0  0  0  0
   45.9860   26.1960   35.8400 C   0  0  0  0  0  0  0  0  0  0  0  0
   46.3070   26.0320   37.1760 N   0  0  0  0  0  0  0  0  0  0  0  0
   45.4920   25.2880   37.9690 C   0  0  0  0  0  0  0  0  0  0  0  0
   44.3820   24.7170   37.4610 N   0  0  0  0  0  0  0  0  0  0  0  0
   44.0890   24.8890   36.1660 C   0  0  0  0  0  0  0  0  0  0  0  0
   46.8530   26.9720   35.0530 N   0  0  0  0  0  0  0  0  0  0  0  0
   38.4350   23.8270   35.9770 O   0  0  0  0  0  0  0  0  0  0  0  0
   38.1800   25.0870   35.5700 C   0  0  0  0  0  0  0  0  0  0  0  0
   38.2700   26.3350   36.1660 C   0  0  0  0  0  0  0  0  0  0  0  0
   37.9430   27.5000   35.5230 C   0  0  0  0  0  0  0  0  0  0  0  0
   37.4970   27.4470   34.2080 C   0  0  0  0  0  0  0  0  0  0  0  0
   37.4150   26.2040   33.6360 C   0  0  0  0  0  0  0  0  0  0  0  0
   37.7400   25.0500   34.2790 N   0  0  0  0  0  0  0  0  0  0  0  0
   36.9240   26.2440   32.2110 C   0  0  0  0  0  0  0  0  0  0  0  0
   36.0860   27.4870   32.0160 C   0  0  0  0  0  0  0  0  0  0  0  0
   36.2220   24.9930   31.8200 C   0  0  0  0  0  0  0  0  0  0  0  0
   43.3143   22.0658   36.7454 H   0  0  0  0  0  0  0  0  0  0  0  0
   41.3465   20.7313   37.5976 H   0  0  0  0  0  0  0  0  0  0  0  0
   42.4883   24.6577   33.3016 H   0  0  0  0  0  0  0  0  0  0  0  0
   45.7398   25.1510   39.0319 H   0  0  0  0  0  0  0  0  0  0  0  0
   47.6928   27.3937   35.4747 H   0  0  0  0  0  0  0  0  0  0  0  0
   46.6489   27.1193   34.0542 H   0  0  0  0  0  0  0  0  0  0  0  0
   38.6213   26.3932   37.2068 H   0  0  0  0  0  0  0  0  0  0  0  0
   38.0325   28.4659   36.0417 H   0  0  0  0  0  0  0  0  0  0  0  0
   37.2234   28.3570   33.6538 H   0  0  0  0  0  0  0  0  0  0  0  0
   37.7863   26.3002   31.5304 H   0  0  0  0  0  0  0  0  0  0  0  0
   35.8080   27.8994   32.9971 H   0  0  0  0  0  0  0  0  0  0  0  0
   36.6648   28.2351   31.4545 H   0  0  0  0  0  0  0  0  0  0  0  0
   35.1754   27.2310   31.4545 H   0  0  0  0  0  0  0  0  0  0  0  0
   35.9154   24.4467   32.7242 H   0  0  0  0  0  0  0  0  0  0  0  0
   35.3324   25.2429   31.2233 H   0  0  0  0  0  0  0  0  0  0  0  0
   36.8989   24.3639   31.2233 H   0  0  0  0  0  0  0  0  0  0  0  0
  1  2  2  0
  2  3  1  0
  4  3  2  0
  5  4  1  0
  6  1  1  0
  6  5  2  0
  7  1  1  0
  7 15  1  0
  8  7  1  0
  9  8  2  0
  9 10  1  0
 10 11  2  0
 10 15  1  0
 11 12  1  0
 12 13  2  0
 14 13  1  0
 15 14  2  0
 16 11  1  0
 17  5  1  0
 18 17  1  0
 18 19  2  0
 20 19  1  0
 21 20  2  0
 22 21  1  0
 22 23  2  0
 23 18  1  0
 24 22  1  0
 25 24  1  0
 26 24  1  0
  2 27  1  0
  3 28  1  0
  8 29  1  0
 13 30  1  0
 16 31  1  0
 16 32  1  0
 19 33  1  0
 20 34  1  0
 21 35  1  0
 24 36  1  0
 25 37  1  0
 25 38  1  0
 25 39  1  0
 26 40  1  0
 26 41  1  0
 26 42  1  0
M  ISO  8  27  14  28  14  29  14  30  14  33  14  34  14  35  14  36   8
M  ISO  6  37   8  38   8  39   8  40   8  41   8  42   8
M  END
>  <minimizedAffinity>  (1) 
-5.7699995

>  <minimizedRMSD>  (1) 
0.652115524

$$$$
