
     RDKit          3D

 39 42  0  0  0  0  0  0  0  0999 V2000
   42.0330   23.5800   35.9380 C   0  0  0  0  0  0  0  0  0  0  0  0
   42.2870   22.4060   36.6390 C   0  0  0  0  0  0  0  0  0  0  0  0
   41.1800   21.6890   37.0980 C   0  0  0  0  0  0  0  0  0  0  0  0
   39.9460   22.1540   36.8440 N   0  0  0  0  0  0  0  0  0  0  0  0
   39.6990   23.3050   36.1560 C   0  0  0  0  0  0  0  0  0  0  0  0
   40.7780   24.0060   35.7090 N   0  0  0  0  0  0  0  0  0  0  0  0
   43.1040   24.3940   35.4220 N   0  0  0  0  0  0  0  0  0  0  0  0
   43.2590   24.7990   34.1530 C   0  0  0  0  0  0  0  0  0  0  0  0
   44.3890   25.5440   34.1000 N   0  0  0  0  0  0  0  0  0  0  0  0
   44.9110   25.5880   35.3270 C   0  0  0  0  0  0  0  0  0  0  0  0
   46.0270   26.1730   35.8980 C   0  0  0  0  0  0  0  0  0  0  0  0
   46.3100   26.0340   37.2370 N   0  0  0  0  0  0  0  0  0  0  0  0
   45.4760   25.3030   38.0300 C   0  0  0  0  0  0  0  0  0  0  0  0
   44.3780   24.7220   37.4920 N   0  0  0  0  0  0  0  0  0  0  0  0
   44.1160   24.8650   36.1890 C   0  0  0  0  0  0  0  0  0  0  0  0
   46.8980   26.9310   35.1050 N   0  0  0  0  0  0  0  0  0  0  0  0
   38.4660   23.8120   35.8790 O   0  0  0  0  0  0  0  0  0  0  0  0
   38.2040   25.1110   35.5790 C   0  0  0  0  0  0  0  0  0  0  0  0
   38.3510   26.3010   36.2720 C   0  0  0  0  0  0  0  0  0  0  0  0
   38.0040   27.5110   35.7380 C   0  0  0  0  0  0  0  0  0  0  0  0
   37.4840   27.5610   34.4510 C   0  0  0  0  0  0  0  0  0  0  0  0
   37.3450   26.3740   33.7800 C   0  0  0  0  0  0  0  0  0  0  0  0
   37.6950   25.1670   34.3220 N   0  0  0  0  0  0  0  0  0  0  0  0
   36.7750   26.5330   32.4020 C   0  0  0  0  0  0  0  0  0  0  0  0
   36.9080   28.0010   32.0560 C   0  0  0  0  0  0  0  0  0  0  0  0
   43.3140   22.0578   36.8236 H   0  0  0  0  0  0  0  0  0  0  0  0
   41.3172   20.7541   37.6611 H   0  0  0  0  0  0  0  0  0  0  0  0
   42.5911   24.5685   33.3099 H   0  0  0  0  0  0  0  0  0  0  0  0
   45.6942   25.1859   39.1018 H   0  0  0  0  0  0  0  0  0  0  0  0
   47.7299   27.3680   35.5268 H   0  0  0  0  0  0  0  0  0  0  0  0
   46.7066   27.0514   34.1001 H   0  0  0  0  0  0  0  0  0  0  0  0
   38.7629   26.2716   37.2916 H   0  0  0  0  0  0  0  0  0  0  0  0
   38.1352   28.4345   36.3211 H   0  0  0  0  0  0  0  0  0  0  0  0
   37.1950   28.5162   33.9883 H   0  0  0  0  0  0  0  0  0  0  0  0
   37.3381   25.9194   31.6834 H   0  0  0  0  0  0  0  0  0  0  0  0
   35.7256   26.2056   32.3623 H   0  0  0  0  0  0  0  0  0  0  0  0
   36.9616   28.5925   32.9819 H   0  0  0  0  0  0  0  0  0  0  0  0
   37.8240   28.1575   31.4674 H   0  0  0  0  0  0  0  0  0  0  0  0
   36.0350   28.3195   31.4674 H   0  0  0  0  0  0  0  0  0  0  0  0
  1  2  2  0
  2  3  1  0
  4  3  2  0
  5  4  1  0
  6  1  1  0
  6  5  2  0
  7  1  1  0
  7 15  1  0
  8  7  1  0
  9  8  2  0
  9 10  1  0
 10 11  2  0
 10 15  1  0
 11 12  1  0
 12 13  2  0
 14 13  1  0
 15 14  2  0
 16 11  1  0
 17  5  1  0
 18 17  1  0
 18 19  2  0
 20 19  1  0
 21 20  2  0
 22 23  2  0
 22 21  1  0
 23 18  1  0
 24 22  1  0
 25 24  1  0
  2 26  1  0
  3 27  1  0
  8 28  1  0
 13 29  1  0
 16 30  1  0
 16 31  1  0
 19 32  1  0
 20 33  1  0
 21 34  1  0
 24 35  1  0
 24 36  1  0
 25 37  1  0
 25 38  1  0
 25 39  1  0
M  ISO  8  26  14  27  14  28  14  29  14  32  14  33  14  34  14  35   8
M  ISO  4  36   8  37   8  38   8  39   8
M  END
>  <minimizedAffinity>  (1) 
-5.55878878

>  <minimizedRMSD>  (1) 
0.717780232

$$$$
