
     RDKit          3D

 34 37  0  0  0  0  0  0  0  0999 V2000
   41.8850   23.4260   35.8650 C   0  0  0  0  0  0  0  0  0  0  0  0
   42.1630   22.3440   36.7050 C   0  0  0  0  0  0  0  0  0  0  0  0
   41.1010   21.8020   37.4190 C   0  0  0  0  0  0  0  0  0  0  0  0
   39.8670   22.3290   37.2790 N   0  0  0  0  0  0  0  0  0  0  0  0
   39.5950   23.3840   36.4610 C   0  0  0  0  0  0  0  0  0  0  0  0
   40.6360   23.9160   35.7610 N   0  0  0  0  0  0  0  0  0  0  0  0
   42.9100   24.0520   35.0890 N   0  0  0  0  0  0  0  0  0  0  0  0
   43.0210   24.0230   33.7450 C   0  0  0  0  0  0  0  0  0  0  0  0
   44.1290   24.7410   33.4300 N   0  0  0  0  0  0  0  0  0  0  0  0
   44.6760   25.1930   34.5570 C   0  0  0  0  0  0  0  0  0  0  0  0
   45.7740   25.9520   34.8620 C   0  0  0  0  0  0  0  0  0  0  0  0
   46.0970   26.2700   36.1770 N   0  0  0  0  0  0  0  0  0  0  0  0
   45.3010   25.8140   37.1770 C   0  0  0  0  0  0  0  0  0  0  0  0
   44.2150   25.0660   36.9150 N   0  0  0  0  0  0  0  0  0  0  0  0
   43.9210   24.7700   35.6300 C   0  0  0  0  0  0  0  0  0  0  0  0
   46.6240   26.4450   33.8540 N   0  0  0  0  0  0  0  0  0  0  0  0
   38.3700   23.9530   36.2830 O   0  0  0  0  0  0  0  0  0  0  0  0
   38.1510   25.2080   35.8120 C   0  0  0  0  0  0  0  0  0  0  0  0
   38.3550   26.4760   36.3340 C   0  0  0  0  0  0  0  0  0  0  0  0
   38.0470   27.6160   35.6500 C   0  0  0  0  0  0  0  0  0  0  0  0
   37.5060   27.5100   34.3750 C   0  0  0  0  0  0  0  0  0  0  0  0
   37.3100   26.2510   33.8700 C   0  0  0  0  0  0  0  0  0  0  0  0
   37.6220   25.1120   34.5670 N   0  0  0  0  0  0  0  0  0  0  0  0
   36.7610   26.2560   32.5830 O   0  0  0  0  0  0  0  0  0  0  0  0
   43.1811   21.9379   36.7972 H   0  0  0  0  0  0  0  0  0  0  0  0
   41.2655   20.9490   38.0938 H   0  0  0  0  0  0  0  0  0  0  0  0
   42.3449   23.5159   33.0409 H   0  0  0  0  0  0  0  0  0  0  0  0
   45.5486   26.0606   38.2200 H   0  0  0  0  0  0  0  0  0  0  0  0
   47.4448   27.0142   34.1053 H   0  0  0  0  0  0  0  0  0  0  0  0
   46.4251   26.2365   32.8651 H   0  0  0  0  0  0  0  0  0  0  0  0
   38.7836   26.5671   37.3430 H   0  0  0  0  0  0  0  0  0  0  0  0
   38.2244   28.6034   36.1012 H   0  0  0  0  0  0  0  0  0  0  0  0
   37.2442   28.4048   33.7913 H   0  0  0  0  0  0  0  0  0  0  0  0
   36.5767   25.4005   32.1201 H   0  0  0  0  0  0  0  0  0  0  0  0
  1  2  2  0
  2  3  1  0
  4  3  2  0
  5  4  1  0
  6  1  1  0
  6  5  2  0
  7 15  1  0
  7  1  1  0
  8  7  1  0
  9  8  2  0
  9 10  1  0
 10 11  2  0
 10 15  1  0
 11 12  1  0
 12 13  2  0
 14 13  1  0
 15 14  2  0
 16 11  1  0
 17  5  1  0
 18 17  1  0
 18 19  2  0
 20 19  1  0
 21 20  2  0
 22 21  1  0
 22 23  2  0
 23 18  1  0
 24 22  1  0
  2 25  1  0
  3 26  1  0
  8 27  1  0
 13 28  1  0
 16 29  1  0
 16 30  1  0
 19 31  1  0
 20 32  1  0
 21 33  1  0
 24 34  1  0
M  ISO  8  25  14  26  14  27  14  28  14  31  14  32  14  33  14  34   3
M  END
>  <minimizedAffinity>  (1) 
-5.3142333

>  <minimizedRMSD>  (1) 
0.0868579894

$$$$
