
     RDKit          3D

 31 34  0  0  0  0  0  0  0  0999 V2000
   40.1810   22.6940   36.4840 C   0  0  0  0  0  0  0  0  0  0  0  0
   39.2140   23.6750   36.2100 C   0  0  0  0  0  0  0  0  0  0  0  0
   39.6310   24.8430   35.5700 C   0  0  0  0  0  0  0  0  0  0  0  0
   40.9430   24.9750   35.2440 N   0  0  0  0  0  0  0  0  0  0  0  0
   41.8530   24.0080   35.5230 C   0  0  0  0  0  0  0  0  0  0  0  0
   41.4520   22.8620   36.1490 N   0  0  0  0  0  0  0  0  0  0  0  0
   38.6990   25.8850   35.2600 N   0  0  0  0  0  0  0  0  0  0  0  0
   37.7590   25.6990   34.3000 C   0  0  0  0  0  0  0  0  0  0  0  0
   37.0570   26.8810   34.2740 C   0  0  0  0  0  0  0  0  0  0  0  0
   37.5630   27.7330   35.1880 N   0  0  0  0  0  0  0  0  0  0  0  0
   38.5980   27.1020   35.8080 C   0  0  0  0  0  0  0  0  0  0  0  0
   43.2330   24.1760   35.1660 N   0  0  0  0  0  0  0  0  0  0  0  0
   43.7390   23.9260   33.9450 C   0  0  0  0  0  0  0  0  0  0  0  0
   45.0610   24.2080   34.0240 N   0  0  0  0  0  0  0  0  0  0  0  0
   45.3490   24.6220   35.2730 C   0  0  0  0  0  0  0  0  0  0  0  0
   46.5210   25.0320   35.8990 C   0  0  0  0  0  0  0  0  0  0  0  0
   47.5830   25.0470   35.2240 O   0  0  0  0  0  0  0  0  0  0  0  0
   46.5070   25.4000   37.1930 N   0  0  0  0  0  0  0  0  0  0  0  0
   45.3690   25.3820   37.9130 C   0  0  0  0  0  0  0  0  0  0  0  0
   45.2820   25.7590   39.2890 N   0  0  0  0  0  0  0  0  0  0  0  0
   44.2390   24.9870   37.3090 N   0  0  0  0  0  0  0  0  0  0  0  0
   44.1730   24.6060   36.0220 C   0  0  0  0  0  0  0  0  0  0  0  0
   39.8763   21.7650   36.9882 H   0  0  0  0  0  0  0  0  0  0  0  0
   38.1608   23.5273   36.4911 H   0  0  0  0  0  0  0  0  0  0  0  0
   37.5952   24.8042   33.6816 H   0  0  0  0  0  0  0  0  0  0  0  0
   36.2096   27.0988   33.6073 H   0  0  0  0  0  0  0  0  0  0  0  0
   39.2311   27.5142   36.6076 H   0  0  0  0  0  0  0  0  0  0  0  0
   43.1905   23.5658   33.0621 H   0  0  0  0  0  0  0  0  0  0  0  0
   47.3837   25.7014   37.6418 H   0  0  0  0  0  0  0  0  0  0  0  0
   44.3759   25.7203   39.7773 H   0  0  0  0  0  0  0  0  0  0  0  0
   46.1254   26.0693   39.7923 H   0  0  0  0  0  0  0  0  0  0  0  0
  2  1  2  0
  3  2  1  0
  4  5  1  0
  4  3  2  0
  5  6  2  0
  6  1  1  0
  7  3  1  0
  7 11  1  0
  8  7  1  0
  9  8  2  0
  9 10  1  0
 10 11  2  0
 12  5  1  0
 12 22  1  0
 13 14  2  0
 13 12  1  0
 14 15  1  0
 15 16  1  0
 15 22  2  0
 16 18  1  0
 17 16  2  0
 18 19  1  0
 19 20  1  0
 21 19  2  0
 22 21  1  0
  1 23  1  0
  2 24  1  0
  8 25  1  0
  9 26  1  0
 11 27  1  0
 13 28  1  0
 18 29  1  0
 20 30  1  0
 20 31  1  0
M  ISO  7  23  14  24  14  25  14  26  14  27  14  28  14  29   9
M  END
>  <minimizedAffinity>  (1) 
-5.37566233

>  <minimizedRMSD>  (1) 
4.44376373

$$$$
