
     RDKit          3D

 31 34  0  0  0  0  0  0  0  0999 V2000
   39.3990   22.8600   37.8210 C   0  0  0  0  0  0  0  0  0  0  0  0
   38.7320   23.8270   37.0420 C   0  0  0  0  0  0  0  0  0  0  0  0
   39.4290   24.3760   35.9720 C   0  0  0  0  0  0  0  0  0  0  0  0
   40.6930   23.9700   35.7270 N   0  0  0  0  0  0  0  0  0  0  0  0
   41.3070   23.0420   36.4910 C   0  0  0  0  0  0  0  0  0  0  0  0
   40.6550   22.4910   37.5370 N   0  0  0  0  0  0  0  0  0  0  0  0
   38.8180   25.3660   35.1330 N   0  0  0  0  0  0  0  0  0  0  0  0
   37.7920   25.0380   34.3060 C   0  0  0  0  0  0  0  0  0  0  0  0
   37.4520   26.1890   33.6640 C   0  0  0  0  0  0  0  0  0  0  0  0
   38.2560   27.1900   34.0940 N   0  0  0  0  0  0  0  0  0  0  0  0
   39.1090   26.6640   35.0150 C   0  0  0  0  0  0  0  0  0  0  0  0
   42.6730   22.6160   36.2100 C   0  0  0  0  0  0  0  0  0  0  0  0
   43.0740   21.4370   35.6370 C   0  0  0  0  0  0  0  0  0  0  0  0
   44.4130   21.3620   35.5200 N   0  0  0  0  0  0  0  0  0  0  0  0
   44.8910   22.5120   36.0260 C   0  0  0  0  0  0  0  0  0  0  0  0
   46.2060   22.9200   36.1370 C   0  0  0  0  0  0  0  0  0  0  0  0
   46.4840   24.1440   36.6890 C   0  0  0  0  0  0  0  0  0  0  0  0
   45.4300   24.9490   37.1290 C   0  0  0  0  0  0  0  0  0  0  0  0
   44.1210   24.5240   37.0110 C   0  0  0  0  0  0  0  0  0  0  0  0
   43.8380   23.3010   36.4580 C   0  0  0  0  0  0  0  0  0  0  0  0
   38.8800   22.4012   38.6755 H   0  0  0  0  0  0  0  0  0  0  0  0
   37.7012   24.1348   37.2716 H   0  0  0  0  0  0  0  0  0  0  0  0
   37.3311   24.0471   34.1809 H   0  0  0  0  0  0  0  0  0  0  0  0
   36.6521   26.2898   32.9156 H   0  0  0  0  0  0  0  0  0  0  0  0
   39.8936   27.2079   35.5615 H   0  0  0  0  0  0  0  0  0  0  0  0
   42.3831   20.6455   35.3112 H   0  0  0  0  0  0  0  0  0  0  0  0
   44.9590   20.5835   35.1241 H   0  0  0  0  0  0  0  0  0  0  0  0
   47.0213   22.2701   35.7864 H   0  0  0  0  0  0  0  0  0  0  0  0
   47.5244   24.4881   36.7843 H   0  0  0  0  0  0  0  0  0  0  0  0
   45.6450   25.9317   37.5741 H   0  0  0  0  0  0  0  0  0  0  0  0
   43.3020   25.1690   37.3620 H   0  0  0  0  0  0  0  0  0  0  0  0
  2  1  2  0
  3  2  1  0
  4  3  2  0
  4  5  1  0
  5  6  2  0
  6  1  1  0
  7  3  1  0
  8  7  1  0
  9 10  1  0
  9  8  2  0
 10 11  2  0
 11  7  1  0
 12 20  1  0
 12  5  1  0
 13 12  2  0
 14 13  1  0
 14 15  1  0
 15 16  2  0
 15 20  1  0
 16 17  1  0
 17 18  2  0
 19 18  1  0
 20 19  2  0
  1 21  1  0
  2 22  1  0
  8 23  1  0
  9 24  1  0
 11 25  1  0
 13 26  1  0
 14 27  1  0
 16 28  1  0
 17 29  1  0
 18 30  1  0
 19 31  1  0
M  ISO  8  21  14  22  14  23  14  24  14  25  14  26  14  27   9  28  14
M  ISO  3  29  14  30  14  31  14
M  END
>  <minimizedAffinity>  (1) 
-5.06295395

>  <minimizedRMSD>  (1) 
3.5014112

$$$$
