
     RDKit          3D

 24 26  0  0  0  0  0  0  0  0999 V2000
   38.1860   23.8650   38.1140 C   0  0  0  0  0  0  0  0  0  0  0  0
   37.9860   24.7800   37.0760 C   0  0  0  0  0  0  0  0  0  0  0  0
   38.8280   24.7430   35.9760 C   0  0  0  0  0  0  0  0  0  0  0  0
   39.8190   23.8100   35.9520 N   0  0  0  0  0  0  0  0  0  0  0  0
   39.9850   22.9360   36.9770 C   0  0  0  0  0  0  0  0  0  0  0  0
   39.1760   22.9620   38.0500 N   0  0  0  0  0  0  0  0  0  0  0  0
   38.6830   25.6480   34.8780 N   0  0  0  0  0  0  0  0  0  0  0  0
   37.6100   25.5480   34.0530 C   0  0  0  0  0  0  0  0  0  0  0  0
   37.7830   26.5460   33.1310 C   0  0  0  0  0  0  0  0  0  0  0  0
   38.9210   27.2150   33.4000 N   0  0  0  0  0  0  0  0  0  0  0  0
   39.4840   26.6480   34.4980 C   0  0  0  0  0  0  0  0  0  0  0  0
   41.0570   21.9570   36.9090 C   0  0  0  0  0  0  0  0  0  0  0  0
   41.8550   21.6710   35.8190 C   0  0  0  0  0  0  0  0  0  0  0  0
   42.7430   20.7050   36.1270 N   0  0  0  0  0  0  0  0  0  0  0  0
   42.5000   20.3870   37.4130 C   0  0  0  0  0  0  0  0  0  0  0  0
   41.4880   21.1370   37.8850 N   0  0  0  0  0  0  0  0  0  0  0  0
   37.5245   23.8858   38.9926 H   0  0  0  0  0  0  0  0  0  0  0  0
   37.1724   25.5182   37.1317 H   0  0  0  0  0  0  0  0  0  0  0  0
   36.7834   24.8247   34.1118 H   0  0  0  0  0  0  0  0  0  0  0  0
   37.0982   26.7672   32.2990 H   0  0  0  0  0  0  0  0  0  0  0  0
   40.4225   26.9541   34.9832 H   0  0  0  0  0  0  0  0  0  0  0  0
   41.7770   22.1622   34.8379 H   0  0  0  0  0  0  0  0  0  0  0  0
   43.0472   19.6276   37.9908 H   0  0  0  0  0  0  0  0  0  0  0  0
   41.1047   21.0910   38.8399 H   0  0  0  0  0  0  0  0  0  0  0  0
  2  1  2  0
  3  2  1  0
  4  3  2  0
  4  5  1  0
  5  6  2  0
  6  1  1  0
  7  3  1  0
  8  7  1  0
  9 10  1  0
  9  8  2  0
 10 11  2  0
 11  7  1  0
 12  5  1  0
 12 16  1  0
 13 14  1  0
 13 12  2  0
 14 15  2  0
 15 16  1  0
  1 17  1  0
  2 18  1  0
  8 19  1  0
  9 20  1  0
 11 21  1  0
 13 22  1  0
 15 23  1  0
 16 24  1  0
M  ISO  8  17  14  18  14  19  14  20  14  21  14  22  14  23  14  24   9
M  END
>  <minimizedAffinity>  (1) 
-4.59256887

>  <minimizedRMSD>  (1) 
3.57715464

$$$$
