
     RDKit          3D

 30 33  0  0  0  0  0  0  0  0999 V2000
   39.1610   22.9490   37.8350 C   0  0  0  0  0  0  0  0  0  0  0  0
   38.5350   23.7500   36.8640 C   0  0  0  0  0  0  0  0  0  0  0  0
   39.3220   24.2220   35.8240 C   0  0  0  0  0  0  0  0  0  0  0  0
   40.6370   23.8850   35.8050 N   0  0  0  0  0  0  0  0  0  0  0  0
   41.2100   23.1120   36.7560 C   0  0  0  0  0  0  0  0  0  0  0  0
   40.4610   22.6450   37.7750 N   0  0  0  0  0  0  0  0  0  0  0  0
   38.7680   25.0470   34.7830 N   0  0  0  0  0  0  0  0  0  0  0  0
   37.9070   24.5400   33.8910 C   0  0  0  0  0  0  0  0  0  0  0  0
   37.5900   25.5860   33.0630 C   0  0  0  0  0  0  0  0  0  0  0  0
   38.2640   26.6880   33.4760 N   0  0  0  0  0  0  0  0  0  0  0  0
   39.0080   26.3620   34.5570 C   0  0  0  0  0  0  0  0  0  0  0  0
   42.6020   22.9110   36.5000 N   0  0  0  0  0  0  0  0  0  0  0  0
   43.6280   23.7800   36.4190 C   0  0  0  0  0  0  0  0  0  0  0  0
   44.7450   23.0850   36.1580 N   0  0  0  0  0  0  0  0  0  0  0  0
   44.4120   21.7840   36.0770 C   0  0  0  0  0  0  0  0  0  0  0  0
   45.1360   20.6230   35.8320 C   0  0  0  0  0  0  0  0  0  0  0  0
   44.5770   19.3950   35.7970 N   0  0  0  0  0  0  0  0  0  0  0  0
   43.2480   19.3270   36.0140 C   0  0  0  0  0  0  0  0  0  0  0  0
   42.5160   20.4260   36.2530 N   0  0  0  0  0  0  0  0  0  0  0  0
   43.0440   21.6660   36.2940 C   0  0  0  0  0  0  0  0  0  0  0  0
   46.5460   20.6820   35.6000 N   0  0  0  0  0  0  0  0  0  0  0  0
   38.5614   22.5599   38.6711 H   0  0  0  0  0  0  0  0  0  0  0  0
   37.4639   23.9927   36.9265 H   0  0  0  0  0  0  0  0  0  0  0  0
   37.5343   23.5066   33.8348 H   0  0  0  0  0  0  0  0  0  0  0  0
   36.9026   25.5391   32.2055 H   0  0  0  0  0  0  0  0  0  0  0  0
   39.6699   27.0254   35.1329 H   0  0  0  0  0  0  0  0  0  0  0  0
   43.5613   24.8707   36.5451 H   0  0  0  0  0  0  0  0  0  0  0  0
   42.7512   18.3458   35.9946 H   0  0  0  0  0  0  0  0  0  0  0  0
   47.0748   19.8168   35.4192 H   0  0  0  0  0  0  0  0  0  0  0  0
   47.0326   21.5897   35.6137 H   0  0  0  0  0  0  0  0  0  0  0  0
  2  1  2  0
  3  2  1  0
  4  3  2  0
  4  5  1  0
  5  6  2  0
  6  1  1  0
  7  3  1  0
  8  7  1  0
  9 10  1  0
  9  8  2  0
 10 11  2  0
 11  7  1  0
 12  5  1  0
 13 12  1  0
 14 13  2  0
 15 14  1  0
 15 20  2  0
 16 15  1  0
 17 16  2  0
 17 18  1  0
 18 19  2  0
 19 20  1  0
 20 12  1  0
 21 16  1  0
  1 22  1  0
  2 23  1  0
  8 24  1  0
  9 25  1  0
 11 26  1  0
 13 27  1  0
 18 28  1  0
 21 29  1  0
 21 30  1  0
M  ISO  7  22  14  23  14  24  14  25  14  26  14  27  14  28  14
M  END
>  <minimizedAffinity>  (1) 
-4.43706274

>  <minimizedRMSD>  (1) 
3.6846621

$$$$
