
     RDKit          3D

 25 27  0  0  0  0  0  0  0  0999 V2000
   38.5860   23.1620   38.1890 C   0  0  0  0  0  0  0  0  0  0  0  0
   38.0130   24.2820   37.5640 C   0  0  0  0  0  0  0  0  0  0  0  0
   38.7180   24.8410   36.4950 C   0  0  0  0  0  0  0  0  0  0  0  0
   39.8900   24.2870   36.1220 N   0  0  0  0  0  0  0  0  0  0  0  0
   40.4180   23.2110   36.7390 C   0  0  0  0  0  0  0  0  0  0  0  0
   39.7560   22.6540   37.7740 N   0  0  0  0  0  0  0  0  0  0  0  0
   38.2030   25.9880   35.8020 N   0  0  0  0  0  0  0  0  0  0  0  0
   37.1240   25.8910   35.0110 C   0  0  0  0  0  0  0  0  0  0  0  0
   36.9190   27.1530   34.5230 C   0  0  0  0  0  0  0  0  0  0  0  0
   37.8550   27.9860   35.0100 N   0  0  0  0  0  0  0  0  0  0  0  0
   38.6720   27.2580   35.8210 C   0  0  0  0  0  0  0  0  0  0  0  0
   41.6910   22.6380   36.3090 C   0  0  0  0  0  0  0  0  0  0  0  0
   42.8570   23.3540   36.5560 C   0  0  0  0  0  0  0  0  0  0  0  0
   44.0350   22.7880   36.1400 C   0  0  0  0  0  0  0  0  0  0  0  0
   44.0370   21.5890   35.5200 N   0  0  0  0  0  0  0  0  0  0  0  0
   42.8900   20.9190   35.2950 C   0  0  0  0  0  0  0  0  0  0  0  0
   41.7290   21.4520   35.6920 N   0  0  0  0  0  0  0  0  0  0  0  0
   38.0646   22.6920   39.0359 H   0  0  0  0  0  0  0  0  0  0  0  0
   37.0529   24.7000   37.9009 H   0  0  0  0  0  0  0  0  0  0  0  0
   36.5305   24.9893   34.7997 H   0  0  0  0  0  0  0  0  0  0  0  0
   36.1102   27.4422   33.8358 H   0  0  0  0  0  0  0  0  0  0  0  0
   39.5425   27.6292   36.3817 H   0  0  0  0  0  0  0  0  0  0  0  0
   42.8356   24.3304   37.0622 H   0  0  0  0  0  0  0  0  0  0  0  0
   44.9850   23.3149   36.3129 H   0  0  0  0  0  0  0  0  0  0  0  0
   42.9080   19.9423   34.7893 H   0  0  0  0  0  0  0  0  0  0  0  0
  2  1  2  0
  3  2  1  0
  4  3  2  0
  4  5  1  0
  5  6  2  0
  6  1  1  0
  7 11  1  0
  7  3  1  0
  8  7  1  0
  9 10  1  0
  9  8  2  0
 10 11  2  0
 12 13  2  0
 12  5  1  0
 14 13  1  0
 15 14  2  0
 16 15  1  0
 16 17  2  0
 17 12  1  0
  1 18  1  0
  2 19  1  0
  8 20  1  0
  9 21  1  0
 11 22  1  0
 13 23  1  0
 14 24  1  0
 16 25  1  0
M  ISO  8  18  14  19  14  20  14  21  14  22  14  23  14  24  14  25  14
M  END
>  <minimizedAffinity>  (1) 
-3.99472833

>  <minimizedRMSD>  (1) 
3.51340389

$$$$
