
     RDKit          3D

 26 27  0  0  0  0  0  0  0  0999 V2000
   41.5620   21.5060   37.0340 C   0  0  0  0  0  0  0  0  0  0  0  0
   40.4090   22.1030   36.4790 C   0  0  0  0  0  0  0  0  0  0  0  0
   40.5770   23.3120   35.8240 C   0  0  0  0  0  0  0  0  0  0  0  0
   41.8140   23.8440   35.7520 N   0  0  0  0  0  0  0  0  0  0  0  0
   42.8970   23.2550   36.2900 C   0  0  0  0  0  0  0  0  0  0  0  0
   42.7600   22.0750   36.9350 N   0  0  0  0  0  0  0  0  0  0  0  0
   39.4570   23.9950   35.2250 N   0  0  0  0  0  0  0  0  0  0  0  0
   38.8630   23.5040   34.1280 C   0  0  0  0  0  0  0  0  0  0  0  0
   37.8570   24.3980   33.8460 C   0  0  0  0  0  0  0  0  0  0  0  0
   37.8620   25.3810   34.7530 N   0  0  0  0  0  0  0  0  0  0  0  0
   38.8700   25.1420   35.6330 C   0  0  0  0  0  0  0  0  0  0  0  0
   44.1730   24.0120   36.0980 C   0  0  0  0  0  0  0  0  0  0  0  0
   44.4240   24.8990   37.3120 C   0  0  0  0  0  0  0  0  0  0  0  0
   45.2790   22.9800   36.0030 C   0  0  0  0  0  0  0  0  0  0  0  0
   41.4669   20.5456   37.5618 H   0  0  0  0  0  0  0  0  0  0  0  0
   39.4202   21.6286   36.5631 H   0  0  0  0  0  0  0  0  0  0  0  0
   39.1228   22.5888   33.5759 H   0  0  0  0  0  0  0  0  0  0  0  0
   37.1551   24.3171   33.0029 H   0  0  0  0  0  0  0  0  0  0  0  0
   39.1508   25.7570   36.5007 H   0  0  0  0  0  0  0  0  0  0  0  0
   44.1297   24.6434   35.1983 H   0  0  0  0  0  0  0  0  0  0  0  0
   44.2595   24.3176   38.2312 H   0  0  0  0  0  0  0  0  0  0  0  0
   45.4610   25.2652   37.2904 H   0  0  0  0  0  0  0  0  0  0  0  0
   43.7326   25.7543   37.2904 H   0  0  0  0  0  0  0  0  0  0  0  0
   45.5941   22.6860   37.0151 H   0  0  0  0  0  0  0  0  0  0  0  0
   44.9101   22.0958   35.4625 H   0  0  0  0  0  0  0  0  0  0  0  0
   46.1355   23.4092   35.4625 H   0  0  0  0  0  0  0  0  0  0  0  0
  2  1  2  0
  3  2  1  0
  4  3  2  0
  4  5  1  0
  5  6  2  0
  6  1  1  0
  7 11  1  0
  7  3  1  0
  8  7  1  0
  9  8  2  0
  9 10  1  0
 10 11  2  0
 12  5  1  0
 12 13  1  0
 14 12  1  0
  1 15  1  0
  2 16  1  0
  8 17  1  0
  9 18  1  0
 11 19  1  0
 12 20  1  0
 13 21  1  0
 13 22  1  0
 13 23  1  0
 14 24  1  0
 14 25  1  0
 14 26  1  0
M  ISO  8  15  14  16  14  17  14  18  14  19  14  20   8  21   8  22   8
M  ISO  4  23   8  24   8  25   8  26   8
M  END
>  <minimizedAffinity>  (1) 
-3.4720993

>  <minimizedRMSD>  (1) 
2.7343452

$$$$
