
     RDKit          3D

 24 25  0  0  0  0  0  0  0  0999 V2000
   41.2720   21.4640   37.0550 C   0  0  0  0  0  0  0  0  0  0  0  0
   40.1740   22.1070   36.4410 C   0  0  0  0  0  0  0  0  0  0  0  0
   40.4180   23.3520   35.8740 C   0  0  0  0  0  0  0  0  0  0  0  0
   41.6580   23.8650   35.9420 N   0  0  0  0  0  0  0  0  0  0  0  0
   42.6890   23.2360   36.5320 C   0  0  0  0  0  0  0  0  0  0  0  0
   42.4910   22.0270   37.0910 N   0  0  0  0  0  0  0  0  0  0  0  0
   39.3660   24.0840   35.2270 N   0  0  0  0  0  0  0  0  0  0  0  0
   38.8470   23.6730   34.0610 C   0  0  0  0  0  0  0  0  0  0  0  0
   37.8880   24.5870   33.7410 C   0  0  0  0  0  0  0  0  0  0  0  0
   37.8300   25.5310   34.6990 N   0  0  0  0  0  0  0  0  0  0  0  0
   38.7610   25.2230   35.6430 C   0  0  0  0  0  0  0  0  0  0  0  0
   43.9810   23.8300   36.5720 N   0  0  0  0  0  0  0  0  0  0  0  0
   45.1060   23.1900   35.9770 C   0  0  0  0  0  0  0  0  0  0  0  0
   44.8800   22.0330   35.4520 N   0  0  0  0  0  0  0  0  0  0  0  0
   46.3600   23.8950   36.0250 N   0  0  0  0  0  0  0  0  0  0  0  0
   45.6130   21.4780   34.9960 H   0  0  0  0  0  0  0  0  0  0  0  0
   41.1247   20.4761   37.5158 H   0  0  0  0  0  0  0  0  0  0  0  0
   39.1760   21.6453   36.4132 H   0  0  0  0  0  0  0  0  0  0  0  0
   39.1354   22.7828   33.4827 H   0  0  0  0  0  0  0  0  0  0  0  0
   37.2586   24.5578   32.8393 H   0  0  0  0  0  0  0  0  0  0  0  0
   38.9791   25.7871   36.5618 H   0  0  0  0  0  0  0  0  0  0  0  0
   44.1053   24.7393   37.0396 H   0  0  0  0  0  0  0  0  0  0  0  0
   47.2033   23.4748   35.6088 H   0  0  0  0  0  0  0  0  0  0  0  0
   46.4140   24.8197   36.4755 H   0  0  0  0  0  0  0  0  0  0  0  0
  1  6  2  0
  2  1  1  0
  3  4  1  0
  3  2  2  0
  4  5  2  0
  5 12  1  0
  5  6  1  0
  7 11  1  0
  7  3  1  0
  8  7  1  0
  9  8  2  0
  9 10  1  0
 10 11  2  0
 13 15  1  0
 13 12  1  0
 14 13  2  0
 16 14  1  0
  1 17  1  0
  2 18  1  0
  8 19  1  0
  9 20  1  0
 11 21  1  0
 12 22  1  0
 15 23  1  0
 15 24  1  0
M  ISO  5  17  14  18  14  19  14  20  14  21  14
M  END
>  <minimizedAffinity>  (1) 
-3.31322122

>  <minimizedRMSD>  (1) 
3.11602235

$$$$
