
     RDKit          3D

 23 25  0  0  0  0  0  0  0  0999 V2000
   40.7510   22.0450   37.5360 C   0  0  0  0  0  0  0  0  0  0  0  0
   40.0220   23.2040   37.2560 C   0  0  0  0  0  0  0  0  0  0  0  0
   39.9990   23.6640   35.9480 C   0  0  0  0  0  0  0  0  0  0  0  0
   40.6810   22.9650   35.0230 N   0  0  0  0  0  0  0  0  0  0  0  0
   41.3830   21.8520   35.2890 C   0  0  0  0  0  0  0  0  0  0  0  0
   41.4130   21.3920   36.5620 N   0  0  0  0  0  0  0  0  0  0  0  0
   39.2720   24.8480   35.5820 N   0  0  0  0  0  0  0  0  0  0  0  0
   37.9350   24.8720   35.6040 C   0  0  0  0  0  0  0  0  0  0  0  0
   37.5830   26.1260   35.2070 C   0  0  0  0  0  0  0  0  0  0  0  0
   38.7030   26.8460   34.9520 N   0  0  0  0  0  0  0  0  0  0  0  0
   39.7820   26.0410   35.1870 C   0  0  0  0  0  0  0  0  0  0  0  0
   42.0980   21.1390   34.2620 N   0  0  0  0  0  0  0  0  0  0  0  0
   42.0400   21.2140   32.9090 C   0  0  0  0  0  0  0  0  0  0  0  0
   42.9480   20.2990   32.4660 N   0  0  0  0  0  0  0  0  0  0  0  0
   43.5080   19.7170   33.5450 C   0  0  0  0  0  0  0  0  0  0  0  0
   42.9820   20.2370   34.6900 N   0  0  0  0  0  0  0  0  0  0  0  0
   40.7845   21.6609   38.5662 H   0  0  0  0  0  0  0  0  0  0  0  0
   39.4810   23.7370   38.0518 H   0  0  0  0  0  0  0  0  0  0  0  0
   37.2602   24.0498   35.8844 H   0  0  0  0  0  0  0  0  0  0  0  0
   36.5520   26.4966   35.1087 H   0  0  0  0  0  0  0  0  0  0  0  0
   40.8441   26.3058   35.0783 H   0  0  0  0  0  0  0  0  0  0  0  0
   41.3996   21.8703   32.3015 H   0  0  0  0  0  0  0  0  0  0  0  0
   44.2796   18.9339   33.5070 H   0  0  0  0  0  0  0  0  0  0  0  0
  2  1  2  0
  3  2  1  0
  4  5  1  0
  4  3  2  0
  5  6  2  0
  6  1  1  0
  7  8  1  0
  7  3  1  0
  9  8  2  0
 10 11  2  0
 10  9  1  0
 11  7  1  0
 12 16  1  0
 12  5  1  0
 13 12  1  0
 14 13  2  0
 14 15  1  0
 15 16  2  0
  1 17  1  0
  2 18  1  0
  8 19  1  0
  9 20  1  0
 11 21  1  0
 13 22  1  0
 15 23  1  0
M  ISO  7  17  14  18  14  19  14  20  14  21  14  22  14  23  14
M  END
>  <minimizedAffinity>  (1) 
-3.21138716

>  <minimizedRMSD>  (1) 
1.12234974

$$$$
