
     RDKit          3D

 24 26  0  0  0  0  0  0  0  0999 V2000
   40.7530   22.0580   37.5340 C   0  0  0  0  0  0  0  0  0  0  0  0
   40.0240   23.2380   37.2740 C   0  0  0  0  0  0  0  0  0  0  0  0
   39.9910   23.6810   35.9540 C   0  0  0  0  0  0  0  0  0  0  0  0
   40.6480   22.9750   34.9850 N   0  0  0  0  0  0  0  0  0  0  0  0
   41.3320   21.8450   35.2950 C   0  0  0  0  0  0  0  0  0  0  0  0
   41.3830   21.3920   36.5620 N   0  0  0  0  0  0  0  0  0  0  0  0
   39.2710   24.8780   35.5850 N   0  0  0  0  0  0  0  0  0  0  0  0
   37.9160   24.8760   35.6160 C   0  0  0  0  0  0  0  0  0  0  0  0
   37.5610   26.1440   35.2160 C   0  0  0  0  0  0  0  0  0  0  0  0
   38.6780   26.8590   34.9620 N   0  0  0  0  0  0  0  0  0  0  0  0
   39.7600   26.0570   35.1950 C   0  0  0  0  0  0  0  0  0  0  0  0
   41.9420   21.2650   34.1370 N   0  0  0  0  0  0  0  0  0  0  0  0
   41.6650   21.2330   32.8180 C   0  0  0  0  0  0  0  0  0  0  0  0
   42.6660   20.4850   32.1910 C   0  0  0  0  0  0  0  0  0  0  0  0
   43.5220   20.0880   33.1720 N   0  0  0  0  0  0  0  0  0  0  0  0
   43.0720   20.5690   34.3610 C   0  0  0  0  0  0  0  0  0  0  0  0
   40.8039   21.6763   38.5644 H   0  0  0  0  0  0  0  0  0  0  0  0
   39.5057   23.7828   38.0769 H   0  0  0  0  0  0  0  0  0  0  0  0
   37.2498   24.0472   35.8976 H   0  0  0  0  0  0  0  0  0  0  0  0
   36.5305   26.5162   35.1186 H   0  0  0  0  0  0  0  0  0  0  0  0
   40.8201   26.3285   35.0835 H   0  0  0  0  0  0  0  0  0  0  0  0
   40.8057   21.7098   32.3238 H   0  0  0  0  0  0  0  0  0  0  0  0
   42.7460   20.2614   31.1169 H   0  0  0  0  0  0  0  0  0  0  0  0
   43.5500   20.4155   35.3397 H   0  0  0  0  0  0  0  0  0  0  0  0
  2  1  2  0
  3  2  1  0
  4  5  1  0
  4  3  2  0
  5  6  2  0
  6  1  1  0
  7  8  1  0
  7  3  1  0
  9  8  2  0
 10 11  2  0
 10  9  1  0
 11  7  1  0
 12 16  1  0
 12  5  1  0
 13 12  1  0
 14 13  2  0
 14 15  1  0
 15 16  2  0
  1 17  1  0
  2 18  1  0
  8 19  1  0
  9 20  1  0
 11 21  1  0
 13 22  1  0
 14 23  1  0
 16 24  1  0
M  ISO  8  17  14  18  14  19  14  20  14  21  14  22  14  23  14  24  14
M  END
>  <minimizedAffinity>  (1) 
-3.16309404

>  <minimizedRMSD>  (1) 
1.13023627

$$$$
