
     RDKit          3D

 24 26  0  0  0  0  0  0  0  0999 V2000
   40.7810   21.9930   37.5600 C   0  0  0  0  0  0  0  0  0  0  0  0
   40.0060   23.1530   37.3170 C   0  0  0  0  0  0  0  0  0  0  0  0
   40.0070   23.6140   35.9900 C   0  0  0  0  0  0  0  0  0  0  0  0
   40.7200   22.9550   35.0440 N   0  0  0  0  0  0  0  0  0  0  0  0
   41.4430   21.8490   35.3370 C   0  0  0  0  0  0  0  0  0  0  0  0
   41.4680   21.3740   36.5980 N   0  0  0  0  0  0  0  0  0  0  0  0
   39.2500   24.7930   35.6350 N   0  0  0  0  0  0  0  0  0  0  0  0
   37.9140   24.7660   35.6090 C   0  0  0  0  0  0  0  0  0  0  0  0
   37.5450   26.0330   35.2400 C   0  0  0  0  0  0  0  0  0  0  0  0
   38.6440   26.7870   35.0550 N   0  0  0  0  0  0  0  0  0  0  0  0
   39.7440   26.0120   35.3030 C   0  0  0  0  0  0  0  0  0  0  0  0
   42.1620   21.2370   34.2260 C   0  0  0  0  0  0  0  0  0  0  0  0
   41.7170   20.6910   33.0410 C   0  0  0  0  0  0  0  0  0  0  0  0
   42.7920   20.2300   32.2990 C   0  0  0  0  0  0  0  0  0  0  0  0
   43.8700   20.5330   33.1050 C   0  0  0  0  0  0  0  0  0  0  0  0
   43.4900   21.1160   34.2170 O   0  0  0  0  0  0  0  0  0  0  0  0
   40.8181   21.5864   38.5814 H   0  0  0  0  0  0  0  0  0  0  0  0
   39.4412   23.6591   38.1138 H   0  0  0  0  0  0  0  0  0  0  0  0
   37.2555   23.9141   35.8343 H   0  0  0  0  0  0  0  0  0  0  0  0
   36.5089   26.3805   35.1143 H   0  0  0  0  0  0  0  0  0  0  0  0
   40.8006   26.3125   35.2456 H   0  0  0  0  0  0  0  0  0  0  0  0
   40.6635   20.6304   32.7304 H   0  0  0  0  0  0  0  0  0  0  0  0
   42.7874   19.7434   31.3125 H   0  0  0  0  0  0  0  0  0  0  0  0
   44.9166   20.3133   32.8475 H   0  0  0  0  0  0  0  0  0  0  0  0
  2  1  2  0
  3  2  1  0
  4  5  1  0
  4  3  2  0
  5  6  2  0
  6  1  1  0
  7  3  1  0
  8  7  1  0
  9  8  2  0
 10  9  1  0
 10 11  2  0
 11  7  1  0
 12  5  1  0
 13 12  2  0
 14 13  1  0
 14 15  2  0
 15 16  1  0
 16 12  1  0
  1 17  1  0
  2 18  1  0
  8 19  1  0
  9 20  1  0
 11 21  1  0
 13 22  1  0
 14 23  1  0
 15 24  1  0
M  ISO  8  17  14  18  14  19  14  20  14  21  14  22  14  23  14  24  14
M  END
>  <minimizedAffinity>  (1) 
-3.00460005

>  <minimizedRMSD>  (1) 
1.083601

$$$$
