
     RDKit          3D

 23 25  0  0  0  0  0  0  0  0999 V2000
   41.6390   21.4480   37.6520 C   0  0  0  0  0  0  0  0  0  0  0  0
   40.7660   22.5170   37.3850 C   0  0  0  0  0  0  0  0  0  0  0  0
   40.5680   22.9030   36.0620 C   0  0  0  0  0  0  0  0  0  0  0  0
   41.2360   22.2150   35.1170 N   0  0  0  0  0  0  0  0  0  0  0  0
   42.0710   21.1940   35.3640 C   0  0  0  0  0  0  0  0  0  0  0  0
   42.2670   20.8140   36.6620 N   0  0  0  0  0  0  0  0  0  0  0  0
   39.7010   23.9840   35.7150 N   0  0  0  0  0  0  0  0  0  0  0  0
   38.3760   23.8770   35.8500 C   0  0  0  0  0  0  0  0  0  0  0  0
   37.8820   25.0930   35.4280 C   0  0  0  0  0  0  0  0  0  0  0  0
   38.8930   25.8860   35.0580 N   0  0  0  0  0  0  0  0  0  0  0  0
   40.0680   25.1960   35.2320 C   0  0  0  0  0  0  0  0  0  0  0  0
   42.7490   20.5170   34.2330 C   0  0  0  0  0  0  0  0  0  0  0  0
   43.2740   21.3890   33.2160 C   0  0  0  0  0  0  0  0  0  0  0  0
   44.0180   20.2150   32.0170 S   0  0  0  0  0  0  0  0  0  0  0  0
   43.4900   18.7400   33.1000 C   0  0  0  0  0  0  0  0  0  0  0  0
   42.9710   19.2420   33.9660 N   0  0  0  0  0  0  0  0  0  0  0  0
   41.8060   21.1305   38.6919 H   0  0  0  0  0  0  0  0  0  0  0  0
   40.2497   23.0380   38.2048 H   0  0  0  0  0  0  0  0  0  0  0  0
   37.8057   23.0107   36.2166 H   0  0  0  0  0  0  0  0  0  0  0  0
   36.8176   25.3690   35.3999 H   0  0  0  0  0  0  0  0  0  0  0  0
   41.0881   25.5510   35.0239 H   0  0  0  0  0  0  0  0  0  0  0  0
   43.2383   22.4874   33.1687 H   0  0  0  0  0  0  0  0  0  0  0  0
   43.6512   17.6661   32.9244 H   0  0  0  0  0  0  0  0  0  0  0  0
  2  1  2  0
  3  2  1  0
  4  5  1  0
  4  3  2  0
  5  6  2  0
  6  1  1  0
  7  8  1  0
  7  3  1  0
  9  8  2  0
 10 11  2  0
 10  9  1  0
 11  7  1  0
 12  5  1  0
 13 12  2  0
 14 15  1  0
 14 13  1  0
 15 16  2  0
 16 12  1  0
  1 17  1  0
  2 18  1  0
  8 19  1  0
  9 20  1  0
 11 21  1  0
 13 22  1  0
 15 23  1  0
M  ISO  7  17  14  18  14  19  14  20  14  21  14  22  14  23  14
M  END
>  <minimizedAffinity>  (1) 
-2.90455055

>  <minimizedRMSD>  (1) 
0.482016534

$$$$
