
     RDKit          3D

 20 21  0  0  0  0  0  0  0  0999 V2000
   41.6320   21.4370   37.6410 C   0  0  0  0  0  0  0  0  0  0  0  0
   40.7500   22.5140   37.3950 C   0  0  0  0  0  0  0  0  0  0  0  0
   40.5860   22.9010   36.0750 C   0  0  0  0  0  0  0  0  0  0  0  0
   41.2690   22.2330   35.1120 N   0  0  0  0  0  0  0  0  0  0  0  0
   42.1010   21.2120   35.3720 C   0  0  0  0  0  0  0  0  0  0  0  0
   42.2790   20.8170   36.6470 N   0  0  0  0  0  0  0  0  0  0  0  0
   39.7170   23.9780   35.7230 N   0  0  0  0  0  0  0  0  0  0  0  0
   38.3810   23.8700   35.8260 C   0  0  0  0  0  0  0  0  0  0  0  0
   37.8780   25.0660   35.4130 C   0  0  0  0  0  0  0  0  0  0  0  0
   38.9000   25.8860   35.0650 N   0  0  0  0  0  0  0  0  0  0  0  0
   40.0540   25.2060   35.2580 C   0  0  0  0  0  0  0  0  0  0  0  0
   42.7790   20.5740   34.2480 C   0  0  0  0  0  0  0  0  0  0  0  0
   42.0660   20.1770   33.2930 O   0  0  0  0  0  0  0  0  0  0  0  0
   44.1570   20.4030   34.2160 O   0  0  0  0  0  0  0  0  0  0  0  0
   41.7906   21.0999   38.6760 H   0  0  0  0  0  0  0  0  0  0  0  0
   40.2186   23.0212   38.2137 H   0  0  0  0  0  0  0  0  0  0  0  0
   37.8113   22.9952   36.1727 H   0  0  0  0  0  0  0  0  0  0  0  0
   36.8101   25.3260   35.3687 H   0  0  0  0  0  0  0  0  0  0  0  0
   41.0722   25.5789   35.0727 H   0  0  0  0  0  0  0  0  0  0  0  0
   44.5836   19.9657   33.4370 H   0  0  0  0  0  0  0  0  0  0  0  0
  2  1  2  0
  3  2  1  0
  4  5  1  0
  4  3  2  0
  5  6  2  0
  6  1  1  0
  7  8  1  0
  7  3  1  0
  9  8  2  0
 10 11  2  0
 10  9  1  0
 11  7  1  0
 12  5  1  0
 13 12  2  0
 14 12  1  0
  1 15  1  0
  2 16  1  0
  8 17  1  0
  9 18  1  0
 11 19  1  0
 14 20  1  0
M  ISO  6  15  14  16  14  17  14  18  14  19  14  20   3
M  END
>  <minimizedAffinity>  (1) 
-2.83140731

>  <minimizedRMSD>  (1) 
0.421838611

$$$$
