
     RDKit          3D

 18 19  0  0  0  0  0  0  0  0999 V2000
   41.8840   21.2830   37.4610 C   0  0  0  0  0  0  0  0  0  0  0  0
   40.9590   22.3370   37.3420 C   0  0  0  0  0  0  0  0  0  0  0  0
   40.6400   22.7760   36.0650 C   0  0  0  0  0  0  0  0  0  0  0  0
   41.2310   22.1710   35.0180 N   0  0  0  0  0  0  0  0  0  0  0  0
   42.1180   21.1580   35.1490 C   0  0  0  0  0  0  0  0  0  0  0  0
   42.4390   20.7200   36.3880 N   0  0  0  0  0  0  0  0  0  0  0  0
   39.7050   23.8480   35.8540 N   0  0  0  0  0  0  0  0  0  0  0  0
   38.3860   23.6610   36.1120 C   0  0  0  0  0  0  0  0  0  0  0  0
   37.7950   24.8610   35.8070 C   0  0  0  0  0  0  0  0  0  0  0  0
   38.7410   25.7230   35.3840 N   0  0  0  0  0  0  0  0  0  0  0  0
   39.9460   25.0860   35.4130 C   0  0  0  0  0  0  0  0  0  0  0  0
   42.9080   20.3450   33.7750 S   0  0  0  0  0  0  0  0  0  0  0  0
   42.1549   20.9157   38.4618 H   0  0  0  0  0  0  0  0  0  0  0  0
   40.5042   22.7973   38.2315 H   0  0  0  0  0  0  0  0  0  0  0  0
   37.8979   22.7481   36.4839 H   0  0  0  0  0  0  0  0  0  0  0  0
   36.7213   25.0839   35.8937 H   0  0  0  0  0  0  0  0  0  0  0  0
   40.9219   25.5072   35.1298 H   0  0  0  0  0  0  0  0  0  0  0  0
   43.8049   19.4220   34.2448 H   0  0  0  0  0  0  0  0  0  0  0  0
  2  1  2  0
  3  2  1  0
  4  5  1  0
  4  3  2  0
  5  6  2  0
  6  1  1  0
  7  3  1  0
  7  8  1  0
  9  8  2  0
 10 11  2  0
 10  9  1  0
 11  7  1  0
 12  5  1  0
  1 13  1  0
  2 14  1  0
  8 15  1  0
  9 16  1  0
 11 17  1  0
 12 18  1  0
M  ISO  6  13  14  14  14  15  14  16  14  17  14  18  11
M  END
>  <minimizedAffinity>  (1) 
-2.80786467

>  <minimizedRMSD>  (1) 
0.0259050578

$$$$
