
     RDKit          3D

 50 55  0  0  0  0  0  0  0  0999 V2000
   43.1590   21.3350   35.3150 C   0  0  0  0  0  0  0  0  0  0  0  0
   44.2300   22.1380   35.7360 C   0  0  0  0  0  0  0  0  0  0  0  0
   43.9200   23.2690   36.4340 C   0  0  0  0  0  0  0  0  0  0  0  0
   42.6400   23.4600   36.6250 N   0  0  0  0  0  0  0  0  0  0  0  0
   41.5800   22.7740   36.2730 C   0  0  0  0  0  0  0  0  0  0  0  0
   41.9060   21.6500   35.5770 N   0  0  0  0  0  0  0  0  0  0  0  0
   44.9090   24.1690   36.8920 N   0  0  0  0  0  0  0  0  0  0  0  0
   44.5890   25.3720   37.3590 C   0  0  0  0  0  0  0  0  0  0  0  0
   45.7580   26.0000   37.7080 C   0  0  0  0  0  0  0  0  0  0  0  0
   46.7730   25.1620   37.4470 N   0  0  0  0  0  0  0  0  0  0  0  0
   46.2520   24.0350   36.9450 C   0  0  0  0  0  0  0  0  0  0  0  0
   47.0610   22.9600   36.5700 N   0  0  0  0  0  0  0  0  0  0  0  0
   46.8010   22.0500   35.5780 C   0  0  0  0  0  0  0  0  0  0  0  0
   47.8690   21.2030   35.5290 N   0  0  0  0  0  0  0  0  0  0  0  0
   48.7560   21.5880   36.4680 C   0  0  0  0  0  0  0  0  0  0  0  0
   49.9960   21.1330   36.8880 C   0  0  0  0  0  0  0  0  0  0  0  0
   50.5100   20.1160   36.3160 O   0  0  0  0  0  0  0  0  0  0  0  0
   50.6750   21.7450   37.8920 N   0  0  0  0  0  0  0  0  0  0  0  0
   50.1560   22.8340   38.5260 C   0  0  0  0  0  0  0  0  0  0  0  0
   50.8010   23.5270   39.5800 N   0  0  0  0  0  0  0  0  0  0  0  0
   48.9370   23.3140   38.1430 N   0  0  0  0  0  0  0  0  0  0  0  0
   48.2770   22.6980   37.1460 C   0  0  0  0  0  0  0  0  0  0  0  0
   40.3130   23.2750   36.6660 C   0  0  0  0  0  0  0  0  0  0  0  0
   39.7910   22.8530   37.8830 C   0  0  0  0  0  0  0  0  0  0  0  0
   38.5690   23.2790   38.3820 C   0  0  0  0  0  0  0  0  0  0  0  0
   37.8170   24.1580   37.6660 C   0  0  0  0  0  0  0  0  0  0  0  0
   38.3270   24.5900   36.4450 C   0  0  0  0  0  0  0  0  0  0  0  0
   37.5430   25.4480   35.7430 C   0  0  0  0  0  0  0  0  0  0  0  0
   37.9540   25.9030   34.5220 C   0  0  0  0  0  0  0  0  0  0  0  0
   39.1660   25.4530   34.0680 C   0  0  0  0  0  0  0  0  0  0  0  0
   39.9610   24.5750   34.7990 C   0  0  0  0  0  0  0  0  0  0  0  0
   39.5310   24.1420   35.9980 C   0  0  0  0  0  0  0  0  0  0  0  0
   41.2400   24.2550   34.1030 C   0  0  0  0  0  0  0  0  0  0  0  0
   41.2480   24.9800   32.8330 F   0  0  0  0  0  0  0  0  0  0  0  0
   42.2540   25.1360   34.4490 F   0  0  0  0  0  0  0  0  0  0  0  0
   41.3720   23.2000   33.3550 F   0  0  0  0  0  0  0  0  0  0  0  0
   43.3712   20.4156   34.7497 H   0  0  0  0  0  0  0  0  0  0  0  0
   45.2728   21.8679   35.5134 H   0  0  0  0  0  0  0  0  0  0  0  0
   43.5744   25.7872   37.4490 H   0  0  0  0  0  0  0  0  0  0  0  0
   45.8474   27.0127   38.1280 H   0  0  0  0  0  0  0  0  0  0  0  0
   45.9034   22.0105   34.9434 H   0  0  0  0  0  0  0  0  0  0  0  0
   51.5951   21.3812   38.1784 H   0  0  0  0  0  0  0  0  0  0  0  0
   50.3472   24.3441   40.0127 H   0  0  0  0  0  0  0  0  0  0  0  0
   51.7238   23.2137   39.9135 H   0  0  0  0  0  0  0  0  0  0  0  0
   40.3788   22.1427   38.4829 H   0  0  0  0  0  0  0  0  0  0  0  0
   38.2093   22.9076   39.3529 H   0  0  0  0  0  0  0  0  0  0  0  0
   36.8444   24.5133   38.0373 H   0  0  0  0  0  0  0  0  0  0  0  0
   36.5781   25.7764   36.1568 H   0  0  0  0  0  0  0  0  0  0  0  0
   37.3402   26.5985   33.9307 H   0  0  0  0  0  0  0  0  0  0  0  0
   39.5247   25.7992   33.0874 H   0  0  0  0  0  0  0  0  0  0  0  0
  1  6  2  0
  1  2  1  0
  2  3  2  0
  3  4  1  0
  3  7  1  0
  5  4  2  0
  5 23  1  0
  6  5  1  0
  7 11  1  0
  7  8  1  0
  8  9  2  0
 10  9  1  0
 11 10  2  0
 12 11  1  0
 12 22  1  0
 13 12  1  0
 14 13  2  0
 14 15  1  0
 15 16  1  0
 15 22  2  0
 16 18  1  0
 17 16  2  0
 18 19  1  0
 19 20  1  0
 21 19  2  0
 22 21  1  0
 23 24  2  0
 24 25  1  0
 26 25  2  0
 27 26  1  0
 28 27  2  0
 29 28  1  0
 30 29  2  0
 30 31  1  0
 31 32  2  0
 32 27  1  0
 32 23  1  0
 33 35  1  0
 33 31  1  0
 34 33  1  0
 36 33  1  0
  1 37  1  0
  2 38  1  0
  8 39  1  0
  9 40  1  0
 13 41  1  0
 18 42  1  0
 20 43  1  0
 20 44  1  0
 24 45  1  0
 25 46  1  0
 26 47  1  0
 28 48  1  0
 29 49  1  0
 30 50  1  0
M  ISO  8  37  14  38  14  39  14  40  14  41  14  42   9  45  14  46  14
M  ISO  4  47  14  48  14  49  14  50  14
M  END
>  <minimizedAffinity>  (1) 
-6.24309349

>  <minimizedRMSD>  (1) 
0.644131899

$$$$
