
     RDKit          3D

 33 35  0  0  1  0  0  0  0  0999 V2000
   39.1020   26.8740   35.1370 C   0  0  2  0  0  0  0  0  0  0  0  0
   37.7220   23.9880   36.9030 C   0  0  0  0  0  0  0  0  0  0  0  0
   38.6750   22.9680   36.6870 C   0  0  0  0  0  0  0  0  0  0  0  0
   39.8140   23.2900   35.9190 C   0  0  0  0  0  0  0  0  0  0  0  0
   39.9060   24.5720   35.4390 N   0  0  0  0  0  0  0  0  0  0  0  0
   38.9690   25.5140   35.6680 C   0  0  0  0  0  0  0  0  0  0  0  0
   37.8870   25.2240   36.3940 N   0  0  0  0  0  0  0  0  0  0  0  0
   37.8180   27.6290   35.3950 C   0  0  0  0  0  0  0  0  0  0  0  0
   39.3360   26.9120   33.6410 C   0  0  0  0  0  0  0  0  0  0  0  0
   38.0260   26.9350   32.9420 C   0  0  0  0  0  0  0  0  0  0  0  0
   37.1630   27.9470   32.5800 C   0  0  0  0  0  0  0  0  0  0  0  0
   36.0830   27.4550   31.9520 N   0  0  0  0  0  0  0  0  0  0  0  0
   36.2660   26.1030   31.9170 C   0  0  0  0  0  0  0  0  0  0  0  0
   35.4050   25.1760   31.3630 C   0  0  0  0  0  0  0  0  0  0  0  0
   35.7290   23.8320   31.4040 C   0  0  0  0  0  0  0  0  0  0  0  0
   36.9250   23.4680   32.0090 C   0  0  0  0  0  0  0  0  0  0  0  0
   37.7520   24.4290   32.5480 C   0  0  0  0  0  0  0  0  0  0  0  0
   37.4540   25.7640   32.5200 C   0  0  0  0  0  0  0  0  0  0  0  0
   39.9720   27.3205   35.6407 H   0  0  0  0  0  0  0  0  0  0  0  0
   36.8249   23.7679   37.5003 H   0  0  0  0  0  0  0  0  0  0  0  0
   38.5343   21.9592   37.1025 H   0  0  0  0  0  0  0  0  0  0  0  0
   40.5959   22.5440   35.7136 H   0  0  0  0  0  0  0  0  0  0  0  0
   37.6591   27.7224   36.4795 H   0  0  0  0  0  0  0  0  0  0  0  0
   37.8855   28.6312   34.9466 H   0  0  0  0  0  0  0  0  0  0  0  0
   36.9750   27.0828   34.9466 H   0  0  0  0  0  0  0  0  0  0  0  0
   39.9076   27.8151   33.3809 H   0  0  0  0  0  0  0  0  0  0  0  0
   39.9034   26.0214   33.3331 H   0  0  0  0  0  0  0  0  0  0  0  0
   37.3360   29.0149   32.7790 H   0  0  0  0  0  0  0  0  0  0  0  0
   35.2846   27.9861   31.5759 H   0  0  0  0  0  0  0  0  0  0  0  0
   34.4669   25.5047   30.8919 H   0  0  0  0  0  0  0  0  0  0  0  0
   35.0597   23.0743   30.9705 H   0  0  0  0  0  0  0  0  0  0  0  0
   37.2132   22.4076   32.0580 H   0  0  0  0  0  0  0  0  0  0  0  0
   38.6922   24.1093   33.0211 H   0  0  0  0  0  0  0  0  0  0  0  0
  1  8  1  0
  1  6  1  0
  3  2  2  0
  4  3  1  0
  5  6  1  0
  5  4  2  0
  6  7  2  0
  7  2  1  0
  9  1  1  0
 10  9  1  0
 11 10  2  0
 12 11  1  0
 13 12  1  0
 13 18  2  0
 14 15  2  0
 14 13  1  0
 15 16  1  0
 16 17  2  0
 18 17  1  0
 18 10  1  0
  1 19  1  1
  2 20  1  0
  3 21  1  0
  4 22  1  0
  8 23  1  0
  8 24  1  0
  8 25  1  0
  9 26  1  0
  9 27  1  0
 11 28  1  0
 12 29  1  0
 14 30  1  0
 15 31  1  0
 16 32  1  0
 17 33  1  0
M  ISO  8  19   8  20  14  21  14  22  14  23   8  24   8  25   8  26   8
M  ISO  7  27   8  28  14  29   9  30  14  31  14  32  14  33  14
M  END
>  <minimizedAffinity>  (1) 
-4.98219728

>  <minimizedRMSD>  (1) 
3.41921091

$$$$
