
     RDKit          3D

 47 51  0  0  0  0  0  0  0  0999 V2000
   43.1080   21.2870   35.3900 C   0  0  0  0  0  0  0  0  0  0  0  0
   44.1880   22.0700   35.8160 C   0  0  0  0  0  0  0  0  0  0  0  0
   43.8910   23.2170   36.4960 C   0  0  0  0  0  0  0  0  0  0  0  0
   42.6130   23.4360   36.6650 N   0  0  0  0  0  0  0  0  0  0  0  0
   41.5450   22.7670   36.3060 C   0  0  0  0  0  0  0  0  0  0  0  0
   41.8570   21.6280   35.6280 N   0  0  0  0  0  0  0  0  0  0  0  0
   44.8940   24.0990   36.9560 N   0  0  0  0  0  0  0  0  0  0  0  0
   44.5860   25.1610   37.6980 C   0  0  0  0  0  0  0  0  0  0  0  0
   45.7620   25.8160   37.9750 C   0  0  0  0  0  0  0  0  0  0  0  0
   46.7660   25.1370   37.3940 N   0  0  0  0  0  0  0  0  0  0  0  0
   46.2310   24.0800   36.7680 C   0  0  0  0  0  0  0  0  0  0  0  0
   47.0150   23.1650   36.0580 N   0  0  0  0  0  0  0  0  0  0  0  0
   46.5600   22.7580   34.8310 C   0  0  0  0  0  0  0  0  0  0  0  0
   47.3710   21.8780   34.1290 C   0  0  0  0  0  0  0  0  0  0  0  0
   48.5750   21.4640   34.6920 C   0  0  0  0  0  0  0  0  0  0  0  0
   49.4110   20.5480   33.9560 N   0  0  0  0  0  0  0  0  0  0  0  0
   48.9660   21.9020   35.9060 N   0  0  0  0  0  0  0  0  0  0  0  0
   48.1960   22.7670   36.6230 C   0  0  0  0  0  0  0  0  0  0  0  0
   48.5030   23.2130   37.7580 O   0  0  0  0  0  0  0  0  0  0  0  0
   40.2840   23.2950   36.6760 C   0  0  0  0  0  0  0  0  0  0  0  0
   39.7390   22.8960   37.8890 C   0  0  0  0  0  0  0  0  0  0  0  0
   38.5130   23.3520   38.3660 C   0  0  0  0  0  0  0  0  0  0  0  0
   37.7870   24.2390   37.6290 C   0  0  0  0  0  0  0  0  0  0  0  0
   38.3250   24.6460   36.4100 C   0  0  0  0  0  0  0  0  0  0  0  0
   37.5700   25.5100   35.6880 C   0  0  0  0  0  0  0  0  0  0  0  0
   38.0040   25.9420   34.4680 C   0  0  0  0  0  0  0  0  0  0  0  0
   39.2130   25.4630   34.0360 C   0  0  0  0  0  0  0  0  0  0  0  0
   39.9810   24.5780   34.7880 C   0  0  0  0  0  0  0  0  0  0  0  0
   39.5250   24.1680   35.9880 C   0  0  0  0  0  0  0  0  0  0  0  0
   41.2630   24.2300   34.1150 C   0  0  0  0  0  0  0  0  0  0  0  0
   41.3030   24.9360   32.8360 F   0  0  0  0  0  0  0  0  0  0  0  0
   42.2910   25.0970   34.4650 F   0  0  0  0  0  0  0  0  0  0  0  0
   41.3880   23.1610   33.3840 F   0  0  0  0  0  0  0  0  0  0  0  0
   43.3101   20.3568   34.8387 H   0  0  0  0  0  0  0  0  0  0  0  0
   45.2280   21.7750   35.6124 H   0  0  0  0  0  0  0  0  0  0  0  0
   43.5794   25.4582   38.0273 H   0  0  0  0  0  0  0  0  0  0  0  0
   45.8639   26.7362   38.5690 H   0  0  0  0  0  0  0  0  0  0  0  0
   45.6011   23.1109   34.4237 H   0  0  0  0  0  0  0  0  0  0  0  0
   47.0658   21.5112   33.1379 H   0  0  0  0  0  0  0  0  0  0  0  0
   50.3052   20.2310   34.3571 H   0  0  0  0  0  0  0  0  0  0  0  0
   49.1139   20.2107   33.0292 H   0  0  0  0  0  0  0  0  0  0  0  0
   40.3054   22.1824   38.5054 H   0  0  0  0  0  0  0  0  0  0  0  0
   38.1316   22.9973   39.3349 H   0  0  0  0  0  0  0  0  0  0  0  0
   36.8165   24.6179   37.9819 H   0  0  0  0  0  0  0  0  0  0  0  0
   36.6071   25.8632   36.0855 H   0  0  0  0  0  0  0  0  0  0  0  0
   37.4112   26.6416   33.8604 H   0  0  0  0  0  0  0  0  0  0  0  0
   39.5917   25.7906   33.0566 H   0  0  0  0  0  0  0  0  0  0  0  0
  1  6  2  0
  1  2  1  0
  2  3  2  0
  3  4  1  0
  3  7  1  0
  5  4  2  0
  5 20  1  0
  6  5  1  0
  7  8  1  0
  8  9  2  0
 10  9  1  0
 11  7  1  0
 11 10  2  0
 12 18  1  0
 12 11  1  0
 13 12  1  0
 14 15  1  0
 14 13  2  0
 15 17  2  0
 16 15  1  0
 17 18  1  0
 18 19  2  0
 20 21  2  0
 21 22  1  0
 23 22  2  0
 24 23  1  0
 25 24  2  0
 26 25  1  0
 27 26  2  0
 27 28  1  0
 28 29  2  0
 29 24  1  0
 29 20  1  0
 30 32  1  0
 30 28  1  0
 31 30  1  0
 33 30  1  0
  1 34  1  0
  2 35  1  0
  8 36  1  0
  9 37  1  0
 13 38  1  0
 14 39  1  0
 16 40  1  0
 16 41  1  0
 21 42  1  0
 22 43  1  0
 23 44  1  0
 25 45  1  0
 26 46  1  0
 27 47  1  0
M  ISO  8  34  14  35  14  36  14  37  14  38  14  39  14  42  14  43  14
M  ISO  4  44  14  45  14  46  14  47  14
M  END
>  <minimizedAffinity>  (1) 
-5.98930883

>  <minimizedRMSD>  (1) 
0.196929678

$$$$
