
     RDKit          3D

 49 53  0  0  0  0  0  0  0  0999 V2000
   43.2140   21.4980   35.0720 C   0  0  0  0  0  0  0  0  0  0  0  0
   44.2870   22.2490   35.5740 C   0  0  0  0  0  0  0  0  0  0  0  0
   43.9790   23.3150   36.3720 C   0  0  0  0  0  0  0  0  0  0  0  0
   42.7000   23.4980   36.5700 N   0  0  0  0  0  0  0  0  0  0  0  0
   41.6360   22.8540   36.1490 C   0  0  0  0  0  0  0  0  0  0  0  0
   41.9600   21.7970   35.3550 N   0  0  0  0  0  0  0  0  0  0  0  0
   40.3700   23.3210   36.5790 C   0  0  0  0  0  0  0  0  0  0  0  0
   39.8730   22.8520   37.7890 C   0  0  0  0  0  0  0  0  0  0  0  0
   38.6560   23.2470   38.3230 C   0  0  0  0  0  0  0  0  0  0  0  0
   37.8780   24.1460   37.6510 C   0  0  0  0  0  0  0  0  0  0  0  0
   38.3650   24.6240   36.4350 C   0  0  0  0  0  0  0  0  0  0  0  0
   37.5650   25.4980   35.7800 C   0  0  0  0  0  0  0  0  0  0  0  0
   37.9480   25.9990   34.5720 C   0  0  0  0  0  0  0  0  0  0  0  0
   39.1550   25.5780   34.0780 C   0  0  0  0  0  0  0  0  0  0  0  0
   39.9710   24.6830   34.7630 C   0  0  0  0  0  0  0  0  0  0  0  0
   39.5660   24.2020   35.9570 C   0  0  0  0  0  0  0  0  0  0  0  0
   41.2420   24.4050   34.0370 C   0  0  0  0  0  0  0  0  0  0  0  0
   41.2380   25.2020   32.8130 F   0  0  0  0  0  0  0  0  0  0  0  0
   42.2630   25.2630   34.4250 F   0  0  0  0  0  0  0  0  0  0  0  0
   41.3660   23.3940   33.2290 F   0  0  0  0  0  0  0  0  0  0  0  0
   44.9720   24.1600   36.9170 N   0  0  0  0  0  0  0  0  0  0  0  0
   44.6500   25.2020   37.6740 C   0  0  0  0  0  0  0  0  0  0  0  0
   45.8190   25.8240   38.0330 C   0  0  0  0  0  0  0  0  0  0  0  0
   46.8360   25.1440   37.4850 N   0  0  0  0  0  0  0  0  0  0  0  0
   46.3170   24.1190   36.7980 C   0  0  0  0  0  0  0  0  0  0  0  0
   47.1160   23.2040   36.0970 N   0  0  0  0  0  0  0  0  0  0  0  0
   48.2210   23.6790   35.2440 C   0  0  0  0  0  0  0  0  0  0  0  0
   49.4640   23.0480   35.8860 C   0  0  0  0  0  0  0  0  0  0  0  0
   49.2830   21.6700   35.7780 O   0  0  0  0  0  0  0  0  0  0  0  0
   48.3020   21.2340   36.6710 C   0  0  0  0  0  0  0  0  0  0  0  0
   46.9340   21.7420   36.1910 C   0  0  0  0  0  0  0  0  0  0  0  0
   43.4237   20.6346   34.4235 H   0  0  0  0  0  0  0  0  0  0  0  0
   45.3297   21.9916   35.3361 H   0  0  0  0  0  0  0  0  0  0  0  0
   40.4782   22.1278   38.3540 H   0  0  0  0  0  0  0  0  0  0  0  0
   38.3177   22.8371   39.2861 H   0  0  0  0  0  0  0  0  0  0  0  0
   36.9091   24.4786   38.0517 H   0  0  0  0  0  0  0  0  0  0  0  0
   36.6057   25.8038   36.2230 H   0  0  0  0  0  0  0  0  0  0  0  0
   37.3167   26.7095   34.0182 H   0  0  0  0  0  0  0  0  0  0  0  0
   39.4913   25.9620   33.1036 H   0  0  0  0  0  0  0  0  0  0  0  0
   43.6336   25.5098   37.9605 H   0  0  0  0  0  0  0  0  0  0  0  0
   45.9064   26.7232   38.6606 H   0  0  0  0  0  0  0  0  0  0  0  0
   48.2852   24.7770   35.2585 H   0  0  0  0  0  0  0  0  0  0  0  0
   48.0966   23.4017   34.1868 H   0  0  0  0  0  0  0  0  0  0  0  0
   50.3728   23.3591   35.3501 H   0  0  0  0  0  0  0  0  0  0  0  0
   49.5850   23.3618   36.9333 H   0  0  0  0  0  0  0  0  0  0  0  0
   48.2965   20.1346   36.7061 H   0  0  0  0  0  0  0  0  0  0  0  0
   48.5132   21.6241   37.6776 H   0  0  0  0  0  0  0  0  0  0  0  0
   46.1459   21.4908   36.9162 H   0  0  0  0  0  0  0  0  0  0  0  0
   46.6219   21.2895   35.2382 H   0  0  0  0  0  0  0  0  0  0  0  0
  1  6  2  0
  1  2  1  0
  2  3  2  0
  3  4  1  0
  3 21  1  0
  5  4  2  0
  5  7  1  0
  6  5  1  0
  7  8  2  0
  8  9  1  0
 10  9  2  0
 11 10  1  0
 12 11  2  0
 13 12  1  0
 14 13  2  0
 14 15  1  0
 15 16  2  0
 16 11  1  0
 16  7  1  0
 17 19  1  0
 17 15  1  0
 18 17  1  0
 20 17  1  0
 21 22  1  0
 22 23  2  0
 24 23  1  0
 25 21  1  0
 25 24  2  0
 26 31  1  0
 26 25  1  0
 27 28  1  0
 27 26  1  0
 29 28  1  0
 29 30  1  0
 31 30  1  0
  1 32  1  0
  2 33  1  0
  8 34  1  0
  9 35  1  0
 10 36  1  0
 12 37  1  0
 13 38  1  0
 14 39  1  0
 22 40  1  0
 23 41  1  0
 27 42  1  0
 27 43  1  0
 28 44  1  0
 28 45  1  0
 30 46  1  0
 30 47  1  0
 31 48  1  0
 31 49  1  0
M  ISO  8  32  14  33  14  34  14  35  14  36  14  37  14  38  14  39  14
M  ISO  8  40  14  41  14  42  13  43  13  44  13  45  13  46  13  47  13
M  ISO  2  48  13  49  13
M  END
>  <minimizedAffinity>  (1) 
-5.95413399

>  <minimizedRMSD>  (1) 
0.268033892

$$$$
