
     RDKit          3D

 42 46  0  0  0  0  0  0  0  0999 V2000
   40.3080   23.2670   36.6670 C   0  0  0  0  0  0  0  0  0  0  0  0
   39.8040   22.8560   37.8920 C   0  0  0  0  0  0  0  0  0  0  0  0
   38.5900   23.2940   38.4080 C   0  0  0  0  0  0  0  0  0  0  0  0
   37.8360   24.1740   37.6940 C   0  0  0  0  0  0  0  0  0  0  0  0
   38.3320   24.5900   36.4670 C   0  0  0  0  0  0  0  0  0  0  0  0
   37.5430   25.4560   35.7690 C   0  0  0  0  0  0  0  0  0  0  0  0
   37.9450   25.9040   34.5390 C   0  0  0  0  0  0  0  0  0  0  0  0
   39.1480   25.4400   34.0760 C   0  0  0  0  0  0  0  0  0  0  0  0
   39.9440   24.5590   34.7980 C   0  0  0  0  0  0  0  0  0  0  0  0
   39.5250   24.1340   36.0040 C   0  0  0  0  0  0  0  0  0  0  0  0
   43.1040   21.2760   35.2830 C   0  0  0  0  0  0  0  0  0  0  0  0
   44.1930   22.0610   35.6830 C   0  0  0  0  0  0  0  0  0  0  0  0
   43.9110   23.2020   36.3820 C   0  0  0  0  0  0  0  0  0  0  0  0
   42.6370   23.4150   36.5910 N   0  0  0  0  0  0  0  0  0  0  0  0
   41.5620   22.7480   36.2610 C   0  0  0  0  0  0  0  0  0  0  0  0
   41.8610   21.6110   35.5610 N   0  0  0  0  0  0  0  0  0  0  0  0
   44.9230   24.0880   36.8220 N   0  0  0  0  0  0  0  0  0  0  0  0
   44.6280   25.3160   37.2360 C   0  0  0  0  0  0  0  0  0  0  0  0
   45.8150   25.9210   37.5790 C   0  0  0  0  0  0  0  0  0  0  0  0
   46.8050   25.0460   37.3660 N   0  0  0  0  0  0  0  0  0  0  0  0
   46.2580   23.9160   36.9000 C   0  0  0  0  0  0  0  0  0  0  0  0
   47.0310   22.7930   36.5730 N   0  0  0  0  0  0  0  0  0  0  0  0
   48.2950   22.8270   37.1040 C   0  0  0  0  0  0  0  0  0  0  0  0
   48.9840   21.7130   36.7780 N   0  0  0  0  0  0  0  0  0  0  0  0
   48.1120   20.9830   36.0280 C   0  0  0  0  0  0  0  0  0  0  0  0
   46.9470   21.6260   35.9030 N   0  0  0  0  0  0  0  0  0  0  0  0
   41.2070   24.2190   34.0830 C   0  0  0  0  0  0  0  0  0  0  0  0
   41.2080   24.9360   32.8130 F   0  0  0  0  0  0  0  0  0  0  0  0
   42.2400   25.0820   34.4080 F   0  0  0  0  0  0  0  0  0  0  0  0
   41.3160   23.1540   33.3410 F   0  0  0  0  0  0  0  0  0  0  0  0
   40.3966   22.1455   38.4869 H   0  0  0  0  0  0  0  0  0  0  0  0
   38.2411   22.9321   39.3864 H   0  0  0  0  0  0  0  0  0  0  0  0
   36.8714   24.5408   38.0749 H   0  0  0  0  0  0  0  0  0  0  0  0
   36.5859   25.7939   36.1930 H   0  0  0  0  0  0  0  0  0  0  0  0
   37.3316   26.6027   33.9511 H   0  0  0  0  0  0  0  0  0  0  0  0
   39.4989   25.7794   33.0903 H   0  0  0  0  0  0  0  0  0  0  0  0
   43.2929   20.3507   34.7190 H   0  0  0  0  0  0  0  0  0  0  0  0
   45.2277   21.7728   35.4457 H   0  0  0  0  0  0  0  0  0  0  0  0
   43.6249   25.7637   37.2935 H   0  0  0  0  0  0  0  0  0  0  0  0
   45.9303   26.9458   37.9618 H   0  0  0  0  0  0  0  0  0  0  0  0
   48.6937   23.6513   37.7136 H   0  0  0  0  0  0  0  0  0  0  0  0
   48.3357   20.0006   35.5865 H   0  0  0  0  0  0  0  0  0  0  0  0
  1  2  2  0
  2  3  1  0
  4  3  2  0
  5  4  1  0
  6  5  2  0
  7  6  1  0
  8  7  2  0
  8  9  1  0
  9 10  2  0
 10  5  1  0
 10  1  1  0
 11 16  2  0
 11 12  1  0
 12 13  2  0
 13 14  1  0
 13 17  1  0
 15 14  2  0
 15  1  1  0
 16 15  1  0
 17 21  1  0
 17 18  1  0
 18 19  2  0
 20 19  1  0
 21 20  2  0
 22 21  1  0
 22 23  1  0
 24 23  2  0
 25 24  1  0
 26 25  2  0
 26 22  1  0
 27 29  1  0
 27  9  1  0
 28 27  1  0
 30 27  1  0
  2 31  1  0
  3 32  1  0
  4 33  1  0
  6 34  1  0
  7 35  1  0
  8 36  1  0
 11 37  1  0
 12 38  1  0
 18 39  1  0
 19 40  1  0
 23 41  1  0
 25 42  1  0
M  ISO  8  31  14  32  14  33  14  34  14  35  14  36  14  37  14  38  14
M  ISO  4  39  14  40  14  41  14  42  14
M  END
>  <minimizedAffinity>  (1) 
-5.9065361

>  <minimizedRMSD>  (1) 
0.440323651

$$$$
