
     RDKit          3D

 43 47  0  0  0  0  0  0  0  0999 V2000
   40.3220   23.2720   36.6680 C   0  0  0  0  0  0  0  0  0  0  0  0
   39.7990   22.8540   37.8850 C   0  0  0  0  0  0  0  0  0  0  0  0
   38.5800   23.2900   38.3830 C   0  0  0  0  0  0  0  0  0  0  0  0
   37.8210   24.1840   37.6590 C   0  0  0  0  0  0  0  0  0  0  0  0
   38.3430   24.6010   36.4420 C   0  0  0  0  0  0  0  0  0  0  0  0
   37.5680   25.4590   35.7380 C   0  0  0  0  0  0  0  0  0  0  0  0
   37.9770   25.9060   34.5170 C   0  0  0  0  0  0  0  0  0  0  0  0
   39.1840   25.4470   34.0610 C   0  0  0  0  0  0  0  0  0  0  0  0
   39.9770   24.5660   34.7940 C   0  0  0  0  0  0  0  0  0  0  0  0
   39.5440   24.1400   36.0000 C   0  0  0  0  0  0  0  0  0  0  0  0
   43.1660   21.3260   35.3200 C   0  0  0  0  0  0  0  0  0  0  0  0
   44.2400   22.1200   35.7550 C   0  0  0  0  0  0  0  0  0  0  0  0
   43.9300   23.2490   36.4580 C   0  0  0  0  0  0  0  0  0  0  0  0
   42.6510   23.4470   36.6410 N   0  0  0  0  0  0  0  0  0  0  0  0
   41.5880   22.7670   36.2770 C   0  0  0  0  0  0  0  0  0  0  0  0
   41.9130   21.6470   35.5760 N   0  0  0  0  0  0  0  0  0  0  0  0
   44.9200   24.1430   36.9270 N   0  0  0  0  0  0  0  0  0  0  0  0
   44.6010   25.3170   37.4570 C   0  0  0  0  0  0  0  0  0  0  0  0
   45.7730   25.9470   37.7930 C   0  0  0  0  0  0  0  0  0  0  0  0
   46.7880   25.1380   37.4620 N   0  0  0  0  0  0  0  0  0  0  0  0
   46.2670   24.0260   36.9280 C   0  0  0  0  0  0  0  0  0  0  0  0
   47.0790   22.9810   36.4780 N   0  0  0  0  0  0  0  0  0  0  0  0
   46.7410   22.1130   35.4710 C   0  0  0  0  0  0  0  0  0  0  0  0
   47.8130   21.2370   35.3970 C   0  0  0  0  0  0  0  0  0  0  0  0
   48.7470   21.5740   36.3240 N   0  0  0  0  0  0  0  0  0  0  0  0
   48.3030   22.6640   37.0090 C   0  0  0  0  0  0  0  0  0  0  0  0
   41.2570   24.2430   34.1030 C   0  0  0  0  0  0  0  0  0  0  0  0
   41.2720   24.9690   32.8340 F   0  0  0  0  0  0  0  0  0  0  0  0
   42.2740   25.1190   34.4570 F   0  0  0  0  0  0  0  0  0  0  0  0
   41.3850   23.1900   33.3530 F   0  0  0  0  0  0  0  0  0  0  0  0
   40.3820   22.1399   38.4852 H   0  0  0  0  0  0  0  0  0  0  0  0
   38.2194   22.9225   39.3550 H   0  0  0  0  0  0  0  0  0  0  0  0
   36.8506   24.5487   38.0268 H   0  0  0  0  0  0  0  0  0  0  0  0
   36.6063   25.7961   36.1521 H   0  0  0  0  0  0  0  0  0  0  0  0
   37.3658   26.6033   33.9252 H   0  0  0  0  0  0  0  0  0  0  0  0
   39.5415   25.7869   33.0778 H   0  0  0  0  0  0  0  0  0  0  0  0
   43.3764   20.4096   34.7491 H   0  0  0  0  0  0  0  0  0  0  0  0
   45.2830   21.8450   35.5393 H   0  0  0  0  0  0  0  0  0  0  0  0
   43.5846   25.7123   37.6006 H   0  0  0  0  0  0  0  0  0  0  0  0
   45.8631   26.9419   38.2534 H   0  0  0  0  0  0  0  0  0  0  0  0
   45.8261   22.1122   34.8602 H   0  0  0  0  0  0  0  0  0  0  0  0
   47.8949   20.3955   34.6933 H   0  0  0  0  0  0  0  0  0  0  0  0
   48.8227   23.1863   37.8258 H   0  0  0  0  0  0  0  0  0  0  0  0
  1  2  2  0
  2  3  1  0
  4  3  2  0
  5  4  1  0
  6  5  2  0
  7  6  1  0
  8  7  2  0
  8  9  1  0
  9 10  2  0
 10  5  1  0
 10  1  1  0
 11 16  2  0
 11 12  1  0
 12 13  2  0
 13 14  1  0
 13 17  1  0
 15 14  2  0
 15  1  1  0
 16 15  1  0
 17 21  1  0
 17 18  1  0
 18 19  2  0
 20 19  1  0
 21 20  2  0
 22 21  1  0
 22 26  1  0
 23 22  1  0
 24 23  2  0
 24 25  1  0
 25 26  2  0
 27 29  1  0
 27  9  1  0
 28 27  1  0
 30 27  1  0
  2 31  1  0
  3 32  1  0
  4 33  1  0
  6 34  1  0
  7 35  1  0
  8 36  1  0
 11 37  1  0
 12 38  1  0
 18 39  1  0
 19 40  1  0
 23 41  1  0
 24 42  1  0
 26 43  1  0
M  ISO  8  31  14  32  14  33  14  34  14  35  14  36  14  37  14  38  14
M  ISO  5  39  14  40  14  41  14  42  14  43  14
M  END
>  <minimizedAffinity>  (1) 
-5.89056015

>  <minimizedRMSD>  (1) 
0.328825265

$$$$
