
     RDKit          3D

 41 45  0  0  0  0  0  0  0  0999 V2000
   43.1490   21.3210   35.3520 C   0  0  0  0  0  0  0  0  0  0  0  0
   44.2210   22.1150   35.7870 C   0  0  0  0  0  0  0  0  0  0  0  0
   43.9220   23.2490   36.4780 C   0  0  0  0  0  0  0  0  0  0  0  0
   42.6440   23.4490   36.6480 N   0  0  0  0  0  0  0  0  0  0  0  0
   41.5760   22.7780   36.2890 C   0  0  0  0  0  0  0  0  0  0  0  0
   41.8940   21.6500   35.5980 N   0  0  0  0  0  0  0  0  0  0  0  0
   40.3100   23.2860   36.6670 C   0  0  0  0  0  0  0  0  0  0  0  0
   39.7770   22.8700   37.8800 C   0  0  0  0  0  0  0  0  0  0  0  0
   38.5580   23.3110   38.3720 C   0  0  0  0  0  0  0  0  0  0  0  0
   37.8140   24.2040   37.6480 C   0  0  0  0  0  0  0  0  0  0  0  0
   38.3390   24.6270   36.4310 C   0  0  0  0  0  0  0  0  0  0  0  0
   37.5750   25.4900   35.7210 C   0  0  0  0  0  0  0  0  0  0  0  0
   37.9930   25.9310   34.5010 C   0  0  0  0  0  0  0  0  0  0  0  0
   39.1990   25.4640   34.0520 C   0  0  0  0  0  0  0  0  0  0  0  0
   39.9810   24.5810   34.7910 C   0  0  0  0  0  0  0  0  0  0  0  0
   39.5370   24.1610   35.9990 C   0  0  0  0  0  0  0  0  0  0  0  0
   41.2610   24.2460   34.1060 C   0  0  0  0  0  0  0  0  0  0  0  0
   41.2850   24.9640   32.8330 F   0  0  0  0  0  0  0  0  0  0  0  0
   42.2830   25.1180   34.4560 F   0  0  0  0  0  0  0  0  0  0  0  0
   41.3910   23.1860   33.3660 F   0  0  0  0  0  0  0  0  0  0  0  0
   44.9200   24.1330   36.9360 N   0  0  0  0  0  0  0  0  0  0  0  0
   44.6020   25.1830   37.7010 C   0  0  0  0  0  0  0  0  0  0  0  0
   45.7720   25.8320   37.9730 C   0  0  0  0  0  0  0  0  0  0  0  0
   46.7670   25.1990   37.3950 N   0  0  0  0  0  0  0  0  0  0  0  0
   46.2600   24.1180   36.7290 C   0  0  0  0  0  0  0  0  0  0  0  0
   47.0470   23.1470   35.9340 C   0  0  0  0  0  0  0  0  0  0  0  0
   47.4910   22.6910   34.7720 N   0  0  0  0  0  0  0  0  0  0  0  0
   48.2410   21.6620   34.8490 O   0  0  0  0  0  0  0  0  0  0  0  0
   48.3720   21.3240   36.0950 C   0  0  0  0  0  0  0  0  0  0  0  0
   47.6520   22.2280   36.6900 N   0  0  0  0  0  0  0  0  0  0  0  0
   43.3599   20.3989   34.7905 H   0  0  0  0  0  0  0  0  0  0  0  0
   45.2631   21.8319   35.5776 H   0  0  0  0  0  0  0  0  0  0  0  0
   40.3527   22.1522   38.4828 H   0  0  0  0  0  0  0  0  0  0  0  0
   38.1895   22.9444   39.3415 H   0  0  0  0  0  0  0  0  0  0  0  0
   36.8433   24.5710   38.0128 H   0  0  0  0  0  0  0  0  0  0  0  0
   36.6143   25.8363   36.1298 H   0  0  0  0  0  0  0  0  0  0  0  0
   37.3889   26.6303   33.9043 H   0  0  0  0  0  0  0  0  0  0  0  0
   39.5639   25.7993   33.0699 H   0  0  0  0  0  0  0  0  0  0  0  0
   43.5962   25.4676   38.0435 H   0  0  0  0  0  0  0  0  0  0  0  0
   45.8666   26.7434   38.5816 H   0  0  0  0  0  0  0  0  0  0  0  0
   48.9424   20.4914   36.5326 H   0  0  0  0  0  0  0  0  0  0  0  0
  1  6  2  0
  1  2  1  0
  2  3  2  0
  3  4  1  0
  3 21  1  0
  5  4  2  0
  5  7  1  0
  6  5  1  0
  7  8  2  0
  8  9  1  0
 10  9  2  0
 11 10  1  0
 12 11  2  0
 13 12  1  0
 14 13  2  0
 14 15  1  0
 15 16  2  0
 16 11  1  0
 16  7  1  0
 17 19  1  0
 17 15  1  0
 18 17  1  0
 20 17  1  0
 21 22  1  0
 22 23  2  0
 24 23  1  0
 25 21  1  0
 25 24  2  0
 26 30  1  0
 26 25  1  0
 27 28  1  0
 27 26  2  0
 28 29  1  0
 29 30  2  0
  1 31  1  0
  2 32  1  0
  8 33  1  0
  9 34  1  0
 10 35  1  0
 12 36  1  0
 13 37  1  0
 14 38  1  0
 22 39  1  0
 23 40  1  0
 29 41  1  0
M  ISO  8  31  14  32  14  33  14  34  14  35  14  36  14  37  14  38  14
M  ISO  3  39  14  40  14  41  14
M  END
>  <minimizedAffinity>  (1) 
-5.58216

>  <minimizedRMSD>  (1) 
0.54000622

$$$$
