
     RDKit          3D

 43 47  0  0  0  0  0  0  0  0999 V2000
   43.1760   21.3770   35.2570 C   0  0  0  0  0  0  0  0  0  0  0  0
   44.2450   22.1560   35.7200 C   0  0  0  0  0  0  0  0  0  0  0  0
   43.9450   23.2610   36.4490 C   0  0  0  0  0  0  0  0  0  0  0  0
   42.6650   23.4620   36.6330 N   0  0  0  0  0  0  0  0  0  0  0  0
   41.6000   22.8030   36.2460 C   0  0  0  0  0  0  0  0  0  0  0  0
   41.9200   21.6970   35.5140 N   0  0  0  0  0  0  0  0  0  0  0  0
   40.3330   23.3030   36.6380 C   0  0  0  0  0  0  0  0  0  0  0  0
   39.8050   22.8640   37.8460 C   0  0  0  0  0  0  0  0  0  0  0  0
   38.5870   23.2860   38.3420 C   0  0  0  0  0  0  0  0  0  0  0  0
   37.8350   24.1800   37.6390 C   0  0  0  0  0  0  0  0  0  0  0  0
   38.3530   24.6280   36.4240 C   0  0  0  0  0  0  0  0  0  0  0  0
   37.5690   25.4920   35.7310 C   0  0  0  0  0  0  0  0  0  0  0  0
   37.9860   25.9540   34.5140 C   0  0  0  0  0  0  0  0  0  0  0  0
   39.1940   25.5080   34.0570 C   0  0  0  0  0  0  0  0  0  0  0  0
   39.9930   24.6210   34.7840 C   0  0  0  0  0  0  0  0  0  0  0  0
   39.5570   24.1810   35.9800 C   0  0  0  0  0  0  0  0  0  0  0  0
   41.2720   24.3120   34.0910 C   0  0  0  0  0  0  0  0  0  0  0  0
   41.2920   25.0620   32.8350 F   0  0  0  0  0  0  0  0  0  0  0  0
   42.2890   25.1800   34.4580 F   0  0  0  0  0  0  0  0  0  0  0  0
   41.4090   23.2720   33.3240 F   0  0  0  0  0  0  0  0  0  0  0  0
   44.9400   24.1270   36.9450 N   0  0  0  0  0  0  0  0  0  0  0  0
   44.6250   25.1890   37.6770 C   0  0  0  0  0  0  0  0  0  0  0  0
   45.7760   25.8600   37.9750 C   0  0  0  0  0  0  0  0  0  0  0  0
   46.7770   25.2120   37.4280 N   0  0  0  0  0  0  0  0  0  0  0  0
   46.2790   24.1140   36.7740 C   0  0  0  0  0  0  0  0  0  0  0  0
   47.1140   23.2250   36.0490 C   0  0  0  0  0  0  0  0  0  0  0  0
   48.1640   22.6840   36.9300 C   0  0  0  0  0  0  0  0  0  0  0  0
   49.0810   21.9330   36.3180 N   0  0  0  0  0  0  0  0  0  0  0  0
   48.8070   21.8540   35.0220 C   0  0  0  0  0  0  0  0  0  0  0  0
   47.7580   22.5850   35.0990 N   0  0  0  0  0  0  0  0  0  0  0  0
   43.3881   20.4752   34.6639 H   0  0  0  0  0  0  0  0  0  0  0  0
   45.2877   21.8824   35.5010 H   0  0  0  0  0  0  0  0  0  0  0  0
   40.3874   22.1428   38.4381 H   0  0  0  0  0  0  0  0  0  0  0  0
   38.2231   22.9002   39.3057 H   0  0  0  0  0  0  0  0  0  0  0  0
   36.8626   24.5324   38.0136 H   0  0  0  0  0  0  0  0  0  0  0  0
   36.6040   25.8185   36.1460 H   0  0  0  0  0  0  0  0  0  0  0  0
   37.3747   26.6554   33.9272 H   0  0  0  0  0  0  0  0  0  0  0  0
   39.5518   25.8609   33.0785 H   0  0  0  0  0  0  0  0  0  0  0  0
   43.6109   25.4785   37.9896 H   0  0  0  0  0  0  0  0  0  0  0  0
   45.8510   26.7824   38.5696 H   0  0  0  0  0  0  0  0  0  0  0  0
   48.1897   22.8844   38.0113 H   0  0  0  0  0  0  0  0  0  0  0  0
   49.3027   21.3439   34.1829 H   0  0  0  0  0  0  0  0  0  0  0  0
   47.3031   22.7007   34.1822 H   0  0  0  0  0  0  0  0  0  0  0  0
  1  6  2  0
  1  2  1  0
  2  3  2  0
  3  4  1  0
  3 21  1  0
  5  4  2  0
  5  7  1  0
  6  5  1  0
  7  8  2  0
  8  9  1  0
 10  9  2  0
 11 10  1  0
 12 11  2  0
 13 12  1  0
 14 13  2  0
 14 15  1  0
 15 16  2  0
 16 11  1  0
 16  7  1  0
 17 19  1  0
 17 15  1  0
 18 17  1  0
 20 17  1  0
 21 22  1  0
 22 23  2  0
 24 23  1  0
 25 21  1  0
 25 24  2  0
 26 25  1  0
 26 27  2  0
 28 27  1  0
 29 30  1  0
 29 28  2  0
 30 26  1  0
  1 31  1  0
  2 32  1  0
  8 33  1  0
  9 34  1  0
 10 35  1  0
 12 36  1  0
 13 37  1  0
 14 38  1  0
 22 39  1  0
 23 40  1  0
 27 41  1  0
 29 42  1  0
 30 43  1  0
M  ISO  8  31  14  32  14  33  14  34  14  35  14  36  14  37  14  38  14
M  ISO  5  39  14  40  14  41  14  42  14  43   9
M  END
>  <minimizedAffinity>  (1) 
-5.58163071

>  <minimizedRMSD>  (1) 
0.214254618

$$$$
