
     RDKit          3D

 42 45  0  0  0  0  0  0  0  0999 V2000
   40.3130   23.2900   36.6460 C   0  0  0  0  0  0  0  0  0  0  0  0
   39.7900   22.8600   37.8590 C   0  0  0  0  0  0  0  0  0  0  0  0
   38.5690   23.2920   38.3640 C   0  0  0  0  0  0  0  0  0  0  0  0
   37.8170   24.1910   37.6560 C   0  0  0  0  0  0  0  0  0  0  0  0
   38.3370   24.6260   36.4380 C   0  0  0  0  0  0  0  0  0  0  0  0
   37.5590   25.4890   35.7420 C   0  0  0  0  0  0  0  0  0  0  0  0
   37.9640   25.9450   34.5180 C   0  0  0  0  0  0  0  0  0  0  0  0
   39.1700   25.4860   34.0590 C   0  0  0  0  0  0  0  0  0  0  0  0
   39.9630   24.6010   34.7860 C   0  0  0  0  0  0  0  0  0  0  0  0
   39.5330   24.1690   35.9930 C   0  0  0  0  0  0  0  0  0  0  0  0
   43.1520   21.3670   35.2610 C   0  0  0  0  0  0  0  0  0  0  0  0
   44.2250   22.1450   35.7200 C   0  0  0  0  0  0  0  0  0  0  0  0
   43.9210   23.2550   36.4510 C   0  0  0  0  0  0  0  0  0  0  0  0
   42.6420   23.4540   36.6350 N   0  0  0  0  0  0  0  0  0  0  0  0
   41.5790   22.7870   36.2490 C   0  0  0  0  0  0  0  0  0  0  0  0
   41.8980   21.6850   35.5200 N   0  0  0  0  0  0  0  0  0  0  0  0
   44.9170   24.1240   36.9430 N   0  0  0  0  0  0  0  0  0  0  0  0
   44.6100   25.2060   37.6480 C   0  0  0  0  0  0  0  0  0  0  0  0
   45.7690   25.8460   37.9600 C   0  0  0  0  0  0  0  0  0  0  0  0
   46.7810   25.1460   37.4420 N   0  0  0  0  0  0  0  0  0  0  0  0
   46.2600   24.0780   36.8110 C   0  0  0  0  0  0  0  0  0  0  0  0
   47.0740   23.0780   36.1200 C   0  0  0  0  0  0  0  0  0  0  0  0
   48.3160   22.7250   36.9860 C   0  0  0  0  0  0  0  0  0  0  0  0
   41.2390   24.2790   34.0880 C   0  0  0  0  0  0  0  0  0  0  0  0
   41.2600   25.0250   32.8300 F   0  0  0  0  0  0  0  0  0  0  0  0
   42.2630   25.1440   34.4500 F   0  0  0  0  0  0  0  0  0  0  0  0
   41.3630   23.2350   33.3230 F   0  0  0  0  0  0  0  0  0  0  0  0
   40.3730   22.1394   38.4514 H   0  0  0  0  0  0  0  0  0  0  0  0
   38.2075   22.9122   39.3310 H   0  0  0  0  0  0  0  0  0  0  0  0
   36.8482   24.5529   38.0307 H   0  0  0  0  0  0  0  0  0  0  0  0
   36.5992   25.8239   36.1623 H   0  0  0  0  0  0  0  0  0  0  0  0
   37.3516   26.6456   33.9313 H   0  0  0  0  0  0  0  0  0  0  0  0
   39.5267   25.8300   33.0769 H   0  0  0  0  0  0  0  0  0  0  0  0
   43.3622   20.4650   34.6675 H   0  0  0  0  0  0  0  0  0  0  0  0
   45.2673   21.8713   35.4996 H   0  0  0  0  0  0  0  0  0  0  0  0
   43.5968   25.5283   37.9302 H   0  0  0  0  0  0  0  0  0  0  0  0
   45.8571   26.7776   38.5382 H   0  0  0  0  0  0  0  0  0  0  0  0
   46.4749   22.1708   35.9528 H   0  0  0  0  0  0  0  0  0  0  0  0
   47.4070   23.4837   35.1533 H   0  0  0  0  0  0  0  0  0  0  0  0
   48.0532   22.7997   38.0515 H   0  0  0  0  0  0  0  0  0  0  0  0
   48.6412   21.6989   36.7596 H   0  0  0  0  0  0  0  0  0  0  0  0
   49.1323   23.4267   36.7596 H   0  0  0  0  0  0  0  0  0  0  0  0
  1  2  2  0
  2  3  1  0
  4  3  2  0
  5  4  1  0
  6  5  2  0
  7  6  1  0
  8  7  2  0
  8  9  1  0
  9 10  2  0
 10  5  1  0
 10  1  1  0
 11 16  2  0
 11 12  1  0
 12 13  2  0
 13 14  1  0
 13 17  1  0
 15 14  2  0
 15  1  1  0
 16 15  1  0
 17 18  1  0
 18 19  2  0
 20 19  1  0
 21 17  1  0
 21 20  2  0
 22 21  1  0
 22 23  1  0
 24 26  1  0
 24  9  1  0
 25 24  1  0
 27 24  1  0
  2 28  1  0
  3 29  1  0
  4 30  1  0
  6 31  1  0
  7 32  1  0
  8 33  1  0
 11 34  1  0
 12 35  1  0
 18 36  1  0
 19 37  1  0
 22 38  1  0
 22 39  1  0
 23 40  1  0
 23 41  1  0
 23 42  1  0
M  ISO  8  28  14  29  14  30  14  31  14  32  14  33  14  34  14  35  14
M  ISO  7  36  14  37  14  38   8  39   8  40   8  41   8  42   8
M  END
>  <minimizedAffinity>  (1) 
-5.56461382

>  <minimizedRMSD>  (1) 
0.171516314

$$$$
