
     RDKit          3D

 23 24  0  0  1  0  0  0  0  0999 V2000
   38.1780   22.9170   36.2810 N   0  0  0  0  0  0  0  0  0  0  0  0
   37.7470   23.6960   37.4420 C   0  0  0  0  0  0  0  0  0  0  0  0
   38.8510   23.3720   38.4440 C   0  0  2  0  0  0  0  0  0  0  0  0
   39.9440   22.6910   37.6550 C   0  0  0  0  0  0  0  0  0  0  0  0
   39.6120   23.1590   36.2390 C   0  0  0  0  0  0  0  0  0  0  0  0
   37.3840   22.1140   35.4040 C   0  0  0  0  0  0  0  0  0  0  0  0
   36.3090   21.3300   35.8680 C   0  0  0  0  0  0  0  0  0  0  0  0
   35.5910   20.5790   34.9410 C   0  0  0  0  0  0  0  0  0  0  0  0
   35.9690   20.6460   33.6290 N   0  0  0  0  0  0  0  0  0  0  0  0
   37.0080   21.4110   33.2260 C   0  0  0  0  0  0  0  0  0  0  0  0
   37.7090   22.1390   34.1030 N   0  0  0  0  0  0  0  0  0  0  0  0
   38.2920   22.4390   39.3170 O   0  0  0  0  0  0  0  0  0  0  0  0
   37.7119   24.7717   37.2150 H   0  0  0  0  0  0  0  0  0  0  0  0
   36.7331   23.4563   37.7948 H   0  0  0  0  0  0  0  0  0  0  0  0
   39.2390   24.2509   38.9797 H   0  0  0  0  0  0  0  0  0  0  0  0
   40.9418   23.0307   37.9698 H   0  0  0  0  0  0  0  0  0  0  0  0
   39.9788   21.5983   37.7762 H   0  0  0  0  0  0  0  0  0  0  0  0
   40.1151   22.5535   35.4707 H   0  0  0  0  0  0  0  0  0  0  0  0
   39.9231   24.1823   35.9818 H   0  0  0  0  0  0  0  0  0  0  0  0
   36.0438   21.3117   36.9354 H   0  0  0  0  0  0  0  0  0  0  0  0
   34.7447   19.9504   35.2551 H   0  0  0  0  0  0  0  0  0  0  0  0
   37.2814   21.4355   32.1608 H   0  0  0  0  0  0  0  0  0  0  0  0
   38.4600   22.7194   40.2515 H   0  0  0  0  0  0  0  0  0  0  0  0
  1  2  1  0
  2  3  1  0
  3 12  1  0
  4  3  1  0
  5  1  1  0
  5  4  1  0
  6  7  2  0
  6  1  1  0
  8  7  1  0
  9  8  2  0
 10  9  1  0
 10 11  2  0
 11  6  1  0
  2 13  1  0
  2 14  1  0
  3 15  1  1
  4 16  1  0
  4 17  1  0
  5 18  1  0
  5 19  1  0
  7 20  1  0
  8 21  1  0
 10 22  1  0
 12 23  1  0
M  ISO  8  13  13  14  13  15  13  16  13  17  13  18  13  19  13  20  14
M  ISO  3  21  14  22  14  23   3
M  END
>  <minimizedAffinity>  (1) 
-4.18533134

>  <minimizedRMSD>  (1) 
0.862486064

$$$$
