
     RDKit          3D

 34 35  0  0  1  0  0  0  0  0999 V2000
   37.2420   21.8650   33.9410 N   0  0  0  0  0  0  0  0  0  0  0  0
   37.2830   21.8010   35.3960 C   0  0  0  0  0  0  0  0  0  0  0  0
   38.6990   22.2680   35.6780 C   0  0  1  0  0  0  0  0  0  0  0  0
   39.2270   22.8280   34.3870 C   0  0  0  0  0  0  0  0  0  0  0  0
   37.9390   23.1180   33.6470 C   0  0  0  0  0  0  0  0  0  0  0  0
   36.6720   20.9540   33.0120 C   0  0  0  0  0  0  0  0  0  0  0  0
   35.6210   20.0830   33.3740 C   0  0  0  0  0  0  0  0  0  0  0  0
   35.0930   19.2060   32.4380 C   0  0  0  0  0  0  0  0  0  0  0  0
   35.6530   19.2500   31.1730 N   0  0  0  0  0  0  0  0  0  0  0  0
   36.6530   20.0910   30.8590 C   0  0  0  0  0  0  0  0  0  0  0  0
   37.1650   20.9390   31.7660 N   0  0  0  0  0  0  0  0  0  0  0  0
   38.7670   23.2280   36.8250 C   0  0  0  0  0  0  0  0  0  0  0  0
   37.5370   23.2510   37.6740 C   0  0  0  0  0  0  0  0  0  0  0  0
   39.9160   22.7960   37.7200 C   0  0  0  0  0  0  0  0  0  0  0  0
   39.0770   24.6370   36.3980 C   0  0  0  0  0  0  0  0  0  0  0  0
   36.5400   22.4737   35.8492 H   0  0  0  0  0  0  0  0  0  0  0  0
   37.0466   20.8091   35.8087 H   0  0  0  0  0  0  0  0  0  0  0  0
   39.3339   21.4325   36.0079 H   0  0  0  0  0  0  0  0  0  0  0  0
   39.8117   23.7447   34.5539 H   0  0  0  0  0  0  0  0  0  0  0  0
   39.9157   22.1582   33.8513 H   0  0  0  0  0  0  0  0  0  0  0  0
   38.1021   23.2598   32.5684 H   0  0  0  0  0  0  0  0  0  0  0  0
   37.4142   24.0397   33.9386 H   0  0  0  0  0  0  0  0  0  0  0  0
   35.2210   20.1000   34.3985 H   0  0  0  0  0  0  0  0  0  0  0  0
   34.2749   18.5142   32.6872 H   0  0  0  0  0  0  0  0  0  0  0  0
   37.0609   20.0848   29.8374 H   0  0  0  0  0  0  0  0  0  0  0  0
   37.8242   23.2456   38.7358 H   0  0  0  0  0  0  0  0  0  0  0  0
   36.9576   24.1601   37.4555 H   0  0  0  0  0  0  0  0  0  0  0  0
   36.9240   22.3642   37.4555 H   0  0  0  0  0  0  0  0  0  0  0  0
   39.6214   22.9068   38.7740 H   0  0  0  0  0  0  0  0  0  0  0  0
   40.1632   21.7435   37.5170 H   0  0  0  0  0  0  0  0  0  0  0  0
   40.7954   23.4249   37.5170 H   0  0  0  0  0  0  0  0  0  0  0  0
   39.2158   25.2678   37.2884 H   0  0  0  0  0  0  0  0  0  0  0  0
   39.9981   24.6437   35.7967 H   0  0  0  0  0  0  0  0  0  0  0  0
   38.2438   25.0296   35.7967 H   0  0  0  0  0  0  0  0  0  0  0  0
  1  2  1  0
  2  3  1  0
  3 12  1  0
  4  3  1  0
  5  1  1  0
  5  4  1  0
  6  7  2  0
  6  1  1  0
  8  7  1  0
  9  8  2  0
 10  9  1  0
 10 11  2  0
 11  6  1  0
 12 13  1  0
 12 14  1  0
 15 12  1  0
  2 16  1  0
  2 17  1  0
  3 18  1  1
  4 19  1  0
  4 20  1  0
  5 21  1  0
  5 22  1  0
  7 23  1  0
  8 24  1  0
 10 25  1  0
 13 26  1  0
 13 27  1  0
 13 28  1  0
 14 29  1  0
 14 30  1  0
 14 31  1  0
 15 32  1  0
 15 33  1  0
 15 34  1  0
M  ISO  8  16  13  17  13  18  13  19  13  20  13  21  13  22  13  23  14
M  ISO  8  24  14  25  14  26   8  27   8  28   8  29   8  30   8  31   8
M  ISO  3  32   8  33   8  34   8
M  END
>  <minimizedAffinity>  (1) 
-4.03290176

>  <minimizedRMSD>  (1) 
3.02478027

$$$$
