
     RDKit          3D

 36 38  0  0  1  0  0  0  0  0999 V2000
   36.7010   22.9860   31.4460 N   0  0  0  0  0  0  0  0  0  0  0  0
   36.0230   24.2280   31.0370 C   0  0  0  0  0  0  0  0  0  0  0  0
   36.5760   25.2080   32.0490 C   0  0  1  0  0  0  0  0  0  0  0  0
   37.6910   24.4970   32.8020 C   0  0  0  0  0  0  0  0  0  0  0  0
   38.0530   23.4590   31.7640 C   0  0  0  0  0  0  0  0  0  0  0  0
   36.1720   21.6750   31.5110 C   0  0  0  0  0  0  0  0  0  0  0  0
   35.1060   21.3310   32.3360 C   0  0  0  0  0  0  0  0  0  0  0  0
   34.6500   20.0220   32.3390 C   0  0  0  0  0  0  0  0  0  0  0  0
   35.2730   19.1210   31.5230 N   0  0  0  0  0  0  0  0  0  0  0  0
   36.3180   19.4850   30.7200 C   0  0  0  0  0  0  0  0  0  0  0  0
   36.7650   20.7510   30.7140 N   0  0  0  0  0  0  0  0  0  0  0  0
   37.1230   26.3460   31.3370 N   0  0  0  0  0  0  0  0  0  0  0  0
   35.9720   28.0340   32.5270 N   0  0  0  0  0  0  0  0  0  0  0  0
   35.1230   29.1650   32.1180 C   0  0  0  0  0  0  0  0  0  0  0  0
   36.0460   29.7840   31.0600 C   0  0  0  0  0  0  0  0  0  0  0  0
   36.6020   28.5460   30.3880 C   0  0  0  0  0  0  0  0  0  0  0  0
   36.1130   27.3590   31.2270 C   0  0  1  0  0  0  0  0  0  0  0  0
   36.2910   24.5146   30.0094 H   0  0  0  0  0  0  0  0  0  0  0  0
   34.9251   24.1614   31.0245 H   0  0  0  0  0  0  0  0  0  0  0  0
   35.7970   25.5529   32.7448 H   0  0  0  0  0  0  0  0  0  0  0  0
   38.5328   25.1694   33.0239 H   0  0  0  0  0  0  0  0  0  0  0  0
   37.4164   24.1013   33.7910 H   0  0  0  0  0  0  0  0  0  0  0  0
   38.6842   22.6599   32.1800 H   0  0  0  0  0  0  0  0  0  0  0  0
   38.6438   23.8236   30.9107 H   0  0  0  0  0  0  0  0  0  0  0  0
   34.6312   22.0879   32.9776 H   0  0  0  0  0  0  0  0  0  0  0  0
   33.8100   19.7174   32.9805 H   0  0  0  0  0  0  0  0  0  0  0  0
   36.7964   18.7345   30.0736 H   0  0  0  0  0  0  0  0  0  0  0  0
   37.9320   26.7199   31.8534 H   0  0  0  0  0  0  0  0  0  0  0  0
   36.8800   28.3487   32.8978 H   0  0  0  0  0  0  0  0  0  0  0  0
   34.1679   28.8298   31.6875 H   0  0  0  0  0  0  0  0  0  0  0  0
   34.8104   29.8404   32.9280 H   0  0  0  0  0  0  0  0  0  0  0  0
   35.4831   30.4085   30.3507 H   0  0  0  0  0  0  0  0  0  0  0  0
   36.8138   30.4562   31.4707 H   0  0  0  0  0  0  0  0  0  0  0  0
   36.2251   28.4677   29.3576 H   0  0  0  0  0  0  0  0  0  0  0  0
   37.7001   28.5756   30.3303 H   0  0  0  0  0  0  0  0  0  0  0  0
   35.2211   26.8524   30.8296 H   0  0  0  0  0  0  0  0  0  0  0  0
  1  6  1  0
  1  5  1  0
  2  1  1  0
  2  3  1  0
  3  4  1  0
  5  4  1  0
  6  7  2  0
  7  8  1  0
  9  8  2  0
 10  9  1  0
 11 10  2  0
 11  6  1  0
 12  3  1  0
 14 13  1  0
 15 14  1  0
 16 15  1  0
 16 17  1  0
 17 12  1  0
 17 13  1  0
  2 18  1  0
  2 19  1  0
  3 20  1  1
  4 21  1  0
  4 22  1  0
  5 23  1  0
  5 24  1  0
  7 25  1  0
  8 26  1  0
 10 27  1  0
 12 28  1  0
 13 29  1  0
 14 30  1  0
 14 31  1  0
 15 32  1  0
 15 33  1  0
 16 34  1  0
 16 35  1  0
 17 36  1  6
M  ISO  8  18  13  19  13  20  13  21  13  22  13  23  13  24  13  25  14
M  ISO  8  26  14  27  14  28   5  29   5  30  13  31  13  32  13  33  13
M  ISO  3  34  13  35  13  36  13
M  END
>  <minimizedAffinity>  (1) 
-4.03785229

>  <minimizedRMSD>  (1) 
6.66535378

$$$$
