
     RDKit          3D

 27 28  0  0  1  0  0  0  0  0999 V2000
   38.7140   23.0640   34.3890 N   0  0  0  0  0  0  0  0  0  0  0  0
   38.8610   24.4350   34.8950 C   0  0  0  0  0  0  0  0  0  0  0  0
   40.3030   24.3990   35.3900 C   0  0  1  0  0  0  0  0  0  0  0  0
   40.9120   23.1040   34.9020 C   0  0  0  0  0  0  0  0  0  0  0  0
   39.9980   22.8310   33.7240 C   0  0  0  0  0  0  0  0  0  0  0  0
   37.6130   22.1940   34.5130 C   0  0  0  0  0  0  0  0  0  0  0  0
   37.0840   21.8050   35.7610 C   0  0  0  0  0  0  0  0  0  0  0  0
   36.0020   20.9480   35.8090 C   0  0  0  0  0  0  0  0  0  0  0  0
   35.4790   20.5030   34.6090 N   0  0  0  0  0  0  0  0  0  0  0  0
   36.0120   20.8950   33.4140 C   0  0  0  0  0  0  0  0  0  0  0  0
   37.0650   21.7300   33.3710 N   0  0  0  0  0  0  0  0  0  0  0  0
   40.9990   25.5250   34.7980 N   0  0  0  0  0  0  0  0  0  0  0  0
   40.1010   26.6710   34.9050 C   0  0  0  0  0  0  0  0  0  0  0  0
   38.7249   25.1789   34.0962 H   0  0  0  0  0  0  0  0  0  0  0  0
   38.1227   24.7222   35.6582 H   0  0  0  0  0  0  0  0  0  0  0  0
   40.3682   24.4576   36.4865 H   0  0  0  0  0  0  0  0  0  0  0  0
   41.9584   23.2342   34.5888 H   0  0  0  0  0  0  0  0  0  0  0  0
   40.9672   22.2995   35.6502 H   0  0  0  0  0  0  0  0  0  0  0  0
   40.0931   21.7988   33.3558 H   0  0  0  0  0  0  0  0  0  0  0  0
   40.1862   23.4332   32.8229 H   0  0  0  0  0  0  0  0  0  0  0  0
   37.5313   22.1826   36.6924 H   0  0  0  0  0  0  0  0  0  0  0  0
   35.5708   20.6301   36.7697 H   0  0  0  0  0  0  0  0  0  0  0  0
   35.5746   20.5232   32.4757 H   0  0  0  0  0  0  0  0  0  0  0  0
   41.2123   25.3313   33.8091 H   0  0  0  0  0  0  0  0  0  0  0  0
   39.9223   26.8990   35.9662 H   0  0  0  0  0  0  0  0  0  0  0  0
   40.5590   27.5427   34.4147 H   0  0  0  0  0  0  0  0  0  0  0  0
   39.1451   26.4348   34.4147 H   0  0  0  0  0  0  0  0  0  0  0  0
  1  6  1  0
  1  2  1  0
  2  3  1  0
  4  3  1  0
  5  1  1  0
  5  4  1  0
  6  7  2  0
  7  8  1  0
  9  8  2  0
 10  9  1  0
 11 10  2  0
 11  6  1  0
 12 13  1  0
 12  3  1  0
  2 14  1  0
  2 15  1  0
  3 16  1  1
  4 17  1  0
  4 18  1  0
  5 19  1  0
  5 20  1  0
  7 21  1  0
  8 22  1  0
 10 23  1  0
 12 24  1  0
 13 25  1  0
 13 26  1  0
 13 27  1  0
M  ISO  8  14  13  15  13  16  13  17  13  18  13  19  13  20  13  21  14
M  ISO  6  22  14  23  14  24   5  25   8  26   8  27   8
M  END
>  <minimizedAffinity>  (1) 
-2.91856122

>  <minimizedRMSD>  (1) 
3.18758321

$$$$
