
     RDKit          3D

 41 44  0  0  1  0  0  0  0  0999 V2000
   38.5020   22.8600   34.6010 N   0  0  0  0  0  0  0  0  0  0  0  0
   38.4640   24.3290   34.5410 C   0  0  0  0  0  0  0  0  0  0  0  0
   39.4470   24.6970   35.6330 C   0  0  1  0  0  0  0  0  0  0  0  0
   40.1630   23.4170   36.0310 C   0  0  0  0  0  0  0  0  0  0  0  0
   39.9290   22.5990   34.7650 C   0  0  0  0  0  0  0  0  0  0  0  0
   37.4370   21.9440   34.5140 C   0  0  0  0  0  0  0  0  0  0  0  0
   36.6870   21.5340   35.6220 C   0  0  0  0  0  0  0  0  0  0  0  0
   35.6580   20.6350   35.4110 C   0  0  0  0  0  0  0  0  0  0  0  0
   35.4100   20.1800   34.1310 N   0  0  0  0  0  0  0  0  0  0  0  0
   36.1530   20.5960   33.0800 C   0  0  0  0  0  0  0  0  0  0  0  0
   37.1410   21.4580   33.2850 N   0  0  0  0  0  0  0  0  0  0  0  0
   40.4260   25.5990   35.0020 N   0  0  0  0  0  0  0  0  0  0  0  0
   39.7250   26.8570   34.8010 C   0  0  0  0  0  0  0  0  0  0  0  0
   39.7660   27.1190   33.3500 C   0  0  0  0  0  0  0  0  0  0  0  0
   40.9240   27.0440   32.6560 N   0  0  0  0  0  0  0  0  0  0  0  0
   41.0570   27.2150   31.3510 C   0  0  0  0  0  0  0  0  0  0  0  0
   39.9940   27.4900   30.5840 N   0  0  0  0  0  0  0  0  0  0  0  0
   38.7850   27.5820   31.2160 C   0  0  0  0  0  0  0  0  0  0  0  0
   37.6890   27.8710   30.4380 C   0  0  0  0  0  0  0  0  0  0  0  0
   36.4400   27.9840   31.0360 C   0  0  0  0  0  0  0  0  0  0  0  0
   36.3240   27.8040   32.4140 C   0  0  0  0  0  0  0  0  0  0  0  0
   37.4490   27.5130   33.1580 C   0  0  0  0  0  0  0  0  0  0  0  0
   38.6680   27.4020   32.5690 C   0  0  0  0  0  0  0  0  0  0  0  0
   38.7946   24.7005   33.5598 H   0  0  0  0  0  0  0  0  0  0  0  0
   37.4605   24.7592   34.6750 H   0  0  0  0  0  0  0  0  0  0  0  0
   38.9678   25.1627   36.5068 H   0  0  0  0  0  0  0  0  0  0  0  0
   41.2335   23.5862   36.2191 H   0  0  0  0  0  0  0  0  0  0  0  0
   39.8101   22.9516   36.9631 H   0  0  0  0  0  0  0  0  0  0  0  0
   40.1403   21.5302   34.9169 H   0  0  0  0  0  0  0  0  0  0  0  0
   40.5643   22.8569   33.9048 H   0  0  0  0  0  0  0  0  0  0  0  0
   36.9093   21.9152   36.6296 H   0  0  0  0  0  0  0  0  0  0  0  0
   35.0434   20.2859   36.2538 H   0  0  0  0  0  0  0  0  0  0  0  0
   35.9407   20.2240   32.0668 H   0  0  0  0  0  0  0  0  0  0  0  0
   41.2394   25.7352   35.6190 H   0  0  0  0  0  0  0  0  0  0  0  0
   38.6835   26.7732   35.1448 H   0  0  0  0  0  0  0  0  0  0  0  0
   40.1922   27.6737   35.3709 H   0  0  0  0  0  0  0  0  0  0  0  0
   42.0523   27.1303   30.8904 H   0  0  0  0  0  0  0  0  0  0  0  0
   37.7998   28.0114   29.3526 H   0  0  0  0  0  0  0  0  0  0  0  0
   35.5518   28.2131   30.4288 H   0  0  0  0  0  0  0  0  0  0  0  0
   35.3432   27.8933   32.9040 H   0  0  0  0  0  0  0  0  0  0  0  0
   37.3573   27.3687   34.2446 H   0  0  0  0  0  0  0  0  0  0  0  0
  1  5  1  0
  2  1  1  0
  2  3  1  0
  3  4  1  0
  5  4  1  0
  6  1  1  0
  6  7  2  0
  8  7  1  0
  9  8  2  0
 10 11  2  0
 10  9  1  0
 11  6  1  0
 12  3  1  0
 13 12  1  0
 14 13  1  0
 15 14  2  0
 16 15  1  0
 17 18  1  0
 17 16  2  0
 18 23  2  0
 19 20  2  0
 19 18  1  0
 20 21  1  0
 21 22  2  0
 23 22  1  0
 23 14  1  0
  2 24  1  0
  2 25  1  0
  3 26  1  1
  4 27  1  0
  4 28  1  0
  5 29  1  0
  5 30  1  0
  7 31  1  0
  8 32  1  0
 10 33  1  0
 12 34  1  0
 13 35  1  0
 13 36  1  0
 16 37  1  0
 19 38  1  0
 20 39  1  0
 21 40  1  0
 22 41  1  0
M  ISO  8  24  13  25  13  26  13  27  13  28  13  29  13  30  13  31  14
M  ISO  8  32  14  33  14  34   5  35   8  36   8  37  14  38  14  39  14
M  ISO  2  40  14  41  14
M  END
>  <minimizedAffinity>  (1) 
-4.6339736

>  <minimizedRMSD>  (1) 
2.79829407

$$$$
