
     RDKit          3D

 38 41  0  0  1  0  0  0  0  0999 V2000
   38.2590   23.9830   34.7550 N   0  0  0  0  0  0  0  0  0  0  0  0
   38.3620   25.2850   34.0510 C   0  0  0  0  0  0  0  0  0  0  0  0
   38.9350   24.8270   32.7330 C   0  0  1  0  0  0  0  0  0  0  0  0
   38.9040   23.3040   32.7180 C   0  0  0  0  0  0  0  0  0  0  0  0
   37.7870   23.0990   33.7100 C   0  0  0  0  0  0  0  0  0  0  0  0
   38.5500   23.7250   36.1090 C   0  0  0  0  0  0  0  0  0  0  0  0
   39.6680   22.9970   36.5330 C   0  0  0  0  0  0  0  0  0  0  0  0
   39.8590   22.8000   37.8930 C   0  0  0  0  0  0  0  0  0  0  0  0
   38.9360   23.3310   38.7680 N   0  0  0  0  0  0  0  0  0  0  0  0
   37.8600   24.0320   38.3300 C   0  0  0  0  0  0  0  0  0  0  0  0
   37.6680   24.2270   37.0170 N   0  0  0  0  0  0  0  0  0  0  0  0
   38.1530   25.3650   31.6610 N   0  0  0  0  0  0  0  0  0  0  0  0
   37.5120   26.5600   32.1570 C   0  0  0  0  0  0  0  0  0  0  0  0
   37.6000   27.4980   31.0020 N   0  0  0  0  0  0  0  0  0  0  0  0
   36.6140   28.0580   30.2780 C   0  0  0  0  0  0  0  0  0  0  0  0
   37.1720   28.8370   29.3330 N   0  0  0  0  0  0  0  0  0  0  0  0
   38.5080   28.7460   29.4900 C   0  0  0  0  0  0  0  0  0  0  0  0
   39.5890   29.3150   28.8240 C   0  0  0  0  0  0  0  0  0  0  0  0
   40.8670   29.0480   29.1970 N   0  0  0  0  0  0  0  0  0  0  0  0
   41.1210   28.2120   30.2380 C   0  0  0  0  0  0  0  0  0  0  0  0
   40.0950   27.6400   30.9080 N   0  0  0  0  0  0  0  0  0  0  0  0
   38.8250   27.8970   30.5510 C   0  0  0  0  0  0  0  0  0  0  0  0
   37.3777   25.7597   33.9251 H   0  0  0  0  0  0  0  0  0  0  0  0
   38.9569   26.0482   34.5741 H   0  0  0  0  0  0  0  0  0  0  0  0
   39.9701   25.1774   32.6070 H   0  0  0  0  0  0  0  0  0  0  0  0
   38.6556   22.9034   31.7241 H   0  0  0  0  0  0  0  0  0  0  0  0
   39.8539   22.8025   32.9547 H   0  0  0  0  0  0  0  0  0  0  0  0
   36.8132   23.4159   33.3083 H   0  0  0  0  0  0  0  0  0  0  0  0
   37.6043   22.0576   34.0133 H   0  0  0  0  0  0  0  0  0  0  0  0
   40.3814   22.5890   35.8019 H   0  0  0  0  0  0  0  0  0  0  0  0
   40.7261   22.2337   38.2639 H   0  0  0  0  0  0  0  0  0  0  0  0
   37.1418   24.4423   39.0552 H   0  0  0  0  0  0  0  0  0  0  0  0
   37.4425   24.6807   31.3647 H   0  0  0  0  0  0  0  0  0  0  0  0
   36.4638   26.3627   32.4260 H   0  0  0  0  0  0  0  0  0  0  0  0
   37.9820   26.9545   33.0699 H   0  0  0  0  0  0  0  0  0  0  0  0
   35.5356   27.9052   30.4321 H   0  0  0  0  0  0  0  0  0  0  0  0
   39.4047   29.9944   27.9788 H   0  0  0  0  0  0  0  0  0  0  0  0
   42.1590   28.0011   30.5349 H   0  0  0  0  0  0  0  0  0  0  0  0
  1  6  1  0
  2  1  1  0
  3  2  1  0
  4  3  1  0
  4  5  1  0
  5  1  1  0
  6  7  2  0
  6 11  1  0
  7  8  1  0
  8  9  2  0
 10  9  1  0
 11 10  2  0
 12 13  1  0
 12  3  1  0
 14 13  1  0
 15 14  1  0
 16 17  1  0
 16 15  2  0
 17 22  2  0
 18 19  2  0
 18 17  1  0
 19 20  1  0
 20 21  2  0
 22 21  1  0
 22 14  1  0
  2 23  1  0
  2 24  1  0
  3 25  1  6
  4 26  1  0
  4 27  1  0
  5 28  1  0
  5 29  1  0
  7 30  1  0
  8 31  1  0
 10 32  1  0
 12 33  1  0
 13 34  1  0
 13 35  1  0
 15 36  1  0
 18 37  1  0
 20 38  1  0
M  ISO  8  23  13  24  13  25  13  26  13  27  13  28  13  29  13  30  14
M  ISO  8  31  14  32  14  33   5  34   8  35   8  36  14  37  14  38  14
M  END
>  <minimizedAffinity>  (1) 
-4.34806395

>  <minimizedRMSD>  (1) 
4.79618597

$$$$
