
     RDKit          3D

 35 37  0  0  1  0  0  0  0  0999 V2000
   36.3980   19.5110   31.9130 N   0  0  0  0  0  0  0  0  0  0  0  0
   37.4630   20.3040   32.5760 C   0  0  0  0  0  0  0  0  0  0  0  0
   36.6940   21.5430   32.9210 C   0  0  1  0  0  0  0  0  0  0  0  0
   35.2240   21.2940   32.6110 C   0  0  0  0  0  0  0  0  0  0  0  0
   35.2320   19.7890   32.7260 C   0  0  0  0  0  0  0  0  0  0  0  0
   36.5360   18.6930   30.7740 C   0  0  0  0  0  0  0  0  0  0  0  0
   36.6240   19.2160   29.4720 C   0  0  0  0  0  0  0  0  0  0  0  0
   36.7620   18.3600   28.3970 C   0  0  0  0  0  0  0  0  0  0  0  0
   36.8080   17.0060   28.6530 N   0  0  0  0  0  0  0  0  0  0  0  0
   36.7200   16.5170   29.9370 C   0  0  0  0  0  0  0  0  0  0  0  0
   36.5860   17.3560   30.9800 N   0  0  0  0  0  0  0  0  0  0  0  0
   36.8650   21.8200   34.3270 N   0  0  0  0  0  0  0  0  0  0  0  0
   38.2600   22.0060   34.5680 C   0  0  0  0  0  0  0  0  0  0  0  0
   38.6130   22.4350   35.9470 C   0  0  0  0  0  0  0  0  0  0  0  0
   37.6520   23.0420   36.7700 C   0  0  0  0  0  0  0  0  0  0  0  0
   37.8250   23.4850   38.0640 C   0  0  0  0  0  0  0  0  0  0  0  0
   39.0410   23.3270   38.6100 N   0  0  0  0  0  0  0  0  0  0  0  0
   39.9960   22.7510   37.8630 C   0  0  0  0  0  0  0  0  0  0  0  0
   39.7770   22.3380   36.6110 N   0  0  0  0  0  0  0  0  0  0  0  0
   37.8472   19.7993   33.4747 H   0  0  0  0  0  0  0  0  0  0  0  0
   38.3612   20.4734   31.9641 H   0  0  0  0  0  0  0  0  0  0  0  0
   37.0537   22.4038   32.3383 H   0  0  0  0  0  0  0  0  0  0  0  0
   34.9488   21.6325   31.6012 H   0  0  0  0  0  0  0  0  0  0  0  0
   34.5015   21.8214   33.2511 H   0  0  0  0  0  0  0  0  0  0  0  0
   34.3199   19.3377   32.3085 H   0  0  0  0  0  0  0  0  0  0  0  0
   35.2617   19.3910   33.7511 H   0  0  0  0  0  0  0  0  0  0  0  0
   36.5831   20.3032   29.3100 H   0  0  0  0  0  0  0  0  0  0  0  0
   36.8329   18.7461   27.3694 H   0  0  0  0  0  0  0  0  0  0  0  0
   36.7596   15.4316   30.1114 H   0  0  0  0  0  0  0  0  0  0  0  0
   36.3484   22.6740   34.5813 H   0  0  0  0  0  0  0  0  0  0  0  0
   38.7700   21.0523   34.3674 H   0  0  0  0  0  0  0  0  0  0  0  0
   38.5780   22.8230   33.9036 H   0  0  0  0  0  0  0  0  0  0  0  0
   36.6511   23.1794   36.3350 H   0  0  0  0  0  0  0  0  0  0  0  0
   37.0007   23.9487   38.6257 H   0  0  0  0  0  0  0  0  0  0  0  0
   40.9970   22.6137   38.2979 H   0  0  0  0  0  0  0  0  0  0  0  0
  1  2  1  0
  1  5  1  0
  2  3  1  0
  3 12  1  0
  4  5  1  0
  4  3  1  0
  6 11  1  0
  6  1  1  0
  7  6  2  0
  8  9  2  0
  8  7  1  0
  9 10  1  0
 10 11  2  0
 12 13  1  0
 13 14  1  0
 14 19  1  0
 14 15  2  0
 15 16  1  0
 16 17  2  0
 18 17  1  0
 19 18  2  0
  2 20  1  0
  2 21  1  0
  3 22  1  6
  4 23  1  0
  4 24  1  0
  5 25  1  0
  5 26  1  0
  7 27  1  0
  8 28  1  0
 10 29  1  0
 12 30  1  0
 13 31  1  0
 13 32  1  0
 15 33  1  0
 16 34  1  0
 18 35  1  0
M  ISO  8  20  13  21  13  22  13  23  13  24  13  25  13  26  13  27  14
M  ISO  8  28  14  29  14  30   5  31   8  32   8  33  14  34  14  35  14
M  END
>  <minimizedAffinity>  (1) 
-4.33592939

>  <minimizedRMSD>  (1) 
5.60891533

$$$$
