
     RDKit          3D

 34 36  0  0  1  0  0  0  0  0999 V2000
   38.4470   22.8570   34.4380 N   0  0  0  0  0  0  0  0  0  0  0  0
   37.7330   21.7640   33.7370 C   0  0  0  0  0  0  0  0  0  0  0  0
   36.9460   22.5580   32.7300 C   0  0  1  0  0  0  0  0  0  0  0  0
   37.4560   23.9810   32.7700 C   0  0  0  0  0  0  0  0  0  0  0  0
   38.8320   23.7170   33.3370 C   0  0  0  0  0  0  0  0  0  0  0  0
   38.6730   22.9770   35.8240 C   0  0  0  0  0  0  0  0  0  0  0  0
   39.8580   22.5760   36.4520 C   0  0  0  0  0  0  0  0  0  0  0  0
   39.9660   22.7500   37.8290 C   0  0  0  0  0  0  0  0  0  0  0  0
   38.9000   23.3100   38.5180 N   0  0  0  0  0  0  0  0  0  0  0  0
   37.7700   23.6830   37.8630 C   0  0  0  0  0  0  0  0  0  0  0  0
   37.6560   23.5210   36.5450 N   0  0  0  0  0  0  0  0  0  0  0  0
   37.1970   21.9760   31.4250 N   0  0  0  0  0  0  0  0  0  0  0  0
   36.0290   21.2350   31.0620 C   0  0  0  0  0  0  0  0  0  0  0  0
   36.0100   19.8310   31.5590 C   0  0  0  0  0  0  0  0  0  0  0  0
   34.9800   19.2000   32.2330 C   0  0  0  0  0  0  0  0  0  0  0  0
   35.2540   17.8900   32.5630 C   0  0  0  0  0  0  0  0  0  0  0  0
   36.4920   17.7490   32.0630 N   0  0  0  0  0  0  0  0  0  0  0  0
   36.9170   18.8390   31.4990 N   0  0  0  0  0  0  0  0  0  0  0  0
   38.4320   21.0682   33.2499 H   0  0  0  0  0  0  0  0  0  0  0  0
   37.1266   21.1183   34.3891 H   0  0  0  0  0  0  0  0  0  0  0  0
   35.8669   22.5453   32.9428 H   0  0  0  0  0  0  0  0  0  0  0  0
   37.5014   24.4322   31.7678 H   0  0  0  0  0  0  0  0  0  0  0  0
   36.8369   24.6920   33.3367 H   0  0  0  0  0  0  0  0  0  0  0  0
   39.4854   23.2021   32.6173 H   0  0  0  0  0  0  0  0  0  0  0  0
   39.4169   24.6083   33.6080 H   0  0  0  0  0  0  0  0  0  0  0  0
   40.6824   22.1349   35.8726 H   0  0  0  0  0  0  0  0  0  0  0  0
   40.8803   22.4488   38.3613 H   0  0  0  0  0  0  0  0  0  0  0  0
   36.9367   24.1253   38.4287 H   0  0  0  0  0  0  0  0  0  0  0  0
   37.3720   22.7199   30.7344 H   0  0  0  0  0  0  0  0  0  0  0  0
   35.1506   21.7561   31.4704 H   0  0  0  0  0  0  0  0  0  0  0  0
   36.0228   21.1785   29.9635 H   0  0  0  0  0  0  0  0  0  0  0  0
   34.0310   19.6971   32.4823 H   0  0  0  0  0  0  0  0  0  0  0  0
   34.6273   17.1576   33.0931 H   0  0  0  0  0  0  0  0  0  0  0  0
   37.0402   16.8789   32.1200 H   0  0  0  0  0  0  0  0  0  0  0  0
  1  6  1  0
  2  1  1  0
  3  4  1  0
  3  2  1  0
  4  5  1  0
  5  1  1  0
  6  7  2  0
  6 11  1  0
  7  8  1  0
  8  9  2  0
 10  9  1  0
 11 10  2  0
 12  3  1  0
 13 12  1  0
 13 14  1  0
 14 15  1  0
 15 16  2  0
 17 16  1  0
 18 14  2  0
 18 17  1  0
  2 19  1  0
  2 20  1  0
  3 21  1  1
  4 22  1  0
  4 23  1  0
  5 24  1  0
  5 25  1  0
  7 26  1  0
  8 27  1  0
 10 28  1  0
 12 29  1  0
 13 30  1  0
 13 31  1  0
 15 32  1  0
 16 33  1  0
 17 34  1  0
M  ISO  8  19  13  20  13  21  13  22  13  23  13  24  13  25  13  26  14
M  ISO  8  27  14  28  14  29   5  30   8  31   8  32  14  33  14  34   9
M  END
>  <minimizedAffinity>  (1) 
-4.30308342

>  <minimizedRMSD>  (1) 
6.96697855

$$$$
