
     RDKit          3D

 34 36  0  0  1  0  0  0  0  0999 V2000
   38.5850   25.8850   35.2010 N   0  0  0  0  0  0  0  0  0  0  0  0
   37.8750   25.8280   33.8900 C   0  0  0  0  0  0  0  0  0  0  0  0
   37.0560   27.0740   33.9680 C   0  0  1  0  0  0  0  0  0  0  0  0
   37.4460   27.8090   35.2420 C   0  0  0  0  0  0  0  0  0  0  0  0
   38.8540   27.2970   35.3860 C   0  0  0  0  0  0  0  0  0  0  0  0
   38.9060   24.7920   36.0390 C   0  0  0  0  0  0  0  0  0  0  0  0
   38.1410   24.5080   37.2030 C   0  0  0  0  0  0  0  0  0  0  0  0
   38.5110   23.4250   37.9840 C   0  0  0  0  0  0  0  0  0  0  0  0
   39.6130   22.6720   37.5830 N   0  0  0  0  0  0  0  0  0  0  0  0
   40.3070   22.9880   36.4610 C   0  0  0  0  0  0  0  0  0  0  0  0
   39.9540   24.0330   35.7060 N   0  0  0  0  0  0  0  0  0  0  0  0
   37.2670   27.8770   32.8190 N   0  0  0  0  0  0  0  0  0  0  0  0
   38.2470   27.2970   31.9660 C   0  0  0  0  0  0  0  0  0  0  0  0
   38.3200   27.7410   30.5850 C   0  0  0  0  0  0  0  0  0  0  0  0
   39.2270   27.6130   29.5260 C   0  0  0  0  0  0  0  0  0  0  0  0
   38.8030   28.2110   28.4050 N   0  0  0  0  0  0  0  0  0  0  0  0
   37.6120   28.7530   28.6810 C   0  0  0  0  0  0  0  0  0  0  0  0
   37.3570   28.4600   29.9680 N   0  0  0  0  0  0  0  0  0  0  0  0
   37.2430   24.9313   33.8094 H   0  0  0  0  0  0  0  0  0  0  0  0
   38.5367   25.7692   33.0132 H   0  0  0  0  0  0  0  0  0  0  0  0
   35.9833   26.8322   33.9967 H   0  0  0  0  0  0  0  0  0  0  0  0
   37.4151   28.9011   35.1143 H   0  0  0  0  0  0  0  0  0  0  0  0
   36.7890   27.6378   36.1075 H   0  0  0  0  0  0  0  0  0  0  0  0
   39.2746   27.5128   36.3792 H   0  0  0  0  0  0  0  0  0  0  0  0
   39.5960   27.7369   34.7034 H   0  0  0  0  0  0  0  0  0  0  0  0
   37.2775   25.1320   37.4766 H   0  0  0  0  0  0  0  0  0  0  0  0
   37.9508   23.1668   38.8948 H   0  0  0  0  0  0  0  0  0  0  0  0
   41.1726   22.3755   36.1684 H   0  0  0  0  0  0  0  0  0  0  0  0
   36.3804   27.9656   32.3023 H   0  0  0  0  0  0  0  0  0  0  0  0
   39.2291   27.4924   32.4213 H   0  0  0  0  0  0  0  0  0  0  0  0
   37.9458   26.2417   31.8918 H   0  0  0  0  0  0  0  0  0  0  0  0
   40.1851   27.0786   29.6061 H   0  0  0  0  0  0  0  0  0  0  0  0
   36.9703   29.3236   27.9935 H   0  0  0  0  0  0  0  0  0  0  0  0
   36.4954   28.7600   30.4460 H   0  0  0  0  0  0  0  0  0  0  0  0
  1  5  1  0
  1  6  1  0
  2  3  1  0
  2  1  1  0
  3  4  1  0
  4  5  1  0
  6  7  2  0
  7  8  1  0
  9  8  2  0
 10  9  1  0
 11  6  1  0
 11 10  2  0
 12  3  1  0
 13 12  1  0
 14 13  1  0
 15 14  2  0
 16 17  2  0
 16 15  1  0
 17 18  1  0
 18 14  1  0
  2 19  1  0
  2 20  1  0
  3 21  1  1
  4 22  1  0
  4 23  1  0
  5 24  1  0
  5 25  1  0
  7 26  1  0
  8 27  1  0
 10 28  1  0
 12 29  1  0
 13 30  1  0
 13 31  1  0
 15 32  1  0
 17 33  1  0
 18 34  1  0
M  ISO  8  19  13  20  13  21  13  22  13  23  13  24  13  25  13  26  14
M  ISO  8  27  14  28  14  29   5  30   8  31   8  32  14  33  14  34   9
M  END
>  <minimizedAffinity>  (1) 
-4.16636086

>  <minimizedRMSD>  (1) 
5.63634729

$$$$
