
     RDKit          3D

 40 42  0  0  1  0  0  0  0  0999 V2000
   38.1320   22.1170   34.0180 N   0  0  0  0  0  0  0  0  0  0  0  0
   37.8930   23.5470   34.3440 C   0  0  0  0  0  0  0  0  0  0  0  0
   38.3830   23.5830   35.7520 C   0  0  1  0  0  0  0  0  0  0  0  0
   39.0600   22.2620   36.0580 C   0  0  0  0  0  0  0  0  0  0  0  0
   39.4150   21.8510   34.6560 C   0  0  0  0  0  0  0  0  0  0  0  0
   37.3010   21.2650   33.2670 C   0  0  0  0  0  0  0  0  0  0  0  0
   36.0280   20.8740   33.7000 C   0  0  0  0  0  0  0  0  0  0  0  0
   35.2780   20.0330   32.9010 C   0  0  0  0  0  0  0  0  0  0  0  0
   35.8160   19.6110   31.7040 N   0  0  0  0  0  0  0  0  0  0  0  0
   37.0560   20.0080   31.3090 C   0  0  0  0  0  0  0  0  0  0  0  0
   37.7950   20.8290   32.0840 N   0  0  0  0  0  0  0  0  0  0  0  0
   39.2920   24.6540   35.9350 N   0  0  0  0  0  0  0  0  0  0  0  0
   39.5350   25.3020   34.6850 C   0  0  0  0  0  0  0  0  0  0  0  0
   39.4930   26.8040   34.7020 C   0  0  0  0  0  0  0  0  0  0  0  0
   38.4290   27.3220   35.6680 C   0  0  0  0  0  0  0  0  0  0  0  0
   37.1490   27.0530   34.9360 C   0  0  0  0  0  0  0  0  0  0  0  0
   37.4670   27.3880   33.5190 C   0  0  0  0  0  0  0  0  0  0  0  0
   38.9690   27.3930   33.3850 C   0  0  0  0  0  0  0  0  0  0  0  0
   38.4750   24.2159   33.6930 H   0  0  0  0  0  0  0  0  0  0  0  0
   36.8545   23.8835   34.2084 H   0  0  0  0  0  0  0  0  0  0  0  0
   37.5356   23.7388   36.4358 H   0  0  0  0  0  0  0  0  0  0  0  0
   39.9520   22.3917   36.6884 H   0  0  0  0  0  0  0  0  0  0  0  0
   38.4542   21.5393   36.6244 H   0  0  0  0  0  0  0  0  0  0  0  0
   39.6956   20.7892   34.5944 H   0  0  0  0  0  0  0  0  0  0  0  0
   40.2821   22.3638   34.2143 H   0  0  0  0  0  0  0  0  0  0  0  0
   35.6313   21.2311   34.6618 H   0  0  0  0  0  0  0  0  0  0  0  0
   34.2746   19.7075   33.2127 H   0  0  0  0  0  0  0  0  0  0  0  0
   37.4601   19.6562   30.3483 H   0  0  0  0  0  0  0  0  0  0  0  0
   38.8923   25.3319   36.5995 H   0  0  0  0  0  0  0  0  0  0  0  0
   38.7746   24.9522   33.9713 H   0  0  0  0  0  0  0  0  0  0  0  0
   40.5666   25.0375   34.4097 H   0  0  0  0  0  0  0  0  0  0  0  0
   40.5277   27.0875   34.9448 H   0  0  0  0  0  0  0  0  0  0  0  0
   38.4613   26.7752   36.6219 H   0  0  0  0  0  0  0  0  0  0  0  0
   38.5626   28.3813   35.9324 H   0  0  0  0  0  0  0  0  0  0  0  0
   36.8581   25.9965   35.0322 H   0  0  0  0  0  0  0  0  0  0  0  0
   36.3048   27.6378   35.3302 H   0  0  0  0  0  0  0  0  0  0  0  0
   37.0318   26.6336   32.8471 H   0  0  0  0  0  0  0  0  0  0  0  0
   37.0488   28.3685   33.2476 H   0  0  0  0  0  0  0  0  0  0  0  0
   39.2822   26.7717   32.5330 H   0  0  0  0  0  0  0  0  0  0  0  0
   39.3619   28.4040   33.2019 H   0  0  0  0  0  0  0  0  0  0  0  0
  1  2  1  0
  1  5  1  0
  2  3  1  0
  3 12  1  0
  3  4  1  0
  5  4  1  0
  6  7  2  0
  6  1  1  0
  8  7  1  0
  9  8  2  0
 10  9  1  0
 10 11  2  0
 11  6  1  0
 13 14  1  0
 13 12  1  0
 14 15  1  0
 16 15  1  0
 17 16  1  0
 18 17  1  0
 18 14  1  0
  2 19  1  0
  2 20  1  0
  3 21  1  1
  4 22  1  0
  4 23  1  0
  5 24  1  0
  5 25  1  0
  7 26  1  0
  8 27  1  0
 10 28  1  0
 12 29  1  0
 13 30  1  0
 13 31  1  0
 14 32  1  0
 15 33  1  0
 15 34  1  0
 16 35  1  0
 16 36  1  0
 17 37  1  0
 17 38  1  0
 18 39  1  0
 18 40  1  0
M  ISO  8  19  13  20  13  21  13  22  13  23  13  24  13  25  13  26  14
M  ISO  8  27  14  28  14  29   5  30   8  31   8  32  13  33  13  34  13
M  ISO  6  35  13  36  13  37  13  38  13  39  13  40  13
M  END
>  <minimizedAffinity>  (1) 
-4.14593649

>  <minimizedRMSD>  (1) 
2.13654065

$$$$
