
     RDKit          3D

 57 61  0  0  1  0  0  0  0  0999 V2000
   42.1500   26.3860   31.3680 C   0  0  1  0  0  0  0  0  0  0  0  0
   42.5870   26.7740   30.0000 C   0  0  0  0  0  0  0  0  0  0  0  0
   43.6180   27.8350   29.9300 C   0  0  0  0  0  0  0  0  0  0  0  0
   44.5880   27.9210   31.0360 C   0  0  0  0  0  0  0  0  0  0  0  0
   43.9040   27.8730   32.3690 C   0  0  0  0  0  0  0  0  0  0  0  0
   43.1340   26.6140   32.4850 C   0  0  2  0  0  0  0  0  0  0  0  0
   43.9460   25.4220   32.7890 C   0  0  0  0  0  0  0  0  0  0  0  0
   44.4600   24.6730   31.7420 C   0  0  0  0  0  0  0  0  0  0  0  0
   45.1970   23.5180   31.9130 C   0  0  0  0  0  0  0  0  0  0  0  0
   45.4630   23.0430   33.1910 C   0  0  0  0  0  0  0  0  0  0  0  0
   44.9750   23.7510   34.2680 C   0  0  0  0  0  0  0  0  0  0  0  0
   45.2470   23.2970   35.5170 C   0  0  0  0  0  0  0  0  0  0  0  0
   44.7800   24.0020   36.6330 C   0  0  0  0  0  0  0  0  0  0  0  0
   44.0450   25.1600   36.4100 C   0  0  0  0  0  0  0  0  0  0  0  0
   43.7950   25.5810   35.1250 C   0  0  0  0  0  0  0  0  0  0  0  0
   44.2480   24.8940   34.0230 C   0  0  0  0  0  0  0  0  0  0  0  0
   40.7850   26.9740   31.6830 C   0  0  0  0  0  0  0  0  0  0  0  0
   38.8160   24.4900   33.6780 N   0  0  0  0  0  0  0  0  0  0  0  0
   39.7310   25.4400   33.4210 C   0  0  0  0  0  0  0  0  0  0  0  0
   39.8250   25.9330   32.1270 C   0  0  0  0  0  0  0  0  0  0  0  0
   38.9640   25.4200   31.1470 C   0  0  0  0  0  0  0  0  0  0  0  0
   38.9570   25.7870   29.9470 O   0  0  0  0  0  0  0  0  0  0  0  0
   38.0490   24.4550   31.4510 N   0  0  0  0  0  0  0  0  0  0  0  0
   38.0020   24.0150   32.7150 C   0  0  0  0  0  0  0  0  0  0  0  0
   37.1660   23.1300   33.0060 O   0  0  0  0  0  0  0  0  0  0  0  0
   38.0150   24.7380   35.9450 C   0  0  0  0  0  0  0  0  0  0  0  0
   38.8070   24.0520   35.0170 C   0  0  0  0  0  0  0  0  0  0  0  0
   39.5280   22.9860   35.4950 C   0  0  0  0  0  0  0  0  0  0  0  0
   39.4510   22.6410   36.8210 N   0  0  0  0  0  0  0  0  0  0  0  0
   38.6710   23.3360   37.6760 C   0  0  0  0  0  0  0  0  0  0  0  0
   37.9620   24.3790   37.2240 N   0  0  0  0  0  0  0  0  0  0  0  0
   38.7600   22.7850   38.9890 N   0  0  0  0  0  0  0  0  0  0  0  0
   42.0831   25.2888   31.3276 H   0  0  0  0  0  0  0  0  0  0  0  0
   42.9914   25.8773   29.5077 H   0  0  0  0  0  0  0  0  0  0  0  0
   41.6955   27.1904   29.5082 H   0  0  0  0  0  0  0  0  0  0  0  0
   44.1894   27.6774   29.0033 H   0  0  0  0  0  0  0  0  0  0  0  0
   43.0520   28.7768   29.9824 H   0  0  0  0  0  0  0  0  0  0  0  0
   45.2894   27.0768   30.9632 H   0  0  0  0  0  0  0  0  0  0  0  0
   45.1210   28.8798   30.9550 H   0  0  0  0  0  0  0  0  0  0  0  0
   44.6575   27.9168   33.1692 H   0  0  0  0  0  0  0  0  0  0  0  0
   43.2205   28.7299   32.4608 H   0  0  0  0  0  0  0  0  0  0  0  0
   42.5219   26.7747   33.3847 H   0  0  0  0  0  0  0  0  0  0  0  0
   44.2697   25.0189   30.7153 H   0  0  0  0  0  0  0  0  0  0  0  0
   45.5743   22.9728   31.0353 H   0  0  0  0  0  0  0  0  0  0  0  0
   46.0490   22.1240   33.3398 H   0  0  0  0  0  0  0  0  0  0  0  0
   45.8335   22.3764   35.6529 H   0  0  0  0  0  0  0  0  0  0  0  0
   44.9884   23.6502   37.6542 H   0  0  0  0  0  0  0  0  0  0  0  0
   43.6627   25.7406   37.2625 H   0  0  0  0  0  0  0  0  0  0  0  0
   43.2113   26.5009   34.9729 H   0  0  0  0  0  0  0  0  0  0  0  0
   40.8952   27.7210   32.4829 H   0  0  0  0  0  0  0  0  0  0  0  0
   40.3905   27.4331   30.7645 H   0  0  0  0  0  0  0  0  0  0  0  0
   40.3896   25.8178   34.2170 H   0  0  0  0  0  0  0  0  0  0  0  0
   37.4153   24.0773   30.7322 H   0  0  0  0  0  0  0  0  0  0  0  0
   37.4195   25.5987   35.6065 H   0  0  0  0  0  0  0  0  0  0  0  0
   40.1688   22.4071   34.8136 H   0  0  0  0  0  0  0  0  0  0  0  0
   38.2217   23.2038   39.7608 H   0  0  0  0  0  0  0  0  0  0  0  0
   39.3625   21.9684   39.1651 H   0  0  0  0  0  0  0  0  0  0  0  0
  1 17  1  0
  1  6  1  0
  2  1  1  0
  3  2  1  0
  3  4  1  0
  4  5  1  0
  5  6  1  0
  6  7  1  0
  7 16  2  0
  8  9  2  0
  8  7  1  0
  9 10  1  0
 10 11  2  0
 11 12  1  0
 12 13  2  0
 14 13  1  0
 15 14  2  0
 16 11  1  0
 16 15  1  0
 17 20  1  0
 18 27  1  0
 19 18  1  0
 20 19  2  0
 21 23  1  0
 21 20  1  0
 22 21  2  0
 23 24  1  0
 24 25  2  0
 24 18  1  0
 26 31  2  0
 27 28  2  0
 27 26  1  0
 28 29  1  0
 29 30  2  0
 30 32  1  0
 31 30  1  0
  1 33  1  6
  2 34  1  0
  2 35  1  0
  3 36  1  0
  3 37  1  0
  4 38  1  0
  4 39  1  0
  5 40  1  0
  5 41  1  0
  6 42  1  1
  8 43  1  0
  9 44  1  0
 10 45  1  0
 12 46  1  0
 13 47  1  0
 14 48  1  0
 15 49  1  0
 17 50  1  0
 17 51  1  0
 19 52  1  0
 23 53  1  0
 26 54  1  0
 28 55  1  0
 32 56  1  0
 32 57  1  0
M  ISO  8  33  13  34  13  35  13  36  13  37  13  38  13  39  13  40  13
M  ISO  8  41  13  42  13  43  14  44  14  45  14  46  14  47  14  48  14
M  ISO  7  49  14  50   8  51   8  52  14  53   9  54  14  55  14
M  END
>  <minimizedAffinity>  (1) 
-5.11988878

>  <minimizedRMSD>  (1) 
2.0784142

$$$$
