
     RDKit          3D

 42 44  0  0  1  0  0  0  0  0999 V2000
   36.4240   21.6610   32.3670 N   0  0  0  0  0  0  0  0  0  0  0  0
   37.4140   22.4860   33.0990 C   0  0  0  0  0  0  0  0  0  0  0  0
   37.5340   23.6540   32.1630 C   0  0  1  0  0  0  0  0  0  0  0  0
   36.4740   23.5020   31.0820 C   0  0  0  0  0  0  0  0  0  0  0  0
   35.4980   22.6520   31.8500 C   0  0  0  0  0  0  0  0  0  0  0  0
   36.4250   20.2530   32.2360 C   0  0  0  0  0  0  0  0  0  0  0  0
   37.4480   19.5450   31.5950 C   0  0  0  0  0  0  0  0  0  0  0  0
   37.3600   18.1700   31.5210 C   0  0  0  0  0  0  0  0  0  0  0  0
   36.2510   17.5490   32.0920 N   0  0  0  0  0  0  0  0  0  0  0  0
   35.2770   18.2660   32.7060 C   0  0  0  0  0  0  0  0  0  0  0  0
   35.3630   19.6010   32.7780 N   0  0  0  0  0  0  0  0  0  0  0  0
   37.3510   24.8700   32.8930 N   0  0  0  0  0  0  0  0  0  0  0  0
   37.2390   25.9410   31.9460 C   0  0  0  0  0  0  0  0  0  0  0  0
   37.6490   27.2400   32.4480 N   0  0  0  0  0  0  0  0  0  0  0  0
   37.8910   27.2200   33.8670 C   0  0  0  0  0  0  0  0  0  0  0  0
   36.7130   27.4910   34.7310 C   0  0  0  0  0  0  0  0  0  0  0  0
   36.2340   28.9020   34.3690 C   0  0  0  0  0  0  0  0  0  0  0  0
   35.7710   28.7860   32.9380 C   0  0  0  0  0  0  0  0  0  0  0  0
   36.8420   28.3080   31.9960 C   0  0  0  0  0  0  0  0  0  0  0  0
   37.0380   22.7925   34.0862 H   0  0  0  0  0  0  0  0  0  0  0  0
   38.3626   21.9761   33.3232 H   0  0  0  0  0  0  0  0  0  0  0  0
   38.5299   23.6842   31.6969 H   0  0  0  0  0  0  0  0  0  0  0  0
   36.8612   22.9869   30.1905 H   0  0  0  0  0  0  0  0  0  0  0  0
   36.0721   24.4394   30.6699 H   0  0  0  0  0  0  0  0  0  0  0  0
   35.0039   23.2154   32.6552 H   0  0  0  0  0  0  0  0  0  0  0  0
   34.6539   22.2545   31.2674 H   0  0  0  0  0  0  0  0  0  0  0  0
   38.3069   20.0753   31.1579 H   0  0  0  0  0  0  0  0  0  0  0  0
   38.1444   17.5798   31.0245 H   0  0  0  0  0  0  0  0  0  0  0  0
   34.4122   17.7487   33.1470 H   0  0  0  0  0  0  0  0  0  0  0  0
   36.4924   24.8124   33.4591 H   0  0  0  0  0  0  0  0  0  0  0  0
   36.1873   26.0116   31.6314 H   0  0  0  0  0  0  0  0  0  0  0  0
   37.9226   25.6975   31.1193 H   0  0  0  0  0  0  0  0  0  0  0  0
   38.2787   26.2244   34.1286 H   0  0  0  0  0  0  0  0  0  0  0  0
   38.5964   28.0417   34.0599 H   0  0  0  0  0  0  0  0  0  0  0  0
   35.9184   26.7562   34.5343 H   0  0  0  0  0  0  0  0  0  0  0  0
   36.9719   27.4164   35.7975 H   0  0  0  0  0  0  0  0  0  0  0  0
   35.4049   29.2111   35.0224 H   0  0  0  0  0  0  0  0  0  0  0  0
   37.0236   29.6576   34.4940 H   0  0  0  0  0  0  0  0  0  0  0  0
   34.9321   28.0755   32.9003 H   0  0  0  0  0  0  0  0  0  0  0  0
   35.4795   29.7948   32.6102 H   0  0  0  0  0  0  0  0  0  0  0  0
   37.5042   29.1601   31.7829 H   0  0  0  0  0  0  0  0  0  0  0  0
   36.3049   27.9161   31.1197 H   0  0  0  0  0  0  0  0  0  0  0  0
  1  2  1  0
  3 12  1  0
  3  2  1  0
  4  5  1  0
  4  3  1  0
  5  1  1  0
  6  1  1  0
  6 11  1  0
  7  6  2  0
  8  7  1  0
  8  9  2  0
  9 10  1  0
 10 11  2  0
 13 14  1  0
 13 12  1  0
 14 15  1  0
 15 16  1  0
 17 16  1  0
 18 17  1  0
 19 14  1  0
 19 18  1  0
  2 20  1  0
  2 21  1  0
  3 22  1  6
  4 23  1  0
  4 24  1  0
  5 25  1  0
  5 26  1  0
  7 27  1  0
  8 28  1  0
 10 29  1  0
 12 30  1  0
 13 31  1  0
 13 32  1  0
 15 33  1  0
 15 34  1  0
 16 35  1  0
 16 36  1  0
 17 37  1  0
 17 38  1  0
 18 39  1  0
 18 40  1  0
 19 41  1  0
 19 42  1  0
M  ISO  8  20  13  21  13  22  13  23  13  24  13  25  13  26  13  27  14
M  ISO  8  28  14  29  14  30   5  31   8  32   8  33  13  34  13  35  13
M  ISO  7  36  13  37  13  38  13  39  13  40  13  41  13  42  13
M  END
>  <minimizedAffinity>  (1) 
-4.08373356

>  <minimizedRMSD>  (1) 
4.03386211

$$$$
