
     RDKit          3D

 34 36  0  0  1  0  0  0  0  0999 V2000
   38.0390   22.1630   34.3490 N   0  0  0  0  0  0  0  0  0  0  0  0
   38.6100   23.4580   33.8890 C   0  0  0  0  0  0  0  0  0  0  0  0
   38.3440   24.3150   35.0930 C   0  0  1  0  0  0  0  0  0  0  0  0
   37.8700   23.3950   36.2090 C   0  0  0  0  0  0  0  0  0  0  0  0
   38.4870   22.0930   35.7260 C   0  0  0  0  0  0  0  0  0  0  0  0
   37.2650   21.2680   33.5820 C   0  0  0  0  0  0  0  0  0  0  0  0
   35.9620   20.8800   33.9160 C   0  0  0  0  0  0  0  0  0  0  0  0
   35.2970   19.9890   33.0870 C   0  0  0  0  0  0  0  0  0  0  0  0
   35.9550   19.5210   31.9570 N   0  0  0  0  0  0  0  0  0  0  0  0
   37.2190   19.9190   31.6620 C   0  0  0  0  0  0  0  0  0  0  0  0
   37.8570   20.7820   32.4710 N   0  0  0  0  0  0  0  0  0  0  0  0
   39.5800   24.9440   35.4850 N   0  0  0  0  0  0  0  0  0  0  0  0
   39.7580   26.1190   34.7080 C   0  0  0  0  0  0  0  0  0  0  0  0
   38.5280   26.9170   34.4460 C   0  0  0  0  0  0  0  0  0  0  0  0
   37.7970   27.6570   35.3960 C   0  0  0  0  0  0  0  0  0  0  0  0
   36.7110   28.2770   34.8120 C   0  0  0  0  0  0  0  0  0  0  0  0
   36.8650   27.8550   33.5070 C   0  0  0  0  0  0  0  0  0  0  0  0
   37.8990   27.0840   33.3100 O   0  0  0  0  0  0  0  0  0  0  0  0
   39.6865   23.3756   33.6785 H   0  0  0  0  0  0  0  0  0  0  0  0
   38.1833   23.8403   32.9499 H   0  0  0  0  0  0  0  0  0  0  0  0
   37.5889   25.0862   34.8806 H   0  0  0  0  0  0  0  0  0  0  0  0
   38.2650   23.6993   37.1895 H   0  0  0  0  0  0  0  0  0  0  0  0
   36.7822   23.3705   36.3704 H   0  0  0  0  0  0  0  0  0  0  0  0
   38.0807   21.2174   36.2534 H   0  0  0  0  0  0  0  0  0  0  0  0
   39.5709   21.9840   35.8785 H   0  0  0  0  0  0  0  0  0  0  0  0
   35.4745   21.2747   34.8196 H   0  0  0  0  0  0  0  0  0  0  0  0
   34.2730   19.6608   33.3189 H   0  0  0  0  0  0  0  0  0  0  0  0
   37.7207   19.5354   30.7614 H   0  0  0  0  0  0  0  0  0  0  0  0
   39.5416   25.1914   36.4841 H   0  0  0  0  0  0  0  0  0  0  0  0
   40.4742   26.7665   35.2351 H   0  0  0  0  0  0  0  0  0  0  0  0
   40.1057   25.7750   33.7227 H   0  0  0  0  0  0  0  0  0  0  0  0
   38.0573   27.7309   36.4622 H   0  0  0  0  0  0  0  0  0  0  0  0
   35.9416   28.9235   35.2593 H   0  0  0  0  0  0  0  0  0  0  0  0
   36.1744   28.1442   32.7011 H   0  0  0  0  0  0  0  0  0  0  0  0
  1  5  1  0
  2  1  1  0
  2  3  1  0
  3 12  1  0
  3  4  1  0
  5  4  1  0
  6  7  2  0
  6  1  1  0
  8  7  1  0
  9  8  2  0
 10  9  1  0
 10 11  2  0
 11  6  1  0
 13 12  1  0
 14 13  1  0
 14 15  2  0
 16 15  1  0
 17 16  2  0
 18 17  1  0
 18 14  1  0
  2 19  1  0
  2 20  1  0
  3 21  1  6
  4 22  1  0
  4 23  1  0
  5 24  1  0
  5 25  1  0
  7 26  1  0
  8 27  1  0
 10 28  1  0
 12 29  1  0
 13 30  1  0
 13 31  1  0
 15 32  1  0
 16 33  1  0
 17 34  1  0
M  ISO  8  19  13  20  13  21  13  22  13  23  13  24  13  25  13  26  14
M  ISO  8  27  14  28  14  29   5  30   8  31   8  32  14  33  14  34  14
M  END
>  <minimizedAffinity>  (1) 
-4.00163031

>  <minimizedRMSD>  (1) 
2.76617813

$$$$
