
     RDKit          3D

 34 36  0  0  1  0  0  0  0  0999 V2000
   37.9910   22.3140   34.4280 N   0  0  0  0  0  0  0  0  0  0  0  0
   38.2540   23.7100   33.9930 C   0  0  0  0  0  0  0  0  0  0  0  0
   38.0300   24.4510   35.2840 C   0  0  1  0  0  0  0  0  0  0  0  0
   37.9070   23.4080   36.3830 C   0  0  0  0  0  0  0  0  0  0  0  0
   38.6590   22.2670   35.7120 C   0  0  0  0  0  0  0  0  0  0  0  0
   37.2700   21.3310   33.7190 C   0  0  0  0  0  0  0  0  0  0  0  0
   36.0060   20.8680   34.0870 C   0  0  0  0  0  0  0  0  0  0  0  0
   35.4060   19.8950   33.3070 C   0  0  0  0  0  0  0  0  0  0  0  0
   36.0790   19.4190   32.1940 N   0  0  0  0  0  0  0  0  0  0  0  0
   37.3070   19.8930   31.8650 C   0  0  0  0  0  0  0  0  0  0  0  0
   37.8940   20.8390   32.6210 N   0  0  0  0  0  0  0  0  0  0  0  0
   39.2020   25.2700   35.5270 N   0  0  0  0  0  0  0  0  0  0  0  0
   39.3150   26.1960   34.4570 C   0  0  0  0  0  0  0  0  0  0  0  0
   38.1470   27.0590   34.2770 N   0  0  0  0  0  0  0  0  0  0  0  0
   37.4770   27.7570   35.1770 N   0  0  0  0  0  0  0  0  0  0  0  0
   36.4830   28.4010   34.5520 C   0  0  0  0  0  0  0  0  0  0  0  0
   36.4560   28.1520   33.2050 C   0  0  0  0  0  0  0  0  0  0  0  0
   37.5290   27.2960   33.0750 C   0  0  0  0  0  0  0  0  0  0  0  0
   39.2843   23.8336   33.6281 H   0  0  0  0  0  0  0  0  0  0  0  0
   37.6290   24.0528   33.1552 H   0  0  0  0  0  0  0  0  0  0  0  0
   37.1295   25.0818   35.2502 H   0  0  0  0  0  0  0  0  0  0  0  0
   38.3937   23.7312   37.3150 H   0  0  0  0  0  0  0  0  0  0  0  0
   36.8804   23.1754   36.7023 H   0  0  0  0  0  0  0  0  0  0  0  0
   38.5056   21.3071   36.2268 H   0  0  0  0  0  0  0  0  0  0  0  0
   39.7550   22.3578   35.6899 H   0  0  0  0  0  0  0  0  0  0  0  0
   35.4980   21.2675   34.9771 H   0  0  0  0  0  0  0  0  0  0  0  0
   34.4105   19.5059   33.5668 H   0  0  0  0  0  0  0  0  0  0  0  0
   37.8249   19.5024   30.9766 H   0  0  0  0  0  0  0  0  0  0  0  0
   39.0972   25.7757   36.4182 H   0  0  0  0  0  0  0  0  0  0  0  0
   40.1893   26.8359   34.6470 H   0  0  0  0  0  0  0  0  0  0  0  0
   39.4100   25.6012   33.5365 H   0  0  0  0  0  0  0  0  0  0  0  0
   35.7657   29.0588   35.0647 H   0  0  0  0  0  0  0  0  0  0  0  0
   35.7663   28.5315   32.4367 H   0  0  0  0  0  0  0  0  0  0  0  0
   37.8516   26.8550   32.1203 H   0  0  0  0  0  0  0  0  0  0  0  0
  1  5  1  0
  2  1  1  0
  2  3  1  0
  3 12  1  0
  3  4  1  0
  5  4  1  0
  6  7  2  0
  6  1  1  0
  8  7  1  0
  9  8  2  0
 10  9  1  0
 10 11  2  0
 11  6  1  0
 13 12  1  0
 14 13  1  0
 14 15  1  0
 16 15  2  0
 17 16  1  0
 18 17  2  0
 18 14  1  0
  2 19  1  0
  2 20  1  0
  3 21  1  6
  4 22  1  0
  4 23  1  0
  5 24  1  0
  5 25  1  0
  7 26  1  0
  8 27  1  0
 10 28  1  0
 12 29  1  0
 13 30  1  0
 13 31  1  0
 16 32  1  0
 17 33  1  0
 18 34  1  0
M  ISO  8  19  13  20  13  21  13  22  13  23  13  24  13  25  13  26  14
M  ISO  8  27  14  28  14  29   5  30   8  31   8  32  14  33  14  34  14
M  END
>  <minimizedAffinity>  (1) 
-3.85397816

>  <minimizedRMSD>  (1) 
2.94489551

$$$$
