
     RDKit          3D

 34 36  0  0  1  0  0  0  0  0999 V2000
   37.8810   22.3650   33.8580 N   0  0  0  0  0  0  0  0  0  0  0  0
   37.8210   23.8410   33.9960 C   0  0  0  0  0  0  0  0  0  0  0  0
   38.1060   23.9780   35.4700 C   0  0  1  0  0  0  0  0  0  0  0  0
   38.4950   22.6100   36.0160 C   0  0  0  0  0  0  0  0  0  0  0  0
   38.9940   22.0040   34.7200 C   0  0  0  0  0  0  0  0  0  0  0  0
   37.0520   21.5400   33.0720 C   0  0  0  0  0  0  0  0  0  0  0  0
   35.9700   20.8050   33.6290 C   0  0  0  0  0  0  0  0  0  0  0  0
   35.2120   20.0100   32.7920 C   0  0  0  0  0  0  0  0  0  0  0  0
   35.5310   19.9580   31.4530 N   0  0  0  0  0  0  0  0  0  0  0  0
   36.5810   20.6830   30.9600 C   0  0  0  0  0  0  0  0  0  0  0  0
   37.3440   21.4720   31.7560 N   0  0  0  0  0  0  0  0  0  0  0  0
   39.1310   24.9230   35.6970 N   0  0  0  0  0  0  0  0  0  0  0  0
   38.9480   26.0460   34.7800 C   0  0  0  0  0  0  0  0  0  0  0  0
   40.2260   26.8890   34.8890 C   0  0  0  0  0  0  0  0  0  0  0  0
   40.8720   27.2340   33.5400 C   0  0  0  0  0  0  0  0  0  0  0  0
   41.5000   26.2800   34.4980 C   0  0  0  0  0  0  0  0  0  0  0  0
   38.5870   24.3397   33.3840 H   0  0  0  0  0  0  0  0  0  0  0  0
   36.8787   24.2996   33.6618 H   0  0  0  0  0  0  0  0  0  0  0  0
   37.2074   24.3409   35.9904 H   0  0  0  0  0  0  0  0  0  0  0  0
   39.2856   22.6743   36.7781 H   0  0  0  0  0  0  0  0  0  0  0  0
   37.7021   22.0533   36.5370 H   0  0  0  0  0  0  0  0  0  0  0  0
   39.1204   20.9139   34.7960 H   0  0  0  0  0  0  0  0  0  0  0  0
   39.9833   22.3498   34.3857 H   0  0  0  0  0  0  0  0  0  0  0  0
   35.7416   20.8682   34.7032 H   0  0  0  0  0  0  0  0  0  0  0  0
   34.3671   19.4277   33.1882 H   0  0  0  0  0  0  0  0  0  0  0  0
   36.8131   20.6242   29.8864 H   0  0  0  0  0  0  0  0  0  0  0  0
   39.0830   25.2589   36.6695 H   0  0  0  0  0  0  0  0  0  0  0  0
   38.0707   26.6410   35.0737 H   0  0  0  0  0  0  0  0  0  0  0  0
   38.7768   25.7025   33.7491 H   0  0  0  0  0  0  0  0  0  0  0  0
   39.8894   27.4332   35.7837 H   0  0  0  0  0  0  0  0  0  0  0  0
   41.3150   28.2270   33.3738 H   0  0  0  0  0  0  0  0  0  0  0  0
   40.5617   27.2047   32.4851 H   0  0  0  0  0  0  0  0  0  0  0  0
   41.5365   25.2085   34.2517 H   0  0  0  0  0  0  0  0  0  0  0  0
   42.4912   26.2157   34.9706 H   0  0  0  0  0  0  0  0  0  0  0  0
  1  2  1  0
  1  5  1  0
  2  3  1  0
  3 12  1  0
  3  4  1  0
  5  4  1  0
  6  7  2  0
  6  1  1  0
  8  7  1  0
  9  8  2  0
 10  9  1  0
 10 11  2  0
 11  6  1  0
 13 14  1  0
 13 12  1  0
 15 16  1  0
 15 14  1  0
 16 14  1  0
  2 17  1  0
  2 18  1  0
  3 19  1  1
  4 20  1  0
  4 21  1  0
  5 22  1  0
  5 23  1  0
  7 24  1  0
  8 25  1  0
 10 26  1  0
 12 27  1  0
 13 28  1  0
 13 29  1  0
 14 30  1  0
 15 31  1  0
 15 32  1  0
 16 33  1  0
 16 34  1  0
M  ISO  8  17  13  18  13  19  13  20  13  21  13  22  13  23  13  24  14
M  ISO  8  25  14  26  14  27   5  28   8  29   8  30  13  31  13  32  13
M  ISO  2  33  13  34  13
M  END
>  <minimizedAffinity>  (1) 
-3.6314683

>  <minimizedRMSD>  (1) 
2.21355152

$$$$
