
     RDKit          3D

 28 31  0  0  0  0  0  0  0  0999 V2000
   36.9100   27.3640   34.4580 C   0  0  0  0  0  0  0  0  0  0  0  0
   37.3200   27.2150   33.1330 C   0  0  0  0  0  0  0  0  0  0  0  0
   38.0860   26.1150   32.8040 C   0  0  0  0  0  0  0  0  0  0  0  0
   38.4160   25.2170   33.7820 N   0  0  0  0  0  0  0  0  0  0  0  0
   38.0080   25.3870   35.0500 C   0  0  0  0  0  0  0  0  0  0  0  0
   37.2630   26.4520   35.3790 N   0  0  0  0  0  0  0  0  0  0  0  0
   38.3240   24.4790   36.1120 N   0  0  0  0  0  0  0  0  0  0  0  0
   37.6100   24.1070   37.2080 C   0  0  0  0  0  0  0  0  0  0  0  0
   38.3630   23.2230   37.8920 N   0  0  0  0  0  0  0  0  0  0  0  0
   39.5380   23.0140   37.2700 C   0  0  0  0  0  0  0  0  0  0  0  0
   40.6160   22.2020   37.5950 C   0  0  0  0  0  0  0  0  0  0  0  0
   41.6530   22.2370   36.7290 N   0  0  0  0  0  0  0  0  0  0  0  0
   41.6150   23.0160   35.6340 C   0  0  0  0  0  0  0  0  0  0  0  0
   40.5730   23.8110   35.3070 N   0  0  0  0  0  0  0  0  0  0  0  0
   39.5050   23.8130   36.1420 C   0  0  0  0  0  0  0  0  0  0  0  0
   36.9700   28.1540   32.1320 C   0  0  0  0  0  0  0  0  0  0  0  0
   37.3490   28.3590   30.8600 C   0  0  0  0  0  0  0  0  0  0  0  0
   36.8450   29.3510   30.1090 C   0  0  0  0  0  0  0  0  0  0  0  0
   35.8450   30.1930   30.7960 C   0  0  0  0  0  0  0  0  0  0  0  0
   35.7170   29.4470   32.5310 S   0  0  0  0  0  0  0  0  0  0  0  0
   36.2967   28.2296   34.7491 H   0  0  0  0  0  0  0  0  0  0  0  0
   38.4266   25.9624   31.7693 H   0  0  0  0  0  0  0  0  0  0  0  0
   36.6060   24.4613   37.4844 H   0  0  0  0  0  0  0  0  0  0  0  0
   40.6255   21.5723   38.4969 H   0  0  0  0  0  0  0  0  0  0  0  0
   42.4864   23.0054   34.9628 H   0  0  0  0  0  0  0  0  0  0  0  0
   38.1005   27.6890   30.4170 H   0  0  0  0  0  0  0  0  0  0  0  0
   37.1519   29.5227   29.0667 H   0  0  0  0  0  0  0  0  0  0  0  0
   35.2985   31.0576   30.3913 H   0  0  0  0  0  0  0  0  0  0  0  0
  1  6  2  0
  2  1  1  0
  3  2  2  0
  3  4  1  0
  4  5  2  0
  5  6  1  0
  5  7  1  0
  7 15  1  0
  7  8  1  0
  8  9  2  0
 10 11  2  0
 10  9  1  0
 12 11  1  0
 13 12  2  0
 14 13  1  0
 14 15  2  0
 15 10  1  0
 16 20  1  0
 16  2  1  0
 17 16  2  0
 18 19  2  0
 18 17  1  0
 19 20  1  0
  1 21  1  0
  3 22  1  0
  8 23  1  0
 11 24  1  0
 13 25  1  0
 17 26  1  0
 18 27  1  0
 19 28  1  0
M  ISO  8  21  14  22  14  23  14  24  14  25  14  26  14  27  14  28  14
M  END
>  <minimizedAffinity>  (1) 
-5.41198397

>  <minimizedRMSD>  (1) 
7.81682158

$$$$
