
     RDKit          3D

 27 30  0  0  0  0  0  0  0  0999 V2000
   37.1470   27.3670   34.6970 C   0  0  0  0  0  0  0  0  0  0  0  0
   37.2090   27.0240   33.3240 C   0  0  0  0  0  0  0  0  0  0  0  0
   37.7040   25.7700   32.9930 C   0  0  0  0  0  0  0  0  0  0  0  0
   38.1060   24.9320   33.9870 N   0  0  0  0  0  0  0  0  0  0  0  0
   38.0340   25.2910   35.2850 C   0  0  0  0  0  0  0  0  0  0  0  0
   37.5550   26.5070   35.6390 N   0  0  0  0  0  0  0  0  0  0  0  0
   38.4440   24.4440   36.3560 N   0  0  0  0  0  0  0  0  0  0  0  0
   37.9610   24.2710   37.6050 C   0  0  0  0  0  0  0  0  0  0  0  0
   38.7140   23.3450   38.2190 N   0  0  0  0  0  0  0  0  0  0  0  0
   39.6800   22.9030   37.4040 C   0  0  0  0  0  0  0  0  0  0  0  0
   40.6880   21.9590   37.5890 C   0  0  0  0  0  0  0  0  0  0  0  0
   41.5050   21.7570   36.5310 N   0  0  0  0  0  0  0  0  0  0  0  0
   41.3330   22.4360   35.3840 C   0  0  0  0  0  0  0  0  0  0  0  0
   40.3520   23.3590   35.1980 N   0  0  0  0  0  0  0  0  0  0  0  0
   39.5070   23.5980   36.2300 C   0  0  0  0  0  0  0  0  0  0  0  0
   36.7890   27.9020   32.2860 N   0  0  0  0  0  0  0  0  0  0  0  0
   37.0590   27.5850   31.0010 C   0  0  0  0  0  0  0  0  0  0  0  0
   36.5880   28.5280   30.1350 N   0  0  0  0  0  0  0  0  0  0  0  0
   36.0090   29.4530   30.9540 C   0  0  0  0  0  0  0  0  0  0  0  0
   36.1380   29.0600   32.2510 N   0  0  0  0  0  0  0  0  0  0  0  0
   36.7587   28.3526   34.9933 H   0  0  0  0  0  0  0  0  0  0  0  0
   37.7705   25.4576   31.9404 H   0  0  0  0  0  0  0  0  0  0  0  0
   37.1002   24.7974   38.0431 H   0  0  0  0  0  0  0  0  0  0  0  0
   40.8112   21.4128   38.5358 H   0  0  0  0  0  0  0  0  0  0  0  0
   42.0227   22.2343   34.5512 H   0  0  0  0  0  0  0  0  0  0  0  0
   37.5943   26.6757   30.6902 H   0  0  0  0  0  0  0  0  0  0  0  0
   35.5135   30.3757   30.6176 H   0  0  0  0  0  0  0  0  0  0  0  0
  1  6  2  0
  2  1  1  0
  3  2  2  0
  3  4  1  0
  4  5  2  0
  5  6  1  0
  5  7  1  0
  7  8  1  0
  8  9  2  0
 10 11  2  0
 10  9  1  0
 12 11  1  0
 13 12  2  0
 14 13  1  0
 14 15  2  0
 15  7  1  0
 15 10  1  0
 16  2  1  0
 17 16  1  0
 18 19  1  0
 18 17  2  0
 19 20  2  0
 20 16  1  0
  1 21  1  0
  3 22  1  0
  8 23  1  0
 11 24  1  0
 13 25  1  0
 17 26  1  0
 19 27  1  0
M  ISO  7  21  14  22  14  23  14  24  14  25  14  26  14  27  14
M  END
>  <minimizedAffinity>  (1) 
-5.31943464

>  <minimizedRMSD>  (1) 
7.62776518

$$$$
