
     RDKit          3D

 23 25  0  0  0  0  0  0  0  0999 V2000
   37.0700   27.3080   34.7770 C   0  0  0  0  0  0  0  0  0  0  0  0
   37.0140   26.9420   33.4150 C   0  0  0  0  0  0  0  0  0  0  0  0
   37.4790   25.6590   33.0770 C   0  0  0  0  0  0  0  0  0  0  0  0
   37.9510   24.8470   34.0620 N   0  0  0  0  0  0  0  0  0  0  0  0
   37.9800   25.2530   35.3550 C   0  0  0  0  0  0  0  0  0  0  0  0
   37.5440   26.4670   35.7010 N   0  0  0  0  0  0  0  0  0  0  0  0
   38.4720   24.4170   36.4000 N   0  0  0  0  0  0  0  0  0  0  0  0
   38.0720   24.2890   37.6850 C   0  0  0  0  0  0  0  0  0  0  0  0
   38.8470   23.3680   38.2770 N   0  0  0  0  0  0  0  0  0  0  0  0
   39.7580   22.8850   37.3940 C   0  0  0  0  0  0  0  0  0  0  0  0
   40.7570   21.9320   37.5410 C   0  0  0  0  0  0  0  0  0  0  0  0
   41.4840   21.6990   36.4310 N   0  0  0  0  0  0  0  0  0  0  0  0
   41.2390   22.3480   35.2970 C   0  0  0  0  0  0  0  0  0  0  0  0
   40.2710   23.2780   35.1360 N   0  0  0  0  0  0  0  0  0  0  0  0
   39.5020   23.5610   36.2130 C   0  0  0  0  0  0  0  0  0  0  0  0
   36.5090   27.8080   32.3550 C   0  0  0  0  0  0  0  0  0  0  0  0
   35.6490   27.3780   31.5130 O   0  0  0  0  0  0  0  0  0  0  0  0
   36.7170   28.3037   35.0835 H   0  0  0  0  0  0  0  0  0  0  0  0
   37.4616   25.3165   32.0318 H   0  0  0  0  0  0  0  0  0  0  0  0
   37.2518   24.8447   38.1630 H   0  0  0  0  0  0  0  0  0  0  0  0
   40.9407   21.4077   38.4904 H   0  0  0  0  0  0  0  0  0  0  0  0
   41.8692   22.1113   34.4270 H   0  0  0  0  0  0  0  0  0  0  0  0
   36.8728   28.8434   32.2796 H   0  0  0  0  0  0  0  0  0  0  0  0
  1  6  2  0
  2  1  1  0
  3  2  2  0
  3  4  1  0
  4  5  2  0
  5  6  1  0
  5  7  1  0
  7  8  1  0
  8  9  2  0
 10 11  2  0
 10  9  1  0
 12 11  1  0
 13 12  2  0
 14 13  1  0
 14 15  2  0
 15  7  1  0
 15 10  1  0
 16  2  1  0
 17 16  2  0
  1 18  1  0
  3 19  1  0
  8 20  1  0
 11 21  1  0
 13 22  1  0
 16 23  1  0
M  ISO  6  18  14  19  14  20  14  21  14  22  14  23   6
M  END
>  <minimizedAffinity>  (1) 
-4.72674084

>  <minimizedRMSD>  (1) 
6.19106293

$$$$
