
     RDKit          3D

 23 25  0  0  0  0  0  0  0  0999 V2000
   39.5890   22.4900   37.1270 C   0  0  0  0  0  0  0  0  0  0  0  0
   38.8780   23.3610   37.9590 C   0  0  0  0  0  0  0  0  0  0  0  0
   37.8500   24.0970   37.3630 C   0  0  0  0  0  0  0  0  0  0  0  0
   37.6060   23.9250   36.0360 N   0  0  0  0  0  0  0  0  0  0  0  0
   38.3150   23.0750   35.2760 C   0  0  0  0  0  0  0  0  0  0  0  0
   39.3020   22.3620   35.8240 N   0  0  0  0  0  0  0  0  0  0  0  0
   38.0640   22.8920   33.8880 N   0  0  0  0  0  0  0  0  0  0  0  0
   38.1530   21.7780   33.1150 C   0  0  0  0  0  0  0  0  0  0  0  0
   37.8120   22.1210   31.8610 N   0  0  0  0  0  0  0  0  0  0  0  0
   37.5020   23.4380   31.7950 C   0  0  0  0  0  0  0  0  0  0  0  0
   37.0990   24.2340   30.7350 C   0  0  0  0  0  0  0  0  0  0  0  0
   36.8720   25.5230   31.0370 N   0  0  0  0  0  0  0  0  0  0  0  0
   37.0310   25.9760   32.2780 C   0  0  0  0  0  0  0  0  0  0  0  0
   37.4230   25.2180   33.3280 N   0  0  0  0  0  0  0  0  0  0  0  0
   37.6690   23.9000   33.0850 C   0  0  0  0  0  0  0  0  0  0  0  0
   39.1990   23.4780   39.3310 N   0  0  0  0  0  0  0  0  0  0  0  0
   40.4077   21.8925   37.5546 H   0  0  0  0  0  0  0  0  0  0  0  0
   37.2494   24.8023   37.9562 H   0  0  0  0  0  0  0  0  0  0  0  0
   38.4508   20.7751   33.4547 H   0  0  0  0  0  0  0  0  0  0  0  0
   36.9736   23.8378   29.7165 H   0  0  0  0  0  0  0  0  0  0  0  0
   36.8296   27.0414   32.4633 H   0  0  0  0  0  0  0  0  0  0  0  0
   38.6664   24.1237   39.9313 H   0  0  0  0  0  0  0  0  0  0  0  0
   39.9654   22.9175   39.7302 H   0  0  0  0  0  0  0  0  0  0  0  0
  1  2  2  0
  2 16  1  0
  3  2  1  0
  4  3  2  0
  5  6  2  0
  5  4  1  0
  6  1  1  0
  7  5  1  0
  8  7  1  0
  9  8  2  0
 10  9  1  0
 10 15  2  0
 11 12  2  0
 11 10  1  0
 12 13  1  0
 13 14  2  0
 15 14  1  0
 15  7  1  0
  1 17  1  0
  3 18  1  0
  8 19  1  0
 11 20  1  0
 13 21  1  0
 16 22  1  0
 16 23  1  0
M  ISO  5  17  14  18  14  19  14  20  14  21  14
M  END
>  <minimizedAffinity>  (1) 
-4.29648161

>  <minimizedRMSD>  (1) 
2.01295114

$$$$
