
     RDKit          3D

 34 38  0  0  0  0  0  0  0  0999 V2000
   38.6420   27.2420   31.1930 C   0  0  0  0  0  0  0  0  0  0  0  0
   37.7810   26.9400   32.2660 C   0  0  0  0  0  0  0  0  0  0  0  0
   36.7010   27.7920   32.5000 C   0  0  0  0  0  0  0  0  0  0  0  0
   36.5400   28.8660   31.6790 N   0  0  0  0  0  0  0  0  0  0  0  0
   37.3880   29.1260   30.6560 C   0  0  0  0  0  0  0  0  0  0  0  0
   38.4090   28.3080   30.4460 N   0  0  0  0  0  0  0  0  0  0  0  0
   37.2180   30.2450   29.8010 N   0  0  0  0  0  0  0  0  0  0  0  0
   37.4700   30.3940   28.4820 C   0  0  0  0  0  0  0  0  0  0  0  0
   37.1480   31.6360   28.1200 N   0  0  0  0  0  0  0  0  0  0  0  0
   36.6810   32.3250   29.1900 C   0  0  0  0  0  0  0  0  0  0  0  0
   36.2220   33.6340   29.3360 C   0  0  0  0  0  0  0  0  0  0  0  0
   35.8280   33.9850   30.5670 N   0  0  0  0  0  0  0  0  0  0  0  0
   35.8780   33.1260   31.5740 C   0  0  0  0  0  0  0  0  0  0  0  0
   36.3170   31.8510   31.4690 N   0  0  0  0  0  0  0  0  0  0  0  0
   36.7330   31.4260   30.2430 C   0  0  0  0  0  0  0  0  0  0  0  0
   37.9050   25.8140   33.1690 C   0  0  0  0  0  0  0  0  0  0  0  0
   37.6410   24.5740   32.7600 N   0  0  0  0  0  0  0  0  0  0  0  0
   37.8150   23.7270   33.7190 O   0  0  0  0  0  0  0  0  0  0  0  0
   38.1960   24.3660   34.7880 C   0  0  0  0  0  0  0  0  0  0  0  0
   38.2590   25.6810   34.4580 N   0  0  0  0  0  0  0  0  0  0  0  0
   38.5330   23.9460   36.1420 C   0  0  0  0  0  0  0  0  0  0  0  0
   39.5900   23.1080   36.5070 C   0  0  0  0  0  0  0  0  0  0  0  0
   39.7700   22.8080   37.8400 C   0  0  0  0  0  0  0  0  0  0  0  0
   38.9540   23.3040   38.7890 N   0  0  0  0  0  0  0  0  0  0  0  0
   37.9420   24.1120   38.4050 C   0  0  0  0  0  0  0  0  0  0  0  0
   37.7190   24.4380   37.1100 N   0  0  0  0  0  0  0  0  0  0  0  0
   39.5043   26.5940   30.9774 H   0  0  0  0  0  0  0  0  0  0  0  0
   35.9990   27.6011   33.3251 H   0  0  0  0  0  0  0  0  0  0  0  0
   37.8746   29.6177   27.8159 H   0  0  0  0  0  0  0  0  0  0  0  0
   36.1858   34.3364   28.4902 H   0  0  0  0  0  0  0  0  0  0  0  0
   35.5399   33.4727   32.5617 H   0  0  0  0  0  0  0  0  0  0  0  0
   40.2663   22.6952   35.7440 H   0  0  0  0  0  0  0  0  0  0  0  0
   40.5992   22.1483   38.1353 H   0  0  0  0  0  0  0  0  0  0  0  0
   37.2721   24.5216   39.1754 H   0  0  0  0  0  0  0  0  0  0  0  0
  1  2  2  0
  2  3  1  0
  2 16  1  0
  4  3  2  0
  5  4  1  0
  6  5  2  0
  6  1  1  0
  7 15  1  0
  7  5  1  0
  8  7  1  0
  9  8  2  0
  9 10  1  0
 10 11  2  0
 10 15  1  0
 11 12  1  0
 12 13  2  0
 14 13  1  0
 15 14  2  0
 16 20  1  0
 17 16  2  0
 17 18  1  0
 18 19  1  0
 19 21  1  0
 20 19  2  0
 21 22  2  0
 21 26  1  0
 22 23  1  0
 23 24  2  0
 25 24  1  0
 26 25  2  0
  1 27  1  0
  3 28  1  0
  8 29  1  0
 11 30  1  0
 13 31  1  0
 22 32  1  0
 23 33  1  0
 25 34  1  0
M  ISO  8  27  14  28  14  29  14  30  14  31  14  32  14  33  14  34  14
M  END
>  <minimizedAffinity>  (1) 
-5.4355526

>  <minimizedRMSD>  (1) 
3.84288979

$$$$
