
     RDKit          3D

 54 57  0  0  1  0  0  0  0  0999 V2000
   41.0410   27.1410   31.8400 C   0  0  0  0  0  0  0  0  0  0  0  0
   42.4470   26.5620   32.0330 C   0  0  1  0  0  0  0  0  0  0  0  0
   42.9480   25.9580   30.7570 C   0  0  0  0  0  0  0  0  0  0  0  0
   43.9150   26.7870   29.9840 C   0  0  0  0  0  0  0  0  0  0  0  0
   44.8320   27.6310   30.7860 C   0  0  0  0  0  0  0  0  0  0  0  0
   44.0670   28.4660   31.7780 C   0  0  0  0  0  0  0  0  0  0  0  0
   43.3560   27.5250   32.6960 C   0  0  2  0  0  0  0  0  0  0  0  0
   44.3620   26.7380   33.5220 C   0  0  0  0  0  0  0  0  0  0  0  0
   43.6520   25.7640   34.4380 C   0  0  0  0  0  0  0  0  0  0  0  0
   44.5870   25.6010   35.6250 C   0  0  0  0  0  0  0  0  0  0  0  0
   45.7730   26.4980   35.3570 C   0  0  0  0  0  0  0  0  0  0  0  0
   45.1130   27.5960   34.5130 C   0  0  0  0  0  0  0  0  0  0  0  0
   38.9020   24.7260   33.7350 N   0  0  0  0  0  0  0  0  0  0  0  0
   39.8910   25.5970   33.5080 C   0  0  0  0  0  0  0  0  0  0  0  0
   39.9970   26.1630   32.2340 C   0  0  0  0  0  0  0  0  0  0  0  0
   39.0810   25.8010   31.2650 C   0  0  0  0  0  0  0  0  0  0  0  0
   39.0890   26.2540   30.0840 O   0  0  0  0  0  0  0  0  0  0  0  0
   38.0890   24.9120   31.5350 N   0  0  0  0  0  0  0  0  0  0  0  0
   38.0240   24.3950   32.7660 C   0  0  0  0  0  0  0  0  0  0  0  0
   37.1110   23.5720   33.0250 O   0  0  0  0  0  0  0  0  0  0  0  0
   38.1260   24.9260   36.0170 C   0  0  0  0  0  0  0  0  0  0  0  0
   38.8710   24.2060   35.0450 C   0  0  0  0  0  0  0  0  0  0  0  0
   39.5160   23.0480   35.4390 C   0  0  0  0  0  0  0  0  0  0  0  0
   39.3980   22.6620   36.7530 N   0  0  0  0  0  0  0  0  0  0  0  0
   38.6890   23.3560   37.6550 C   0  0  0  0  0  0  0  0  0  0  0  0
   38.0530   24.4960   37.2720 N   0  0  0  0  0  0  0  0  0  0  0  0
   38.7240   22.7480   38.9350 N   0  0  0  0  0  0  0  0  0  0  0  0
   40.9374   28.0446   32.4587 H   0  0  0  0  0  0  0  0  0  0  0  0
   40.9075   27.3815   30.7750 H   0  0  0  0  0  0  0  0  0  0  0  0
   42.4055   25.7238   32.7441 H   0  0  0  0  0  0  0  0  0  0  0  0
   43.4414   25.0066   31.0047 H   0  0  0  0  0  0  0  0  0  0  0  0
   42.0646   25.8484   30.1108 H   0  0  0  0  0  0  0  0  0  0  0  0
   44.5290   26.1077   29.3745 H   0  0  0  0  0  0  0  0  0  0  0  0
   43.3029   27.4879   29.3974 H   0  0  0  0  0  0  0  0  0  0  0  0
   45.5358   26.9826   31.3285 H   0  0  0  0  0  0  0  0  0  0  0  0
   45.3744   28.3040   30.1056 H   0  0  0  0  0  0  0  0  0  0  0  0
   44.7603   29.0991   32.3511 H   0  0  0  0  0  0  0  0  0  0  0  0
   43.3510   29.1236   31.2634 H   0  0  0  0  0  0  0  0  0  0  0  0
   42.7251   28.1736   33.3215 H   0  0  0  0  0  0  0  0  0  0  0  0
   45.0226   26.2770   32.7730 H   0  0  0  0  0  0  0  0  0  0  0  0
   42.6824   26.1711   34.7607 H   0  0  0  0  0  0  0  0  0  0  0  0
   43.4377   24.8060   33.9418 H   0  0  0  0  0  0  0  0  0  0  0  0
   44.0811   25.9057   36.5530 H   0  0  0  0  0  0  0  0  0  0  0  0
   44.8980   24.5531   35.7480 H   0  0  0  0  0  0  0  0  0  0  0  0
   46.1949   26.9017   36.2892 H   0  0  0  0  0  0  0  0  0  0  0  0
   46.6238   25.9977   34.8713 H   0  0  0  0  0  0  0  0  0  0  0  0
   45.8584   28.2360   34.0183 H   0  0  0  0  0  0  0  0  0  0  0  0
   44.4930   28.3084   35.0770 H   0  0  0  0  0  0  0  0  0  0  0  0
   40.6031   25.8615   34.3036 H   0  0  0  0  0  0  0  0  0  0  0  0
   37.4066   24.6442   30.8115 H   0  0  0  0  0  0  0  0  0  0  0  0
   37.6038   25.8498   35.7274 H   0  0  0  0  0  0  0  0  0  0  0  0
   40.1047   22.4547   34.7238 H   0  0  0  0  0  0  0  0  0  0  0  0
   38.2197   23.1781   39.7234 H   0  0  0  0  0  0  0  0  0  0  0  0
   39.2538   21.8761   39.0767 H   0  0  0  0  0  0  0  0  0  0  0  0
  1  2  1  0
  1 15  1  0
  2  7  1  0
  3  2  1  0
  4  3  1  0
  4  5  1  0
  5  6  1  0
  6  7  1  0
  7  8  1  0
  8  9  1  0
  8 12  1  0
  9 10  1  0
 11 10  1  0
 12 11  1  0
 13 22  1  0
 14 13  1  0
 15 14  2  0
 16 18  1  0
 16 15  1  0
 17 16  2  0
 18 19  1  0
 19 20  2  0
 19 13  1  0
 21 26  2  0
 22 23  2  0
 22 21  1  0
 23 24  1  0
 24 25  2  0
 25 27  1  0
 26 25  1  0
  1 28  1  0
  1 29  1  0
  2 30  1  1
  3 31  1  0
  3 32  1  0
  4 33  1  0
  4 34  1  0
  5 35  1  0
  5 36  1  0
  6 37  1  0
  6 38  1  0
  7 39  1  1
  8 40  1  0
  9 41  1  0
  9 42  1  0
 10 43  1  0
 10 44  1  0
 11 45  1  0
 11 46  1  0
 12 47  1  0
 12 48  1  0
 14 49  1  0
 18 50  1  0
 21 51  1  0
 23 52  1  0
 27 53  1  0
 27 54  1  0
M  ISO  8  28   8  29   8  30  13  31  13  32  13  33  13  34  13  35  13
M  ISO  8  36  13  37  13  38  13  39  13  40  13  41  13  42  13  43  13
M  ISO  8  44  13  45  13  46  13  47  13  48  13  49  14  50   9  51  14
M  ISO  1  52  14
M  END
>  <minimizedAffinity>  (1) 
-4.74956179

>  <minimizedRMSD>  (1) 
2.12857151

$$$$
