
     RDKit          3D

 32 35  0  0  0  0  0  0  0  0999 V2000
   39.6870   26.4000   33.3800 C   0  0  0  0  0  0  0  0  0  0  0  0
   39.2170   25.5870   34.4090 C   0  0  0  0  0  0  0  0  0  0  0  0
   37.8490   25.6930   34.7430 C   0  0  0  0  0  0  0  0  0  0  0  0
   37.0710   26.5700   34.0590 N   0  0  0  0  0  0  0  0  0  0  0  0
   37.5720   27.3380   33.0690 C   0  0  0  0  0  0  0  0  0  0  0  0
   38.8720   27.2390   32.7480 N   0  0  0  0  0  0  0  0  0  0  0  0
   36.7900   28.2700   32.3260 N   0  0  0  0  0  0  0  0  0  0  0  0
   36.8410   28.6610   31.0470 C   0  0  0  0  0  0  0  0  0  0  0  0
   35.8850   29.5640   30.8340 N   0  0  0  0  0  0  0  0  0  0  0  0
   35.1810   29.7860   31.9800 C   0  0  0  0  0  0  0  0  0  0  0  0
   34.1090   30.6220   32.2610 C   0  0  0  0  0  0  0  0  0  0  0  0
   33.6620   30.5770   33.5320 N   0  0  0  0  0  0  0  0  0  0  0  0
   34.2260   29.7780   34.4370 C   0  0  0  0  0  0  0  0  0  0  0  0
   35.2660   28.9600   34.1870 N   0  0  0  0  0  0  0  0  0  0  0  0
   35.7780   28.9510   32.9080 C   0  0  0  0  0  0  0  0  0  0  0  0
   39.9730   24.6340   35.1830 C   0  0  0  0  0  0  0  0  0  0  0  0
   41.3080   24.5900   35.0830 N   0  0  0  0  0  0  0  0  0  0  0  0
   41.7760   23.6680   35.8590 O   0  0  0  0  0  0  0  0  0  0  0  0
   40.7830   23.0780   36.4920 C   0  0  0  0  0  0  0  0  0  0  0  0
   39.6370   23.6740   36.0780 N   0  0  0  0  0  0  0  0  0  0  0  0
   40.8020   21.9840   37.4680 C   0  0  0  0  0  0  0  0  0  0  0  0
   42.0370   21.0960   37.3230 C   0  0  0  0  0  0  0  0  0  0  0  0
   40.7459   26.3471   33.0867 H   0  0  0  0  0  0  0  0  0  0  0  0
   37.4205   25.0743   35.5452 H   0  0  0  0  0  0  0  0  0  0  0  0
   37.5557   28.2963   30.2945 H   0  0  0  0  0  0  0  0  0  0  0  0
   33.6563   31.2750   31.5003 H   0  0  0  0  0  0  0  0  0  0  0  0
   33.8143   29.7873   35.4570 H   0  0  0  0  0  0  0  0  0  0  0  0
   40.7926   22.4136   38.4806 H   0  0  0  0  0  0  0  0  0  0  0  0
   39.9156   21.3581   37.2878 H   0  0  0  0  0  0  0  0  0  0  0  0
   42.4133   20.8255   38.3206 H   0  0  0  0  0  0  0  0  0  0  0  0
   41.7691   20.1824   36.7720 H   0  0  0  0  0  0  0  0  0  0  0  0
   42.8177   21.6408   36.7720 H   0  0  0  0  0  0  0  0  0  0  0  0
  1  2  2  0
  2  3  1  0
  2 16  1  0
  4  3  2  0
  5  4  1  0
  6  5  2  0
  6  1  1  0
  7 15  1  0
  7  5  1  0
  8  7  1  0
  9  8  2  0
  9 10  1  0
 10 11  2  0
 10 15  1  0
 11 12  1  0
 12 13  2  0
 14 13  1  0
 15 14  2  0
 16 20  1  0
 17 16  2  0
 17 18  1  0
 18 19  1  0
 19 21  1  0
 20 19  2  0
 22 21  1  0
  1 23  1  0
  3 24  1  0
  8 25  1  0
 11 26  1  0
 13 27  1  0
 21 28  1  0
 21 29  1  0
 22 30  1  0
 22 31  1  0
 22 32  1  0
M  ISO  8  23  14  24  14  25  14  26  14  27  14  28   8  29   8  30   8
M  ISO  2  31   8  32   8
M  END
>  <minimizedAffinity>  (1) 
-5.02044582

>  <minimizedRMSD>  (1) 
1.24827898

$$$$
