
     RDKit          3D

 39 43  0  0  0  0  0  0  0  0999 V2000
   40.5920   27.7530   30.2940 C   0  0  0  0  0  0  0  0  0  0  0  0
   39.3820   27.3610   30.8580 C   0  0  0  0  0  0  0  0  0  0  0  0
   38.2680   28.1590   30.6030 C   0  0  0  0  0  0  0  0  0  0  0  0
   38.4260   29.2610   29.8270 N   0  0  0  0  0  0  0  0  0  0  0  0
   39.6180   29.6100   29.2970 C   0  0  0  0  0  0  0  0  0  0  0  0
   40.6740   28.8460   29.5430 N   0  0  0  0  0  0  0  0  0  0  0  0
   39.7820   30.7620   28.4850 N   0  0  0  0  0  0  0  0  0  0  0  0
   40.6010   30.9740   27.4300 C   0  0  0  0  0  0  0  0  0  0  0  0
   40.4050   32.2170   26.9840 N   0  0  0  0  0  0  0  0  0  0  0  0
   39.4540   32.8350   27.7430 C   0  0  0  0  0  0  0  0  0  0  0  0
   38.9030   34.1140   27.6870 C   0  0  0  0  0  0  0  0  0  0  0  0
   37.9720   34.3900   28.6090 N   0  0  0  0  0  0  0  0  0  0  0  0
   37.6130   33.4850   29.5110 C   0  0  0  0  0  0  0  0  0  0  0  0
   38.1270   32.2390   29.5920 N   0  0  0  0  0  0  0  0  0  0  0  0
   39.0830   31.8910   28.6800 C   0  0  0  0  0  0  0  0  0  0  0  0
   39.1470   26.1990   31.6930 C   0  0  0  0  0  0  0  0  0  0  0  0
   39.1810   24.9680   31.1680 N   0  0  0  0  0  0  0  0  0  0  0  0
   38.9500   24.0770   32.0640 O   0  0  0  0  0  0  0  0  0  0  0  0
   38.7530   24.6800   33.2160 C   0  0  0  0  0  0  0  0  0  0  0  0
   38.8720   26.0260   33.0060 N   0  0  0  0  0  0  0  0  0  0  0  0
   38.4580   24.3360   34.5760 N   0  0  0  0  0  0  0  0  0  0  0  0
   37.8220   23.1430   34.7120 C   0  0  0  0  0  0  0  0  0  0  0  0
   37.4870   22.7070   35.9800 C   0  0  0  0  0  0  0  0  0  0  0  0
   36.7900   21.3990   36.1240 C   0  0  0  0  0  0  0  0  0  0  0  0
   37.8260   23.5220   37.0490 C   0  0  0  0  0  0  0  0  0  0  0  0
   37.5290   23.1420   38.2100 O   0  0  0  0  0  0  0  0  0  0  0  0
   38.4590   24.6990   36.8440 N   0  0  0  0  0  0  0  0  0  0  0  0
   38.7880   25.1300   35.6100 C   0  0  0  0  0  0  0  0  0  0  0  0
   39.3780   26.2180   35.3790 O   0  0  0  0  0  0  0  0  0  0  0  0
   41.4940   27.1492   30.4725 H   0  0  0  0  0  0  0  0  0  0  0  0
   37.2837   27.9015   31.0211 H   0  0  0  0  0  0  0  0  0  0  0  0
   41.3095   30.2449   27.0100 H   0  0  0  0  0  0  0  0  0  0  0  0
   39.2137   34.8512   26.9320 H   0  0  0  0  0  0  0  0  0  0  0  0
   36.8433   33.7697   30.2434 H   0  0  0  0  0  0  0  0  0  0  0  0
   37.5780   22.5349   33.8284 H   0  0  0  0  0  0  0  0  0  0  0  0
   36.6655   21.1654   37.1917 H   0  0  0  0  0  0  0  0  0  0  0  0
   35.8022   21.4550   35.6433 H   0  0  0  0  0  0  0  0  0  0  0  0
   37.3874   20.6103   35.6433 H   0  0  0  0  0  0  0  0  0  0  0  0
   38.6974   25.2850   37.6568 H   0  0  0  0  0  0  0  0  0  0  0  0
  1  2  2  0
  2 16  1  0
  3  2  1  0
  4  3  2  0
  5  6  2  0
  5  4  1  0
  6  1  1  0
  7 15  1  0
  7  5  1  0
  8  7  1  0
  9  8  2  0
  9 10  1  0
 10 15  2  0
 11 10  1  0
 11 12  2  0
 12 13  1  0
 13 14  2  0
 15 14  1  0
 16 20  1  0
 17 16  2  0
 17 18  1  0
 18 19  1  0
 19 21  1  0
 20 19  2  0
 21 22  1  0
 21 28  1  0
 22 23  2  0
 23 24  1  0
 23 25  1  0
 25 26  2  0
 27 25  1  0
 28 27  1  0
 29 28  2  0
  1 30  1  0
  3 31  1  0
  8 32  1  0
 11 33  1  0
 13 34  1  0
 22 35  1  0
 24 36  1  0
 24 37  1  0
 24 38  1  0
 27 39  1  0
M  ISO  8  30  14  31  14  32  14  33  14  34  14  35  14  36   8  37   8
M  ISO  2  38   8  39   9
M  END
>  <minimizedAffinity>  (1) 
-4.63905954

>  <minimizedRMSD>  (1) 
5.41785383

$$$$
