
     RDKit          3D

 39 43  0  0  1  0  0  0  0  0999 V2000
   39.6060   26.5870   33.2030 C   0  0  0  0  0  0  0  0  0  0  0  0
   39.1420   25.7720   34.2470 C   0  0  0  0  0  0  0  0  0  0  0  0
   37.7860   25.8870   34.6120 C   0  0  0  0  0  0  0  0  0  0  0  0
   37.0060   26.7720   33.9380 N   0  0  0  0  0  0  0  0  0  0  0  0
   37.4900   27.5420   32.9350 C   0  0  0  0  0  0  0  0  0  0  0  0
   38.7700   27.4190   32.6070 N   0  0  0  0  0  0  0  0  0  0  0  0
   36.6870   28.4680   32.2250 N   0  0  0  0  0  0  0  0  0  0  0  0
   36.7180   28.8450   30.9340 C   0  0  0  0  0  0  0  0  0  0  0  0
   35.7470   29.7550   30.7390 N   0  0  0  0  0  0  0  0  0  0  0  0
   35.0720   29.9840   31.8940 C   0  0  0  0  0  0  0  0  0  0  0  0
   34.0120   30.8110   32.2160 C   0  0  0  0  0  0  0  0  0  0  0  0
   33.5930   30.7750   33.4960 N   0  0  0  0  0  0  0  0  0  0  0  0
   34.1800   29.9840   34.3800 C   0  0  0  0  0  0  0  0  0  0  0  0
   35.2150   29.1670   34.1030 N   0  0  0  0  0  0  0  0  0  0  0  0
   35.6890   29.1530   32.8210 C   0  0  0  0  0  0  0  0  0  0  0  0
   39.9080   24.8080   35.0080 C   0  0  0  0  0  0  0  0  0  0  0  0
   41.2360   24.8570   34.9910 N   0  0  0  0  0  0  0  0  0  0  0  0
   41.7300   23.9110   35.7310 O   0  0  0  0  0  0  0  0  0  0  0  0
   40.7510   23.2240   36.2510 C   0  0  0  0  0  0  0  0  0  0  0  0
   39.5660   23.7700   35.8100 N   0  0  0  0  0  0  0  0  0  0  0  0
   40.9200   21.8360   37.3300 S   0  0  0  0  0  0  0  0  0  0  0  0
   42.6820   19.8770   37.7650 N   0  0  0  0  0  0  0  0  0  0  0  0
   43.6870   19.1380   37.0300 C   0  0  0  0  0  0  0  0  0  0  0  0
   43.2210   19.2580   35.5990 C   0  0  0  0  0  0  0  0  0  0  0  0
   42.6840   20.6670   35.5670 C   0  0  0  0  0  0  0  0  0  0  0  0
   42.5580   21.0990   37.0050 C   0  0  1  0  0  0  0  0  0  0  0  0
   40.6572   26.5337   32.8833 H   0  0  0  0  0  0  0  0  0  0  0  0
   37.3683   25.2741   35.4243 H   0  0  0  0  0  0  0  0  0  0  0  0
   37.4167   28.4733   30.1700 H   0  0  0  0  0  0  0  0  0  0  0  0
   33.5367   31.4627   31.4681 H   0  0  0  0  0  0  0  0  0  0  0  0
   33.7968   29.9943   35.4110 H   0  0  0  0  0  0  0  0  0  0  0  0
   41.7892   19.3640   37.7896 H   0  0  0  0  0  0  0  0  0  0  0  0
   44.6823   19.5880   37.1604 H   0  0  0  0  0  0  0  0  0  0  0  0
   43.7893   18.0955   37.3657 H   0  0  0  0  0  0  0  0  0  0  0  0
   44.0557   19.1313   34.8939 H   0  0  0  0  0  0  0  0  0  0  0  0
   42.4863   18.4943   35.3040 H   0  0  0  0  0  0  0  0  0  0  0  0
   43.3792   21.3284   35.0292 H   0  0  0  0  0  0  0  0  0  0  0  0
   41.7163   20.7165   35.0463 H   0  0  0  0  0  0  0  0  0  0  0  0
   43.3133   21.8554   37.2646 H   0  0  0  0  0  0  0  0  0  0  0  0
  1  2  2  0
  2  3  1  0
  2 16  1  0
  4  3  2  0
  5  4  1  0
  6  5  2  0
  6  1  1  0
  7 15  1  0
  7  5  1  0
  8  7  1  0
  9  8  2  0
  9 10  1  0
 10 11  2  0
 10 15  1  0
 11 12  1  0
 12 13  2  0
 14 13  1  0
 15 14  2  0
 16 20  1  0
 17 16  2  0
 17 18  1  0
 18 19  1  0
 19 21  1  0
 20 19  2  0
 23 22  1  0
 24 23  1  0
 25 24  1  0
 25 26  1  0
 26 21  1  0
 26 22  1  0
  1 27  1  0
  3 28  1  0
  8 29  1  0
 11 30  1  0
 13 31  1  0
 22 32  1  0
 23 33  1  0
 23 34  1  0
 24 35  1  0
 24 36  1  0
 25 37  1  0
 25 38  1  0
 26 39  1  1
M  ISO  8  27  14  28  14  29  14  30  14  31  14  32   5  33  13  34  13
M  ISO  5  35  13  36  13  37  13  38  13  39  13
M  END
>  <minimizedAffinity>  (1) 
-5.47879457

>  <minimizedRMSD>  (1) 
0.751045585

$$$$
