
     RDKit          3D

 37 41  0  0  0  0  0  0  0  0999 V2000
   39.5470   26.6150   33.1880 C   0  0  0  0  0  0  0  0  0  0  0  0
   39.1150   25.7940   34.2520 C   0  0  0  0  0  0  0  0  0  0  0  0
   37.7760   25.8830   34.6670 C   0  0  0  0  0  0  0  0  0  0  0  0
   36.9550   26.7580   34.0240 N   0  0  0  0  0  0  0  0  0  0  0  0
   37.4060   27.5390   32.9960 C   0  0  0  0  0  0  0  0  0  0  0  0
   38.6770   27.4360   32.6230 N   0  0  0  0  0  0  0  0  0  0  0  0
   36.5670   28.4480   32.3220 N   0  0  0  0  0  0  0  0  0  0  0  0
   36.5370   28.8180   31.0200 C   0  0  0  0  0  0  0  0  0  0  0  0
   35.5500   29.7210   30.8670 N   0  0  0  0  0  0  0  0  0  0  0  0
   34.9310   29.9530   32.0360 C   0  0  0  0  0  0  0  0  0  0  0  0
   33.8820   30.7750   32.3890 C   0  0  0  0  0  0  0  0  0  0  0  0
   33.5170   30.7540   33.6840 N   0  0  0  0  0  0  0  0  0  0  0  0
   34.1430   29.9760   34.5600 C   0  0  0  0  0  0  0  0  0  0  0  0
   35.1720   29.1610   34.2450 N   0  0  0  0  0  0  0  0  0  0  0  0
   35.5920   29.1370   32.9410 C   0  0  0  0  0  0  0  0  0  0  0  0
   39.9220   24.8400   34.9870 C   0  0  0  0  0  0  0  0  0  0  0  0
   41.2480   24.9450   34.9810 N   0  0  0  0  0  0  0  0  0  0  0  0
   41.7680   24.0010   35.6930 O   0  0  0  0  0  0  0  0  0  0  0  0
   40.8390   23.2530   36.1870 C   0  0  0  0  0  0  0  0  0  0  0  0
   39.6560   23.7660   35.7510 N   0  0  0  0  0  0  0  0  0  0  0  0
   41.0640   21.8390   37.2230 S   0  0  0  0  0  0  0  0  0  0  0  0
   42.6330   21.0760   36.8390 C   0  0  0  0  0  0  0  0  0  0  0  0
   43.5490   21.8960   36.1720 C   0  0  0  0  0  0  0  0  0  0  0  0
   44.8080   21.3970   35.8240 C   0  0  0  0  0  0  0  0  0  0  0  0
   45.0970   20.0950   36.1590 C   0  0  0  0  0  0  0  0  0  0  0  0
   44.1970   19.2600   36.8230 C   0  0  0  0  0  0  0  0  0  0  0  0
   42.9450   19.7720   37.1650 C   0  0  0  0  0  0  0  0  0  0  0  0
   40.5880   26.5729   32.8351 H   0  0  0  0  0  0  0  0  0  0  0  0
   37.3997   25.2604   35.4921 H   0  0  0  0  0  0  0  0  0  0  0  0
   37.2021   28.4462   30.2266 H   0  0  0  0  0  0  0  0  0  0  0  0
   33.3715   31.4129   31.6525 H   0  0  0  0  0  0  0  0  0  0  0  0
   33.8022   29.9971   35.6057 H   0  0  0  0  0  0  0  0  0  0  0  0
   43.2792   22.9325   35.9214 H   0  0  0  0  0  0  0  0  0  0  0  0
   45.5430   22.0252   35.2995 H   0  0  0  0  0  0  0  0  0  0  0  0
   46.0849   19.6922   35.8908 H   0  0  0  0  0  0  0  0  0  0  0  0
   44.4683   18.2232   37.0707 H   0  0  0  0  0  0  0  0  0  0  0  0
   42.2126   19.1413   37.6902 H   0  0  0  0  0  0  0  0  0  0  0  0
  1  2  2  0
  2  3  1  0
  2 16  1  0
  4  3  2  0
  5  4  1  0
  6  5  2  0
  6  1  1  0
  7 15  1  0
  7  5  1  0
  8  7  1  0
  9  8  2  0
  9 10  1  0
 10 11  2  0
 10 15  1  0
 11 12  1  0
 12 13  2  0
 14 13  1  0
 15 14  2  0
 16 20  1  0
 17 16  2  0
 17 18  1  0
 18 19  1  0
 19 21  1  0
 20 19  2  0
 22 27  1  0
 22 21  1  0
 23 22  2  0
 24 25  2  0
 24 23  1  0
 25 26  1  0
 26 27  2  0
  1 28  1  0
  3 29  1  0
  8 30  1  0
 11 31  1  0
 13 32  1  0
 23 33  1  0
 24 34  1  0
 25 35  1  0
 26 36  1  0
 27 37  1  0
M  ISO  8  28  14  29  14  30  14  31  14  32  14  33  14  34  14  35  14
M  ISO  2  36  14  37  14
M  END
>  <minimizedAffinity>  (1) 
-5.47293854

>  <minimizedRMSD>  (1) 
0.757138014

$$$$
