
     RDKit          3D

 35 39  0  0  0  0  0  0  0  0999 V2000
   39.5480   26.6120   33.1780 C   0  0  0  0  0  0  0  0  0  0  0  0
   39.1420   25.7960   34.2390 C   0  0  0  0  0  0  0  0  0  0  0  0
   37.7950   25.8970   34.6630 C   0  0  0  0  0  0  0  0  0  0  0  0
   36.9730   26.7730   34.0230 N   0  0  0  0  0  0  0  0  0  0  0  0
   37.4100   27.5460   32.9970 C   0  0  0  0  0  0  0  0  0  0  0  0
   38.6690   27.4290   32.6240 N   0  0  0  0  0  0  0  0  0  0  0  0
   36.5650   28.4550   32.3300 N   0  0  0  0  0  0  0  0  0  0  0  0
   36.5360   28.8260   31.0240 C   0  0  0  0  0  0  0  0  0  0  0  0
   35.5500   29.7230   30.8650 N   0  0  0  0  0  0  0  0  0  0  0  0
   34.9250   29.9540   32.0390 C   0  0  0  0  0  0  0  0  0  0  0  0
   33.8640   30.7760   32.4110 C   0  0  0  0  0  0  0  0  0  0  0  0
   33.5070   30.7440   33.7040 N   0  0  0  0  0  0  0  0  0  0  0  0
   34.1380   29.9660   34.5720 C   0  0  0  0  0  0  0  0  0  0  0  0
   35.1730   29.1550   34.2430 N   0  0  0  0  0  0  0  0  0  0  0  0
   35.5880   29.1390   32.9430 C   0  0  0  0  0  0  0  0  0  0  0  0
   39.9240   24.8380   34.9840 C   0  0  0  0  0  0  0  0  0  0  0  0
   41.2520   24.9330   34.9680 N   0  0  0  0  0  0  0  0  0  0  0  0
   41.7750   23.9950   35.6880 O   0  0  0  0  0  0  0  0  0  0  0  0
   40.8300   23.2630   36.1940 C   0  0  0  0  0  0  0  0  0  0  0  0
   39.6420   23.7670   35.7710 N   0  0  0  0  0  0  0  0  0  0  0  0
   41.0290   21.8520   37.2550 S   0  0  0  0  0  0  0  0  0  0  0  0
   42.5750   21.0420   36.8840 C   0  0  0  0  0  0  0  0  0  0  0  0
   43.5620   21.7250   36.1660 C   0  0  0  0  0  0  0  0  0  0  0  0
   44.7730   21.1370   35.8570 C   0  0  0  0  0  0  0  0  0  0  0  0
   45.0050   19.8600   36.2620 N   0  0  0  0  0  0  0  0  0  0  0  0
   44.0570   19.2090   36.9490 C   0  0  0  0  0  0  0  0  0  0  0  0
   42.8510   19.7630   37.2710 N   0  0  0  0  0  0  0  0  0  0  0  0
   40.5839   26.5743   32.8099 H   0  0  0  0  0  0  0  0  0  0  0  0
   37.4203   25.2799   35.4930 H   0  0  0  0  0  0  0  0  0  0  0  0
   37.2048   28.4556   30.2331 H   0  0  0  0  0  0  0  0  0  0  0  0
   33.3460   31.4177   31.6831 H   0  0  0  0  0  0  0  0  0  0  0  0
   33.8024   29.9793   35.6195 H   0  0  0  0  0  0  0  0  0  0  0  0
   43.3688   22.7573   35.8389 H   0  0  0  0  0  0  0  0  0  0  0  0
   45.5367   21.6924   35.2929 H   0  0  0  0  0  0  0  0  0  0  0  0
   44.2601   18.1766   37.2698 H   0  0  0  0  0  0  0  0  0  0  0  0
  1  2  2  0
  2  3  1  0
  2 16  1  0
  4  3  2  0
  5  4  1  0
  6  5  2  0
  6  1  1  0
  7 15  1  0
  7  5  1  0
  8  7  1  0
  9  8  2  0
  9 10  1  0
 10 11  2  0
 10 15  1  0
 11 12  1  0
 12 13  2  0
 14 13  1  0
 15 14  2  0
 16 20  1  0
 17 16  2  0
 17 18  1  0
 18 19  1  0
 19 21  1  0
 20 19  2  0
 22 21  1  0
 22 27  1  0
 23 22  2  0
 24 23  1  0
 24 25  2  0
 25 26  1  0
 26 27  2  0
  1 28  1  0
  3 29  1  0
  8 30  1  0
 11 31  1  0
 13 32  1  0
 23 33  1  0
 24 34  1  0
 26 35  1  0
M  ISO  8  28  14  29  14  30  14  31  14  32  14  33  14  34  14  35  14
M  END
>  <minimizedAffinity>  (1) 
-5.26863909

>  <minimizedRMSD>  (1) 
0.701679945

$$$$
