
     RDKit          3D

 34 38  0  0  0  0  0  0  0  0999 V2000
   39.5410   26.6190   33.1920 C   0  0  0  0  0  0  0  0  0  0  0  0
   39.1170   25.7970   34.2490 C   0  0  0  0  0  0  0  0  0  0  0  0
   37.7800   25.8970   34.6510 C   0  0  0  0  0  0  0  0  0  0  0  0
   36.9500   26.7730   34.0190 N   0  0  0  0  0  0  0  0  0  0  0  0
   37.4000   27.5520   32.9990 C   0  0  0  0  0  0  0  0  0  0  0  0
   38.6650   27.4430   32.6320 N   0  0  0  0  0  0  0  0  0  0  0  0
   36.5570   28.4660   32.3280 N   0  0  0  0  0  0  0  0  0  0  0  0
   36.5280   28.8380   31.0300 C   0  0  0  0  0  0  0  0  0  0  0  0
   35.5460   29.7360   30.8660 N   0  0  0  0  0  0  0  0  0  0  0  0
   34.9230   29.9650   32.0370 C   0  0  0  0  0  0  0  0  0  0  0  0
   33.8640   30.7870   32.4100 C   0  0  0  0  0  0  0  0  0  0  0  0
   33.5010   30.7570   33.7010 N   0  0  0  0  0  0  0  0  0  0  0  0
   34.1310   29.9790   34.5610 C   0  0  0  0  0  0  0  0  0  0  0  0
   35.1610   29.1660   34.2460 N   0  0  0  0  0  0  0  0  0  0  0  0
   35.5860   29.1440   32.9470 C   0  0  0  0  0  0  0  0  0  0  0  0
   39.9190   24.8400   34.9830 C   0  0  0  0  0  0  0  0  0  0  0  0
   41.2440   24.9460   34.9790 N   0  0  0  0  0  0  0  0  0  0  0  0
   41.7600   23.9930   35.6940 O   0  0  0  0  0  0  0  0  0  0  0  0
   40.8150   23.2490   36.1770 C   0  0  0  0  0  0  0  0  0  0  0  0
   39.6240   23.7590   35.7430 N   0  0  0  0  0  0  0  0  0  0  0  0
   41.0530   21.8370   37.2070 S   0  0  0  0  0  0  0  0  0  0  0  0
   42.6080   21.0720   36.8040 C   0  0  0  0  0  0  0  0  0  0  0  0
   43.0060   19.7140   37.1880 C   0  0  0  0  0  0  0  0  0  0  0  0
   44.2500   19.3390   36.7670 C   0  0  0  0  0  0  0  0  0  0  0  0
   45.0410   20.1840   36.0460 C   0  0  0  0  0  0  0  0  0  0  0  0
   44.0600   21.6890   35.8710 S   0  0  0  0  0  0  0  0  0  0  0  0
   40.5807   26.5802   32.8349 H   0  0  0  0  0  0  0  0  0  0  0  0
   37.4015   25.2715   35.4729 H   0  0  0  0  0  0  0  0  0  0  0  0
   37.1975   28.4667   30.2401 H   0  0  0  0  0  0  0  0  0  0  0  0
   33.3493   31.4304   31.6813 H   0  0  0  0  0  0  0  0  0  0  0  0
   33.7929   29.9943   35.6076 H   0  0  0  0  0  0  0  0  0  0  0  0
   42.3525   19.0481   37.7707 H   0  0  0  0  0  0  0  0  0  0  0  0
   44.6218   18.3338   37.0148 H   0  0  0  0  0  0  0  0  0  0  0  0
   46.0519   19.9913   35.6575 H   0  0  0  0  0  0  0  0  0  0  0  0
  1  2  2  0
  2  3  1  0
  2 16  1  0
  4  3  2  0
  5  4  1  0
  6  5  2  0
  6  1  1  0
  7 15  1  0
  7  5  1  0
  8  7  1  0
  9  8  2  0
  9 10  1  0
 10 11  2  0
 10 15  1  0
 11 12  1  0
 12 13  2  0
 14 13  1  0
 15 14  2  0
 16 20  1  0
 17 16  2  0
 17 18  1  0
 18 19  1  0
 19 21  1  0
 20 19  2  0
 22 23  2  0
 22 21  1  0
 24 23  1  0
 25 24  2  0
 26 25  1  0
 26 22  1  0
  1 27  1  0
  3 28  1  0
  8 29  1  0
 11 30  1  0
 13 31  1  0
 23 32  1  0
 24 33  1  0
 25 34  1  0
M  ISO  8  27  14  28  14  29  14  30  14  31  14  32  14  33  14  34  14
M  END
>  <minimizedAffinity>  (1) 
-5.16617918

>  <minimizedRMSD>  (1) 
0.688795328

$$$$
