
     RDKit          3D

 36 40  0  0  0  0  0  0  0  0999 V2000
   39.5090   26.6320   33.1860 C   0  0  0  0  0  0  0  0  0  0  0  0
   39.0820   25.8200   34.2470 C   0  0  0  0  0  0  0  0  0  0  0  0
   37.7480   25.9230   34.6580 C   0  0  0  0  0  0  0  0  0  0  0  0
   36.9260   26.8010   34.0160 N   0  0  0  0  0  0  0  0  0  0  0  0
   37.3760   27.5700   32.9930 C   0  0  0  0  0  0  0  0  0  0  0  0
   38.6500   27.4570   32.6150 N   0  0  0  0  0  0  0  0  0  0  0  0
   36.5450   28.4870   32.3100 N   0  0  0  0  0  0  0  0  0  0  0  0
   36.5190   28.8650   31.0180 C   0  0  0  0  0  0  0  0  0  0  0  0
   35.5420   29.7670   30.8590 N   0  0  0  0  0  0  0  0  0  0  0  0
   34.9120   29.9980   32.0340 C   0  0  0  0  0  0  0  0  0  0  0  0
   33.8580   30.8280   32.3820 C   0  0  0  0  0  0  0  0  0  0  0  0
   33.4950   30.7930   33.6690 N   0  0  0  0  0  0  0  0  0  0  0  0
   34.1140   30.0090   34.5440 C   0  0  0  0  0  0  0  0  0  0  0  0
   35.1430   29.1930   34.2240 N   0  0  0  0  0  0  0  0  0  0  0  0
   35.5730   29.1720   32.9250 C   0  0  0  0  0  0  0  0  0  0  0  0
   39.8760   24.8620   34.9880 C   0  0  0  0  0  0  0  0  0  0  0  0
   41.2130   24.9420   34.9580 N   0  0  0  0  0  0  0  0  0  0  0  0
   41.7250   23.9950   35.6850 O   0  0  0  0  0  0  0  0  0  0  0  0
   40.7670   23.2810   36.2030 C   0  0  0  0  0  0  0  0  0  0  0  0
   39.5860   23.8060   35.7800 N   0  0  0  0  0  0  0  0  0  0  0  0
   41.0010   21.8900   37.2600 S   0  0  0  0  0  0  0  0  0  0  0  0
   42.2400   20.8360   36.5140 C   0  0  0  0  0  0  0  0  0  0  0  0
   42.9780   20.0150   37.3730 C   0  0  0  0  0  0  0  0  0  0  0  0
   43.9710   19.1520   36.9110 C   0  0  0  0  0  0  0  0  0  0  0  0
   44.1610   19.1750   35.5430 C   0  0  0  0  0  0  0  0  0  0  0  0
   43.4440   19.9770   34.6740 C   0  0  0  0  0  0  0  0  0  0  0  0
   42.4950   20.7940   35.1840 N   0  0  0  0  0  0  0  0  0  0  0  0
   40.5495   26.5822   32.8328 H   0  0  0  0  0  0  0  0  0  0  0  0
   37.3689   25.3055   35.4857 H   0  0  0  0  0  0  0  0  0  0  0  0
   37.1875   28.4953   30.2265 H   0  0  0  0  0  0  0  0  0  0  0  0
   33.3531   31.4732   31.6480 H   0  0  0  0  0  0  0  0  0  0  0  0
   33.7698   30.0245   35.5886 H   0  0  0  0  0  0  0  0  0  0  0  0
   42.7674   20.0515   38.4520 H   0  0  0  0  0  0  0  0  0  0  0  0
   44.5557   18.5052   37.5816 H   0  0  0  0  0  0  0  0  0  0  0  0
   44.9308   18.5140   35.1182 H   0  0  0  0  0  0  0  0  0  0  0  0
   43.6413   19.9508   33.5922 H   0  0  0  0  0  0  0  0  0  0  0  0
  1  2  2  0
  2  3  1  0
  2 16  1  0
  4  3  2  0
  5  4  1  0
  6  5  2  0
  6  1  1  0
  7 15  1  0
  7  5  1  0
  8  7  1  0
  9  8  2  0
  9 10  1  0
 10 11  2  0
 10 15  1  0
 11 12  1  0
 12 13  2  0
 14 13  1  0
 15 14  2  0
 16 20  1  0
 17 16  2  0
 17 18  1  0
 18 19  1  0
 19 21  1  0
 20 19  2  0
 22 21  1  0
 22 23  2  0
 24 23  1  0
 25 24  2  0
 26 27  2  0
 26 25  1  0
 27 22  1  0
  1 28  1  0
  3 29  1  0
  8 30  1  0
 11 31  1  0
 13 32  1  0
 23 33  1  0
 24 34  1  0
 25 35  1  0
 26 36  1  0
M  ISO  8  28  14  29  14  30  14  31  14  32  14  33  14  34  14  35  14
M  ISO  1  36  14
M  END
>  <minimizedAffinity>  (1) 
-5.159266

>  <minimizedRMSD>  (1) 
1.14603043

$$$$
