
     RDKit          3D

 43 47  0  0  0  0  0  0  0  0999 V2000
   39.6300   26.6430   33.1410 C   0  0  0  0  0  0  0  0  0  0  0  0
   39.2660   25.8160   34.2010 C   0  0  0  0  0  0  0  0  0  0  0  0
   37.9190   25.8780   34.6400 C   0  0  0  0  0  0  0  0  0  0  0  0
   37.0580   26.7270   34.0140 N   0  0  0  0  0  0  0  0  0  0  0  0
   37.4620   27.5100   32.9900 C   0  0  0  0  0  0  0  0  0  0  0  0
   38.7350   27.4410   32.5880 N   0  0  0  0  0  0  0  0  0  0  0  0
   36.6030   28.4110   32.3090 N   0  0  0  0  0  0  0  0  0  0  0  0
   36.5490   28.7810   31.0170 C   0  0  0  0  0  0  0  0  0  0  0  0
   35.5450   29.6720   30.8790 N   0  0  0  0  0  0  0  0  0  0  0  0
   34.9430   29.8860   32.0620 C   0  0  0  0  0  0  0  0  0  0  0  0
   33.8880   30.6910   32.4330 C   0  0  0  0  0  0  0  0  0  0  0  0
   33.5400   30.6610   33.7330 N   0  0  0  0  0  0  0  0  0  0  0  0
   34.1900   29.8880   34.6000 C   0  0  0  0  0  0  0  0  0  0  0  0
   35.2280   29.0890   34.2650 N   0  0  0  0  0  0  0  0  0  0  0  0
   35.6270   29.0780   32.9640 C   0  0  0  0  0  0  0  0  0  0  0  0
   40.0860   24.8800   34.9380 C   0  0  0  0  0  0  0  0  0  0  0  0
   41.3940   25.0800   34.9990 N   0  0  0  0  0  0  0  0  0  0  0  0
   41.9650   24.1520   35.6940 O   0  0  0  0  0  0  0  0  0  0  0  0
   41.0550   23.3130   36.1120 C   0  0  0  0  0  0  0  0  0  0  0  0
   39.8610   23.7600   35.6420 N   0  0  0  0  0  0  0  0  0  0  0  0
   41.3400   21.8790   37.0980 S   0  0  0  0  0  0  0  0  0  0  0  0
   42.5200   20.8100   36.2390 C   0  0  0  0  0  0  0  0  0  0  0  0
   43.7730   21.5540   35.8440 C   0  0  0  0  0  0  0  0  0  0  0  0
   45.0120   20.7340   36.0030 C   0  0  0  0  0  0  0  0  0  0  0  0
   44.8290   19.2870   35.6770 C   0  0  0  0  0  0  0  0  0  0  0  0
   43.6140   18.6490   36.2630 C   0  0  0  0  0  0  0  0  0  0  0  0
   42.8610   19.6260   37.1250 C   0  0  0  0  0  0  0  0  0  0  0  0
   40.6635   26.6314   32.7644 H   0  0  0  0  0  0  0  0  0  0  0  0
   37.5746   25.2492   35.4743 H   0  0  0  0  0  0  0  0  0  0  0  0
   37.2080   28.4204   30.2134 H   0  0  0  0  0  0  0  0  0  0  0  0
   33.3586   31.3242   31.7058 H   0  0  0  0  0  0  0  0  0  0  0  0
   33.8636   29.8999   35.6504 H   0  0  0  0  0  0  0  0  0  0  0  0
   42.0506   20.4560   35.3093 H   0  0  0  0  0  0  0  0  0  0  0  0
   43.8623   22.4505   36.4751 H   0  0  0  0  0  0  0  0  0  0  0  0
   43.6819   21.8104   34.7782 H   0  0  0  0  0  0  0  0  0  0  0  0
   45.7857   21.1435   35.3369 H   0  0  0  0  0  0  0  0  0  0  0  0
   45.2953   20.7878   37.0645 H   0  0  0  0  0  0  0  0  0  0  0  0
   44.7692   19.1903   34.5829 H   0  0  0  0  0  0  0  0  0  0  0  0
   45.6899   18.7647   36.1198 H   0  0  0  0  0  0  0  0  0  0  0  0
   42.9583   18.3063   35.4490 H   0  0  0  0  0  0  0  0  0  0  0  0
   43.9278   17.7982   36.8856 H   0  0  0  0  0  0  0  0  0  0  0  0
   43.4884   19.9508   37.9681 H   0  0  0  0  0  0  0  0  0  0  0  0
   41.9526   19.1684   37.5439 H   0  0  0  0  0  0  0  0  0  0  0  0
  1  2  2  0
  2  3  1  0
  2 16  1  0
  4  3  2  0
  5  4  1  0
  6  5  2  0
  6  1  1  0
  7 15  1  0
  7  5  1  0
  8  7  1  0
  9  8  2  0
  9 10  1  0
 10 11  2  0
 10 15  1  0
 11 12  1  0
 12 13  2  0
 14 13  1  0
 15 14  2  0
 16 17  2  0
 16 20  1  0
 17 18  1  0
 18 19  1  0
 19 21  1  0
 20 19  2  0
 22 21  1  0
 22 27  1  0
 23 24  1  0
 23 22  1  0
 25 24  1  0
 25 26  1  0
 26 27  1  0
  1 28  1  0
  3 29  1  0
  8 30  1  0
 11 31  1  0
 13 32  1  0
 22 33  1  0
 23 34  1  0
 23 35  1  0
 24 36  1  0
 24 37  1  0
 25 38  1  0
 25 39  1  0
 26 40  1  0
 26 41  1  0
 27 42  1  0
 27 43  1  0
M  ISO  8  28  14  29  14  30  14  31  14  32  14  33  13  34  13  35  13
M  ISO  8  36  13  37  13  38  13  39  13  40  13  41  13  42  13  43  13
M  END
>  <minimizedAffinity>  (1) 
-5.09274578

>  <minimizedRMSD>  (1) 
1.11733747

$$$$
