
     RDKit          3D

 42 46  0  0  0  0  0  0  0  0999 V2000
   40.1090   26.4600   33.1430 C   0  0  0  0  0  0  0  0  0  0  0  0
   39.6990   25.6190   34.1920 C   0  0  0  0  0  0  0  0  0  0  0  0
   38.3470   25.6430   34.5570 C   0  0  0  0  0  0  0  0  0  0  0  0
   37.4920   26.4690   33.8910 N   0  0  0  0  0  0  0  0  0  0  0  0
   37.9320   27.2660   32.8810 C   0  0  0  0  0  0  0  0  0  0  0  0
   39.2120   27.2310   32.5480 N   0  0  0  0  0  0  0  0  0  0  0  0
   37.0740   28.1360   32.1680 N   0  0  0  0  0  0  0  0  0  0  0  0
   37.0620   28.5150   30.8790 C   0  0  0  0  0  0  0  0  0  0  0  0
   36.0460   29.3600   30.6840 N   0  0  0  0  0  0  0  0  0  0  0  0
   35.3700   29.5520   31.8410 C   0  0  0  0  0  0  0  0  0  0  0  0
   34.2560   30.3200   32.1740 C   0  0  0  0  0  0  0  0  0  0  0  0
   33.8560   30.2650   33.4470 N   0  0  0  0  0  0  0  0  0  0  0  0
   34.4950   29.5160   34.3280 C   0  0  0  0  0  0  0  0  0  0  0  0
   35.5730   28.7590   34.0530 N   0  0  0  0  0  0  0  0  0  0  0  0
   36.0390   28.7660   32.7670 C   0  0  0  0  0  0  0  0  0  0  0  0
   40.5230   24.7110   34.9600 C   0  0  0  0  0  0  0  0  0  0  0  0
   41.8140   24.9920   35.1530 N   0  0  0  0  0  0  0  0  0  0  0  0
   42.3630   24.0610   35.8560 O   0  0  0  0  0  0  0  0  0  0  0  0
   41.4740   23.1480   36.1490 C   0  0  0  0  0  0  0  0  0  0  0  0
   40.2930   23.5300   35.5940 N   0  0  0  0  0  0  0  0  0  0  0  0
   41.7950   21.6980   37.0950 S   0  0  0  0  0  0  0  0  0  0  0  0
   45.3470   19.6680   35.9710 N   0  0  0  0  0  0  0  0  0  0  0  0
   44.5000   19.1690   37.0330 C   0  0  0  0  0  0  0  0  0  0  0  0
   43.0400   19.2630   36.7080 C   0  0  0  0  0  0  0  0  0  0  0  0
   42.6330   20.4970   35.9910 C   0  0  0  0  0  0  0  0  0  0  0  0
   43.6780   21.1510   35.1550 C   0  0  0  0  0  0  0  0  0  0  0  0
   45.0440   21.0810   35.8310 C   0  0  0  0  0  0  0  0  0  0  0  0
   41.1606   26.4774   32.8208 H   0  0  0  0  0  0  0  0  0  0  0  0
   37.9795   25.0023   35.3721 H   0  0  0  0  0  0  0  0  0  0  0  0
   37.7738   28.1831   30.1088 H   0  0  0  0  0  0  0  0  0  0  0  0
   33.7342   30.9382   31.4286 H   0  0  0  0  0  0  0  0  0  0  0  0
   34.1184   29.5108   35.3615 H   0  0  0  0  0  0  0  0  0  0  0  0
   46.3389   19.5395   36.2170 H   0  0  0  0  0  0  0  0  0  0  0  0
   44.7515   18.1139   37.2160 H   0  0  0  0  0  0  0  0  0  0  0  0
   44.6813   19.7932   37.9204 H   0  0  0  0  0  0  0  0  0  0  0  0
   42.7746   18.4003   36.0793 H   0  0  0  0  0  0  0  0  0  0  0  0
   42.5119   19.2809   37.6728 H   0  0  0  0  0  0  0  0  0  0  0  0
   41.9037   20.1281   35.2547 H   0  0  0  0  0  0  0  0  0  0  0  0
   43.4069   22.2059   35.0008 H   0  0  0  0  0  0  0  0  0  0  0  0
   43.7368   20.6228   34.1919 H   0  0  0  0  0  0  0  0  0  0  0  0
   45.8045   21.5756   35.2089 H   0  0  0  0  0  0  0  0  0  0  0  0
   45.0389   21.5913   36.8054 H   0  0  0  0  0  0  0  0  0  0  0  0
  1  2  2  0
  2  3  1  0
  2 16  1  0
  4  3  2  0
  5  4  1  0
  6  5  2  0
  6  1  1  0
  7 15  1  0
  7  5  1  0
  8  7  1  0
  9  8  2  0
  9 10  1  0
 10 11  2  0
 10 15  1  0
 11 12  1  0
 12 13  2  0
 14 13  1  0
 15 14  2  0
 16 17  2  0
 16 20  1  0
 17 18  1  0
 18 19  1  0
 19 21  1  0
 20 19  2  0
 22 23  1  0
 24 23  1  0
 25 24  1  0
 25 21  1  0
 26 27  1  0
 26 25  1  0
 27 22  1  0
  1 28  1  0
  3 29  1  0
  8 30  1  0
 11 31  1  0
 13 32  1  0
 22 33  1  0
 23 34  1  0
 23 35  1  0
 24 36  1  0
 24 37  1  0
 25 38  1  0
 26 39  1  0
 26 40  1  0
 27 41  1  0
 27 42  1  0
M  ISO  8  28  14  29  14  30  14  31  14  32  14  33   5  34  13  35  13
M  ISO  7  36  13  37  13  38  13  39  13  40  13  41  13  42  13
M  END
>  <minimizedAffinity>  (1) 
-4.82839108

>  <minimizedRMSD>  (1) 
1.37811911

$$$$
