
     RDKit          3D

 40 44  0  0  0  0  0  0  0  0999 V2000
   39.7550   27.2850   30.4650 C   0  0  0  0  0  0  0  0  0  0  0  0
   39.0870   26.6910   31.5390 C   0  0  0  0  0  0  0  0  0  0  0  0
   37.8710   27.2580   31.9480 C   0  0  0  0  0  0  0  0  0  0  0  0
   37.3950   28.3560   31.2880 N   0  0  0  0  0  0  0  0  0  0  0  0
   38.0920   28.8970   30.2410 C   0  0  0  0  0  0  0  0  0  0  0  0
   39.2360   28.3470   29.8720 N   0  0  0  0  0  0  0  0  0  0  0  0
   37.6060   30.0310   29.5550 N   0  0  0  0  0  0  0  0  0  0  0  0
   37.6910   30.3550   28.2400 C   0  0  0  0  0  0  0  0  0  0  0  0
   37.0790   31.5370   28.0530 N   0  0  0  0  0  0  0  0  0  0  0  0
   36.5880   32.0040   29.2270 C   0  0  0  0  0  0  0  0  0  0  0  0
   35.8940   33.1480   29.5590 C   0  0  0  0  0  0  0  0  0  0  0  0
   35.5640   33.2760   30.8590 N   0  0  0  0  0  0  0  0  0  0  0  0
   35.8890   32.3610   31.7460 C   0  0  0  0  0  0  0  0  0  0  0  0
   36.5710   31.2280   31.4490 N   0  0  0  0  0  0  0  0  0  0  0  0
   36.9370   31.0300   30.1570 C   0  0  0  0  0  0  0  0  0  0  0  0
   39.5070   25.5380   32.2980 C   0  0  0  0  0  0  0  0  0  0  0  0
   40.7740   25.4090   32.6720 N   0  0  0  0  0  0  0  0  0  0  0  0
   40.9500   24.3200   33.3370 O   0  0  0  0  0  0  0  0  0  0  0  0
   39.8310   23.6840   33.4350 C   0  0  0  0  0  0  0  0  0  0  0  0
   38.8790   24.4320   32.7800 N   0  0  0  0  0  0  0  0  0  0  0  0
   39.5300   22.1440   34.2450 S   0  0  0  0  0  0  0  0  0  0  0  0
   39.0320   22.4770   35.9560 C   0  0  0  0  0  0  0  0  0  0  0  0
   37.5350   22.3850   36.1490 C   0  0  0  0  0  0  0  0  0  0  0  0
   37.3060   23.2070   37.3930 C   0  0  0  0  0  0  0  0  0  0  0  0
   38.2350   24.3820   37.1970 C   0  0  0  0  0  0  0  0  0  0  0  0
   39.3730   23.8880   36.3580 C   0  0  0  0  0  0  0  0  0  0  0  0
   40.7110   26.8699   30.1133 H   0  0  0  0  0  0  0  0  0  0  0  0
   37.3084   26.8250   32.7882 H   0  0  0  0  0  0  0  0  0  0  0  0
   38.1782   29.7524   27.4593 H   0  0  0  0  0  0  0  0  0  0  0  0
   35.6267   33.9080   28.8101 H   0  0  0  0  0  0  0  0  0  0  0  0
   35.5894   32.5251   32.7916 H   0  0  0  0  0  0  0  0  0  0  0  0
   39.5645   21.7230   36.5543 H   0  0  0  0  0  0  0  0  0  0  0  0
   36.9979   22.8107   35.2886 H   0  0  0  0  0  0  0  0  0  0  0  0
   37.1706   21.3509   36.2377 H   0  0  0  0  0  0  0  0  0  0  0  0
   36.2591   23.5375   37.4618 H   0  0  0  0  0  0  0  0  0  0  0  0
   37.4988   22.6512   38.3225 H   0  0  0  0  0  0  0  0  0  0  0  0
   37.7100   25.1999   36.6819 H   0  0  0  0  0  0  0  0  0  0  0  0
   38.5917   24.7727   38.1614 H   0  0  0  0  0  0  0  0  0  0  0  0
   40.3067   23.9017   36.9393 H   0  0  0  0  0  0  0  0  0  0  0  0
   39.5206   24.5269   35.4748 H   0  0  0  0  0  0  0  0  0  0  0  0
  1  2  2  0
  2  3  1  0
  2 16  1  0
  4  3  2  0
  5  4  1  0
  6  5  2  0
  6  1  1  0
  7 15  1  0
  7  5  1  0
  8  7  1  0
  9  8  2  0
  9 10  1  0
 10 11  2  0
 10 15  1  0
 11 12  1  0
 12 13  2  0
 14 13  1  0
 15 14  2  0
 16 17  2  0
 16 20  1  0
 17 18  1  0
 18 19  1  0
 19 21  1  0
 20 19  2  0
 21 22  1  0
 22 23  1  0
 22 26  1  0
 23 24  1  0
 25 24  1  0
 26 25  1  0
  1 27  1  0
  3 28  1  0
  8 29  1  0
 11 30  1  0
 13 31  1  0
 22 32  1  0
 23 33  1  0
 23 34  1  0
 24 35  1  0
 24 36  1  0
 25 37  1  0
 25 38  1  0
 26 39  1  0
 26 40  1  0
M  ISO  8  27  14  28  14  29  14  30  14  31  14  32  13  33  13  34  13
M  ISO  6  35  13  36  13  37  13  38  13  39  13  40  13
M  END
>  <minimizedAffinity>  (1) 
-4.39745808

>  <minimizedRMSD>  (1) 
3.46993613

$$$$
