
     RDKit          3D

 34 37  0  0  0  0  0  0  0  0999 V2000
   39.0550   25.0530   31.0150 C   0  0  0  0  0  0  0  0  0  0  0  0
   39.6760   25.5590   29.8670 C   0  0  0  0  0  0  0  0  0  0  0  0
   41.0390   25.6180   29.6940 C   0  0  0  0  0  0  0  0  0  0  0  0
   41.8350   25.1540   30.7100 C   0  0  0  0  0  0  0  0  0  0  0  0
   41.2680   24.6520   31.8480 C   0  0  0  0  0  0  0  0  0  0  0  0
   39.8930   24.6100   31.9790 C   0  0  0  0  0  0  0  0  0  0  0  0
   39.3030   24.0880   33.1640 N   0  0  0  0  0  0  0  0  0  0  0  0
   39.0120   22.7680   33.3190 C   0  0  0  0  0  0  0  0  0  0  0  0
   38.4640   22.5620   34.5310 N   0  0  0  0  0  0  0  0  0  0  0  0
   38.3880   23.7310   35.1810 C   0  0  0  0  0  0  0  0  0  0  0  0
   37.9360   24.1720   36.4250 C   0  0  0  0  0  0  0  0  0  0  0  0
   37.4580   23.3090   37.2080 O   0  0  0  0  0  0  0  0  0  0  0  0
   38.0270   25.4780   36.7380 N   0  0  0  0  0  0  0  0  0  0  0  0
   38.5490   26.3550   35.8590 C   0  0  0  0  0  0  0  0  0  0  0  0
   38.6090   27.7180   36.2670 N   0  0  0  0  0  0  0  0  0  0  0  0
   39.0040   25.9890   34.6360 N   0  0  0  0  0  0  0  0  0  0  0  0
   38.9190   24.6680   34.3050 C   0  0  0  0  0  0  0  0  0  0  0  0
   36.7890   23.9300   30.8600 C   0  0  0  0  0  0  0  0  0  0  0  0
   37.6070   25.0560   31.0490 C   0  0  0  0  0  0  0  0  0  0  0  0
   36.9600   26.2940   31.2920 C   0  0  0  0  0  0  0  0  0  0  0  0
   35.5870   26.3320   31.3320 N   0  0  0  0  0  0  0  0  0  0  0  0
   34.8600   25.2220   31.1430 C   0  0  0  0  0  0  0  0  0  0  0  0
   35.4540   24.0130   30.9060 N   0  0  0  0  0  0  0  0  0  0  0  0
   39.0352   25.9319   29.0544 H   0  0  0  0  0  0  0  0  0  0  0  0
   41.4768   26.0243   28.7703 H   0  0  0  0  0  0  0  0  0  0  0  0
   42.9299   25.1858   30.6091 H   0  0  0  0  0  0  0  0  0  0  0  0
   41.9081   24.2804   32.6618 H   0  0  0  0  0  0  0  0  0  0  0  0
   39.1968   21.9867   32.5670 H   0  0  0  0  0  0  0  0  0  0  0  0
   37.6954   25.8088   37.6554 H   0  0  0  0  0  0  0  0  0  0  0  0
   38.9993   28.4289   35.6321 H   0  0  0  0  0  0  0  0  0  0  0  0
   38.2621   27.9929   37.1970 H   0  0  0  0  0  0  0  0  0  0  0  0
   37.2582   22.9536   30.6690 H   0  0  0  0  0  0  0  0  0  0  0  0
   37.5484   27.2105   31.4462 H   0  0  0  0  0  0  0  0  0  0  0  0
   33.7624   25.2847   31.1793 H   0  0  0  0  0  0  0  0  0  0  0  0
  1 19  1  0
  1  6  1  0
  2  1  2  0
  3  2  1  0
  3  4  2  0
  4  5  1  0
  5  6  2  0
  6  7  1  0
  7  8  1  0
  7 17  1  0
  8  9  2  0
  9 10  1  0
 10 11  1  0
 11 13  1  0
 11 12  2  0
 14 15  1  0
 14 13  1  0
 16 14  2  0
 17 16  1  0
 17 10  2  0
 18 23  2  0
 18 19  1  0
 19 20  2  0
 20 21  1  0
 22 21  2  0
 23 22  1  0
  2 24  1  0
  3 25  1  0
  4 26  1  0
  5 27  1  0
  8 28  1  0
 13 29  1  0
 15 30  1  0
 15 31  1  0
 18 32  1  0
 20 33  1  0
 22 34  1  0
M  ISO  8  24  14  25  14  26  14  27  14  28  14  29   9  32  14  33  14
M  ISO  1  34  14
M  END
>  <minimizedAffinity>  (1) 
-5.24069023

>  <minimizedRMSD>  (1) 
5.36146307

$$$$
