
     RDKit          3D

 34 37  0  0  0  0  0  0  0  0999 V2000
   37.7770   22.7600   34.7470 C   0  0  0  0  0  0  0  0  0  0  0  0
   37.2910   21.4980   34.3910 C   0  0  0  0  0  0  0  0  0  0  0  0
   36.8550   21.2160   33.1030 C   0  0  0  0  0  0  0  0  0  0  0  0
   36.9020   22.2040   32.1560 C   0  0  0  0  0  0  0  0  0  0  0  0
   37.3760   23.4400   32.4950 C   0  0  0  0  0  0  0  0  0  0  0  0
   37.8070   23.7090   33.7760 C   0  0  0  0  0  0  0  0  0  0  0  0
   38.3430   24.9990   34.2660 C   0  0  0  0  0  0  0  0  0  0  0  0
   37.5200   25.8680   34.9290 N   0  0  0  0  0  0  0  0  0  0  0  0
   37.9890   27.0480   35.3880 C   0  0  0  0  0  0  0  0  0  0  0  0
   39.2740   27.3500   35.1830 N   0  0  0  0  0  0  0  0  0  0  0  0
   40.1230   26.5200   34.5320 C   0  0  0  0  0  0  0  0  0  0  0  0
   41.4490   26.8470   34.3290 C   0  0  0  0  0  0  0  0  0  0  0  0
   42.3370   25.9990   33.6580 C   0  0  0  0  0  0  0  0  0  0  0  0
   41.7840   24.7920   33.2090 C   0  0  0  0  0  0  0  0  0  0  0  0
   40.4610   24.4310   33.3950 C   0  0  0  0  0  0  0  0  0  0  0  0
   39.6510   25.3150   34.0630 C   0  0  0  0  0  0  0  0  0  0  0  0
   37.3900   23.4390   37.1770 C   0  0  0  0  0  0  0  0  0  0  0  0
   38.2070   22.9320   36.1400 C   0  0  0  0  0  0  0  0  0  0  0  0
   39.5230   22.5640   36.4610 C   0  0  0  0  0  0  0  0  0  0  0  0
   39.9430   22.7170   37.7650 N   0  0  0  0  0  0  0  0  0  0  0  0
   39.1210   23.2060   38.7090 C   0  0  0  0  0  0  0  0  0  0  0  0
   37.8430   23.5690   38.4240 N   0  0  0  0  0  0  0  0  0  0  0  0
   37.2530   20.7058   35.1532 H   0  0  0  0  0  0  0  0  0  0  0  0
   36.4778   20.2148   32.8475 H   0  0  0  0  0  0  0  0  0  0  0  0
   36.5606   22.0041   31.1296 H   0  0  0  0  0  0  0  0  0  0  0  0
   37.4141   24.2327   31.7334 H   0  0  0  0  0  0  0  0  0  0  0  0
   37.3264   27.7465   35.9200 H   0  0  0  0  0  0  0  0  0  0  0  0
   41.8211   27.8099   34.7089 H   0  0  0  0  0  0  0  0  0  0  0  0
   43.3928   26.2608   33.4947 H   0  0  0  0  0  0  0  0  0  0  0  0
   42.4414   24.0890   32.6765 H   0  0  0  0  0  0  0  0  0  0  0  0
   40.0732   23.4717   33.0216 H   0  0  0  0  0  0  0  0  0  0  0  0
   36.3550   23.7334   36.9490 H   0  0  0  0  0  0  0  0  0  0  0  0
   40.2010   22.1642   35.6926 H   0  0  0  0  0  0  0  0  0  0  0  0
   39.4922   23.3152   39.7387 H   0  0  0  0  0  0  0  0  0  0  0  0
  1 18  1  0
  2  1  2  0
  3  2  1  0
  4  5  1  0
  4  3  2  0
  5  6  2  0
  6  7  1  0
  6  1  1  0
  7  8  2  0
  8  9  1  0
 10  9  2  0
 11 10  1  0
 12 11  2  0
 13 12  1  0
 14 15  1  0
 14 13  2  0
 15 16  2  0
 16  7  1  0
 16 11  1  0
 17 22  2  0
 18 19  2  0
 18 17  1  0
 19 20  1  0
 20 21  2  0
 22 21  1  0
  2 23  1  0
  3 24  1  0
  4 25  1  0
  5 26  1  0
  9 27  1  0
 12 28  1  0
 13 29  1  0
 14 30  1  0
 15 31  1  0
 17 32  1  0
 19 33  1  0
 21 34  1  0
M  ISO  8  23  14  24  14  25  14  26  14  27  14  28  14  29  14  30  14
M  ISO  4  31  14  32  14  33  14  34  14
M  END
>  <minimizedAffinity>  (1) 
-5.14849758

>  <minimizedRMSD>  (1) 
2.01463842

$$$$
