
     RDKit          3D

 44 46  0  0  1  0  0  0  0  0999 V2000
   38.4990   24.5780   33.7980 N   0  0  0  0  0  0  0  0  0  0  0  0
   39.1930   25.6900   33.5560 C   0  0  0  0  0  0  0  0  0  0  0  0
   39.1980   26.2330   32.2860 C   0  0  0  0  0  0  0  0  0  0  0  0
   38.4780   25.6070   31.2880 C   0  0  0  0  0  0  0  0  0  0  0  0
   38.4050   26.0030   30.0960 O   0  0  0  0  0  0  0  0  0  0  0  0
   37.7680   24.4610   31.5540 N   0  0  0  0  0  0  0  0  0  0  0  0
   37.8030   23.9860   32.8000 C   0  0  0  0  0  0  0  0  0  0  0  0
   37.1550   22.9360   33.0510 O   0  0  0  0  0  0  0  0  0  0  0  0
   37.8240   24.7910   36.0980 C   0  0  0  0  0  0  0  0  0  0  0  0
   38.5600   24.1090   35.1150 C   0  0  0  0  0  0  0  0  0  0  0  0
   39.2920   23.0200   35.5280 C   0  0  0  0  0  0  0  0  0  0  0  0
   39.2760   22.6510   36.8450 N   0  0  0  0  0  0  0  0  0  0  0  0
   38.5550   23.3350   37.7590 C   0  0  0  0  0  0  0  0  0  0  0  0
   37.8250   24.4160   37.3680 N   0  0  0  0  0  0  0  0  0  0  0  0
   38.6980   22.7620   39.0550 N   0  0  0  0  0  0  0  0  0  0  0  0
   39.9360   27.4730   31.8950 C   0  0  0  0  0  0  0  0  0  0  0  0
   41.2400   27.1460   31.1780 C   0  0  1  0  0  0  0  0  0  0  0  0
   41.7470   28.3130   30.3880 C   0  0  0  0  0  0  0  0  0  0  0  0
   42.8790   29.0520   30.9980 C   0  0  0  0  0  0  0  0  0  0  0  0
   43.8350   28.2460   31.8080 C   0  0  0  0  0  0  0  0  0  0  0  0
   43.0900   27.4410   32.8340 C   0  0  0  0  0  0  0  0  0  0  0  0
   42.2150   26.4850   32.0870 C   0  0  2  0  0  0  0  0  0  0  0  0
   43.0720   25.4760   31.3360 C   0  0  0  0  0  0  0  0  0  0  0  0
   39.7599   26.1737   34.3651 H   0  0  0  0  0  0  0  0  0  0  0  0
   37.2278   23.9855   30.8172 H   0  0  0  0  0  0  0  0  0  0  0  0
   37.2266   25.6662   35.8028 H   0  0  0  0  0  0  0  0  0  0  0  0
   39.8881   22.4480   34.8017 H   0  0  0  0  0  0  0  0  0  0  0  0
   38.2051   23.1767   39.8587 H   0  0  0  0  0  0  0  0  0  0  0  0
   39.2944   21.9329   39.1886 H   0  0  0  0  0  0  0  0  0  0  0  0
   39.3003   28.0707   31.2252 H   0  0  0  0  0  0  0  0  0  0  0  0
   40.1774   28.0333   32.8103 H   0  0  0  0  0  0  0  0  0  0  0  0
   41.0485   26.3832   30.4090 H   0  0  0  0  0  0  0  0  0  0  0  0
   40.9142   29.0190   30.2535 H   0  0  0  0  0  0  0  0  0  0  0  0
   42.1308   27.8963   29.4451 H   0  0  0  0  0  0  0  0  0  0  0  0
   43.4467   29.5264   30.1840 H   0  0  0  0  0  0  0  0  0  0  0  0
   42.4201   29.7591   31.7047 H   0  0  0  0  0  0  0  0  0  0  0  0
   44.3906   27.5662   31.1453 H   0  0  0  0  0  0  0  0  0  0  0  0
   44.5343   28.9236   32.3198 H   0  0  0  0  0  0  0  0  0  0  0  0
   43.7987   26.8882   33.4682 H   0  0  0  0  0  0  0  0  0  0  0  0
   42.4917   28.0935   33.4869 H   0  0  0  0  0  0  0  0  0  0  0  0
   41.6035   25.9632   32.8378 H   0  0  0  0  0  0  0  0  0  0  0  0
   43.6097   24.8429   32.0571 H   0  0  0  0  0  0  0  0  0  0  0  0
   42.4283   24.8465   30.7041 H   0  0  0  0  0  0  0  0  0  0  0  0
   43.7974   26.0094   30.7041 H   0  0  0  0  0  0  0  0  0  0  0  0
  1 10  1  0
  2  1  1  0
  3  2  2  0
  4  6  1  0
  4  3  1  0
  5  4  2  0
  6  7  1  0
  7  8  2  0
  7  1  1  0
  9 14  2  0
 10 11  2  0
 10  9  1  0
 11 12  1  0
 12 13  2  0
 13 15  1  0
 14 13  1  0
 16  3  1  0
 17 16  1  0
 17 22  1  0
 18 19  1  0
 18 17  1  0
 19 20  1  0
 20 21  1  0
 22 21  1  0
 23 22  1  0
  2 24  1  0
  6 25  1  0
  9 26  1  0
 11 27  1  0
 15 28  1  0
 15 29  1  0
 16 30  1  0
 16 31  1  0
 17 32  1  6
 18 33  1  0
 18 34  1  0
 19 35  1  0
 19 36  1  0
 20 37  1  0
 20 38  1  0
 21 39  1  0
 21 40  1  0
 22 41  1  1
 23 42  1  0
 23 43  1  0
 23 44  1  0
M  ISO  8  24  14  25   9  26  14  27  14  30   8  31   8  32  13  33  13
M  ISO  8  34  13  35  13  36  13  37  13  38  13  39  13  40  13  41  13
M  ISO  3  42   8  43   8  44   8
M  END
>  <minimizedAffinity>  (1) 
-4.54878521

>  <minimizedRMSD>  (1) 
0.00986318011

$$$$
