
     RDKit          3D

 31 34  0  0  0  0  0  0  0  0999 V2000
   37.3500   22.0860   34.9560 C   0  0  0  0  0  0  0  0  0  0  0  0
   36.3590   21.1170   35.1430 C   0  0  0  0  0  0  0  0  0  0  0  0
   35.6570   20.5470   34.1040 C   0  0  0  0  0  0  0  0  0  0  0  0
   35.9400   20.9470   32.8220 C   0  0  0  0  0  0  0  0  0  0  0  0
   36.9070   21.8960   32.6030 C   0  0  0  0  0  0  0  0  0  0  0  0
   37.5860   22.4410   33.6730 C   0  0  0  0  0  0  0  0  0  0  0  0
   38.5880   23.4240   33.4450 N   0  0  0  0  0  0  0  0  0  0  0  0
   39.9280   23.3890   33.3370 C   0  0  0  0  0  0  0  0  0  0  0  0
   40.3980   24.6440   33.1150 N   0  0  0  0  0  0  0  0  0  0  0  0
   39.3600   25.5090   33.0760 C   0  0  0  0  0  0  0  0  0  0  0  0
   39.2740   26.8720   32.8840 C   0  0  0  0  0  0  0  0  0  0  0  0
   38.0650   27.4740   32.8980 N   0  0  0  0  0  0  0  0  0  0  0  0
   36.9680   26.7230   33.1000 C   0  0  0  0  0  0  0  0  0  0  0  0
   37.0550   25.3940   33.2870 N   0  0  0  0  0  0  0  0  0  0  0  0
   38.2360   24.7230   33.2850 C   0  0  0  0  0  0  0  0  0  0  0  0
   37.5090   23.5770   37.0110 C   0  0  0  0  0  0  0  0  0  0  0  0
   38.0120   22.6010   36.1440 C   0  0  0  0  0  0  0  0  0  0  0  0
   39.2830   22.0720   36.4620 C   0  0  0  0  0  0  0  0  0  0  0  0
   39.9470   22.5270   37.5720 N   0  0  0  0  0  0  0  0  0  0  0  0
   39.3940   23.4690   38.3570 C   0  0  0  0  0  0  0  0  0  0  0  0
   38.1780   24.0020   38.0870 N   0  0  0  0  0  0  0  0  0  0  0  0
   36.1291   20.7945   36.1692 H   0  0  0  0  0  0  0  0  0  0  0  0
   34.8857   19.7871   34.2977 H   0  0  0  0  0  0  0  0  0  0  0  0
   35.3940   20.5088   31.9735 H   0  0  0  0  0  0  0  0  0  0  0  0
   37.1397   22.2208   31.5781 H   0  0  0  0  0  0  0  0  0  0  0  0
   40.5479   22.4837   33.4162 H   0  0  0  0  0  0  0  0  0  0  0  0
   40.1854   27.4658   32.7203 H   0  0  0  0  0  0  0  0  0  0  0  0
   35.9795   27.2054   33.1125 H   0  0  0  0  0  0  0  0  0  0  0  0
   36.5217   24.0127   36.7981 H   0  0  0  0  0  0  0  0  0  0  0  0
   39.7369   21.3001   35.8232 H   0  0  0  0  0  0  0  0  0  0  0  0
   39.9448   23.8165   39.2435 H   0  0  0  0  0  0  0  0  0  0  0  0
  1  2  2  0
  1 17  1  0
  3  2  1  0
  4  3  2  0
  5  4  1  0
  5  6  2  0
  6  1  1  0
  7  6  1  0
  8  7  1  0
  9  8  2  0
 10  9  1  0
 10 15  2  0
 11 12  2  0
 11 10  1  0
 12 13  1  0
 13 14  2  0
 15 14  1  0
 15  7  1  0
 16 21  2  0
 17 18  2  0
 17 16  1  0
 18 19  1  0
 19 20  2  0
 21 20  1  0
  2 22  1  0
  3 23  1  0
  4 24  1  0
  5 25  1  0
  8 26  1  0
 11 27  1  0
 13 28  1  0
 16 29  1  0
 18 30  1  0
 20 31  1  0
M  ISO  8  22  14  23  14  24  14  25  14  26  14  27  14  28  14  29  14
M  ISO  2  30  14  31  14
M  END
>  <minimizedAffinity>  (1) 
-4.83987474

>  <minimizedRMSD>  (1) 
1.79183388

$$$$
