
     RDKit          3D

 55 58  0  0  1  0  0  0  0  0999 V2000
   40.0520   27.2930   31.6810 C   0  0  0  0  0  0  0  0  0  0  0  0
   41.4480   26.8930   31.1900 C   0  0  1  0  0  0  0  0  0  0  0  0
   41.5940   27.2510   29.7380 C   0  0  0  0  0  0  0  0  0  0  0  0
   42.4050   28.4660   29.4570 C   0  0  0  0  0  0  0  0  0  0  0  0
   43.5400   28.7340   30.4060 C   0  0  0  0  0  0  0  0  0  0  0  0
   43.0130   28.7460   31.7980 C   0  0  0  0  0  0  0  0  0  0  0  0
   42.5160   27.3580   32.1010 C   0  0  2  0  0  0  0  0  0  0  0  0
   43.5830   26.3880   32.1750 N   0  0  0  0  0  0  0  0  0  0  0  0
   44.4310   26.5420   33.3230 C   0  0  0  0  0  0  0  0  0  0  0  0
   43.8020   26.0790   34.6200 C   0  0  0  0  0  0  0  0  0  0  0  0
   43.8200   24.6230   34.5570 N   0  0  0  0  0  0  0  0  0  0  0  0
   43.8370   24.1470   33.1970 C   0  0  0  0  0  0  0  0  0  0  0  0
   43.0050   25.0620   32.3040 C   0  0  0  0  0  0  0  0  0  0  0  0
   38.5460   24.5300   33.7040 N   0  0  0  0  0  0  0  0  0  0  0  0
   39.2870   25.5970   33.4200 C   0  0  0  0  0  0  0  0  0  0  0  0
   39.2750   26.1210   32.1320 C   0  0  0  0  0  0  0  0  0  0  0  0
   38.4770   25.5040   31.1710 C   0  0  0  0  0  0  0  0  0  0  0  0
   38.3830   25.8840   29.9760 O   0  0  0  0  0  0  0  0  0  0  0  0
   37.7260   24.4100   31.4920 N   0  0  0  0  0  0  0  0  0  0  0  0
   37.7800   23.9510   32.7500 C   0  0  0  0  0  0  0  0  0  0  0  0
   37.0900   22.9450   33.0450 O   0  0  0  0  0  0  0  0  0  0  0  0
   37.9040   24.7690   36.0130 C   0  0  0  0  0  0  0  0  0  0  0  0
   38.6310   24.0820   35.0330 C   0  0  0  0  0  0  0  0  0  0  0  0
   39.3960   22.9940   35.4470 C   0  0  0  0  0  0  0  0  0  0  0  0
   39.3870   22.6650   36.7810 N   0  0  0  0  0  0  0  0  0  0  0  0
   38.6760   23.3520   37.6800 C   0  0  0  0  0  0  0  0  0  0  0  0
   37.9370   24.4040   37.2840 N   0  0  0  0  0  0  0  0  0  0  0  0
   38.8310   22.8170   38.9940 N   0  0  0  0  0  0  0  0  0  0  0  0
   39.5117   27.7837   30.8580 H   0  0  0  0  0  0  0  0  0  0  0  0
   40.1715   27.9748   32.5359 H   0  0  0  0  0  0  0  0  0  0  0  0
   41.5706   25.8006   31.2302 H   0  0  0  0  0  0  0  0  0  0  0  0
   42.0679   26.4010   29.2253 H   0  0  0  0  0  0  0  0  0  0  0  0
   40.5789   27.4753   29.3784 H   0  0  0  0  0  0  0  0  0  0  0  0
   42.8280   28.3622   28.4469 H   0  0  0  0  0  0  0  0  0  0  0  0
   41.7159   29.3158   29.5709 H   0  0  0  0  0  0  0  0  0  0  0  0
   44.2993   27.9445   30.3056 H   0  0  0  0  0  0  0  0  0  0  0  0
   43.9985   29.7064   30.1730 H   0  0  0  0  0  0  0  0  0  0  0  0
   43.8131   29.0210   32.5010 H   0  0  0  0  0  0  0  0  0  0  0  0
   42.2011   29.4811   31.9005 H   0  0  0  0  0  0  0  0  0  0  0  0
   42.0635   27.4415   33.1001 H   0  0  0  0  0  0  0  0  0  0  0  0
   45.3485   25.9587   33.1560 H   0  0  0  0  0  0  0  0  0  0  0  0
   44.6274   27.6189   33.4313 H   0  0  0  0  0  0  0  0  0  0  0  0
   44.3872   26.4348   35.4808 H   0  0  0  0  0  0  0  0  0  0  0  0
   42.7821   26.4718   34.7447 H   0  0  0  0  0  0  0  0  0  0  0  0
   44.6612   24.2786   35.0414 H   0  0  0  0  0  0  0  0  0  0  0  0
   44.8745   24.1295   32.8319 H   0  0  0  0  0  0  0  0  0  0  0  0
   43.4093   23.1340   33.1677 H   0  0  0  0  0  0  0  0  0  0  0  0
   41.9980   25.1566   32.7364 H   0  0  0  0  0  0  0  0  0  0  0  0
   42.9735   24.6119   31.3008 H   0  0  0  0  0  0  0  0  0  0  0  0
   39.9066   26.0630   34.2003 H   0  0  0  0  0  0  0  0  0  0  0  0
   37.1337   23.9497   30.7862 H   0  0  0  0  0  0  0  0  0  0  0  0
   37.2905   25.6333   35.7187 H   0  0  0  0  0  0  0  0  0  0  0  0
   39.9909   22.4142   34.7259 H   0  0  0  0  0  0  0  0  0  0  0  0
   38.3379   23.2500   39.7878 H   0  0  0  0  0  0  0  0  0  0  0  0
   39.4360   21.9978   39.1485 H   0  0  0  0  0  0  0  0  0  0  0  0
  1 16  1  0
  2  1  1  0
  2  7  1  0
  3  2  1  0
  4  3  1  0
  4  5  1  0
  5  6  1  0
  6  7  1  0
  7  8  1  0
  8 13  1  0
  8  9  1  0
  9 10  1  0
 11 10  1  0
 12 11  1  0
 13 12  1  0
 14 23  1  0
 15 14  1  0
 16 15  2  0
 17 19  1  0
 17 16  1  0
 18 17  2  0
 19 20  1  0
 20 21  2  0
 20 14  1  0
 22 27  2  0
 23 24  2  0
 23 22  1  0
 24 25  1  0
 25 26  2  0
 26 28  1  0
 27 26  1  0
  1 29  1  0
  1 30  1  0
  2 31  1  6
  3 32  1  0
  3 33  1  0
  4 34  1  0
  4 35  1  0
  5 36  1  0
  5 37  1  0
  6 38  1  0
  6 39  1  0
  7 40  1  1
  9 41  1  0
  9 42  1  0
 10 43  1  0
 10 44  1  0
 11 45  1  0
 12 46  1  0
 12 47  1  0
 13 48  1  0
 13 49  1  0
 15 50  1  0
 19 51  1  0
 22 52  1  0
 24 53  1  0
 28 54  1  0
 28 55  1  0
M  ISO  8  29   8  30   8  31  13  32  13  33  13  34  13  35  13  36  13
M  ISO  8  37  13  38  13  39  13  40  13  41  13  42  13  43  13  44  13
M  ISO  8  45   5  46  13  47  13  48  13  49  13  50  14  51   9  52  14
M  ISO  1  53  14
M  END
>  <minimizedAffinity>  (1) 
-4.54696274

>  <minimizedRMSD>  (1) 
1.8163352

$$$$
