
     RDKit          3D

 33 35  0  0  0  0  0  0  0  0999 V2000
   37.0140   21.9590   33.4060 C   0  0  0  0  0  0  0  0  0  0  0  0
   36.3980   20.7920   33.8390 C   0  0  0  0  0  0  0  0  0  0  0  0
   35.3440   20.1860   33.1960 C   0  0  0  0  0  0  0  0  0  0  0  0
   34.8710   20.7740   32.0530 C   0  0  0  0  0  0  0  0  0  0  0  0
   35.4390   21.9190   31.5870 C   0  0  0  0  0  0  0  0  0  0  0  0
   36.4950   22.4870   32.2700 C   0  0  0  0  0  0  0  0  0  0  0  0
   38.0390   23.4340   35.1950 C   0  0  0  0  0  0  0  0  0  0  0  0
   38.1180   22.4790   34.1860 C   0  0  0  0  0  0  0  0  0  0  0  0
   39.4130   21.9700   33.8980 C   0  0  0  0  0  0  0  0  0  0  0  0
   40.4830   22.4380   34.6180 N   0  0  0  0  0  0  0  0  0  0  0  0
   40.3290   23.3560   35.5740 C   0  0  0  0  0  0  0  0  0  0  0  0
   39.0960   23.8650   35.8730 N   0  0  0  0  0  0  0  0  0  0  0  0
   38.3520   25.9810   30.7120 C   0  0  0  0  0  0  0  0  0  0  0  0
   37.3620   26.1180   31.6690 C   0  0  0  0  0  0  0  0  0  0  0  0
   36.7390   25.0020   32.1960 C   0  0  0  0  0  0  0  0  0  0  0  0
   37.1050   23.7270   31.7630 C   0  0  0  0  0  0  0  0  0  0  0  0
   38.0920   23.5680   30.8080 C   0  0  0  0  0  0  0  0  0  0  0  0
   38.7100   24.6970   30.2890 C   0  0  0  0  0  0  0  0  0  0  0  0
   39.1450   27.4150   30.0430 S   0  0  0  0  0  0  0  0  0  0  0  0
   40.0930   27.0200   28.9750 O   0  0  0  0  0  0  0  0  0  0  0  0
   38.0510   28.2500   29.4030 O   0  0  0  0  0  0  0  0  0  0  0  0
   36.7784   20.3210   34.7574 H   0  0  0  0  0  0  0  0  0  0  0  0
   34.8960   19.2604   33.5865 H   0  0  0  0  0  0  0  0  0  0  0  0
   34.0293   20.3191   31.5102 H   0  0  0  0  0  0  0  0  0  0  0  0
   35.0579   22.3903   30.6691 H   0  0  0  0  0  0  0  0  0  0  0  0
   37.0524   23.8524   35.4431 H   0  0  0  0  0  0  0  0  0  0  0  0
   39.5551   21.2141   33.1116 H   0  0  0  0  0  0  0  0  0  0  0  0
   41.2093   23.7093   36.1311 H   0  0  0  0  0  0  0  0  0  0  0  0
   37.0689   27.1210   32.0126 H   0  0  0  0  0  0  0  0  0  0  0  0
   35.9539   25.1193   32.9575 H   0  0  0  0  0  0  0  0  0  0  0  0
   38.3824   22.5639   30.4654 H   0  0  0  0  0  0  0  0  0  0  0  0
   39.4972   24.5796   29.5297 H   0  0  0  0  0  0  0  0  0  0  0  0
   39.8233   28.0902   31.0232 H   0  0  0  0  0  0  0  0  0  0  0  0
  1  2  2  0
  1  8  1  0
  3  2  1  0
  4  3  2  0
  5  4  1  0
  5  6  2  0
  6  1  1  0
  7 12  2  0
  8  7  1  0
  9  8  2  0
  9 10  1  0
 10 11  2  0
 11 12  1  0
 13 14  2  0
 14 15  1  0
 16 15  2  0
 16  6  1  0
 17 16  1  0
 18 13  1  0
 18 17  2  0
 19 13  1  0
 20 19  2  0
 21 19  2  0
  2 22  1  0
  3 23  1  0
  4 24  1  0
  5 25  1  0
  7 26  1  0
  9 27  1  0
 11 28  1  0
 14 29  1  0
 15 30  1  0
 17 31  1  0
 18 32  1  0
 19 33  1  0
M  ISO  8  22  14  23  14  24  14  25  14  26  14  27  14  28  14  29  14
M  ISO  4  30  14  31  14  32  14  33  11
M  END
>  <minimizedAffinity>  (1) 
-4.53664303

>  <minimizedRMSD>  (1) 
3.27108526

$$$$
