
     RDKit          3D

 27 29  0  0  0  0  0  0  0  0999 V2000
   37.9960   23.1470   34.7570 C   0  0  0  0  0  0  0  0  0  0  0  0
   37.6080   21.9220   34.2030 C   0  0  0  0  0  0  0  0  0  0  0  0
   37.2590   21.7670   32.8760 C   0  0  0  0  0  0  0  0  0  0  0  0
   37.2990   22.8800   32.0650 C   0  0  0  0  0  0  0  0  0  0  0  0
   37.6710   24.0810   32.5780 C   0  0  0  0  0  0  0  0  0  0  0  0
   38.0120   24.1950   33.9050 C   0  0  0  0  0  0  0  0  0  0  0  0
   37.4560   23.5220   37.2100 C   0  0  0  0  0  0  0  0  0  0  0  0
   38.3350   23.1560   36.1690 C   0  0  0  0  0  0  0  0  0  0  0  0
   39.6310   22.7770   36.5450 C   0  0  0  0  0  0  0  0  0  0  0  0
   39.9800   22.7760   37.8700 N   0  0  0  0  0  0  0  0  0  0  0  0
   39.0880   23.1380   38.8140 C   0  0  0  0  0  0  0  0  0  0  0  0
   37.8300   23.5100   38.4950 N   0  0  0  0  0  0  0  0  0  0  0  0
   38.4040   25.4570   34.4440 N   0  0  0  0  0  0  0  0  0  0  0  0
   37.3650   26.2790   34.7250 C   0  0  0  0  0  0  0  0  0  0  0  0
   37.8850   27.4580   35.2380 C   0  0  0  0  0  0  0  0  0  0  0  0
   39.2260   27.3220   35.2540 N   0  0  0  0  0  0  0  0  0  0  0  0
   39.5440   26.0940   34.7680 C   0  0  0  0  0  0  0  0  0  0  0  0
   37.5796   21.0383   34.8574 H   0  0  0  0  0  0  0  0  0  0  0  0
   36.9586   20.7861   32.4791 H   0  0  0  0  0  0  0  0  0  0  0  0
   37.0296   22.7958   31.0018 H   0  0  0  0  0  0  0  0  0  0  0  0
   37.6997   24.9679   31.9280 H   0  0  0  0  0  0  0  0  0  0  0  0
   36.4298   23.8272   36.9573 H   0  0  0  0  0  0  0  0  0  0  0  0
   40.3643   22.4818   35.7801 H   0  0  0  0  0  0  0  0  0  0  0  0
   39.3930   23.1300   39.8709 H   0  0  0  0  0  0  0  0  0  0  0  0
   36.2994   26.0522   34.5735 H   0  0  0  0  0  0  0  0  0  0  0  0
   37.3121   28.3368   35.5689 H   0  0  0  0  0  0  0  0  0  0  0  0
   40.5609   25.6891   34.6580 H   0  0  0  0  0  0  0  0  0  0  0  0
  1  8  1  0
  2  1  2  0
  3  2  1  0
  4  5  1  0
  4  3  2  0
  5  6  2  0
  6 13  1  0
  6  1  1  0
  7 12  2  0
  8  9  2  0
  8  7  1  0
  9 10  1  0
 10 11  2  0
 12 11  1  0
 13 14  1  0
 13 17  1  0
 14 15  2  0
 15 16  1  0
 17 16  2  0
  2 18  1  0
  3 19  1  0
  4 20  1  0
  5 21  1  0
  7 22  1  0
  9 23  1  0
 11 24  1  0
 14 25  1  0
 15 26  1  0
 17 27  1  0
M  ISO  8  18  14  19  14  20  14  21  14  22  14  23  14  24  14  25  14
M  ISO  2  26  14  27  14
M  END
>  <minimizedAffinity>  (1) 
-4.36111784

>  <minimizedRMSD>  (1) 
1.47865176

$$$$
