
     RDKit          3D

 27 29  0  0  0  0  0  0  0  0999 V2000
   37.8630   22.7670   34.7190 C   0  0  0  0  0  0  0  0  0  0  0  0
   37.1590   21.5990   34.4010 C   0  0  0  0  0  0  0  0  0  0  0  0
   36.7410   21.2900   33.1250 C   0  0  0  0  0  0  0  0  0  0  0  0
   37.0260   22.1680   32.1150 C   0  0  0  0  0  0  0  0  0  0  0  0
   37.7100   23.3120   32.3900 C   0  0  0  0  0  0  0  0  0  0  0  0
   38.1120   23.5870   33.6740 C   0  0  0  0  0  0  0  0  0  0  0  0
   37.4590   23.5910   37.0770 C   0  0  0  0  0  0  0  0  0  0  0  0
   38.2440   22.9740   36.0980 C   0  0  0  0  0  0  0  0  0  0  0  0
   39.5150   22.5070   36.5010 C   0  0  0  0  0  0  0  0  0  0  0  0
   39.9060   22.6810   37.8080 N   0  0  0  0  0  0  0  0  0  0  0  0
   39.1030   23.2810   38.6920 C   0  0  0  0  0  0  0  0  0  0  0  0
   37.8750   23.7420   38.3410 N   0  0  0  0  0  0  0  0  0  0  0  0
   38.8540   24.8420   33.9550 C   0  0  0  0  0  0  0  0  0  0  0  0
   38.3540   26.0560   34.2810 C   0  0  0  0  0  0  0  0  0  0  0  0
   39.2440   27.0770   34.4930 C   0  0  0  0  0  0  0  0  0  0  0  0
   40.5780   26.8680   34.3790 C   0  0  0  0  0  0  0  0  0  0  0  0
   40.6980   25.0540   33.9230 S   0  0  0  0  0  0  0  0  0  0  0  0
   36.9279   20.8920   35.2114 H   0  0  0  0  0  0  0  0  0  0  0  0
   36.1909   20.3591   32.9229 H   0  0  0  0  0  0  0  0  0  0  0  0
   36.7039   21.9503   31.0860 H   0  0  0  0  0  0  0  0  0  0  0  0
   37.9419   24.0195   31.5802 H   0  0  0  0  0  0  0  0  0  0  0  0
   36.4631   23.9662   36.7987 H   0  0  0  0  0  0  0  0  0  0  0  0
   40.1820   22.0116   35.7801 H   0  0  0  0  0  0  0  0  0  0  0  0
   39.4455   23.4045   39.7300 H   0  0  0  0  0  0  0  0  0  0  0  0
   37.2699   26.2184   34.3729 H   0  0  0  0  0  0  0  0  0  0  0  0
   38.8710   28.0772   34.7586 H   0  0  0  0  0  0  0  0  0  0  0  0
   41.3953   27.5905   34.5203 H   0  0  0  0  0  0  0  0  0  0  0  0
  1  8  1  0
  2  1  2  0
  3  2  1  0
  4  5  1  0
  4  3  2  0
  5  6  2  0
  6 13  1  0
  6  1  1  0
  7 12  2  0
  8  9  2  0
  8  7  1  0
  9 10  1  0
 10 11  2  0
 12 11  1  0
 13 14  2  0
 14 15  1  0
 16 15  2  0
 17 13  1  0
 17 16  1  0
  2 18  1  0
  3 19  1  0
  4 20  1  0
  5 21  1  0
  7 22  1  0
  9 23  1  0
 11 24  1  0
 14 25  1  0
 15 26  1  0
 16 27  1  0
M  ISO  8  18  14  19  14  20  14  21  14  22  14  23  14  24  14  25  14
M  ISO  2  26  14  27  14
M  END
>  <minimizedAffinity>  (1) 
-4.35373449

>  <minimizedRMSD>  (1) 
1.23900211

$$$$
