
     RDKit          3D

 26 28  0  0  0  0  0  0  0  0999 V2000
   38.0910   23.1310   34.7280 C   0  0  0  0  0  0  0  0  0  0  0  0
   37.9520   21.8860   34.1210 C   0  0  0  0  0  0  0  0  0  0  0  0
   37.6840   21.7130   32.7710 C   0  0  0  0  0  0  0  0  0  0  0  0
   37.5490   22.8450   31.9980 C   0  0  0  0  0  0  0  0  0  0  0  0
   37.6800   24.0800   32.5660 C   0  0  0  0  0  0  0  0  0  0  0  0
   37.9470   24.2010   33.9130 C   0  0  0  0  0  0  0  0  0  0  0  0
   37.4360   23.4660   37.1580 C   0  0  0  0  0  0  0  0  0  0  0  0
   38.3700   23.1540   36.1470 C   0  0  0  0  0  0  0  0  0  0  0  0
   39.6700   22.8430   36.5670 C   0  0  0  0  0  0  0  0  0  0  0  0
   39.9650   22.8570   37.9130 N   0  0  0  0  0  0  0  0  0  0  0  0
   39.0230   23.1640   38.8220 C   0  0  0  0  0  0  0  0  0  0  0  0
   37.7570   23.4700   38.4550 N   0  0  0  0  0  0  0  0  0  0  0  0
   38.0830   25.4940   34.4990 N   0  0  0  0  0  0  0  0  0  0  0  0
   37.3310   26.4670   34.9930 C   0  0  0  0  0  0  0  0  0  0  0  0
   38.1230   27.4710   35.4060 N   0  0  0  0  0  0  0  0  0  0  0  0
   39.3990   27.1190   35.1650 C   0  0  0  0  0  0  0  0  0  0  0  0
   39.3580   25.8930   34.6040 N   0  0  0  0  0  0  0  0  0  0  0  0
   38.0609   20.9884   34.7475 H   0  0  0  0  0  0  0  0  0  0  0  0
   37.5830   20.7087   32.3339 H   0  0  0  0  0  0  0  0  0  0  0  0
   37.3356   22.7542   30.9227 H   0  0  0  0  0  0  0  0  0  0  0  0
   37.5720   24.9822   31.9460 H   0  0  0  0  0  0  0  0  0  0  0  0
   36.4048   23.7153   36.8672 H   0  0  0  0  0  0  0  0  0  0  0  0
   40.4468   22.5904   35.8302 H   0  0  0  0  0  0  0  0  0  0  0  0
   39.2878   23.1665   39.8896 H   0  0  0  0  0  0  0  0  0  0  0  0
   36.2328   26.4547   35.0551 H   0  0  0  0  0  0  0  0  0  0  0  0
   40.2984   27.7138   35.3826 H   0  0  0  0  0  0  0  0  0  0  0  0
  1  8  1  0
  2  1  2  0
  3  2  1  0
  4  5  1  0
  4  3  2  0
  5  6  2  0
  6 13  1  0
  6  1  1  0
  7 12  2  0
  8  9  2  0
  8  7  1  0
  9 10  1  0
 10 11  2  0
 12 11  1  0
 13 17  1  0
 13 14  1  0
 14 15  2  0
 16 15  1  0
 17 16  2  0
  2 18  1  0
  3 19  1  0
  4 20  1  0
  5 21  1  0
  7 22  1  0
  9 23  1  0
 11 24  1  0
 14 25  1  0
 16 26  1  0
M  ISO  8  18  14  19  14  20  14  21  14  22  14  23  14  24  14  25  14
M  ISO  1  26  14
M  END
>  <minimizedAffinity>  (1) 
-4.33101845

>  <minimizedRMSD>  (1) 
1.61533022

$$$$
