
     RDKit          3D

 28 30  0  0  0  0  0  0  0  0999 V2000
   37.8540   22.7440   34.7320 C   0  0  0  0  0  0  0  0  0  0  0  0
   37.1530   21.5750   34.4270 C   0  0  0  0  0  0  0  0  0  0  0  0
   36.7110   21.2460   33.1630 C   0  0  0  0  0  0  0  0  0  0  0  0
   36.9810   22.1270   32.1520 C   0  0  0  0  0  0  0  0  0  0  0  0
   37.6640   23.2820   32.4080 C   0  0  0  0  0  0  0  0  0  0  0  0
   38.0920   23.5780   33.6870 C   0  0  0  0  0  0  0  0  0  0  0  0
   37.4490   23.5540   37.1060 C   0  0  0  0  0  0  0  0  0  0  0  0
   38.2440   22.9490   36.1090 C   0  0  0  0  0  0  0  0  0  0  0  0
   39.5130   22.5140   36.5090 C   0  0  0  0  0  0  0  0  0  0  0  0
   39.9130   22.6920   37.8140 N   0  0  0  0  0  0  0  0  0  0  0  0
   39.1060   23.2730   38.7040 C   0  0  0  0  0  0  0  0  0  0  0  0
   37.8710   23.7080   38.3590 N   0  0  0  0  0  0  0  0  0  0  0  0
   38.8240   24.8140   33.9200 C   0  0  0  0  0  0  0  0  0  0  0  0
   40.1910   24.8820   33.7080 C   0  0  0  0  0  0  0  0  0  0  0  0
   40.8240   26.0760   33.9500 C   0  0  0  0  0  0  0  0  0  0  0  0
   40.1790   27.1870   34.3850 N   0  0  0  0  0  0  0  0  0  0  0  0
   38.8390   27.0890   34.5830 C   0  0  0  0  0  0  0  0  0  0  0  0
   38.1910   25.9260   34.3530 N   0  0  0  0  0  0  0  0  0  0  0  0
   36.9402   20.8728   35.2465 H   0  0  0  0  0  0  0  0  0  0  0  0
   36.1625   20.3112   32.9749 H   0  0  0  0  0  0  0  0  0  0  0  0
   36.6465   21.9043   31.1280 H   0  0  0  0  0  0  0  0  0  0  0  0
   37.8751   23.9832   31.5872 H   0  0  0  0  0  0  0  0  0  0  0  0
   36.4438   23.9113   36.8377 H   0  0  0  0  0  0  0  0  0  0  0  0
   40.1866   22.0327   35.7847 H   0  0  0  0  0  0  0  0  0  0  0  0
   39.4516   23.4013   39.7404 H   0  0  0  0  0  0  0  0  0  0  0  0
   40.7533   24.0046   33.3559 H   0  0  0  0  0  0  0  0  0  0  0  0
   41.9096   26.1346   33.7826 H   0  0  0  0  0  0  0  0  0  0  0  0
   38.2753   27.9658   34.9344 H   0  0  0  0  0  0  0  0  0  0  0  0
  1  8  1  0
  2  1  2  0
  3  2  1  0
  4  5  1  0
  4  3  2  0
  5  6  2  0
  6 13  1  0
  6  1  1  0
  7 12  2  0
  8  9  2  0
  8  7  1  0
  9 10  1  0
 10 11  2  0
 12 11  1  0
 13 18  1  0
 14 13  2  0
 14 15  1  0
 15 16  2  0
 16 17  1  0
 18 17  2  0
  2 19  1  0
  3 20  1  0
  4 21  1  0
  5 22  1  0
  7 23  1  0
  9 24  1  0
 11 25  1  0
 14 26  1  0
 15 27  1  0
 17 28  1  0
M  ISO  8  19  14  20  14  21  14  22  14  23  14  24  14  25  14  26  14
M  ISO  2  27  14  28  14
M  END
>  <minimizedAffinity>  (1) 
-4.29606771

>  <minimizedRMSD>  (1) 
1.24267673

$$$$
