
     RDKit          3D

 27 28  0  0  0  0  0  0  0  0999 V2000
   37.2740   21.9450   33.5000 C   0  0  0  0  0  0  0  0  0  0  0  0
   36.3860   21.0330   34.0310 C   0  0  0  0  0  0  0  0  0  0  0  0
   35.3330   20.4870   33.3370 C   0  0  0  0  0  0  0  0  0  0  0  0
   35.1600   20.8790   32.0380 C   0  0  0  0  0  0  0  0  0  0  0  0
   36.0190   21.7760   31.4910 C   0  0  0  0  0  0  0  0  0  0  0  0
   37.0700   22.3160   32.1930 C   0  0  0  0  0  0  0  0  0  0  0  0
   39.6670   21.9850   34.3650 C   0  0  0  0  0  0  0  0  0  0  0  0
   38.3460   22.4320   34.3740 C   0  0  0  0  0  0  0  0  0  0  0  0
   38.0320   23.4350   35.3040 C   0  0  0  0  0  0  0  0  0  0  0  0
   39.0120   23.9120   36.1340 N   0  0  0  0  0  0  0  0  0  0  0  0
   40.2590   23.4390   36.0740 C   0  0  0  0  0  0  0  0  0  0  0  0
   40.5940   22.4770   35.1930 N   0  0  0  0  0  0  0  0  0  0  0  0
   37.9840   23.2500   31.6340 N   0  0  0  0  0  0  0  0  0  0  0  0
   37.6370   24.1400   30.5710 C   0  0  0  0  0  0  0  0  0  0  0  0
   36.4880   24.7600   30.7250 N   0  0  0  0  0  0  0  0  0  0  0  0
   38.5420   24.2860   29.4560 N   0  0  0  0  0  0  0  0  0  0  0  0
   36.1940   25.4160   29.9810 H   0  0  0  0  0  0  0  0  0  0  0  0
   36.5298   20.7229   35.0766 H   0  0  0  0  0  0  0  0  0  0  0  0
   34.6542   19.7613   33.8088 H   0  0  0  0  0  0  0  0  0  0  0  0
   34.3311   20.4704   31.4414 H   0  0  0  0  0  0  0  0  0  0  0  0
   35.8683   22.0827   30.4454 H   0  0  0  0  0  0  0  0  0  0  0  0
   39.9564   21.1997   33.6512 H   0  0  0  0  0  0  0  0  0  0  0  0
   37.0089   23.8343   35.3659 H   0  0  0  0  0  0  0  0  0  0  0  0
   41.0243   23.8410   36.7543 H   0  0  0  0  0  0  0  0  0  0  0  0
   38.9411   23.2871   32.0127 H   0  0  0  0  0  0  0  0  0  0  0  0
   39.4216   23.7507   29.4332 H   0  0  0  0  0  0  0  0  0  0  0  0
   38.3081   24.9255   28.6832 H   0  0  0  0  0  0  0  0  0  0  0  0
  1  2  2  0
  1  8  1  0
  3  2  1  0
  4  3  2  0
  5  4  1  0
  5  6  2  0
  6  1  1  0
  7  8  2  0
  7 12  1  0
  8  9  1  0
  9 10  2  0
 11 10  1  0
 12 11  2  0
 13  6  1  0
 14 15  2  0
 14 13  1  0
 16 14  1  0
 17 15  1  0
  2 18  1  0
  3 19  1  0
  4 20  1  0
  5 21  1  0
  7 22  1  0
  9 23  1  0
 11 24  1  0
 13 25  1  0
 16 26  1  0
 16 27  1  0
M  ISO  7  18  14  19  14  20  14  21  14  22  14  23  14  24  14
M  END
>  <minimizedAffinity>  (1) 
-4.28915548

>  <minimizedRMSD>  (1) 
2.98042655

$$$$
