
     RDKit          3D

 32 33  0  0  0  0  0  0  0  0999 V2000
   37.9550   23.1230   34.8210 C   0  0  0  0  0  0  0  0  0  0  0  0
   37.5240   21.8950   34.3710 C   0  0  0  0  0  0  0  0  0  0  0  0
   37.1850   21.5910   33.0730 C   0  0  0  0  0  0  0  0  0  0  0  0
   37.2850   22.5970   32.1510 C   0  0  0  0  0  0  0  0  0  0  0  0
   37.7040   23.8240   32.5460 C   0  0  0  0  0  0  0  0  0  0  0  0
   38.0400   24.1010   33.8650 C   0  0  0  0  0  0  0  0  0  0  0  0
   37.4720   23.8330   37.1960 C   0  0  0  0  0  0  0  0  0  0  0  0
   38.2780   23.2520   36.2250 C   0  0  0  0  0  0  0  0  0  0  0  0
   39.5370   22.7480   36.6480 C   0  0  0  0  0  0  0  0  0  0  0  0
   39.9110   22.8480   37.9620 N   0  0  0  0  0  0  0  0  0  0  0  0
   39.0720   23.4280   38.8540 C   0  0  0  0  0  0  0  0  0  0  0  0
   37.8530   23.9230   38.4810 N   0  0  0  0  0  0  0  0  0  0  0  0
   38.4980   25.4550   34.2730 C   0  0  0  0  0  0  0  0  0  0  0  0
   37.5400   26.1980   35.1470 C   0  0  0  0  0  0  0  0  0  0  0  0
   38.5840   26.3130   32.9930 C   0  0  0  0  0  0  0  0  0  0  0  0
   39.8830   25.4680   34.8470 C   0  0  0  0  0  0  0  0  0  0  0  0
   37.4439   21.0875   35.1136 H   0  0  0  0  0  0  0  0  0  0  0  0
   36.8482   20.5832   32.7887 H   0  0  0  0  0  0  0  0  0  0  0  0
   37.0274   22.4115   31.0978 H   0  0  0  0  0  0  0  0  0  0  0  0
   37.7805   24.6266   31.7976 H   0  0  0  0  0  0  0  0  0  0  0  0
   36.4898   24.2323   36.9030 H   0  0  0  0  0  0  0  0  0  0  0  0
   40.2127   22.2766   35.9191 H   0  0  0  0  0  0  0  0  0  0  0  0
   39.3800   23.5028   39.9074 H   0  0  0  0  0  0  0  0  0  0  0  0
   37.7842   26.0086   36.2027 H   0  0  0  0  0  0  0  0  0  0  0  0
   37.6158   27.2758   34.9408 H   0  0  0  0  0  0  0  0  0  0  0  0
   36.5149   25.8564   34.9408 H   0  0  0  0  0  0  0  0  0  0  0  0
   38.6902   27.3727   33.2683 H   0  0  0  0  0  0  0  0  0  0  0  0
   39.4552   25.9994   32.3992 H   0  0  0  0  0  0  0  0  0  0  0  0
   37.6679   26.1785   32.3992 H   0  0  0  0  0  0  0  0  0  0  0  0
   39.8247   25.4675   35.9455 H   0  0  0  0  0  0  0  0  0  0  0  0
   40.4287   24.5749   34.5083 H   0  0  0  0  0  0  0  0  0  0  0  0
   40.4118   26.3711   34.5083 H   0  0  0  0  0  0  0  0  0  0  0  0
  1  8  1  0
  2  1  2  0
  3  2  1  0
  4  5  1  0
  4  3  2  0
  5  6  2  0
  6 13  1  0
  6  1  1  0
  7 12  2  0
  8  9  2  0
  8  7  1  0
  9 10  1  0
 10 11  2  0
 12 11  1  0
 13 16  1  0
 13 14  1  0
 15 13  1  0
  2 17  1  0
  3 18  1  0
  4 19  1  0
  5 20  1  0
  7 21  1  0
  9 22  1  0
 11 23  1  0
 14 24  1  0
 14 25  1  0
 14 26  1  0
 15 27  1  0
 15 28  1  0
 15 29  1  0
 16 30  1  0
 16 31  1  0
 16 32  1  0
M  ISO  8  17  14  18  14  19  14  20  14  21  14  22  14  23  14  24   8
M  ISO  8  25   8  26   8  27   8  28   8  29   8  30   8  31   8  32   8
M  END
>  <minimizedAffinity>  (1) 
-4.17004442

>  <minimizedRMSD>  (1) 
1.23781753

$$$$
