
     RDKit          3D

 27 29  0  0  0  0  0  0  0  0999 V2000
   38.1730   23.5420   34.7490 C   0  0  0  0  0  0  0  0  0  0  0  0
   37.7460   22.3730   34.1180 C   0  0  0  0  0  0  0  0  0  0  0  0
   37.4990   22.2950   32.7620 C   0  0  0  0  0  0  0  0  0  0  0  0
   37.6800   23.4130   31.9970 C   0  0  0  0  0  0  0  0  0  0  0  0
   38.0930   24.5640   32.5860 C   0  0  0  0  0  0  0  0  0  0  0  0
   38.3400   24.6390   33.9410 C   0  0  0  0  0  0  0  0  0  0  0  0
   37.4950   23.9580   37.1560 C   0  0  0  0  0  0  0  0  0  0  0  0
   38.3960   23.4880   36.1850 C   0  0  0  0  0  0  0  0  0  0  0  0
   39.6000   22.9240   36.6370 C   0  0  0  0  0  0  0  0  0  0  0  0
   39.8450   22.8570   37.9840 N   0  0  0  0  0  0  0  0  0  0  0  0
   38.9510   23.3200   38.8680 C   0  0  0  0  0  0  0  0  0  0  0  0
   37.7760   23.8710   38.4650 N   0  0  0  0  0  0  0  0  0  0  0  0
   38.7970   25.8700   34.6580 C   0  0  0  0  0  0  0  0  0  0  0  0
   39.2630   27.0690   33.9400 C   0  0  0  0  0  0  0  0  0  0  0  0
   40.3000   26.1950   34.5810 C   0  0  0  0  0  0  0  0  0  0  0  0
   37.5992   21.4709   34.7300 H   0  0  0  0  0  0  0  0  0  0  0  0
   37.1632   21.3518   32.3063 H   0  0  0  0  0  0  0  0  0  0  0  0
   37.4926   23.3803   30.9136 H   0  0  0  0  0  0  0  0  0  0  0  0
   38.2346   25.4614   31.9659 H   0  0  0  0  0  0  0  0  0  0  0  0
   36.5421   24.4053   36.8369 H   0  0  0  0  0  0  0  0  0  0  0  0
   40.3386   22.5401   35.9179 H   0  0  0  0  0  0  0  0  0  0  0  0
   39.1729   23.2527   39.9433 H   0  0  0  0  0  0  0  0  0  0  0  0
   38.0384   25.7146   35.4393 H   0  0  0  0  0  0  0  0  0  0  0  0
   39.0591   28.0660   34.3577 H   0  0  0  0  0  0  0  0  0  0  0  0
   39.1137   27.4550   32.9208 H   0  0  0  0  0  0  0  0  0  0  0  0
   40.9700   25.5815   33.9607 H   0  0  0  0  0  0  0  0  0  0  0  0
   41.1150   26.3383   35.3057 H   0  0  0  0  0  0  0  0  0  0  0  0
  1  8  1  0
  2  1  2  0
  3  2  1  0
  4  5  1  0
  4  3  2  0
  5  6  2  0
  6 13  1  0
  6  1  1  0
  7 12  2  0
  8  9  2  0
  8  7  1  0
  9 10  1  0
 10 11  2  0
 12 11  1  0
 14 15  1  0
 14 13  1  0
 15 13  1  0
  2 16  1  0
  3 17  1  0
  4 18  1  0
  5 19  1  0
  7 20  1  0
  9 21  1  0
 11 22  1  0
 13 23  1  0
 14 24  1  0
 14 25  1  0
 15 26  1  0
 15 27  1  0
M  ISO  8  16  14  17  14  18  14  19  14  20  14  21  14  22  14  23  13
M  ISO  4  24  13  25  13  26  13  27  13
M  END
>  <minimizedAffinity>  (1) 
-3.96677995

>  <minimizedRMSD>  (1) 
1.60892284

$$$$
