
     RDKit          3D

 22 23  0  0  0  0  0  0  0  0999 V2000
   37.5970   22.6380   34.1890 C   0  0  0  0  0  0  0  0  0  0  0  0
   36.9280   21.4460   33.9110 C   0  0  0  0  0  0  0  0  0  0  0  0
   36.2360   21.2160   32.7340 C   0  0  0  0  0  0  0  0  0  0  0  0
   36.2150   22.2230   31.7970 C   0  0  0  0  0  0  0  0  0  0  0  0
   36.8650   23.4090   32.0410 C   0  0  0  0  0  0  0  0  0  0  0  0
   37.5340   23.5820   33.2230 C   0  0  0  0  0  0  0  0  0  0  0  0
   37.7730   23.2950   36.6310 C   0  0  0  0  0  0  0  0  0  0  0  0
   38.2790   22.7360   35.4610 C   0  0  0  0  0  0  0  0  0  0  0  0
   39.5980   22.2090   35.5360 C   0  0  0  0  0  0  0  0  0  0  0  0
   40.2810   22.2800   36.7240 N   0  0  0  0  0  0  0  0  0  0  0  0
   39.7190   22.8400   37.8190 C   0  0  0  0  0  0  0  0  0  0  0  0
   38.4630   23.3490   37.7730 N   0  0  0  0  0  0  0  0  0  0  0  0
   38.2190   24.8440   33.4690 C   0  0  0  0  0  0  0  0  0  0  0  0
   37.5930   25.8650   33.8570 O   0  0  0  0  0  0  0  0  0  0  0  0
   36.9514   20.6468   34.6665 H   0  0  0  0  0  0  0  0  0  0  0  0
   35.7207   20.2609   32.5543 H   0  0  0  0  0  0  0  0  0  0  0  0
   35.6760   22.0784   30.8491 H   0  0  0  0  0  0  0  0  0  0  0  0
   36.8479   24.2140   31.2916 H   0  0  0  0  0  0  0  0  0  0  0  0
   36.7555   23.7125   36.6141 H   0  0  0  0  0  0  0  0  0  0  0  0
   40.0650   21.7500   34.6521 H   0  0  0  0  0  0  0  0  0  0  0  0
   40.2881   22.8832   38.7593 H   0  0  0  0  0  0  0  0  0  0  0  0
   39.3060   24.9061   33.3124 H   0  0  0  0  0  0  0  0  0  0  0  0
  1  8  1  0
  2  1  2  0
  3  2  1  0
  4  5  1  0
  4  3  2  0
  5  6  2  0
  6 13  1  0
  6  1  1  0
  7 12  2  0
  8  9  2  0
  8  7  1  0
  9 10  1  0
 10 11  2  0
 12 11  1  0
 13 14  2  0
  2 15  1  0
  3 16  1  0
  4 17  1  0
  5 18  1  0
  7 19  1  0
  9 20  1  0
 11 21  1  0
 13 22  1  0
M  ISO  8  15  14  16  14  17  14  18  14  19  14  20  14  21  14  22   6
M  END
>  <minimizedAffinity>  (1) 
-3.51694012

>  <minimizedRMSD>  (1) 
0.593649685

$$$$
