
     RDKit          3D

 21 22  0  0  0  0  0  0  0  0999 V2000
   37.8040   22.7110   34.2040 C   0  0  0  0  0  0  0  0  0  0  0  0
   37.0340   21.5760   33.9380 C   0  0  0  0  0  0  0  0  0  0  0  0
   36.2310   21.4470   32.8200 C   0  0  0  0  0  0  0  0  0  0  0  0
   36.1950   22.4870   31.9320 C   0  0  0  0  0  0  0  0  0  0  0  0
   36.9430   23.6190   32.1640 C   0  0  0  0  0  0  0  0  0  0  0  0
   37.7300   23.7080   33.2930 C   0  0  0  0  0  0  0  0  0  0  0  0
   38.1520   23.1800   36.6810 C   0  0  0  0  0  0  0  0  0  0  0  0
   38.6050   22.7050   35.4300 C   0  0  0  0  0  0  0  0  0  0  0  0
   39.9050   22.1920   35.3540 C   0  0  0  0  0  0  0  0  0  0  0  0
   40.6820   22.1680   36.4770 N   0  0  0  0  0  0  0  0  0  0  0  0
   40.2100   22.6330   37.6520 C   0  0  0  0  0  0  0  0  0  0  0  0
   38.9440   23.1410   37.7600 N   0  0  0  0  0  0  0  0  0  0  0  0
   38.4970   24.8420   33.5540 O   0  0  0  0  0  0  0  0  0  0  0  0
   37.0684   20.7423   34.6548 H   0  0  0  0  0  0  0  0  0  0  0  0
   35.6390   20.5357   32.6497 H   0  0  0  0  0  0  0  0  0  0  0  0
   35.5674   22.4185   31.0312 H   0  0  0  0  0  0  0  0  0  0  0  0
   36.9130   24.4536   31.4481 H   0  0  0  0  0  0  0  0  0  0  0  0
   37.1342   23.5877   36.7699 H   0  0  0  0  0  0  0  0  0  0  0  0
   40.2971   21.8119   34.3991 H   0  0  0  0  0  0  0  0  0  0  0  0
   40.8561   22.6032   38.5417 H   0  0  0  0  0  0  0  0  0  0  0  0
   39.0550   24.8850   34.3706 H   0  0  0  0  0  0  0  0  0  0  0  0
  1  8  1  0
  2  1  2  0
  3  2  1  0
  4  5  1  0
  4  3  2  0
  5  6  2  0
  6 13  1  0
  6  1  1  0
  7 12  2  0
  8  7  1  0
  9  8  2  0
  9 10  1  0
 10 11  2  0
 11 12  1  0
  2 14  1  0
  3 15  1  0
  4 16  1  0
  5 17  1  0
  7 18  1  0
  9 19  1  0
 11 20  1  0
 13 21  1  0
M  ISO  8  14  14  15  14  16  14  17  14  18  14  19  14  20  14  21   3
M  END
>  <minimizedAffinity>  (1) 
-3.50128794

>  <minimizedRMSD>  (1) 
0.0556966998

$$$$
