
     RDKit          3D

 21 22  0  0  0  0  0  0  0  0999 V2000
   37.7930   22.6840   34.1990 C   0  0  0  0  0  0  0  0  0  0  0  0
   37.0220   21.5710   33.9270 C   0  0  0  0  0  0  0  0  0  0  0  0
   36.2220   21.4190   32.8220 C   0  0  0  0  0  0  0  0  0  0  0  0
   36.1950   22.4680   31.9150 C   0  0  0  0  0  0  0  0  0  0  0  0
   36.9440   23.5920   32.1440 C   0  0  0  0  0  0  0  0  0  0  0  0
   37.7280   23.6850   33.2760 C   0  0  0  0  0  0  0  0  0  0  0  0
   38.1690   23.1560   36.6590 C   0  0  0  0  0  0  0  0  0  0  0  0
   38.5840   22.6910   35.4120 C   0  0  0  0  0  0  0  0  0  0  0  0
   39.9050   22.1820   35.3400 C   0  0  0  0  0  0  0  0  0  0  0  0
   40.6930   22.1690   36.4630 N   0  0  0  0  0  0  0  0  0  0  0  0
   40.2100   22.6410   37.6380 C   0  0  0  0  0  0  0  0  0  0  0  0
   38.9450   23.1380   37.7430 N   0  0  0  0  0  0  0  0  0  0  0  0
   38.7090   25.1550   33.5760 S   0  0  0  0  0  0  0  0  0  0  0  0
   37.0512   20.7433   34.6509 H   0  0  0  0  0  0  0  0  0  0  0  0
   35.6290   20.5063   32.6630 H   0  0  0  0  0  0  0  0  0  0  0  0
   35.5718   22.3974   31.0113 H   0  0  0  0  0  0  0  0  0  0  0  0
   36.9205   24.4228   31.4235 H   0  0  0  0  0  0  0  0  0  0  0  0
   37.1495   23.5582   36.7534 H   0  0  0  0  0  0  0  0  0  0  0  0
   40.2972   21.7985   34.3865 H   0  0  0  0  0  0  0  0  0  0  0  0
   40.8547   22.6226   38.5291 H   0  0  0  0  0  0  0  0  0  0  0  0
   38.8389   25.3497   34.9259 H   0  0  0  0  0  0  0  0  0  0  0  0
  1  8  1  0
  2  1  2  0
  3  2  1  0
  4  5  1  0
  4  3  2  0
  5  6  2  0
  6 13  1  0
  6  1  1  0
  7 12  2  0
  8  7  1  0
  9  8  2  0
  9 10  1  0
 10 11  2  0
 11 12  1  0
  2 14  1  0
  3 15  1  0
  4 16  1  0
  5 17  1  0
  7 18  1  0
  9 19  1  0
 11 20  1  0
 13 21  1  0
M  ISO  8  14  14  15  14  16  14  17  14  18  14  19  14  20  14  21  11
M  END
>  <minimizedAffinity>  (1) 
-3.50078392

>  <minimizedRMSD>  (1) 
0.0344205275

$$$$
