
     RDKit          3D

 52 55  0  0  1  0  0  0  0  0999 V2000
   41.3670   27.0200   31.2870 C   0  0  1  0  0  0  0  0  0  0  0  0
   41.9700   28.2050   30.5920 C   0  0  0  0  0  0  0  0  0  0  0  0
   43.0550   28.9020   31.3400 C   0  0  0  0  0  0  0  0  0  0  0  0
   43.9200   28.0290   32.1810 C   0  0  0  0  0  0  0  0  0  0  0  0
   43.0290   27.2780   33.1430 C   0  0  0  0  0  0  0  0  0  0  0  0
   42.2030   26.3420   32.3020 C   0  0  2  0  0  0  0  0  0  0  0  0
   42.9920   25.2260   31.7910 N   0  0  0  0  0  0  0  0  0  0  0  0
   43.7290   25.2180   30.6890 C   0  0  0  0  0  0  0  0  0  0  0  0
   44.4450   24.1110   30.2820 C   0  0  0  0  0  0  0  0  0  0  0  0
   44.3830   22.9960   31.0540 C   0  0  0  0  0  0  0  0  0  0  0  0
   45.1140   21.8140   30.6720 N   0  0  0  0  0  0  0  0  0  0  0  0
   43.6470   22.9810   32.1710 N   0  0  0  0  0  0  0  0  0  0  0  0
   42.9740   24.0690   32.5220 C   0  0  0  0  0  0  0  0  0  0  0  0
   42.3120   23.9240   33.6060 O   0  0  0  0  0  0  0  0  0  0  0  0
   39.9920   27.3910   31.8480 C   0  0  0  0  0  0  0  0  0  0  0  0
   38.4830   24.5650   33.7860 N   0  0  0  0  0  0  0  0  0  0  0  0
   39.2190   25.6620   33.5470 C   0  0  0  0  0  0  0  0  0  0  0  0
   39.2230   26.1830   32.2640 C   0  0  0  0  0  0  0  0  0  0  0  0
   38.4700   25.5660   31.2670 C   0  0  0  0  0  0  0  0  0  0  0  0
   38.4030   25.9550   30.0720 O   0  0  0  0  0  0  0  0  0  0  0  0
   37.7340   24.4480   31.5570 N   0  0  0  0  0  0  0  0  0  0  0  0
   37.7630   23.9830   32.8080 C   0  0  0  0  0  0  0  0  0  0  0  0
   37.0880   22.9570   33.0780 O   0  0  0  0  0  0  0  0  0  0  0  0
   37.8270   24.7980   36.1030 C   0  0  0  0  0  0  0  0  0  0  0  0
   38.5450   24.1090   35.1180 C   0  0  0  0  0  0  0  0  0  0  0  0
   39.2860   23.0010   35.5200 C   0  0  0  0  0  0  0  0  0  0  0  0
   39.2680   22.6530   36.8490 N   0  0  0  0  0  0  0  0  0  0  0  0
   38.5700   23.3370   37.7630 C   0  0  0  0  0  0  0  0  0  0  0  0
   37.8540   24.4060   37.3740 N   0  0  0  0  0  0  0  0  0  0  0  0
   38.7170   22.7780   39.0510 N   0  0  0  0  0  0  0  0  0  0  0  0
   41.2755   26.2552   30.5017 H   0  0  0  0  0  0  0  0  0  0  0  0
   42.3858   27.8608   29.6335 H   0  0  0  0  0  0  0  0  0  0  0  0
   41.1574   28.9384   30.4839 H   0  0  0  0  0  0  0  0  0  0  0  0
   43.6984   29.4108   30.6071 H   0  0  0  0  0  0  0  0  0  0  0  0
   42.5486   29.5855   32.0374 H   0  0  0  0  0  0  0  0  0  0  0  0
   44.4647   27.3173   31.5432 H   0  0  0  0  0  0  0  0  0  0  0  0
   44.6537   28.6350   32.7328 H   0  0  0  0  0  0  0  0  0  0  0  0
   43.6370   26.7094   33.8621 H   0  0  0  0  0  0  0  0  0  0  0  0
   42.3940   27.9644   33.7224 H   0  0  0  0  0  0  0  0  0  0  0  0
   41.4598   25.8952   32.9788 H   0  0  0  0  0  0  0  0  0  0  0  0
   43.7713   26.1297   30.0750 H   0  0  0  0  0  0  0  0  0  0  0  0
   45.0468   24.1312   29.3614 H   0  0  0  0  0  0  0  0  0  0  0  0
   45.0672   20.9679   31.2575 H   0  0  0  0  0  0  0  0  0  0  0  0
   45.6832   21.8155   29.8136 H   0  0  0  0  0  0  0  0  0  0  0  0
   40.1279   28.0456   32.7215 H   0  0  0  0  0  0  0  0  0  0  0  0
   39.4251   27.9033   31.0567 H   0  0  0  0  0  0  0  0  0  0  0  0
   39.8039   26.1349   34.3497 H   0  0  0  0  0  0  0  0  0  0  0  0
   37.1741   23.9793   30.8306 H   0  0  0  0  0  0  0  0  0  0  0  0
   37.2306   25.6782   35.8212 H   0  0  0  0  0  0  0  0  0  0  0  0
   39.8708   22.4192   34.7923 H   0  0  0  0  0  0  0  0  0  0  0  0
   38.2339   23.2033   39.8552 H   0  0  0  0  0  0  0  0  0  0  0  0
   39.3073   21.9449   39.1865 H   0  0  0  0  0  0  0  0  0  0  0  0
  1 15  1  0
  1  6  1  0
  2  1  1  0
  2  3  1  0
  3  4  1  0
  4  5  1  0
  6  5  1  0
  7  6  1  0
  7 13  1  0
  8  7  1  0
  9  8  2  0
  9 10  1  0
 10 12  2  0
 11 10  1  0
 12 13  1  0
 13 14  2  0
 15 18  1  0
 16 25  1  0
 17 16  1  0
 18 17  2  0
 19 21  1  0
 19 18  1  0
 20 19  2  0
 21 22  1  0
 22 23  2  0
 22 16  1  0
 24 29  2  0
 25 26  2  0
 25 24  1  0
 26 27  1  0
 27 28  2  0
 28 30  1  0
 29 28  1  0
  1 31  1  6
  2 32  1  0
  2 33  1  0
  3 34  1  0
  3 35  1  0
  4 36  1  0
  4 37  1  0
  5 38  1  0
  5 39  1  0
  6 40  1  1
  8 41  1  0
  9 42  1  0
 11 43  1  0
 11 44  1  0
 15 45  1  0
 15 46  1  0
 17 47  1  0
 21 48  1  0
 24 49  1  0
 26 50  1  0
 30 51  1  0
 30 52  1  0
M  ISO  8  31  13  32  13  33  13  34  13  35  13  36  13  37  13  38  13
M  ISO  8  39  13  40  13  41  14  42  14  45   8  46   8  47  14  48   9
M  ISO  2  49  14  50  14
M  END
>  <minimizedAffinity>  (1) 
-4.52873707

>  <minimizedRMSD>  (1) 
0.576558888

$$$$
