
     RDKit          3D

 46 49  0  0  0  0  0  0  0  0999 V2000
   38.0380   22.8420   34.7770 C   0  0  0  0  0  0  0  0  0  0  0  0
   37.7180   21.5870   34.2860 C   0  0  0  0  0  0  0  0  0  0  0  0
   37.4290   21.3160   32.9710 C   0  0  0  0  0  0  0  0  0  0  0  0
   37.4580   22.3580   32.0830 C   0  0  0  0  0  0  0  0  0  0  0  0
   37.7680   23.6120   32.5190 C   0  0  0  0  0  0  0  0  0  0  0  0
   38.0550   23.8540   33.8470 C   0  0  0  0  0  0  0  0  0  0  0  0
   38.3840   25.2080   34.3220 C   0  0  0  0  0  0  0  0  0  0  0  0
   37.2720   25.9420   34.6860 C   0  0  0  0  0  0  0  0  0  0  0  0
   37.4020   27.2510   35.1680 C   0  0  0  0  0  0  0  0  0  0  0  0
   38.7070   27.6990   35.2340 C   0  0  0  0  0  0  0  0  0  0  0  0
   39.8330   26.9990   34.8810 C   0  0  0  0  0  0  0  0  0  0  0  0
   39.6620   25.7110   34.4090 C   0  0  0  0  0  0  0  0  0  0  0  0
   40.8060   24.8560   33.9770 C   0  0  0  0  0  0  0  0  0  0  0  0
   41.1580   25.2030   32.5700 C   0  0  0  0  0  0  0  0  0  0  0  0
   42.5160   25.7970   32.3510 C   0  0  0  0  0  0  0  0  0  0  0  0
   43.5650   25.2090   33.2660 C   0  0  0  0  0  0  0  0  0  0  0  0
   43.1170   25.5980   34.6570 C   0  0  0  0  0  0  0  0  0  0  0  0
   41.8750   24.8710   34.9960 C   0  0  0  0  0  0  0  0  0  0  0  0
   37.4150   23.3780   37.1720 C   0  0  0  0  0  0  0  0  0  0  0  0
   38.3140   22.9720   36.1940 C   0  0  0  0  0  0  0  0  0  0  0  0
   39.6110   22.6630   36.6400 C   0  0  0  0  0  0  0  0  0  0  0  0
   39.9200   22.7720   37.9630 N   0  0  0  0  0  0  0  0  0  0  0  0
   39.0020   23.1720   38.8520 C   0  0  0  0  0  0  0  0  0  0  0  0
   37.7560   23.4740   38.4700 N   0  0  0  0  0  0  0  0  0  0  0  0
   37.6937   20.7494   34.9986 H   0  0  0  0  0  0  0  0  0  0  0  0
   37.1824   20.2957   32.6420 H   0  0  0  0  0  0  0  0  0  0  0  0
   37.2318   22.1837   31.0207 H   0  0  0  0  0  0  0  0  0  0  0  0
   37.7897   24.4446   31.8004 H   0  0  0  0  0  0  0  0  0  0  0  0
   36.2718   25.4931   34.5963 H   0  0  0  0  0  0  0  0  0  0  0  0
   36.5414   27.8672   35.4673 H   0  0  0  0  0  0  0  0  0  0  0  0
   38.8591   28.7222   35.6080 H   0  0  0  0  0  0  0  0  0  0  0  0
   40.8342   27.4459   34.9702 H   0  0  0  0  0  0  0  0  0  0  0  0
   40.5528   23.7866   33.9298 H   0  0  0  0  0  0  0  0  0  0  0  0
   41.0951   24.2818   31.9722 H   0  0  0  0  0  0  0  0  0  0  0  0
   40.4448   25.9867   32.2747 H   0  0  0  0  0  0  0  0  0  0  0  0
   42.8160   25.6141   31.3086 H   0  0  0  0  0  0  0  0  0  0  0  0
   42.4476   26.8723   32.5724 H   0  0  0  0  0  0  0  0  0  0  0  0
   43.6024   24.1146   33.1616 H   0  0  0  0  0  0  0  0  0  0  0  0
   44.5753   25.5772   33.0342 H   0  0  0  0  0  0  0  0  0  0  0  0
   43.9031   25.3385   35.3814 H   0  0  0  0  0  0  0  0  0  0  0  0
   42.9291   26.6813   34.6922 H   0  0  0  0  0  0  0  0  0  0  0  0
   41.4598   25.3300   35.9054 H   0  0  0  0  0  0  0  0  0  0  0  0
   42.1805   23.8198   35.1042 H   0  0  0  0  0  0  0  0  0  0  0  0
   36.3865   23.6303   36.8744 H   0  0  0  0  0  0  0  0  0  0  0  0
   40.3760   22.3334   35.9216 H   0  0  0  0  0  0  0  0  0  0  0  0
   39.2770   23.2536   39.9139 H   0  0  0  0  0  0  0  0  0  0  0  0
  1 20  1  0
  2  1  2  0
  3  2  1  0
  4  5  1  0
  4  3  2  0
  5  6  2  0
  6  7  1  0
  6  1  1  0
  7 12  1  0
  7  8  2  0
  8  9  1  0
  9 10  2  0
 11 10  1  0
 12 11  2  0
 13 12  1  0
 13 18  1  0
 14 13  1  0
 15 14  1  0
 15 16  1  0
 16 17  1  0
 17 18  1  0
 19 24  2  0
 20 21  2  0
 20 19  1  0
 21 22  1  0
 22 23  2  0
 24 23  1  0
  2 25  1  0
  3 26  1  0
  4 27  1  0
  5 28  1  0
  8 29  1  0
  9 30  1  0
 10 31  1  0
 11 32  1  0
 13 33  1  0
 14 34  1  0
 14 35  1  0
 15 36  1  0
 15 37  1  0
 16 38  1  0
 16 39  1  0
 17 40  1  0
 17 41  1  0
 18 42  1  0
 18 43  1  0
 19 44  1  0
 21 45  1  0
 23 46  1  0
M  ISO  8  25  14  26  14  27  14  28  14  29  14  30  14  31  14  32  14
M  ISO  8  33  13  34  13  35  13  36  13  37  13  38  13  39  13  40  13
M  ISO  6  41  13  42  13  43  13  44  14  45  14  46  14
M  END
>  <minimizedAffinity>  (1) 
-5.22253656

>  <minimizedRMSD>  (1) 
1.03223979

$$$$
