
     RDKit          3D

 39 42  0  0  0  0  0  0  0  0999 V2000
   38.0180   22.8480   34.7130 C   0  0  0  0  0  0  0  0  0  0  0  0
   37.6850   21.6050   34.2310 C   0  0  0  0  0  0  0  0  0  0  0  0
   37.3680   21.3600   32.9090 C   0  0  0  0  0  0  0  0  0  0  0  0
   37.3910   22.4270   32.0350 C   0  0  0  0  0  0  0  0  0  0  0  0
   37.7180   23.6650   32.4890 C   0  0  0  0  0  0  0  0  0  0  0  0
   38.0320   23.8890   33.8180 C   0  0  0  0  0  0  0  0  0  0  0  0
   38.3720   25.2150   34.3030 C   0  0  0  0  0  0  0  0  0  0  0  0
   37.2580   25.9670   34.6730 C   0  0  0  0  0  0  0  0  0  0  0  0
   37.3860   27.2740   35.1660 C   0  0  0  0  0  0  0  0  0  0  0  0
   38.6820   27.7170   35.2430 C   0  0  0  0  0  0  0  0  0  0  0  0
   39.8240   27.0110   34.8900 C   0  0  0  0  0  0  0  0  0  0  0  0
   39.6220   25.7410   34.4160 C   0  0  0  0  0  0  0  0  0  0  0  0
   40.8160   25.0050   34.0370 C   0  0  0  0  0  0  0  0  0  0  0  0
   41.1730   24.4940   32.8080 C   0  0  0  0  0  0  0  0  0  0  0  0
   42.3640   23.8250   32.6210 C   0  0  0  0  0  0  0  0  0  0  0  0
   43.2630   23.6290   33.6490 C   0  0  0  0  0  0  0  0  0  0  0  0
   42.8820   24.1500   34.8680 C   0  0  0  0  0  0  0  0  0  0  0  0
   41.7300   24.7930   35.0300 N   0  0  0  0  0  0  0  0  0  0  0  0
   37.4270   23.3760   37.1320 C   0  0  0  0  0  0  0  0  0  0  0  0
   38.3230   22.9610   36.1320 C   0  0  0  0  0  0  0  0  0  0  0  0
   39.6210   22.6310   36.5580 C   0  0  0  0  0  0  0  0  0  0  0  0
   39.9540   22.7220   37.8820 N   0  0  0  0  0  0  0  0  0  0  0  0
   39.0540   23.1250   38.7880 C   0  0  0  0  0  0  0  0  0  0  0  0
   37.7990   23.4520   38.4280 N   0  0  0  0  0  0  0  0  0  0  0  0
   37.6701   20.7602   34.9353 H   0  0  0  0  0  0  0  0  0  0  0  0
   37.1062   20.3485   32.5649 H   0  0  0  0  0  0  0  0  0  0  0  0
   37.1453   22.2759   30.9735 H   0  0  0  0  0  0  0  0  0  0  0  0
   37.7335   24.5090   31.7837 H   0  0  0  0  0  0  0  0  0  0  0  0
   36.2553   25.5252   34.5761 H   0  0  0  0  0  0  0  0  0  0  0  0
   36.5240   27.8889   35.4643 H   0  0  0  0  0  0  0  0  0  0  0  0
   38.8320   28.7379   35.6241 H   0  0  0  0  0  0  0  0  0  0  0  0
   40.8304   27.4448   34.9850 H   0  0  0  0  0  0  0  0  0  0  0  0
   40.4907   24.6231   31.9549 H   0  0  0  0  0  0  0  0  0  0  0  0
   42.6049   23.4354   31.6209 H   0  0  0  0  0  0  0  0  0  0  0  0
   44.2146   23.0959   33.5068 H   0  0  0  0  0  0  0  0  0  0  0  0
   43.5518   24.0297   35.7322 H   0  0  0  0  0  0  0  0  0  0  0  0
   36.3978   23.6454   36.8523 H   0  0  0  0  0  0  0  0  0  0  0  0
   40.3711   22.2987   35.8252 H   0  0  0  0  0  0  0  0  0  0  0  0
   39.3459   23.1900   39.8466 H   0  0  0  0  0  0  0  0  0  0  0  0
  1 20  1  0
  2  1  2  0
  3  2  1  0
  4  5  1  0
  4  3  2  0
  5  6  2  0
  6  7  1  0
  6  1  1  0
  7 12  1  0
  7  8  2  0
  8  9  1  0
  9 10  2  0
 11 10  1  0
 12 11  2  0
 13 12  1  0
 13 18  1  0
 14 13  2  0
 15 14  1  0
 15 16  2  0
 16 17  1  0
 17 18  2  0
 19 24  2  0
 20 21  2  0
 20 19  1  0
 21 22  1  0
 22 23  2  0
 24 23  1  0
  2 25  1  0
  3 26  1  0
  4 27  1  0
  5 28  1  0
  8 29  1  0
  9 30  1  0
 10 31  1  0
 11 32  1  0
 14 33  1  0
 15 34  1  0
 16 35  1  0
 17 36  1  0
 19 37  1  0
 21 38  1  0
 23 39  1  0
M  ISO  8  25  14  26  14  27  14  28  14  29  14  30  14  31  14  32  14
M  ISO  7  33  14  34  14  35  14  36  14  37  14  38  14  39  14
M  END
>  <minimizedAffinity>  (1) 
-5.09104776

>  <minimizedRMSD>  (1) 
1.14559615

$$$$
