
     RDKit          3D

 41 44  0  0  0  0  0  0  0  0999 V2000
   38.7640   24.7880   34.0600 C   0  0  0  0  0  0  0  0  0  0  0  0
   37.9430   25.8350   34.4540 C   0  0  0  0  0  0  0  0  0  0  0  0
   38.4670   27.1080   34.7190 C   0  0  0  0  0  0  0  0  0  0  0  0
   39.8180   27.2100   34.5570 C   0  0  0  0  0  0  0  0  0  0  0  0
   40.6860   26.2030   34.1670 C   0  0  0  0  0  0  0  0  0  0  0  0
   40.1100   24.9640   33.9170 C   0  0  0  0  0  0  0  0  0  0  0  0
   37.7920   22.7300   34.9060 C   0  0  0  0  0  0  0  0  0  0  0  0
   37.1070   21.5660   34.6640 C   0  0  0  0  0  0  0  0  0  0  0  0
   36.6730   21.1800   33.4150 C   0  0  0  0  0  0  0  0  0  0  0  0
   36.9440   22.0120   32.3540 C   0  0  0  0  0  0  0  0  0  0  0  0
   37.6190   23.1660   32.5740 C   0  0  0  0  0  0  0  0  0  0  0  0
   38.0490   23.5430   33.8290 C   0  0  0  0  0  0  0  0  0  0  0  0
   37.4290   23.7460   37.2220 C   0  0  0  0  0  0  0  0  0  0  0  0
   38.1830   23.0110   36.2880 C   0  0  0  0  0  0  0  0  0  0  0  0
   39.4170   22.5120   36.7370 C   0  0  0  0  0  0  0  0  0  0  0  0
   39.8240   22.7520   38.0210 N   0  0  0  0  0  0  0  0  0  0  0  0
   39.0530   23.4620   38.8580 C   0  0  0  0  0  0  0  0  0  0  0  0
   37.8680   23.9570   38.4730 N   0  0  0  0  0  0  0  0  0  0  0  0
   41.0160   23.9550   33.5130 N   0  0  0  0  0  0  0  0  0  0  0  0
   41.1630   23.2540   32.3800 C   0  0  0  0  0  0  0  0  0  0  0  0
   42.1600   22.3160   32.2500 C   0  0  0  0  0  0  0  0  0  0  0  0
   43.0670   22.0210   33.2450 C   0  0  0  0  0  0  0  0  0  0  0  0
   44.0430   21.0390   32.9930 N   0  0  0  0  0  0  0  0  0  0  0  0
   42.8930   22.7410   34.3690 N   0  0  0  0  0  0  0  0  0  0  0  0
   41.9180   23.6590   34.4940 C   0  0  0  0  0  0  0  0  0  0  0  0
   41.9770   24.1920   35.6530 O   0  0  0  0  0  0  0  0  0  0  0  0
   36.8617   25.6631   34.5603 H   0  0  0  0  0  0  0  0  0  0  0  0
   37.8399   27.9558   35.0321 H   0  0  0  0  0  0  0  0  0  0  0  0
   40.2648   28.1950   34.7570 H   0  0  0  0  0  0  0  0  0  0  0  0
   41.7674   26.3746   34.0616 H   0  0  0  0  0  0  0  0  0  0  0  0
   36.8923   20.9036   35.5156 H   0  0  0  0  0  0  0  0  0  0  0  0
   36.1269   20.2361   33.2708 H   0  0  0  0  0  0  0  0  0  0  0  0
   36.6166   21.7437   31.3387 H   0  0  0  0  0  0  0  0  0  0  0  0
   37.8318   23.8264   31.7204 H   0  0  0  0  0  0  0  0  0  0  0  0
   36.4551   24.1581   36.9191 H   0  0  0  0  0  0  0  0  0  0  0  0
   40.0554   21.9289   36.0570 H   0  0  0  0  0  0  0  0  0  0  0  0
   39.4015   23.6426   39.8856 H   0  0  0  0  0  0  0  0  0  0  0  0
   40.4748   23.4320   31.5405 H   0  0  0  0  0  0  0  0  0  0  0  0
   42.2381   21.7702   31.2981 H   0  0  0  0  0  0  0  0  0  0  0  0
   44.7326   20.7998   33.7198 H   0  0  0  0  0  0  0  0  0  0  0  0
   44.0678   20.5595   32.0818 H   0  0  0  0  0  0  0  0  0  0  0  0
  1  2  2  0
  2  3  1  0
  4  3  2  0
  5  4  1  0
  6  1  1  0
  6  5  2  0
  7 14  1  0
  8  7  2  0
  9  8  1  0
 10 11  1  0
 10  9  2  0
 11 12  2  0
 12  1  1  0
 12  7  1  0
 13 18  2  0
 14 15  2  0
 14 13  1  0
 15 16  1  0
 16 17  2  0
 18 17  1  0
 19  6  1  0
 19 25  1  0
 20 19  1  0
 21 20  2  0
 21 22  1  0
 22 24  2  0
 23 22  1  0
 24 25  1  0
 25 26  2  0
  2 27  1  0
  3 28  1  0
  4 29  1  0
  5 30  1  0
  8 31  1  0
  9 32  1  0
 10 33  1  0
 11 34  1  0
 13 35  1  0
 15 36  1  0
 17 37  1  0
 20 38  1  0
 21 39  1  0
 23 40  1  0
 23 41  1  0
M  ISO  8  27  14  28  14  29  14  30  14  31  14  32  14  33  14  34  14
M  ISO  5  35  14  36  14  37  14  38  14  39  14
M  END
>  <minimizedAffinity>  (1) 
-5.0710392

>  <minimizedRMSD>  (1) 
0.198181465

$$$$
