
     RDKit          3D

 42 44  0  0  0  0  0  0  0  0999 V2000
   38.2930   22.8800   34.6090 C   0  0  0  0  0  0  0  0  0  0  0  0
   38.1050   21.6230   34.0690 C   0  0  0  0  0  0  0  0  0  0  0  0
   37.8870   21.4030   32.7200 C   0  0  0  0  0  0  0  0  0  0  0  0
   37.8590   22.4820   31.8830 C   0  0  0  0  0  0  0  0  0  0  0  0
   38.0430   23.7380   32.3900 C   0  0  0  0  0  0  0  0  0  0  0  0
   38.2610   23.9500   33.7370 C   0  0  0  0  0  0  0  0  0  0  0  0
   38.4430   25.2830   34.2620 C   0  0  0  0  0  0  0  0  0  0  0  0
   37.2180   25.9070   34.5530 C   0  0  0  0  0  0  0  0  0  0  0  0
   37.1720   27.2100   35.0910 C   0  0  0  0  0  0  0  0  0  0  0  0
   38.3900   27.7760   35.2950 C   0  0  0  0  0  0  0  0  0  0  0  0
   39.6000   27.2000   35.0240 C   0  0  0  0  0  0  0  0  0  0  0  0
   39.6260   25.9160   34.4860 C   0  0  0  0  0  0  0  0  0  0  0  0
   40.9180   25.4650   33.9680 C   0  0  0  0  0  0  0  0  0  0  0  0
   41.0500   24.5370   32.8510 C   0  0  0  0  0  0  0  0  0  0  0  0
   41.8400   26.7000   33.7540 C   0  0  0  0  0  0  0  0  0  0  0  0
   41.6710   24.7260   35.1070 C   0  0  0  0  0  0  0  0  0  0  0  0
   37.4870   23.3370   36.9710 C   0  0  0  0  0  0  0  0  0  0  0  0
   38.4650   22.9710   36.0410 C   0  0  0  0  0  0  0  0  0  0  0  0
   39.7120   22.6840   36.5780 C   0  0  0  0  0  0  0  0  0  0  0  0
   39.9500   22.7610   37.9130 N   0  0  0  0  0  0  0  0  0  0  0  0
   38.9650   23.1220   38.7590 C   0  0  0  0  0  0  0  0  0  0  0  0
   37.7450   23.4070   38.2950 N   0  0  0  0  0  0  0  0  0  0  0  0
   38.1297   20.7545   34.7436 H   0  0  0  0  0  0  0  0  0  0  0  0
   37.7399   20.3844   32.3316 H   0  0  0  0  0  0  0  0  0  0  0  0
   37.6891   22.3408   30.8054 H   0  0  0  0  0  0  0  0  0  0  0  0
   38.0168   24.6009   31.7084 H   0  0  0  0  0  0  0  0  0  0  0  0
   36.2782   25.3697   34.3577 H   0  0  0  0  0  0  0  0  0  0  0  0
   36.2287   27.7249   35.3258 H   0  0  0  0  0  0  0  0  0  0  0  0
   38.4040   28.7916   35.7173 H   0  0  0  0  0  0  0  0  0  0  0  0
   40.5359   27.7411   35.2273 H   0  0  0  0  0  0  0  0  0  0  0  0
   41.1951   23.5171   33.2368 H   0  0  0  0  0  0  0  0  0  0  0  0
   40.1381   24.5704   32.2368 H   0  0  0  0  0  0  0  0  0  0  0  0
   41.9164   24.8234   32.2368 H   0  0  0  0  0  0  0  0  0  0  0  0
   42.1426   27.1053   34.7308 H   0  0  0  0  0  0  0  0  0  0  0  0
   42.7343   26.3966   33.1900 H   0  0  0  0  0  0  0  0  0  0  0  0
   41.2949   27.4712   33.1900 H   0  0  0  0  0  0  0  0  0  0  0  0
   41.3058   25.0844   36.0808 H   0  0  0  0  0  0  0  0  0  0  0  0
   41.4912   23.6440   35.0236 H   0  0  0  0  0  0  0  0  0  0  0  0
   42.7494   24.9260   35.0236 H   0  0  0  0  0  0  0  0  0  0  0  0
   36.4747   23.5756   36.6127 H   0  0  0  0  0  0  0  0  0  0  0  0
   40.5293   22.3863   35.9047 H   0  0  0  0  0  0  0  0  0  0  0  0
   39.1668   23.1824   39.8386 H   0  0  0  0  0  0  0  0  0  0  0  0
  1 18  1  0
  2  1  2  0
  3  2  1  0
  4  5  1  0
  4  3  2  0
  5  6  2  0
  6  7  1  0
  6  1  1  0
  7 12  1  0
  7  8  2  0
  8  9  1  0
  9 10  2  0
 11 10  1  0
 12 11  2  0
 13 12  1  0
 13 16  1  0
 14 13  1  0
 15 13  1  0
 17 22  2  0
 18 19  2  0
 18 17  1  0
 19 20  1  0
 20 21  2  0
 22 21  1  0
  2 23  1  0
  3 24  1  0
  4 25  1  0
  5 26  1  0
  8 27  1  0
  9 28  1  0
 10 29  1  0
 11 30  1  0
 14 31  1  0
 14 32  1  0
 14 33  1  0
 15 34  1  0
 15 35  1  0
 15 36  1  0
 16 37  1  0
 16 38  1  0
 16 39  1  0
 17 40  1  0
 19 41  1  0
 21 42  1  0
M  ISO  8  23  14  24  14  25  14  26  14  27  14  28  14  29  14  30  14
M  ISO  8  31   8  32   8  33   8  34   8  35   8  36   8  37   8  38   8
M  ISO  4  39   8  40  14  41  14  42  14
M  END
>  <minimizedAffinity>  (1) 
-4.97883081

>  <minimizedRMSD>  (1) 
1.36731648

$$$$
