
     RDKit          3D

 35 38  0  0  0  0  0  0  0  0999 V2000
   37.9760   22.8170   34.7970 C   0  0  0  0  0  0  0  0  0  0  0  0
   37.5990   21.5660   34.3350 C   0  0  0  0  0  0  0  0  0  0  0  0
   37.2730   21.2910   33.0290 C   0  0  0  0  0  0  0  0  0  0  0  0
   37.3260   22.3300   32.1220 C   0  0  0  0  0  0  0  0  0  0  0  0
   37.6950   23.5750   32.5440 C   0  0  0  0  0  0  0  0  0  0  0  0
   38.0130   23.8160   33.8550 C   0  0  0  0  0  0  0  0  0  0  0  0
   38.4050   25.1490   34.3020 C   0  0  0  0  0  0  0  0  0  0  0  0
   37.3160   25.9170   34.7360 C   0  0  0  0  0  0  0  0  0  0  0  0
   37.4840   27.2230   35.2060 C   0  0  0  0  0  0  0  0  0  0  0  0
   38.7990   27.6510   35.1940 C   0  0  0  0  0  0  0  0  0  0  0  0
   39.8930   26.9410   34.7820 C   0  0  0  0  0  0  0  0  0  0  0  0
   39.6720   25.6610   34.3280 C   0  0  0  0  0  0  0  0  0  0  0  0
   40.7430   24.8030   33.8570 C   0  0  0  0  0  0  0  0  0  0  0  0
   41.0960   24.4080   32.6200 N   0  0  0  0  0  0  0  0  0  0  0  0
   42.1200   23.6430   32.7100 O   0  0  0  0  0  0  0  0  0  0  0  0
   42.5030   23.4850   33.9500 C   0  0  0  0  0  0  0  0  0  0  0  0
   41.6400   24.2110   34.6760 N   0  0  0  0  0  0  0  0  0  0  0  0
   37.4080   23.3830   37.1930 C   0  0  0  0  0  0  0  0  0  0  0  0
   38.2880   22.9530   36.2070 C   0  0  0  0  0  0  0  0  0  0  0  0
   39.5900   22.6290   36.6280 C   0  0  0  0  0  0  0  0  0  0  0  0
   39.9270   22.7440   37.9430 N   0  0  0  0  0  0  0  0  0  0  0  0
   39.0240   23.1660   38.8450 C   0  0  0  0  0  0  0  0  0  0  0  0
   37.7750   23.4860   38.4900 N   0  0  0  0  0  0  0  0  0  0  0  0
   37.5582   20.7402   35.0605 H   0  0  0  0  0  0  0  0  0  0  0  0
   36.9799   20.2777   32.7170 H   0  0  0  0  0  0  0  0  0  0  0  0
   37.0726   22.1561   31.0658 H   0  0  0  0  0  0  0  0  0  0  0  0
   37.7378   24.4002   31.8179 H   0  0  0  0  0  0  0  0  0  0  0  0
   36.3060   25.4823   34.7062 H   0  0  0  0  0  0  0  0  0  0  0  0
   36.6495   27.8504   35.5524 H   0  0  0  0  0  0  0  0  0  0  0  0
   38.9853   28.6733   35.5549 H   0  0  0  0  0  0  0  0  0  0  0  0
   40.9039   27.3737   34.8122 H   0  0  0  0  0  0  0  0  0  0  0  0
   43.3494   22.8865   34.3180 H   0  0  0  0  0  0  0  0  0  0  0  0
   36.3790   23.6483   36.9087 H   0  0  0  0  0  0  0  0  0  0  0  0
   40.3353   22.2832   35.8966 H   0  0  0  0  0  0  0  0  0  0  0  0
   39.3197   23.2502   39.9011 H   0  0  0  0  0  0  0  0  0  0  0  0
  1 19  1  0
  2  1  2  0
  3  2  1  0
  4  5  1  0
  4  3  2  0
  5  6  2  0
  6  7  1  0
  6  1  1  0
  7 12  1  0
  7  8  2  0
  8  9  1  0
 10  9  2  0
 11 10  1  0
 12 11  2  0
 13 12  1  0
 13 17  1  0
 14 15  1  0
 14 13  2  0
 15 16  1  0
 16 17  2  0
 18 23  2  0
 19 20  2  0
 19 18  1  0
 20 21  1  0
 21 22  2  0
 23 22  1  0
  2 24  1  0
  3 25  1  0
  4 26  1  0
  5 27  1  0
  8 28  1  0
  9 29  1  0
 10 30  1  0
 11 31  1  0
 16 32  1  0
 18 33  1  0
 20 34  1  0
 22 35  1  0
M  ISO  8  24  14  25  14  26  14  27  14  28  14  29  14  30  14  31  14
M  ISO  4  32  14  33  14  34  14  35  14
M  END
>  <minimizedAffinity>  (1) 
-4.94357061

>  <minimizedRMSD>  (1) 
0.820247233

$$$$
