
     RDKit          3D

 37 40  0  0  0  0  0  0  0  0999 V2000
   38.0590   22.8570   34.7680 C   0  0  0  0  0  0  0  0  0  0  0  0
   37.7500   21.5940   34.2790 C   0  0  0  0  0  0  0  0  0  0  0  0
   37.4590   21.3380   32.9470 C   0  0  0  0  0  0  0  0  0  0  0  0
   37.4800   22.3910   32.0720 C   0  0  0  0  0  0  0  0  0  0  0  0
   37.7800   23.6440   32.5200 C   0  0  0  0  0  0  0  0  0  0  0  0
   38.0650   23.8780   33.8480 C   0  0  0  0  0  0  0  0  0  0  0  0
   38.3790   25.2140   34.3280 C   0  0  0  0  0  0  0  0  0  0  0  0
   37.2390   25.9720   34.6320 C   0  0  0  0  0  0  0  0  0  0  0  0
   37.3300   27.2810   35.1130 C   0  0  0  0  0  0  0  0  0  0  0  0
   38.6260   27.7350   35.2550 C   0  0  0  0  0  0  0  0  0  0  0  0
   39.7820   27.0310   34.9710 C   0  0  0  0  0  0  0  0  0  0  0  0
   39.6270   25.7420   34.4960 C   0  0  0  0  0  0  0  0  0  0  0  0
   40.8160   24.9300   34.1140 C   0  0  0  0  0  0  0  0  0  0  0  0
   42.0230   25.6890   33.6040 C   0  0  0  0  0  0  0  0  0  0  0  0
   42.0240   24.9780   34.9620 C   0  0  0  0  0  0  0  0  0  0  0  0
   37.4220   23.3640   37.1620 C   0  0  0  0  0  0  0  0  0  0  0  0
   38.3290   22.9730   36.1870 C   0  0  0  0  0  0  0  0  0  0  0  0
   39.6230   22.6740   36.6340 C   0  0  0  0  0  0  0  0  0  0  0  0
   39.9330   22.7740   37.9570 N   0  0  0  0  0  0  0  0  0  0  0  0
   39.0030   23.1600   38.8490 C   0  0  0  0  0  0  0  0  0  0  0  0
   37.7550   23.4540   38.4630 N   0  0  0  0  0  0  0  0  0  0  0  0
   37.7353   20.7515   34.9861 H   0  0  0  0  0  0  0  0  0  0  0  0
   37.2188   20.3207   32.6044 H   0  0  0  0  0  0  0  0  0  0  0  0
   37.2550   22.2265   31.0079 H   0  0  0  0  0  0  0  0  0  0  0  0
   37.7947   24.4828   31.8085 H   0  0  0  0  0  0  0  0  0  0  0  0
   36.2450   25.5235   34.4878 H   0  0  0  0  0  0  0  0  0  0  0  0
   36.4494   27.8936   35.3562 H   0  0  0  0  0  0  0  0  0  0  0  0
   38.7519   28.7606   35.6322 H   0  0  0  0  0  0  0  0  0  0  0  0
   40.7776   27.4756   35.1162 H   0  0  0  0  0  0  0  0  0  0  0  0
   40.1922   24.1062   33.7369 H   0  0  0  0  0  0  0  0  0  0  0  0
   42.6170   25.2910   32.7681 H   0  0  0  0  0  0  0  0  0  0  0  0
   42.2204   26.7108   33.2476 H   0  0  0  0  0  0  0  0  0  0  0  0
   42.0198   25.5679   35.8905 H   0  0  0  0  0  0  0  0  0  0  0  0
   42.6650   24.2239   35.4422 H   0  0  0  0  0  0  0  0  0  0  0  0
   36.3930   23.6094   36.8604 H   0  0  0  0  0  0  0  0  0  0  0  0
   40.3917   22.3572   35.9138 H   0  0  0  0  0  0  0  0  0  0  0  0
   39.2722   23.2354   39.9129 H   0  0  0  0  0  0  0  0  0  0  0  0
  1 17  1  0
  2  1  2  0
  3  2  1  0
  4  5  1  0
  4  3  2  0
  5  6  2  0
  6  7  1  0
  6  1  1  0
  7 12  1  0
  7  8  2  0
  8  9  1  0
  9 10  2  0
 11 10  1  0
 12 11  2  0
 13 12  1  0
 13 15  1  0
 14 13  1  0
 14 15  1  0
 16 21  2  0
 17 18  2  0
 17 16  1  0
 18 19  1  0
 19 20  2  0
 21 20  1  0
  2 22  1  0
  3 23  1  0
  4 24  1  0
  5 25  1  0
  8 26  1  0
  9 27  1  0
 10 28  1  0
 11 29  1  0
 13 30  1  0
 14 31  1  0
 14 32  1  0
 15 33  1  0
 15 34  1  0
 16 35  1  0
 18 36  1  0
 20 37  1  0
M  ISO  8  22  14  23  14  24  14  25  14  26  14  27  14  28  14  29  14
M  ISO  8  30  13  31  13  32  13  33  13  34  13  35  14  36  14  37  14
M  END
>  <minimizedAffinity>  (1) 
-4.90262413

>  <minimizedRMSD>  (1) 
1.11810124

$$$$
