
     RDKit          3D

 37 39  0  0  0  0  0  0  0  0999 V2000
   37.8810   22.7620   34.7790 C   0  0  0  0  0  0  0  0  0  0  0  0
   37.3900   21.5430   34.3620 C   0  0  0  0  0  0  0  0  0  0  0  0
   37.0080   21.2700   33.0750 C   0  0  0  0  0  0  0  0  0  0  0  0
   37.1240   22.2800   32.1480 C   0  0  0  0  0  0  0  0  0  0  0  0
   37.6070   23.4960   32.5300 C   0  0  0  0  0  0  0  0  0  0  0  0
   37.9830   23.7330   33.8360 C   0  0  0  0  0  0  0  0  0  0  0  0
   38.5020   25.0540   34.2470 C   0  0  0  0  0  0  0  0  0  0  0  0
   37.5270   25.9070   34.7200 C   0  0  0  0  0  0  0  0  0  0  0  0
   37.8390   27.1920   35.1480 C   0  0  0  0  0  0  0  0  0  0  0  0
   39.1590   27.5180   35.0570 C   0  0  0  0  0  0  0  0  0  0  0  0
   40.1550   26.7000   34.5930 C   0  0  0  0  0  0  0  0  0  0  0  0
   39.8380   25.4390   34.1760 C   0  0  0  0  0  0  0  0  0  0  0  0
   40.7550   24.5020   33.6730 N   0  0  0  0  0  0  0  0  0  0  0  0
   42.1160   24.3980   34.1290 C   0  0  0  0  0  0  0  0  0  0  0  0
   42.2590   24.4480   35.4340 N   0  0  0  0  0  0  0  0  0  0  0  0
   43.1730   24.2500   33.1590 N   0  0  0  0  0  0  0  0  0  0  0  0
   43.2530   24.3700   35.7400 H   0  0  0  0  0  0  0  0  0  0  0  0
   37.3910   23.3320   37.2050 C   0  0  0  0  0  0  0  0  0  0  0  0
   38.2500   22.9030   36.1900 C   0  0  0  0  0  0  0  0  0  0  0  0
   39.5760   22.5790   36.5580 C   0  0  0  0  0  0  0  0  0  0  0  0
   39.9420   22.7030   37.8670 N   0  0  0  0  0  0  0  0  0  0  0  0
   39.0840   23.1180   38.8030 C   0  0  0  0  0  0  0  0  0  0  0  0
   37.8050   23.4360   38.4810 N   0  0  0  0  0  0  0  0  0  0  0  0
   37.2994   20.7403   35.1086 H   0  0  0  0  0  0  0  0  0  0  0  0
   36.6225   20.2791   32.7930 H   0  0  0  0  0  0  0  0  0  0  0  0
   36.8281   22.1069   31.1028 H   0  0  0  0  0  0  0  0  0  0  0  0
   37.6984   24.3007   31.7856 H   0  0  0  0  0  0  0  0  0  0  0  0
   36.4826   25.5639   34.7593 H   0  0  0  0  0  0  0  0  0  0  0  0
   37.0802   27.8908   35.5301 H   0  0  0  0  0  0  0  0  0  0  0  0
   39.4503   28.5267   35.3850 H   0  0  0  0  0  0  0  0  0  0  0  0
   41.1958   27.0541   34.5568 H   0  0  0  0  0  0  0  0  0  0  0  0
   40.4364   23.8543   32.9382 H   0  0  0  0  0  0  0  0  0  0  0  0
   44.1516   24.1744   33.4712 H   0  0  0  0  0  0  0  0  0  0  0  0
   42.9492   24.2199   32.1540 H   0  0  0  0  0  0  0  0  0  0  0  0
   36.3515   23.5909   36.9550 H   0  0  0  0  0  0  0  0  0  0  0  0
   40.2987   22.2337   35.8040 H   0  0  0  0  0  0  0  0  0  0  0  0
   39.4185   23.2029   39.8475 H   0  0  0  0  0  0  0  0  0  0  0  0
  1 19  1  0
  2  1  2  0
  3  2  1  0
  4  5  1  0
  4  3  2  0
  5  6  2  0
  6  7  1  0
  6  1  1  0
  7  8  2  0
  8  9  1  0
 10  9  2  0
 11 10  1  0
 12  7  1  0
 12 11  2  0
 13 14  1  0
 13 12  1  0
 14 15  2  0
 15 17  1  0
 16 14  1  0
 18 23  2  0
 19 20  2  0
 19 18  1  0
 20 21  1  0
 21 22  2  0
 23 22  1  0
  2 24  1  0
  3 25  1  0
  4 26  1  0
  5 27  1  0
  8 28  1  0
  9 29  1  0
 10 30  1  0
 11 31  1  0
 13 32  1  0
 16 33  1  0
 16 34  1  0
 18 35  1  0
 20 36  1  0
 22 37  1  0
M  ISO  8  24  14  25  14  26  14  27  14  28  14  29  14  30  14  31  14
M  ISO  3  35  14  36  14  37  14
M  END
>  <minimizedAffinity>  (1) 
-4.86054325

>  <minimizedRMSD>  (1) 
0.660958409

$$$$
