
     RDKit          3D

 32 34  0  0  0  0  0  0  0  0999 V2000
   37.8170   22.7110   34.7910 C   0  0  0  0  0  0  0  0  0  0  0  0
   37.1420   21.5510   34.4820 C   0  0  0  0  0  0  0  0  0  0  0  0
   36.7010   21.2260   33.2130 C   0  0  0  0  0  0  0  0  0  0  0  0
   36.9530   22.1170   32.2010 C   0  0  0  0  0  0  0  0  0  0  0  0
   37.6160   23.2680   32.4710 C   0  0  0  0  0  0  0  0  0  0  0  0
   38.0460   23.5670   33.7510 C   0  0  0  0  0  0  0  0  0  0  0  0
   38.7610   24.8110   34.0380 C   0  0  0  0  0  0  0  0  0  0  0  0
   37.9080   25.8460   34.4390 C   0  0  0  0  0  0  0  0  0  0  0  0
   38.4300   27.1140   34.7550 C   0  0  0  0  0  0  0  0  0  0  0  0
   39.7930   27.2190   34.6330 C   0  0  0  0  0  0  0  0  0  0  0  0
   40.6620   26.2330   34.2440 C   0  0  0  0  0  0  0  0  0  0  0  0
   40.1250   25.0080   33.9430 C   0  0  0  0  0  0  0  0  0  0  0  0
   40.8970   23.8950   33.5280 N   0  0  0  0  0  0  0  0  0  0  0  0
   37.4290   23.4820   37.1690 C   0  0  0  0  0  0  0  0  0  0  0  0
   38.2210   22.9160   36.1780 C   0  0  0  0  0  0  0  0  0  0  0  0
   39.5300   22.5030   36.5420 C   0  0  0  0  0  0  0  0  0  0  0  0
   39.9320   22.6850   37.8330 N   0  0  0  0  0  0  0  0  0  0  0  0
   39.1260   23.2350   38.7430 C   0  0  0  0  0  0  0  0  0  0  0  0
   37.8800   23.6350   38.4280 N   0  0  0  0  0  0  0  0  0  0  0  0
   36.9413   20.8387   35.2959 H   0  0  0  0  0  0  0  0  0  0  0  0
   36.1658   20.2843   33.0211 H   0  0  0  0  0  0  0  0  0  0  0  0
   36.6189   21.8986   31.1760 H   0  0  0  0  0  0  0  0  0  0  0  0
   37.8161   23.9786   31.6555 H   0  0  0  0  0  0  0  0  0  0  0  0
   36.8248   25.6673   34.5074 H   0  0  0  0  0  0  0  0  0  0  0  0
   37.7960   27.9543   35.0744 H   0  0  0  0  0  0  0  0  0  0  0  0
   40.2345   28.1976   34.8727 H   0  0  0  0  0  0  0  0  0  0  0  0
   41.7444   26.4168   34.1762 H   0  0  0  0  0  0  0  0  0  0  0  0
   41.9194   23.9819   33.4389 H   0  0  0  0  0  0  0  0  0  0  0  0
   40.4358   22.9989   33.3154 H   0  0  0  0  0  0  0  0  0  0  0  0
   36.4101   23.8127   36.9192 H   0  0  0  0  0  0  0  0  0  0  0  0
   40.2035   22.0474   35.8011 H   0  0  0  0  0  0  0  0  0  0  0  0
   39.4879   23.3644   39.7737 H   0  0  0  0  0  0  0  0  0  0  0  0
  1 15  1  0
  2  1  2  0
  3  2  1  0
  4  5  1  0
  4  3  2  0
  5  6  2  0
  6  7  1  0
  6  1  1  0
  7  8  2  0
  8  9  1  0
 10  9  2  0
 11 10  1  0
 12  7  1  0
 12 11  2  0
 13 12  1  0
 14 19  2  0
 15 16  2  0
 15 14  1  0
 16 17  1  0
 17 18  2  0
 19 18  1  0
  2 20  1  0
  3 21  1  0
  4 22  1  0
  5 23  1  0
  8 24  1  0
  9 25  1  0
 10 26  1  0
 11 27  1  0
 13 28  1  0
 13 29  1  0
 14 30  1  0
 16 31  1  0
 18 32  1  0
M  ISO  8  20  14  21  14  22  14  23  14  24  14  25  14  26  14  27  14
M  ISO  3  30  14  31  14  32  14
M  END
>  <minimizedAffinity>  (1) 
-4.78421068

>  <minimizedRMSD>  (1) 
0.0230886191

$$$$
