
     RDKit          3D

 33 35  0  0  0  0  0  0  0  0999 V2000
   37.9120   22.8050   34.7810 C   0  0  0  0  0  0  0  0  0  0  0  0
   37.4620   21.5730   34.3320 C   0  0  0  0  0  0  0  0  0  0  0  0
   37.0890   21.3190   33.0320 C   0  0  0  0  0  0  0  0  0  0  0  0
   37.1700   22.3510   32.1280 C   0  0  0  0  0  0  0  0  0  0  0  0
   37.6070   23.5770   32.5290 C   0  0  0  0  0  0  0  0  0  0  0  0
   37.9730   23.8010   33.8380 C   0  0  0  0  0  0  0  0  0  0  0  0
   38.4400   25.1080   34.2750 C   0  0  0  0  0  0  0  0  0  0  0  0
   37.4310   25.8970   34.8440 C   0  0  0  0  0  0  0  0  0  0  0  0
   37.6880   27.1870   35.3260 C   0  0  0  0  0  0  0  0  0  0  0  0
   39.0050   27.5820   35.1830 C   0  0  0  0  0  0  0  0  0  0  0  0
   40.0310   26.8510   34.6350 C   0  0  0  0  0  0  0  0  0  0  0  0
   39.7140   25.5970   34.1820 C   0  0  0  0  0  0  0  0  0  0  0  0
   40.7070   24.7370   33.5800 C   0  0  0  0  0  0  0  0  0  0  0  0
   41.4420   23.9810   34.2230 O   0  0  0  0  0  0  0  0  0  0  0  0
   40.8640   24.7440   32.2000 O   0  0  0  0  0  0  0  0  0  0  0  0
   37.4010   23.3140   37.2090 C   0  0  0  0  0  0  0  0  0  0  0  0
   38.2700   22.9240   36.1820 C   0  0  0  0  0  0  0  0  0  0  0  0
   39.5950   22.6270   36.5540 C   0  0  0  0  0  0  0  0  0  0  0  0
   39.9670   22.7280   37.8620 N   0  0  0  0  0  0  0  0  0  0  0  0
   39.0820   23.1090   38.8000 C   0  0  0  0  0  0  0  0  0  0  0  0
   37.8120   23.4000   38.4920 N   0  0  0  0  0  0  0  0  0  0  0  0
   37.3994   20.7493   35.0583 H   0  0  0  0  0  0  0  0  0  0  0  0
   36.7375   20.3225   32.7264 H   0  0  0  0  0  0  0  0  0  0  0  0
   36.8815   22.1866   31.0793 H   0  0  0  0  0  0  0  0  0  0  0  0
   37.6684   24.3978   31.7992 H   0  0  0  0  0  0  0  0  0  0  0  0
   36.4104   25.4927   34.9139 H   0  0  0  0  0  0  0  0  0  0  0  0
   36.9141   27.8260   35.7762 H   0  0  0  0  0  0  0  0  0  0  0  0
   39.2584   28.5887   35.5467 H   0  0  0  0  0  0  0  0  0  0  0  0
   41.0531   27.2511   34.5636 H   0  0  0  0  0  0  0  0  0  0  0  0
   41.5410   24.1592   31.7758 H   0  0  0  0  0  0  0  0  0  0  0  0
   36.3565   23.5565   36.9637 H   0  0  0  0  0  0  0  0  0  0  0  0
   40.3262   22.3152   35.7936 H   0  0  0  0  0  0  0  0  0  0  0  0
   39.4099   23.1835   39.8473 H   0  0  0  0  0  0  0  0  0  0  0  0
  1 17  1  0
  2  1  2  0
  3  2  1  0
  4  5  1  0
  4  3  2  0
  5  6  2  0
  6  7  1  0
  6  1  1  0
  7  8  2  0
  8  9  1  0
 10  9  2  0
 11 10  1  0
 12  7  1  0
 12 11  2  0
 13 12  1  0
 13 14  2  0
 15 13  1  0
 16 21  2  0
 17 18  2  0
 17 16  1  0
 18 19  1  0
 19 20  2  0
 21 20  1  0
  2 22  1  0
  3 23  1  0
  4 24  1  0
  5 25  1  0
  8 26  1  0
  9 27  1  0
 10 28  1  0
 11 29  1  0
 15 30  1  0
 16 31  1  0
 18 32  1  0
 20 33  1  0
M  ISO  8  22  14  23  14  24  14  25  14  26  14  27  14  28  14  29  14
M  ISO  4  30   3  31  14  32  14  33  14
M  END
>  <minimizedAffinity>  (1) 
-4.76823139

>  <minimizedRMSD>  (1) 
0.693563282

$$$$
