
     RDKit          3D

 56 59  0  0  1  0  0  0  0  0999 V2000
   39.9230   27.4440   31.8730 C   0  0  0  0  0  0  0  0  0  0  0  0
   41.2510   27.1150   31.1740 C   0  0  1  0  0  0  0  0  0  0  0  0
   41.7410   28.2640   30.3800 C   0  0  0  0  0  0  0  0  0  0  0  0
   42.8590   29.0310   30.9970 C   0  0  0  0  0  0  0  0  0  0  0  0
   43.8060   28.2700   31.8480 C   0  0  0  0  0  0  0  0  0  0  0  0
   43.0420   27.4980   32.8780 C   0  0  0  0  0  0  0  0  0  0  0  0
   42.2050   26.4740   32.1340 C   0  0  2  0  0  0  0  0  0  0  0  0
   43.0540   25.5000   31.6520 N   0  0  0  0  0  0  0  0  0  0  0  0
   43.8490   24.7580   32.5710 C   0  0  0  0  0  0  0  0  0  0  0  0
   45.3340   24.9360   32.3270 C   0  0  0  0  0  0  0  0  0  0  0  0
   45.6040   24.6070   30.9000 C   0  0  0  0  0  0  0  0  0  0  0  0
   44.6340   25.1290   29.9060 C   0  0  0  0  0  0  0  0  0  0  0  0
   43.1760   25.0790   30.3460 C   0  0  0  0  0  0  0  0  0  0  0  0
   38.4690   24.5780   33.7840 N   0  0  0  0  0  0  0  0  0  0  0  0
   39.1800   25.6940   33.5510 C   0  0  0  0  0  0  0  0  0  0  0  0
   39.1810   26.2270   32.2760 C   0  0  0  0  0  0  0  0  0  0  0  0
   38.4400   25.5850   31.2760 C   0  0  0  0  0  0  0  0  0  0  0  0
   38.3650   25.9760   30.0860 O   0  0  0  0  0  0  0  0  0  0  0  0
   37.7300   24.4560   31.5520 N   0  0  0  0  0  0  0  0  0  0  0  0
   37.7650   23.9820   32.8060 C   0  0  0  0  0  0  0  0  0  0  0  0
   37.1140   22.9410   33.0670 O   0  0  0  0  0  0  0  0  0  0  0  0
   37.8080   24.7910   36.0970 C   0  0  0  0  0  0  0  0  0  0  0  0
   38.5380   24.1130   35.1140 C   0  0  0  0  0  0  0  0  0  0  0  0
   39.2960   23.0130   35.5080 C   0  0  0  0  0  0  0  0  0  0  0  0
   39.2870   22.6530   36.8300 N   0  0  0  0  0  0  0  0  0  0  0  0
   38.5680   23.3340   37.7490 C   0  0  0  0  0  0  0  0  0  0  0  0
   37.8370   24.3950   37.3710 N   0  0  0  0  0  0  0  0  0  0  0  0
   38.7150   22.7720   39.0530 N   0  0  0  0  0  0  0  0  0  0  0  0
   39.2959   28.0281   31.1834 H   0  0  0  0  0  0  0  0  0  0  0  0
   40.1558   28.0127   32.7854 H   0  0  0  0  0  0  0  0  0  0  0  0
   41.1084   26.3418   30.4047 H   0  0  0  0  0  0  0  0  0  0  0  0
   40.8989   28.9548   30.2257 H   0  0  0  0  0  0  0  0  0  0  0  0
   42.1398   27.8415   29.4460 H   0  0  0  0  0  0  0  0  0  0  0  0
   43.4386   29.4876   30.1812 H   0  0  0  0  0  0  0  0  0  0  0  0
   42.3743   29.7470   31.6771 H   0  0  0  0  0  0  0  0  0  0  0  0
   44.3835   27.5740   31.2219 H   0  0  0  0  0  0  0  0  0  0  0  0
   44.4923   28.9691   32.3483 H   0  0  0  0  0  0  0  0  0  0  0  0
   43.7375   26.9914   33.5633 H   0  0  0  0  0  0  0  0  0  0  0  0
   42.4049   28.1657   33.4766 H   0  0  0  0  0  0  0  0  0  0  0  0
   41.5022   25.9483   32.7971 H   0  0  0  0  0  0  0  0  0  0  0  0
   43.6160   25.0953   33.5918 H   0  0  0  0  0  0  0  0  0  0  0  0
   43.6125   23.6925   32.4340 H   0  0  0  0  0  0  0  0  0  0  0  0
   45.6248   25.9768   32.5324 H   0  0  0  0  0  0  0  0  0  0  0  0
   45.9138   24.2765   32.9895 H   0  0  0  0  0  0  0  0  0  0  0  0
   46.5945   25.0120   30.6452 H   0  0  0  0  0  0  0  0  0  0  0  0
   45.5279   23.5116   30.8340 H   0  0  0  0  0  0  0  0  0  0  0  0
   44.7340   24.5345   28.9859 H   0  0  0  0  0  0  0  0  0  0  0  0
   44.8779   26.1924   29.7655 H   0  0  0  0  0  0  0  0  0  0  0  0
   42.5786   25.7354   29.6962 H   0  0  0  0  0  0  0  0  0  0  0  0
   42.8156   24.0425   30.2700 H   0  0  0  0  0  0  0  0  0  0  0  0
   39.7504   26.1742   34.3597 H   0  0  0  0  0  0  0  0  0  0  0  0
   37.1829   23.9808   30.8200 H   0  0  0  0  0  0  0  0  0  0  0  0
   37.2009   25.6639   35.8150 H   0  0  0  0  0  0  0  0  0  0  0  0
   39.8884   22.4462   34.7746 H   0  0  0  0  0  0  0  0  0  0  0  0
   38.2211   23.1919   39.8534 H   0  0  0  0  0  0  0  0  0  0  0  0
   39.3150   21.9466   39.1934 H   0  0  0  0  0  0  0  0  0  0  0  0
  1 16  1  0
  2  1  1  0
  2  7  1  0
  3  4  1  0
  3  2  1  0
  4  5  1  0
  5  6  1  0
  7  6  1  0
  8  7  1  0
  8  9  1  0
 10  9  1  0
 11 10  1  0
 12 13  1  0
 12 11  1  0
 13  8  1  0
 14 23  1  0
 15 14  1  0
 16 15  2  0
 17 19  1  0
 17 16  1  0
 18 17  2  0
 19 20  1  0
 20 21  2  0
 20 14  1  0
 22 27  2  0
 23 24  2  0
 23 22  1  0
 24 25  1  0
 25 26  2  0
 26 28  1  0
 27 26  1  0
  1 29  1  0
  1 30  1  0
  2 31  1  6
  3 32  1  0
  3 33  1  0
  4 34  1  0
  4 35  1  0
  5 36  1  0
  5 37  1  0
  6 38  1  0
  6 39  1  0
  7 40  1  1
  9 41  1  0
  9 42  1  0
 10 43  1  0
 10 44  1  0
 11 45  1  0
 11 46  1  0
 12 47  1  0
 12 48  1  0
 13 49  1  0
 13 50  1  0
 15 51  1  0
 19 52  1  0
 22 53  1  0
 24 54  1  0
 28 55  1  0
 28 56  1  0
M  ISO  8  29   8  30   8  31  13  32  13  33  13  34  13  35  13  36  13
M  ISO  8  37  13  38  13  39  13  40  13  41  13  42  13  43  13  44  13
M  ISO  8  45  13  46  13  47  13  48  13  49  13  50  13  51  14  52   9
M  ISO  2  53  14  54  14
M  END
>  <minimizedAffinity>  (1) 
-4.46934843

>  <minimizedRMSD>  (1) 
0.796140313

$$$$
