
     RDKit          3D

 13 13  0  0  0  0  0  0  0  0999 V2000
   39.9110   22.7360   37.5620 C   0  0  0  0  0  0  0  0  0  0  0  0
   38.6940   23.3660   37.8690 C   0  0  0  0  0  0  0  0  0  0  0  0
   37.6730   23.3450   36.9000 C   0  0  0  0  0  0  0  0  0  0  0  0
   37.9260   22.7080   35.7100 N   0  0  0  0  0  0  0  0  0  0  0  0
   39.1120   22.1210   35.4730 C   0  0  0  0  0  0  0  0  0  0  0  0
   40.1230   22.1180   36.3770 N   0  0  0  0  0  0  0  0  0  0  0  0
   38.5250   24.0180   39.1700 C   0  0  0  0  0  0  0  0  0  0  0  0
   40.7182   22.7452   38.3092 H   0  0  0  0  0  0  0  0  0  0  0  0
   36.7015   23.8245   37.0904 H   0  0  0  0  0  0  0  0  0  0  0  0
   39.2690   21.6222   34.5052 H   0  0  0  0  0  0  0  0  0  0  0  0
   38.7138   23.2897   39.9724 H   0  0  0  0  0  0  0  0  0  0  0  0
   39.2366   24.8523   39.2572 H   0  0  0  0  0  0  0  0  0  0  0  0
   37.4977   24.4016   39.2572 H   0  0  0  0  0  0  0  0  0  0  0  0
  1  2  2  0
  2  7  1  0
  3  2  1  0
  4  3  2  0
  5  4  1  0
  5  6  2  0
  6  1  1  0
  1  8  1  0
  3  9  1  0
  5 10  1  0
  7 11  1  0
  7 12  1  0
  7 13  1  0
M  ISO  6   8  14   9  14  10  14  11   8  12   8  13   8
M  END
>  <minimizedAffinity>  (1) 
-2.52621007

>  <minimizedRMSD>  (1) 
0.679459453

$$$$
