
     RDKit          3D

 42 44  0  0  1  0  0  0  0  0999 V2000
   38.5030   24.5790   33.7860 N   0  0  0  0  0  0  0  0  0  0  0  0
   39.2320   25.6820   33.5690 C   0  0  0  0  0  0  0  0  0  0  0  0
   39.2460   26.2290   32.2790 C   0  0  0  0  0  0  0  0  0  0  0  0
   38.5080   25.6070   31.2900 C   0  0  0  0  0  0  0  0  0  0  0  0
   38.4510   26.0160   30.0970 O   0  0  0  0  0  0  0  0  0  0  0  0
   37.7770   24.4830   31.5540 N   0  0  0  0  0  0  0  0  0  0  0  0
   37.7990   24.0010   32.8050 C   0  0  0  0  0  0  0  0  0  0  0  0
   37.1360   22.9750   33.0600 O   0  0  0  0  0  0  0  0  0  0  0  0
   37.8310   24.7920   36.0990 C   0  0  0  0  0  0  0  0  0  0  0  0
   38.5610   24.1170   35.1140 C   0  0  0  0  0  0  0  0  0  0  0  0
   39.3090   23.0130   35.5220 C   0  0  0  0  0  0  0  0  0  0  0  0
   39.2960   22.6480   36.8420 N   0  0  0  0  0  0  0  0  0  0  0  0
   38.5810   23.3230   37.7580 C   0  0  0  0  0  0  0  0  0  0  0  0
   37.8540   24.3910   37.3760 N   0  0  0  0  0  0  0  0  0  0  0  0
   38.7160   22.7700   39.0460 N   0  0  0  0  0  0  0  0  0  0  0  0
   40.0100   27.4510   31.8870 C   0  0  0  0  0  0  0  0  0  0  0  0
   41.2590   27.0980   31.1060 C   0  0  1  0  0  0  0  0  0  0  0  0
   41.6010   28.2720   30.2460 C   0  0  0  0  0  0  0  0  0  0  0  0
   42.9920   28.6610   30.3890 C   0  0  0  0  0  0  0  0  0  0  0  0
   43.7020   28.5820   31.6480 C   0  0  0  0  0  0  0  0  0  0  0  0
   43.2110   27.5940   32.6080 C   0  0  0  0  0  0  0  0  0  0  0  0
   42.3240   26.5870   32.0070 C   0  0  2  0  0  0  0  0  0  0  0  0
   43.0800   25.6200   31.3190 O   0  0  0  0  0  0  0  0  0  0  0  0
   39.8059   26.1471   34.3841 H   0  0  0  0  0  0  0  0  0  0  0  0
   37.2269   24.0210   30.8158 H   0  0  0  0  0  0  0  0  0  0  0  0
   37.2274   25.6679   35.8188 H   0  0  0  0  0  0  0  0  0  0  0  0
   39.9023   22.4422   34.7925 H   0  0  0  0  0  0  0  0  0  0  0  0
   38.2188   23.1929   39.8427 H   0  0  0  0  0  0  0  0  0  0  0  0
   39.3120   21.9426   39.1913 H   0  0  0  0  0  0  0  0  0  0  0  0
   39.3672   28.0898   31.2635 H   0  0  0  0  0  0  0  0  0  0  0  0
   40.3135   27.9772   32.8040 H   0  0  0  0  0  0  0  0  0  0  0  0
   41.1070   26.2517   30.4199 H   0  0  0  0  0  0  0  0  0  0  0  0
   40.9631   29.1209   30.5331 H   0  0  0  0  0  0  0  0  0  0  0  0
   41.4331   27.9865   29.1971 H   0  0  0  0  0  0  0  0  0  0  0  0
   43.5569   28.0362   29.6815 H   0  0  0  0  0  0  0  0  0  0  0  0
   42.9363   29.7484   30.2327 H   0  0  0  0  0  0  0  0  0  0  0  0
   44.7520   28.3406   31.4260 H   0  0  0  0  0  0  0  0  0  0  0  0
   43.5528   29.5592   32.1306 H   0  0  0  0  0  0  0  0  0  0  0  0
   44.0758   27.0776   33.0501 H   0  0  0  0  0  0  0  0  0  0  0  0
   42.6219   28.1377   33.3612 H   0  0  0  0  0  0  0  0  0  0  0  0
   41.7921   26.1581   32.8691 H   0  0  0  0  0  0  0  0  0  0  0  0
   43.5384   25.0337   31.9719 H   0  0  0  0  0  0  0  0  0  0  0  0
  1 10  1  0
  2  1  1  0
  3  2  2  0
  4  6  1  0
  4  3  1  0
  5  4  2  0
  6  7  1  0
  7  8  2  0
  7  1  1  0
  9 14  2  0
 10 11  2  0
 10  9  1  0
 11 12  1  0
 12 13  2  0
 13 15  1  0
 14 13  1  0
 16  3  1  0
 17 16  1  0
 17 22  1  0
 18 19  1  0
 18 17  1  0
 19 20  1  0
 20 21  1  0
 22 21  1  0
 23 22  1  0
  2 24  1  0
  6 25  1  0
  9 26  1  0
 11 27  1  0
 15 28  1  0
 15 29  1  0
 16 30  1  0
 16 31  1  0
 17 32  1  6
 18 33  1  0
 18 34  1  0
 19 35  1  0
 19 36  1  0
 20 37  1  0
 20 38  1  0
 21 39  1  0
 21 40  1  0
 22 41  1  1
 23 42  1  0
M  ISO  8  24  14  25   9  26  14  27  14  30   8  31   8  32  13  33  13
M  ISO  8  34  13  35  13  36  13  37  13  38  13  39  13  40  13  41  13
M  ISO  1  42   3
M  END
>  <minimizedAffinity>  (1) 
-4.45439959

>  <minimizedRMSD>  (1) 
0.145656928

$$$$
