
     RDKit          3D

 14 14  0  0  0  0  0  0  0  0999 V2000
   40.5700   22.3070   37.6370 C   0  0  0  0  0  0  0  0  0  0  0  0
   39.3710   23.0170   37.4120 C   0  0  0  0  0  0  0  0  0  0  0  0
   38.9900   23.3150   36.1010 C   0  0  0  0  0  0  0  0  0  0  0  0
   39.8190   22.8920   35.0830 N   0  0  0  0  0  0  0  0  0  0  0  0
   40.9480   22.2220   35.3510 C   0  0  0  0  0  0  0  0  0  0  0  0
   41.3610   21.9090   36.6030 N   0  0  0  0  0  0  0  0  0  0  0  0
   38.5710   23.4140   38.5710 C   0  0  0  0  0  0  0  0  0  0  0  0
   37.5190   22.5530   38.7620 O   0  0  0  0  0  0  0  0  0  0  0  0
   40.8712   22.0706   38.6682 H   0  0  0  0  0  0  0  0  0  0  0  0
   38.0625   23.8669   35.8885 H   0  0  0  0  0  0  0  0  0  0  0  0
   41.5766   21.9075   34.5048 H   0  0  0  0  0  0  0  0  0  0  0  0
   39.2086   23.4071   39.4674 H   0  0  0  0  0  0  0  0  0  0  0  0
   38.1698   24.4222   38.3906 H   0  0  0  0  0  0  0  0  0  0  0  0
   37.3666   22.4283   39.7322 H   0  0  0  0  0  0  0  0  0  0  0  0
  2  1  2  0
  2  7  1  0
  3  2  1  0
  4  5  1  0
  4  3  2  0
  5  6  2  0
  6  1  1  0
  7  8  1  0
  1  9  1  0
  3 10  1  0
  5 11  1  0
  7 12  1  0
  7 13  1  0
  8 14  1  0
M  ISO  6   9  14  10  14  11  14  12   8  13   8  14   3
M  END
>  <minimizedAffinity>  (1) 
-2.82679582

>  <minimizedRMSD>  (1) 
1.4102869

$$$$
