
     RDKit          3D

 18 18  0  0  0  0  0  0  0  0999 V2000
   40.1310   24.5370   35.2350 C   0  0  0  0  0  0  0  0  0  0  0  0
   38.7790   24.6870   35.6440 C   0  0  0  0  0  0  0  0  0  0  0  0
   38.1910   25.9620   35.6490 C   0  0  0  0  0  0  0  0  0  0  0  0
   38.9810   27.0210   35.2480 N   0  0  0  0  0  0  0  0  0  0  0  0
   40.2450   26.8160   34.8760 C   0  0  0  0  0  0  0  0  0  0  0  0
   40.8680   25.6110   34.8480 N   0  0  0  0  0  0  0  0  0  0  0  0
   38.0310   23.4900   36.0510 C   0  0  0  0  0  0  0  0  0  0  0  0
   37.4420   23.7050   37.2840 O   0  0  0  0  0  0  0  0  0  0  0  0
   38.1650   23.8690   38.4720 C   0  0  0  0  0  0  0  0  0  0  0  0
   38.9660   22.7060   38.7670 N   0  0  0  0  0  0  0  0  0  0  0  0
   38.0300   24.9360   39.0850 O   0  0  0  0  0  0  0  0  0  0  0  0
   40.5882   23.5365   35.2315 H   0  0  0  0  0  0  0  0  0  0  0  0
   37.1461   26.1108   35.9590 H   0  0  0  0  0  0  0  0  0  0  0  0
   40.8299   27.6948   34.5668 H   0  0  0  0  0  0  0  0  0  0  0  0
   37.2510   23.2753   35.3057 H   0  0  0  0  0  0  0  0  0  0  0  0
   38.7206   22.6358   36.1207 H   0  0  0  0  0  0  0  0  0  0  0  0
   39.5521   22.6856   39.6137 H   0  0  0  0  0  0  0  0  0  0  0  0
   38.9517   21.8960   38.1309 H   0  0  0  0  0  0  0  0  0  0  0  0
  1  2  2  0
  2  3  1  0
  2  7  1  0
  4  3  2  0
  5  4  1  0
  6  5  2  0
  6  1  1  0
  7  8  1  0
  8  9  1  0
  9 10  1  0
  9 11  2  0
  1 12  1  0
  3 13  1  0
  5 14  1  0
  7 15  1  0
  7 16  1  0
 10 17  1  0
 10 18  1  0
M  ISO  5  12  14  13  14  14  14  15   8  16   8
M  END
>  <minimizedAffinity>  (1) 
-3.63066769

>  <minimizedRMSD>  (1) 
3.24526644

$$$$
