
     RDKit          3D

 44 46  0  0  1  0  0  0  0  0999 V2000
   39.9310   27.4690   31.8870 C   0  0  0  0  0  0  0  0  0  0  0  0
   41.2460   27.1360   31.1900 C   0  0  1  0  0  0  0  0  0  0  0  0
   41.7480   28.2710   30.3650 C   0  0  0  0  0  0  0  0  0  0  0  0
   42.8610   29.0500   30.9680 C   0  0  0  0  0  0  0  0  0  0  0  0
   43.8100   28.3140   31.8260 C   0  0  0  0  0  0  0  0  0  0  0  0
   43.1100   27.4480   32.8340 C   0  0  0  0  0  0  0  0  0  0  0  0
   42.2170   26.5040   32.1110 C   0  0  2  0  0  0  0  0  0  0  0  0
   42.9760   25.3610   31.4490 C   0  0  0  0  0  0  0  0  0  0  0  0
   42.7020   24.1940   32.1610 F   0  0  0  0  0  0  0  0  0  0  0  0
   44.3090   25.6000   31.2910 F   0  0  0  0  0  0  0  0  0  0  0  0
   42.4030   25.1940   30.2040 F   0  0  0  0  0  0  0  0  0  0  0  0
   38.4850   24.5820   33.7880 N   0  0  0  0  0  0  0  0  0  0  0  0
   39.1940   25.6990   33.5640 C   0  0  0  0  0  0  0  0  0  0  0  0
   39.1880   26.2340   32.2720 C   0  0  0  0  0  0  0  0  0  0  0  0
   38.4600   25.6000   31.2780 C   0  0  0  0  0  0  0  0  0  0  0  0
   38.3920   26.0010   30.0860 O   0  0  0  0  0  0  0  0  0  0  0  0
   37.7520   24.4620   31.5530 N   0  0  0  0  0  0  0  0  0  0  0  0
   37.7900   23.9910   32.8040 C   0  0  0  0  0  0  0  0  0  0  0  0
   37.1390   22.9420   33.0610 O   0  0  0  0  0  0  0  0  0  0  0  0
   37.8230   24.7930   36.1030 C   0  0  0  0  0  0  0  0  0  0  0  0
   38.5500   24.1180   35.1110 C   0  0  0  0  0  0  0  0  0  0  0  0
   39.2960   23.0150   35.5160 C   0  0  0  0  0  0  0  0  0  0  0  0
   39.2790   22.6580   36.8470 N   0  0  0  0  0  0  0  0  0  0  0  0
   38.5720   23.3310   37.7570 C   0  0  0  0  0  0  0  0  0  0  0  0
   37.8410   24.4070   37.3740 N   0  0  0  0  0  0  0  0  0  0  0  0
   38.7190   22.7690   39.0450 N   0  0  0  0  0  0  0  0  0  0  0  0
   39.3059   28.0643   31.2052 H   0  0  0  0  0  0  0  0  0  0  0  0
   40.1593   28.0339   32.8028 H   0  0  0  0  0  0  0  0  0  0  0  0
   41.0603   26.3502   30.4429 H   0  0  0  0  0  0  0  0  0  0  0  0
   40.9086   28.9593   30.1871 H   0  0  0  0  0  0  0  0  0  0  0  0
   42.1529   27.8233   29.4454 H   0  0  0  0  0  0  0  0  0  0  0  0
   43.4371   29.4966   30.1442 H   0  0  0  0  0  0  0  0  0  0  0  0
   42.3720   29.7717   31.6389 H   0  0  0  0  0  0  0  0  0  0  0  0
   44.4420   27.6769   31.1898 H   0  0  0  0  0  0  0  0  0  0  0  0
   44.4113   29.0532   32.3756 H   0  0  0  0  0  0  0  0  0  0  0  0
   43.8527   26.8829   33.4163 H   0  0  0  0  0  0  0  0  0  0  0  0
   42.5193   28.0728   33.5200 H   0  0  0  0  0  0  0  0  0  0  0  0
   41.5979   26.0683   32.9091 H   0  0  0  0  0  0  0  0  0  0  0  0
   39.7633   26.1798   34.3731 H   0  0  0  0  0  0  0  0  0  0  0  0
   37.2078   23.9839   30.8208 H   0  0  0  0  0  0  0  0  0  0  0  0
   37.2199   25.6683   35.8198 H   0  0  0  0  0  0  0  0  0  0  0  0
   39.8873   22.4398   34.7883 H   0  0  0  0  0  0  0  0  0  0  0  0
   38.2283   23.1870   39.8484 H   0  0  0  0  0  0  0  0  0  0  0  0
   39.3169   21.9413   39.1806 H   0  0  0  0  0  0  0  0  0  0  0  0
  1 14  1  0
  2  1  1  0
  2  7  1  0
  3  4  1  0
  3  2  1  0
  4  5  1  0
  5  6  1  0
  7  6  1  0
  8  7  1  0
  8  9  1  0
 10  8  1  0
 11  8  1  0
 12 21  1  0
 13 12  1  0
 14 13  2  0
 15 17  1  0
 15 14  1  0
 16 15  2  0
 17 18  1  0
 18 19  2  0
 18 12  1  0
 20 25  2  0
 21 22  2  0
 21 20  1  0
 22 23  1  0
 23 24  2  0
 24 26  1  0
 25 24  1  0
  1 27  1  0
  1 28  1  0
  2 29  1  6
  3 30  1  0
  3 31  1  0
  4 32  1  0
  4 33  1  0
  5 34  1  0
  5 35  1  0
  6 36  1  0
  6 37  1  0
  7 38  1  1
 13 39  1  0
 17 40  1  0
 20 41  1  0
 22 42  1  0
 26 43  1  0
 26 44  1  0
M  ISO  8  27   8  28   8  29  13  30  13  31  13  32  13  33  13  34  13
M  ISO  8  35  13  36  13  37  13  38  13  39  14  40   9  41  14  42  14
M  END
>  <minimizedAffinity>  (1) 
-4.45185089

>  <minimizedRMSD>  (1) 
0.0468701683

$$$$
