
     RDKit          3D

 21 22  0  0  0  0  0  0  0  0999 V2000
   38.4120   24.0620   36.8770 C   0  0  0  0  0  0  0  0  0  0  0  0
   39.8500   25.0910   35.1590 C   0  0  0  0  0  0  0  0  0  0  0  0
   38.6270   25.0820   35.8370 C   0  0  0  0  0  0  0  0  0  0  0  0
   37.6320   26.0290   35.5220 C   0  0  0  0  0  0  0  0  0  0  0  0
   37.9350   26.9390   34.5270 N   0  0  0  0  0  0  0  0  0  0  0  0
   39.1170   26.8950   33.9180 C   0  0  0  0  0  0  0  0  0  0  0  0
   40.1010   26.0020   34.1900 N   0  0  0  0  0  0  0  0  0  0  0  0
   38.4550   22.8140   36.3690 O   0  0  0  0  0  0  0  0  0  0  0  0
   37.4990   22.0760   35.7320 C   0  0  0  0  0  0  0  0  0  0  0  0
   37.0430   21.5880   34.5330 C   0  0  0  0  0  0  0  0  0  0  0  0
   35.9060   20.8590   34.7310 N   0  0  0  0  0  0  0  0  0  0  0  0
   35.6430   20.8870   36.0710 C   0  0  0  0  0  0  0  0  0  0  0  0
   36.6170   21.6290   36.6650 N   0  0  0  0  0  0  0  0  0  0  0  0
   39.1959   24.1625   37.6421 H   0  0  0  0  0  0  0  0  0  0  0  0
   37.4139   24.2208   37.3114 H   0  0  0  0  0  0  0  0  0  0  0  0
   40.6186   24.3475   35.4167 H   0  0  0  0  0  0  0  0  0  0  0  0
   36.6628   26.0432   36.0420 H   0  0  0  0  0  0  0  0  0  0  0  0
   39.3114   27.6407   33.1330 H   0  0  0  0  0  0  0  0  0  0  0  0
   37.5223   21.7589   33.5578 H   0  0  0  0  0  0  0  0  0  0  0  0
   34.7977   20.3986   36.5779 H   0  0  0  0  0  0  0  0  0  0  0  0
   36.6772   21.8236   37.6747 H   0  0  0  0  0  0  0  0  0  0  0  0
  2  3  2  0
  3  1  1  0
  4  3  1  0
  5  4  2  0
  6  7  2  0
  6  5  1  0
  7  2  1  0
  8  1  1  0
  9  8  1  0
  9 13  1  0
 10 11  1  0
 10  9  2  0
 11 12  2  0
 12 13  1  0
  1 14  1  0
  1 15  1  0
  2 16  1  0
  4 17  1  0
  6 18  1  0
 10 19  1  0
 12 20  1  0
 13 21  1  0
M  ISO  8  14   8  15   8  16  14  17  14  18  14  19  14  20  14  21   9
M  END
>  <minimizedAffinity>  (1) 
-3.30474329

>  <minimizedRMSD>  (1) 
3.85744119

$$$$
