
     RDKit          3D

 20 20  0  0  0  0  0  0  0  0999 V2000
   39.0350   23.2490   38.4360 C   0  0  0  0  0  0  0  0  0  0  0  0
   39.7200   22.7690   37.3120 C   0  0  0  0  0  0  0  0  0  0  0  0
   39.2580   23.0910   36.0420 C   0  0  0  0  0  0  0  0  0  0  0  0
   38.1390   23.8720   35.9440 N   0  0  0  0  0  0  0  0  0  0  0  0
   37.5060   24.3170   37.0470 C   0  0  0  0  0  0  0  0  0  0  0  0
   37.9150   24.0320   38.3180 N   0  0  0  0  0  0  0  0  0  0  0  0
   40.9080   21.9390   37.5250 C   0  0  0  0  0  0  0  0  0  0  0  0
   41.5460   21.6680   36.3510 O   0  0  0  0  0  0  0  0  0  0  0  0
   42.9130   21.8150   36.5260 C   0  0  0  0  0  0  0  0  0  0  0  0
   43.3280   23.2740   36.5140 C   0  0  0  0  0  0  0  0  0  0  0  0
   39.4050   22.9912   39.4393 H   0  0  0  0  0  0  0  0  0  0  0  0
   39.7765   22.7288   35.1420 H   0  0  0  0  0  0  0  0  0  0  0  0
   36.6115   24.9437   36.9164 H   0  0  0  0  0  0  0  0  0  0  0  0
   41.6006   22.4714   38.1935 H   0  0  0  0  0  0  0  0  0  0  0  0
   40.5874   20.9860   37.9712 H   0  0  0  0  0  0  0  0  0  0  0  0
   43.1983   21.3715   37.4913 H   0  0  0  0  0  0  0  0  0  0  0  0
   43.4212   21.3077   35.6927 H   0  0  0  0  0  0  0  0  0  0  0  0
   43.4306   23.6346   37.5482 H   0  0  0  0  0  0  0  0  0  0  0  0
   44.2911   23.3770   35.9926 H   0  0  0  0  0  0  0  0  0  0  0  0
   42.5633   23.8684   35.9926 H   0  0  0  0  0  0  0  0  0  0  0  0
  2  7  1  0
  2  1  2  0
  3  2  1  0
  4  3  2  0
  4  5  1  0
  5  6  2  0
  6  1  1  0
  8  9  1  0
  8  7  1  0
 10  9  1  0
  1 11  1  0
  3 12  1  0
  5 13  1  0
  7 14  1  0
  7 15  1  0
  9 16  1  0
  9 17  1  0
 10 18  1  0
 10 19  1  0
 10 20  1  0
M  ISO  8  11  14  12  14  13  14  14   8  15   8  16   8  17   8  18   8
M  ISO  2  19   8  20   8
M  END
>  <minimizedAffinity>  (1) 
-2.94139242

>  <minimizedRMSD>  (1) 
3.67082119

$$$$
