
     RDKit          3D

 17 17  0  0  0  0  0  0  0  0999 V2000
   41.0240   22.6530   36.4680 C   0  0  0  0  0  0  0  0  0  0  0  0
   39.6740   22.6890   36.8430 C   0  0  0  0  0  0  0  0  0  0  0  0
   38.7130   22.3860   35.8880 C   0  0  0  0  0  0  0  0  0  0  0  0
   39.1270   22.0660   34.6180 N   0  0  0  0  0  0  0  0  0  0  0  0
   40.4400   22.0450   34.3070 C   0  0  0  0  0  0  0  0  0  0  0  0
   41.4220   22.3310   35.1960 N   0  0  0  0  0  0  0  0  0  0  0  0
   39.3320   23.0390   38.2110 C   0  0  0  0  0  0  0  0  0  0  0  0
   38.0240   23.4140   38.3180 O   0  0  0  0  0  0  0  0  0  0  0  0
   37.8840   24.7290   38.7180 C   0  0  0  0  0  0  0  0  0  0  0  0
   41.7906   22.8913   37.2200 H   0  0  0  0  0  0  0  0  0  0  0  0
   37.6431   22.4018   36.1429 H   0  0  0  0  0  0  0  0  0  0  0  0
   40.7281   21.7821   33.2785 H   0  0  0  0  0  0  0  0  0  0  0  0
   39.5082   22.1670   38.8580 H   0  0  0  0  0  0  0  0  0  0  0  0
   39.9611   23.8874   38.5184 H   0  0  0  0  0  0  0  0  0  0  0  0
   37.8786   24.7794   39.8168 H   0  0  0  0  0  0  0  0  0  0  0  0
   38.7240   25.3224   38.3278 H   0  0  0  0  0  0  0  0  0  0  0  0
   36.9379   25.1322   38.3278 H   0  0  0  0  0  0  0  0  0  0  0  0
  1  2  2  0
  2  7  1  0
  3  2  1  0
  4  3  2  0
  5  4  1  0
  5  6  2  0
  6  1  1  0
  7  8  1  0
  8  9  1  0
  1 10  1  0
  3 11  1  0
  5 12  1  0
  7 13  1  0
  7 14  1  0
  9 15  1  0
  9 16  1  0
  9 17  1  0
M  ISO  8  10  14  11  14  12  14  13   8  14   8  15   8  16   8  17   8
M  END
>  <minimizedAffinity>  (1) 
-2.35780168

>  <minimizedRMSD>  (1) 
1.33378828

$$$$
