
     RDKit          3D

 26 27  0  0  1  0  0  0  0  0999 V2000
   38.3790   25.2850   35.9440 C   0  0  0  0  0  0  0  0  0  0  0  0
   37.5610   25.4630   33.6520 C   0  0  0  0  0  0  0  0  0  0  0  0
   37.7400   26.0650   34.9030 C   0  0  0  0  0  0  0  0  0  0  0  0
   37.3070   27.3670   35.0950 C   0  0  0  0  0  0  0  0  0  0  0  0
   36.7110   28.0210   34.0320 N   0  0  0  0  0  0  0  0  0  0  0  0
   36.5600   27.3990   32.8450 C   0  0  0  0  0  0  0  0  0  0  0  0
   36.9690   26.1290   32.6140 N   0  0  0  0  0  0  0  0  0  0  0  0
   37.8500   24.0320   36.0450 O   0  0  0  0  0  0  0  0  0  0  0  0
   40.1270   23.5390   35.6480 N   0  0  0  0  0  0  0  0  0  0  0  0
   41.2010   22.9910   36.4170 C   0  0  0  0  0  0  0  0  0  0  0  0
   40.5900   22.2980   37.6150 C   0  0  0  0  0  0  0  0  0  0  0  0
   39.2890   23.1010   37.7480 C   0  0  0  0  0  0  0  0  0  0  0  0
   38.9110   23.1760   36.2830 C   0  0  1  0  0  0  0  0  0  0  0  0
   38.2492   25.8032   36.9056 H   0  0  0  0  0  0  0  0  0  0  0  0
   39.4433   25.1832   35.6855 H   0  0  0  0  0  0  0  0  0  0  0  0
   37.9047   24.4292   33.4999 H   0  0  0  0  0  0  0  0  0  0  0  0
   37.4338   27.8670   36.0665 H   0  0  0  0  0  0  0  0  0  0  0  0
   36.0805   27.9510   32.0232 H   0  0  0  0  0  0  0  0  0  0  0  0
   40.1505   23.1576   34.6915 H   0  0  0  0  0  0  0  0  0  0  0  0
   41.7663   22.2672   35.8115 H   0  0  0  0  0  0  0  0  0  0  0  0
   41.8938   23.7831   36.7373 H   0  0  0  0  0  0  0  0  0  0  0  0
   40.3951   21.2338   37.4162 H   0  0  0  0  0  0  0  0  0  0  0  0
   41.2214   22.2839   38.5156 H   0  0  0  0  0  0  0  0  0  0  0  0
   38.5331   22.5674   38.3429 H   0  0  0  0  0  0  0  0  0  0  0  0
   39.3787   24.0677   38.2651 H   0  0  0  0  0  0  0  0  0  0  0  0
   38.5206   22.2283   35.8836 H   0  0  0  0  0  0  0  0  0  0  0  0
  1  8  1  0
  2  3  2  0
  3  4  1  0
  3  1  1  0
  5  4  2  0
  6  5  1  0
  7  6  2  0
  7  2  1  0
  9 13  1  0
  9 10  1  0
 10 11  1  0
 11 12  1  0
 13  8  1  0
 13 12  1  0
  1 14  1  0
  1 15  1  0
  2 16  1  0
  4 17  1  0
  6 18  1  0
  9 19  1  0
 10 20  1  0
 10 21  1  0
 11 22  1  0
 11 23  1  0
 12 24  1  0
 12 25  1  0
 13 26  1  6
M  ISO  8  14   8  15   8  16  14  17  14  18  14  19   5  20  13  21  13
M  ISO  5  22  13  23  13  24  13  25  13  26  13
M  END
>  <minimizedAffinity>  (1) 
-3.48833466

>  <minimizedRMSD>  (1) 
5.57839584

$$$$
