
     RDKit          3D

 37 39  0  0  1  0  0  0  0  0999 V2000
   40.0490   23.9090   35.4560 N   0  0  0  0  0  0  0  0  0  0  0  0
   41.0140   22.9320   35.8650 C   0  0  0  0  0  0  0  0  0  0  0  0
   40.2790   22.0460   36.8670 C   0  0  0  0  0  0  0  0  0  0  0  0
   39.3910   23.1420   37.5050 C   0  0  0  0  0  0  0  0  0  0  0  0
   38.8750   23.7580   36.2200 C   0  0  2  0  0  0  0  0  0  0  0  0
   37.9030   22.7640   35.7670 N   0  0  0  0  0  0  0  0  0  0  0  0
   38.0930   22.4750   34.4460 C   0  0  0  0  0  0  0  0  0  0  0  0
   37.2370   21.5370   33.8630 C   0  0  0  0  0  0  0  0  0  0  0  0
   36.2350   20.9130   34.5710 C   0  0  0  0  0  0  0  0  0  0  0  0
   35.3730   19.9590   33.9570 N   0  0  0  0  0  0  0  0  0  0  0  0
   36.1370   21.2680   35.8530 N   0  0  0  0  0  0  0  0  0  0  0  0
   36.9440   22.1680   36.4460 C   0  0  0  0  0  0  0  0  0  0  0  0
   36.8620   22.5080   37.6460 O   0  0  0  0  0  0  0  0  0  0  0  0
   38.1590   24.9090   36.3080 O   0  0  0  0  0  0  0  0  0  0  0  0
   38.8500   25.8450   35.5640 C   0  0  0  0  0  0  0  0  0  0  0  0
   37.7010   26.0030   33.4020 C   0  0  0  0  0  0  0  0  0  0  0  0
   37.9050   26.5510   34.6900 C   0  0  0  0  0  0  0  0  0  0  0  0
   37.2530   27.7040   35.0150 C   0  0  0  0  0  0  0  0  0  0  0  0
   36.4250   28.2860   34.0750 N   0  0  0  0  0  0  0  0  0  0  0  0
   36.2630   27.7310   32.8690 C   0  0  0  0  0  0  0  0  0  0  0  0
   36.8800   26.5890   32.4850 N   0  0  0  0  0  0  0  0  0  0  0  0
   40.4339   24.8533   35.6009 H   0  0  0  0  0  0  0  0  0  0  0  0
   41.3544   22.3402   35.0025 H   0  0  0  0  0  0  0  0  0  0  0  0
   41.9106   23.3950   36.3029 H   0  0  0  0  0  0  0  0  0  0  0  0
   39.6852   21.2621   36.3741 H   0  0  0  0  0  0  0  0  0  0  0  0
   40.9107   21.4702   37.5594 H   0  0  0  0  0  0  0  0  0  0  0  0
   38.5828   22.7196   38.1200 H   0  0  0  0  0  0  0  0  0  0  0  0
   39.8921   23.8267   38.2050 H   0  0  0  0  0  0  0  0  0  0  0  0
   38.8890   22.9617   33.8634 H   0  0  0  0  0  0  0  0  0  0  0  0
   37.3687   21.2882   32.7996 H   0  0  0  0  0  0  0  0  0  0  0  0
   34.6305   19.5058   34.5085 H   0  0  0  0  0  0  0  0  0  0  0  0
   35.4924   19.7226   32.9616 H   0  0  0  0  0  0  0  0  0  0  0  0
   39.3380   26.5647   36.2377 H   0  0  0  0  0  0  0  0  0  0  0  0
   39.6171   25.3440   34.9552 H   0  0  0  0  0  0  0  0  0  0  0  0
   38.2222   25.0729   33.1313 H   0  0  0  0  0  0  0  0  0  0  0  0
   37.3840   28.1617   36.0067 H   0  0  0  0  0  0  0  0  0  0  0  0
   35.5935   28.2284   32.1518 H   0  0  0  0  0  0  0  0  0  0  0  0
  1  2  1  0
  1  5  1  0
  2  3  1  0
  3  4  1  0
  5 14  1  1
  5  4  1  0
  6  5  1  0
  6 12  1  0
  7  6  1  0
  8  7  2  0
  8  9  1  0
  9 11  2  0
 10  9  1  0
 11 12  1  0
 12 13  2  0
 15 14  1  0
 16 17  2  0
 17 18  1  0
 17 15  1  0
 19 18  2  0
 20 19  1  0
 21 20  2  0
 21 16  1  0
  1 22  1  0
  2 23  1  0
  2 24  1  0
  3 25  1  0
  3 26  1  0
  4 27  1  0
  4 28  1  0
  7 29  1  0
  8 30  1  0
 10 31  1  0
 10 32  1  0
 15 33  1  0
 15 34  1  0
 16 35  1  0
 18 36  1  0
 20 37  1  0
M  ISO  8  22   5  23  13  24  13  25  13  26  13  27  13  28  13  29  14
M  ISO  6  30  14  33   8  34   8  35  14  36  14  37  14
M  END
>  <minimizedAffinity>  (1) 
-4.59208965

>  <minimizedRMSD>  (1) 
1.29573071

$$$$
