
     RDKit          3D

 33 35  0  0  1  0  0  0  0  0999 V2000
   39.8090   23.9620   35.9050 N   0  0  0  0  0  0  0  0  0  0  0  0
   40.7210   22.9880   36.4450 C   0  0  0  0  0  0  0  0  0  0  0  0
   40.0210   22.2800   37.5790 C   0  0  0  0  0  0  0  0  0  0  0  0
   39.0460   23.3820   38.0130 C   0  0  0  0  0  0  0  0  0  0  0  0
   38.5980   23.8710   36.6470 C   0  0  2  0  0  0  0  0  0  0  0  0
   37.7200   22.7530   36.1420 C   0  0  0  0  0  0  0  0  0  0  0  0
   37.6390   22.1170   34.9300 C   0  0  0  0  0  0  0  0  0  0  0  0
   36.6880   21.1910   35.0190 N   0  0  0  0  0  0  0  0  0  0  0  0
   36.1450   21.2010   36.2420 C   0  0  0  0  0  0  0  0  0  0  0  0
   36.7810   22.1610   36.9280 N   0  0  0  0  0  0  0  0  0  0  0  0
   37.8640   25.0060   36.5740 O   0  0  0  0  0  0  0  0  0  0  0  0
   38.6090   25.8920   35.8190 C   0  0  0  0  0  0  0  0  0  0  0  0
   37.5480   25.7440   33.6060 C   0  0  0  0  0  0  0  0  0  0  0  0
   37.7470   26.4920   34.7880 C   0  0  0  0  0  0  0  0  0  0  0  0
   37.1850   27.7250   34.8860 C   0  0  0  0  0  0  0  0  0  0  0  0
   36.4400   28.2060   33.8280 N   0  0  0  0  0  0  0  0  0  0  0  0
   36.2730   27.4690   32.7240 C   0  0  0  0  0  0  0  0  0  0  0  0
   36.8060   26.2360   32.5680 N   0  0  0  0  0  0  0  0  0  0  0  0
   40.2082   24.9070   35.9977 H   0  0  0  0  0  0  0  0  0  0  0  0
   40.9988   22.2630   35.6658 H   0  0  0  0  0  0  0  0  0  0  0  0
   41.6376   23.4780   36.8052 H   0  0  0  0  0  0  0  0  0  0  0  0
   39.4926   21.3788   37.2345 H   0  0  0  0  0  0  0  0  0  0  0  0
   40.6835   21.9058   38.3734 H   0  0  0  0  0  0  0  0  0  0  0  0
   38.2074   22.9801   38.6005 H   0  0  0  0  0  0  0  0  0  0  0  0
   39.4735   24.1538   38.6700 H   0  0  0  0  0  0  0  0  0  0  0  0
   38.2513   22.3338   34.0422 H   0  0  0  0  0  0  0  0  0  0  0  0
   35.3378   20.5511   36.6108 H   0  0  0  0  0  0  0  0  0  0  0  0
   36.5869   22.4136   37.9075 H   0  0  0  0  0  0  0  0  0  0  0  0
   39.0101   26.6832   36.4695 H   0  0  0  0  0  0  0  0  0  0  0  0
   39.4431   25.3589   35.3394 H   0  0  0  0  0  0  0  0  0  0  0  0
   37.9995   24.7447   33.5189 H   0  0  0  0  0  0  0  0  0  0  0  0
   37.3215   28.3305   35.7941 H   0  0  0  0  0  0  0  0  0  0  0  0
   35.6724   27.8867   31.9025 H   0  0  0  0  0  0  0  0  0  0  0  0
  1  2  1  0
  1  5  1  0
  2  3  1  0
  3  4  1  0
  5 11  1  1
  5  4  1  0
  6  5  1  0
  6 10  1  0
  7  8  1  0
  7  6  2  0
  8  9  2  0
  9 10  1  0
 12 11  1  0
 13 14  2  0
 14 15  1  0
 14 12  1  0
 16 15  2  0
 17 16  1  0
 18 17  2  0
 18 13  1  0
  1 19  1  0
  2 20  1  0
  2 21  1  0
  3 22  1  0
  3 23  1  0
  4 24  1  0
  4 25  1  0
  7 26  1  0
  9 27  1  0
 10 28  1  0
 12 29  1  0
 12 30  1  0
 13 31  1  0
 15 32  1  0
 17 33  1  0
M  ISO  8  19   5  20  13  21  13  22  13  23  13  24  13  25  13  26  14
M  ISO  7  27  14  28   9  29   8  30   8  31  14  32  14  33  14
M  END
>  <minimizedAffinity>  (1) 
-4.39867735

>  <minimizedRMSD>  (1) 
1.15402758

$$$$
