
     RDKit          3D

 31 33  0  0  1  0  0  0  0  0999 V2000
   39.7650   23.9420   35.8480 N   0  0  0  0  0  0  0  0  0  0  0  0
   40.7370   23.0420   36.4370 C   0  0  0  0  0  0  0  0  0  0  0  0
   39.9970   22.2680   37.5180 C   0  0  0  0  0  0  0  0  0  0  0  0
   39.0150   23.3670   37.9670 C   0  0  0  0  0  0  0  0  0  0  0  0
   38.5760   23.8450   36.5870 C   0  0  2  0  0  0  0  0  0  0  0  0
   37.6950   22.7420   36.0260 C   0  0  0  0  0  0  0  0  0  0  0  0
   37.6690   22.1490   34.8190 N   0  0  0  0  0  0  0  0  0  0  0  0
   36.7360   21.2470   34.7930 O   0  0  0  0  0  0  0  0  0  0  0  0
   36.1220   21.2070   35.9490 C   0  0  0  0  0  0  0  0  0  0  0  0
   36.7010   22.1290   36.7350 N   0  0  0  0  0  0  0  0  0  0  0  0
   37.8200   24.9720   36.5310 O   0  0  0  0  0  0  0  0  0  0  0  0
   38.5710   25.8920   35.8200 C   0  0  0  0  0  0  0  0  0  0  0  0
   37.5270   25.7660   33.5980 C   0  0  0  0  0  0  0  0  0  0  0  0
   37.7240   26.5070   34.7860 C   0  0  0  0  0  0  0  0  0  0  0  0
   37.1630   27.7410   34.8830 C   0  0  0  0  0  0  0  0  0  0  0  0
   36.4260   28.2220   33.8220 N   0  0  0  0  0  0  0  0  0  0  0  0
   36.2630   27.4920   32.7160 C   0  0  0  0  0  0  0  0  0  0  0  0
   36.7920   26.2680   32.5620 N   0  0  0  0  0  0  0  0  0  0  0  0
   40.1190   24.9086   35.8818 H   0  0  0  0  0  0  0  0  0  0  0  0
   41.1294   22.3525   35.6750 H   0  0  0  0  0  0  0  0  0  0  0  0
   41.5934   23.5929   36.8530 H   0  0  0  0  0  0  0  0  0  0  0  0
   39.4753   21.3885   37.1125 H   0  0  0  0  0  0  0  0  0  0  0  0
   40.6276   21.8420   38.3123 H   0  0  0  0  0  0  0  0  0  0  0  0
   38.1767   22.9614   38.5525 H   0  0  0  0  0  0  0  0  0  0  0  0
   39.4290   24.1382   38.6333 H   0  0  0  0  0  0  0  0  0  0  0  0
   35.2891   20.5433   36.2242 H   0  0  0  0  0  0  0  0  0  0  0  0
   38.9431   26.6703   36.5025 H   0  0  0  0  0  0  0  0  0  0  0  0
   39.4261   25.3868   35.3471 H   0  0  0  0  0  0  0  0  0  0  0  0
   37.9746   24.7654   33.5063 H   0  0  0  0  0  0  0  0  0  0  0  0
   37.2947   28.3456   35.7925 H   0  0  0  0  0  0  0  0  0  0  0  0
   35.6675   27.9133   31.8927 H   0  0  0  0  0  0  0  0  0  0  0  0
  1  2  1  0
  1  5  1  0
  2  3  1  0
  3  4  1  0
  5 11  1  1
  5  4  1  0
  6  5  1  0
  6 10  1  0
  7  6  2  0
  8  7  1  0
  8  9  1  0
  9 10  2  0
 12 11  1  0
 13 14  2  0
 14 15  1  0
 14 12  1  0
 16 15  2  0
 17 16  1  0
 18 17  2  0
 18 13  1  0
  1 19  1  0
  2 20  1  0
  2 21  1  0
  3 22  1  0
  3 23  1  0
  4 24  1  0
  4 25  1  0
  9 26  1  0
 12 27  1  0
 12 28  1  0
 13 29  1  0
 15 30  1  0
 17 31  1  0
M  ISO  8  19   5  20  13  21  13  22  13  23  13  24  13  25  13  26  14
M  ISO  5  27   8  28   8  29  14  30  14  31  14
M  END
>  <minimizedAffinity>  (1) 
-4.18256903

>  <minimizedRMSD>  (1) 
0.972091734

$$$$
