
     RDKit          3D

 27 28  0  0  1  0  0  0  0  0999 V2000
   40.0350   23.5240   35.7880 N   0  0  0  0  0  0  0  0  0  0  0  0
   41.1500   22.9540   36.5060 C   0  0  0  0  0  0  0  0  0  0  0  0
   40.5560   22.2280   37.7080 C   0  0  0  0  0  0  0  0  0  0  0  0
   39.3330   23.1380   37.9560 C   0  0  0  0  0  0  0  0  0  0  0  0
   38.8640   23.2190   36.4870 C   0  0  2  0  0  0  0  0  0  0  0  0
   38.4190   21.8850   36.2880 O   0  0  0  0  0  0  0  0  0  0  0  0
   37.8410   24.0560   36.1790 O   0  0  0  0  0  0  0  0  0  0  0  0
   38.4060   25.3180   36.0950 C   0  0  0  0  0  0  0  0  0  0  0  0
   37.6140   25.4260   33.7650 C   0  0  0  0  0  0  0  0  0  0  0  0
   37.7480   26.0700   35.0130 C   0  0  0  0  0  0  0  0  0  0  0  0
   37.3080   27.3520   35.1250 C   0  0  0  0  0  0  0  0  0  0  0  0
   36.7520   27.9680   34.0270 N   0  0  0  0  0  0  0  0  0  0  0  0
   36.6440   27.3220   32.8630 C   0  0  0  0  0  0  0  0  0  0  0  0
   37.0590   26.0590   32.6900 N   0  0  0  0  0  0  0  0  0  0  0  0
   39.9895   23.1239   34.8400 H   0  0  0  0  0  0  0  0  0  0  0  0
   41.6950   22.2462   35.8642 H   0  0  0  0  0  0  0  0  0  0  0  0
   41.8638   23.7301   36.8193 H   0  0  0  0  0  0  0  0  0  0  0  0
   40.2607   21.1971   37.4632 H   0  0  0  0  0  0  0  0  0  0  0  0
   41.2325   22.0988   38.5657 H   0  0  0  0  0  0  0  0  0  0  0  0
   38.5849   22.6692   38.6122 H   0  0  0  0  0  0  0  0  0  0  0  0
   39.5234   24.0932   38.4672 H   0  0  0  0  0  0  0  0  0  0  0  0
   38.2742   21.4510   37.1659 H   0  0  0  0  0  0  0  0  0  0  0  0
   38.2672   25.8479   37.0489 H   0  0  0  0  0  0  0  0  0  0  0  0
   39.4817   25.2289   35.8831 H   0  0  0  0  0  0  0  0  0  0  0  0
   37.9650   24.3893   33.6553 H   0  0  0  0  0  0  0  0  0  0  0  0
   37.3954   27.8896   36.0807 H   0  0  0  0  0  0  0  0  0  0  0  0
   36.1947   27.8495   32.0086 H   0  0  0  0  0  0  0  0  0  0  0  0
  1  5  1  0
  1  2  1  0
  2  3  1  0
  3  4  1  0
  5  7  1  1
  5  4  1  0
  6  5  1  0
  8  7  1  0
  9 10  2  0
 10 11  1  0
 10  8  1  0
 12 11  2  0
 13 12  1  0
 14 13  2  0
 14  9  1  0
  1 15  1  0
  2 16  1  0
  2 17  1  0
  3 18  1  0
  3 19  1  0
  4 20  1  0
  4 21  1  0
  6 22  1  0
  8 23  1  0
  8 24  1  0
  9 25  1  0
 11 26  1  0
 13 27  1  0
M  ISO  8  15   5  16  13  17  13  18  13  19  13  20  13  21  13  22   3
M  ISO  5  23   8  24   8  25  14  26  14  27  14
M  END
>  <minimizedAffinity>  (1) 
-4.00312948

>  <minimizedRMSD>  (1) 
0.139885753

$$$$
