
     RDKit          3D

 35 36  0  0  1  0  0  0  0  0999 V2000
   40.3240   23.8240   35.7620 N   0  0  0  0  0  0  0  0  0  0  0  0
   41.3790   23.1650   36.4910 C   0  0  0  0  0  0  0  0  0  0  0  0
   40.7310   22.2820   37.5290 C   0  0  0  0  0  0  0  0  0  0  0  0
   39.3930   22.9800   37.6970 C   0  0  0  0  0  0  0  0  0  0  0  0
   39.0960   23.3390   36.2420 C   0  0  2  0  0  0  0  0  0  0  0  0
   38.6280   22.0060   35.6110 C   0  0  0  0  0  0  0  0  0  0  0  0
   38.7510   22.1090   34.0920 C   0  0  0  0  0  0  0  0  0  0  0  0
   37.1390   21.9330   35.8710 C   0  0  0  0  0  0  0  0  0  0  0  0
   38.0570   24.1850   36.0240 O   0  0  0  0  0  0  0  0  0  0  0  0
   38.5960   25.4260   35.8000 C   0  0  0  0  0  0  0  0  0  0  0  0
   37.5620   25.6180   33.6560 C   0  0  0  0  0  0  0  0  0  0  0  0
   37.8480   26.2280   34.9030 C   0  0  0  0  0  0  0  0  0  0  0  0
   37.3910   27.4880   35.0760 C   0  0  0  0  0  0  0  0  0  0  0  0
   36.6830   28.1040   34.0490 N   0  0  0  0  0  0  0  0  0  0  0  0
   36.4420   27.4800   32.8920 C   0  0  0  0  0  0  0  0  0  0  0  0
   36.8640   26.2090   32.6270 N   0  0  0  0  0  0  0  0  0  0  0  0
   40.4123   23.6180   34.7567 H   0  0  0  0  0  0  0  0  0  0  0  0
   41.9853   22.5552   35.8050 H   0  0  0  0  0  0  0  0  0  0  0  0
   42.0393   23.9037   36.9688 H   0  0  0  0  0  0  0  0  0  0  0  0
   40.6076   21.2515   37.1645 H   0  0  0  0  0  0  0  0  0  0  0  0
   41.3081   22.1714   38.4589 H   0  0  0  0  0  0  0  0  0  0  0  0
   38.6307   22.3060   38.1149 H   0  0  0  0  0  0  0  0  0  0  0  0
   39.3994   23.8324   38.3923 H   0  0  0  0  0  0  0  0  0  0  0  0
   39.2058   21.1592   36.0099 H   0  0  0  0  0  0  0  0  0  0  0  0
   39.5713   22.7959   33.8363 H   0  0  0  0  0  0  0  0  0  0  0  0
   38.9618   21.1141   33.6729 H   0  0  0  0  0  0  0  0  0  0  0  0
   37.8085   22.4912   33.6729 H   0  0  0  0  0  0  0  0  0  0  0  0
   36.9562   21.9240   36.9557 H   0  0  0  0  0  0  0  0  0  0  0  0
   36.6453   22.8080   35.4232 H   0  0  0  0  0  0  0  0  0  0  0  0
   36.7332   21.0139   35.4232 H   0  0  0  0  0  0  0  0  0  0  0  0
   38.6609   25.9534   36.7631 H   0  0  0  0  0  0  0  0  0  0  0  0
   39.5806   25.2653   35.3365 H   0  0  0  0  0  0  0  0  0  0  0  0
   37.9262   24.5921   33.4980 H   0  0  0  0  0  0  0  0  0  0  0  0
   37.5771   28.0214   36.0198 H   0  0  0  0  0  0  0  0  0  0  0  0
   35.8764   28.0163   32.1158 H   0  0  0  0  0  0  0  0  0  0  0  0
  1  5  1  0
  1  2  1  0
  2  3  1  0
  3  4  1  0
  5  6  1  0
  5  4  1  0
  6  8  1  0
  7  6  1  0
  5  9  1  1
 10  9  1  0
 11 12  2  0
 12 13  1  0
 12 10  1  0
 14 13  2  0
 15 14  1  0
 16 15  2  0
 16 11  1  0
  1 17  1  0
  2 18  1  0
  2 19  1  0
  3 20  1  0
  3 21  1  0
  4 22  1  0
  4 23  1  0
  6 24  1  0
  7 25  1  0
  7 26  1  0
  7 27  1  0
  8 28  1  0
  8 29  1  0
  8 30  1  0
 10 31  1  0
 10 32  1  0
 11 33  1  0
 13 34  1  0
 15 35  1  0
M  ISO  8  17   5  18  13  19  13  20  13  21  13  22  13  23  13  24   8
M  ISO  8  25   8  26   8  27   8  28   8  29   8  30   8  31   8  32   8
M  ISO  3  33  14  34  14  35  14
M  END
>  <minimizedAffinity>  (1) 
-3.89690018

>  <minimizedRMSD>  (1) 
0.560266435

$$$$
