
     RDKit          3D

 46 49  0  0  1  0  0  0  0  0999 V2000
   39.9250   27.4850   31.8990 C   0  0  0  0  0  0  0  0  0  0  0  0
   41.2170   27.1640   31.1740 C   0  0  1  0  0  0  0  0  0  0  0  0
   41.7340   28.2980   30.3660 C   0  0  0  0  0  0  0  0  0  0  0  0
   42.8410   29.0730   30.9970 C   0  0  0  0  0  0  0  0  0  0  0  0
   43.8140   28.2910   31.7990 C   0  0  0  0  0  0  0  0  0  0  0  0
   43.1040   27.4350   32.8130 C   0  0  0  0  0  0  0  0  0  0  0  0
   42.2010   26.5010   32.0810 C   0  0  2  0  0  0  0  0  0  0  0  0
   42.9810   25.4300   31.3650 C   0  0  0  0  0  0  0  0  0  0  0  0
   42.6500   24.9030   30.1810 N   0  0  0  0  0  0  0  0  0  0  0  0
   43.5020   23.9980   29.7990 O   0  0  0  0  0  0  0  0  0  0  0  0
   44.4270   23.9120   30.7430 C   0  0  0  0  0  0  0  0  0  0  0  0
   44.1120   24.7910   31.7120 N   0  0  0  0  0  0  0  0  0  0  0  0
   38.4770   24.5900   33.7880 N   0  0  0  0  0  0  0  0  0  0  0  0
   39.1820   25.7060   33.5630 C   0  0  0  0  0  0  0  0  0  0  0  0
   39.1820   26.2490   32.2780 C   0  0  0  0  0  0  0  0  0  0  0  0
   38.4510   25.6090   31.2820 C   0  0  0  0  0  0  0  0  0  0  0  0
   38.3910   26.0210   30.1010 O   0  0  0  0  0  0  0  0  0  0  0  0
   37.7510   24.4810   31.5520 N   0  0  0  0  0  0  0  0  0  0  0  0
   37.7840   24.0000   32.8050 C   0  0  0  0  0  0  0  0  0  0  0  0
   37.1370   22.9550   33.0600 O   0  0  0  0  0  0  0  0  0  0  0  0
   37.8130   24.7980   36.1020 C   0  0  0  0  0  0  0  0  0  0  0  0
   38.5420   24.1240   35.1160 C   0  0  0  0  0  0  0  0  0  0  0  0
   39.2830   23.0330   35.5180 C   0  0  0  0  0  0  0  0  0  0  0  0
   39.2800   22.6570   36.8400 N   0  0  0  0  0  0  0  0  0  0  0  0
   38.5610   23.3340   37.7590 C   0  0  0  0  0  0  0  0  0  0  0  0
   37.8380   24.3970   37.3750 N   0  0  0  0  0  0  0  0  0  0  0  0
   38.7090   22.7690   39.0510 N   0  0  0  0  0  0  0  0  0  0  0  0
   39.2892   28.0951   31.2406 H   0  0  0  0  0  0  0  0  0  0  0  0
   40.1761   28.0298   32.8210 H   0  0  0  0  0  0  0  0  0  0  0  0
   40.9973   26.4092   30.4046 H   0  0  0  0  0  0  0  0  0  0  0  0
   40.8996   28.9892   30.1761 H   0  0  0  0  0  0  0  0  0  0  0  0
   42.1538   27.8551   29.4508 H   0  0  0  0  0  0  0  0  0  0  0  0
   43.3974   29.5781   30.1937 H   0  0  0  0  0  0  0  0  0  0  0  0
   42.3539   29.7555   31.7090 H   0  0  0  0  0  0  0  0  0  0  0  0
   44.3985   27.6450   31.1274 H   0  0  0  0  0  0  0  0  0  0  0  0
   44.4768   28.9903   32.3297 H   0  0  0  0  0  0  0  0  0  0  0  0
   43.8391   26.8617   33.3969 H   0  0  0  0  0  0  0  0  0  0  0  0
   42.5225   28.0646   33.5025 H   0  0  0  0  0  0  0  0  0  0  0  0
   41.5880   26.0272   32.8618 H   0  0  0  0  0  0  0  0  0  0  0  0
   45.2985   23.2408   30.7361 H   0  0  0  0  0  0  0  0  0  0  0  0
   39.7494   26.1847   34.3747 H   0  0  0  0  0  0  0  0  0  0  0  0
   37.2087   24.0057   30.8166 H   0  0  0  0  0  0  0  0  0  0  0  0
   37.2086   25.6738   35.8232 H   0  0  0  0  0  0  0  0  0  0  0  0
   39.8741   22.4659   34.7838 H   0  0  0  0  0  0  0  0  0  0  0  0
   38.2156   23.1841   39.8542 H   0  0  0  0  0  0  0  0  0  0  0  0
   39.3100   21.9435   39.1863 H   0  0  0  0  0  0  0  0  0  0  0  0
  1 15  1  0
  2  1  1  0
  2  7  1  0
  3  4  1  0
  3  2  1  0
  4  5  1  0
  5  6  1  0
  7  6  1  0
  8 12  1  0
  8  7  1  0
  9  8  2  0
 10  9  1  0
 10 11  1  0
 11 12  2  0
 13 22  1  0
 14 13  1  0
 15 14  2  0
 16 18  1  0
 16 15  1  0
 17 16  2  0
 18 19  1  0
 19 20  2  0
 19 13  1  0
 21 26  2  0
 22 23  2  0
 22 21  1  0
 23 24  1  0
 24 25  2  0
 25 27  1  0
 26 25  1  0
  1 28  1  0
  1 29  1  0
  2 30  1  6
  3 31  1  0
  3 32  1  0
  4 33  1  0
  4 34  1  0
  5 35  1  0
  5 36  1  0
  6 37  1  0
  6 38  1  0
  7 39  1  1
 11 40  1  0
 14 41  1  0
 18 42  1  0
 21 43  1  0
 23 44  1  0
 27 45  1  0
 27 46  1  0
M  ISO  8  28   8  29   8  30  13  31  13  32  13  33  13  34  13  35  13
M  ISO  8  36  13  37  13  38  13  39  13  40  14  41  14  42   9  43  14
M  ISO  1  44  14
M  END
>  <minimizedAffinity>  (1) 
-4.4296279

>  <minimizedRMSD>  (1) 
0.44056502

$$$$
