
     RDKit          3D

 33 35  0  0  1  0  0  0  0  0999 V2000
   37.2270   23.4420   37.0540 N   0  0  0  0  0  0  0  0  0  0  0  0
   37.8240   23.3050   38.3670 C   0  0  0  0  0  0  0  0  0  0  0  0
   39.3100   23.5390   38.1890 C   0  0  0  0  0  0  0  0  0  0  0  0
   39.4880   23.0340   36.7420 C   0  0  0  0  0  0  0  0  0  0  0  0
   38.2520   23.6780   36.1240 C   0  0  2  0  0  0  0  0  0  0  0  0
   38.5670   25.1600   36.0430 C   0  0  0  0  0  0  0  0  0  0  0  0
   39.5480   25.5240   35.1190 C   0  0  0  0  0  0  0  0  0  0  0  0
   39.7200   26.9080   35.1710 C   0  0  0  0  0  0  0  0  0  0  0  0
   38.8490   27.3290   36.1110 N   0  0  0  0  0  0  0  0  0  0  0  0
   38.1830   26.3120   36.6140 N   0  0  0  0  0  0  0  0  0  0  0  0
   37.9160   23.3090   34.8610 O   0  0  0  0  0  0  0  0  0  0  0  0
   37.6670   21.9490   34.9210 C   0  0  0  0  0  0  0  0  0  0  0  0
   37.0490   22.1890   32.5540 C   0  0  0  0  0  0  0  0  0  0  0  0
   36.8010   21.5640   33.7950 C   0  0  0  0  0  0  0  0  0  0  0  0
   35.7600   20.6920   33.8860 C   0  0  0  0  0  0  0  0  0  0  0  0
   34.9920   20.4530   32.7680 N   0  0  0  0  0  0  0  0  0  0  0  0
   35.2580   21.0640   31.6100 C   0  0  0  0  0  0  0  0  0  0  0  0
   36.2720   21.9330   31.4620 N   0  0  0  0  0  0  0  0  0  0  0  0
   36.7261   22.5764   36.8075 H   0  0  0  0  0  0  0  0  0  0  0  0
   37.4016   24.0508   39.0565 H   0  0  0  0  0  0  0  0  0  0  0  0
   37.6256   22.3104   38.7929 H   0  0  0  0  0  0  0  0  0  0  0  0
   39.5702   24.6035   38.2850 H   0  0  0  0  0  0  0  0  0  0  0  0
   39.9499   23.0447   38.9347 H   0  0  0  0  0  0  0  0  0  0  0  0
   40.4189   23.4022   36.2861 H   0  0  0  0  0  0  0  0  0  0  0  0
   39.5682   21.9434   36.6232 H   0  0  0  0  0  0  0  0  0  0  0  0
   40.0948   24.8343   34.4592 H   0  0  0  0  0  0  0  0  0  0  0  0
   40.4134   27.5208   34.5762 H   0  0  0  0  0  0  0  0  0  0  0  0
   38.7228   28.3108   36.3956 H   0  0  0  0  0  0  0  0  0  0  0  0
   38.6172   21.3982   34.8591 H   0  0  0  0  0  0  0  0  0  0  0  0
   37.1671   21.7070   35.8705 H   0  0  0  0  0  0  0  0  0  0  0  0
   37.8860   22.8972   32.4654 H   0  0  0  0  0  0  0  0  0  0  0  0
   35.5357   20.1864   34.8368 H   0  0  0  0  0  0  0  0  0  0  0  0
   34.6198   20.8464   30.7409 H   0  0  0  0  0  0  0  0  0  0  0  0
  1  2  1  0
  3  2  1  0
  4  3  1  0
  5 11  1  6
  5  4  1  0
  5  1  1  0
  6  5  1  0
  6 10  2  0
  7  8  2  0
  7  6  1  0
  8  9  1  0
  9 10  1  0
 11 12  1  0
 13 14  2  0
 14 15  1  0
 14 12  1  0
 16 15  2  0
 17 16  1  0
 18 17  2  0
 18 13  1  0
  1 19  1  0
  2 20  1  0
  2 21  1  0
  3 22  1  0
  3 23  1  0
  4 24  1  0
  4 25  1  0
  7 26  1  0
  8 27  1  0
  9 28  1  0
 12 29  1  0
 12 30  1  0
 13 31  1  0
 15 32  1  0
 17 33  1  0
M  ISO  8  19   5  20  13  21  13  22  13  23  13  24  13  25  13  26  14
M  ISO  7  27  14  28   9  29   8  30   8  31  14  32  14  33  14
M  END
>  <minimizedAffinity>  (1) 
-4.82868719

>  <minimizedRMSD>  (1) 
4.92426777

$$$$
