
     RDKit          3D

 48 51  0  0  1  0  0  0  0  0999 V2000
   37.2440   23.4530   37.0040 N   0  0  0  0  0  0  0  0  0  0  0  0
   37.8110   23.3110   38.3290 C   0  0  0  0  0  0  0  0  0  0  0  0
   39.2980   23.5580   38.1880 C   0  0  0  0  0  0  0  0  0  0  0  0
   39.5220   23.0560   36.7350 C   0  0  0  0  0  0  0  0  0  0  0  0
   38.3210   23.6830   36.0920 C   0  0  2  0  0  0  0  0  0  0  0  0
   38.5960   25.1750   36.0340 C   0  0  0  0  0  0  0  0  0  0  0  0
   39.5610   25.5560   35.1050 C   0  0  0  0  0  0  0  0  0  0  0  0
   39.7060   26.9520   35.1730 C   0  0  0  0  0  0  0  0  0  0  0  0
   38.8390   27.3570   36.1220 N   0  0  0  0  0  0  0  0  0  0  0  0
   38.2040   26.3270   36.6130 N   0  0  0  0  0  0  0  0  0  0  0  0
   37.9330   23.3470   34.8410 O   0  0  0  0  0  0  0  0  0  0  0  0
   37.3480   22.0870   34.9690 C   0  0  0  0  0  0  0  0  0  0  0  0
   38.8740   21.3660   33.1690 C   0  0  0  0  0  0  0  0  0  0  0  0
   37.5730   21.3470   33.7410 C   0  0  0  0  0  0  0  0  0  0  0  0
   36.5690   20.6970   33.0570 C   0  0  0  0  0  0  0  0  0  0  0  0
   36.8510   20.0910   31.8420 N   0  0  0  0  0  0  0  0  0  0  0  0
   38.1140   20.1570   31.3670 C   0  0  0  0  0  0  0  0  0  0  0  0
   39.1400   20.7640   31.9690 N   0  0  0  0  0  0  0  0  0  0  0  0
   38.3200   19.5110   30.1100 N   0  0  0  0  0  0  0  0  0  0  0  0
   37.7730   18.1870   29.8580 C   0  0  0  0  0  0  0  0  0  0  0  0
   36.6980   18.4840   28.8040 C   0  0  0  0  0  0  0  0  0  0  0  0
   37.3280   18.9830   27.5570 C   0  0  0  0  0  0  0  0  0  0  0  0
   38.6390   19.6660   27.6690 C   0  0  0  0  0  0  0  0  0  0  0  0
   39.0620   20.0970   29.0260 C   0  0  0  0  0  0  0  0  0  0  0  0
   36.7416   22.5924   36.7435 H   0  0  0  0  0  0  0  0  0  0  0  0
   37.3664   24.0482   39.0138 H   0  0  0  0  0  0  0  0  0  0  0  0
   37.6109   22.3116   38.7427 H   0  0  0  0  0  0  0  0  0  0  0  0
   39.5459   24.6245   38.2936 H   0  0  0  0  0  0  0  0  0  0  0  0
   39.9222   23.0656   38.9482 H   0  0  0  0  0  0  0  0  0  0  0  0
   40.4636   23.4315   36.3079 H   0  0  0  0  0  0  0  0  0  0  0  0
   39.6117   21.9661   36.6160 H   0  0  0  0  0  0  0  0  0  0  0  0
   40.1136   24.8814   34.4345 H   0  0  0  0  0  0  0  0  0  0  0  0
   40.3839   27.5812   34.5775 H   0  0  0  0  0  0  0  0  0  0  0  0
   38.6982   28.3340   36.4163 H   0  0  0  0  0  0  0  0  0  0  0  0
   37.8039   21.5505   35.8142 H   0  0  0  0  0  0  0  0  0  0  0  0
   36.2686   22.1901   35.1541 H   0  0  0  0  0  0  0  0  0  0  0  0
   39.6876   21.8774   33.7043 H   0  0  0  0  0  0  0  0  0  0  0  0
   35.5509   20.6590   33.4718 H   0  0  0  0  0  0  0  0  0  0  0  0
   38.5412   17.5049   29.4648 H   0  0  0  0  0  0  0  0  0  0  0  0
   37.3865   17.6870   30.7584 H   0  0  0  0  0  0  0  0  0  0  0  0
   36.1391   17.5622   28.5852 H   0  0  0  0  0  0  0  0  0  0  0  0
   36.0152   19.2532   29.1942 H   0  0  0  0  0  0  0  0  0  0  0  0
   36.6261   19.6941   27.0969 H   0  0  0  0  0  0  0  0  0  0  0  0
   37.5380   18.0760   26.9712 H   0  0  0  0  0  0  0  0  0  0  0  0
   39.4059   18.9767   27.2859 H   0  0  0  0  0  0  0  0  0  0  0  0
   38.5248   20.5982   27.0963 H   0  0  0  0  0  0  0  0  0  0  0  0
   40.1213   19.8295   29.1540 H   0  0  0  0  0  0  0  0  0  0  0  0
   38.8751   21.1798   29.0762 H   0  0  0  0  0  0  0  0  0  0  0  0
  1  2  1  0
  3  2  1  0
  4  3  1  0
  5 11  1  6
  5  4  1  0
  5  1  1  0
  6  5  1  0
  6 10  2  0
  7  8  2  0
  7  6  1  0
  8  9  1  0
  9 10  1  0
 11 12  1  0
 13 14  2  0
 14 12  1  0
 15 14  1  0
 16 15  2  0
 17 16  1  0
 17 18  2  0
 18 13  1  0
 19 17  1  0
 20 19  1  0
 21 20  1  0
 22 23  1  0
 22 21  1  0
 23 24  1  0
 24 19  1  0
  1 25  1  0
  2 26  1  0
  2 27  1  0
  3 28  1  0
  3 29  1  0
  4 30  1  0
  4 31  1  0
  7 32  1  0
  8 33  1  0
  9 34  1  0
 12 35  1  0
 12 36  1  0
 13 37  1  0
 15 38  1  0
 20 39  1  0
 20 40  1  0
 21 41  1  0
 21 42  1  0
 22 43  1  0
 22 44  1  0
 23 45  1  0
 23 46  1  0
 24 47  1  0
 24 48  1  0
M  ISO  8  25   5  26  13  27  13  28  13  29  13  30  13  31  13  32  14
M  ISO  8  33  14  34   9  35   8  36   8  37  14  38  14  39  13  40  13
M  ISO  8  41  13  42  13  43  13  44  13  45  13  46  13  47  13  48  13
M  END
>  <minimizedAffinity>  (1) 
-4.98399115

>  <minimizedRMSD>  (1) 
2.84217215

$$$$
