
     RDKit          3D

 36 38  0  0  1  0  0  0  0  0999 V2000
   37.2530   23.5020   37.0090 N   0  0  0  0  0  0  0  0  0  0  0  0
   37.8700   23.3160   38.3050 C   0  0  0  0  0  0  0  0  0  0  0  0
   39.3390   23.6060   38.1210 C   0  0  0  0  0  0  0  0  0  0  0  0
   39.5270   23.1840   36.6370 C   0  0  0  0  0  0  0  0  0  0  0  0
   38.2810   23.8080   36.0720 C   0  0  2  0  0  0  0  0  0  0  0  0
   38.5210   25.3070   36.0760 C   0  0  0  0  0  0  0  0  0  0  0  0
   39.4260   25.7650   35.1240 C   0  0  0  0  0  0  0  0  0  0  0  0
   39.5400   27.1600   35.2590 C   0  0  0  0  0  0  0  0  0  0  0  0
   38.7120   27.4860   36.2710 N   0  0  0  0  0  0  0  0  0  0  0  0
   38.1220   26.4110   36.7440 N   0  0  0  0  0  0  0  0  0  0  0  0
   37.8650   23.5200   34.8160 O   0  0  0  0  0  0  0  0  0  0  0  0
   38.7480   22.5360   34.3710 C   0  0  0  0  0  0  0  0  0  0  0  0
   38.5150   20.7850   32.6240 C   0  0  0  0  0  0  0  0  0  0  0  0
   37.9300   21.5070   33.6690 C   0  0  0  0  0  0  0  0  0  0  0  0
   36.6180   21.2840   34.0170 C   0  0  0  0  0  0  0  0  0  0  0  0
   35.9190   20.3460   33.3130 N   0  0  0  0  0  0  0  0  0  0  0  0
   36.5020   19.6690   32.3160 C   0  0  0  0  0  0  0  0  0  0  0  0
   37.7800   19.8600   31.9510 N   0  0  0  0  0  0  0  0  0  0  0  0
   35.7880   18.6600   31.5420 C   0  0  0  0  0  0  0  0  0  0  0  0
   36.2240   18.0580   30.5490 O   0  0  0  0  0  0  0  0  0  0  0  0
   34.4990   18.2410   31.8340 O   0  0  0  0  0  0  0  0  0  0  0  0
   36.7676   22.6388   36.7258 H   0  0  0  0  0  0  0  0  0  0  0  0
   37.4336   24.0108   39.0377 H   0  0  0  0  0  0  0  0  0  0  0  0
   37.7084   22.2952   38.6816 H   0  0  0  0  0  0  0  0  0  0  0  0
   39.5645   24.6720   38.2718 H   0  0  0  0  0  0  0  0  0  0  0  0
   40.0008   23.0896   38.8319 H   0  0  0  0  0  0  0  0  0  0  0  0
   40.4407   23.6100   36.1969 H   0  0  0  0  0  0  0  0  0  0  0  0
   39.6465   22.1054   36.4572 H   0  0  0  0  0  0  0  0  0  0  0  0
   39.9607   25.1427   34.3913 H   0  0  0  0  0  0  0  0  0  0  0  0
   40.1698   27.8393   34.6659 H   0  0  0  0  0  0  0  0  0  0  0  0
   38.5627   28.4421   36.6238 H   0  0  0  0  0  0  0  0  0  0  0  0
   39.4830   22.9722   33.6785 H   0  0  0  0  0  0  0  0  0  0  0  0
   39.3010   22.0931   35.2124 H   0  0  0  0  0  0  0  0  0  0  0  0
   39.5645   20.9645   32.3478 H   0  0  0  0  0  0  0  0  0  0  0  0
   36.1463   21.8444   34.8376 H   0  0  0  0  0  0  0  0  0  0  0  0
   34.0635   17.5515   31.2727 H   0  0  0  0  0  0  0  0  0  0  0  0
  1  2  1  0
  3  2  1  0
  4  3  1  0
  5 11  1  6
  5  6  1  0
  5  4  1  0
  5  1  1  0
  6 10  2  0
  7  8  2  0
  7  6  1  0
  8  9  1  0
  9 10  1  0
 12 11  1  0
 13 14  2  0
 14 15  1  0
 14 12  1  0
 16 15  2  0
 17 16  1  0
 18 17  2  0
 18 13  1  0
 19 21  1  0
 19 17  1  0
 20 19  2  0
  1 22  1  0
  2 23  1  0
  2 24  1  0
  3 25  1  0
  3 26  1  0
  4 27  1  0
  4 28  1  0
  7 29  1  0
  8 30  1  0
  9 31  1  0
 12 32  1  0
 12 33  1  0
 13 34  1  0
 15 35  1  0
 21 36  1  0
M  ISO  8  22   5  23  13  24  13  25  13  26  13  27  13  28  13  29  14
M  ISO  7  30  14  31   9  32   8  33   8  34  14  35  14  36   3
M  END
>  <minimizedAffinity>  (1) 
-4.91103888

>  <minimizedRMSD>  (1) 
1.52606785

$$$$
