
     RDKit          3D

 46 49  0  0  1  0  0  0  0  0999 V2000
   37.2600   23.4430   37.1430 N   0  0  0  0  0  0  0  0  0  0  0  0
   37.8450   23.3430   38.4670 C   0  0  0  0  0  0  0  0  0  0  0  0
   39.3320   23.5970   38.2940 C   0  0  0  0  0  0  0  0  0  0  0  0
   39.5320   23.0250   36.8620 C   0  0  0  0  0  0  0  0  0  0  0  0
   38.3180   23.6340   36.2130 C   0  0  2  0  0  0  0  0  0  0  0  0
   38.6170   25.1230   36.0840 C   0  0  0  0  0  0  0  0  0  0  0  0
   39.5950   25.4550   35.1530 C   0  0  0  0  0  0  0  0  0  0  0  0
   39.7470   26.8530   35.1610 C   0  0  0  0  0  0  0  0  0  0  0  0
   38.8610   27.3020   36.0890 N   0  0  0  0  0  0  0  0  0  0  0  0
   38.2110   26.2980   36.6180 N   0  0  0  0  0  0  0  0  0  0  0  0
   37.9330   23.2490   34.9750 O   0  0  0  0  0  0  0  0  0  0  0  0
   37.3910   21.9850   35.1350 C   0  0  0  0  0  0  0  0  0  0  0  0
   38.3350   21.3660   32.9520 C   0  0  0  0  0  0  0  0  0  0  0  0
   37.2110   21.3730   33.8220 C   0  0  0  0  0  0  0  0  0  0  0  0
   36.0240   20.8450   33.3850 C   0  0  0  0  0  0  0  0  0  0  0  0
   35.9720   20.3330   32.1170 N   0  0  0  0  0  0  0  0  0  0  0  0
   37.0520   20.3380   31.3120 C   0  0  0  0  0  0  0  0  0  0  0  0
   38.2370   20.8450   31.7000 N   0  0  0  0  0  0  0  0  0  0  0  0
   36.9480   19.7640   29.9270 C   0  0  0  0  0  0  0  0  0  0  0  0
   38.2500   19.8590   29.1950 C   0  0  0  0  0  0  0  0  0  0  0  0
   38.6450   18.4260   28.8450 C   0  0  0  0  0  0  0  0  0  0  0  0
   37.9940   17.6640   30.0030 C   0  0  0  0  0  0  0  0  0  0  0  0
   36.6170   18.2920   30.0350 C   0  0  0  0  0  0  0  0  0  0  0  0
   36.7492   22.5770   36.9194 H   0  0  0  0  0  0  0  0  0  0  0  0
   37.4048   24.0969   39.1362 H   0  0  0  0  0  0  0  0  0  0  0  0
   37.6566   22.3561   38.9147 H   0  0  0  0  0  0  0  0  0  0  0  0
   39.5726   24.6692   38.3437 H   0  0  0  0  0  0  0  0  0  0  0  0
   39.9739   23.1505   39.0677 H   0  0  0  0  0  0  0  0  0  0  0  0
   40.4682   23.3745   36.4021 H   0  0  0  0  0  0  0  0  0  0  0  0
   39.6164   21.9306   36.7900 H   0  0  0  0  0  0  0  0  0  0  0  0
   40.1522   24.7479   34.5209 H   0  0  0  0  0  0  0  0  0  0  0  0
   40.4349   27.4540   34.5481 H   0  0  0  0  0  0  0  0  0  0  0  0
   38.7216   28.2913   36.3396 H   0  0  0  0  0  0  0  0  0  0  0  0
   38.0707   21.3666   35.7396 H   0  0  0  0  0  0  0  0  0  0  0  0
   36.4194   22.0602   35.6453 H   0  0  0  0  0  0  0  0  0  0  0  0
   39.2923   21.7857   33.2946 H   0  0  0  0  0  0  0  0  0  0  0  0
   35.1373   20.8331   34.0359 H   0  0  0  0  0  0  0  0  0  0  0  0
   36.1752   20.3302   29.3864 H   0  0  0  0  0  0  0  0  0  0  0  0
   38.1303   20.4565   28.2792 H   0  0  0  0  0  0  0  0  0  0  0  0
   39.0205   20.3498   29.8077 H   0  0  0  0  0  0  0  0  0  0  0  0
   38.2323   18.1172   27.8732 H   0  0  0  0  0  0  0  0  0  0  0  0
   39.7277   18.2623   28.7408 H   0  0  0  0  0  0  0  0  0  0  0  0
   37.9398   16.5852   29.7951 H   0  0  0  0  0  0  0  0  0  0  0  0
   38.5432   17.7343   30.9535 H   0  0  0  0  0  0  0  0  0  0  0  0
   36.0953   18.0665   30.9768 H   0  0  0  0  0  0  0  0  0  0  0  0
   35.9418   17.9274   29.2469 H   0  0  0  0  0  0  0  0  0  0  0  0
  1  2  1  0
  3  2  1  0
  4  3  1  0
  5 11  1  6
  5  4  1  0
  5  1  1  0
  6  5  1  0
  6 10  2  0
  7  8  2  0
  7  6  1  0
  8  9  1  0
  9 10  1  0
 11 12  1  0
 13 14  2  0
 14 12  1  0
 15 14  1  0
 16 15  2  0
 17 18  2  0
 17 16  1  0
 18 13  1  0
 19 23  1  0
 19 17  1  0
 20 19  1  0
 21 20  1  0
 21 22  1  0
 22 23  1  0
  1 24  1  0
  2 25  1  0
  2 26  1  0
  3 27  1  0
  3 28  1  0
  4 29  1  0
  4 30  1  0
  7 31  1  0
  8 32  1  0
  9 33  1  0
 12 34  1  0
 12 35  1  0
 13 36  1  0
 15 37  1  0
 19 38  1  0
 20 39  1  0
 20 40  1  0
 21 41  1  0
 21 42  1  0
 22 43  1  0
 22 44  1  0
 23 45  1  0
 23 46  1  0
M  ISO  8  24   5  25  13  26  13  27  13  28  13  29  13  30  13  31  14
M  ISO  8  32  14  33   9  34   8  35   8  36  14  37  14  38  13  39  13
M  ISO  7  40  13  41  13  42  13  43  13  44  13  45  13  46  13
M  END
>  <minimizedAffinity>  (1) 
-4.90418482

>  <minimizedRMSD>  (1) 
1.63976586

$$$$
