
     RDKit          3D

 45 48  0  0  1  0  0  0  0  0999 V2000
   37.2920   23.4130   37.0040 N   0  0  0  0  0  0  0  0  0  0  0  0
   37.8280   23.3040   38.3480 C   0  0  0  0  0  0  0  0  0  0  0  0
   39.3160   23.5760   38.2290 C   0  0  0  0  0  0  0  0  0  0  0  0
   39.5720   23.0210   36.7990 C   0  0  0  0  0  0  0  0  0  0  0  0
   38.3770   23.6250   36.1150 C   0  0  2  0  0  0  0  0  0  0  0  0
   38.6650   25.1200   36.0130 C   0  0  0  0  0  0  0  0  0  0  0  0
   39.6750   25.4710   35.1220 C   0  0  0  0  0  0  0  0  0  0  0  0
   39.8130   26.8700   35.1510 C   0  0  0  0  0  0  0  0  0  0  0  0
   38.8890   27.3000   36.0480 N   0  0  0  0  0  0  0  0  0  0  0  0
   38.2280   26.2820   36.5440 N   0  0  0  0  0  0  0  0  0  0  0  0
   38.0370   23.2510   34.8580 O   0  0  0  0  0  0  0  0  0  0  0  0
   37.1470   22.2000   35.0180 C   0  0  0  0  0  0  0  0  0  0  0  0
   38.4210   21.2620   33.1480 C   0  0  0  0  0  0  0  0  0  0  0  0
   37.1990   21.3500   33.8310 C   0  0  0  0  0  0  0  0  0  0  0  0
   36.1260   20.6720   33.3380 C   0  0  0  0  0  0  0  0  0  0  0  0
   36.2880   19.9320   32.1910 N   0  0  0  0  0  0  0  0  0  0  0  0
   37.4770   19.8720   31.5620 C   0  0  0  0  0  0  0  0  0  0  0  0
   38.5700   20.5290   32.0190 N   0  0  0  0  0  0  0  0  0  0  0  0
   37.5850   19.0890   30.3770 N   0  0  0  0  0  0  0  0  0  0  0  0
   38.6660   18.1660   30.0680 C   0  0  0  0  0  0  0  0  0  0  0  0
   38.9300   18.5380   28.6240 C   0  0  0  0  0  0  0  0  0  0  0  0
   37.6350   19.1270   28.1050 C   0  0  0  0  0  0  0  0  0  0  0  0
   36.6570   19.0540   29.2600 C   0  0  0  0  0  0  0  0  0  0  0  0
   36.7990   22.5442   36.7528 H   0  0  0  0  0  0  0  0  0  0  0  0
   37.3557   24.0456   39.0090 H   0  0  0  0  0  0  0  0  0  0  0  0
   37.6335   22.3111   38.7797 H   0  0  0  0  0  0  0  0  0  0  0  0
   39.5424   24.6503   38.2976 H   0  0  0  0  0  0  0  0  0  0  0  0
   39.9358   23.1286   39.0200 H   0  0  0  0  0  0  0  0  0  0  0  0
   40.5203   23.3840   36.3761 H   0  0  0  0  0  0  0  0  0  0  0  0
   39.6696   21.9283   36.7186 H   0  0  0  0  0  0  0  0  0  0  0  0
   40.2621   24.7760   34.5037 H   0  0  0  0  0  0  0  0  0  0  0  0
   40.5180   27.4841   34.5715 H   0  0  0  0  0  0  0  0  0  0  0  0
   38.7299   28.2853   36.3026 H   0  0  0  0  0  0  0  0  0  0  0  0
   37.4254   21.6124   35.9052 H   0  0  0  0  0  0  0  0  0  0  0  0
   36.1279   22.5920   35.1509 H   0  0  0  0  0  0  0  0  0  0  0  0
   39.2899   21.8082   33.5438 H   0  0  0  0  0  0  0  0  0  0  0  0
   35.1514   20.7155   33.8462 H   0  0  0  0  0  0  0  0  0  0  0  0
   39.5471   18.3433   30.7022 H   0  0  0  0  0  0  0  0  0  0  0  0
   38.4294   17.1049   30.2357 H   0  0  0  0  0  0  0  0  0  0  0  0
   39.7400   19.2796   28.5617 H   0  0  0  0  0  0  0  0  0  0  0  0
   39.2430   17.6651   28.0323 H   0  0  0  0  0  0  0  0  0  0  0  0
   37.7859   20.1719   27.7962 H   0  0  0  0  0  0  0  0  0  0  0  0
   37.2648   18.5798   27.2255 H   0  0  0  0  0  0  0  0  0  0  0  0
   35.9724   19.9149   29.2706 H   0  0  0  0  0  0  0  0  0  0  0  0
   35.9837   18.1843   29.2434 H   0  0  0  0  0  0  0  0  0  0  0  0
  1  2  1  0
  3  2  1  0
  4  3  1  0
  5 11  1  6
  5  4  1  0
  5  1  1  0
  6  5  1  0
  6 10  2  0
  7  8  2  0
  7  6  1  0
  8  9  1  0
  9 10  1  0
 11 12  1  0
 13 14  2  0
 14 12  1  0
 15 14  1  0
 16 15  2  0
 17 18  2  0
 17 16  1  0
 18 13  1  0
 19 17  1  0
 20 19  1  0
 21 20  1  0
 22 21  1  0
 22 23  1  0
 23 19  1  0
  1 24  1  0
  2 25  1  0
  2 26  1  0
  3 27  1  0
  3 28  1  0
  4 29  1  0
  4 30  1  0
  7 31  1  0
  8 32  1  0
  9 33  1  0
 12 34  1  0
 12 35  1  0
 13 36  1  0
 15 37  1  0
 20 38  1  0
 20 39  1  0
 21 40  1  0
 21 41  1  0
 22 42  1  0
 22 43  1  0
 23 44  1  0
 23 45  1  0
M  ISO  8  24   5  25  13  26  13  27  13  28  13  29  13  30  13  31  14
M  ISO  8  32  14  33   9  34   8  35   8  36  14  37  14  38  13  39  13
M  ISO  6  40  13  41  13  42  13  43  13  44  13  45  13
M  END
>  <minimizedAffinity>  (1) 
-4.80591583

>  <minimizedRMSD>  (1) 
2.41338181

$$$$
