
     RDKit          3D

 36 38  0  0  1  0  0  0  0  0999 V2000
   37.2570   23.4580   37.0970 N   0  0  0  0  0  0  0  0  0  0  0  0
   37.8630   23.3340   38.4090 C   0  0  0  0  0  0  0  0  0  0  0  0
   39.3490   23.5720   38.2180 C   0  0  0  0  0  0  0  0  0  0  0  0
   39.5220   23.0300   36.7700 C   0  0  0  0  0  0  0  0  0  0  0  0
   38.3010   23.6550   36.1520 C   0  0  2  0  0  0  0  0  0  0  0  0
   38.6050   25.1430   36.0490 C   0  0  0  0  0  0  0  0  0  0  0  0
   39.5860   25.4850   35.1190 C   0  0  0  0  0  0  0  0  0  0  0  0
   39.7470   26.8820   35.1520 C   0  0  0  0  0  0  0  0  0  0  0  0
   38.8660   27.3210   36.0880 N   0  0  0  0  0  0  0  0  0  0  0  0
   38.2080   26.3090   36.6040 N   0  0  0  0  0  0  0  0  0  0  0  0
   37.8910   23.2950   34.9150 O   0  0  0  0  0  0  0  0  0  0  0  0
   37.3870   22.0100   35.0570 C   0  0  0  0  0  0  0  0  0  0  0  0
   38.5450   21.2930   33.0120 C   0  0  0  0  0  0  0  0  0  0  0  0
   37.3430   21.3710   33.7470 C   0  0  0  0  0  0  0  0  0  0  0  0
   36.1880   20.8840   33.1920 C   0  0  0  0  0  0  0  0  0  0  0  0
   36.2530   20.3370   31.9290 N   0  0  0  0  0  0  0  0  0  0  0  0
   37.4180   20.2800   31.2570 C   0  0  0  0  0  0  0  0  0  0  0  0
   38.5810   20.7470   31.7700 N   0  0  0  0  0  0  0  0  0  0  0  0
   37.4800   19.6830   29.8850 C   0  0  0  0  0  0  0  0  0  0  0  0
   38.0830   18.4360   30.0560 F   0  0  0  0  0  0  0  0  0  0  0  0
   38.3360   20.4370   29.0960 F   0  0  0  0  0  0  0  0  0  0  0  0
   36.2240   19.5750   29.3450 F   0  0  0  0  0  0  0  0  0  0  0  0
   36.7359   22.5992   36.8693 H   0  0  0  0  0  0  0  0  0  0  0  0
   37.4425   24.0842   39.0948 H   0  0  0  0  0  0  0  0  0  0  0  0
   37.6705   22.3428   38.8454 H   0  0  0  0  0  0  0  0  0  0  0  0
   39.6043   24.6397   38.2881 H   0  0  0  0  0  0  0  0  0  0  0  0
   39.9959   23.0989   38.9715 H   0  0  0  0  0  0  0  0  0  0  0  0
   40.4518   23.3859   36.3023 H   0  0  0  0  0  0  0  0  0  0  0  0
   39.5999   21.9369   36.6747 H   0  0  0  0  0  0  0  0  0  0  0  0
   40.1370   24.7855   34.4732 H   0  0  0  0  0  0  0  0  0  0  0  0
   40.4383   27.4890   34.5489 H   0  0  0  0  0  0  0  0  0  0  0  0
   38.7332   28.3069   36.3548 H   0  0  0  0  0  0  0  0  0  0  0  0
   38.0376   21.4306   35.7285 H   0  0  0  0  0  0  0  0  0  0  0  0
   36.3743   22.0526   35.4844 H   0  0  0  0  0  0  0  0  0  0  0  0
   39.4730   21.6832   33.4553 H   0  0  0  0  0  0  0  0  0  0  0  0
   35.2353   20.9287   33.7400 H   0  0  0  0  0  0  0  0  0  0  0  0
  1  2  1  0
  3  2  1  0
  4  3  1  0
  5 11  1  6
  5  4  1  0
  5  1  1  0
  6  5  1  0
  6 10  2  0
  7  8  2  0
  7  6  1  0
  8  9  1  0
  9 10  1  0
 11 12  1  0
 13 14  2  0
 14 12  1  0
 15 14  1  0
 16 15  2  0
 17 18  2  0
 17 16  1  0
 18 13  1  0
 19 20  1  0
 19 17  1  0
 21 19  1  0
 22 19  1  0
  1 23  1  0
  2 24  1  0
  2 25  1  0
  3 26  1  0
  3 27  1  0
  4 28  1  0
  4 29  1  0
  7 30  1  0
  8 31  1  0
  9 32  1  0
 12 33  1  0
 12 34  1  0
 13 35  1  0
 15 36  1  0
M  ISO  8  23   5  24  13  25  13  26  13  27  13  28  13  29  13  30  14
M  ISO  6  31  14  32   9  33   8  34   8  35  14  36  14
M  END
>  <minimizedAffinity>  (1) 
-4.7724576

>  <minimizedRMSD>  (1) 
1.78935242

$$$$
