
     RDKit          3D

 48 51  0  0  1  0  0  0  0  0999 V2000
   39.9550   27.4610   31.8870 C   0  0  0  0  0  0  0  0  0  0  0  0
   41.2690   27.1250   31.1720 C   0  0  1  0  0  0  0  0  0  0  0  0
   41.7660   28.2930   30.3780 C   0  0  0  0  0  0  0  0  0  0  0  0
   42.8670   29.0710   31.0170 C   0  0  0  0  0  0  0  0  0  0  0  0
   43.8480   28.2650   31.8060 C   0  0  0  0  0  0  0  0  0  0  0  0
   43.1050   27.4600   32.8460 C   0  0  0  0  0  0  0  0  0  0  0  0
   42.2300   26.4890   32.1050 C   0  0  2  0  0  0  0  0  0  0  0  0
   43.0900   25.4940   31.4910 N   0  0  0  0  0  0  0  0  0  0  0  0
   44.2250   24.9150   31.8710 C   0  0  0  0  0  0  0  0  0  0  0  0
   44.6080   24.0350   30.8890 C   0  0  0  0  0  0  0  0  0  0  0  0
   43.6850   24.1090   29.9360 N   0  0  0  0  0  0  0  0  0  0  0  0
   42.7430   24.9980   30.2840 C   0  0  0  0  0  0  0  0  0  0  0  0
   38.4970   24.5870   33.8010 N   0  0  0  0  0  0  0  0  0  0  0  0
   39.2040   25.7000   33.5710 C   0  0  0  0  0  0  0  0  0  0  0  0
   39.2180   26.2350   32.2930 C   0  0  0  0  0  0  0  0  0  0  0  0
   38.4930   25.5970   31.2830 C   0  0  0  0  0  0  0  0  0  0  0  0
   38.4300   25.9890   30.0870 O   0  0  0  0  0  0  0  0  0  0  0  0
   37.7830   24.4660   31.5520 N   0  0  0  0  0  0  0  0  0  0  0  0
   37.8090   23.9970   32.8000 C   0  0  0  0  0  0  0  0  0  0  0  0
   37.1550   22.9520   33.0540 O   0  0  0  0  0  0  0  0  0  0  0  0
   37.8150   24.8020   36.1050 C   0  0  0  0  0  0  0  0  0  0  0  0
   38.5480   24.1280   35.1210 C   0  0  0  0  0  0  0  0  0  0  0  0
   39.2950   23.0240   35.5240 C   0  0  0  0  0  0  0  0  0  0  0  0
   39.2740   22.6590   36.8480 N   0  0  0  0  0  0  0  0  0  0  0  0
   38.5570   23.3330   37.7590 C   0  0  0  0  0  0  0  0  0  0  0  0
   37.8270   24.4090   37.3720 N   0  0  0  0  0  0  0  0  0  0  0  0
   38.7020   22.7600   39.0510 N   0  0  0  0  0  0  0  0  0  0  0  0
   39.3205   28.0494   31.2079 H   0  0  0  0  0  0  0  0  0  0  0  0
   40.1966   28.0314   32.7960 H   0  0  0  0  0  0  0  0  0  0  0  0
   41.1024   26.3527   30.4066 H   0  0  0  0  0  0  0  0  0  0  0  0
   40.9198   28.9754   30.2099 H   0  0  0  0  0  0  0  0  0  0  0  0
   42.1844   27.8763   29.4499 H   0  0  0  0  0  0  0  0  0  0  0  0
   43.4189   29.5936   30.2219 H   0  0  0  0  0  0  0  0  0  0  0  0
   42.3821   29.7470   31.7366 H   0  0  0  0  0  0  0  0  0  0  0  0
   44.3914   27.5852   31.1333 H   0  0  0  0  0  0  0  0  0  0  0  0
   44.5656   28.9361   32.3006 H   0  0  0  0  0  0  0  0  0  0  0  0
   43.8178   26.9163   33.4834 H   0  0  0  0  0  0  0  0  0  0  0  0
   42.5044   28.1146   33.4947 H   0  0  0  0  0  0  0  0  0  0  0  0
   41.5573   25.9914   32.8190 H   0  0  0  0  0  0  0  0  0  0  0  0
   44.7642   25.1077   32.8102 H   0  0  0  0  0  0  0  0  0  0  0  0
   45.5026   23.3949   30.8909 H   0  0  0  0  0  0  0  0  0  0  0  0
   41.8543   25.2717   29.6963 H   0  0  0  0  0  0  0  0  0  0  0  0
   39.7655   26.1827   34.3844 H   0  0  0  0  0  0  0  0  0  0  0  0
   37.2438   23.9887   30.8156 H   0  0  0  0  0  0  0  0  0  0  0  0
   37.2145   25.6787   35.8207 H   0  0  0  0  0  0  0  0  0  0  0  0
   39.8909   22.4547   34.7954 H   0  0  0  0  0  0  0  0  0  0  0  0
   38.2081   23.1720   39.8555 H   0  0  0  0  0  0  0  0  0  0  0  0
   39.3011   21.9326   39.1832 H   0  0  0  0  0  0  0  0  0  0  0  0
  1 15  1  0
  2  1  1  0
  2  7  1  0
  3  4  1  0
  3  2  1  0
  4  5  1  0
  5  6  1  0
  7  6  1  0
  8  9  1  0
  8  7  1  0
 10  9  2  0
 11 12  2  0
 11 10  1  0
 12  8  1  0
 13 22  1  0
 14 13  1  0
 15 14  2  0
 16 18  1  0
 16 15  1  0
 17 16  2  0
 18 19  1  0
 19 20  2  0
 19 13  1  0
 21 26  2  0
 22 23  2  0
 22 21  1  0
 23 24  1  0
 24 25  2  0
 25 27  1  0
 26 25  1  0
  1 28  1  0
  1 29  1  0
  2 30  1  6
  3 31  1  0
  3 32  1  0
  4 33  1  0
  4 34  1  0
  5 35  1  0
  5 36  1  0
  6 37  1  0
  6 38  1  0
  7 39  1  1
  9 40  1  0
 10 41  1  0
 12 42  1  0
 14 43  1  0
 18 44  1  0
 21 45  1  0
 23 46  1  0
 27 47  1  0
 27 48  1  0
M  ISO  8  28   8  29   8  30  13  31  13  32  13  33  13  34  13  35  13
M  ISO  8  36  13  37  13  38  13  39  13  40  14  41  14  42  14  43  14
M  ISO  3  44   9  45  14  46  14
M  END
>  <minimizedAffinity>  (1) 
-4.42501974

>  <minimizedRMSD>  (1) 
0.436587721

$$$$
