
     RDKit          3D

 48 51  0  0  1  0  0  0  0  0999 V2000
   39.9140   27.4860   31.8930 C   0  0  0  0  0  0  0  0  0  0  0  0
   41.2200   27.1530   31.1740 C   0  0  1  0  0  0  0  0  0  0  0  0
   41.7240   28.3030   30.3700 C   0  0  0  0  0  0  0  0  0  0  0  0
   42.8450   29.0580   30.9830 C   0  0  0  0  0  0  0  0  0  0  0  0
   43.8080   28.2950   31.8100 C   0  0  0  0  0  0  0  0  0  0  0  0
   43.1000   27.4310   32.8060 C   0  0  0  0  0  0  0  0  0  0  0  0
   42.1920   26.5030   32.0810 C   0  0  2  0  0  0  0  0  0  0  0  0
   42.8980   25.3420   31.4400 C   0  0  0  0  0  0  0  0  0  0  0  0
   42.5650   24.6580   30.2950 C   0  0  0  0  0  0  0  0  0  0  0  0
   43.4570   23.6780   30.0460 N   0  0  0  0  0  0  0  0  0  0  0  0
   44.3660   23.7140   31.0130 C   0  0  0  0  0  0  0  0  0  0  0  0
   44.0350   24.6940   31.8340 N   0  0  0  0  0  0  0  0  0  0  0  0
   38.4840   24.6010   33.8030 N   0  0  0  0  0  0  0  0  0  0  0  0
   39.1780   25.7220   33.5720 C   0  0  0  0  0  0  0  0  0  0  0  0
   39.1770   26.2530   32.2810 C   0  0  0  0  0  0  0  0  0  0  0  0
   38.4590   25.6080   31.2830 C   0  0  0  0  0  0  0  0  0  0  0  0
   38.3900   25.9980   30.0980 O   0  0  0  0  0  0  0  0  0  0  0  0
   37.7620   24.4660   31.5570 N   0  0  0  0  0  0  0  0  0  0  0  0
   37.7920   23.9910   32.8070 C   0  0  0  0  0  0  0  0  0  0  0  0
   37.1540   22.9440   33.0610 O   0  0  0  0  0  0  0  0  0  0  0  0
   37.8070   24.8030   36.1050 C   0  0  0  0  0  0  0  0  0  0  0  0
   38.5440   24.1330   35.1210 C   0  0  0  0  0  0  0  0  0  0  0  0
   39.2980   23.0330   35.5220 C   0  0  0  0  0  0  0  0  0  0  0  0
   39.2810   22.6650   36.8420 N   0  0  0  0  0  0  0  0  0  0  0  0
   38.5600   23.3320   37.7560 C   0  0  0  0  0  0  0  0  0  0  0  0
   37.8350   24.3910   37.3710 N   0  0  0  0  0  0  0  0  0  0  0  0
   38.7010   22.7630   39.0530 N   0  0  0  0  0  0  0  0  0  0  0  0
   39.2800   28.0859   31.2236 H   0  0  0  0  0  0  0  0  0  0  0  0
   40.1563   28.0464   32.8080 H   0  0  0  0  0  0  0  0  0  0  0  0
   41.0243   26.3836   30.4126 H   0  0  0  0  0  0  0  0  0  0  0  0
   40.8885   29.0012   30.2135 H   0  0  0  0  0  0  0  0  0  0  0  0
   42.1182   27.8743   29.4368 H   0  0  0  0  0  0  0  0  0  0  0  0
   43.4117   29.5286   30.1661 H   0  0  0  0  0  0  0  0  0  0  0  0
   42.3642   29.7569   31.6833 H   0  0  0  0  0  0  0  0  0  0  0  0
   44.4195   27.6586   31.1534 H   0  0  0  0  0  0  0  0  0  0  0  0
   44.4410   29.0097   32.3564 H   0  0  0  0  0  0  0  0  0  0  0  0
   43.8368   26.8516   33.3817 H   0  0  0  0  0  0  0  0  0  0  0  0
   42.5170   28.0591   33.4957 H   0  0  0  0  0  0  0  0  0  0  0  0
   41.5739   26.0792   32.8862 H   0  0  0  0  0  0  0  0  0  0  0  0
   41.6896   24.8801   29.6671 H   0  0  0  0  0  0  0  0  0  0  0  0
   45.2363   23.0487   31.1123 H   0  0  0  0  0  0  0  0  0  0  0  0
   44.5732   24.9421   32.6765 H   0  0  0  0  0  0  0  0  0  0  0  0
   39.7369   26.2140   34.3817 H   0  0  0  0  0  0  0  0  0  0  0  0
   37.2274   23.9833   30.8207 H   0  0  0  0  0  0  0  0  0  0  0  0
   37.1993   25.6777   35.8298 H   0  0  0  0  0  0  0  0  0  0  0  0
   39.8970   22.4691   34.7917 H   0  0  0  0  0  0  0  0  0  0  0  0
   38.2013   23.1757   39.8535 H   0  0  0  0  0  0  0  0  0  0  0  0
   39.3028   21.9386   39.1911 H   0  0  0  0  0  0  0  0  0  0  0  0
  1 15  1  0
  2  1  1  0
  2  7  1  0
  3  4  1  0
  3  2  1  0
  4  5  1  0
  5  6  1  0
  7  6  1  0
  8 12  1  0
  8  7  1  0
  9  8  2  0
 10  9  1  0
 10 11  2  0
 11 12  1  0
 13 22  1  0
 14 13  1  0
 15 14  2  0
 16 18  1  0
 16 15  1  0
 17 16  2  0
 18 19  1  0
 19 20  2  0
 19 13  1  0
 21 26  2  0
 22 23  2  0
 22 21  1  0
 23 24  1  0
 24 25  2  0
 25 27  1  0
 26 25  1  0
  1 28  1  0
  1 29  1  0
  2 30  1  6
  3 31  1  0
  3 32  1  0
  4 33  1  0
  4 34  1  0
  5 35  1  0
  5 36  1  0
  6 37  1  0
  6 38  1  0
  7 39  1  1
  9 40  1  0
 11 41  1  0
 12 42  1  0
 14 43  1  0
 18 44  1  0
 21 45  1  0
 23 46  1  0
 27 47  1  0
 27 48  1  0
M  ISO  8  28   8  29   8  30  13  31  13  32  13  33  13  34  13  35  13
M  ISO  8  36  13  37  13  38  13  39  13  40  14  41  14  42   9  43  14
M  ISO  3  44   9  45  14  46  14
M  END
>  <minimizedAffinity>  (1) 
-4.42204189

>  <minimizedRMSD>  (1) 
0.467753351

$$$$
