
     RDKit          3D

 38 40  0  0  1  0  0  0  0  0999 V2000
   37.2140   23.4690   37.0620 N   0  0  0  0  0  0  0  0  0  0  0  0
   37.8730   23.2880   38.3470 C   0  0  0  0  0  0  0  0  0  0  0  0
   39.3490   23.4890   38.1080 C   0  0  0  0  0  0  0  0  0  0  0  0
   39.4610   22.9960   36.6370 C   0  0  0  0  0  0  0  0  0  0  0  0
   38.2270   23.6780   36.0980 C   0  0  2  0  0  0  0  0  0  0  0  0
   38.5730   25.1550   36.0160 C   0  0  0  0  0  0  0  0  0  0  0  0
   39.5430   25.5120   35.1080 C   0  0  0  0  0  0  0  0  0  0  0  0
   39.7370   26.9030   35.1640 C   0  0  0  0  0  0  0  0  0  0  0  0
   38.8750   27.3280   36.1030 N   0  0  0  0  0  0  0  0  0  0  0  0
   38.1980   26.3100   36.6000 N   0  0  0  0  0  0  0  0  0  0  0  0
   37.7690   23.3570   34.8620 O   0  0  0  0  0  0  0  0  0  0  0  0
   37.6460   21.9660   34.8690 C   0  0  0  0  0  0  0  0  0  0  0  0
   39.0370   21.8270   32.8470 C   0  0  0  0  0  0  0  0  0  0  0  0
   37.8110   21.4980   33.5030 C   0  0  0  0  0  0  0  0  0  0  0  0
   36.8720   20.7760   32.8100 C   0  0  0  0  0  0  0  0  0  0  0  0
   37.1540   20.4010   31.5150 N   0  0  0  0  0  0  0  0  0  0  0  0
   38.3070   20.7320   30.9560 C   0  0  0  0  0  0  0  0  0  0  0  0
   39.2670   21.4310   31.5610 N   0  0  0  0  0  0  0  0  0  0  0  0
   38.5740   20.3350   29.6070 N   0  0  0  0  0  0  0  0  0  0  0  0
   35.5940   20.4230   33.4670 C   0  0  0  0  0  0  0  0  0  0  0  0
   35.4450   19.0320   33.5540 F   0  0  0  0  0  0  0  0  0  0  0  0
   34.4840   20.8580   32.7670 F   0  0  0  0  0  0  0  0  0  0  0  0
   35.4800   20.8890   34.7560 F   0  0  0  0  0  0  0  0  0  0  0  0
   36.6683   22.6285   36.8238 H   0  0  0  0  0  0  0  0  0  0  0  0
   37.5018   24.0280   39.0712 H   0  0  0  0  0  0  0  0  0  0  0  0
   37.6709   22.2881   38.7585 H   0  0  0  0  0  0  0  0  0  0  0  0
   39.6371   24.5461   38.2062 H   0  0  0  0  0  0  0  0  0  0  0  0
   40.0062   22.9681   38.8199 H   0  0  0  0  0  0  0  0  0  0  0  0
   40.3806   23.3488   36.1473 H   0  0  0  0  0  0  0  0  0  0  0  0
   39.5145   21.9067   36.4936 H   0  0  0  0  0  0  0  0  0  0  0  0
   40.0809   24.8193   34.4441 H   0  0  0  0  0  0  0  0  0  0  0  0
   40.4382   27.5087   34.5712 H   0  0  0  0  0  0  0  0  0  0  0  0
   38.7590   28.3093   36.3937 H   0  0  0  0  0  0  0  0  0  0  0  0
   38.4221   21.5250   35.5118 H   0  0  0  0  0  0  0  0  0  0  0  0
   36.6616   21.6695   35.2602 H   0  0  0  0  0  0  0  0  0  0  0  0
   39.8034   22.4053   33.3838 H   0  0  0  0  0  0  0  0  0  0  0  0
   39.4684   20.5878   29.1632 H   0  0  0  0  0  0  0  0  0  0  0  0
   37.8717   19.7965   29.0800 H   0  0  0  0  0  0  0  0  0  0  0  0
  1  2  1  0
  3  2  1  0
  4  3  1  0
  5 11  1  6
  5  4  1  0
  5  1  1  0
  6  5  1  0
  6 10  2  0
  7  8  2  0
  7  6  1  0
  8  9  1  0
  9 10  1  0
 11 12  1  0
 13 14  2  0
 14 12  1  0
 15 20  1  0
 15 14  1  0
 16 15  2  0
 17 16  1  0
 17 18  2  0
 18 13  1  0
 19 17  1  0
 20 21  1  0
 20 23  1  0
 22 20  1  0
  1 24  1  0
  2 25  1  0
  2 26  1  0
  3 27  1  0
  3 28  1  0
  4 29  1  0
  4 30  1  0
  7 31  1  0
  8 32  1  0
  9 33  1  0
 12 34  1  0
 12 35  1  0
 13 36  1  0
 19 37  1  0
 19 38  1  0
M  ISO  8  24   5  25  13  26  13  27  13  28  13  29  13  30  13  31  14
M  ISO  5  32  14  33   9  34   8  35   8  36  14
M  END
>  <minimizedAffinity>  (1) 
-5.50543451

>  <minimizedRMSD>  (1) 
1.12680793

$$$$
