
     RDKit          3D

 44 46  0  0  1  0  0  0  0  0999 V2000
   37.2220   23.4650   37.0330 N   0  0  0  0  0  0  0  0  0  0  0  0
   37.8140   23.3050   38.3390 C   0  0  0  0  0  0  0  0  0  0  0  0
   39.3040   23.5280   38.1560 C   0  0  0  0  0  0  0  0  0  0  0  0
   39.4790   23.0290   36.6990 C   0  0  0  0  0  0  0  0  0  0  0  0
   38.2740   23.6860   36.0980 C   0  0  2  0  0  0  0  0  0  0  0  0
   38.5780   25.1670   36.0340 C   0  0  0  0  0  0  0  0  0  0  0  0
   39.5490   25.5400   35.1170 C   0  0  0  0  0  0  0  0  0  0  0  0
   39.7230   26.9310   35.1700 C   0  0  0  0  0  0  0  0  0  0  0  0
   38.8510   27.3520   36.1190 N   0  0  0  0  0  0  0  0  0  0  0  0
   38.1860   26.3240   36.6210 N   0  0  0  0  0  0  0  0  0  0  0  0
   37.8610   23.3640   34.8520 O   0  0  0  0  0  0  0  0  0  0  0  0
   37.6410   21.9740   34.8910 C   0  0  0  0  0  0  0  0  0  0  0  0
   39.3310   21.6400   33.1610 C   0  0  0  0  0  0  0  0  0  0  0  0
   37.9960   21.4250   33.5950 C   0  0  0  0  0  0  0  0  0  0  0  0
   37.1590   20.7340   32.7730 C   0  0  0  0  0  0  0  0  0  0  0  0
   37.6100   20.2690   31.5650 N   0  0  0  0  0  0  0  0  0  0  0  0
   38.8830   20.5020   31.2040 C   0  0  0  0  0  0  0  0  0  0  0  0
   39.7590   21.1640   31.9450 N   0  0  0  0  0  0  0  0  0  0  0  0
   39.3580   20.0240   29.9470 N   0  0  0  0  0  0  0  0  0  0  0  0
   35.7580   20.4910   33.2010 C   0  0  0  0  0  0  0  0  0  0  0  0
   34.8460   21.2800   32.2560 C   0  0  0  0  0  0  0  0  0  0  0  0
   35.4260   19.0180   32.9770 C   0  0  0  0  0  0  0  0  0  0  0  0
   36.7010   22.6137   36.7785 H   0  0  0  0  0  0  0  0  0  0  0  0
   37.4003   24.0458   39.0390 H   0  0  0  0  0  0  0  0  0  0  0  0
   37.6050   22.3086   38.7556 H   0  0  0  0  0  0  0  0  0  0  0  0
   39.5726   24.5898   38.2580 H   0  0  0  0  0  0  0  0  0  0  0  0
   39.9407   23.0220   38.8967 H   0  0  0  0  0  0  0  0  0  0  0  0
   40.4158   23.3870   36.2472 H   0  0  0  0  0  0  0  0  0  0  0  0
   39.5448   21.9385   36.5703 H   0  0  0  0  0  0  0  0  0  0  0  0
   40.0960   24.8541   34.4534 H   0  0  0  0  0  0  0  0  0  0  0  0
   40.4142   27.5445   34.5735 H   0  0  0  0  0  0  0  0  0  0  0  0
   38.7242   28.3324   36.4081 H   0  0  0  0  0  0  0  0  0  0  0  0
   38.2670   21.5192   35.6728 H   0  0  0  0  0  0  0  0  0  0  0  0
   36.5862   21.7612   35.1192 H   0  0  0  0  0  0  0  0  0  0  0  0
   40.0300   22.1935   33.8052 H   0  0  0  0  0  0  0  0  0  0  0  0
   40.3328   20.1993   29.6644 H   0  0  0  0  0  0  0  0  0  0  0  0
   38.7262   19.5035   29.3219 H   0  0  0  0  0  0  0  0  0  0  0  0
   35.6270   20.7779   34.2548 H   0  0  0  0  0  0  0  0  0  0  0  0
   34.1440   21.8873   32.8462 H   0  0  0  0  0  0  0  0  0  0  0  0
   35.4572   21.9388   31.6217 H   0  0  0  0  0  0  0  0  0  0  0  0
   34.2820   20.5803   31.6217 H   0  0  0  0  0  0  0  0  0  0  0  0
   35.3128   18.5157   33.9491 H   0  0  0  0  0  0  0  0  0  0  0  0
   34.4868   18.9359   32.4103 H   0  0  0  0  0  0  0  0  0  0  0  0
   36.2391   18.5409   32.4103 H   0  0  0  0  0  0  0  0  0  0  0  0
  1  2  1  0
  3  2  1  0
  4  3  1  0
  5 11  1  6
  5  4  1  0
  5  1  1  0
  6  5  1  0
  6 10  2  0
  7  8  2  0
  7  6  1  0
  8  9  1  0
  9 10  1  0
 11 12  1  0
 13 14  2  0
 14 12  1  0
 15 20  1  0
 15 14  1  0
 16 15  2  0
 17 16  1  0
 17 18  2  0
 18 13  1  0
 19 17  1  0
 21 20  1  0
 22 20  1  0
  1 23  1  0
  2 24  1  0
  2 25  1  0
  3 26  1  0
  3 27  1  0
  4 28  1  0
  4 29  1  0
  7 30  1  0
  8 31  1  0
  9 32  1  0
 12 33  1  0
 12 34  1  0
 13 35  1  0
 19 36  1  0
 19 37  1  0
 20 38  1  0
 21 39  1  0
 21 40  1  0
 21 41  1  0
 22 42  1  0
 22 43  1  0
 22 44  1  0
M  ISO  8  23   5  24  13  25  13  26  13  27  13  28  13  29  13  30  14
M  ISO  8  31  14  32   9  33   8  34   8  35  14  38   8  39   8  40   8
M  ISO  4  41   8  42   8  43   8  44   8
M  END
>  <minimizedAffinity>  (1) 
-5.10624886

>  <minimizedRMSD>  (1) 
1.41111052

$$$$
