
     RDKit          3D

 42 45  0  0  1  0  0  0  0  0999 V2000
   37.2370   23.4750   37.0500 N   0  0  0  0  0  0  0  0  0  0  0  0
   37.8420   23.3190   38.3610 C   0  0  0  0  0  0  0  0  0  0  0  0
   39.3260   23.5640   38.1730 C   0  0  0  0  0  0  0  0  0  0  0  0
   39.5060   23.0570   36.7110 C   0  0  0  0  0  0  0  0  0  0  0  0
   38.2890   23.7070   36.1070 C   0  0  2  0  0  0  0  0  0  0  0  0
   38.5830   25.1910   36.0430 C   0  0  0  0  0  0  0  0  0  0  0  0
   39.5350   25.5740   35.1190 C   0  0  0  0  0  0  0  0  0  0  0  0
   39.6860   26.9710   35.1870 C   0  0  0  0  0  0  0  0  0  0  0  0
   38.8290   27.3730   36.1400 N   0  0  0  0  0  0  0  0  0  0  0  0
   38.1900   26.3360   36.6340 N   0  0  0  0  0  0  0  0  0  0  0  0
   37.8650   23.3650   34.8760 O   0  0  0  0  0  0  0  0  0  0  0  0
   38.1200   21.9980   34.7510 C   0  0  0  0  0  0  0  0  0  0  0  0
   39.5780   21.8770   32.7630 C   0  0  0  0  0  0  0  0  0  0  0  0
   38.2790   21.7140   33.3280 C   0  0  0  0  0  0  0  0  0  0  0  0
   37.2440   21.3090   32.5150 C   0  0  0  0  0  0  0  0  0  0  0  0
   37.4940   21.0750   31.1840 N   0  0  0  0  0  0  0  0  0  0  0  0
   38.7390   21.2480   30.7140 C   0  0  0  0  0  0  0  0  0  0  0  0
   39.8050   21.6380   31.4360 N   0  0  0  0  0  0  0  0  0  0  0  0
   39.0120   21.0120   29.3170 N   0  0  0  0  0  0  0  0  0  0  0  0
   35.9160   21.1380   33.0780 C   0  0  0  0  0  0  0  0  0  0  0  0
   35.5740   20.4450   34.3060 C   0  0  0  0  0  0  0  0  0  0  0  0
   35.4390   19.6520   33.0560 C   0  0  0  0  0  0  0  0  0  0  0  0
   36.7226   22.6191   36.7975 H   0  0  0  0  0  0  0  0  0  0  0  0
   37.4207   24.0516   39.0652 H   0  0  0  0  0  0  0  0  0  0  0  0
   37.6500   22.3181   38.7749 H   0  0  0  0  0  0  0  0  0  0  0  0
   39.5782   24.6305   38.2683 H   0  0  0  0  0  0  0  0  0  0  0  0
   39.9725   23.0723   38.9148 H   0  0  0  0  0  0  0  0  0  0  0  0
   40.4399   23.4200   36.2570 H   0  0  0  0  0  0  0  0  0  0  0  0
   39.5808   21.9667   36.5859 H   0  0  0  0  0  0  0  0  0  0  0  0
   40.0829   24.9004   34.4437 H   0  0  0  0  0  0  0  0  0  0  0  0
   40.3613   27.5996   34.5880 H   0  0  0  0  0  0  0  0  0  0  0  0
   38.6928   28.3491   36.4393 H   0  0  0  0  0  0  0  0  0  0  0  0
   39.0410   21.7359   35.2923 H   0  0  0  0  0  0  0  0  0  0  0  0
   37.2948   21.4076   35.1759 H   0  0  0  0  0  0  0  0  0  0  0  0
   40.4108   22.2002   33.4049 H   0  0  0  0  0  0  0  0  0  0  0  0
   39.9652   21.1428   28.9493 H   0  0  0  0  0  0  0  0  0  0  0  0
   38.2537   20.7127   28.6875 H   0  0  0  0  0  0  0  0  0  0  0  0
   35.6300   22.1440   32.7371 H   0  0  0  0  0  0  0  0  0  0  0  0
   36.3709   20.1915   35.0206 H   0  0  0  0  0  0  0  0  0  0  0  0
   34.8829   20.6726   35.1309 H   0  0  0  0  0  0  0  0  0  0  0  0
   34.4447   19.3902   32.6652 H   0  0  0  0  0  0  0  0  0  0  0  0
   35.8276   18.6967   32.6734 H   0  0  0  0  0  0  0  0  0  0  0  0
  1  2  1  0
  3  2  1  0
  4  3  1  0
  5 11  1  6
  5  4  1  0
  5  1  1  0
  6  5  1  0
  6 10  2  0
  7  8  2  0
  7  6  1  0
  8  9  1  0
  9 10  1  0
 12 11  1  0
 13 14  2  0
 14 12  1  0
 15 20  1  0
 15 14  1  0
 16 15  2  0
 17 16  1  0
 17 18  2  0
 18 13  1  0
 19 17  1  0
 20 21  1  0
 22 20  1  0
 22 21  1  0
  1 23  1  0
  2 24  1  0
  2 25  1  0
  3 26  1  0
  3 27  1  0
  4 28  1  0
  4 29  1  0
  7 30  1  0
  8 31  1  0
  9 32  1  0
 12 33  1  0
 12 34  1  0
 13 35  1  0
 19 36  1  0
 19 37  1  0
 20 38  1  0
 21 39  1  0
 21 40  1  0
 22 41  1  0
 22 42  1  0
M  ISO  8  23   5  24  13  25  13  26  13  27  13  28  13  29  13  30  14
M  ISO  8  31  14  32   9  33   8  34   8  35  14  38  13  39  13  40  13
M  ISO  2  41  13  42  13
M  END
>  <minimizedAffinity>  (1) 
-5.09320927

>  <minimizedRMSD>  (1) 
1.54894173

$$$$
