
     RDKit          3D

 47 50  0  0  1  0  0  0  0  0999 V2000
   39.9440   27.4600   31.8780 C   0  0  0  0  0  0  0  0  0  0  0  0
   41.2580   27.1210   31.1840 C   0  0  1  0  0  0  0  0  0  0  0  0
   41.7640   28.2770   30.3830 C   0  0  0  0  0  0  0  0  0  0  0  0
   42.8640   29.0590   31.0270 C   0  0  0  0  0  0  0  0  0  0  0  0
   43.8460   28.2430   31.8090 C   0  0  0  0  0  0  0  0  0  0  0  0
   43.1070   27.4290   32.8480 C   0  0  0  0  0  0  0  0  0  0  0  0
   42.2170   26.4770   32.1100 C   0  0  2  0  0  0  0  0  0  0  0  0
   43.0120   25.4290   31.4690 N   0  0  0  0  0  0  0  0  0  0  0  0
   42.8250   24.9290   30.2120 C   0  0  0  0  0  0  0  0  0  0  0  0
   43.7210   23.9920   29.9460 N   0  0  0  0  0  0  0  0  0  0  0  0
   44.4930   23.8940   31.0570 C   0  0  0  0  0  0  0  0  0  0  0  0
   44.0320   24.7810   31.9540 N   0  0  0  0  0  0  0  0  0  0  0  0
   38.4910   24.5870   33.7910 N   0  0  0  0  0  0  0  0  0  0  0  0
   39.1950   25.6940   33.5580 C   0  0  0  0  0  0  0  0  0  0  0  0
   39.2070   26.2350   32.2840 C   0  0  0  0  0  0  0  0  0  0  0  0
   38.4720   25.5930   31.2790 C   0  0  0  0  0  0  0  0  0  0  0  0
   38.4070   25.9910   30.0820 O   0  0  0  0  0  0  0  0  0  0  0  0
   37.7650   24.4650   31.5510 N   0  0  0  0  0  0  0  0  0  0  0  0
   37.7910   23.9880   32.8040 C   0  0  0  0  0  0  0  0  0  0  0  0
   37.1410   22.9500   33.0570 O   0  0  0  0  0  0  0  0  0  0  0  0
   37.8190   24.8000   36.1010 C   0  0  0  0  0  0  0  0  0  0  0  0
   38.5470   24.1240   35.1160 C   0  0  0  0  0  0  0  0  0  0  0  0
   39.2950   23.0190   35.5160 C   0  0  0  0  0  0  0  0  0  0  0  0
   39.2790   22.6540   36.8390 N   0  0  0  0  0  0  0  0  0  0  0  0
   38.5680   23.3270   37.7520 C   0  0  0  0  0  0  0  0  0  0  0  0
   37.8420   24.3980   37.3710 N   0  0  0  0  0  0  0  0  0  0  0  0
   38.7070   22.7640   39.0500 N   0  0  0  0  0  0  0  0  0  0  0  0
   39.3157   28.0421   31.1878 H   0  0  0  0  0  0  0  0  0  0  0  0
   40.1735   28.0394   32.7845 H   0  0  0  0  0  0  0  0  0  0  0  0
   41.0855   26.3418   30.4270 H   0  0  0  0  0  0  0  0  0  0  0  0
   40.9215   28.9602   30.2001 H   0  0  0  0  0  0  0  0  0  0  0  0
   42.1884   27.8506   29.4621 H   0  0  0  0  0  0  0  0  0  0  0  0
   43.4143   29.5892   30.2358 H   0  0  0  0  0  0  0  0  0  0  0  0
   42.3801   29.7331   31.7491 H   0  0  0  0  0  0  0  0  0  0  0  0
   44.3858   27.5674   31.1291 H   0  0  0  0  0  0  0  0  0  0  0  0
   44.5644   28.9104   32.3074 H   0  0  0  0  0  0  0  0  0  0  0  0
   43.8229   26.8714   33.4697 H   0  0  0  0  0  0  0  0  0  0  0  0
   42.5190   28.0810   33.5107 H   0  0  0  0  0  0  0  0  0  0  0  0
   41.5690   26.0081   32.8651 H   0  0  0  0  0  0  0  0  0  0  0  0
   42.0388   25.2592   29.5171 H   0  0  0  0  0  0  0  0  0  0  0  0
   45.3436   23.2109   31.1980 H   0  0  0  0  0  0  0  0  0  0  0  0
   39.7612   26.1733   34.3702 H   0  0  0  0  0  0  0  0  0  0  0  0
   37.2239   23.9893   30.8149 H   0  0  0  0  0  0  0  0  0  0  0  0
   37.2177   25.6779   35.8223 H   0  0  0  0  0  0  0  0  0  0  0  0
   39.8876   22.4494   34.7850 H   0  0  0  0  0  0  0  0  0  0  0  0
   38.2121   23.1845   39.8495 H   0  0  0  0  0  0  0  0  0  0  0  0
   39.3026   21.9356   39.1910 H   0  0  0  0  0  0  0  0  0  0  0  0
  1 15  1  0
  2  1  1  0
  2  7  1  0
  3  4  1  0
  3  2  1  0
  4  5  1  0
  5  6  1  0
  7  6  1  0
  8 12  1  0
  8  7  1  0
  9  8  1  0
 10  9  2  0
 10 11  1  0
 11 12  2  0
 13 22  1  0
 14 13  1  0
 15 14  2  0
 16 18  1  0
 16 15  1  0
 17 16  2  0
 18 19  1  0
 19 20  2  0
 19 13  1  0
 21 26  2  0
 22 23  2  0
 22 21  1  0
 23 24  1  0
 24 25  2  0
 25 27  1  0
 26 25  1  0
  1 28  1  0
  1 29  1  0
  2 30  1  6
  3 31  1  0
  3 32  1  0
  4 33  1  0
  4 34  1  0
  5 35  1  0
  5 36  1  0
  6 37  1  0
  6 38  1  0
  7 39  1  1
  9 40  1  0
 11 41  1  0
 14 42  1  0
 18 43  1  0
 21 44  1  0
 23 45  1  0
 27 46  1  0
 27 47  1  0
M  ISO  8  28   8  29   8  30  13  31  13  32  13  33  13  34  13  35  13
M  ISO  8  36  13  37  13  38  13  39  13  40  14  41  14  42  14  43   9
M  ISO  2  44  14  45  14
M  END
>  <minimizedAffinity>  (1) 
-4.41527987

>  <minimizedRMSD>  (1) 
0.0725430623

$$$$
