
     RDKit          3D

 38 40  0  0  1  0  0  0  0  0999 V2000
   37.2450   23.4890   37.0930 N   0  0  0  0  0  0  0  0  0  0  0  0
   37.8530   23.3580   38.3980 C   0  0  0  0  0  0  0  0  0  0  0  0
   39.3320   23.5910   38.2080 C   0  0  0  0  0  0  0  0  0  0  0  0
   39.5180   23.0700   36.7540 C   0  0  0  0  0  0  0  0  0  0  0  0
   38.2850   23.6980   36.1540 C   0  0  2  0  0  0  0  0  0  0  0  0
   38.5840   25.1930   36.0620 C   0  0  0  0  0  0  0  0  0  0  0  0
   39.5520   25.5520   35.1250 C   0  0  0  0  0  0  0  0  0  0  0  0
   39.7010   26.9510   35.1700 C   0  0  0  0  0  0  0  0  0  0  0  0
   38.8320   27.3720   36.1190 N   0  0  0  0  0  0  0  0  0  0  0  0
   38.1810   26.3470   36.6370 N   0  0  0  0  0  0  0  0  0  0  0  0
   37.8880   23.3500   34.9090 O   0  0  0  0  0  0  0  0  0  0  0  0
   38.0590   21.9540   34.8520 C   0  0  0  0  0  0  0  0  0  0  0  0
   39.3770   21.8560   32.7770 C   0  0  0  0  0  0  0  0  0  0  0  0
   38.1640   21.5810   33.4630 C   0  0  0  0  0  0  0  0  0  0  0  0
   37.1690   20.9970   32.7530 C   0  0  0  0  0  0  0  0  0  0  0  0
   37.3380   20.6910   31.4270 N   0  0  0  0  0  0  0  0  0  0  0  0
   38.4940   20.9700   30.8320 C   0  0  0  0  0  0  0  0  0  0  0  0
   39.5120   21.5380   31.4570 N   0  0  0  0  0  0  0  0  0  0  0  0
   38.6870   20.6670   29.4530 N   0  0  0  0  0  0  0  0  0  0  0  0
   35.8780   20.6480   33.2950 C   0  0  0  0  0  0  0  0  0  0  0  0
   34.7940   20.8410   32.7230 O   0  0  0  0  0  0  0  0  0  0  0  0
   35.3600   20.0770   34.4200 O   0  0  0  0  0  0  0  0  0  0  0  0
   36.7280   22.6295   36.8587 H   0  0  0  0  0  0  0  0  0  0  0  0
   37.4361   24.1063   39.0881 H   0  0  0  0  0  0  0  0  0  0  0  0
   37.6593   22.3646   38.8288 H   0  0  0  0  0  0  0  0  0  0  0  0
   39.5892   24.6571   38.2931 H   0  0  0  0  0  0  0  0  0  0  0  0
   39.9726   23.1004   38.9556 H   0  0  0  0  0  0  0  0  0  0  0  0
   40.4439   23.4430   36.2918 H   0  0  0  0  0  0  0  0  0  0  0  0
   39.6133   21.9804   36.6374 H   0  0  0  0  0  0  0  0  0  0  0  0
   40.1022   24.8635   34.4668 H   0  0  0  0  0  0  0  0  0  0  0  0
   40.3787   27.5700   34.5637 H   0  0  0  0  0  0  0  0  0  0  0  0
   38.6976   28.3544   36.3978 H   0  0  0  0  0  0  0  0  0  0  0  0
   38.9761   21.6668   35.3873 H   0  0  0  0  0  0  0  0  0  0  0  0
   37.2078   21.4422   35.3248 H   0  0  0  0  0  0  0  0  0  0  0  0
   40.2131   22.3285   33.3135 H   0  0  0  0  0  0  0  0  0  0  0  0
   39.5850   20.8858   28.9984 H   0  0  0  0  0  0  0  0  0  0  0  0
   37.9285   20.2292   28.9109 H   0  0  0  0  0  0  0  0  0  0  0  0
   34.3808   19.9639   34.5118 H   0  0  0  0  0  0  0  0  0  0  0  0
  1  2  1  0
  3  2  1  0
  4  3  1  0
  5 11  1  6
  5  4  1  0
  5  1  1  0
  6  5  1  0
  6 10  2  0
  7  8  2  0
  7  6  1  0
  8  9  1  0
  9 10  1  0
 12 11  1  0
 13 14  2  0
 14 12  1  0
 15 20  1  0
 15 14  1  0
 16 15  2  0
 17 16  1  0
 17 18  2  0
 18 13  1  0
 19 17  1  0
 20 22  1  0
 21 20  2  0
  1 23  1  0
  2 24  1  0
  2 25  1  0
  3 26  1  0
  3 27  1  0
  4 28  1  0
  4 29  1  0
  7 30  1  0
  8 31  1  0
  9 32  1  0
 12 33  1  0
 12 34  1  0
 13 35  1  0
 19 36  1  0
 19 37  1  0
 22 38  1  0
M  ISO  8  23   5  24  13  25  13  26  13  27  13  28  13  29  13  30  14
M  ISO  6  31  14  32   9  33   8  34   8  35  14  38   3
M  END
>  <minimizedAffinity>  (1) 
-5.01029873

>  <minimizedRMSD>  (1) 
1.26834202

$$$$
