
     RDKit          3D

 44 47  0  0  1  0  0  0  0  0999 V2000
   37.2410   23.5060   37.0470 N   0  0  0  0  0  0  0  0  0  0  0  0
   37.7840   23.3930   38.3760 C   0  0  0  0  0  0  0  0  0  0  0  0
   39.2590   23.6380   38.2620 C   0  0  0  0  0  0  0  0  0  0  0  0
   39.5260   23.1400   36.8040 C   0  0  0  0  0  0  0  0  0  0  0  0
   38.3260   23.7340   36.1470 C   0  0  2  0  0  0  0  0  0  0  0  0
   38.6080   25.2200   36.0530 C   0  0  0  0  0  0  0  0  0  0  0  0
   39.5640   25.5930   35.1330 C   0  0  0  0  0  0  0  0  0  0  0  0
   39.6990   26.9970   35.1770 C   0  0  0  0  0  0  0  0  0  0  0  0
   38.8060   27.4010   36.1340 N   0  0  0  0  0  0  0  0  0  0  0  0
   38.1720   26.3620   36.6410 N   0  0  0  0  0  0  0  0  0  0  0  0
   37.9490   23.3710   34.8970 O   0  0  0  0  0  0  0  0  0  0  0  0
   38.0100   21.9540   34.9450 C   0  0  0  0  0  0  0  0  0  0  0  0
   39.8920   21.7220   33.3800 C   0  0  0  0  0  0  0  0  0  0  0  0
   38.5190   21.5150   33.6460 C   0  0  0  0  0  0  0  0  0  0  0  0
   37.7670   20.9150   32.6790 C   0  0  0  0  0  0  0  0  0  0  0  0
   38.3580   20.5350   31.4960 N   0  0  0  0  0  0  0  0  0  0  0  0
   39.6500   20.7590   31.3120 C   0  0  0  0  0  0  0  0  0  0  0  0
   40.4430   21.3330   32.1930 N   0  0  0  0  0  0  0  0  0  0  0  0
   40.2250   20.3460   30.0600 N   0  0  0  0  0  0  0  0  0  0  0  0
   36.3640   20.6570   32.8340 C   0  0  0  0  0  0  0  0  0  0  0  0
   35.6210   19.8710   33.4370 O   0  0  0  0  0  0  0  0  0  0  0  0
   35.2390   21.4020   32.1920 C   0  0  0  0  0  0  0  0  0  0  0  0
   35.5630   22.8670   31.9440 C   0  0  0  0  0  0  0  0  0  0  0  0
   35.3120   21.9130   30.8190 C   0  0  0  0  0  0  0  0  0  0  0  0
   36.7530   22.6352   36.7932 H   0  0  0  0  0  0  0  0  0  0  0  0
   37.3254   24.1425   39.0377 H   0  0  0  0  0  0  0  0  0  0  0  0
   37.5800   22.4001   38.8033 H   0  0  0  0  0  0  0  0  0  0  0  0
   39.5024   24.7046   38.3766 H   0  0  0  0  0  0  0  0  0  0  0  0
   39.8648   23.1385   39.0323 H   0  0  0  0  0  0  0  0  0  0  0  0
   40.4646   23.5410   36.3940 H   0  0  0  0  0  0  0  0  0  0  0  0
   39.6486   22.0534   36.6843 H   0  0  0  0  0  0  0  0  0  0  0  0
   40.1259   24.9124   34.4764 H   0  0  0  0  0  0  0  0  0  0  0  0
   40.3717   27.6269   34.5764 H   0  0  0  0  0  0  0  0  0  0  0  0
   38.6515   28.3790   36.4177 H   0  0  0  0  0  0  0  0  0  0  0  0
   38.6884   21.6300   35.7480 H   0  0  0  0  0  0  0  0  0  0  0  0
   37.0203   21.5204   35.1511 H   0  0  0  0  0  0  0  0  0  0  0  0
   40.5251   22.2032   34.1400 H   0  0  0  0  0  0  0  0  0  0  0  0
   41.2265   20.5019   29.8769 H   0  0  0  0  0  0  0  0  0  0  0  0
   39.6352   19.8943   29.3465 H   0  0  0  0  0  0  0  0  0  0  0  0
   34.4754   20.7907   32.6953 H   0  0  0  0  0  0  0  0  0  0  0  0
   34.8258   23.6470   32.1852 H   0  0  0  0  0  0  0  0  0  0  0  0
   36.3731   23.5545   32.2288 H   0  0  0  0  0  0  0  0  0  0  0  0
   34.3928   22.0042   30.2217 H   0  0  0  0  0  0  0  0  0  0  0  0
   35.8752   21.6209   29.9204 H   0  0  0  0  0  0  0  0  0  0  0  0
  1  2  1  0
  3  2  1  0
  4  3  1  0
  5 11  1  6
  5  4  1  0
  5  1  1  0
  6  5  1  0
  6 10  2  0
  7  8  2  0
  7  6  1  0
  8  9  1  0
  9 10  1  0
 11 12  1  0
 13 14  2  0
 14 12  1  0
 15 20  1  0
 15 14  1  0
 16 15  2  0
 17 16  1  0
 17 18  2  0
 18 13  1  0
 19 17  1  0
 20 21  2  0
 22 20  1  0
 23 22  1  0
 24 23  1  0
 24 22  1  0
  1 25  1  0
  2 26  1  0
  2 27  1  0
  3 28  1  0
  3 29  1  0
  4 30  1  0
  4 31  1  0
  7 32  1  0
  8 33  1  0
  9 34  1  0
 12 35  1  0
 12 36  1  0
 13 37  1  0
 19 38  1  0
 19 39  1  0
 22 40  1  0
 23 41  1  0
 23 42  1  0
 24 43  1  0
 24 44  1  0
M  ISO  8  25   5  26  13  27  13  28  13  29  13  30  13  31  13  32  14
M  ISO  8  33  14  34   9  35   8  36   8  37  14  40  13  41  13  42  13
M  ISO  2  43  13  44  13
M  END
>  <minimizedAffinity>  (1) 
-4.9045639

>  <minimizedRMSD>  (1) 
1.86339366

$$$$
