
     RDKit          3D

 26 26  0  0  1  0  0  0  0  0999 V2000
   38.0800   24.3720   37.1390 C   0  0  1  0  0  0  0  0  0  0  0  0
   40.9440   21.9030   37.4080 C   0  0  0  0  0  0  0  0  0  0  0  0
   39.8930   22.7720   37.7890 C   0  0  0  0  0  0  0  0  0  0  0  0
   39.1820   23.4470   36.7910 C   0  0  0  0  0  0  0  0  0  0  0  0
   39.5320   23.2410   35.4660 N   0  0  0  0  0  0  0  0  0  0  0  0
   40.5410   22.4060   35.1480 C   0  0  0  0  0  0  0  0  0  0  0  0
   41.2500   21.7350   36.1010 N   0  0  0  0  0  0  0  0  0  0  0  0
   37.9260   24.5230   38.6340 C   0  0  0  0  0  0  0  0  0  0  0  0
   38.2410   25.7510   36.5160 C   0  0  0  0  0  0  0  0  0  0  0  0
   37.3880   25.7610   35.3370 N   0  0  0  0  0  0  0  0  0  0  0  0
   37.9820   26.2730   34.1540 C   0  0  0  0  0  0  0  0  0  0  0  0
   39.0370   27.0410   34.2500 N   0  0  0  0  0  0  0  0  0  0  0  0
   37.4950   26.0020   32.8400 N   0  0  0  0  0  0  0  0  0  0  0  0
   39.5030   27.4380   33.4110 H   0  0  0  0  0  0  0  0  0  0  0  0
   37.1735   23.9101   36.7208 H   0  0  0  0  0  0  0  0  0  0  0  0
   41.5140   21.3623   38.1779 H   0  0  0  0  0  0  0  0  0  0  0  0
   39.6402   22.9137   38.8501 H   0  0  0  0  0  0  0  0  0  0  0  0
   40.8005   22.2613   34.0889 H   0  0  0  0  0  0  0  0  0  0  0  0
   38.6215   23.8410   39.1450 H   0  0  0  0  0  0  0  0  0  0  0  0
   38.1510   25.5603   38.9229 H   0  0  0  0  0  0  0  0  0  0  0  0
   36.8933   24.2777   38.9229 H   0  0  0  0  0  0  0  0  0  0  0  0
   37.9228   26.5299   37.2245 H   0  0  0  0  0  0  0  0  0  0  0  0
   39.2901   25.9554   36.2558 H   0  0  0  0  0  0  0  0  0  0  0  0
   36.4167   25.4189   35.3596 H   0  0  0  0  0  0  0  0  0  0  0  0
   36.6672   25.4029   32.7110 H   0  0  0  0  0  0  0  0  0  0  0  0
   37.9714   26.4055   32.0208 H   0  0  0  0  0  0  0  0  0  0  0  0
  1  8  1  0
  2  3  2  0
  4  1  1  0
  4  3  1  0
  5  4  2  0
  6  5  1  0
  6  7  2  0
  7  2  1  0
  9  1  1  0
 10  9  1  0
 11 12  2  0
 11 10  1  0
 13 11  1  0
 14 12  1  0
  1 15  1  6
  2 16  1  0
  3 17  1  0
  6 18  1  0
  8 19  1  0
  8 20  1  0
  8 21  1  0
  9 22  1  0
  9 23  1  0
 10 24  1  0
 13 25  1  0
 13 26  1  0
M  ISO  8  15   8  16  14  17  14  18  14  19   8  20   8  21   8  22   8
M  ISO  1  23   8
M  END
>  <minimizedAffinity>  (1) 
-3.51241422

>  <minimizedRMSD>  (1) 
1.55483222

$$$$
