
     RDKit          3D

 40 43  0  0  1  0  0  0  0  0999 V2000
   36.8560   25.7250   32.4150 N   0  0  0  0  0  0  0  0  0  0  0  0
   36.5940   24.4480   32.1960 N   0  0  0  0  0  0  0  0  0  0  0  0
   35.5670   24.2910   31.3450 C   0  0  0  0  0  0  0  0  0  0  0  0
   35.1530   25.5350   31.0020 C   0  0  0  0  0  0  0  0  0  0  0  0
   35.9800   26.4310   31.6890 C   0  0  0  0  0  0  0  0  0  0  0  0
   35.9270   27.8830   31.6630 C   0  0  0  0  0  0  0  0  0  0  0  0
   35.2460   28.4210   32.7170 N   0  0  0  0  0  0  0  0  0  0  0  0
   35.0940   29.7480   32.8570 C   0  0  0  0  0  0  0  0  0  0  0  0
   35.6220   30.6020   31.9370 N   0  0  0  0  0  0  0  0  0  0  0  0
   36.3040   30.1270   30.8750 C   0  0  0  0  0  0  0  0  0  0  0  0
   36.8650   30.9130   29.8950 C   0  0  0  0  0  0  0  0  0  0  0  0
   37.5530   30.3420   28.8180 C   0  0  0  0  0  0  0  0  0  0  0  0
   37.6820   28.9520   28.7200 C   0  0  0  0  0  0  0  0  0  0  0  0
   37.1130   28.1880   29.7110 C   0  0  0  0  0  0  0  0  0  0  0  0
   36.4500   28.7650   30.7470 C   0  0  0  0  0  0  0  0  0  0  0  0
   37.9020   26.1780   33.2780 C   0  0  0  0  0  0  0  0  0  0  0  0
   37.4930   26.2230   34.7450 C   0  0  1  0  0  0  0  0  0  0  0  0
   39.9880   23.6040   35.8410 C   0  0  0  0  0  0  0  0  0  0  0  0
   39.3640   24.6400   35.1250 C   0  0  0  0  0  0  0  0  0  0  0  0
   38.0930   25.1460   35.5240 C   0  0  0  0  0  0  0  0  0  0  0  0
   37.5060   24.5900   36.6200 N   0  0  0  0  0  0  0  0  0  0  0  0
   38.1450   23.5790   37.2950 C   0  0  0  0  0  0  0  0  0  0  0  0
   39.3730   23.0870   36.9150 N   0  0  0  0  0  0  0  0  0  0  0  0
   37.7180   27.5850   35.3190 C   0  0  0  0  0  0  0  0  0  0  0  0
   35.1441   23.3380   30.9945 H   0  0  0  0  0  0  0  0  0  0  0  0
   34.3296   25.7901   30.3186 H   0  0  0  0  0  0  0  0  0  0  0  0
   34.5400   30.1472   33.7194 H   0  0  0  0  0  0  0  0  0  0  0  0
   36.7714   32.0072   29.9588 H   0  0  0  0  0  0  0  0  0  0  0  0
   37.9942   30.9887   28.0453 H   0  0  0  0  0  0  0  0  0  0  0  0
   38.2194   28.4875   27.8801 H   0  0  0  0  0  0  0  0  0  0  0  0
   37.1958   27.0921   29.6645 H   0  0  0  0  0  0  0  0  0  0  0  0
   38.7597   25.4970   33.1750 H   0  0  0  0  0  0  0  0  0  0  0  0
   38.1519   27.2060   32.9768 H   0  0  0  0  0  0  0  0  0  0  0  0
   36.4105   26.0366   34.8033 H   0  0  0  0  0  0  0  0  0  0  0  0
   40.9695   23.2215   35.5242 H   0  0  0  0  0  0  0  0  0  0  0  0
   39.8643   25.0667   34.2432 H   0  0  0  0  0  0  0  0  0  0  0  0
   37.6540   23.1435   38.1778 H   0  0  0  0  0  0  0  0  0  0  0  0
   37.7083   27.5262   36.4174 H   0  0  0  0  0  0  0  0  0  0  0  0
   38.6918   27.9691   34.9810 H   0  0  0  0  0  0  0  0  0  0  0  0
   36.9195   28.2619   34.9810 H   0  0  0  0  0  0  0  0  0  0  0  0
  1 16  1  0
  2  1  1  0
  3  2  2  0
  4  3  1  0
  4  5  2  0
  5  1  1  0
  6  5  1  0
  6  7  2  0
  7  8  1  0
  9  8  2  0
 10  9  1  0
 11 10  2  0
 12 11  1  0
 13 12  2  0
 13 14  1  0
 14 15  2  0
 15 10  1  0
 15  6  1  0
 16 17  1  0
 17 24  1  0
 17 20  1  0
 18 23  2  0
 19 20  2  0
 19 18  1  0
 20 21  1  0
 21 22  2  0
 23 22  1  0
  3 25  1  0
  4 26  1  0
  8 27  1  0
 11 28  1  0
 12 29  1  0
 13 30  1  0
 14 31  1  0
 16 32  1  0
 16 33  1  0
 17 34  1  6
 18 35  1  0
 19 36  1  0
 22 37  1  0
 24 38  1  0
 24 39  1  0
 24 40  1  0
M  ISO  8  25  14  26  14  27  14  28  14  29  14  30  14  31  14  32   8
M  ISO  8  33   8  34   8  35  14  36  14  37  14  38   8  39   8  40   8
M  END
>  <minimizedAffinity>  (1) 
-5.68572378

>  <minimizedRMSD>  (1) 
4.6415534

$$$$
