
     RDKit          3D

 36 38  0  0  1  0  0  0  0  0999 V2000
   38.1330   25.6700   33.3850 C   0  0  0  0  0  0  0  0  0  0  0  0
   37.0680   25.3110   32.5040 N   0  0  0  0  0  0  0  0  0  0  0  0
   36.6330   24.0960   32.3170 N   0  0  0  0  0  0  0  0  0  0  0  0
   35.6190   24.0460   31.4290 C   0  0  0  0  0  0  0  0  0  0  0  0
   35.4030   25.3300   31.0290 C   0  0  0  0  0  0  0  0  0  0  0  0
   36.3240   26.0980   31.7180 C   0  0  0  0  0  0  0  0  0  0  0  0
   36.4250   27.5110   31.5780 N   0  0  0  0  0  0  0  0  0  0  0  0
   35.5740   28.2070   32.3830 C   0  0  0  0  0  0  0  0  0  0  0  0
   35.5660   29.6030   32.3510 C   0  0  0  0  0  0  0  0  0  0  0  0
   36.4520   30.2030   31.4750 C   0  0  0  0  0  0  0  0  0  0  0  0
   36.4780   31.4710   31.4110 O   0  0  0  0  0  0  0  0  0  0  0  0
   37.2870   29.5090   30.6830 N   0  0  0  0  0  0  0  0  0  0  0  0
   37.2600   28.1650   30.7500 C   0  0  0  0  0  0  0  0  0  0  0  0
   38.0120   27.4130   30.0420 O   0  0  0  0  0  0  0  0  0  0  0  0
   37.6810   25.9140   34.8210 C   0  0  1  0  0  0  0  0  0  0  0  0
   39.8220   23.1230   36.1800 C   0  0  0  0  0  0  0  0  0  0  0  0
   39.2770   24.0940   35.3230 C   0  0  0  0  0  0  0  0  0  0  0  0
   38.2040   24.9250   35.7590 C   0  0  0  0  0  0  0  0  0  0  0  0
   37.7290   24.7500   37.0120 N   0  0  0  0  0  0  0  0  0  0  0  0
   38.2770   23.7930   37.8340 C   0  0  0  0  0  0  0  0  0  0  0  0
   39.3130   22.9830   37.4290 N   0  0  0  0  0  0  0  0  0  0  0  0
   37.9380   27.3340   35.2130 C   0  0  0  0  0  0  0  0  0  0  0  0
   38.6020   26.5903   33.0068 H   0  0  0  0  0  0  0  0  0  0  0  0
   38.8335   24.8222   33.4068 H   0  0  0  0  0  0  0  0  0  0  0  0
   35.0761   23.1494   31.0952 H   0  0  0  0  0  0  0  0  0  0  0  0
   34.6516   25.6830   30.3074 H   0  0  0  0  0  0  0  0  0  0  0  0
   34.8928   27.6688   33.0585 H   0  0  0  0  0  0  0  0  0  0  0  0
   34.8913   30.1936   32.9882 H   0  0  0  0  0  0  0  0  0  0  0  0
   37.9310   29.9931   30.0413 H   0  0  0  0  0  0  0  0  0  0  0  0
   36.5921   25.7662   34.8697 H   0  0  0  0  0  0  0  0  0  0  0  0
   40.6513   22.4843   35.8419 H   0  0  0  0  0  0  0  0  0  0  0  0
   39.6817   24.2139   34.3072 H   0  0  0  0  0  0  0  0  0  0  0  0
   37.8733   23.6710   38.8499 H   0  0  0  0  0  0  0  0  0  0  0  0
   37.9526   27.4147   36.3099 H   0  0  0  0  0  0  0  0  0  0  0  0
   38.9090   27.6560   34.8087 H   0  0  0  0  0  0  0  0  0  0  0  0
   37.1414   27.9759   34.8087 H   0  0  0  0  0  0  0  0  0  0  0  0
  1 15  1  0
  2  1  1  0
  3  2  1  0
  4  3  2  0
  5  4  1  0
  5  6  2  0
  6  2  1  0
  7  6  1  0
  7  8  1  0
  9  8  2  0
 10  9  1  0
 11 10  2  0
 12 13  1  0
 12 10  1  0
 13  7  1  0
 14 13  2  0
 15 22  1  0
 15 18  1  0
 16 21  2  0
 17 18  2  0
 17 16  1  0
 18 19  1  0
 19 20  2  0
 21 20  1  0
  1 23  1  0
  1 24  1  0
  4 25  1  0
  5 26  1  0
  8 27  1  0
  9 28  1  0
 12 29  1  0
 15 30  1  6
 16 31  1  0
 17 32  1  0
 20 33  1  0
 22 34  1  0
 22 35  1  0
 22 36  1  0
M  ISO  8  23   8  24   8  25  14  26  14  27  14  28  14  29   9  30   8
M  ISO  6  31  14  32  14  33  14  34   8  35   8  36   8
M  END
>  <minimizedAffinity>  (1) 
-5.09220457

>  <minimizedRMSD>  (1) 
4.49908638

$$$$
