
     RDKit          3D

 35 37  0  0  1  0  0  0  0  0999 V2000
   38.4810   25.7780   33.9090 C   0  0  0  0  0  0  0  0  0  0  0  0
   37.4690   25.4780   32.9580 N   0  0  0  0  0  0  0  0  0  0  0  0
   37.2030   24.2540   32.5280 N   0  0  0  0  0  0  0  0  0  0  0  0
   36.1970   24.2460   31.6440 C   0  0  0  0  0  0  0  0  0  0  0  0
   35.8080   25.5380   31.5110 C   0  0  0  0  0  0  0  0  0  0  0  0
   36.6340   26.3060   32.3580 C   0  0  0  0  0  0  0  0  0  0  0  0
   36.4170   27.7350   32.3720 C   0  0  0  0  0  0  0  0  0  0  0  0
   36.6950   28.6640   31.4130 C   0  0  0  0  0  0  0  0  0  0  0  0
   36.4510   30.0130   31.4640 C   0  0  0  0  0  0  0  0  0  0  0  0
   35.8590   30.5410   32.5860 C   0  0  0  0  0  0  0  0  0  0  0  0
   35.5750   29.6150   33.5530 C   0  0  0  0  0  0  0  0  0  0  0  0
   35.8400   28.3140   33.4380 N   0  0  0  0  0  0  0  0  0  0  0  0
   37.9890   25.9380   35.3210 C   0  0  1  0  0  0  0  0  0  0  0  0
   40.0070   23.0240   36.6350 C   0  0  0  0  0  0  0  0  0  0  0  0
   39.5330   24.0430   35.7740 C   0  0  0  0  0  0  0  0  0  0  0  0
   38.4810   24.8640   36.2070 C   0  0  0  0  0  0  0  0  0  0  0  0
   37.9360   24.6580   37.4530 N   0  0  0  0  0  0  0  0  0  0  0  0
   38.4160   23.6700   38.2560 C   0  0  0  0  0  0  0  0  0  0  0  0
   39.4400   22.8560   37.8630 N   0  0  0  0  0  0  0  0  0  0  0  0
   38.2810   27.3180   35.8490 C   0  0  0  0  0  0  0  0  0  0  0  0
   38.9672   26.7174   33.6071 H   0  0  0  0  0  0  0  0  0  0  0  0
   39.1668   24.9180   33.9146 H   0  0  0  0  0  0  0  0  0  0  0  0
   35.7730   23.3703   31.1308 H   0  0  0  0  0  0  0  0  0  0  0  0
   35.0015   25.9155   30.8653 H   0  0  0  0  0  0  0  0  0  0  0  0
   37.1689   28.2889   30.4939 H   0  0  0  0  0  0  0  0  0  0  0  0
   36.7251   30.6622   30.6194 H   0  0  0  0  0  0  0  0  0  0  0  0
   35.6336   31.6119   32.6971 H   0  0  0  0  0  0  0  0  0  0  0  0
   35.0995   29.9657   34.4808 H   0  0  0  0  0  0  0  0  0  0  0  0
   36.8942   25.8322   35.3061 H   0  0  0  0  0  0  0  0  0  0  0  0
   40.8307   22.3696   36.3137 H   0  0  0  0  0  0  0  0  0  0  0  0
   39.9827   24.1888   34.7807 H   0  0  0  0  0  0  0  0  0  0  0  0
   37.9669   23.5227   39.2493 H   0  0  0  0  0  0  0  0  0  0  0  0
   38.2768   27.2983   36.9488 H   0  0  0  0  0  0  0  0  0  0  0  0
   39.2684   27.6459   35.4919 H   0  0  0  0  0  0  0  0  0  0  0  0
   37.5110   28.0177   35.4919 H   0  0  0  0  0  0  0  0  0  0  0  0
  1 13  1  0
  2  1  1  0
  3  2  1  0
  4  3  2  0
  5  4  1  0
  5  6  2  0
  6  7  1  0
  6  2  1  0
  7 12  2  0
  8  9  2  0
  8  7  1  0
  9 10  1  0
 10 11  2  0
 12 11  1  0
 13 20  1  0
 13 16  1  0
 14 19  2  0
 15 16  2  0
 15 14  1  0
 16 17  1  0
 17 18  2  0
 19 18  1  0
  1 21  1  0
  1 22  1  0
  4 23  1  0
  5 24  1  0
  8 25  1  0
  9 26  1  0
 10 27  1  0
 11 28  1  0
 13 29  1  6
 14 30  1  0
 15 31  1  0
 18 32  1  0
 20 33  1  0
 20 34  1  0
 20 35  1  0
M  ISO  8  21   8  22   8  23  14  24  14  25  14  26  14  27  14  28  14
M  ISO  7  29   8  30  14  31  14  32  14  33   8  34   8  35   8
M  END
>  <minimizedAffinity>  (1) 
-5.03971243

>  <minimizedRMSD>  (1) 
3.54154372

$$$$
