
     RDKit          3D

 33 35  0  0  1  0  0  0  0  0999 V2000
   40.5110   25.8580   34.7880 C   0  0  0  0  0  0  0  0  0  0  0  0
   39.9520   24.6190   34.3710 N   0  0  0  0  0  0  0  0  0  0  0  0
   40.0580   24.1400   33.1420 N   0  0  0  0  0  0  0  0  0  0  0  0
   39.4500   22.9550   33.0080 C   0  0  0  0  0  0  0  0  0  0  0  0
   38.9280   22.6700   34.2320 C   0  0  0  0  0  0  0  0  0  0  0  0
   39.2570   23.7410   35.0860 C   0  0  0  0  0  0  0  0  0  0  0  0
   38.8180   23.7240   36.4710 C   0  0  0  0  0  0  0  0  0  0  0  0
   37.7020   24.1700   37.1310 C   0  0  0  0  0  0  0  0  0  0  0  0
   37.7440   23.9160   38.4830 C   0  0  0  0  0  0  0  0  0  0  0  0
   38.9560   23.2850   38.6050 C   0  0  0  0  0  0  0  0  0  0  0  0
   39.5170   23.2030   37.4480 O   0  0  0  0  0  0  0  0  0  0  0  0
   39.5830   27.0450   34.6310 C   0  0  1  0  0  0  0  0  0  0  0  0
   36.6220   26.4800   32.3470 C   0  0  0  0  0  0  0  0  0  0  0  0
   37.4090   26.5670   33.5160 C   0  0  0  0  0  0  0  0  0  0  0  0
   38.7600   26.9440   33.4140 C   0  0  0  0  0  0  0  0  0  0  0  0
   39.2790   27.2170   32.1730 N   0  0  0  0  0  0  0  0  0  0  0  0
   38.4920   27.1240   31.0590 C   0  0  0  0  0  0  0  0  0  0  0  0
   37.1780   26.7600   31.1350 N   0  0  0  0  0  0  0  0  0  0  0  0
   38.7610   27.2460   35.8730 C   0  0  0  0  0  0  0  0  0  0  0  0
   40.7843   25.7725   35.8501 H   0  0  0  0  0  0  0  0  0  0  0  0
   41.3775   26.0474   34.1374 H   0  0  0  0  0  0  0  0  0  0  0  0
   39.3857   22.3399   32.0983 H   0  0  0  0  0  0  0  0  0  0  0  0
   38.3557   21.7708   34.5039 H   0  0  0  0  0  0  0  0  0  0  0  0
   36.8624   24.6769   36.6329 H   0  0  0  0  0  0  0  0  0  0  0  0
   37.0026   24.1554   39.2596 H   0  0  0  0  0  0  0  0  0  0  0  0
   39.3831   22.9072   39.5457 H   0  0  0  0  0  0  0  0  0  0  0  0
   40.2012   27.9455   34.5011 H   0  0  0  0  0  0  0  0  0  0  0  0
   35.5638   26.1872   32.4145 H   0  0  0  0  0  0  0  0  0  0  0  0
   36.9689   26.3417   34.4986 H   0  0  0  0  0  0  0  0  0  0  0  0
   38.9290   27.3484   30.0748 H   0  0  0  0  0  0  0  0  0  0  0  0
   39.3930   27.0915   36.7600 H   0  0  0  0  0  0  0  0  0  0  0  0
   38.3575   28.2693   35.8840 H   0  0  0  0  0  0  0  0  0  0  0  0
   37.9308   26.5244   35.8840 H   0  0  0  0  0  0  0  0  0  0  0  0
  2  1  1  0
  2  6  1  0
  3  2  1  0
  4  3  2  0
  4  5  1  0
  5  6  2  0
  6  7  1  0
  7  8  2  0
  7 11  1  0
  8  9  1  0
  9 10  2  0
 11 10  1  0
 12  1  1  0
 12 19  1  0
 13 14  2  0
 15 14  1  0
 15 12  1  0
 16 15  2  0
 17 18  2  0
 17 16  1  0
 18 13  1  0
  1 20  1  0
  1 21  1  0
  4 22  1  0
  5 23  1  0
  8 24  1  0
  9 25  1  0
 10 26  1  0
 12 27  1  6
 13 28  1  0
 14 29  1  0
 17 30  1  0
 19 31  1  0
 19 32  1  0
 19 33  1  0
M  ISO  8  20   8  21   8  22  14  23  14  24  14  25  14  26  14  27   8
M  ISO  6  28  14  29  14  30  14  31   8  32   8  33   8
M  END
>  <minimizedAffinity>  (1) 
-4.60507059

>  <minimizedRMSD>  (1) 
4.92237711

$$$$
