
     RDKit          3D

 13 13  0  0  0  0  0  0  0  0999 V2000
   40.5010   22.4900   37.6470 C   0  0  0  0  0  0  0  0  0  0  0  0
   39.2470   23.1000   37.4200 C   0  0  0  0  0  0  0  0  0  0  0  0
   38.7870   23.1570   36.1050 C   0  0  0  0  0  0  0  0  0  0  0  0
   39.5560   22.6310   35.1110 N   0  0  0  0  0  0  0  0  0  0  0  0
   40.7610   22.0520   35.3790 C   0  0  0  0  0  0  0  0  0  0  0  0
   41.2150   21.9900   36.6360 N   0  0  0  0  0  0  0  0  0  0  0  0
   38.4000   23.6770   38.5060 C   0  0  0  0  0  0  0  0  0  0  0  0
   39.2300   23.8380   39.6100 F   0  0  0  0  0  0  0  0  0  0  0  0
   37.3760   22.8610   38.8610 F   0  0  0  0  0  0  0  0  0  0  0  0
   37.9870   24.9710   38.1810 F   0  0  0  0  0  0  0  0  0  0  0  0
   40.8948   22.4261   38.6721 H   0  0  0  0  0  0  0  0  0  0  0  0
   37.8166   23.6203   35.8733 H   0  0  0  0  0  0  0  0  0  0  0  0
   41.3624   21.6341   34.5582 H   0  0  0  0  0  0  0  0  0  0  0  0
  2  1  2  0
  2  7  1  0
  3  2  1  0
  4  5  1  0
  4  3  2  0
  5  6  2  0
  6  1  1  0
  7  9  1  0
  7  8  1  0
 10  7  1  0
  1 11  1  0
  3 12  1  0
  5 13  1  0
M  ISO  3  11  14  12  14  13  14
M  END
>  <minimizedAffinity>  (1) 
-3.71599436

>  <minimizedRMSD>  (1) 
1.73160863

$$$$
