
     RDKit          3D

 39 41  0  0  1  0  0  0  0  0999 V2000
   38.5150   26.4200   36.3010 C   0  0  0  0  0  0  0  0  0  0  0  0
   39.2330   26.6400   35.0930 N   0  0  0  0  0  0  0  0  0  0  0  0
   40.5000   26.3520   34.9470 N   0  0  0  0  0  0  0  0  0  0  0  0
   40.9530   26.6420   33.7120 C   0  0  0  0  0  0  0  0  0  0  0  0
   39.8840   27.1510   33.0310 C   0  0  0  0  0  0  0  0  0  0  0  0
   38.8090   27.1380   33.9330 C   0  0  0  0  0  0  0  0  0  0  0  0
   34.9250   28.7280   33.0850 C   0  0  0  0  0  0  0  0  0  0  0  0
   35.5630   27.9640   32.1300 C   0  0  0  0  0  0  0  0  0  0  0  0
   36.8040   27.4270   32.3480 C   0  0  0  0  0  0  0  0  0  0  0  0
   37.4960   27.6100   33.5230 C   0  0  0  0  0  0  0  0  0  0  0  0
   36.8090   28.3910   34.4630 C   0  0  0  0  0  0  0  0  0  0  0  0
   35.5610   28.9510   34.2870 C   0  0  0  0  0  0  0  0  0  0  0  0
   33.3420   29.4220   32.8240 S   0  0  0  0  0  0  0  0  0  0  0  0
   33.4120   30.5730   31.8680 O   0  0  0  0  0  0  0  0  0  0  0  0
   32.8240   29.9240   34.1500 O   0  0  0  0  0  0  0  0  0  0  0  0
   37.8660   25.0430   36.3890 C   0  0  1  0  0  0  0  0  0  0  0  0
   40.2460   22.3590   35.1950 C   0  0  0  0  0  0  0  0  0  0  0  0
   39.5970   23.3070   36.0070 C   0  0  0  0  0  0  0  0  0  0  0  0
   38.5050   24.0680   35.4990 C   0  0  0  0  0  0  0  0  0  0  0  0
   38.1140   23.8530   34.2220 N   0  0  0  0  0  0  0  0  0  0  0  0
   38.7730   22.9180   33.4570 C   0  0  0  0  0  0  0  0  0  0  0  0
   39.8210   22.1790   33.9290 N   0  0  0  0  0  0  0  0  0  0  0  0
   37.7500   24.5880   37.8080 C   0  0  0  0  0  0  0  0  0  0  0  0
   37.7249   27.1814   36.3784 H   0  0  0  0  0  0  0  0  0  0  0  0
   39.2433   26.4841   37.1228 H   0  0  0  0  0  0  0  0  0  0  0  0
   41.9745   26.4983   33.3302 H   0  0  0  0  0  0  0  0  0  0  0  0
   39.8688   27.5000   31.9880 H   0  0  0  0  0  0  0  0  0  0  0  0
   35.0619   27.7812   31.1680 H   0  0  0  0  0  0  0  0  0  0  0  0
   37.2660   26.8252   31.5516 H   0  0  0  0  0  0  0  0  0  0  0  0
   37.3094   28.5731   35.4255 H   0  0  0  0  0  0  0  0  0  0  0  0
   35.0903   29.5539   35.0775 H   0  0  0  0  0  0  0  0  0  0  0  0
   32.5150   28.4663   32.2952 H   0  0  0  0  0  0  0  0  0  0  0  0
   36.8354   25.1300   36.0144 H   0  0  0  0  0  0  0  0  0  0  0  0
   41.0893   21.7724   35.5884 H   0  0  0  0  0  0  0  0  0  0  0  0
   39.9353   23.4618   37.0422 H   0  0  0  0  0  0  0  0  0  0  0  0
   38.4417   22.7585   32.4203 H   0  0  0  0  0  0  0  0  0  0  0  0
   37.9648   25.4305   38.4819 H   0  0  0  0  0  0  0  0  0  0  0  0
   36.7296   24.2212   37.9932 H   0  0  0  0  0  0  0  0  0  0  0  0
   38.4702   23.7775   37.9932 H   0  0  0  0  0  0  0  0  0  0  0  0
  1 16  1  0
  2  1  1  0
  3  2  1  0
  4  3  2  0
  5  4  1  0
  5  6  2  0
  6  2  1  0
  7 12  2  0
  8  9  2  0
  8  7  1  0
  9 10  1  0
 10  6  1  0
 10 11  2  0
 12 11  1  0
 13  7  1  0
 13 15  2  0
 14 13  2  0
 16 23  1  0
 17 18  2  0
 19 18  1  0
 19 16  1  0
 20 19  2  0
 21 22  2  0
 21 20  1  0
 22 17  1  0
  1 24  1  0
  1 25  1  0
  4 26  1  0
  5 27  1  0
  8 28  1  0
  9 29  1  0
 11 30  1  0
 12 31  1  0
 13 32  1  0
 16 33  1  6
 17 34  1  0
 18 35  1  0
 21 36  1  0
 23 37  1  0
 23 38  1  0
 23 39  1  0
M  ISO  8  24   8  25   8  26  14  27  14  28  14  29  14  30  14  31  14
M  ISO  8  32  11  33   8  34  14  35  14  36  14  37   8  38   8  39   8
M  END
>  <minimizedAffinity>  (1) 
-4.59066725

>  <minimizedRMSD>  (1) 
3.10390615

$$$$
