
     RDKit          3D

 37 39  0  0  1  0  0  0  0  0999 V2000
   39.0620   27.2070   33.0030 C   0  0  0  0  0  0  0  0  0  0  0  0
   37.8770   26.6560   32.4090 N   0  0  0  0  0  0  0  0  0  0  0  0
   37.7750   25.4470   31.9210 N   0  0  0  0  0  0  0  0  0  0  0  0
   36.5430   25.2010   31.4270 C   0  0  0  0  0  0  0  0  0  0  0  0
   35.8300   26.3410   31.6240 C   0  0  0  0  0  0  0  0  0  0  0  0
   36.6850   27.2380   32.2410 C   0  0  0  0  0  0  0  0  0  0  0  0
   36.3060   28.5590   32.6140 N   0  0  0  0  0  0  0  0  0  0  0  0
   35.8840   28.6530   33.9000 C   0  0  0  0  0  0  0  0  0  0  0  0
   35.4790   29.8700   34.4200 C   0  0  0  0  0  0  0  0  0  0  0  0
   35.5360   30.9550   33.5550 C   0  0  0  0  0  0  0  0  0  0  0  0
   35.1360   32.2360   34.0210 N   0  0  0  0  0  0  0  0  0  0  0  0
   35.9600   30.8540   32.2710 N   0  0  0  0  0  0  0  0  0  0  0  0
   36.3450   29.6470   31.8070 C   0  0  0  0  0  0  0  0  0  0  0  0
   36.7590   29.4510   30.6160 O   0  0  0  0  0  0  0  0  0  0  0  0
   39.4720   26.5160   34.2980 C   0  0  1  0  0  0  0  0  0  0  0  0
   43.1750   27.0330   33.7880 C   0  0  0  0  0  0  0  0  0  0  0  0
   41.7800   27.2110   33.7260 C   0  0  0  0  0  0  0  0  0  0  0  0
   40.9110   26.2970   34.3870 C   0  0  0  0  0  0  0  0  0  0  0  0
   41.4720   25.2590   35.0710 N   0  0  0  0  0  0  0  0  0  0  0  0
   42.8350   25.1100   35.1130 C   0  0  0  0  0  0  0  0  0  0  0  0
   43.6880   25.9850   34.4800 N   0  0  0  0  0  0  0  0  0  0  0  0
   38.8900   27.2190   35.4830 C   0  0  0  0  0  0  0  0  0  0  0  0
   38.8811   28.2705   33.2182 H   0  0  0  0  0  0  0  0  0  0  0  0
   39.8819   27.0597   32.2846 H   0  0  0  0  0  0  0  0  0  0  0  0
   36.1891   24.2696   30.9610 H   0  0  0  0  0  0  0  0  0  0  0  0
   34.7799   26.5165   31.3475 H   0  0  0  0  0  0  0  0  0  0  0  0
   35.8636   27.7547   34.5345 H   0  0  0  0  0  0  0  0  0  0  0  0
   35.1319   29.9720   35.4588 H   0  0  0  0  0  0  0  0  0  0  0  0
   35.1736   33.0487   33.3893 H   0  0  0  0  0  0  0  0  0  0  0  0
   34.8084   32.3521   34.9906 H   0  0  0  0  0  0  0  0  0  0  0  0
   39.0417   25.5036   34.2933 H   0  0  0  0  0  0  0  0  0  0  0  0
   43.8457   27.7401   33.2779 H   0  0  0  0  0  0  0  0  0  0  0  0
   41.3599   28.0589   33.1651 H   0  0  0  0  0  0  0  0  0  0  0  0
   43.2603   24.2629   35.6712 H   0  0  0  0  0  0  0  0  0  0  0  0
   39.2713   26.7584   36.4063 H   0  0  0  0  0  0  0  0  0  0  0  0
   39.1772   28.2805   35.4571 H   0  0  0  0  0  0  0  0  0  0  0  0
   37.7935   27.1350   35.4571 H   0  0  0  0  0  0  0  0  0  0  0  0
  1 15  1  0
  2  1  1  0
  3  2  1  0
  4  5  1  0
  4  3  2  0
  5  6  2  0
  6  2  1  0
  6  7  1  0
  7  8  1  0
  8  9  2  0
 10 11  1  0
 10  9  1  0
 12 10  2  0
 13 12  1  0
 13  7  1  0
 14 13  2  0
 15 18  1  0
 15 22  1  0
 16 21  2  0
 17 16  1  0
 17 18  2  0
 18 19  1  0
 19 20  2  0
 21 20  1  0
  1 23  1  0
  1 24  1  0
  4 25  1  0
  5 26  1  0
  8 27  1  0
  9 28  1  0
 11 29  1  0
 11 30  1  0
 15 31  1  6
 16 32  1  0
 17 33  1  0
 20 34  1  0
 22 35  1  0
 22 36  1  0
 22 37  1  0
M  ISO  8  23   8  24   8  25  14  26  14  27  14  28  14  31   8  32  14
M  ISO  5  33  14  34  14  35   8  36   8  37   8
M  END
>  <minimizedAffinity>  (1) 
-4.58879566

>  <minimizedRMSD>  (1) 
4.40838194

$$$$
