
     RDKit          3D

 34 36  0  0  1  0  0  0  0  0999 V2000
   37.6330   27.4100   35.0000 C   0  0  0  0  0  0  0  0  0  0  0  0
   36.8220   27.7290   33.8780 N   0  0  0  0  0  0  0  0  0  0  0  0
   36.8560   27.0830   32.7220 N   0  0  0  0  0  0  0  0  0  0  0  0
   35.9770   27.5890   31.8490 C   0  0  0  0  0  0  0  0  0  0  0  0
   35.3550   28.6080   32.4890 C   0  0  0  0  0  0  0  0  0  0  0  0
   35.9100   28.6820   33.7830 C   0  0  0  0  0  0  0  0  0  0  0  0
   35.3990   29.7250   34.6480 C   0  0  0  0  0  0  0  0  0  0  0  0
   36.0810   30.6790   35.3430 C   0  0  0  0  0  0  0  0  0  0  0  0
   35.6040   31.6820   36.1480 C   0  0  0  0  0  0  0  0  0  0  0  0
   34.2390   31.7200   36.2660 N   0  0  0  0  0  0  0  0  0  0  0  0
   33.5040   30.7890   35.5930 C   0  0  0  0  0  0  0  0  0  0  0  0
   34.0750   29.8500   34.8300 N   0  0  0  0  0  0  0  0  0  0  0  0
   38.1830   26.0060   35.0070 C   0  0  1  0  0  0  0  0  0  0  0  0
   41.6550   27.0550   33.9390 C   0  0  0  0  0  0  0  0  0  0  0  0
   40.2640   27.0810   34.1530 C   0  0  0  0  0  0  0  0  0  0  0  0
   39.6410   25.9830   34.7660 C   0  0  0  0  0  0  0  0  0  0  0  0
   40.4100   24.9070   35.1390 N   0  0  0  0  0  0  0  0  0  0  0  0
   41.7510   24.9090   34.9200 C   0  0  0  0  0  0  0  0  0  0  0  0
   42.3810   25.9690   34.3240 N   0  0  0  0  0  0  0  0  0  0  0  0
   37.7940   25.2720   36.2580 C   0  0  0  0  0  0  0  0  0  0  0  0
   37.0276   27.5444   35.9085 H   0  0  0  0  0  0  0  0  0  0  0  0
   38.5027   28.0819   34.9531 H   0  0  0  0  0  0  0  0  0  0  0  0
   35.7961   27.2465   30.8194 H   0  0  0  0  0  0  0  0  0  0  0  0
   34.5665   29.2550   32.0773 H   0  0  0  0  0  0  0  0  0  0  0  0
   37.1757   30.6385   35.2436 H   0  0  0  0  0  0  0  0  0  0  0  0
   36.2643   32.3987   36.6582 H   0  0  0  0  0  0  0  0  0  0  0  0
   32.4077   30.8108   35.6802 H   0  0  0  0  0  0  0  0  0  0  0  0
   37.7242   25.4662   34.1655 H   0  0  0  0  0  0  0  0  0  0  0  0
   42.1549   27.9106   33.4615 H   0  0  0  0  0  0  0  0  0  0  0  0
   39.6708   27.9538   33.8426 H   0  0  0  0  0  0  0  0  0  0  0  0
   42.3458   24.0369   35.2293 H   0  0  0  0  0  0  0  0  0  0  0  0
   38.1036   25.8562   37.1372 H   0  0  0  0  0  0  0  0  0  0  0  0
   36.7031   25.1317   36.2766 H   0  0  0  0  0  0  0  0  0  0  0  0
   38.2903   24.2905   36.2766 H   0  0  0  0  0  0  0  0  0  0  0  0
  1 13  1  0
  2  1  1  0
  3  2  1  0
  4  5  1  0
  4  3  2  0
  5  6  2  0
  6  2  1  0
  6  7  1  0
  7 12  1  0
  7  8  2  0
  8  9  1  0
  9 10  2  0
 11 10  1  0
 12 11  2  0
 13 20  1  0
 14 15  2  0
 14 19  1  0
 15 16  1  0
 16 13  1  0
 16 17  2  0
 18 17  1  0
 19 18  2  0
  1 21  1  0
  1 22  1  0
  4 23  1  0
  5 24  1  0
  8 25  1  0
  9 26  1  0
 11 27  1  0
 13 28  1  6
 14 29  1  0
 15 30  1  0
 18 31  1  0
 20 32  1  0
 20 33  1  0
 20 34  1  0
M  ISO  8  21   8  22   8  23  14  24  14  25  14  26  14  27  14  28   8
M  ISO  6  29  14  30  14  31  14  32   8  33   8  34   8
M  END
>  <minimizedAffinity>  (1) 
-4.57715034

>  <minimizedRMSD>  (1) 
3.48202896

$$$$
