
     RDKit          3D

 34 36  0  0  1  0  0  0  0  0999 V2000
   38.3640   25.1520   35.7520 C   0  0  0  0  0  0  0  0  0  0  0  0
   39.2780   24.0830   35.5560 N   0  0  0  0  0  0  0  0  0  0  0  0
   40.5870   24.1960   35.7060 N   0  0  0  0  0  0  0  0  0  0  0  0
   41.2140   23.0370   35.4640 C   0  0  0  0  0  0  0  0  0  0  0  0
   40.2430   22.1450   35.1460 C   0  0  0  0  0  0  0  0  0  0  0  0
   39.0170   22.8360   35.2090 C   0  0  0  0  0  0  0  0  0  0  0  0
   37.8200   22.0890   34.8880 C   0  0  0  0  0  0  0  0  0  0  0  0
   37.3270   21.6920   33.6830 C   0  0  0  0  0  0  0  0  0  0  0  0
   36.1980   20.9700   33.4270 C   0  0  0  0  0  0  0  0  0  0  0  0
   35.4600   20.5890   34.4970 N   0  0  0  0  0  0  0  0  0  0  0  0
   35.8940   20.9500   35.7220 C   0  0  0  0  0  0  0  0  0  0  0  0
   37.0130   21.6590   35.8760 N   0  0  0  0  0  0  0  0  0  0  0  0
   38.7390   26.4420   35.0760 C   0  0  1  0  0  0  0  0  0  0  0  0
   36.7190   25.8130   31.9430 C   0  0  0  0  0  0  0  0  0  0  0  0
   37.1520   25.7490   33.2890 C   0  0  0  0  0  0  0  0  0  0  0  0
   38.2840   26.4870   33.6710 C   0  0  0  0  0  0  0  0  0  0  0  0
   38.9400   27.2490   32.7330 N   0  0  0  0  0  0  0  0  0  0  0  0
   38.4960   27.2880   31.4480 C   0  0  0  0  0  0  0  0  0  0  0  0
   37.3980   26.5820   31.0460 N   0  0  0  0  0  0  0  0  0  0  0  0
   38.2730   27.6290   35.8700 C   0  0  0  0  0  0  0  0  0  0  0  0
   37.3832   24.8372   35.3660 H   0  0  0  0  0  0  0  0  0  0  0  0
   38.3624   25.3605   36.8321 H   0  0  0  0  0  0  0  0  0  0  0  0
   42.2964   22.8474   35.5132 H   0  0  0  0  0  0  0  0  0  0  0  0
   40.3855   21.0852   34.8883 H   0  0  0  0  0  0  0  0  0  0  0  0
   37.9142   21.9918   32.8025 H   0  0  0  0  0  0  0  0  0  0  0  0
   35.9011   20.7096   32.4003 H   0  0  0  0  0  0  0  0  0  0  0  0
   35.3150   20.6545   36.6093 H   0  0  0  0  0  0  0  0  0  0  0  0
   39.8375   26.4890   35.0416 H   0  0  0  0  0  0  0  0  0  0  0  0
   35.8352   25.2425   31.6213 H   0  0  0  0  0  0  0  0  0  0  0  0
   36.6117   25.1324   34.0224 H   0  0  0  0  0  0  0  0  0  0  0  0
   39.0352   27.9041   30.7134 H   0  0  0  0  0  0  0  0  0  0  0  0
   38.3596   27.4085   36.9442 H   0  0  0  0  0  0  0  0  0  0  0  0
   38.8951   28.5021   35.6236 H   0  0  0  0  0  0  0  0  0  0  0  0
   37.2231   27.8457   35.6236 H   0  0  0  0  0  0  0  0  0  0  0  0
  2  3  1  0
  2  1  1  0
  4  3  2  0
  5  6  2  0
  5  4  1  0
  6  2  1  0
  7  6  1  0
  7 12  1  0
  8  7  2  0
  9  8  1  0
  9 10  2  0
 10 11  1  0
 11 12  2  0
 13  1  1  0
 13 20  1  0
 14 15  2  0
 15 16  1  0
 16 13  1  0
 17 16  2  0
 18 17  1  0
 19 18  2  0
 19 14  1  0
  1 21  1  0
  1 22  1  0
  4 23  1  0
  5 24  1  0
  8 25  1  0
  9 26  1  0
 11 27  1  0
 13 28  1  6
 14 29  1  0
 15 30  1  0
 18 31  1  0
 20 32  1  0
 20 33  1  0
 20 34  1  0
M  ISO  8  21   8  22   8  23  14  24  14  25  14  26  14  27  14  28   8
M  ISO  6  29  14  30  14  31  14  32   8  33   8  34   8
M  END
>  <minimizedAffinity>  (1) 
-4.42250586

>  <minimizedRMSD>  (1) 
5.22020054

$$$$
