
     RDKit          3D

 31 33  0  0  1  0  0  0  0  0999 V2000
   38.3050   25.2730   33.0770 C   0  0  0  0  0  0  0  0  0  0  0  0
   37.1120   25.4590   32.2840 N   0  0  0  0  0  0  0  0  0  0  0  0
   36.5670   26.6190   32.0410 N   0  0  0  0  0  0  0  0  0  0  0  0
   35.4600   26.4920   31.2710 C   0  0  0  0  0  0  0  0  0  0  0  0
   35.3150   25.1640   31.0240 C   0  0  0  0  0  0  0  0  0  0  0  0
   36.3630   24.5350   31.6700 C   0  0  0  0  0  0  0  0  0  0  0  0
   36.6610   23.1060   31.7140 C   0  0  0  0  0  0  0  0  0  0  0  0
   36.2490   22.0960   32.5140 N   0  0  0  0  0  0  0  0  0  0  0  0
   36.7990   20.9830   32.1560 O   0  0  0  0  0  0  0  0  0  0  0  0
   37.5910   21.1960   31.1140 C   0  0  0  0  0  0  0  0  0  0  0  0
   37.5050   22.5120   30.8400 N   0  0  0  0  0  0  0  0  0  0  0  0
   38.2230   25.9430   34.4440 C   0  0  1  0  0  0  0  0  0  0  0  0
   38.1060   22.6230   36.2470 C   0  0  0  0  0  0  0  0  0  0  0  0
   38.1720   23.5810   35.2190 C   0  0  0  0  0  0  0  0  0  0  0  0
   38.1530   24.9700   35.5400 C   0  0  0  0  0  0  0  0  0  0  0  0
   38.0700   25.3370   36.8470 N   0  0  0  0  0  0  0  0  0  0  0  0
   38.0070   24.3690   37.8160 C   0  0  0  0  0  0  0  0  0  0  0  0
   38.0240   23.0250   37.5260 N   0  0  0  0  0  0  0  0  0  0  0  0
   39.3210   26.9470   34.5920 C   0  0  0  0  0  0  0  0  0  0  0  0
   39.1594   25.6975   32.5294 H   0  0  0  0  0  0  0  0  0  0  0  0
   38.4216   24.1925   33.2470 H   0  0  0  0  0  0  0  0  0  0  0  0
   34.8076   27.3034   30.9160 H   0  0  0  0  0  0  0  0  0  0  0  0
   34.5229   24.6854   30.4295 H   0  0  0  0  0  0  0  0  0  0  0  0
   38.1965   20.4484   30.5807 H   0  0  0  0  0  0  0  0  0  0  0  0
   37.2740   26.4955   34.5090 H   0  0  0  0  0  0  0  0  0  0  0  0
   38.1215   21.5501   36.0047 H   0  0  0  0  0  0  0  0  0  0  0  0
   38.2382   23.2590   34.1693 H   0  0  0  0  0  0  0  0  0  0  0  0
   37.9401   24.6804   38.8689 H   0  0  0  0  0  0  0  0  0  0  0  0
   39.5145   27.1239   35.6603 H   0  0  0  0  0  0  0  0  0  0  0  0
   40.2342   26.5650   34.1123 H   0  0  0  0  0  0  0  0  0  0  0  0
   39.0221   27.8907   34.1123 H   0  0  0  0  0  0  0  0  0  0  0  0
  1 12  1  0
  2  1  1  0
  3  2  1  0
  4  3  2  0
  5  4  1  0
  5  6  2  0
  6  7  1  0
  6  2  1  0
  7  8  2  0
  9  8  1  0
 10  9  1  0
 11 10  2  0
 11  7  1  0
 12 19  1  0
 12 15  1  0
 13 18  2  0
 14 15  2  0
 14 13  1  0
 15 16  1  0
 16 17  2  0
 18 17  1  0
  1 20  1  0
  1 21  1  0
  4 22  1  0
  5 23  1  0
 10 24  1  0
 12 25  1  6
 13 26  1  0
 14 27  1  0
 17 28  1  0
 19 29  1  0
 19 30  1  0
 19 31  1  0
M  ISO  8  20   8  21   8  22  14  23  14  24  14  25   8  26  14  27  14
M  ISO  4  28  14  29   8  30   8  31   8
M  END
>  <minimizedAffinity>  (1) 
-4.37748384

>  <minimizedRMSD>  (1) 
4.6998229

$$$$
