
     RDKit          3D

 39 41  0  0  1  0  0  0  0  0999 V2000
   37.9750   24.8170   36.6340 C   0  0  1  0  0  0  0  0  0  0  0  0
   40.6990   22.3760   35.7440 C   0  0  0  0  0  0  0  0  0  0  0  0
   39.9170   23.3040   36.4590 C   0  0  0  0  0  0  0  0  0  0  0  0
   38.7520   23.8610   35.8560 C   0  0  0  0  0  0  0  0  0  0  0  0
   38.4260   23.4810   34.5940 N   0  0  0  0  0  0  0  0  0  0  0  0
   39.2100   22.5760   33.9250 C   0  0  0  0  0  0  0  0  0  0  0  0
   40.3400   22.0220   34.4860 N   0  0  0  0  0  0  0  0  0  0  0  0
   37.7840   24.4260   38.0660 C   0  0  0  0  0  0  0  0  0  0  0  0
   38.5060   26.2390   36.5420 C   0  0  0  0  0  0  0  0  0  0  0  0
   39.1220   26.5560   35.2910 N   0  0  0  0  0  0  0  0  0  0  0  0
   40.3940   26.4720   35.0260 N   0  0  0  0  0  0  0  0  0  0  0  0
   40.6940   26.8320   33.7690 C   0  0  0  0  0  0  0  0  0  0  0  0
   39.4880   27.1760   33.1920 C   0  0  0  0  0  0  0  0  0  0  0  0
   38.5330   26.9900   34.1740 C   0  0  0  0  0  0  0  0  0  0  0  0
   37.1090   27.2570   33.9310 C   0  0  0  0  0  0  0  0  0  0  0  0
   36.7400   28.5540   34.6390 C   0  0  0  0  0  0  0  0  0  0  0  0
   35.4290   28.9350   33.9730 C   0  0  0  0  0  0  0  0  0  0  0  0
   35.5320   28.4130   32.5670 C   0  0  0  0  0  0  0  0  0  0  0  0
   36.8730   27.6980   32.4820 C   0  0  0  0  0  0  0  0  0  0  0  0
   36.9836   24.7937   36.1581 H   0  0  0  0  0  0  0  0  0  0  0  0
   41.5977   21.9402   36.2049 H   0  0  0  0  0  0  0  0  0  0  0  0
   40.2045   23.5978   37.4793 H   0  0  0  0  0  0  0  0  0  0  0  0
   38.9264   22.2818   32.9037 H   0  0  0  0  0  0  0  0  0  0  0  0
   38.1727   25.2218   38.7184 H   0  0  0  0  0  0  0  0  0  0  0  0
   36.7124   24.2786   38.2661 H   0  0  0  0  0  0  0  0  0  0  0  0
   38.3264   23.4902   38.2661 H   0  0  0  0  0  0  0  0  0  0  0  0
   37.6657   26.9315   36.6978 H   0  0  0  0  0  0  0  0  0  0  0  0
   39.2864   26.3349   37.3113 H   0  0  0  0  0  0  0  0  0  0  0  0
   41.6882   26.8494   33.2987 H   0  0  0  0  0  0  0  0  0  0  0  0
   39.3213   27.5261   32.1626 H   0  0  0  0  0  0  0  0  0  0  0  0
   36.5653   26.3486   34.2298 H   0  0  0  0  0  0  0  0  0  0  0  0
   36.6044   28.3922   35.7186 H   0  0  0  0  0  0  0  0  0  0  0  0
   37.5137   29.3317   34.5578 H   0  0  0  0  0  0  0  0  0  0  0  0
   34.5812   28.4684   34.4961 H   0  0  0  0  0  0  0  0  0  0  0  0
   35.2580   30.0214   33.9956 H   0  0  0  0  0  0  0  0  0  0  0  0
   34.7109   27.7113   32.3587 H   0  0  0  0  0  0  0  0  0  0  0  0
   35.4614   29.2259   31.8293 H   0  0  0  0  0  0  0  0  0  0  0  0
   36.8188   26.8312   31.8069 H   0  0  0  0  0  0  0  0  0  0  0  0
   37.6800   28.3278   32.0793 H   0  0  0  0  0  0  0  0  0  0  0  0
  1  8  1  0
  2  3  2  0
  4  3  1  0
  4  1  1  0
  5  4  2  0
  6  7  2  0
  6  5  1  0
  7  2  1  0
  9  1  1  0
 10  9  1  0
 11 10  1  0
 12 11  2  0
 13 12  1  0
 13 14  2  0
 14 10  1  0
 15 14  1  0
 15 16  1  0
 17 16  1  0
 18 17  1  0
 19 18  1  0
 19 15  1  0
  1 20  1  6
  2 21  1  0
  3 22  1  0
  6 23  1  0
  8 24  1  0
  8 25  1  0
  8 26  1  0
  9 27  1  0
  9 28  1  0
 12 29  1  0
 13 30  1  0
 15 31  1  0
 16 32  1  0
 16 33  1  0
 17 34  1  0
 17 35  1  0
 18 36  1  0
 18 37  1  0
 19 38  1  0
 19 39  1  0
M  ISO  8  20   8  21  14  22  14  23  14  24   8  25   8  26   8  27   8
M  ISO  8  28   8  29  14  30  14  31  13  32  13  33  13  34  13  35  13
M  ISO  4  36  13  37  13  38  13  39  13
M  END
>  <minimizedAffinity>  (1) 
-4.33614826

>  <minimizedRMSD>  (1) 
1.69613659

$$$$
