
     RDKit          3D

 33 34  0  0  1  0  0  0  0  0999 V2000
   38.4560   27.0890   33.6610 C   0  0  0  0  0  0  0  0  0  0  0  0
   37.4370   27.4210   32.6930 N   0  0  0  0  0  0  0  0  0  0  0  0
   36.3050   28.0120   32.9980 N   0  0  0  0  0  0  0  0  0  0  0  0
   35.5460   28.1920   31.8980 C   0  0  0  0  0  0  0  0  0  0  0  0
   36.2590   27.6800   30.8600 C   0  0  0  0  0  0  0  0  0  0  0  0
   37.4520   27.1960   31.3770 C   0  0  0  0  0  0  0  0  0  0  0  0
   38.5010   26.5500   30.6680 N   0  0  0  0  0  0  0  0  0  0  0  0
   39.1080   27.0810   29.5060 C   0  0  0  0  0  0  0  0  0  0  0  0
   39.4360   28.3220   29.5320 N   0  0  0  0  0  0  0  0  0  0  0  0
   39.3530   26.2750   28.3630 N   0  0  0  0  0  0  0  0  0  0  0  0
   39.3090   28.9870   30.3090 H   0  0  0  0  0  0  0  0  0  0  0  0
   37.9140   26.6160   34.9910 C   0  0  1  0  0  0  0  0  0  0  0  0
   38.0690   23.2230   36.6470 C   0  0  0  0  0  0  0  0  0  0  0  0
   37.9920   24.6180   36.4640 C   0  0  0  0  0  0  0  0  0  0  0  0
   38.0010   25.1570   35.1440 C   0  0  0  0  0  0  0  0  0  0  0  0
   38.0850   24.3060   34.0930 N   0  0  0  0  0  0  0  0  0  0  0  0
   38.1600   22.9570   34.3100 C   0  0  0  0  0  0  0  0  0  0  0  0
   38.1510   22.4090   35.5730 N   0  0  0  0  0  0  0  0  0  0  0  0
   38.5220   27.3810   36.1240 C   0  0  0  0  0  0  0  0  0  0  0  0
   39.0700   27.9846   33.8371 H   0  0  0  0  0  0  0  0  0  0  0  0
   39.0340   26.2536   33.2390 H   0  0  0  0  0  0  0  0  0  0  0  0
   34.5511   28.6588   31.8503 H   0  0  0  0  0  0  0  0  0  0  0  0
   35.9477   27.6542   29.8053 H   0  0  0  0  0  0  0  0  0  0  0  0
   38.8385   25.6430   31.0207 H   0  0  0  0  0  0  0  0  0  0  0  0
   39.0810   25.2816   28.3655 H   0  0  0  0  0  0  0  0  0  0  0  0
   39.8028   26.6837   27.5314 H   0  0  0  0  0  0  0  0  0  0  0  0
   36.8366   26.8366   35.0148 H   0  0  0  0  0  0  0  0  0  0  0  0
   38.0623   22.7985   37.6618 H   0  0  0  0  0  0  0  0  0  0  0  0
   37.9253   25.2873   37.3344 H   0  0  0  0  0  0  0  0  0  0  0  0
   38.2302   22.2847   33.4422 H   0  0  0  0  0  0  0  0  0  0  0  0
   38.1824   26.9537   37.0790 H   0  0  0  0  0  0  0  0  0  0  0  0
   39.6184   27.3171   36.0630 H   0  0  0  0  0  0  0  0  0  0  0  0
   38.2122   28.4347   36.0630 H   0  0  0  0  0  0  0  0  0  0  0  0
  1 12  1  0
  2  3  1  0
  2  1  1  0
  4  3  2  0
  5  6  2  0
  5  4  1  0
  6  2  1  0
  7  6  1  0
  8  9  2  0
  8  7  1  0
  9 11  1  0
 10  8  1  0
 12 15  1  0
 12 19  1  0
 14 13  2  0
 15 14  1  0
 16 17  1  0
 16 15  2  0
 17 18  2  0
 18 13  1  0
  1 20  1  0
  1 21  1  0
  4 22  1  0
  5 23  1  0
  7 24  1  0
 10 25  1  0
 10 26  1  0
 12 27  1  6
 13 28  1  0
 14 29  1  0
 17 30  1  0
 19 31  1  0
 19 32  1  0
 19 33  1  0
M  ISO  8  20   8  21   8  22  14  23  14  27   8  28  14  29  14  30  14
M  ISO  3  31   8  32   8  33   8
M  END
>  <minimizedAffinity>  (1) 
-4.10158157

>  <minimizedRMSD>  (1) 
4.32223511

$$$$
