
     RDKit          3D

 33 35  0  0  1  0  0  0  0  0999 V2000
   38.2810   26.9480   34.0610 C   0  0  0  0  0  0  0  0  0  0  0  0
   39.5860   26.4410   34.3190 N   0  0  0  0  0  0  0  0  0  0  0  0
   40.7030   27.0850   34.0870 N   0  0  0  0  0  0  0  0  0  0  0  0
   41.7870   26.3620   34.4290 C   0  0  0  0  0  0  0  0  0  0  0  0
   41.3210   25.1790   34.9080 C   0  0  0  0  0  0  0  0  0  0  0  0
   39.9400   25.2550   34.8290 C   0  0  0  0  0  0  0  0  0  0  0  0
   39.0740   24.2000   35.2410 N   0  0  0  0  0  0  0  0  0  0  0  0
   38.8100   24.1790   36.5350 N   0  0  0  0  0  0  0  0  0  0  0  0
   37.9830   23.1460   36.8250 C   0  0  0  0  0  0  0  0  0  0  0  0
   37.7200   22.4870   35.6360 C   0  0  0  0  0  0  0  0  0  0  0  0
   38.4210   23.1760   34.6540 C   0  0  0  0  0  0  0  0  0  0  0  0
   37.9420   27.0700   32.5830 C   0  0  1  0  0  0  0  0  0  0  0  0
   35.8110   24.1870   31.4260 C   0  0  0  0  0  0  0  0  0  0  0  0
   36.2230   25.4010   32.0020 C   0  0  0  0  0  0  0  0  0  0  0  0
   37.5900   25.8010   31.9640 C   0  0  0  0  0  0  0  0  0  0  0  0
   38.4750   24.9780   31.3580 N   0  0  0  0  0  0  0  0  0  0  0  0
   38.0540   23.7990   30.8020 C   0  0  0  0  0  0  0  0  0  0  0  0
   36.7380   23.3950   30.8270 N   0  0  0  0  0  0  0  0  0  0  0  0
   36.9480   28.1650   32.3590 C   0  0  0  0  0  0  0  0  0  0  0  0
   37.5495   26.2724   34.5284 H   0  0  0  0  0  0  0  0  0  0  0  0
   38.2480   27.9651   34.4786 H   0  0  0  0  0  0  0  0  0  0  0  0
   42.8396   26.6683   34.3385 H   0  0  0  0  0  0  0  0  0  0  0  0
   41.9179   24.3341   35.2819 H   0  0  0  0  0  0  0  0  0  0  0  0
   37.5934   22.8805   37.8188 H   0  0  0  0  0  0  0  0  0  0  0  0
   37.0856   21.5992   35.4972 H   0  0  0  0  0  0  0  0  0  0  0  0
   38.4402   22.9289   33.5823 H   0  0  0  0  0  0  0  0  0  0  0  0
   38.8587   27.3653   32.0515 H   0  0  0  0  0  0  0  0  0  0  0  0
   34.7544   23.8829   31.4597 H   0  0  0  0  0  0  0  0  0  0  0  0
   35.4805   26.0507   32.4884 H   0  0  0  0  0  0  0  0  0  0  0  0
   38.7968   23.1492   30.3162 H   0  0  0  0  0  0  0  0  0  0  0  0
   36.5999   28.5484   33.3295 H   0  0  0  0  0  0  0  0  0  0  0  0
   37.4215   28.9796   31.7914 H   0  0  0  0  0  0  0  0  0  0  0  0
   36.0915   27.7723   31.7914 H   0  0  0  0  0  0  0  0  0  0  0  0
  1  2  1  0
  2  6  1  0
  3  2  1  0
  3  4  2  0
  4  5  1  0
  6  5  2  0
  6  7  1  0
  7  8  1  0
  8  9  2  0
 10  9  1  0
 11  7  1  0
 11 10  2  0
 12  1  1  0
 13 14  2  0
 15 14  1  0
 15 12  1  0
 16 15  2  0
 17 18  2  0
 17 16  1  0
 18 13  1  0
 19 12  1  0
  1 20  1  0
  1 21  1  0
  4 22  1  0
  5 23  1  0
  9 24  1  0
 10 25  1  0
 11 26  1  0
 12 27  1  6
 13 28  1  0
 14 29  1  0
 17 30  1  0
 19 31  1  0
 19 32  1  0
 19 33  1  0
M  ISO  8  20   8  21   8  22  14  23  14  24  14  25  14  26  14  27   8
M  ISO  6  28  14  29  14  30  14  31   8  32   8  33   8
M  END
>  <minimizedAffinity>  (1) 
-4.00066614

>  <minimizedRMSD>  (1) 
4.73337746

$$$$
