
     RDKit          3D

 29 30  0  0  1  0  0  0  0  0999 V2000
   38.0680   24.6450   36.2410 C   0  0  1  0  0  0  0  0  0  0  0  0
   41.0770   22.4220   35.7840 C   0  0  0  0  0  0  0  0  0  0  0  0
   40.1390   23.2900   36.3860 C   0  0  0  0  0  0  0  0  0  0  0  0
   39.0320   23.7470   35.6150 C   0  0  0  0  0  0  0  0  0  0  0  0
   38.9100   23.3310   34.3140 N   0  0  0  0  0  0  0  0  0  0  0  0
   39.8540   22.4860   33.7840 C   0  0  0  0  0  0  0  0  0  0  0  0
   40.9330   22.0310   34.5090 N   0  0  0  0  0  0  0  0  0  0  0  0
   37.6170   24.2000   37.5950 C   0  0  0  0  0  0  0  0  0  0  0  0
   38.5550   26.0870   36.2960 C   0  0  0  0  0  0  0  0  0  0  0  0
   39.2340   26.5120   35.1060 N   0  0  0  0  0  0  0  0  0  0  0  0
   40.5320   26.5760   35.0080 N   0  0  0  0  0  0  0  0  0  0  0  0
   40.9050   27.0090   33.7720 C   0  0  0  0  0  0  0  0  0  0  0  0
   39.7480   27.2230   33.0700 C   0  0  0  0  0  0  0  0  0  0  0  0
   38.7150   26.9010   33.9380 C   0  0  0  0  0  0  0  0  0  0  0  0
   37.2960   26.9920   33.5760 C   0  0  0  0  0  0  0  0  0  0  0  0
   37.0220   27.6680   32.4270 F   0  0  0  0  0  0  0  0  0  0  0  0
   36.7930   25.6960   33.3900 F   0  0  0  0  0  0  0  0  0  0  0  0
   36.5670   27.4720   34.6710 F   0  0  0  0  0  0  0  0  0  0  0  0
   37.1908   24.6017   35.5787 H   0  0  0  0  0  0  0  0  0  0  0  0
   41.9366   22.0621   36.3684 H   0  0  0  0  0  0  0  0  0  0  0  0
   40.2614   23.6074   37.4321 H   0  0  0  0  0  0  0  0  0  0  0  0
   39.7440   22.1597   32.7393 H   0  0  0  0  0  0  0  0  0  0  0  0
   38.1750   24.7506   38.3666 H   0  0  0  0  0  0  0  0  0  0  0  0
   36.5412   24.4003   37.7073 H   0  0  0  0  0  0  0  0  0  0  0  0
   37.8029   23.1217   37.7073 H   0  0  0  0  0  0  0  0  0  0  0  0
   37.6849   26.7417   36.4520 H   0  0  0  0  0  0  0  0  0  0  0  0
   39.2808   26.1500   37.1202 H   0  0  0  0  0  0  0  0  0  0  0  0
   41.9326   27.1577   33.4088 H   0  0  0  0  0  0  0  0  0  0  0  0
   39.6571   27.5770   32.0325 H   0  0  0  0  0  0  0  0  0  0  0  0
  1  9  1  0
  1  8  1  0
  2  3  2  0
  4  1  1  0
  4  3  1  0
  5  4  2  0
  6  5  1  0
  6  7  2  0
  7  2  1  0
 10  9  1  0
 11 10  1  0
 12 11  2  0
 13 12  1  0
 13 14  2  0
 14 10  1  0
 15 14  1  0
 15 18  1  0
 16 15  1  0
 17 15  1  0
  1 19  1  6
  2 20  1  0
  3 21  1  0
  6 22  1  0
  8 23  1  0
  8 24  1  0
  8 25  1  0
  9 26  1  0
  9 27  1  0
 12 28  1  0
 13 29  1  0
M  ISO  8  19   8  20  14  21  14  22  14  23   8  24   8  25   8  26   8
M  ISO  3  27   8  28  14  29  14
M  END
>  <minimizedAffinity>  (1) 
-3.89263511

>  <minimizedRMSD>  (1) 
1.7248168

$$$$
