
     RDKit          3D

 33 35  0  0  1  0  0  0  0  0999 V2000
   38.2120   24.5300   35.8240 C   0  0  1  0  0  0  0  0  0  0  0  0
   41.2890   22.4300   36.3780 C   0  0  0  0  0  0  0  0  0  0  0  0
   40.1750   23.2570   36.6030 C   0  0  0  0  0  0  0  0  0  0  0  0
   39.3490   23.6730   35.5190 C   0  0  0  0  0  0  0  0  0  0  0  0
   39.6660   23.2500   34.2760 N   0  0  0  0  0  0  0  0  0  0  0  0
   40.7630   22.4420   34.0900 C   0  0  0  0  0  0  0  0  0  0  0  0
   41.5670   22.0340   35.1190 N   0  0  0  0  0  0  0  0  0  0  0  0
   37.4440   24.1360   37.0460 C   0  0  0  0  0  0  0  0  0  0  0  0
   38.5710   26.0090   35.8870 C   0  0  0  0  0  0  0  0  0  0  0  0
   39.4860   26.4280   34.8710 N   0  0  0  0  0  0  0  0  0  0  0  0
   40.7740   26.5520   35.0240 N   0  0  0  0  0  0  0  0  0  0  0  0
   41.3860   26.9640   33.8960 C   0  0  0  0  0  0  0  0  0  0  0  0
   40.3970   27.1110   32.9600 C   0  0  0  0  0  0  0  0  0  0  0  0
   39.2190   26.7670   33.6030 C   0  0  0  0  0  0  0  0  0  0  0  0
   37.9460   26.7900   32.9600 N   0  0  0  0  0  0  0  0  0  0  0  0
   36.9780   27.7030   32.7270 C   0  0  0  0  0  0  0  0  0  0  0  0
   35.9520   27.0970   32.0320 C   0  0  0  0  0  0  0  0  0  0  0  0
   36.2800   25.8060   31.8310 N   0  0  0  0  0  0  0  0  0  0  0  0
   37.4810   25.6390   32.3950 C   0  0  0  0  0  0  0  0  0  0  0  0
   37.5448   24.3721   34.9638 H   0  0  0  0  0  0  0  0  0  0  0  0
   41.9250   22.1103   37.2167 H   0  0  0  0  0  0  0  0  0  0  0  0
   39.9386   23.5862   37.6256 H   0  0  0  0  0  0  0  0  0  0  0  0
   41.0046   22.1093   33.0697 H   0  0  0  0  0  0  0  0  0  0  0  0
   38.0095   24.4261   37.9438 H   0  0  0  0  0  0  0  0  0  0  0  0
   36.4690   24.6452   37.0463 H   0  0  0  0  0  0  0  0  0  0  0  0
   37.2889   23.0470   37.0463 H   0  0  0  0  0  0  0  0  0  0  0  0
   37.6457   26.5946   35.7824 H   0  0  0  0  0  0  0  0  0  0  0  0
   39.0696   26.1752   36.8533 H   0  0  0  0  0  0  0  0  0  0  0  0
   42.4618   27.1454   33.7556 H   0  0  0  0  0  0  0  0  0  0  0  0
   40.5137   27.4348   31.9152 H   0  0  0  0  0  0  0  0  0  0  0  0
   37.0037   28.7572   33.0402 H   0  0  0  0  0  0  0  0  0  0  0  0
   35.0241   27.5848   31.6987 H   0  0  0  0  0  0  0  0  0  0  0  0
   38.0294   24.6855   32.4024 H   0  0  0  0  0  0  0  0  0  0  0  0
  1  9  1  0
  1  8  1  0
  2  3  2  0
  4  1  1  0
  4  3  1  0
  5  4  2  0
  6  5  1  0
  6  7  2  0
  7  2  1  0
 10 11  1  0
 10  9  1  0
 12 11  2  0
 13 14  2  0
 13 12  1  0
 14 10  1  0
 15 14  1  0
 16 15  1  0
 17 16  2  0
 18 17  1  0
 18 19  2  0
 19 15  1  0
  1 20  1  6
  2 21  1  0
  3 22  1  0
  6 23  1  0
  8 24  1  0
  8 25  1  0
  8 26  1  0
  9 27  1  0
  9 28  1  0
 12 29  1  0
 13 30  1  0
 16 31  1  0
 17 32  1  0
 19 33  1  0
M  ISO  8  20   8  21  14  22  14  23  14  24   8  25   8  26   8  27   8
M  ISO  6  28   8  29  14  30  14  31  14  32  14  33  14
M  END
>  <minimizedAffinity>  (1) 
-3.87006617

>  <minimizedRMSD>  (1) 
2.72958589

$$$$
