
     RDKit          3D

 32 33  0  0  1  0  0  0  0  0999 V2000
   38.0040   24.8130   36.6450 C   0  0  1  0  0  0  0  0  0  0  0  0
   40.7560   22.4540   35.6520 C   0  0  0  0  0  0  0  0  0  0  0  0
   39.9890   23.3880   36.3760 C   0  0  0  0  0  0  0  0  0  0  0  0
   38.7690   23.8490   35.8590 C   0  0  0  0  0  0  0  0  0  0  0  0
   38.3380   23.3850   34.6530 N   0  0  0  0  0  0  0  0  0  0  0  0
   39.1030   22.4740   33.9670 C   0  0  0  0  0  0  0  0  0  0  0  0
   40.3030   22.0080   34.4550 N   0  0  0  0  0  0  0  0  0  0  0  0
   37.8270   24.4270   38.0980 C   0  0  0  0  0  0  0  0  0  0  0  0
   38.5200   26.2270   36.5500 C   0  0  0  0  0  0  0  0  0  0  0  0
   39.0900   26.5720   35.2810 N   0  0  0  0  0  0  0  0  0  0  0  0
   40.3650   26.6390   34.9950 N   0  0  0  0  0  0  0  0  0  0  0  0
   40.5900   26.9840   33.7180 C   0  0  0  0  0  0  0  0  0  0  0  0
   39.3590   27.1430   33.1670 C   0  0  0  0  0  0  0  0  0  0  0  0
   38.4120   26.8800   34.1700 C   0  0  0  0  0  0  0  0  0  0  0  0
   36.9590   26.9760   33.8950 C   0  0  0  0  0  0  0  0  0  0  0  0
   36.3660   28.3120   34.3540 C   0  0  0  0  0  0  0  0  0  0  0  0
   37.0122   24.7834   36.1702 H   0  0  0  0  0  0  0  0  0  0  0  0
   41.7131   22.0903   36.0542 H   0  0  0  0  0  0  0  0  0  0  0  0
   40.3474   23.7565   37.3485 H   0  0  0  0  0  0  0  0  0  0  0  0
   38.7449   22.1042   32.9949 H   0  0  0  0  0  0  0  0  0  0  0  0
   38.1990   25.2384   38.7409 H   0  0  0  0  0  0  0  0  0  0  0  0
   36.7603   24.2554   38.3045 H   0  0  0  0  0  0  0  0  0  0  0  0
   38.3931   23.5067   38.3045 H   0  0  0  0  0  0  0  0  0  0  0  0
   37.6818   26.9117   36.7468 H   0  0  0  0  0  0  0  0  0  0  0  0
   39.3307   26.3124   37.2885 H   0  0  0  0  0  0  0  0  0  0  0  0
   41.5640   27.1110   33.2229 H   0  0  0  0  0  0  0  0  0  0  0  0
   39.1433   27.4259   32.1261 H   0  0  0  0  0  0  0  0  0  0  0  0
   36.7964   26.8705   32.8122 H   0  0  0  0  0  0  0  0  0  0  0  0
   36.4570   26.1748   34.4573 H   0  0  0  0  0  0  0  0  0  0  0  0
   36.3501   28.3477   35.4533 H   0  0  0  0  0  0  0  0  0  0  0  0
   36.9820   29.1381   33.9691 H   0  0  0  0  0  0  0  0  0  0  0  0
   35.3401   28.4094   33.9691 H   0  0  0  0  0  0  0  0  0  0  0  0
  1  8  1  0
  2  3  2  0
  4  3  1  0
  4  1  1  0
  5  4  2  0
  6  7  2  0
  6  5  1  0
  7  2  1  0
  9  1  1  0
 10  9  1  0
 11 10  1  0
 12 11  2  0
 13 12  1  0
 13 14  2  0
 14 10  1  0
 15 14  1  0
 15 16  1  0
  1 17  1  6
  2 18  1  0
  3 19  1  0
  6 20  1  0
  8 21  1  0
  8 22  1  0
  8 23  1  0
  9 24  1  0
  9 25  1  0
 12 26  1  0
 13 27  1  0
 15 28  1  0
 15 29  1  0
 16 30  1  0
 16 31  1  0
 16 32  1  0
M  ISO  8  17   8  18  14  19  14  20  14  21   8  22   8  23   8  24   8
M  ISO  8  25   8  26  14  27  14  28   8  29   8  30   8  31   8  32   8
M  END
>  <minimizedAffinity>  (1) 
-3.74189281

>  <minimizedRMSD>  (1) 
1.22987008

$$$$
