
     RDKit          3D

 29 31  0  0  0  0  0  0  0  0999 V2000
   39.8380   22.7610   37.8640 C   0  0  0  0  0  0  0  0  0  0  0  0
   39.1130   23.5340   36.9460 C   0  0  0  0  0  0  0  0  0  0  0  0
   39.7940   23.9790   35.8280 C   0  0  0  0  0  0  0  0  0  0  0  0
   41.1140   23.6400   35.6920 N   0  0  0  0  0  0  0  0  0  0  0  0
   41.7690   22.8950   36.6020 C   0  0  0  0  0  0  0  0  0  0  0  0
   41.1160   22.4780   37.6580 N   0  0  0  0  0  0  0  0  0  0  0  0
   43.1530   22.7020   36.1860 C   0  0  0  0  0  0  0  0  0  0  0  0
   43.5720   21.6370   35.4170 C   0  0  0  0  0  0  0  0  0  0  0  0
   44.8610   21.4160   35.0020 C   0  0  0  0  0  0  0  0  0  0  0  0
   45.8430   22.2810   35.3470 C   0  0  0  0  0  0  0  0  0  0  0  0
   45.5100   23.3650   36.1120 C   0  0  0  0  0  0  0  0  0  0  0  0
   46.5160   24.2380   36.4570 C   0  0  0  0  0  0  0  0  0  0  0  0
   46.2630   25.3560   37.2260 C   0  0  0  0  0  0  0  0  0  0  0  0
   44.9430   25.5560   37.6340 C   0  0  0  0  0  0  0  0  0  0  0  0
   43.9760   24.6560   37.2620 C   0  0  0  0  0  0  0  0  0  0  0  0
   44.2010   23.5360   36.4970 C   0  0  0  0  0  0  0  0  0  0  0  0
   37.6720   23.8910   37.0970 C   0  0  0  0  0  0  0  0  0  0  0  0
   37.5330   24.3770   38.3990 F   0  0  0  0  0  0  0  0  0  0  0  0
   36.8560   22.8020   36.9630 F   0  0  0  0  0  0  0  0  0  0  0  0
   37.3260   24.9440   36.2640 F   0  0  0  0  0  0  0  0  0  0  0  0
   39.3385   22.3839   38.7686 H   0  0  0  0  0  0  0  0  0  0  0  0
   39.2880   24.5904   35.0663 H   0  0  0  0  0  0  0  0  0  0  0  0
   42.8105   20.9045   35.1112 H   0  0  0  0  0  0  0  0  0  0  0  0
   45.0966   20.5343   34.3879 H   0  0  0  0  0  0  0  0  0  0  0  0
   46.8807   22.1168   35.0211 H   0  0  0  0  0  0  0  0  0  0  0  0
   47.5422   24.0411   36.1132 H   0  0  0  0  0  0  0  0  0  0  0  0
   47.0640   26.0566   37.5043 H   0  0  0  0  0  0  0  0  0  0  0  0
   44.6798   26.4289   38.2494 H   0  0  0  0  0  0  0  0  0  0  0  0
   42.9464   24.8444   37.6004 H   0  0  0  0  0  0  0  0  0  0  0  0
  2 17  1  0
  2  1  2  0
  3  2  1  0
  4  3  2  0
  4  5  1  0
  5  6  2  0
  6  1  1  0
  7 16  1  0
  7  5  1  0
  8  7  2  0
  9 10  2  0
  9  8  1  0
 10 11  1  0
 11 12  1  0
 11 16  2  0
 12 13  2  0
 13 14  1  0
 15 14  2  0
 16 15  1  0
 17 18  1  0
 19 17  1  0
 20 17  1  0
  1 21  1  0
  3 22  1  0
  8 23  1  0
  9 24  1  0
 10 25  1  0
 12 26  1  0
 13 27  1  0
 14 28  1  0
 15 29  1  0
M  ISO  8  21  14  22  14  23  14  24  14  25  14  26  14  27  14  28  14
M  ISO  1  29  14
M  END
>  <minimizedAffinity>  (1) 
-5.42799234

>  <minimizedRMSD>  (1) 
3.3373487

$$$$
