
     RDKit          3D

 29 30  0  0  1  0  0  0  0  0999 V2000
   37.9980   24.7650   36.3560 C   0  0  1  0  0  0  0  0  0  0  0  0
   40.8650   22.4610   35.5510 C   0  0  0  0  0  0  0  0  0  0  0  0
   40.0190   23.3590   36.2420 C   0  0  0  0  0  0  0  0  0  0  0  0
   38.8470   23.8470   35.6170 C   0  0  0  0  0  0  0  0  0  0  0  0
   38.5560   23.4340   34.3440 N   0  0  0  0  0  0  0  0  0  0  0  0
   39.3990   22.5610   33.7040 C   0  0  0  0  0  0  0  0  0  0  0  0
   40.5380   22.0750   34.2870 N   0  0  0  0  0  0  0  0  0  0  0  0
   37.7150   24.3470   37.7630 C   0  0  0  0  0  0  0  0  0  0  0  0
   38.4660   26.2100   36.2980 C   0  0  0  0  0  0  0  0  0  0  0  0
   39.2010   26.5570   35.1280 N   0  0  0  0  0  0  0  0  0  0  0  0
   40.4950   26.6460   35.0140 N   0  0  0  0  0  0  0  0  0  0  0  0
   40.8420   26.9930   33.7540 C   0  0  0  0  0  0  0  0  0  0  0  0
   39.6980   27.1290   33.0330 C   0  0  0  0  0  0  0  0  0  0  0  0
   38.6890   26.8470   33.9330 C   0  0  0  0  0  0  0  0  0  0  0  0
   37.3120   26.9230   33.4620 C   0  0  0  0  0  0  0  0  0  0  0  0
   36.6500   26.0580   32.8360 O   0  0  0  0  0  0  0  0  0  0  0  0
   36.3510   27.9140   33.5480 O   0  0  0  0  0  0  0  0  0  0  0  0
   37.0397   24.7119   35.8186 H   0  0  0  0  0  0  0  0  0  0  0  0
   41.7782   22.0781   36.0300 H   0  0  0  0  0  0  0  0  0  0  0  0
   40.2716   23.6778   37.2640 H   0  0  0  0  0  0  0  0  0  0  0  0
   39.1497   22.2390   32.6822 H   0  0  0  0  0  0  0  0  0  0  0  0
   38.1929   25.0528   38.4583 H   0  0  0  0  0  0  0  0  0  0  0  0
   36.6282   24.3438   37.9330 H   0  0  0  0  0  0  0  0  0  0  0  0
   38.1157   23.3368   37.9330 H   0  0  0  0  0  0  0  0  0  0  0  0
   37.5790   26.8585   36.3489 H   0  0  0  0  0  0  0  0  0  0  0  0
   39.1542   26.3451   37.1454 H   0  0  0  0  0  0  0  0  0  0  0  0
   41.8661   27.1390   33.3798 H   0  0  0  0  0  0  0  0  0  0  0  0
   39.5982   27.4020   31.9721 H   0  0  0  0  0  0  0  0  0  0  0  0
   35.4539   27.7690   33.1552 H   0  0  0  0  0  0  0  0  0  0  0  0
  1  8  1  0
  2  3  2  0
  4  3  1  0
  4  1  1  0
  5  4  2  0
  6  7  2  0
  6  5  1  0
  7  2  1  0
  9  1  1  0
 10  9  1  0
 11 10  1  0
 12 11  2  0
 13 12  1  0
 13 14  2  0
 14 10  1  0
 15 17  1  0
 15 14  1  0
 16 15  2  0
  1 18  1  6
  2 19  1  0
  3 20  1  0
  6 21  1  0
  8 22  1  0
  8 23  1  0
  8 24  1  0
  9 25  1  0
  9 26  1  0
 12 27  1  0
 13 28  1  0
 17 29  1  0
M  ISO  8  18   8  19  14  20  14  21  14  22   8  23   8  24   8  25   8
M  ISO  4  26   8  27  14  28  14  29   3
M  END
>  <minimizedAffinity>  (1) 
-3.72636819

>  <minimizedRMSD>  (1) 
1.63665128

$$$$
