
     RDKit          3D

 28 29  0  0  1  0  0  0  0  0999 V2000
   37.9870   24.7540   36.8150 C   0  0  1  0  0  0  0  0  0  0  0  0
   40.6760   22.3850   35.6390 C   0  0  0  0  0  0  0  0  0  0  0  0
   39.9510   23.2940   36.4350 C   0  0  0  0  0  0  0  0  0  0  0  0
   38.7110   23.8110   35.9580 C   0  0  0  0  0  0  0  0  0  0  0  0
   38.2600   23.4100   34.7430 N   0  0  0  0  0  0  0  0  0  0  0  0
   39.0040   22.5220   34.0040 C   0  0  0  0  0  0  0  0  0  0  0  0
   40.1970   22.0130   34.4410 N   0  0  0  0  0  0  0  0  0  0  0  0
   37.8670   24.3200   38.2410 C   0  0  0  0  0  0  0  0  0  0  0  0
   38.5310   26.1730   36.7210 C   0  0  0  0  0  0  0  0  0  0  0  0
   38.9240   26.5500   35.3990 N   0  0  0  0  0  0  0  0  0  0  0  0
   40.1540   26.5570   34.9730 N   0  0  0  0  0  0  0  0  0  0  0  0
   40.2240   26.9590   33.6780 C   0  0  0  0  0  0  0  0  0  0  0  0
   38.9500   27.2200   33.2750 C   0  0  0  0  0  0  0  0  0  0  0  0
   38.1590   26.9530   34.3770 C   0  0  0  0  0  0  0  0  0  0  0  0
   36.7410   27.0990   34.3840 N   0  0  0  0  0  0  0  0  0  0  0  0
   36.9651   24.7563   36.4080 H   0  0  0  0  0  0  0  0  0  0  0  0
   41.6336   21.9805   35.9987 H   0  0  0  0  0  0  0  0  0  0  0  0
   40.3389   23.6024   37.4171 H   0  0  0  0  0  0  0  0  0  0  0  0
   38.6251   22.2072   33.0205 H   0  0  0  0  0  0  0  0  0  0  0  0
   38.1011   25.1668   38.9029 H   0  0  0  0  0  0  0  0  0  0  0  0
   36.8401   23.9763   38.4345 H   0  0  0  0  0  0  0  0  0  0  0  0
   38.5715   23.4976   38.4345 H   0  0  0  0  0  0  0  0  0  0  0  0
   37.7499   26.8680   37.0629 H   0  0  0  0  0  0  0  0  0  0  0  0
   39.4329   26.2145   37.3493 H   0  0  0  0  0  0  0  0  0  0  0  0
   41.1359   27.0554   33.0705 H   0  0  0  0  0  0  0  0  0  0  0  0
   38.6207   27.5685   32.2850 H   0  0  0  0  0  0  0  0  0  0  0  0
   36.2054   26.8843   35.2372 H   0  0  0  0  0  0  0  0  0  0  0  0
   36.2521   27.4192   33.5359 H   0  0  0  0  0  0  0  0  0  0  0  0
  1  8  1  0
  2  3  2  0
  4  3  1  0
  4  1  1  0
  5  4  2  0
  6  7  2  0
  6  5  1  0
  7  2  1  0
  9  1  1  0
 10  9  1  0
 11 10  1  0
 12 11  2  0
 13 12  1  0
 13 14  2  0
 14 15  1  0
 14 10  1  0
  1 16  1  6
  2 17  1  0
  3 18  1  0
  6 19  1  0
  8 20  1  0
  8 21  1  0
  8 22  1  0
  9 23  1  0
  9 24  1  0
 12 25  1  0
 13 26  1  0
 15 27  1  0
 15 28  1  0
M  ISO  8  16   8  17  14  18  14  19  14  20   8  21   8  22   8  23   8
M  ISO  3  24   8  25  14  26  14
M  END
>  <minimizedAffinity>  (1) 
-3.42414546

>  <minimizedRMSD>  (1) 
0.916886032

$$$$
