
     RDKit          3D

 29 30  0  0  1  0  0  0  0  0999 V2000
   38.5920   25.6930   35.0660 C   0  0  2  0  0  0  0  0  0  0  0  0
   39.6390   22.9350   37.2400 C   0  0  0  0  0  0  0  0  0  0  0  0
   38.8640   23.1440   38.4220 C   0  0  0  0  0  0  0  0  0  0  0  0
   37.9920   24.2380   38.4470 C   0  0  0  0  0  0  0  0  0  0  0  0
   37.9410   25.0370   37.3320 N   0  0  0  0  0  0  0  0  0  0  0  0
   38.6890   24.8080   36.2300 C   0  0  0  0  0  0  0  0  0  0  0  0
   39.5160   23.7720   36.2050 N   0  0  0  0  0  0  0  0  0  0  0  0
   39.4680   26.9030   35.2920 C   0  0  0  0  0  0  0  0  0  0  0  0
   37.1950   26.1820   34.7830 C   0  0  0  0  0  0  0  0  0  0  0  0
   37.0150   26.8490   33.5410 N   0  0  0  0  0  0  0  0  0  0  0  0
   37.3540   26.1400   32.4430 C   0  0  0  0  0  0  0  0  0  0  0  0
   37.2570   26.5850   31.1390 C   0  0  0  0  0  0  0  0  0  0  0  0
   36.7710   27.8650   30.9360 C   0  0  0  0  0  0  0  0  0  0  0  0
   36.6690   28.3060   29.7660 O   0  0  0  0  0  0  0  0  0  0  0  0
   36.4350   28.5670   32.0330 N   0  0  0  0  0  0  0  0  0  0  0  0
   36.5530   28.0790   33.2780 C   0  0  0  0  0  0  0  0  0  0  0  0
   36.2310   28.7570   34.2860 O   0  0  0  0  0  0  0  0  0  0  0  0
   38.9139   25.0958   34.2001 H   0  0  0  0  0  0  0  0  0  0  0  0
   40.3362   22.0862   37.1817 H   0  0  0  0  0  0  0  0  0  0  0  0
   38.9501   22.4667   39.2845 H   0  0  0  0  0  0  0  0  0  0  0  0
   37.3695   24.4502   39.3288 H   0  0  0  0  0  0  0  0  0  0  0  0
   39.5896   27.0710   36.3723 H   0  0  0  0  0  0  0  0  0  0  0  0
   40.4536   26.7328   34.8341 H   0  0  0  0  0  0  0  0  0  0  0  0
   38.9986   27.7862   34.8341 H   0  0  0  0  0  0  0  0  0  0  0  0
   36.5225   25.3117   34.7997 H   0  0  0  0  0  0  0  0  0  0  0  0
   36.9763   26.9300   35.5593 H   0  0  0  0  0  0  0  0  0  0  0  0
   37.7400   25.1220   32.6003 H   0  0  0  0  0  0  0  0  0  0  0  0
   37.5546   25.9465   30.2941 H   0  0  0  0  0  0  0  0  0  0  0  0
   36.0705   29.5227   31.9123 H   0  0  0  0  0  0  0  0  0  0  0  0
  1  8  1  0
  1  6  1  0
  2  3  2  0
  3  4  1  0
  5  4  2  0
  6  5  1  0
  7  6  2  0
  7  2  1  0
  9  1  1  0
 10  9  1  0
 11 10  1  0
 12 11  2  0
 13 12  1  0
 13 15  1  0
 14 13  2  0
 15 16  1  0
 16 10  1  0
 16 17  2  0
  1 18  1  6
  2 19  1  0
  3 20  1  0
  4 21  1  0
  8 22  1  0
  8 23  1  0
  8 24  1  0
  9 25  1  0
  9 26  1  0
 11 27  1  0
 12 28  1  0
 15 29  1  0
M  ISO  8  18   8  19  14  20  14  21  14  22   8  23   8  24   8  25   8
M  ISO  4  26   8  27  14  28  14  29   9
M  END
>  <minimizedAffinity>  (1) 
-4.52435923

>  <minimizedRMSD>  (1) 
3.71977806

$$$$
