
     RDKit          3D

 27 29  0  0  0  0  0  0  0  0999 V2000
   40.0640   22.6410   37.7190 C   0  0  0  0  0  0  0  0  0  0  0  0
   39.1890   23.4320   36.9610 C   0  0  0  0  0  0  0  0  0  0  0  0
   39.7170   24.0160   35.8240 C   0  0  0  0  0  0  0  0  0  0  0  0
   41.0080   23.8080   35.4990 N   0  0  0  0  0  0  0  0  0  0  0  0
   41.8190   23.0480   36.2410 C   0  0  0  0  0  0  0  0  0  0  0  0
   41.3370   22.4780   37.3350 N   0  0  0  0  0  0  0  0  0  0  0  0
   43.2490   22.6870   36.0780 C   0  0  0  0  0  0  0  0  0  0  0  0
   43.6870   21.5530   35.5080 N   0  0  0  0  0  0  0  0  0  0  0  0
   44.9790   21.2630   35.3780 C   0  0  0  0  0  0  0  0  0  0  0  0
   45.9660   22.0710   35.8030 N   0  0  0  0  0  0  0  0  0  0  0  0
   45.6140   23.2450   36.3950 C   0  0  0  0  0  0  0  0  0  0  0  0
   46.6320   24.0580   36.8240 C   0  0  0  0  0  0  0  0  0  0  0  0
   46.3230   25.2580   37.4300 C   0  0  0  0  0  0  0  0  0  0  0  0
   44.9760   25.5740   37.5710 C   0  0  0  0  0  0  0  0  0  0  0  0
   44.0270   24.7160   37.1210 C   0  0  0  0  0  0  0  0  0  0  0  0
   44.2670   23.5090   36.5110 C   0  0  0  0  0  0  0  0  0  0  0  0
   37.7600   23.6650   37.3040 C   0  0  0  0  0  0  0  0  0  0  0  0
   37.7430   24.0030   38.6590 F   0  0  0  0  0  0  0  0  0  0  0  0
   37.0010   22.5390   37.1410 F   0  0  0  0  0  0  0  0  0  0  0  0
   37.2490   24.7670   36.6360 F   0  0  0  0  0  0  0  0  0  0  0  0
   39.7027   22.1510   38.6352 H   0  0  0  0  0  0  0  0  0  0  0  0
   39.0837   24.6496   35.1857 H   0  0  0  0  0  0  0  0  0  0  0  0
   45.2540   20.3124   34.8977 H   0  0  0  0  0  0  0  0  0  0  0  0
   47.6811   23.7570   36.6866 H   0  0  0  0  0  0  0  0  0  0  0  0
   47.1105   25.9378   37.7874 H   0  0  0  0  0  0  0  0  0  0  0  0
   44.6802   26.5202   38.0477 H   0  0  0  0  0  0  0  0  0  0  0  0
   42.9761   25.0118   37.2560 H   0  0  0  0  0  0  0  0  0  0  0  0
  2 17  1  0
  2  1  2  0
  3  2  1  0
  4  3  2  0
  4  5  1  0
  5  6  2  0
  6  1  1  0
  7  5  1  0
  7 16  1  0
  8  7  2  0
  9  8  1  0
  9 10  2  0
 10 11  1  0
 11 16  2  0
 11 12  1  0
 12 13  2  0
 13 14  1  0
 15 14  2  0
 16 15  1  0
 17 18  1  0
 19 17  1  0
 20 17  1  0
  1 21  1  0
  3 22  1  0
  9 23  1  0
 12 24  1  0
 13 25  1  0
 14 26  1  0
 15 27  1  0
M  ISO  7  21  14  22  14  23  14  24  14  25  14  26  14  27  14
M  END
>  <minimizedAffinity>  (1) 
-5.28218651

>  <minimizedRMSD>  (1) 
2.70734429

$$$$
