
     RDKit          3D

 37 40  0  0  1  0  0  0  0  0999 V2000
   39.1860   24.5130   35.6710 C   0  0  0  0  0  0  0  0  0  0  0  0
   40.0780   25.4460   35.0460 N   0  0  0  0  0  0  0  0  0  0  0  0
   41.3710   25.2950   34.9870 N   0  0  0  0  0  0  0  0  0  0  0  0
   41.9730   26.3270   34.3410 C   0  0  0  0  0  0  0  0  0  0  0  0
   40.9700   27.1740   33.9760 C   0  0  0  0  0  0  0  0  0  0  0  0
   39.7860   26.5990   34.4310 C   0  0  0  0  0  0  0  0  0  0  0  0
   38.4560   27.1360   34.2760 N   0  0  0  0  0  0  0  0  0  0  0  0
   37.5960   27.6820   35.1520 C   0  0  0  0  0  0  0  0  0  0  0  0
   36.4820   28.0210   34.4780 N   0  0  0  0  0  0  0  0  0  0  0  0
   36.6590   27.6840   33.1860 C   0  0  0  0  0  0  0  0  0  0  0  0
   35.7480   27.8640   32.1540 C   0  0  0  0  0  0  0  0  0  0  0  0
   36.1820   27.4320   30.9380 N   0  0  0  0  0  0  0  0  0  0  0  0
   37.4110   26.8770   30.7920 C   0  0  0  0  0  0  0  0  0  0  0  0
   38.2850   26.7060   31.7990 N   0  0  0  0  0  0  0  0  0  0  0  0
   37.8910   27.1260   33.0350 C   0  0  0  0  0  0  0  0  0  0  0  0
   39.2700   23.1060   35.0910 C   0  0  1  0  0  0  0  0  0  0  0  0
   41.5080   21.4340   37.6310 C   0  0  0  0  0  0  0  0  0  0  0  0
   40.4590   22.1640   37.0490 C   0  0  0  0  0  0  0  0  0  0  0  0
   40.3840   22.3350   35.6370 C   0  0  0  0  0  0  0  0  0  0  0  0
   41.3500   21.7730   34.8710 N   0  0  0  0  0  0  0  0  0  0  0  0
   42.3640   21.0630   35.4680 C   0  0  0  0  0  0  0  0  0  0  0  0
   42.4500   20.8900   36.8250 N   0  0  0  0  0  0  0  0  0  0  0  0
   37.9430   22.4210   35.1790 C   0  0  0  0  0  0  0  0  0  0  0  0
   39.4303   24.4626   36.7423 H   0  0  0  0  0  0  0  0  0  0  0  0
   38.1629   24.8752   35.4917 H   0  0  0  0  0  0  0  0  0  0  0  0
   43.0492   26.4531   34.1514 H   0  0  0  0  0  0  0  0  0  0  0  0
   41.0747   28.1234   33.4303 H   0  0  0  0  0  0  0  0  0  0  0  0
   37.7714   27.8262   36.2283 H   0  0  0  0  0  0  0  0  0  0  0  0
   34.7577   28.3180   32.3061 H   0  0  0  0  0  0  0  0  0  0  0  0
   37.7113   26.5462   29.7868 H   0  0  0  0  0  0  0  0  0  0  0  0
   39.5064   23.1885   34.0199 H   0  0  0  0  0  0  0  0  0  0  0  0
   41.5633   21.3065   38.7222 H   0  0  0  0  0  0  0  0  0  0  0  0
   39.6854   22.6094   37.6918 H   0  0  0  0  0  0  0  0  0  0  0  0
   43.1395   20.6145   34.8297 H   0  0  0  0  0  0  0  0  0  0  0  0
   37.6720   22.2811   36.2359 H   0  0  0  0  0  0  0  0  0  0  0  0
   37.1787   23.0372   34.6829 H   0  0  0  0  0  0  0  0  0  0  0  0
   38.0026   21.4410   34.6829 H   0  0  0  0  0  0  0  0  0  0  0  0
  2  1  1  0
  3  2  1  0
  4  3  2  0
  5  4  1  0
  5  6  2  0
  6  2  1  0
  7  6  1  0
  7  8  1  0
  9  8  2  0
 10  9  1  0
 11 10  2  0
 12 11  1  0
 13 12  2  0
 13 14  1  0
 14 15  2  0
 15 10  1  0
 15  7  1  0
 16 23  1  0
 16 19  1  0
 16  1  1  0
 18 17  2  0
 19 18  1  0
 20 21  1  0
 20 19  2  0
 21 22  2  0
 22 17  1  0
  1 24  1  0
  1 25  1  0
  4 26  1  0
  5 27  1  0
  8 28  1  0
 11 29  1  0
 13 30  1  0
 16 31  1  6
 17 32  1  0
 18 33  1  0
 21 34  1  0
 23 35  1  0
 23 36  1  0
 23 37  1  0
M  ISO  8  24   8  25   8  26  14  27  14  28  14  29  14  30  14  31   8
M  ISO  6  32  14  33  14  34  14  35   8  36   8  37   8
M  END
>  <minimizedAffinity>  (1) 
-4.76726818

>  <minimizedRMSD>  (1) 
3.53818536

$$$$
