
     RDKit          3D

 27 29  0  0  0  0  0  0  0  0999 V2000
   39.8870   22.7230   37.8140 C   0  0  0  0  0  0  0  0  0  0  0  0
   39.0890   23.4920   36.9420 C   0  0  0  0  0  0  0  0  0  0  0  0
   39.7140   24.0280   35.8230 C   0  0  0  0  0  0  0  0  0  0  0  0
   41.0360   23.7900   35.6230 N   0  0  0  0  0  0  0  0  0  0  0  0
   41.7620   23.0460   36.4880 C   0  0  0  0  0  0  0  0  0  0  0  0
   41.1820   22.5260   37.5640 N   0  0  0  0  0  0  0  0  0  0  0  0
   43.1800   22.8230   36.2270 C   0  0  0  0  0  0  0  0  0  0  0  0
   43.7670   21.7660   35.5720 C   0  0  0  0  0  0  0  0  0  0  0  0
   45.1130   21.9560   35.5500 N   0  0  0  0  0  0  0  0  0  0  0  0
   45.3940   23.1110   36.1800 C   0  0  0  0  0  0  0  0  0  0  0  0
   46.5780   23.7590   36.4340 C   0  0  0  0  0  0  0  0  0  0  0  0
   46.6090   24.9740   37.1210 C   0  0  0  0  0  0  0  0  0  0  0  0
   45.4130   25.5280   37.5490 C   0  0  0  0  0  0  0  0  0  0  0  0
   44.2280   24.8650   37.2860 C   0  0  0  0  0  0  0  0  0  0  0  0
   44.2090   23.6600   36.6030 C   0  0  0  0  0  0  0  0  0  0  0  0
   37.6400   23.7470   37.1670 C   0  0  0  0  0  0  0  0  0  0  0  0
   37.5010   24.1710   38.4840 F   0  0  0  0  0  0  0  0  0  0  0  0
   36.8740   22.6430   36.9800 F   0  0  0  0  0  0  0  0  0  0  0  0
   37.2070   24.8380   36.4070 F   0  0  0  0  0  0  0  0  0  0  0  0
   39.4348   22.2793   38.7133 H   0  0  0  0  0  0  0  0  0  0  0  0
   39.1443   24.6385   35.1069 H   0  0  0  0  0  0  0  0  0  0  0  0
   43.2347   20.9073   35.1370 H   0  0  0  0  0  0  0  0  0  0  0  0
   45.8025   21.3215   35.1224 H   0  0  0  0  0  0  0  0  0  0  0  0
   47.5217   23.3113   36.0889 H   0  0  0  0  0  0  0  0  0  0  0  0
   47.5645   25.4819   37.3188 H   0  0  0  0  0  0  0  0  0  0  0  0
   45.4062   26.4846   38.0920 H   0  0  0  0  0  0  0  0  0  0  0  0
   43.2790   25.3046   37.6270 H   0  0  0  0  0  0  0  0  0  0  0  0
  2 16  1  0
  2  1  2  0
  3  2  1  0
  4  3  2  0
  4  5  1  0
  5  6  2  0
  6  1  1  0
  7  5  1  0
  7 15  1  0
  8  7  2  0
  9  8  1  0
  9 10  1  0
 10 11  2  0
 10 15  1  0
 11 12  1  0
 12 13  2  0
 14 13  1  0
 15 14  2  0
 16 17  1  0
 18 16  1  0
 19 16  1  0
  1 20  1  0
  3 21  1  0
  8 22  1  0
  9 23  1  0
 11 24  1  0
 12 25  1  0
 13 26  1  0
 14 27  1  0
M  ISO  8  20  14  21  14  22  14  23   9  24  14  25  14  26  14  27  14
M  END
>  <minimizedAffinity>  (1) 
-5.25937366

>  <minimizedRMSD>  (1) 
3.30589938

$$$$
