
     RDKit          3D

 48 52  0  0  1  0  0  0  0  0999 V2000
   38.9750   23.0480   35.2260 C   0  0  2  0  0  0  0  0  0  0  0  0
   41.5180   21.5020   37.5640 C   0  0  0  0  0  0  0  0  0  0  0  0
   40.3830   22.1780   37.0890 C   0  0  0  0  0  0  0  0  0  0  0  0
   40.1770   22.3350   35.6780 C   0  0  0  0  0  0  0  0  0  0  0  0
   41.0920   21.8220   34.8240 N   0  0  0  0  0  0  0  0  0  0  0  0
   42.1900   21.1680   35.3410 C   0  0  0  0  0  0  0  0  0  0  0  0
   42.4080   21.0040   36.6890 N   0  0  0  0  0  0  0  0  0  0  0  0
   38.9180   24.4680   35.7510 C   0  0  0  0  0  0  0  0  0  0  0  0
   39.8760   25.3480   35.1280 N   0  0  0  0  0  0  0  0  0  0  0  0
   41.1530   25.1240   35.0990 N   0  0  0  0  0  0  0  0  0  0  0  0
   41.8220   26.1080   34.4530 C   0  0  0  0  0  0  0  0  0  0  0  0
   40.8720   27.0050   34.0540 C   0  0  0  0  0  0  0  0  0  0  0  0
   39.6470   26.5040   34.4930 C   0  0  0  0  0  0  0  0  0  0  0  0
   38.3530   27.1100   34.3030 N   0  0  0  0  0  0  0  0  0  0  0  0
   37.5230   27.7420   35.1440 C   0  0  0  0  0  0  0  0  0  0  0  0
   36.4330   28.1170   34.4420 N   0  0  0  0  0  0  0  0  0  0  0  0
   36.6010   27.7100   33.1610 C   0  0  0  0  0  0  0  0  0  0  0  0
   35.7090   27.8990   32.1150 C   0  0  0  0  0  0  0  0  0  0  0  0
   36.1220   27.3910   30.9240 N   0  0  0  0  0  0  0  0  0  0  0  0
   37.3170   26.7610   30.8230 C   0  0  0  0  0  0  0  0  0  0  0  0
   38.1740   26.5810   31.8360 N   0  0  0  0  0  0  0  0  0  0  0  0
   37.7920   27.0800   33.0550 C   0  0  0  0  0  0  0  0  0  0  0  0
   37.6890   22.3310   35.5450 C   0  0  0  0  0  0  0  0  0  0  0  0
   37.1210   21.6220   34.4150 N   0  0  0  0  0  0  0  0  0  0  0  0
   37.6850   21.7470   33.2010 C   0  0  0  0  0  0  0  0  0  0  0  0
   37.1240   21.0610   32.1450 C   0  0  0  0  0  0  0  0  0  0  0  0
   36.0190   20.2960   32.4500 C   0  0  0  0  0  0  0  0  0  0  0  0
   35.2980   19.5150   31.5070 N   0  0  0  0  0  0  0  0  0  0  0  0
   35.4640   20.1850   33.6930 N   0  0  0  0  0  0  0  0  0  0  0  0
   36.0420   20.8780   34.7160 C   0  0  0  0  0  0  0  0  0  0  0  0
   35.5670   20.8050   35.8770 O   0  0  0  0  0  0  0  0  0  0  0  0
   39.0672   23.0784   34.1303 H   0  0  0  0  0  0  0  0  0  0  0  0
   41.6778   21.3807   38.6456 H   0  0  0  0  0  0  0  0  0  0  0  0
   39.6505   22.5879   37.7999 H   0  0  0  0  0  0  0  0  0  0  0  0
   42.9300   20.7560   34.6391 H   0  0  0  0  0  0  0  0  0  0  0  0
   37.9089   24.8666   35.5695 H   0  0  0  0  0  0  0  0  0  0  0  0
   39.1628   24.4280   36.8227 H   0  0  0  0  0  0  0  0  0  0  0  0
   42.9071   26.1720   34.2842 H   0  0  0  0  0  0  0  0  0  0  0  0
   41.0402   27.9382   33.4965 H   0  0  0  0  0  0  0  0  0  0  0  0
   37.6986   27.9228   36.2147 H   0  0  0  0  0  0  0  0  0  0  0  0
   34.7468   28.4173   32.2395 H   0  0  0  0  0  0  0  0  0  0  0  0
   37.6044   26.3685   29.8364 H   0  0  0  0  0  0  0  0  0  0  0  0
   37.8862   21.6046   36.3472 H   0  0  0  0  0  0  0  0  0  0  0  0
   36.9589   23.0979   35.8432 H   0  0  0  0  0  0  0  0  0  0  0  0
   38.5719   22.3808   33.0540 H   0  0  0  0  0  0  0  0  0  0  0  0
   37.5319   21.1204   31.1251 H   0  0  0  0  0  0  0  0  0  0  0  0
   34.4798   18.9676   31.8099 H   0  0  0  0  0  0  0  0  0  0  0  0
   35.5936   19.4963   30.5205 H   0  0  0  0  0  0  0  0  0  0  0  0
  1 23  1  0
  1  4  1  0
  1  8  1  0
  3  2  2  0
  4  3  1  0
  5  6  1  0
  5  4  2  0
  6  7  2  0
  7  2  1  0
  9  8  1  0
 10  9  1  0
 11 10  2  0
 12 11  1  0
 12 13  2  0
 13  9  1  0
 14 13  1  0
 14 15  1  0
 16 15  2  0
 17 16  1  0
 18 17  2  0
 19 18  1  0
 20 19  2  0
 20 21  1  0
 21 22  2  0
 22 17  1  0
 22 14  1  0
 24 30  1  0
 24 23  1  0
 25 24  1  0
 26 27  1  0
 26 25  2  0
 27 29  2  0
 28 27  1  0
 29 30  1  0
 30 31  2  0
  1 32  1  6
  2 33  1  0
  3 34  1  0
  6 35  1  0
  8 36  1  0
  8 37  1  0
 11 38  1  0
 12 39  1  0
 15 40  1  0
 18 41  1  0
 20 42  1  0
 23 43  1  0
 23 44  1  0
 25 45  1  0
 26 46  1  0
 28 47  1  0
 28 48  1  0
M  ISO  8  32   8  33  14  34  14  35  14  36   8  37   8  38  14  39  14
M  ISO  7  40  14  41  14  42  14  43   8  44   8  45  14  46  14
M  END
>  <minimizedAffinity>  (1) 
-6.08613348

>  <minimizedRMSD>  (1) 
1.12081385

$$$$
