
     RDKit          3D

 47 51  0  0  1  0  0  0  0  0999 V2000
   39.1270   23.0820   35.2160 C   0  0  2  0  0  0  0  0  0  0  0  0
   41.5600   21.4440   37.5930 C   0  0  0  0  0  0  0  0  0  0  0  0
   40.4580   22.1550   37.0900 C   0  0  0  0  0  0  0  0  0  0  0  0
   40.2910   22.3360   35.6790 C   0  0  0  0  0  0  0  0  0  0  0  0
   41.2160   21.8070   34.8530 N   0  0  0  0  0  0  0  0  0  0  0  0
   42.2840   21.1160   35.3810 C   0  0  0  0  0  0  0  0  0  0  0  0
   42.4640   20.9320   36.7220 N   0  0  0  0  0  0  0  0  0  0  0  0
   39.0820   24.5010   35.7420 C   0  0  0  0  0  0  0  0  0  0  0  0
   40.0000   25.3920   35.1030 N   0  0  0  0  0  0  0  0  0  0  0  0
   41.2820   25.2010   35.0540 N   0  0  0  0  0  0  0  0  0  0  0  0
   41.9130   26.2020   34.3860 C   0  0  0  0  0  0  0  0  0  0  0  0
   40.9340   27.0680   33.9990 C   0  0  0  0  0  0  0  0  0  0  0  0
   39.7310   26.5340   34.4640 C   0  0  0  0  0  0  0  0  0  0  0  0
   38.4210   27.1070   34.2920 N   0  0  0  0  0  0  0  0  0  0  0  0
   37.5770   27.6910   35.1640 C   0  0  0  0  0  0  0  0  0  0  0  0
   36.4750   28.0530   34.4760 N   0  0  0  0  0  0  0  0  0  0  0  0
   36.6430   27.6930   33.1910 C   0  0  0  0  0  0  0  0  0  0  0  0
   35.7450   27.8810   32.1450 C   0  0  0  0  0  0  0  0  0  0  0  0
   36.1680   27.4180   30.9400 N   0  0  0  0  0  0  0  0  0  0  0  0
   37.3810   26.8240   30.8080 C   0  0  0  0  0  0  0  0  0  0  0  0
   38.2460   26.6440   31.8240 N   0  0  0  0  0  0  0  0  0  0  0  0
   37.8570   27.0960   33.0510 C   0  0  0  0  0  0  0  0  0  0  0  0
   37.8090   22.3960   35.4780 C   0  0  0  0  0  0  0  0  0  0  0  0
   37.2100   21.7960   34.2570 C   0  0  0  0  0  0  0  0  0  0  0  0
   36.1180   20.9470   34.3860 C   0  0  0  0  0  0  0  0  0  0  0  0
   35.4830   20.3350   33.3250 C   0  0  0  0  0  0  0  0  0  0  0  0
   35.9830   20.6000   32.0660 C   0  0  0  0  0  0  0  0  0  0  0  0
   37.0680   21.4380   31.8900 C   0  0  0  0  0  0  0  0  0  0  0  0
   37.6830   22.0370   32.9740 C   0  0  0  0  0  0  0  0  0  0  0  0
   39.2635   23.1198   34.1252 H   0  0  0  0  0  0  0  0  0  0  0  0
   41.6875   21.3048   38.6767 H   0  0  0  0  0  0  0  0  0  0  0  0
   39.7171   22.5763   37.7854 H   0  0  0  0  0  0  0  0  0  0  0  0
   43.0272   20.6922   34.6896 H   0  0  0  0  0  0  0  0  0  0  0  0
   38.0640   24.8911   35.5956 H   0  0  0  0  0  0  0  0  0  0  0  0
   39.3721   24.4547   36.8020 H   0  0  0  0  0  0  0  0  0  0  0  0
   42.9926   26.2945   34.1964 H   0  0  0  0  0  0  0  0  0  0  0  0
   41.0658   28.0019   33.4329 H   0  0  0  0  0  0  0  0  0  0  0  0
   37.7538   27.8444   36.2388 H   0  0  0  0  0  0  0  0  0  0  0  0
   34.7679   28.3670   32.2831 H   0  0  0  0  0  0  0  0  0  0  0  0
   37.6756   26.4678   29.8098 H   0  0  0  0  0  0  0  0  0  0  0  0
   37.9710   21.5974   36.2169 H   0  0  0  0  0  0  0  0  0  0  0  0
   37.1087   23.1610   35.8444 H   0  0  0  0  0  0  0  0  0  0  0  0
   35.7353   20.7502   35.3983 H   0  0  0  0  0  0  0  0  0  0  0  0
   34.6207   19.6687   33.4750 H   0  0  0  0  0  0  0  0  0  0  0  0
   35.5099   20.1364   31.1878 H   0  0  0  0  0  0  0  0  0  0  0  0
   37.4468   21.6307   30.8754 H   0  0  0  0  0  0  0  0  0  0  0  0
   38.5450   22.7029   32.8202 H   0  0  0  0  0  0  0  0  0  0  0  0
  1 23  1  0
  1  4  1  0
  1  8  1  0
  3  2  2  0
  4  3  1  0
  5  6  1  0
  5  4  2  0
  6  7  2  0
  7  2  1  0
  9  8  1  0
 10  9  1  0
 11 10  2  0
 12 11  1  0
 12 13  2  0
 13  9  1  0
 14 13  1  0
 14 15  1  0
 16 15  2  0
 17 16  1  0
 18 17  2  0
 19 18  1  0
 20 19  2  0
 20 21  1  0
 21 22  2  0
 22 17  1  0
 22 14  1  0
 24 25  2  0
 24 23  1  0
 26 25  1  0
 27 26  2  0
 28 27  1  0
 28 29  2  0
 29 24  1  0
  1 30  1  6
  2 31  1  0
  3 32  1  0
  6 33  1  0
  8 34  1  0
  8 35  1  0
 11 36  1  0
 12 37  1  0
 15 38  1  0
 18 39  1  0
 20 40  1  0
 23 41  1  0
 23 42  1  0
 25 43  1  0
 26 44  1  0
 27 45  1  0
 28 46  1  0
 29 47  1  0
M  ISO  8  30   8  31  14  32  14  33  14  34   8  35   8  36  14  37  14
M  ISO  8  38  14  39  14  40  14  41   8  42   8  43  14  44  14  45  14
M  ISO  2  46  14  47  14
M  END
>  <minimizedAffinity>  (1) 
-5.7358551

>  <minimizedRMSD>  (1) 
1.11677706

$$$$
