
     RDKit          3D

 52 56  0  0  1  0  0  0  0  0999 V2000
   39.1450   24.4490   35.5360 C   0  0  0  0  0  0  0  0  0  0  0  0
   40.0400   25.4280   34.9800 N   0  0  0  0  0  0  0  0  0  0  0  0
   41.3440   25.2840   34.9480 N   0  0  0  0  0  0  0  0  0  0  0  0
   41.9470   26.3520   34.3700 C   0  0  0  0  0  0  0  0  0  0  0  0
   40.9560   27.2120   34.0190 C   0  0  0  0  0  0  0  0  0  0  0  0
   39.7700   26.6050   34.4150 C   0  0  0  0  0  0  0  0  0  0  0  0
   38.4380   27.1410   34.2490 N   0  0  0  0  0  0  0  0  0  0  0  0
   37.5680   27.6860   35.1300 C   0  0  0  0  0  0  0  0  0  0  0  0
   36.4620   28.0260   34.4470 N   0  0  0  0  0  0  0  0  0  0  0  0
   36.6480   27.6950   33.1560 C   0  0  0  0  0  0  0  0  0  0  0  0
   35.7450   27.8790   32.1150 C   0  0  0  0  0  0  0  0  0  0  0  0
   36.1910   27.4510   30.8920 N   0  0  0  0  0  0  0  0  0  0  0  0
   37.4130   26.9010   30.7650 C   0  0  0  0  0  0  0  0  0  0  0  0
   38.2730   26.7290   31.7770 N   0  0  0  0  0  0  0  0  0  0  0  0
   37.8810   27.1380   33.0090 C   0  0  0  0  0  0  0  0  0  0  0  0
   39.2900   23.0590   34.8940 C   0  0  1  0  0  0  0  0  0  0  0  0
   41.4470   21.4500   37.5650 C   0  0  0  0  0  0  0  0  0  0  0  0
   40.4240   22.1670   36.9390 C   0  0  0  0  0  0  0  0  0  0  0  0
   40.3830   22.3070   35.5130 C   0  0  0  0  0  0  0  0  0  0  0  0
   41.3680   21.7210   34.8100 N   0  0  0  0  0  0  0  0  0  0  0  0
   42.3610   21.0230   35.4470 C   0  0  0  0  0  0  0  0  0  0  0  0
   42.4080   20.8850   36.8120 N   0  0  0  0  0  0  0  0  0  0  0  0
   37.9760   22.3690   34.9100 C   0  0  0  0  0  0  0  0  0  0  0  0
   37.2350   22.2670   33.7330 N   0  0  0  0  0  0  0  0  0  0  0  0
   36.6490   21.0440   33.3490 C   0  0  0  0  0  0  0  0  0  0  0  0
   35.3830   21.3740   32.5470 C   0  0  0  0  0  0  0  0  0  0  0  0
   35.7600   22.2330   31.3740 C   0  0  0  0  0  0  0  0  0  0  0  0
   36.4500   23.4850   31.8750 C   0  0  0  0  0  0  0  0  0  0  0  0
   37.7230   23.0340   32.6120 C   0  0  0  0  0  0  0  0  0  0  0  0
   39.3507   24.3595   36.6129 H   0  0  0  0  0  0  0  0  0  0  0  0
   38.1197   24.7945   35.3374 H   0  0  0  0  0  0  0  0  0  0  0  0
   43.0268   26.4941   34.2156 H   0  0  0  0  0  0  0  0  0  0  0  0
   41.0688   28.1876   33.5235 H   0  0  0  0  0  0  0  0  0  0  0  0
   37.7354   27.8253   36.2082 H   0  0  0  0  0  0  0  0  0  0  0  0
   34.7531   28.3314   32.2612 H   0  0  0  0  0  0  0  0  0  0  0  0
   37.7260   26.5709   29.7635 H   0  0  0  0  0  0  0  0  0  0  0  0
   39.5794   23.1518   33.8368 H   0  0  0  0  0  0  0  0  0  0  0  0
   41.4663   21.3488   38.6602 H   0  0  0  0  0  0  0  0  0  0  0  0
   39.6369   22.6318   37.5508 H   0  0  0  0  0  0  0  0  0  0  0  0
   43.1508   20.5553   34.8409 H   0  0  0  0  0  0  0  0  0  0  0  0
   38.1587   21.3429   35.2619 H   0  0  0  0  0  0  0  0  0  0  0  0
   37.3552   23.0148   35.5484 H   0  0  0  0  0  0  0  0  0  0  0  0
   37.3504   20.4704   32.7253 H   0  0  0  0  0  0  0  0  0  0  0  0
   36.4020   20.4371   34.2326 H   0  0  0  0  0  0  0  0  0  0  0  0
   34.9196   20.4429   32.1889 H   0  0  0  0  0  0  0  0  0  0  0  0
   34.6661   21.9101   33.1863 H   0  0  0  0  0  0  0  0  0  0  0  0
   34.8542   22.5107   30.8151 H   0  0  0  0  0  0  0  0  0  0  0  0
   36.4393   21.6765   30.7115 H   0  0  0  0  0  0  0  0  0  0  0  0
   36.7144   24.1351   31.0280 H   0  0  0  0  0  0  0  0  0  0  0  0
   35.7899   24.0550   32.5454 H   0  0  0  0  0  0  0  0  0  0  0  0
   38.3515   22.4114   31.9583 H   0  0  0  0  0  0  0  0  0  0  0  0
   38.3496   23.8822   32.9248 H   0  0  0  0  0  0  0  0  0  0  0  0
  2  1  1  0
  3  2  1  0
  4  3  2  0
  5  4  1  0
  5  6  2  0
  6  2  1  0
  7  6  1  0
  7  8  1  0
  9  8  2  0
 10  9  1  0
 11 10  2  0
 12 11  1  0
 13 12  2  0
 13 14  1  0
 14 15  2  0
 15 10  1  0
 15  7  1  0
 16 23  1  0
 16 19  1  0
 16  1  1  0
 18 17  2  0
 19 18  1  0
 20 21  1  0
 20 19  2  0
 21 22  2  0
 22 17  1  0
 24 23  1  0
 25 24  1  0
 26 25  1  0
 27 28  1  0
 27 26  1  0
 28 29  1  0
 29 24  1  0
  1 30  1  0
  1 31  1  0
  4 32  1  0
  5 33  1  0
  8 34  1  0
 11 35  1  0
 13 36  1  0
 16 37  1  6
 17 38  1  0
 18 39  1  0
 21 40  1  0
 23 41  1  0
 23 42  1  0
 25 43  1  0
 25 44  1  0
 26 45  1  0
 26 46  1  0
 27 47  1  0
 27 48  1  0
 28 49  1  0
 28 50  1  0
 29 51  1  0
 29 52  1  0
M  ISO  8  30   8  31   8  32  14  33  14  34  14  35  14  36  14  37   8
M  ISO  8  38  14  39  14  40  14  41   8  42   8  43  13  44  13  45  13
M  ISO  7  46  13  47  13  48  13  49  13  50  13  51  13  52  13
M  END
>  <minimizedAffinity>  (1) 
-5.68816757

>  <minimizedRMSD>  (1) 
1.49596322

$$$$
