
     RDKit          3D

 45 49  0  0  1  0  0  0  0  0999 V2000
   39.1740   24.3760   35.4820 C   0  0  0  0  0  0  0  0  0  0  0  0
   40.0840   25.3630   34.9660 N   0  0  0  0  0  0  0  0  0  0  0  0
   41.3680   25.2240   34.9510 N   0  0  0  0  0  0  0  0  0  0  0  0
   41.9860   26.3060   34.4100 C   0  0  0  0  0  0  0  0  0  0  0  0
   40.9870   27.1710   34.0690 C   0  0  0  0  0  0  0  0  0  0  0  0
   39.7930   26.5540   34.4290 C   0  0  0  0  0  0  0  0  0  0  0  0
   38.4640   27.0920   34.2630 N   0  0  0  0  0  0  0  0  0  0  0  0
   37.6100   27.6500   35.1340 C   0  0  0  0  0  0  0  0  0  0  0  0
   36.4890   27.9910   34.4690 N   0  0  0  0  0  0  0  0  0  0  0  0
   36.6780   27.6290   33.1760 C   0  0  0  0  0  0  0  0  0  0  0  0
   35.7590   27.8010   32.1370 C   0  0  0  0  0  0  0  0  0  0  0  0
   36.2040   27.3470   30.9280 N   0  0  0  0  0  0  0  0  0  0  0  0
   37.4230   26.7910   30.7920 C   0  0  0  0  0  0  0  0  0  0  0  0
   38.2950   26.6320   31.8040 N   0  0  0  0  0  0  0  0  0  0  0  0
   37.9020   27.0670   33.0240 C   0  0  0  0  0  0  0  0  0  0  0  0
   39.3510   22.9950   34.8980 C   0  0  1  0  0  0  0  0  0  0  0  0
   41.4780   21.4420   37.6060 C   0  0  0  0  0  0  0  0  0  0  0  0
   40.4510   22.1430   36.9440 C   0  0  0  0  0  0  0  0  0  0  0  0
   40.4460   22.2550   35.5350 C   0  0  0  0  0  0  0  0  0  0  0  0
   41.4640   21.6640   34.8500 N   0  0  0  0  0  0  0  0  0  0  0  0
   42.4450   20.9920   35.5180 C   0  0  0  0  0  0  0  0  0  0  0  0
   42.4680   20.8720   36.8740 N   0  0  0  0  0  0  0  0  0  0  0  0
   38.0780   22.2380   34.8320 C   0  0  0  0  0  0  0  0  0  0  0  0
   37.3370   22.2810   33.5770 C   0  0  0  0  0  0  0  0  0  0  0  0
   37.4680   23.1300   32.4990 C   0  0  0  0  0  0  0  0  0  0  0  0
   36.6800   23.0610   31.3750 C   0  0  0  0  0  0  0  0  0  0  0  0
   35.7260   22.1280   31.2940 N   0  0  0  0  0  0  0  0  0  0  0  0
   35.5710   21.2840   32.3300 C   0  0  0  0  0  0  0  0  0  0  0  0
   36.3440   21.3530   33.4300 N   0  0  0  0  0  0  0  0  0  0  0  0
   39.3197   24.3100   36.5703 H   0  0  0  0  0  0  0  0  0  0  0  0
   38.1627   24.7065   35.2026 H   0  0  0  0  0  0  0  0  0  0  0  0
   43.0675   26.4542   34.2748 H   0  0  0  0  0  0  0  0  0  0  0  0
   41.1028   28.1602   33.6020 H   0  0  0  0  0  0  0  0  0  0  0  0
   37.7936   27.8030   36.2077 H   0  0  0  0  0  0  0  0  0  0  0  0
   34.7693   28.2594   32.2797 H   0  0  0  0  0  0  0  0  0  0  0  0
   37.7242   26.4456   29.7920 H   0  0  0  0  0  0  0  0  0  0  0  0
   39.6605   23.1303   33.8511 H   0  0  0  0  0  0  0  0  0  0  0  0
   41.4773   21.3578   38.7028 H   0  0  0  0  0  0  0  0  0  0  0  0
   39.6444   22.6081   37.5298 H   0  0  0  0  0  0  0  0  0  0  0  0
   43.2535   20.5263   34.9353 H   0  0  0  0  0  0  0  0  0  0  0  0
   38.3097   21.1835   35.0426 H   0  0  0  0  0  0  0  0  0  0  0  0
   37.4202   22.7287   35.5645 H   0  0  0  0  0  0  0  0  0  0  0  0
   38.2466   23.9060   32.5406 H   0  0  0  0  0  0  0  0  0  0  0  0
   36.8334   23.7690   30.5473 H   0  0  0  0  0  0  0  0  0  0  0  0
   34.7880   20.5132   32.2766 H   0  0  0  0  0  0  0  0  0  0  0  0
  2  1  1  0
  3  2  1  0
  4  3  2  0
  5  4  1  0
  5  6  2  0
  6  2  1  0
  7  6  1  0
  7  8  1  0
  9  8  2  0
 10  9  1  0
 11 10  2  0
 12 11  1  0
 13 12  2  0
 13 14  1  0
 14 15  2  0
 15 10  1  0
 15  7  1  0
 16  1  1  0
 16 19  1  0
 18 17  2  0
 19 18  1  0
 20 21  1  0
 20 19  2  0
 21 22  2  0
 22 17  1  0
 23 16  1  0
 24 23  1  0
 25 24  2  0
 26 25  1  0
 27 26  2  0
 27 28  1  0
 28 29  2  0
 29 24  1  0
  1 30  1  0
  1 31  1  0
  4 32  1  0
  5 33  1  0
  8 34  1  0
 11 35  1  0
 13 36  1  0
 16 37  1  6
 17 38  1  0
 18 39  1  0
 21 40  1  0
 23 41  1  0
 23 42  1  0
 25 43  1  0
 26 44  1  0
 28 45  1  0
M  ISO  8  30   8  31   8  32  14  33  14  34  14  35  14  36  14  37   8
M  ISO  8  38  14  39  14  40  14  41   8  42   8  43  14  44  14  45  14
M  END
>  <minimizedAffinity>  (1) 
-5.43750477

>  <minimizedRMSD>  (1) 
0.995063901

$$$$
