
     RDKit          3D

 51 55  0  0  1  0  0  0  0  0999 V2000
   39.1300   24.2910   35.3100 C   0  0  0  0  0  0  0  0  0  0  0  0
   40.0460   25.3010   34.8790 N   0  0  0  0  0  0  0  0  0  0  0  0
   41.3410   25.1490   34.8710 N   0  0  0  0  0  0  0  0  0  0  0  0
   41.9700   26.2610   34.4170 C   0  0  0  0  0  0  0  0  0  0  0  0
   40.9880   27.1590   34.1260 C   0  0  0  0  0  0  0  0  0  0  0  0
   39.7860   26.5320   34.4260 C   0  0  0  0  0  0  0  0  0  0  0  0
   38.4620   27.0910   34.2800 N   0  0  0  0  0  0  0  0  0  0  0  0
   37.5980   27.6050   35.1660 C   0  0  0  0  0  0  0  0  0  0  0  0
   36.4920   27.9910   34.5030 N   0  0  0  0  0  0  0  0  0  0  0  0
   36.6810   27.7100   33.1930 C   0  0  0  0  0  0  0  0  0  0  0  0
   35.7860   27.9460   32.1520 C   0  0  0  0  0  0  0  0  0  0  0  0
   36.2270   27.5680   30.9310 N   0  0  0  0  0  0  0  0  0  0  0  0
   37.4530   27.0050   30.7710 C   0  0  0  0  0  0  0  0  0  0  0  0
   38.3120   26.7790   31.7810 N   0  0  0  0  0  0  0  0  0  0  0  0
   37.9090   27.1460   33.0290 C   0  0  0  0  0  0  0  0  0  0  0  0
   39.4080   22.9230   34.7260 C   0  0  1  0  0  0  0  0  0  0  0  0
   41.4200   21.4910   37.5910 C   0  0  0  0  0  0  0  0  0  0  0  0
   40.4210   22.1550   36.8620 C   0  0  0  0  0  0  0  0  0  0  0  0
   40.4700   22.2200   35.4320 C   0  0  0  0  0  0  0  0  0  0  0  0
   41.5140   21.6150   34.8140 N   0  0  0  0  0  0  0  0  0  0  0  0
   42.4760   20.9730   35.5610 C   0  0  0  0  0  0  0  0  0  0  0  0
   42.4330   20.9110   36.9230 N   0  0  0  0  0  0  0  0  0  0  0  0
   38.1530   22.1240   34.5860 C   0  0  0  0  0  0  0  0  0  0  0  0
   37.2990   22.4510   33.5090 N   0  0  0  0  0  0  0  0  0  0  0  0
   36.3560   21.3240   33.4100 C   0  0  0  0  0  0  0  0  0  0  0  0
   35.3890   21.5430   32.2660 C   0  0  0  0  0  0  0  0  0  0  0  0
   36.1300   21.3750   31.0530 N   0  0  0  0  0  0  0  0  0  0  0  0
   37.5380   21.6160   31.1920 C   0  0  0  0  0  0  0  0  0  0  0  0
   37.8870   22.6540   32.2310 C   0  0  0  0  0  0  0  0  0  0  0  0
   39.1856   24.2177   36.4061 H   0  0  0  0  0  0  0  0  0  0  0  0
   38.1326   24.5925   34.9575 H   0  0  0  0  0  0  0  0  0  0  0  0
   43.0544   26.4083   34.3061 H   0  0  0  0  0  0  0  0  0  0  0  0
   41.1207   28.1774   33.7320 H   0  0  0  0  0  0  0  0  0  0  0  0
   37.7642   27.6959   36.2496 H   0  0  0  0  0  0  0  0  0  0  0  0
   34.7984   28.4037   32.3108 H   0  0  0  0  0  0  0  0  0  0  0  0
   37.7614   26.7169   29.7552 H   0  0  0  0  0  0  0  0  0  0  0  0
   39.7940   23.0718   33.7067 H   0  0  0  0  0  0  0  0  0  0  0  0
   41.3751   21.4458   38.6892 H   0  0  0  0  0  0  0  0  0  0  0  0
   39.5874   22.6330   37.3974 H   0  0  0  0  0  0  0  0  0  0  0  0
   43.3143   20.4899   35.0376 H   0  0  0  0  0  0  0  0  0  0  0  0
   38.4428   21.0691   34.4707 H   0  0  0  0  0  0  0  0  0  0  0  0
   37.5694   22.3496   35.4907 H   0  0  0  0  0  0  0  0  0  0  0  0
   36.9187   20.3950   33.2360 H   0  0  0  0  0  0  0  0  0  0  0  0
   35.7872   21.2516   34.3487 H   0  0  0  0  0  0  0  0  0  0  0  0
   34.5730   20.8070   32.3151 H   0  0  0  0  0  0  0  0  0  0  0  0
   34.9420   22.5468   32.3168 H   0  0  0  0  0  0  0  0  0  0  0  0
   35.7567   22.0306   30.3518 H   0  0  0  0  0  0  0  0  0  0  0  0
   38.0242   20.6699   31.4722 H   0  0  0  0  0  0  0  0  0  0  0  0
   37.8898   22.0049   30.2251 H   0  0  0  0  0  0  0  0  0  0  0  0
   38.9799   22.6570   32.3556 H   0  0  0  0  0  0  0  0  0  0  0  0
   37.4853   23.6075   31.8576 H   0  0  0  0  0  0  0  0  0  0  0  0
  2  1  1  0
  3  2  1  0
  4  3  2  0
  5  4  1  0
  5  6  2  0
  6  2  1  0
  7  6  1  0
  7  8  1  0
  9  8  2  0
 10  9  1  0
 11 10  2  0
 12 11  1  0
 13 12  2  0
 13 14  1  0
 14 15  2  0
 15 10  1  0
 15  7  1  0
 16  1  1  0
 16 19  1  0
 18 17  2  0
 19 18  1  0
 20 19  2  0
 20 21  1  0
 21 22  2  0
 22 17  1  0
 23 16  1  0
 24 23  1  0
 25 24  1  0
 26 25  1  0
 27 28  1  0
 27 26  1  0
 28 29  1  0
 29 24  1  0
  1 30  1  0
  1 31  1  0
  4 32  1  0
  5 33  1  0
  8 34  1  0
 11 35  1  0
 13 36  1  0
 16 37  1  6
 17 38  1  0
 18 39  1  0
 21 40  1  0
 23 41  1  0
 23 42  1  0
 25 43  1  0
 25 44  1  0
 26 45  1  0
 26 46  1  0
 27 47  1  0
 28 48  1  0
 28 49  1  0
 29 50  1  0
 29 51  1  0
M  ISO  8  30   8  31   8  32  14  33  14  34  14  35  14  36  14  37   8
M  ISO  8  38  14  39  14  40  14  41   8  42   8  43  13  44  13  45  13
M  ISO  6  46  13  47   5  48  13  49  13  50  13  51  13
M  END
>  <minimizedAffinity>  (1) 
-5.33296537

>  <minimizedRMSD>  (1) 
0.768525779

$$$$
