
     RDKit          3D

 44 48  0  0  1  0  0  0  0  0999 V2000
   39.0030   24.4380   35.6080 C   0  0  0  0  0  0  0  0  0  0  0  0
   39.9370   25.3560   35.0470 N   0  0  0  0  0  0  0  0  0  0  0  0
   41.2220   25.1610   35.0190 N   0  0  0  0  0  0  0  0  0  0  0  0
   41.8820   26.1920   34.4250 C   0  0  0  0  0  0  0  0  0  0  0  0
   40.9190   27.0860   34.0640 C   0  0  0  0  0  0  0  0  0  0  0  0
   39.6960   26.5370   34.4670 C   0  0  0  0  0  0  0  0  0  0  0  0
   38.3970   27.1270   34.2930 N   0  0  0  0  0  0  0  0  0  0  0  0
   37.5420   27.6860   35.1730 C   0  0  0  0  0  0  0  0  0  0  0  0
   36.4600   28.0830   34.4800 N   0  0  0  0  0  0  0  0  0  0  0  0
   36.6410   27.7730   33.1850 C   0  0  0  0  0  0  0  0  0  0  0  0
   35.7700   28.0070   32.1390 C   0  0  0  0  0  0  0  0  0  0  0  0
   36.2050   27.5900   30.9200 N   0  0  0  0  0  0  0  0  0  0  0  0
   37.4150   26.9890   30.7840 C   0  0  0  0  0  0  0  0  0  0  0  0
   38.2600   26.7620   31.8040 N   0  0  0  0  0  0  0  0  0  0  0  0
   37.8540   27.1690   33.0420 C   0  0  0  0  0  0  0  0  0  0  0  0
   39.1170   23.0290   35.0670 C   0  0  1  0  0  0  0  0  0  0  0  0
   41.4870   21.4790   37.5590 C   0  0  0  0  0  0  0  0  0  0  0  0
   40.3960   22.1690   37.0050 C   0  0  0  0  0  0  0  0  0  0  0  0
   40.2760   22.3030   35.5840 C   0  0  0  0  0  0  0  0  0  0  0  0
   41.2270   21.7580   34.8040 N   0  0  0  0  0  0  0  0  0  0  0  0
   42.2820   21.0910   35.3830 C   0  0  0  0  0  0  0  0  0  0  0  0
   42.4220   20.9470   36.7320 N   0  0  0  0  0  0  0  0  0  0  0  0
   37.8100   22.2950   35.2240 C   0  0  0  0  0  0  0  0  0  0  0  0
   37.3330   21.8380   33.9330 C   0  0  0  0  0  0  0  0  0  0  0  0
   37.7390   21.9890   32.6570 C   0  0  0  0  0  0  0  0  0  0  0  0
   37.0630   21.4200   31.6090 C   0  0  0  0  0  0  0  0  0  0  0  0
   35.9210   20.6680   31.9530 C   0  0  0  0  0  0  0  0  0  0  0  0
   35.8570   20.8090   33.8060 S   0  0  0  0  0  0  0  0  0  0  0  0
   39.1634   24.4040   36.6957 H   0  0  0  0  0  0  0  0  0  0  0  0
   38.0008   24.8009   35.3364 H   0  0  0  0  0  0  0  0  0  0  0  0
   42.9669   26.2846   34.2688 H   0  0  0  0  0  0  0  0  0  0  0  0
   41.0725   28.0495   33.5559 H   0  0  0  0  0  0  0  0  0  0  0  0
   37.7000   27.7967   36.2559 H   0  0  0  0  0  0  0  0  0  0  0  0
   34.7948   28.4954   32.2817 H   0  0  0  0  0  0  0  0  0  0  0  0
   37.7223   26.6684   29.7776 H   0  0  0  0  0  0  0  0  0  0  0  0
   39.3154   23.0987   33.9873 H   0  0  0  0  0  0  0  0  0  0  0  0
   41.5822   21.3713   38.6496 H   0  0  0  0  0  0  0  0  0  0  0  0
   39.6321   22.6074   37.6640 H   0  0  0  0  0  0  0  0  0  0  0  0
   43.0487   20.6532   34.7269 H   0  0  0  0  0  0  0  0  0  0  0  0
   37.9575   21.4278   35.8844 H   0  0  0  0  0  0  0  0  0  0  0  0
   37.0657   22.9775   35.6602 H   0  0  0  0  0  0  0  0  0  0  0  0
   38.6392   22.5864   32.4503 H   0  0  0  0  0  0  0  0  0  0  0  0
   37.3906   21.5423   30.5661 H   0  0  0  0  0  0  0  0  0  0  0  0
   35.2333   20.1278   31.2857 H   0  0  0  0  0  0  0  0  0  0  0  0
  2  1  1  0
  3  2  1  0
  4  3  2  0
  5  4  1  0
  5  6  2  0
  6  2  1  0
  7  6  1  0
  7  8  1  0
  9  8  2  0
 10  9  1  0
 11 10  2  0
 12 11  1  0
 13 12  2  0
 13 14  1  0
 14 15  2  0
 15 10  1  0
 15  7  1  0
 16 23  1  0
 16 19  1  0
 16  1  1  0
 18 17  2  0
 19 18  1  0
 20 21  1  0
 20 19  2  0
 21 22  2  0
 22 17  1  0
 24 23  1  0
 25 24  2  0
 26 27  2  0
 26 25  1  0
 27 28  1  0
 28 24  1  0
  1 29  1  0
  1 30  1  0
  4 31  1  0
  5 32  1  0
  8 33  1  0
 11 34  1  0
 13 35  1  0
 16 36  1  6
 17 37  1  0
 18 38  1  0
 21 39  1  0
 23 40  1  0
 23 41  1  0
 25 42  1  0
 26 43  1  0
 27 44  1  0
M  ISO  8  29   8  30   8  31  14  32  14  33  14  34  14  35  14  36   8
M  ISO  8  37  14  38  14  39  14  40   8  41   8  42  14  43  14  44  14
M  END
>  <minimizedAffinity>  (1) 
-5.29483271

>  <minimizedRMSD>  (1) 
1.09452128

$$$$
