
     RDKit          3D

 44 48  0  0  1  0  0  0  0  0999 V2000
   39.1130   24.5410   35.7400 C   0  0  0  0  0  0  0  0  0  0  0  0
   40.0170   25.4290   35.0890 N   0  0  0  0  0  0  0  0  0  0  0  0
   41.3080   25.2450   35.0270 N   0  0  0  0  0  0  0  0  0  0  0  0
   41.9280   26.2450   34.3480 C   0  0  0  0  0  0  0  0  0  0  0  0
   40.9400   27.1070   33.9670 C   0  0  0  0  0  0  0  0  0  0  0  0
   39.7410   26.5710   34.4460 C   0  0  0  0  0  0  0  0  0  0  0  0
   38.4300   27.1370   34.2850 N   0  0  0  0  0  0  0  0  0  0  0  0
   37.5760   27.6780   35.1720 C   0  0  0  0  0  0  0  0  0  0  0  0
   36.4750   28.0580   34.4980 N   0  0  0  0  0  0  0  0  0  0  0  0
   36.6570   27.7480   33.2000 C   0  0  0  0  0  0  0  0  0  0  0  0
   35.7580   27.9740   32.1610 C   0  0  0  0  0  0  0  0  0  0  0  0
   36.1970   27.5630   30.9470 N   0  0  0  0  0  0  0  0  0  0  0  0
   37.4210   26.9810   30.7880 C   0  0  0  0  0  0  0  0  0  0  0  0
   38.2800   26.7700   31.7990 N   0  0  0  0  0  0  0  0  0  0  0  0
   37.8810   27.1660   33.0350 C   0  0  0  0  0  0  0  0  0  0  0  0
   39.1500   23.1240   35.2070 C   0  0  1  0  0  0  0  0  0  0  0  0
   41.5380   21.4520   37.6070 C   0  0  0  0  0  0  0  0  0  0  0  0
   40.4490   22.1790   37.0980 C   0  0  0  0  0  0  0  0  0  0  0  0
   40.3040   22.3600   35.6830 C   0  0  0  0  0  0  0  0  0  0  0  0
   41.2280   21.8200   34.8670 N   0  0  0  0  0  0  0  0  0  0  0  0
   42.2790   21.1140   35.4010 C   0  0  0  0  0  0  0  0  0  0  0  0
   42.4450   20.9250   36.7500 N   0  0  0  0  0  0  0  0  0  0  0  0
   37.8240   22.4440   35.4420 C   0  0  0  0  0  0  0  0  0  0  0  0
   37.3900   21.7390   34.2030 C   0  0  0  0  0  0  0  0  0  0  0  0
   36.1810   21.0560   34.1610 C   0  0  0  0  0  0  0  0  0  0  0  0
   36.0910   20.5240   32.8740 C   0  0  0  0  0  0  0  0  0  0  0  0
   37.1880   20.8750   32.2050 N   0  0  0  0  0  0  0  0  0  0  0  0
   37.9730   21.6010   32.9860 N   0  0  0  0  0  0  0  0  0  0  0  0
   39.3648   24.5145   36.8105 H   0  0  0  0  0  0  0  0  0  0  0  0
   38.0994   24.9250   35.5525 H   0  0  0  0  0  0  0  0  0  0  0  0
   43.0051   26.3407   34.1465 H   0  0  0  0  0  0  0  0  0  0  0  0
   41.0632   28.0391   33.3960 H   0  0  0  0  0  0  0  0  0  0  0  0
   37.7466   27.7897   36.2529 H   0  0  0  0  0  0  0  0  0  0  0  0
   34.7759   28.4456   32.3128 H   0  0  0  0  0  0  0  0  0  0  0  0
   37.7205   26.6676   29.7770 H   0  0  0  0  0  0  0  0  0  0  0  0
   39.3002   23.1724   34.1184 H   0  0  0  0  0  0  0  0  0  0  0  0
   41.6531   21.3119   38.6920 H   0  0  0  0  0  0  0  0  0  0  0  0
   39.7066   22.6099   37.7858 H   0  0  0  0  0  0  0  0  0  0  0  0
   43.0217   20.6802   34.7153 H   0  0  0  0  0  0  0  0  0  0  0  0
   37.9275   21.7151   36.2593 H   0  0  0  0  0  0  0  0  0  0  0  0
   37.0716   23.1999   35.7115 H   0  0  0  0  0  0  0  0  0  0  0  0
   35.4467   20.9554   34.9738 H   0  0  0  0  0  0  0  0  0  0  0  0
   35.2596   19.9204   32.4809 H   0  0  0  0  0  0  0  0  0  0  0  0
   37.3943   20.6204   31.2285 H   0  0  0  0  0  0  0  0  0  0  0  0
  2  1  1  0
  3  2  1  0
  4  3  2  0
  5  4  1  0
  5  6  2  0
  6  2  1  0
  7  6  1  0
  7  8  1  0
  9  8  2  0
 10  9  1  0
 11 10  2  0
 12 11  1  0
 13 12  2  0
 13 14  1  0
 14 15  2  0
 15 10  1  0
 15  7  1  0
 16 23  1  0
 16 19  1  0
 16  1  1  0
 18 17  2  0
 19 18  1  0
 20 21  1  0
 20 19  2  0
 21 22  2  0
 22 17  1  0
 24 23  1  0
 25 24  1  0
 26 25  2  0
 27 26  1  0
 27 28  1  0
 28 24  2  0
  1 29  1  0
  1 30  1  0
  4 31  1  0
  5 32  1  0
  8 33  1  0
 11 34  1  0
 13 35  1  0
 16 36  1  6
 17 37  1  0
 18 38  1  0
 21 39  1  0
 23 40  1  0
 23 41  1  0
 25 42  1  0
 26 43  1  0
 27 44  1  0
M  ISO  8  29   8  30   8  31  14  32  14  33  14  34  14  35  14  36   8
M  ISO  8  37  14  38  14  39  14  40   8  41   8  42  14  43  14  44   9
M  END
>  <minimizedAffinity>  (1) 
-5.29335022

>  <minimizedRMSD>  (1) 
0.831145108

$$$$
