
     RDKit          3D

 43 47  0  0  1  0  0  0  0  0999 V2000
   39.1100   24.5260   35.7690 C   0  0  0  0  0  0  0  0  0  0  0  0
   40.0240   25.4060   35.1060 N   0  0  0  0  0  0  0  0  0  0  0  0
   41.3060   25.2110   35.0400 N   0  0  0  0  0  0  0  0  0  0  0  0
   41.9330   26.1990   34.3530 C   0  0  0  0  0  0  0  0  0  0  0  0
   40.9490   27.0650   33.9700 C   0  0  0  0  0  0  0  0  0  0  0  0
   39.7470   26.5430   34.4580 C   0  0  0  0  0  0  0  0  0  0  0  0
   38.4400   27.1160   34.2980 N   0  0  0  0  0  0  0  0  0  0  0  0
   37.5860   27.6660   35.1820 C   0  0  0  0  0  0  0  0  0  0  0  0
   36.4890   28.0510   34.5010 N   0  0  0  0  0  0  0  0  0  0  0  0
   36.6690   27.7370   33.1980 C   0  0  0  0  0  0  0  0  0  0  0  0
   35.7740   27.9660   32.1640 C   0  0  0  0  0  0  0  0  0  0  0  0
   36.2160   27.5450   30.9440 N   0  0  0  0  0  0  0  0  0  0  0  0
   37.4310   26.9590   30.7940 C   0  0  0  0  0  0  0  0  0  0  0  0
   38.2890   26.7430   31.8080 N   0  0  0  0  0  0  0  0  0  0  0  0
   37.8910   27.1480   33.0520 C   0  0  0  0  0  0  0  0  0  0  0  0
   39.1400   23.1030   35.2570 C   0  0  1  0  0  0  0  0  0  0  0  0
   41.5830   21.4530   37.6140 C   0  0  0  0  0  0  0  0  0  0  0  0
   40.4810   22.1700   37.1190 C   0  0  0  0  0  0  0  0  0  0  0  0
   40.3050   22.3490   35.7070 C   0  0  0  0  0  0  0  0  0  0  0  0
   41.2200   21.8130   34.8820 N   0  0  0  0  0  0  0  0  0  0  0  0
   42.2880   21.1160   35.3990 C   0  0  0  0  0  0  0  0  0  0  0  0
   42.4720   20.9350   36.7450 N   0  0  0  0  0  0  0  0  0  0  0  0
   37.8230   22.4250   35.5340 C   0  0  0  0  0  0  0  0  0  0  0  0
   37.2660   21.8520   34.3040 N   0  0  0  0  0  0  0  0  0  0  0  0
   37.7190   22.0380   33.0530 C   0  0  0  0  0  0  0  0  0  0  0  0
   36.9440   21.3460   32.1820 N   0  0  0  0  0  0  0  0  0  0  0  0
   36.0030   20.7280   32.9270 C   0  0  0  0  0  0  0  0  0  0  0  0
   36.2180   21.0510   34.2160 N   0  0  0  0  0  0  0  0  0  0  0  0
   39.3591   24.5128   36.8403 H   0  0  0  0  0  0  0  0  0  0  0  0
   38.0991   24.9123   35.5721 H   0  0  0  0  0  0  0  0  0  0  0  0
   43.0102   26.2846   34.1473 H   0  0  0  0  0  0  0  0  0  0  0  0
   41.0769   27.9916   33.3911 H   0  0  0  0  0  0  0  0  0  0  0  0
   37.7535   27.7802   36.2632 H   0  0  0  0  0  0  0  0  0  0  0  0
   34.7949   28.4445   32.3141 H   0  0  0  0  0  0  0  0  0  0  0  0
   37.7320   26.6421   29.7846 H   0  0  0  0  0  0  0  0  0  0  0  0
   39.2652   23.1372   34.1647 H   0  0  0  0  0  0  0  0  0  0  0  0
   41.7180   21.3165   38.6971 H   0  0  0  0  0  0  0  0  0  0  0  0
   39.7480   22.5971   37.8193 H   0  0  0  0  0  0  0  0  0  0  0  0
   43.0241   20.6866   34.7035 H   0  0  0  0  0  0  0  0  0  0  0  0
   37.9782   21.6212   36.2688 H   0  0  0  0  0  0  0  0  0  0  0  0
   37.1171   23.1711   35.9278 H   0  0  0  0  0  0  0  0  0  0  0  0
   38.5857   22.6568   32.7776 H   0  0  0  0  0  0  0  0  0  0  0  0
   35.2023   20.0759   32.5479 H   0  0  0  0  0  0  0  0  0  0  0  0
  2  1  1  0
  3  2  1  0
  4  3  2  0
  5  4  1  0
  5  6  2  0
  6  2  1  0
  7  6  1  0
  7  8  1  0
  9  8  2  0
 10  9  1  0
 11 10  2  0
 12 11  1  0
 13 12  2  0
 13 14  1  0
 14 15  2  0
 15 10  1  0
 15  7  1  0
 16 23  1  0
 16 19  1  0
 16  1  1  0
 18 17  2  0
 19 18  1  0
 20 21  1  0
 20 19  2  0
 21 22  2  0
 22 17  1  0
 24 23  1  0
 25 24  1  0
 26 27  1  0
 26 25  2  0
 27 28  2  0
 28 24  1  0
  1 29  1  0
  1 30  1  0
  4 31  1  0
  5 32  1  0
  8 33  1  0
 11 34  1  0
 13 35  1  0
 16 36  1  6
 17 37  1  0
 18 38  1  0
 21 39  1  0
 23 40  1  0
 23 41  1  0
 25 42  1  0
 27 43  1  0
M  ISO  8  29   8  30   8  31  14  32  14  33  14  34  14  35  14  36   8
M  ISO  7  37  14  38  14  39  14  40   8  41   8  42  14  43  14
M  END
>  <minimizedAffinity>  (1) 
-5.2685256

>  <minimizedRMSD>  (1) 
0.963194907

$$$$
