
     RDKit          3D

 44 48  0  0  1  0  0  0  0  0999 V2000
   39.2280   24.4540   35.5190 C   0  0  0  0  0  0  0  0  0  0  0  0
   40.1200   25.4300   34.9620 N   0  0  0  0  0  0  0  0  0  0  0  0
   41.4060   25.3010   34.9260 N   0  0  0  0  0  0  0  0  0  0  0  0
   42.0030   26.3740   34.3470 C   0  0  0  0  0  0  0  0  0  0  0  0
   40.9890   27.2210   34.0040 C   0  0  0  0  0  0  0  0  0  0  0  0
   39.8110   26.6050   34.4020 C   0  0  0  0  0  0  0  0  0  0  0  0
   38.4710   27.1270   34.2460 N   0  0  0  0  0  0  0  0  0  0  0  0
   37.6020   27.6590   35.1390 C   0  0  0  0  0  0  0  0  0  0  0  0
   36.4840   27.9900   34.4700 N   0  0  0  0  0  0  0  0  0  0  0  0
   36.6640   27.6640   33.1750 C   0  0  0  0  0  0  0  0  0  0  0  0
   35.7520   27.8410   32.1480 C   0  0  0  0  0  0  0  0  0  0  0  0
   36.1880   27.4240   30.9250 N   0  0  0  0  0  0  0  0  0  0  0  0
   37.4220   26.8860   30.7740 C   0  0  0  0  0  0  0  0  0  0  0  0
   38.3000   26.7180   31.7770 N   0  0  0  0  0  0  0  0  0  0  0  0
   37.9050   27.1210   33.0140 C   0  0  0  0  0  0  0  0  0  0  0  0
   39.3700   23.0680   34.9330 C   0  0  1  0  0  0  0  0  0  0  0  0
   41.4740   21.4370   37.6140 C   0  0  0  0  0  0  0  0  0  0  0  0
   40.4580   22.1670   36.9660 C   0  0  0  0  0  0  0  0  0  0  0  0
   40.4510   22.3020   35.5580 C   0  0  0  0  0  0  0  0  0  0  0  0
   41.4590   21.7030   34.8610 N   0  0  0  0  0  0  0  0  0  0  0  0
   42.4290   21.0030   35.5170 C   0  0  0  0  0  0  0  0  0  0  0  0
   42.4470   20.8650   36.8790 N   0  0  0  0  0  0  0  0  0  0  0  0
   38.0770   22.3400   34.8720 C   0  0  0  0  0  0  0  0  0  0  0  0
   37.3900   22.4480   33.6140 N   0  0  0  0  0  0  0  0  0  0  0  0
   36.4850   21.5180   33.2690 N   0  0  0  0  0  0  0  0  0  0  0  0
   35.9710   21.8160   32.0820 C   0  0  0  0  0  0  0  0  0  0  0  0
   36.5350   22.9740   31.6030 C   0  0  0  0  0  0  0  0  0  0  0  0
   37.4170   23.3280   32.6020 C   0  0  0  0  0  0  0  0  0  0  0  0
   39.4196   24.3910   36.6004 H   0  0  0  0  0  0  0  0  0  0  0  0
   38.2081   24.7909   35.2816 H   0  0  0  0  0  0  0  0  0  0  0  0
   43.0803   26.5288   34.1874 H   0  0  0  0  0  0  0  0  0  0  0  0
   41.0864   28.1988   33.5097 H   0  0  0  0  0  0  0  0  0  0  0  0
   37.7792   27.7953   36.2160 H   0  0  0  0  0  0  0  0  0  0  0  0
   34.7568   28.2821   32.3059 H   0  0  0  0  0  0  0  0  0  0  0  0
   37.7245   26.5663   29.7659 H   0  0  0  0  0  0  0  0  0  0  0  0
   39.6772   23.1983   33.8848 H   0  0  0  0  0  0  0  0  0  0  0  0
   41.4726   21.3352   38.7093 H   0  0  0  0  0  0  0  0  0  0  0  0
   39.6615   22.6371   37.5615 H   0  0  0  0  0  0  0  0  0  0  0  0
   43.2288   20.5305   34.9279 H   0  0  0  0  0  0  0  0  0  0  0  0
   38.2730   21.2751   35.0659 H   0  0  0  0  0  0  0  0  0  0  0  0
   37.4226   22.8017   35.6261 H   0  0  0  0  0  0  0  0  0  0  0  0
   35.2062   21.2233   31.5588 H   0  0  0  0  0  0  0  0  0  0  0  0
   36.3323   23.4921   30.6541 H   0  0  0  0  0  0  0  0  0  0  0  0
   38.0612   24.2192   32.5728 H   0  0  0  0  0  0  0  0  0  0  0  0
  2  1  1  0
  3  2  1  0
  4  3  2  0
  5  4  1  0
  5  6  2  0
  6  2  1  0
  7  6  1  0
  7  8  1  0
  9  8  2  0
 10  9  1  0
 11 10  2  0
 12 11  1  0
 13 12  2  0
 13 14  1  0
 14 15  2  0
 15 10  1  0
 15  7  1  0
 16  1  1  0
 16 19  1  0
 18 17  2  0
 19 18  1  0
 20 21  1  0
 20 19  2  0
 21 22  2  0
 22 17  1  0
 23 16  1  0
 24 23  1  0
 25 24  1  0
 26 25  2  0
 27 26  1  0
 27 28  2  0
 28 24  1  0
  1 29  1  0
  1 30  1  0
  4 31  1  0
  5 32  1  0
  8 33  1  0
 11 34  1  0
 13 35  1  0
 16 36  1  6
 17 37  1  0
 18 38  1  0
 21 39  1  0
 23 40  1  0
 23 41  1  0
 26 42  1  0
 27 43  1  0
 28 44  1  0
M  ISO  8  29   8  30   8  31  14  32  14  33  14  34  14  35  14  36   8
M  ISO  8  37  14  38  14  39  14  40   8  41   8  42  14  43  14  44  14
M  END
>  <minimizedAffinity>  (1) 
-5.24103451

>  <minimizedRMSD>  (1) 
0.818798542

$$$$
