
     RDKit          3D

 44 48  0  0  1  0  0  0  0  0999 V2000
   39.2060   24.5150   35.7010 C   0  0  0  0  0  0  0  0  0  0  0  0
   40.0920   25.4360   35.0670 N   0  0  0  0  0  0  0  0  0  0  0  0
   41.3840   25.2860   35.0120 N   0  0  0  0  0  0  0  0  0  0  0  0
   41.9850   26.3070   34.3500 C   0  0  0  0  0  0  0  0  0  0  0  0
   40.9780   27.1490   33.9700 C   0  0  0  0  0  0  0  0  0  0  0  0
   39.7930   26.5760   34.4360 C   0  0  0  0  0  0  0  0  0  0  0  0
   38.4670   27.1100   34.2700 N   0  0  0  0  0  0  0  0  0  0  0  0
   37.6170   27.6750   35.1580 C   0  0  0  0  0  0  0  0  0  0  0  0
   36.5010   28.0070   34.4820 N   0  0  0  0  0  0  0  0  0  0  0  0
   36.6670   27.6470   33.1900 C   0  0  0  0  0  0  0  0  0  0  0  0
   35.7540   27.8110   32.1570 C   0  0  0  0  0  0  0  0  0  0  0  0
   36.1780   27.3600   30.9510 N   0  0  0  0  0  0  0  0  0  0  0  0
   37.4070   26.7970   30.8060 C   0  0  0  0  0  0  0  0  0  0  0  0
   38.2880   26.6410   31.8100 N   0  0  0  0  0  0  0  0  0  0  0  0
   37.8950   27.0830   33.0360 C   0  0  0  0  0  0  0  0  0  0  0  0
   39.2750   23.1100   35.1430 C   0  0  1  0  0  0  0  0  0  0  0  0
   41.5410   21.4160   37.6300 C   0  0  0  0  0  0  0  0  0  0  0  0
   40.4820   22.1580   37.0780 C   0  0  0  0  0  0  0  0  0  0  0  0
   40.3920   22.3340   35.6580 C   0  0  0  0  0  0  0  0  0  0  0  0
   41.3430   21.7730   34.8890 N   0  0  0  0  0  0  0  0  0  0  0  0
   42.3640   21.0550   35.4640 C   0  0  0  0  0  0  0  0  0  0  0  0
   42.4640   20.8770   36.8130 N   0  0  0  0  0  0  0  0  0  0  0  0
   37.9390   22.4300   35.2620 C   0  0  0  0  0  0  0  0  0  0  0  0
   37.3190   22.1170   34.0140 N   0  0  0  0  0  0  0  0  0  0  0  0
   36.4510   21.1610   33.6460 C   0  0  0  0  0  0  0  0  0  0  0  0
   36.1190   21.2450   32.3030 C   0  0  0  0  0  0  0  0  0  0  0  0
   36.8310   22.3100   31.8610 N   0  0  0  0  0  0  0  0  0  0  0  0
   37.5500   22.8320   32.8850 C   0  0  0  0  0  0  0  0  0  0  0  0
   39.4570   24.4747   36.7712 H   0  0  0  0  0  0  0  0  0  0  0  0
   38.1844   24.8797   35.5186 H   0  0  0  0  0  0  0  0  0  0  0  0
   43.0611   26.4312   34.1587 H   0  0  0  0  0  0  0  0  0  0  0  0
   41.0804   28.0898   33.4093 H   0  0  0  0  0  0  0  0  0  0  0  0
   37.8027   27.8334   36.2306 H   0  0  0  0  0  0  0  0  0  0  0  0
   34.7655   28.2702   32.3053 H   0  0  0  0  0  0  0  0  0  0  0  0
   37.6990   26.4472   29.8048 H   0  0  0  0  0  0  0  0  0  0  0  0
   39.4974   23.1868   34.0685 H   0  0  0  0  0  0  0  0  0  0  0  0
   41.6141   21.2776   38.7188 H   0  0  0  0  0  0  0  0  0  0  0  0
   39.7218   22.6039   37.7362 H   0  0  0  0  0  0  0  0  0  0  0  0
   43.1289   20.6072   34.8125 H   0  0  0  0  0  0  0  0  0  0  0  0
   38.0794   21.4926   35.8202 H   0  0  0  0  0  0  0  0  0  0  0  0
   37.2718   23.1399   35.7728 H   0  0  0  0  0  0  0  0  0  0  0  0
   36.0499   20.3995   34.3310 H   0  0  0  0  0  0  0  0  0  0  0  0
   35.4375   20.5988   31.7303 H   0  0  0  0  0  0  0  0  0  0  0  0
   38.2185   23.7024   32.8114 H   0  0  0  0  0  0  0  0  0  0  0  0
  2  1  1  0
  3  2  1  0
  4  3  2  0
  5  4  1  0
  5  6  2  0
  6  2  1  0
  7  6  1  0
  7  8  1  0
  9  8  2  0
 10  9  1  0
 11 10  2  0
 12 11  1  0
 13 12  2  0
 13 14  1  0
 14 15  2  0
 15 10  1  0
 15  7  1  0
 16 23  1  0
 16 19  1  0
 16  1  1  0
 18 17  2  0
 19 18  1  0
 20 21  1  0
 20 19  2  0
 21 22  2  0
 22 17  1  0
 24 23  1  0
 25 24  1  0
 26 25  2  0
 27 26  1  0
 27 28  2  0
 28 24  1  0
  1 29  1  0
  1 30  1  0
  4 31  1  0
  5 32  1  0
  8 33  1  0
 11 34  1  0
 13 35  1  0
 16 36  1  6
 17 37  1  0
 18 38  1  0
 21 39  1  0
 23 40  1  0
 23 41  1  0
 25 42  1  0
 26 43  1  0
 28 44  1  0
M  ISO  8  29   8  30   8  31  14  32  14  33  14  34  14  35  14  36   8
M  ISO  8  37  14  38  14  39  14  40   8  41   8  42  14  43  14  44  14
M  END
>  <minimizedAffinity>  (1) 
-5.20146656

>  <minimizedRMSD>  (1) 
1.20897627

$$$$
