
     RDKit          3D

 26 27  0  0  0  0  0  0  0  0999 V2000
   40.0900   22.5690   37.7180 C   0  0  0  0  0  0  0  0  0  0  0  0
   39.1810   23.2080   36.8370 C   0  0  0  0  0  0  0  0  0  0  0  0
   39.7110   23.8420   35.7140 C   0  0  0  0  0  0  0  0  0  0  0  0
   41.0560   23.8270   35.5060 N   0  0  0  0  0  0  0  0  0  0  0  0
   41.8870   23.2020   36.3760 C   0  0  0  0  0  0  0  0  0  0  0  0
   41.4080   22.5910   37.4540 N   0  0  0  0  0  0  0  0  0  0  0  0
   43.2990   23.1430   36.2270 N   0  0  0  0  0  0  0  0  0  0  0  0
   43.9340   24.1460   36.8810 C   0  0  0  0  0  0  0  0  0  0  0  0
   45.3060   24.2510   36.8490 C   0  0  0  0  0  0  0  0  0  0  0  0
   46.0550   25.3460   37.5590 C   0  0  0  0  0  0  0  0  0  0  0  0
   46.0170   23.2920   36.1230 C   0  0  0  0  0  0  0  0  0  0  0  0
   47.2780   23.3800   36.0890 O   0  0  0  0  0  0  0  0  0  0  0  0
   45.3400   22.3210   35.4950 N   0  0  0  0  0  0  0  0  0  0  0  0
   44.0150   22.2340   35.5360 C   0  0  0  0  0  0  0  0  0  0  0  0
   43.3310   21.3410   34.9620 O   0  0  0  0  0  0  0  0  0  0  0  0
   37.6980   23.2310   37.0580 C   0  0  0  0  0  0  0  0  0  0  0  0
   37.5070   23.0430   38.4330 F   0  0  0  0  0  0  0  0  0  0  0  0
   37.0610   22.2470   36.3950 F   0  0  0  0  0  0  0  0  0  0  0  0
   37.1860   24.5080   36.8060 F   0  0  0  0  0  0  0  0  0  0  0  0
   39.7171   22.0558   38.6166 H   0  0  0  0  0  0  0  0  0  0  0  0
   39.0463   24.3511   35.0006 H   0  0  0  0  0  0  0  0  0  0  0  0
   43.3456   24.8852   37.4443 H   0  0  0  0  0  0  0  0  0  0  0  0
   45.9612   25.2089   38.6464 H   0  0  0  0  0  0  0  0  0  0  0  0
   47.1170   25.3077   37.2748 H   0  0  0  0  0  0  0  0  0  0  0  0
   45.6343   26.3219   37.2748 H   0  0  0  0  0  0  0  0  0  0  0  0
   45.8667   21.6156   34.9604 H   0  0  0  0  0  0  0  0  0  0  0  0
  2 16  1  0
  2  1  2  0
  3  2  1  0
  4  3  2  0
  4  5  1  0
  5  6  2  0
  6  1  1  0
  7  5  1  0
  7  8  1  0
  9  8  2  0
  9 10  1  0
 11  9  1  0
 12 11  2  0
 13 14  1  0
 13 11  1  0
 14  7  1  0
 15 14  2  0
 16 17  1  0
 18 16  1  0
 19 16  1  0
  1 20  1  0
  3 21  1  0
  8 22  1  0
 10 23  1  0
 10 24  1  0
 10 25  1  0
 13 26  1  0
M  ISO  7  20  14  21  14  22  14  23   8  24   8  25   8  26   9
M  END
>  <minimizedAffinity>  (1) 
-4.82063103

>  <minimizedRMSD>  (1) 
3.38104296

$$$$
