
     RDKit          3D

 27 29  0  0  0  0  0  0  0  0999 V2000
   38.5590   22.3620   34.6760 C   0  0  0  0  0  0  0  0  0  0  0  0
   39.5290   21.9390   34.0130 O   0  0  0  0  0  0  0  0  0  0  0  0
   39.9750   22.8290   37.9790 C   0  0  0  0  0  0  0  0  0  0  0  0
   38.9260   23.3490   38.7380 C   0  0  0  0  0  0  0  0  0  0  0  0
   37.6770   23.5490   38.0900 C   0  0  0  0  0  0  0  0  0  0  0  0
   37.5890   23.2170   36.7660 N   0  0  0  0  0  0  0  0  0  0  0  0
   38.6490   22.7180   36.0930 C   0  0  0  0  0  0  0  0  0  0  0  0
   39.8270   22.5250   36.6890 N   0  0  0  0  0  0  0  0  0  0  0  0
   37.4010   22.4490   33.9080 O   0  0  0  0  0  0  0  0  0  0  0  0
   36.6710   21.2990   33.6030 C   0  0  0  0  0  0  0  0  0  0  0  0
   35.7440   20.6280   34.4010 C   0  0  0  0  0  0  0  0  0  0  0  0
   35.2960   19.5740   33.6930 N   0  0  0  0  0  0  0  0  0  0  0  0
   35.8870   19.5470   32.5030 C   0  0  0  0  0  0  0  0  0  0  0  0
   35.7930   18.6940   31.4110 C   0  0  0  0  0  0  0  0  0  0  0  0
   36.5180   18.8590   30.2500 C   0  0  0  0  0  0  0  0  0  0  0  0
   37.3910   19.9320   30.1610 C   0  0  0  0  0  0  0  0  0  0  0  0
   37.5130   20.8060   31.2320 C   0  0  0  0  0  0  0  0  0  0  0  0
   36.7730   20.6180   32.3880 C   0  0  0  0  0  0  0  0  0  0  0  0
   40.9515   22.6652   38.4582 H   0  0  0  0  0  0  0  0  0  0  0  0
   39.0611   23.5957   39.8014 H   0  0  0  0  0  0  0  0  0  0  0  0
   36.8119   23.9563   38.6338 H   0  0  0  0  0  0  0  0  0  0  0  0
   35.4363   20.9080   35.4193 H   0  0  0  0  0  0  0  0  0  0  0  0
   34.5997   18.8911   34.0241 H   0  0  0  0  0  0  0  0  0  0  0  0
   35.1025   17.8402   31.4760 H   0  0  0  0  0  0  0  0  0  0  0  0
   36.4061   18.1545   29.4126 H   0  0  0  0  0  0  0  0  0  0  0  0
   37.9832   20.0897   29.2475 H   0  0  0  0  0  0  0  0  0  0  0  0
   38.2053   21.6580   31.1623 H   0  0  0  0  0  0  0  0  0  0  0  0
  1  7  1  0
  2  1  2  0
  3  4  2  0
  5  4  1  0
  6  5  2  0
  7  8  2  0
  7  6  1  0
  8  3  1  0
  9  1  1  0
 10  9  1  0
 10 11  2  0
 12 11  1  0
 13 12  1  0
 14 13  2  0
 15 14  1  0
 16 15  2  0
 16 17  1  0
 17 18  2  0
 18 13  1  0
 18 10  1  0
  3 19  1  0
  4 20  1  0
  5 21  1  0
 11 22  1  0
 12 23  1  0
 14 24  1  0
 15 25  1  0
 16 26  1  0
 17 27  1  0
M  ISO  8  19  14  20  14  21  14  22  14  23   9  24  14  25  14  26  14
M  ISO  1  27  14
M  END
>  <minimizedAffinity>  (1) 
-4.69190311

>  <minimizedRMSD>  (1) 
1.74157453

$$$$
