
     RDKit          3D

 23 24  0  0  0  0  0  0  0  0999 V2000
   38.6000   22.3760   34.5210 C   0  0  0  0  0  0  0  0  0  0  0  0
   39.4900   21.7790   33.9010 O   0  0  0  0  0  0  0  0  0  0  0  0
   39.9710   22.7730   37.8450 C   0  0  0  0  0  0  0  0  0  0  0  0
   38.9320   23.3020   38.6090 C   0  0  0  0  0  0  0  0  0  0  0  0
   37.6930   23.5340   37.9460 C   0  0  0  0  0  0  0  0  0  0  0  0
   37.6120   23.2270   36.6250 N   0  0  0  0  0  0  0  0  0  0  0  0
   38.6480   22.7170   35.9310 C   0  0  0  0  0  0  0  0  0  0  0  0
   39.8240   22.4950   36.5530 N   0  0  0  0  0  0  0  0  0  0  0  0
   37.5410   22.6860   33.7010 O   0  0  0  0  0  0  0  0  0  0  0  0
   36.7040   21.8650   33.0330 C   0  0  0  0  0  0  0  0  0  0  0  0
   36.1330   20.8680   33.8240 C   0  0  0  0  0  0  0  0  0  0  0  0
   35.2480   19.9480   33.2730 C   0  0  0  0  0  0  0  0  0  0  0  0
   34.9480   20.0430   31.9290 C   0  0  0  0  0  0  0  0  0  0  0  0
   35.4850   21.0090   31.0980 C   0  0  0  0  0  0  0  0  0  0  0  0
   36.3670   21.9120   31.6930 C   0  0  0  0  0  0  0  0  0  0  0  0
   40.9416   22.5797   38.3253 H   0  0  0  0  0  0  0  0  0  0  0  0
   39.0632   23.5302   39.6770 H   0  0  0  0  0  0  0  0  0  0  0  0
   36.8292   23.9485   38.4863 H   0  0  0  0  0  0  0  0  0  0  0  0
   36.3851   20.8091   34.8931 H   0  0  0  0  0  0  0  0  0  0  0  0
   34.7965   19.1611   33.8950 H   0  0  0  0  0  0  0  0  0  0  0  0
   34.2466   19.3137   31.4974 H   0  0  0  0  0  0  0  0  0  0  0  0
   35.2314   21.0626   30.0290 H   0  0  0  0  0  0  0  0  0  0  0  0
   36.8149   22.6977   31.0668 H   0  0  0  0  0  0  0  0  0  0  0  0
  1  7  1  0
  2  1  2  0
  3  4  2  0
  5  4  1  0
  6  5  2  0
  7  8  2  0
  7  6  1  0
  8  3  1  0
  9  1  1  0
 10  9  1  0
 10 11  2  0
 12 11  1  0
 13 12  2  0
 14 15  2  0
 14 13  1  0
 15 10  1  0
  3 16  1  0
  4 17  1  0
  5 18  1  0
 11 19  1  0
 12 20  1  0
 13 21  1  0
 14 22  1  0
 15 23  1  0
M  ISO  8  16  14  17  14  18  14  19  14  20  14  21  14  22  14  23  14
M  END
>  <minimizedAffinity>  (1) 
-4.4378891

>  <minimizedRMSD>  (1) 
0.860899687

$$$$
