
     RDKit          3D

 28 29  0  0  0  0  0  0  0  0999 V2000
   38.3640   22.5220   34.2690 C   0  0  0  0  0  0  0  0  0  0  0  0
   38.8010   23.2680   33.3740 O   0  0  0  0  0  0  0  0  0  0  0  0
   39.9770   22.6790   37.5140 C   0  0  0  0  0  0  0  0  0  0  0  0
   38.9980   23.1820   38.3780 C   0  0  0  0  0  0  0  0  0  0  0  0
   37.7440   23.4740   37.8170 C   0  0  0  0  0  0  0  0  0  0  0  0
   37.5510   23.2570   36.4840 N   0  0  0  0  0  0  0  0  0  0  0  0
   38.5300   22.7700   35.6990 C   0  0  0  0  0  0  0  0  0  0  0  0
   39.7400   22.4810   36.2120 N   0  0  0  0  0  0  0  0  0  0  0  0
   37.6910   21.4110   33.7650 O   0  0  0  0  0  0  0  0  0  0  0  0
   35.1190   19.3870   31.5900 N   0  0  0  0  0  0  0  0  0  0  0  0
   35.3830   19.1180   32.9860 C   0  0  0  0  0  0  0  0  0  0  0  0
   35.5600   20.3270   33.8280 C   0  0  0  0  0  0  0  0  0  0  0  0
   36.4020   21.4210   33.2410 C   0  0  0  0  0  0  0  0  0  0  0  0
   36.2700   21.4300   31.7650 C   0  0  0  0  0  0  0  0  0  0  0  0
   36.3420   20.0500   31.1240 C   0  0  0  0  0  0  0  0  0  0  0  0
   40.9718   22.4390   37.9174 H   0  0  0  0  0  0  0  0  0  0  0  0
   39.2012   23.3414   39.4473 H   0  0  0  0  0  0  0  0  0  0  0  0
   36.9307   23.8712   38.4422 H   0  0  0  0  0  0  0  0  0  0  0  0
   34.9560   18.5117   31.0721 H   0  0  0  0  0  0  0  0  0  0  0  0
   34.5382   18.5403   33.3893 H   0  0  0  0  0  0  0  0  0  0  0  0
   36.3373   18.5720   33.0220 H   0  0  0  0  0  0  0  0  0  0  0  0
   34.5626   20.7433   34.0327 H   0  0  0  0  0  0  0  0  0  0  0  0
   36.0992   19.9871   34.7245 H   0  0  0  0  0  0  0  0  0  0  0  0
   36.0288   22.4087   33.5495 H   0  0  0  0  0  0  0  0  0  0  0  0
   35.2996   21.8797   31.5080 H   0  0  0  0  0  0  0  0  0  0  0  0
   37.1225   22.0051   31.3746 H   0  0  0  0  0  0  0  0  0  0  0  0
   37.2364   19.5063   31.4623 H   0  0  0  0  0  0  0  0  0  0  0  0
   36.4131   20.0922   30.0271 H   0  0  0  0  0  0  0  0  0  0  0  0
  1  7  1  0
  2  1  2  0
  3  4  2  0
  5  4  1  0
  6  5  2  0
  7  8  2  0
  7  6  1  0
  8  3  1  0
  9  1  1  0
 10 11  1  0
 11 12  1  0
 13  9  1  0
 13 12  1  0
 14 13  1  0
 15 10  1  0
 15 14  1  0
  3 16  1  0
  4 17  1  0
  5 18  1  0
 10 19  1  0
 11 20  1  0
 11 21  1  0
 12 22  1  0
 12 23  1  0
 13 24  1  0
 14 25  1  0
 14 26  1  0
 15 27  1  0
 15 28  1  0
M  ISO  8  16  14  17  14  18  14  19   5  20  13  21  13  22  13  23  13
M  ISO  5  24  13  25  13  26  13  27  13  28  13
M  END
>  <minimizedAffinity>  (1) 
-4.26301241

>  <minimizedRMSD>  (1) 
1.39140117

$$$$
