
     RDKit          3D

 20 21  0  0  0  0  0  0  0  0999 V2000
   39.8970   22.6640   37.2550 C   0  0  0  0  0  0  0  0  0  0  0  0
   39.1960   23.3360   38.2790 C   0  0  0  0  0  0  0  0  0  0  0  0
   37.7930   23.4440   38.1430 C   0  0  0  0  0  0  0  0  0  0  0  0
   37.2280   22.8970   37.0420 N   0  0  0  0  0  0  0  0  0  0  0  0
   37.9500   22.2600   36.0850 C   0  0  0  0  0  0  0  0  0  0  0  0
   39.2830   22.1420   36.1860 N   0  0  0  0  0  0  0  0  0  0  0  0
   37.3390   21.6760   34.9070 C   0  0  0  0  0  0  0  0  0  0  0  0
   37.8990   21.5830   33.7950 O   0  0  0  0  0  0  0  0  0  0  0  0
   36.0390   21.1460   34.8950 O   0  0  0  0  0  0  0  0  0  0  0  0
   35.5980   20.5180   33.7250 C   0  0  0  0  0  0  0  0  0  0  0  0
   35.0750   21.2850   32.6930 C   0  0  0  0  0  0  0  0  0  0  0  0
   34.7500   20.3490   31.7180 C   0  0  0  0  0  0  0  0  0  0  0  0
   35.0910   19.0840   32.2100 C   0  0  0  0  0  0  0  0  0  0  0  0
   35.5910   19.2620   33.4120 O   0  0  0  0  0  0  0  0  0  0  0  0
   40.9894   22.5654   37.3384 H   0  0  0  0  0  0  0  0  0  0  0  0
   39.7205   23.7590   39.1485 H   0  0  0  0  0  0  0  0  0  0  0  0
   37.1835   23.9536   38.9038 H   0  0  0  0  0  0  0  0  0  0  0  0
   34.9476   22.3770   32.6555 H   0  0  0  0  0  0  0  0  0  0  0  0
   34.3045   20.5641   30.7355 H   0  0  0  0  0  0  0  0  0  0  0  0
   34.9645   18.1233   31.6894 H   0  0  0  0  0  0  0  0  0  0  0  0
  1  2  2  0
  3  2  1  0
  4  3  2  0
  5  6  2  0
  5  4  1  0
  6  1  1  0
  7  5  1  0
  8  7  2  0
  9  7  1  0
 10  9  1  0
 11 10  2  0
 12 13  2  0
 12 11  1  0
 13 14  1  0
 14 10  1  0
  1 15  1  0
  2 16  1  0
  3 17  1  0
 11 18  1  0
 12 19  1  0
 13 20  1  0
M  ISO  6  15  14  16  14  17  14  18  14  19  14  20  14
M  END
>  <minimizedAffinity>  (1) 
-4.21795225

>  <minimizedRMSD>  (1) 
1.18336117

$$$$
