
     RDKit          3D

 20 21  0  0  0  0  0  0  0  0999 V2000
   39.9150   22.6690   37.3090 C   0  0  0  0  0  0  0  0  0  0  0  0
   39.2120   23.3350   38.3160 C   0  0  0  0  0  0  0  0  0  0  0  0
   37.8230   23.4500   38.1490 C   0  0  0  0  0  0  0  0  0  0  0  0
   37.2400   22.9210   37.0420 N   0  0  0  0  0  0  0  0  0  0  0  0
   37.9860   22.2830   36.0970 C   0  0  0  0  0  0  0  0  0  0  0  0
   39.3030   22.1650   36.2380 N   0  0  0  0  0  0  0  0  0  0  0  0
   37.4020   21.6980   34.8890 C   0  0  0  0  0  0  0  0  0  0  0  0
   37.9940   21.5560   33.8170 O   0  0  0  0  0  0  0  0  0  0  0  0
   36.0810   21.2350   34.8380 O   0  0  0  0  0  0  0  0  0  0  0  0
   35.5660   20.6000   33.7190 C   0  0  0  0  0  0  0  0  0  0  0  0
   34.9470   21.1720   32.6310 C   0  0  0  0  0  0  0  0  0  0  0  0
   34.6010   20.2040   31.7760 N   0  0  0  0  0  0  0  0  0  0  0  0
   34.9800   19.0150   32.2850 C   0  0  0  0  0  0  0  0  0  0  0  0
   35.5640   19.2650   33.4610 N   0  0  0  0  0  0  0  0  0  0  0  0
   41.0053   22.5574   37.4030 H   0  0  0  0  0  0  0  0  0  0  0  0
   39.7226   23.7495   39.1977 H   0  0  0  0  0  0  0  0  0  0  0  0
   37.2129   23.9633   38.9068 H   0  0  0  0  0  0  0  0  0  0  0  0
   34.7667   22.2477   32.4884 H   0  0  0  0  0  0  0  0  0  0  0  0
   34.8362   18.0279   31.8214 H   0  0  0  0  0  0  0  0  0  0  0  0
   35.9577   18.5463   34.0850 H   0  0  0  0  0  0  0  0  0  0  0  0
  1  2  2  0
  3  2  1  0
  4  3  2  0
  5  6  2  0
  5  4  1  0
  6  1  1  0
  7  5  1  0
  8  7  2  0
  9  7  1  0
 10  9  1  0
 11 10  2  0
 12 13  2  0
 12 11  1  0
 13 14  1  0
 14 10  1  0
  1 15  1  0
  2 16  1  0
  3 17  1  0
 11 18  1  0
 13 19  1  0
 14 20  1  0
M  ISO  6  15  14  16  14  17  14  18  14  19  14  20   9
M  END
>  <minimizedAffinity>  (1) 
-4.01822042

>  <minimizedRMSD>  (1) 
0.992707312

$$$$
