
     RDKit          3D

 19 20  0  0  0  0  0  0  0  0999 V2000
   40.0000   22.6550   37.6010 C   0  0  0  0  0  0  0  0  0  0  0  0
   38.9940   23.2290   38.4080 C   0  0  0  0  0  0  0  0  0  0  0  0
   37.7350   23.4480   37.8270 C   0  0  0  0  0  0  0  0  0  0  0  0
   37.5490   23.0970   36.5190 N   0  0  0  0  0  0  0  0  0  0  0  0
   38.5670   22.5440   35.7930 C   0  0  0  0  0  0  0  0  0  0  0  0
   39.7710   22.3250   36.3180 N   0  0  0  0  0  0  0  0  0  0  0  0
   38.3930   22.1620   34.3970 C   0  0  0  0  0  0  0  0  0  0  0  0
   39.1990   21.4770   33.7480 O   0  0  0  0  0  0  0  0  0  0  0  0
   37.2810   22.5320   33.6290 O   0  0  0  0  0  0  0  0  0  0  0  0
   36.5370   21.6000   32.9190 C   0  0  0  0  0  0  0  0  0  0  0  0
   35.6880   20.6780   33.6030 C   0  0  0  0  0  0  0  0  0  0  0  0
   34.9700   19.7060   32.1420 S   0  0  0  0  0  0  0  0  0  0  0  0
   35.9810   20.7670   30.9290 C   0  0  0  0  0  0  0  0  0  0  0  0
   36.5760   21.5210   31.5970 N   0  0  0  0  0  0  0  0  0  0  0  0
   40.9954   22.4733   38.0324 H   0  0  0  0  0  0  0  0  0  0  0  0
   39.1901   23.4957   39.4570 H   0  0  0  0  0  0  0  0  0  0  0  0
   36.9160   23.8924   38.4115 H   0  0  0  0  0  0  0  0  0  0  0  0
   35.5017   20.5632   34.6810 H   0  0  0  0  0  0  0  0  0  0  0  0
   36.0017   20.6882   29.8320 H   0  0  0  0  0  0  0  0  0  0  0  0
  1  2  2  0
  3  2  1  0
  4  3  2  0
  5  6  2  0
  5  4  1  0
  6  1  1  0
  7  5  1  0
  8  7  2  0
  9  7  1  0
 10 11  2  0
 10  9  1  0
 12 11  1  0
 13 14  2  0
 13 12  1  0
 14 10  1  0
  1 15  1  0
  2 16  1  0
  3 17  1  0
 11 18  1  0
 13 19  1  0
M  ISO  5  15  14  16  14  17  14  18  14  19  14
M  END
>  <minimizedAffinity>  (1) 
-3.81711841

>  <minimizedRMSD>  (1) 
0.79447633

$$$$
