
     RDKit          3D

 22 22  0  0  0  0  0  0  0  0999 V2000
   39.9530   22.6510   37.4680 C   0  0  0  0  0  0  0  0  0  0  0  0
   39.0930   23.2700   38.3730 C   0  0  0  0  0  0  0  0  0  0  0  0
   37.7510   23.4130   37.9930 C   0  0  0  0  0  0  0  0  0  0  0  0
   37.3510   22.9470   36.7690 N   0  0  0  0  0  0  0  0  0  0  0  0
   38.2450   22.3540   35.9370 C   0  0  0  0  0  0  0  0  0  0  0  0
   39.5390   22.2000   36.2710 N   0  0  0  0  0  0  0  0  0  0  0  0
   37.8490   21.8450   34.6240 C   0  0  0  0  0  0  0  0  0  0  0  0
   38.6320   21.7490   33.6600 O   0  0  0  0  0  0  0  0  0  0  0  0
   36.5530   21.4140   34.3120 O   0  0  0  0  0  0  0  0  0  0  0  0
   36.1940   20.8710   33.0850 C   0  0  0  0  0  0  0  0  0  0  0  0
   35.3740   21.8380   32.2620 C   0  0  0  0  0  0  0  0  0  0  0  0
   35.5410   19.5140   33.1920 C   0  0  0  0  0  0  0  0  0  0  0  0
   41.0107   22.5266   37.7434 H   0  0  0  0  0  0  0  0  0  0  0  0
   39.4529   23.6322   39.3473 H   0  0  0  0  0  0  0  0  0  0  0  0
   37.0287   23.8934   38.6694 H   0  0  0  0  0  0  0  0  0  0  0  0
   37.1369   20.6975   32.5457 H   0  0  0  0  0  0  0  0  0  0  0  0
   34.8099   22.5032   32.9323 H   0  0  0  0  0  0  0  0  0  0  0  0
   36.0427   22.4381   31.6274 H   0  0  0  0  0  0  0  0  0  0  0  0
   34.6727   21.2764   31.6274 H   0  0  0  0  0  0  0  0  0  0  0  0
   35.4143   19.2507   34.2525 H   0  0  0  0  0  0  0  0  0  0  0  0
   34.5572   19.5408   32.7007 H   0  0  0  0  0  0  0  0  0  0  0  0
   36.1758   18.7619   32.7007 H   0  0  0  0  0  0  0  0  0  0  0  0
  1  2  2  0
  3  2  1  0
  4  3  2  0
  5  6  2  0
  5  4  1  0
  6  1  1  0
  7  5  1  0
  8  7  2  0
  9  7  1  0
 10 12  1  0
 10  9  1  0
 11 10  1  0
  1 13  1  0
  2 14  1  0
  3 15  1  0
 10 16  1  0
 11 17  1  0
 11 18  1  0
 11 19  1  0
 12 20  1  0
 12 21  1  0
 12 22  1  0
M  ISO  8  13  14  14  14  15  14  16   8  17   8  18   8  19   8  20   8
M  ISO  2  21   8  22   8
M  END
>  <minimizedAffinity>  (1) 
-3.65850925

>  <minimizedRMSD>  (1) 
0.85429132

$$$$
