
     RDKit          3D

 20 21  0  0  0  0  0  0  0  0999 V2000
   37.4890   21.7840   34.9340 C   0  0  0  0  0  0  0  0  0  0  0  0
   38.0650   21.8160   33.8290 O   0  0  0  0  0  0  0  0  0  0  0  0
   39.9450   22.6990   37.4280 C   0  0  0  0  0  0  0  0  0  0  0  0
   39.2170   23.3610   38.4130 C   0  0  0  0  0  0  0  0  0  0  0  0
   37.8320   23.4930   38.2070 C   0  0  0  0  0  0  0  0  0  0  0  0
   37.2630   22.9780   37.0720 N   0  0  0  0  0  0  0  0  0  0  0  0
   38.0460   22.3420   36.1500 C   0  0  0  0  0  0  0  0  0  0  0  0
   39.3610   22.2120   36.3360 N   0  0  0  0  0  0  0  0  0  0  0  0
   36.2590   21.1520   34.8460 O   0  0  0  0  0  0  0  0  0  0  0  0
   35.6930   20.8210   33.6250 C   0  0  0  0  0  0  0  0  0  0  0  0
   35.5520   19.4940   33.2960 C   0  0  0  0  0  0  0  0  0  0  0  0
   34.9730   19.4300   32.0510 C   0  0  0  0  0  0  0  0  0  0  0  0
   34.7710   20.7180   31.6450 N   0  0  0  0  0  0  0  0  0  0  0  0
   35.1970   21.5350   32.5770 N   0  0  0  0  0  0  0  0  0  0  0  0
   41.0305   22.5754   37.5557 H   0  0  0  0  0  0  0  0  0  0  0  0
   39.7040   23.7634   39.3135 H   0  0  0  0  0  0  0  0  0  0  0  0
   37.2087   24.0072   38.9534 H   0  0  0  0  0  0  0  0  0  0  0  0
   35.8493   18.6366   33.9177 H   0  0  0  0  0  0  0  0  0  0  0  0
   34.7211   18.5178   31.4903 H   0  0  0  0  0  0  0  0  0  0  0  0
   34.3506   21.0023   30.7487 H   0  0  0  0  0  0  0  0  0  0  0  0
  1  7  1  0
  2  1  2  0
  3  4  2  0
  5  4  1  0
  6  5  2  0
  7  8  2  0
  7  6  1  0
  8  3  1  0
  9  1  1  0
 10  9  1  0
 11 10  1  0
 12 11  2  0
 13 12  1  0
 13 14  1  0
 14 10  2  0
  3 15  1  0
  4 16  1  0
  5 17  1  0
 11 18  1  0
 12 19  1  0
 13 20  1  0
M  ISO  6  15  14  16  14  17  14  18  14  19  14  20   9
M  END
>  <minimizedAffinity>  (1) 
-4.13320112

>  <minimizedRMSD>  (1) 
1.07041597

$$$$
