
     RDKit          3D

 27 29  0  0  0  0  0  0  0  0999 V2000
   36.9300   22.6480   32.8120 C   0  0  0  0  0  0  0  0  0  0  0  0
   35.9270   22.2800   31.9660 C   0  0  0  0  0  0  0  0  0  0  0  0
   35.6300   23.3680   31.1730 C   0  0  0  0  0  0  0  0  0  0  0  0
   36.4580   24.3720   31.5540 N   0  0  0  0  0  0  0  0  0  0  0  0
   37.2200   23.9410   32.5170 N   0  0  0  0  0  0  0  0  0  0  0  0
   36.2110   27.7630   30.5760 N   0  0  0  0  0  0  0  0  0  0  0  0
   35.7100   26.5850   30.8590 N   0  0  0  0  0  0  0  0  0  0  0  0
   36.7140   25.7280   31.1970 C   0  0  0  0  0  0  0  0  0  0  0  0
   37.9040   26.4500   31.1090 C   0  0  0  0  0  0  0  0  0  0  0  0
   37.5500   27.7390   30.7130 C   0  0  0  0  0  0  0  0  0  0  0  0
   37.4280   21.7310   33.7290 O   0  0  0  0  0  0  0  0  0  0  0  0
   38.5990   21.9530   34.4310 C   0  0  0  0  0  0  0  0  0  0  0  0
   39.6010   21.6870   33.7350 O   0  0  0  0  0  0  0  0  0  0  0  0
   39.9620   22.6990   37.6990 C   0  0  0  0  0  0  0  0  0  0  0  0
   38.9040   23.3000   38.3800 C   0  0  0  0  0  0  0  0  0  0  0  0
   37.6880   23.4500   37.6870 C   0  0  0  0  0  0  0  0  0  0  0  0
   37.5860   23.0130   36.4030 N   0  0  0  0  0  0  0  0  0  0  0  0
   38.6620   22.4300   35.7890 C   0  0  0  0  0  0  0  0  0  0  0  0
   39.8260   22.2820   36.4380 N   0  0  0  0  0  0  0  0  0  0  0  0
   35.4422   21.2935   31.9235 H   0  0  0  0  0  0  0  0  0  0  0  0
   34.8669   23.4130   30.3820 H   0  0  0  0  0  0  0  0  0  0  0  0
   35.6610   28.5858   30.2908 H   0  0  0  0  0  0  0  0  0  0  0  0
   38.9188   26.0770   31.3115 H   0  0  0  0  0  0  0  0  0  0  0  0
   38.2376   28.5807   30.5438 H   0  0  0  0  0  0  0  0  0  0  0  0
   40.9268   22.5660   38.2103 H   0  0  0  0  0  0  0  0  0  0  0  0
   39.0154   23.6437   39.4190 H   0  0  0  0  0  0  0  0  0  0  0  0
   36.8243   23.9184   38.1815 H   0  0  0  0  0  0  0  0  0  0  0  0
  1 11  1  0
  2  1  1  0
  3  4  1  0
  3  2  2  0
  4  5  1  0
  5  1  2  0
  6 10  1  0
  6  7  1  0
  7  8  2  0
  8  4  1  0
  9  8  1  0
 10  9  2  0
 11 12  1  0
 12 18  1  0
 13 12  2  0
 14 15  2  0
 16 15  1  0
 17 16  2  0
 18 17  1  0
 18 19  2  0
 19 14  1  0
  2 20  1  0
  3 21  1  0
  6 22  1  0
  9 23  1  0
 10 24  1  0
 14 25  1  0
 15 26  1  0
 16 27  1  0
M  ISO  8  20  14  21  14  22   9  23  14  24  14  25  14  26  14  27  14
M  END
>  <minimizedAffinity>  (1) 
-4.89599657

>  <minimizedRMSD>  (1) 
3.63777995

$$$$
