
     RDKit          3D

 28 30  0  0  0  0  0  0  0  0999 V2000
   36.7410   21.1590   33.2250 C   0  0  0  0  0  0  0  0  0  0  0  0
   35.7190   20.4610   33.8230 C   0  0  0  0  0  0  0  0  0  0  0  0
   35.4040   19.4050   32.9970 C   0  0  0  0  0  0  0  0  0  0  0  0
   36.2320   19.4820   31.9250 N   0  0  0  0  0  0  0  0  0  0  0  0
   37.0250   20.5240   32.0640 N   0  0  0  0  0  0  0  0  0  0  0  0
   36.4510   18.7340   30.7190 C   0  0  0  0  0  0  0  0  0  0  0  0
   36.6130   17.3730   30.8830 C   0  0  0  0  0  0  0  0  0  0  0  0
   36.8290   16.5730   29.7550 C   0  0  0  0  0  0  0  0  0  0  0  0
   36.8760   17.1380   28.5490 N   0  0  0  0  0  0  0  0  0  0  0  0
   36.7150   18.4630   28.4200 C   0  0  0  0  0  0  0  0  0  0  0  0
   36.5020   19.2820   29.4780 N   0  0  0  0  0  0  0  0  0  0  0  0
   37.2330   22.2830   33.8860 O   0  0  0  0  0  0  0  0  0  0  0  0
   38.4190   22.2210   34.6140 C   0  0  0  0  0  0  0  0  0  0  0  0
   39.3700   21.7840   33.9210 O   0  0  0  0  0  0  0  0  0  0  0  0
   39.9460   22.7860   37.8390 C   0  0  0  0  0  0  0  0  0  0  0  0
   38.9170   23.3140   38.6290 C   0  0  0  0  0  0  0  0  0  0  0  0
   37.6660   23.4750   38.0200 C   0  0  0  0  0  0  0  0  0  0  0  0
   37.5100   23.1160   36.7140 N   0  0  0  0  0  0  0  0  0  0  0  0
   38.5520   22.6110   36.0050 C   0  0  0  0  0  0  0  0  0  0  0  0
   39.7370   22.4570   36.5760 N   0  0  0  0  0  0  0  0  0  0  0  0
   35.2409   20.7015   34.7840 H   0  0  0  0  0  0  0  0  0  0  0  0
   34.6291   18.6444   33.1728 H   0  0  0  0  0  0  0  0  0  0  0  0
   36.5729   16.9235   31.8861 H   0  0  0  0  0  0  0  0  0  0  0  0
   36.9590   15.4861   29.8632 H   0  0  0  0  0  0  0  0  0  0  0  0
   36.7577   18.9034   27.4129 H   0  0  0  0  0  0  0  0  0  0  0  0
   40.9448   22.6427   38.2770 H   0  0  0  0  0  0  0  0  0  0  0  0
   39.0839   23.5899   39.6807 H   0  0  0  0  0  0  0  0  0  0  0  0
   36.8191   23.8864   38.5889 H   0  0  0  0  0  0  0  0  0  0  0  0
  1  2  1  0
  1 12  1  0
  3  2  2  0
  4  5  1  0
  4  3  1  0
  5  1  2  0
  6  7  2  0
  6  4  1  0
  8  7  1  0
  9  8  2  0
 10  9  1  0
 10 11  2  0
 11  6  1  0
 12 13  1  0
 13 19  1  0
 14 13  2  0
 15 16  2  0
 17 16  1  0
 18 17  2  0
 19 20  2  0
 19 18  1  0
 20 15  1  0
  2 21  1  0
  3 22  1  0
  7 23  1  0
  8 24  1  0
 10 25  1  0
 15 26  1  0
 16 27  1  0
 17 28  1  0
M  ISO  8  21  14  22  14  23  14  24  14  25  14  26  14  27  14  28  14
M  END
>  <minimizedAffinity>  (1) 
-4.73093462

>  <minimizedRMSD>  (1) 
2.99629354

$$$$
