
     RDKit          3D

 28 30  0  0  0  0  0  0  0  0999 V2000
   36.9360   22.6790   32.7890 C   0  0  0  0  0  0  0  0  0  0  0  0
   35.9060   22.3510   31.9490 C   0  0  0  0  0  0  0  0  0  0  0  0
   35.6230   23.4620   31.1860 C   0  0  0  0  0  0  0  0  0  0  0  0
   36.4830   24.4500   31.5720 N   0  0  0  0  0  0  0  0  0  0  0  0
   37.2600   23.9840   32.5230 N   0  0  0  0  0  0  0  0  0  0  0  0
   36.7710   25.8060   31.2510 C   0  0  0  0  0  0  0  0  0  0  0  0
   35.8870   26.8720   31.2110 C   0  0  0  0  0  0  0  0  0  0  0  0
   36.3610   28.1290   30.8710 C   0  0  0  0  0  0  0  0  0  0  0  0
   37.6570   28.3460   30.5810 N   0  0  0  0  0  0  0  0  0  0  0  0
   38.5140   27.2980   30.6220 C   0  0  0  0  0  0  0  0  0  0  0  0
   38.0580   26.0750   30.9500 N   0  0  0  0  0  0  0  0  0  0  0  0
   37.4200   21.7300   33.6720 O   0  0  0  0  0  0  0  0  0  0  0  0
   38.5820   21.9210   34.3940 C   0  0  0  0  0  0  0  0  0  0  0  0
   39.5830   21.6170   33.7200 O   0  0  0  0  0  0  0  0  0  0  0  0
   39.9480   22.7180   37.6440 C   0  0  0  0  0  0  0  0  0  0  0  0
   38.8890   23.2970   38.3360 C   0  0  0  0  0  0  0  0  0  0  0  0
   37.6740   23.4150   37.6570 C   0  0  0  0  0  0  0  0  0  0  0  0
   37.5590   22.9710   36.3750 N   0  0  0  0  0  0  0  0  0  0  0  0
   38.6510   22.4080   35.7570 C   0  0  0  0  0  0  0  0  0  0  0  0
   39.8230   22.2870   36.3910 N   0  0  0  0  0  0  0  0  0  0  0  0
   35.3971   21.3774   31.8936 H   0  0  0  0  0  0  0  0  0  0  0  0
   34.8478   23.5392   30.4094 H   0  0  0  0  0  0  0  0  0  0  0  0
   34.8228   26.7226   31.4460 H   0  0  0  0  0  0  0  0  0  0  0  0
   35.6574   28.9739   30.8372 H   0  0  0  0  0  0  0  0  0  0  0  0
   39.5786   27.4459   30.3881 H   0  0  0  0  0  0  0  0  0  0  0  0
   40.9198   22.6131   38.1486 H   0  0  0  0  0  0  0  0  0  0  0  0
   39.0035   23.6466   39.3727 H   0  0  0  0  0  0  0  0  0  0  0  0
   36.8070   23.8683   38.1598 H   0  0  0  0  0  0  0  0  0  0  0  0
  1 12  1  0
  2  1  1  0
  3  4  1  0
  3  2  2  0
  4  5  1  0
  5  1  2  0
  6  4  1  0
  7  6  2  0
  8  7  1  0
  9 10  1  0
  9  8  2  0
 10 11  2  0
 11  6  1  0
 12 13  1  0
 13 19  1  0
 14 13  2  0
 15 16  2  0
 17 16  1  0
 18 17  2  0
 19 18  1  0
 19 20  2  0
 20 15  1  0
  2 21  1  0
  3 22  1  0
  7 23  1  0
  8 24  1  0
 10 25  1  0
 15 26  1  0
 16 27  1  0
 17 28  1  0
M  ISO  8  21  14  22  14  23  14  24  14  25  14  26  14  27  14  28  14
M  END
>  <minimizedAffinity>  (1) 
-4.70334864

>  <minimizedRMSD>  (1) 
3.88942075

$$$$
