
     RDKit          3D

 36 39  0  0  0  0  0  0  0  0999 V2000
   36.5380   21.8300   32.2300 C   0  0  0  0  0  0  0  0  0  0  0  0
   35.2650   21.3550   32.4490 C   0  0  0  0  0  0  0  0  0  0  0  0
   35.1280   20.1820   31.7430 C   0  0  0  0  0  0  0  0  0  0  0  0
   36.3210   19.9740   31.1130 N   0  0  0  0  0  0  0  0  0  0  0  0
   37.1630   20.9490   31.3980 N   0  0  0  0  0  0  0  0  0  0  0  0
   36.5300   18.8380   30.2890 C   0  0  0  0  0  0  0  0  0  0  0  0
   36.5640   19.1720   28.9520 C   0  0  0  0  0  0  0  0  0  0  0  0
   36.7600   18.1860   27.9800 C   0  0  0  0  0  0  0  0  0  0  0  0
   36.9190   16.8750   28.3810 C   0  0  0  0  0  0  0  0  0  0  0  0
   36.8830   16.5580   29.7220 C   0  0  0  0  0  0  0  0  0  0  0  0
   37.0370   15.2500   30.1740 C   0  0  0  0  0  0  0  0  0  0  0  0
   36.9930   14.9840   31.5340 C   0  0  0  0  0  0  0  0  0  0  0  0
   36.7960   15.9930   32.4590 C   0  0  0  0  0  0  0  0  0  0  0  0
   36.6380   17.3090   32.0380 C   0  0  0  0  0  0  0  0  0  0  0  0
   36.6890   17.5290   30.6850 C   0  0  0  0  0  0  0  0  0  0  0  0
   36.9200   23.0130   32.8410 O   0  0  0  0  0  0  0  0  0  0  0  0
   37.8640   23.0650   33.8430 C   0  0  0  0  0  0  0  0  0  0  0  0
   38.0670   21.9370   34.3070 O   0  0  0  0  0  0  0  0  0  0  0  0
   38.5240   26.0320   35.7970 C   0  0  0  0  0  0  0  0  0  0  0  0
   39.6790   26.5710   35.2450 C   0  0  0  0  0  0  0  0  0  0  0  0
   40.2580   25.8830   34.1510 C   0  0  0  0  0  0  0  0  0  0  0  0
   39.6620   24.7450   33.7000 N   0  0  0  0  0  0  0  0  0  0  0  0
   38.5270   24.2740   34.2930 C   0  0  0  0  0  0  0  0  0  0  0  0
   37.9750   24.9180   35.3270 N   0  0  0  0  0  0  0  0  0  0  0  0
   34.4951   21.8283   33.0761 H   0  0  0  0  0  0  0  0  0  0  0  0
   34.2358   19.5403   31.6957 H   0  0  0  0  0  0  0  0  0  0  0  0
   36.4361   20.2213   28.6477 H   0  0  0  0  0  0  0  0  0  0  0  0
   36.7870   18.4510   26.9128 H   0  0  0  0  0  0  0  0  0  0  0  0
   37.0742   16.0846   27.6319 H   0  0  0  0  0  0  0  0  0  0  0  0
   37.1928   14.4317   29.4556 H   0  0  0  0  0  0  0  0  0  0  0  0
   37.1174   13.9488   31.8846 H   0  0  0  0  0  0  0  0  0  0  0  0
   36.7641   15.7537   33.5322 H   0  0  0  0  0  0  0  0  0  0  0  0
   36.4804   18.1304   32.7525 H   0  0  0  0  0  0  0  0  0  0  0  0
   38.0503   26.5428   36.6483 H   0  0  0  0  0  0  0  0  0  0  0  0
   40.1258   27.4947   35.6415 H   0  0  0  0  0  0  0  0  0  0  0  0
   41.1738   26.2616   33.6736 H   0  0  0  0  0  0  0  0  0  0  0  0
  1  2  1  0
  1 16  1  0
  3  2  2  0
  4  5  1  0
  4  3  1  0
  5  1  2  0
  6 15  1  0
  6  4  1  0
  7  6  2  0
  8  9  2  0
  8  7  1  0
  9 10  1  0
 10 11  1  0
 10 15  2  0
 11 12  2  0
 12 13  1  0
 14 13  2  0
 15 14  1  0
 16 17  1  0
 17 23  1  0
 17 18  2  0
 20 19  2  0
 21 20  1  0
 22 21  2  0
 22 23  1  0
 23 24  2  0
 24 19  1  0
  2 25  1  0
  3 26  1  0
  7 27  1  0
  8 28  1  0
  9 29  1  0
 11 30  1  0
 12 31  1  0
 13 32  1  0
 14 33  1  0
 19 34  1  0
 20 35  1  0
 21 36  1  0
M  ISO  8  25  14  26  14  27  14  28  14  29  14  30  14  31  14  32  14
M  ISO  4  33  14  34  14  35  14  36  14
M  END
>  <minimizedAffinity>  (1) 
-4.60395956

>  <minimizedRMSD>  (1) 
4.36513519

$$$$
