
     RDKit          3D

 31 34  0  0  0  0  0  0  0  0999 V2000
   36.8830   21.8440   32.2900 C   0  0  0  0  0  0  0  0  0  0  0  0
   35.5370   21.6770   32.4240 C   0  0  0  0  0  0  0  0  0  0  0  0
   35.1740   20.5710   31.6790 C   0  0  0  0  0  0  0  0  0  0  0  0
   36.3080   20.0900   31.1110 N   0  0  0  0  0  0  0  0  0  0  0  0
   37.3130   20.8390   31.4710 N   0  0  0  0  0  0  0  0  0  0  0  0
   36.9990   15.5720   30.9170 N   0  0  0  0  0  0  0  0  0  0  0  0
   36.9050   15.9900   32.2000 C   0  0  0  0  0  0  0  0  0  0  0  0
   36.7040   17.3210   32.1500 N   0  0  0  0  0  0  0  0  0  0  0  0
   36.6750   17.7200   30.8470 C   0  0  0  0  0  0  0  0  0  0  0  0
   36.4990   18.9700   30.2520 C   0  0  0  0  0  0  0  0  0  0  0  0
   36.5190   19.0380   28.9060 N   0  0  0  0  0  0  0  0  0  0  0  0
   36.7060   17.9260   28.1460 C   0  0  0  0  0  0  0  0  0  0  0  0
   36.8790   16.7050   28.7280 N   0  0  0  0  0  0  0  0  0  0  0  0
   36.8630   16.5980   30.0740 C   0  0  0  0  0  0  0  0  0  0  0  0
   37.5140   22.9000   32.9470 O   0  0  0  0  0  0  0  0  0  0  0  0
   38.3090   22.6630   34.0670 C   0  0  0  0  0  0  0  0  0  0  0  0
   39.1720   21.7780   33.8600 O   0  0  0  0  0  0  0  0  0  0  0  0
   37.7250   23.1810   37.6030 C   0  0  0  0  0  0  0  0  0  0  0  0
   37.8820   24.5620   37.7790 C   0  0  0  0  0  0  0  0  0  0  0  0
   38.1980   25.3300   36.6380 C   0  0  0  0  0  0  0  0  0  0  0  0
   38.3330   24.6950   35.4360 N   0  0  0  0  0  0  0  0  0  0  0  0
   38.1690   23.3490   35.3300 C   0  0  0  0  0  0  0  0  0  0  0  0
   37.8720   22.6360   36.4060 N   0  0  0  0  0  0  0  0  0  0  0  0
   34.8609   22.3091   33.0184 H   0  0  0  0  0  0  0  0  0  0  0  0
   34.1599   20.1596   31.5679 H   0  0  0  0  0  0  0  0  0  0  0  0
   37.1543   14.5952   30.6297 H   0  0  0  0  0  0  0  0  0  0  0  0
   36.9781   15.3673   33.1038 H   0  0  0  0  0  0  0  0  0  0  0  0
   36.7178   18.0124   27.0495 H   0  0  0  0  0  0  0  0  0  0  0  0
   37.4778   22.5452   38.4659 H   0  0  0  0  0  0  0  0  0  0  0  0
   37.7636   25.0293   38.7677 H   0  0  0  0  0  0  0  0  0  0  0  0
   38.3330   26.4190   36.7150 H   0  0  0  0  0  0  0  0  0  0  0  0
  1  2  1  0
  1 15  1  0
  3  2  2  0
  4  5  1  0
  4  3  1  0
  5  1  2  0
  6  7  1  0
  8  7  2  0
  9  8  1  0
 10  9  2  0
 10  4  1  0
 11 10  1  0
 12 13  1  0
 12 11  2  0
 13 14  2  0
 14  9  1  0
 14  6  1  0
 15 16  1  0
 16 22  1  0
 17 16  2  0
 18 19  2  0
 20 19  1  0
 21 20  2  0
 22 21  1  0
 22 23  2  0
 23 18  1  0
  2 24  1  0
  3 25  1  0
  6 26  1  0
  7 27  1  0
 12 28  1  0
 18 29  1  0
 19 30  1  0
 20 31  1  0
M  ISO  8  24  14  25  14  26   9  27  14  28  14  29  14  30  14  31  14
M  END
>  <minimizedAffinity>  (1) 
-4.60148191

>  <minimizedRMSD>  (1) 
3.68672037

$$$$
