
     RDKit          3D

 26 28  0  0  0  0  0  0  0  0999 V2000
   36.7420   21.0320   33.1870 C   0  0  0  0  0  0  0  0  0  0  0  0
   35.6700   20.3030   33.6160 C   0  0  0  0  0  0  0  0  0  0  0  0
   35.4840   19.2990   32.6820 C   0  0  0  0  0  0  0  0  0  0  0  0
   36.4460   19.4390   31.7090 N   0  0  0  0  0  0  0  0  0  0  0  0
   37.1790   20.4650   32.0210 N   0  0  0  0  0  0  0  0  0  0  0  0
   36.5810   18.5770   30.5580 C   0  0  0  0  0  0  0  0  0  0  0  0
   36.7380   17.1290   30.6320 C   0  0  0  0  0  0  0  0  0  0  0  0
   36.8430   16.7710   28.8170 S   0  0  0  0  0  0  0  0  0  0  0  0
   36.6590   18.6040   28.3280 C   0  0  0  0  0  0  0  0  0  0  0  0
   36.5490   19.2410   29.4160 N   0  0  0  0  0  0  0  0  0  0  0  0
   37.2010   22.1220   33.8980 O   0  0  0  0  0  0  0  0  0  0  0  0
   38.3910   22.1320   34.5910 C   0  0  0  0  0  0  0  0  0  0  0  0
   39.3230   21.7370   33.8780 O   0  0  0  0  0  0  0  0  0  0  0  0
   39.9410   22.7480   37.7960 C   0  0  0  0  0  0  0  0  0  0  0  0
   38.9320   23.3000   38.5820 C   0  0  0  0  0  0  0  0  0  0  0  0
   37.6640   23.4650   37.9790 C   0  0  0  0  0  0  0  0  0  0  0  0
   37.4890   23.0840   36.6810 N   0  0  0  0  0  0  0  0  0  0  0  0
   38.5370   22.5470   35.9690 C   0  0  0  0  0  0  0  0  0  0  0  0
   39.7400   22.3850   36.5280 N   0  0  0  0  0  0  0  0  0  0  0  0
   35.0733   20.4788   34.5232 H   0  0  0  0  0  0  0  0  0  0  0  0
   34.7034   18.5245   32.7124 H   0  0  0  0  0  0  0  0  0  0  0  0
   36.7810   16.4550   31.5003 H   0  0  0  0  0  0  0  0  0  0  0  0
   36.6502   19.0218   27.3105 H   0  0  0  0  0  0  0  0  0  0  0  0
   40.9390   22.6064   38.2365 H   0  0  0  0  0  0  0  0  0  0  0  0
   39.1139   23.5946   39.6261 H   0  0  0  0  0  0  0  0  0  0  0  0
   36.8282   23.8956   38.5500 H   0  0  0  0  0  0  0  0  0  0  0  0
  1  2  1  0
  1 11  1  0
  3  2  2  0
  4  5  1  0
  4  3  1  0
  5  1  2  0
  6  7  2  0
  6  4  1  0
  8  7  1  0
  9  8  1  0
  9 10  2  0
 10  6  1  0
 11 12  1  0
 12 18  1  0
 13 12  2  0
 14 15  2  0
 16 15  1  0
 17 16  2  0
 18 19  2  0
 18 17  1  0
 19 14  1  0
  2 20  1  0
  3 21  1  0
  7 22  1  0
  9 23  1  0
 14 24  1  0
 15 25  1  0
 16 26  1  0
M  ISO  7  20  14  21  14  22  14  23  14  24  14  25  14  26  14
M  END
>  <minimizedAffinity>  (1) 
-4.56699467

>  <minimizedRMSD>  (1) 
2.7198143

$$$$
