
     RDKit          3D

 32 34  0  0  1  0  0  0  0  0999 V2000
   36.8330   21.3680   33.2900 C   0  0  0  0  0  0  0  0  0  0  0  0
   35.8390   20.6900   33.9390 C   0  0  0  0  0  0  0  0  0  0  0  0
   35.4220   19.6670   33.1160 C   0  0  0  0  0  0  0  0  0  0  0  0
   36.1840   19.7520   31.9770 N   0  0  0  0  0  0  0  0  0  0  0  0
   37.0200   20.7610   32.0800 N   0  0  0  0  0  0  0  0  0  0  0  0
   36.6980   19.5580   29.6920 N   0  0  0  0  0  0  0  0  0  0  0  0
   36.7300   18.4870   28.7030 C   0  0  0  0  0  0  0  0  0  0  0  0
   36.9510   17.1920   29.4940 C   0  0  0  0  0  0  0  0  0  0  0  0
   36.9990   17.6770   30.9490 C   0  0  0  0  0  0  0  0  0  0  0  0
   36.0850   18.8740   30.8410 C   0  0  1  0  0  0  0  0  0  0  0  0
   37.4270   22.4570   33.9140 O   0  0  0  0  0  0  0  0  0  0  0  0
   38.5500   22.3390   34.6990 C   0  0  0  0  0  0  0  0  0  0  0  0
   39.4990   21.8460   34.0610 O   0  0  0  0  0  0  0  0  0  0  0  0
   39.9320   22.8360   38.0100 C   0  0  0  0  0  0  0  0  0  0  0  0
   38.9170   23.4310   38.7370 C   0  0  0  0  0  0  0  0  0  0  0  0
   37.7150   23.6680   38.0600 C   0  0  0  0  0  0  0  0  0  0  0  0
   37.5780   23.3160   36.7360 N   0  0  0  0  0  0  0  0  0  0  0  0
   38.6290   22.7350   36.0980 C   0  0  0  0  0  0  0  0  0  0  0  0
   39.7900   22.4980   36.7250 N   0  0  0  0  0  0  0  0  0  0  0  0
   35.4431   20.9201   34.9392 H   0  0  0  0  0  0  0  0  0  0  0  0
   34.6349   18.9287   33.3290 H   0  0  0  0  0  0  0  0  0  0  0  0
   36.1206   20.3488   29.3724 H   0  0  0  0  0  0  0  0  0  0  0  0
   37.5542   18.6468   27.9923 H   0  0  0  0  0  0  0  0  0  0  0  0
   35.7993   18.4493   28.1178 H   0  0  0  0  0  0  0  0  0  0  0  0
   36.1199   16.4882   29.3396 H   0  0  0  0  0  0  0  0  0  0  0  0
   37.8575   16.6485   29.1892 H   0  0  0  0  0  0  0  0  0  0  0  0
   36.6067   16.9224   31.6466 H   0  0  0  0  0  0  0  0  0  0  0  0
   38.0052   17.8891   31.3396 H   0  0  0  0  0  0  0  0  0  0  0  0
   35.0227   18.5991   30.7633 H   0  0  0  0  0  0  0  0  0  0  0  0
   40.8917   22.6335   38.5080 H   0  0  0  0  0  0  0  0  0  0  0  0
   39.0478   23.7043   39.7944 H   0  0  0  0  0  0  0  0  0  0  0  0
   36.8737   24.1389   38.5896 H   0  0  0  0  0  0  0  0  0  0  0  0
  1 11  1  0
  1  2  1  0
  3  2  2  0
  4  5  1  0
  4  3  1  0
  5  1  2  0
  6 10  1  0
  7  8  1  0
  7  6  1  0
  8  9  1  0
 10  9  1  0
 10  4  1  0
 11 12  1  0
 12 18  1  0
 13 12  2  0
 14 15  2  0
 16 15  1  0
 17 16  2  0
 18 19  2  0
 18 17  1  0
 19 14  1  0
  2 20  1  0
  3 21  1  0
  6 22  1  0
  7 23  1  0
  7 24  1  0
  8 25  1  0
  8 26  1  0
  9 27  1  0
  9 28  1  0
 10 29  1  6
 14 30  1  0
 15 31  1  0
 16 32  1  0
M  ISO  8  20  14  21  14  22   5  23  13  24  13  25  13  26  13  27  13
M  ISO  5  28  13  29  13  30  14  31  14  32  14
M  END
>  <minimizedAffinity>  (1) 
-4.47494173

>  <minimizedRMSD>  (1) 
2.52208805

$$$$
