
     RDKit          3D

 29 30  0  0  0  0  0  0  0  0999 V2000
   38.9320   21.9990   34.5790 C   0  0  0  0  0  0  0  0  0  0  0  0
   39.9960   21.9640   33.9250 O   0  0  0  0  0  0  0  0  0  0  0  0
   39.9390   22.8360   37.9550 C   0  0  0  0  0  0  0  0  0  0  0  0
   38.8020   23.3760   38.5360 C   0  0  0  0  0  0  0  0  0  0  0  0
   37.6560   23.4540   37.7410 C   0  0  0  0  0  0  0  0  0  0  0  0
   37.6870   23.0060   36.4440 N   0  0  0  0  0  0  0  0  0  0  0  0
   38.8550   22.4840   35.9450 C   0  0  0  0  0  0  0  0  0  0  0  0
   39.9500   22.4080   36.7000 N   0  0  0  0  0  0  0  0  0  0  0  0
   37.8570   21.5250   33.8480 O   0  0  0  0  0  0  0  0  0  0  0  0
   37.1800   22.3300   32.9540 C   0  0  0  0  0  0  0  0  0  0  0  0
   36.1960   21.7900   32.1550 C   0  0  0  0  0  0  0  0  0  0  0  0
   35.6930   22.8110   31.3660 C   0  0  0  0  0  0  0  0  0  0  0  0
   36.3780   23.9310   31.7020 N   0  0  0  0  0  0  0  0  0  0  0  0
   37.2460   23.6440   32.6310 N   0  0  0  0  0  0  0  0  0  0  0  0
   36.1140   25.2150   31.0680 C   0  0  0  0  0  0  0  0  0  0  0  0
   36.4560   26.3750   31.9740 C   0  0  0  0  0  0  0  0  0  0  0  0
   34.6260   25.3560   30.7500 C   0  0  0  0  0  0  0  0  0  0  0  0
   40.8593   22.7603   38.5528 H   0  0  0  0  0  0  0  0  0  0  0  0
   38.8022   23.7279   39.5782 H   0  0  0  0  0  0  0  0  0  0  0  0
   36.7278   23.8749   38.1549 H   0  0  0  0  0  0  0  0  0  0  0  0
   35.8695   20.7396   32.1455 H   0  0  0  0  0  0  0  0  0  0  0  0
   34.8942   22.7290   30.6142 H   0  0  0  0  0  0  0  0  0  0  0  0
   36.7353   25.2390   30.1606 H   0  0  0  0  0  0  0  0  0  0  0  0
   36.3631   26.0600   33.0238 H   0  0  0  0  0  0  0  0  0  0  0  0
   37.4884   26.7007   31.7788 H   0  0  0  0  0  0  0  0  0  0  0  0
   35.7654   27.2087   31.7788 H   0  0  0  0  0  0  0  0  0  0  0  0
   34.0541   25.4102   31.6881 H   0  0  0  0  0  0  0  0  0  0  0  0
   34.4611   26.2738   30.1665 H   0  0  0  0  0  0  0  0  0  0  0  0
   34.2917   24.4855   30.1665 H   0  0  0  0  0  0  0  0  0  0  0  0
  1  7  1  0
  2  1  2  0
  3  4  2  0
  5  4  1  0
  6  5  2  0
  7  6  1  0
  7  8  2  0
  8  3  1  0
  9  1  1  0
 10  9  1  0
 11 10  1  0
 12 13  1  0
 12 11  2  0
 13 14  1  0
 14 10  2  0
 15 13  1  0
 15 16  1  0
 17 15  1  0
  3 18  1  0
  4 19  1  0
  5 20  1  0
 11 21  1  0
 12 22  1  0
 15 23  1  0
 16 24  1  0
 16 25  1  0
 16 26  1  0
 17 27  1  0
 17 28  1  0
 17 29  1  0
M  ISO  8  18  14  19  14  20  14  21  14  22  14  23   8  24   8  25   8
M  ISO  4  26   8  27   8  28   8  29   8
M  END
>  <minimizedAffinity>  (1) 
-4.37309551

>  <minimizedRMSD>  (1) 
2.78398561

$$$$
