
     RDKit          3D

 23 24  0  0  0  0  0  0  0  0999 V2000
   36.8300   21.5120   34.3570 O   0  0  0  0  0  0  0  0  0  0  0  0
   36.6000   21.0530   33.0730 C   0  0  0  0  0  0  0  0  0  0  0  0
   35.7370   21.7090   32.2400 C   0  0  0  0  0  0  0  0  0  0  0  0
   35.7150   21.0250   31.0400 C   0  0  0  0  0  0  0  0  0  0  0  0
   36.5710   19.9610   31.1780 N   0  0  0  0  0  0  0  0  0  0  0  0
   37.0850   19.9880   32.3740 N   0  0  0  0  0  0  0  0  0  0  0  0
   36.8080   19.0070   30.1110 C   0  0  0  0  0  0  0  0  0  0  0  0
   38.1770   18.8480   29.8890 F   0  0  0  0  0  0  0  0  0  0  0  0
   36.3130   17.7940   30.5640 F   0  0  0  0  0  0  0  0  0  0  0  0
   36.2450   19.3770   28.9280 F   0  0  0  0  0  0  0  0  0  0  0  0
   37.9940   22.1660   34.7200 C   0  0  0  0  0  0  0  0  0  0  0  0
   38.7180   22.3680   33.7310 O   0  0  0  0  0  0  0  0  0  0  0  0
   39.9430   22.7300   37.7000 C   0  0  0  0  0  0  0  0  0  0  0  0
   39.0630   23.2920   38.6080 C   0  0  0  0  0  0  0  0  0  0  0  0
   37.7470   23.4840   38.1770 C   0  0  0  0  0  0  0  0  0  0  0  0
   37.3950   23.1180   36.9100 N   0  0  0  0  0  0  0  0  0  0  0  0
   38.3300   22.5640   36.0630 C   0  0  0  0  0  0  0  0  0  0  0  0
   39.5880   22.3790   36.4710 N   0  0  0  0  0  0  0  0  0  0  0  0
   35.1642   22.6166   32.4814 H   0  0  0  0  0  0  0  0  0  0  0  0
   35.1260   21.2829   30.1475 H   0  0  0  0  0  0  0  0  0  0  0  0
   40.9852   22.5667   38.0117 H   0  0  0  0  0  0  0  0  0  0  0  0
   39.3839   23.5745   39.6215 H   0  0  0  0  0  0  0  0  0  0  0  0
   37.0011   23.9265   38.8536 H   0  0  0  0  0  0  0  0  0  0  0  0
  1 11  1  0
  2  1  1  0
  3  2  1  0
  4  5  1  0
  4  3  2  0
  5  6  1  0
  6  2  2  0
  7  9  1  0
  7  5  1  0
  8  7  1  0
 10  7  1  0
 11 17  1  0
 12 11  2  0
 13 14  2  0
 15 14  1  0
 16 15  2  0
 17 18  2  0
 17 16  1  0
 18 13  1  0
  3 19  1  0
  4 20  1  0
 13 21  1  0
 14 22  1  0
 15 23  1  0
M  ISO  5  19  14  20  14  21  14  22  14  23  14
M  END
>  <minimizedAffinity>  (1) 
-4.33214951

>  <minimizedRMSD>  (1) 
2.317698

$$$$
