
     RDKit          3D

 30 32  0  0  0  0  0  0  0  0999 V2000
   36.7110   21.2980   33.0250 C   0  0  0  0  0  0  0  0  0  0  0  0
   35.7390   20.4800   33.5650 C   0  0  0  0  0  0  0  0  0  0  0  0
   35.5950   19.4070   32.7100 C   0  0  0  0  0  0  0  0  0  0  0  0
   36.4670   19.5910   31.6880 N   0  0  0  0  0  0  0  0  0  0  0  0
   37.1320   20.7050   31.8630 N   0  0  0  0  0  0  0  0  0  0  0  0
   36.5680   18.6510   30.6230 C   0  0  0  0  0  0  0  0  0  0  0  0
   36.6160   17.2770   30.8900 C   0  0  0  0  0  0  0  0  0  0  0  0
   36.7170   16.3580   29.8420 C   0  0  0  0  0  0  0  0  0  0  0  0
   36.7650   16.8430   28.5470 C   0  0  0  0  0  0  0  0  0  0  0  0
   36.7180   18.2010   28.2780 C   0  0  0  0  0  0  0  0  0  0  0  0
   36.6180   19.1220   29.3270 C   0  0  0  0  0  0  0  0  0  0  0  0
   37.0780   22.4700   33.6680 O   0  0  0  0  0  0  0  0  0  0  0  0
   38.0810   22.5120   34.6080 C   0  0  0  0  0  0  0  0  0  0  0  0
   39.0450   21.7830   34.2790 O   0  0  0  0  0  0  0  0  0  0  0  0
   37.7810   23.2910   38.1320 C   0  0  0  0  0  0  0  0  0  0  0  0
   37.9630   24.6790   38.1990 C   0  0  0  0  0  0  0  0  0  0  0  0
   38.1910   25.3420   36.9900 C   0  0  0  0  0  0  0  0  0  0  0  0
   38.2310   24.6410   35.8120 N   0  0  0  0  0  0  0  0  0  0  0  0
   38.0460   23.2900   35.8260 C   0  0  0  0  0  0  0  0  0  0  0  0
   37.8290   22.6580   36.9720 N   0  0  0  0  0  0  0  0  0  0  0  0
   35.1846   20.6512   34.4995 H   0  0  0  0  0  0  0  0  0  0  0  0
   34.9029   18.5611   32.8340 H   0  0  0  0  0  0  0  0  0  0  0  0
   36.5740   16.9195   31.9294 H   0  0  0  0  0  0  0  0  0  0  0  0
   36.7573   15.2770   30.0415 H   0  0  0  0  0  0  0  0  0  0  0  0
   36.8424   16.1327   27.7106 H   0  0  0  0  0  0  0  0  0  0  0  0
   36.7594   18.5562   27.2378 H   0  0  0  0  0  0  0  0  0  0  0  0
   36.5799   20.2021   29.1220 H   0  0  0  0  0  0  0  0  0  0  0  0
   37.5961   22.7217   39.0549 H   0  0  0  0  0  0  0  0  0  0  0  0
   37.9281   25.2200   39.1561 H   0  0  0  0  0  0  0  0  0  0  0  0
   38.3392   26.4320   36.9833 H   0  0  0  0  0  0  0  0  0  0  0  0
  1  2  1  0
  1 12  1  0
  3  2  2  0
  4  5  1  0
  4  3  1  0
  5  1  2  0
  6  7  2  0
  6  4  1  0
  8  7  1  0
  9  8  2  0
 10  9  1  0
 10 11  2  0
 11  6  1  0
 12 13  1  0
 13 19  1  0
 14 13  2  0
 15 16  2  0
 17 16  1  0
 18 19  1  0
 18 17  2  0
 19 20  2  0
 20 15  1  0
  2 21  1  0
  3 22  1  0
  7 23  1  0
  8 24  1  0
  9 25  1  0
 10 26  1  0
 11 27  1  0
 15 28  1  0
 16 29  1  0
 17 30  1  0
M  ISO  8  21  14  22  14  23  14  24  14  25  14  26  14  27  14  28  14
M  ISO  2  29  14  30  14
M  END
>  <minimizedAffinity>  (1) 
-4.29331207

>  <minimizedRMSD>  (1) 
3.10782433

$$$$
