
     RDKit          3D

 23 24  0  0  0  0  0  0  0  0999 V2000
   38.2040   22.0260   34.5570 C   0  0  0  0  0  0  0  0  0  0  0  0
   39.0970   21.5640   33.8100 O   0  0  0  0  0  0  0  0  0  0  0  0
   39.9800   22.6870   37.6330 C   0  0  0  0  0  0  0  0  0  0  0  0
   39.0240   23.2540   38.4830 C   0  0  0  0  0  0  0  0  0  0  0  0
   37.7190   23.4060   37.9580 C   0  0  0  0  0  0  0  0  0  0  0  0
   37.4440   23.0070   36.6740 N   0  0  0  0  0  0  0  0  0  0  0  0
   38.4380   22.4620   35.9110 C   0  0  0  0  0  0  0  0  0  0  0  0
   39.6820   22.3110   36.3980 N   0  0  0  0  0  0  0  0  0  0  0  0
   36.9860   22.0540   33.9070 O   0  0  0  0  0  0  0  0  0  0  0  0
   36.6310   21.1040   32.9670 C   0  0  0  0  0  0  0  0  0  0  0  0
   35.6820   20.1620   33.3080 C   0  0  0  0  0  0  0  0  0  0  0  0
   35.5140   19.3460   32.2120 C   0  0  0  0  0  0  0  0  0  0  0  0
   36.3450   19.7980   31.2440 N   0  0  0  0  0  0  0  0  0  0  0  0
   37.0010   20.8320   31.6920 N   0  0  0  0  0  0  0  0  0  0  0  0
   36.4430   19.1810   29.9370 C   0  0  0  0  0  0  0  0  0  0  0  0
   41.0077   22.5496   38.0004 H   0  0  0  0  0  0  0  0  0  0  0  0
   39.2744   23.5658   39.5077 H   0  0  0  0  0  0  0  0  0  0  0  0
   36.9242   23.8443   38.5794 H   0  0  0  0  0  0  0  0  0  0  0  0
   35.1592   20.0789   34.2722 H   0  0  0  0  0  0  0  0  0  0  0  0
   34.8315   18.4866   32.1370 H   0  0  0  0  0  0  0  0  0  0  0  0
   36.6146   18.1007   30.0534 H   0  0  0  0  0  0  0  0  0  0  0  0
   35.5074   19.3460   29.3826 H   0  0  0  0  0  0  0  0  0  0  0  0
   37.2814   19.6278   29.3826 H   0  0  0  0  0  0  0  0  0  0  0  0
  1  7  1  0
  2  1  2  0
  3  4  2  0
  5  4  1  0
  6  5  2  0
  7  8  2  0
  7  6  1  0
  8  3  1  0
  9  1  1  0
 10 11  1  0
 10  9  1  0
 12 11  2  0
 13 14  1  0
 13 12  1  0
 14 10  2  0
 15 13  1  0
  3 16  1  0
  4 17  1  0
  5 18  1  0
 11 19  1  0
 12 20  1  0
 15 21  1  0
 15 22  1  0
 15 23  1  0
M  ISO  8  16  14  17  14  18  14  19  14  20  14  21   8  22   8  23   8
M  END
>  <minimizedAffinity>  (1) 
-4.05142832

>  <minimizedRMSD>  (1) 
1.25847256

$$$$
