
     RDKit          3D

 40 43  0  0  1  0  0  0  0  0999 V2000
   36.8300   25.6250   30.9500 C   0  0  0  0  0  0  0  0  0  0  0  0
   35.4650   25.7580   31.1470 C   0  0  0  0  0  0  0  0  0  0  0  0
   34.9320   24.4870   31.2240 C   0  0  0  0  0  0  0  0  0  0  0  0
   35.9620   23.6230   31.0750 N   0  0  0  0  0  0  0  0  0  0  0  0
   37.0680   24.2880   30.9160 N   0  0  0  0  0  0  0  0  0  0  0  0
   35.8280   22.1710   31.0950 C   0  0  2  0  0  0  0  0  0  0  0  0
   35.0300   21.5800   32.2280 C   0  0  0  0  0  0  0  0  0  0  0  0
   36.5100   21.4390   32.2400 C   0  0  1  0  0  0  0  0  0  0  0  0
   37.0450   20.1280   32.0690 N   0  0  0  0  0  0  0  0  0  0  0  0
   36.0870   19.1770   32.2790 C   0  0  0  0  0  0  0  0  0  0  0  0
   36.3770   17.8120   32.1670 C   0  0  0  0  0  0  0  0  0  0  0  0
   35.3720   16.7550   32.3840 C   0  0  0  0  0  0  0  0  0  0  0  0
   37.6800   17.4410   31.8340 C   0  0  0  0  0  0  0  0  0  0  0  0
   37.9900   16.2190   31.7220 O   0  0  0  0  0  0  0  0  0  0  0  0
   38.5850   18.4130   31.6390 N   0  0  0  0  0  0  0  0  0  0  0  0
   38.2860   19.7160   31.7510 C   0  0  0  0  0  0  0  0  0  0  0  0
   39.0840   20.6740   31.5820 O   0  0  0  0  0  0  0  0  0  0  0  0
   37.6070   26.7670   30.8380 O   0  0  0  0  0  0  0  0  0  0  0  0
   38.6770   26.9920   31.6810 C   0  0  0  0  0  0  0  0  0  0  0  0
   39.7520   27.1110   31.0360 O   0  0  0  0  0  0  0  0  0  0  0  0
   39.6910   26.8610   35.1460 C   0  0  0  0  0  0  0  0  0  0  0  0
   38.5670   27.2360   35.8700 C   0  0  0  0  0  0  0  0  0  0  0  0
   37.4310   27.5420   35.1140 C   0  0  0  0  0  0  0  0  0  0  0  0
   37.4600   27.4650   33.7500 N   0  0  0  0  0  0  0  0  0  0  0  0
   38.6080   27.0860   33.1220 C   0  0  0  0  0  0  0  0  0  0  0  0
   39.7000   26.7920   33.8280 N   0  0  0  0  0  0  0  0  0  0  0  0
   34.9081   26.7032   31.2273 H   0  0  0  0  0  0  0  0  0  0  0  0
   33.8742   24.2271   31.3770 H   0  0  0  0  0  0  0  0  0  0  0  0
   35.8201   22.0813   29.9987 H   0  0  0  0  0  0  0  0  0  0  0  0
   34.5377   22.2431   32.9546 H   0  0  0  0  0  0  0  0  0  0  0  0
   34.1873   20.8760   32.2932 H   0  0  0  0  0  0  0  0  0  0  0  0
   37.3340   21.7034   32.9191 H   0  0  0  0  0  0  0  0  0  0  0  0
   35.0659   19.4905   32.5417 H   0  0  0  0  0  0  0  0  0  0  0  0
   35.2273   16.6028   33.4638 H   0  0  0  0  0  0  0  0  0  0  0  0
   34.4186   17.0557   31.9251 H   0  0  0  0  0  0  0  0  0  0  0  0
   35.7204   15.8180   31.9251 H   0  0  0  0  0  0  0  0  0  0  0  0
   39.5493   18.1473   31.3931 H   0  0  0  0  0  0  0  0  0  0  0  0
   40.6118   26.6112   35.6935 H   0  0  0  0  0  0  0  0  0  0  0  0
   38.5700   27.2890   36.9687 H   0  0  0  0  0  0  0  0  0  0  0  0
   36.5047   27.8478   35.6225 H   0  0  0  0  0  0  0  0  0  0  0  0
  1  2  1  0
  2  3  2  0
  4  6  1  0
  4  3  1  0
  5  1  2  0
  5  4  1  0
  6  7  1  0
  6  8  1  0
  7  8  1  0
  9  8  1  0
  9 10  1  0
 11 10  2  0
 11 12  1  0
 13 11  1  0
 14 13  2  0
 15 16  1  0
 15 13  1  0
 16  9  1  0
 17 16  2  0
 18  1  1  0
 18 19  1  0
 19 25  1  0
 20 19  2  0
 21 22  2  0
 23 22  1  0
 24 23  2  0
 25 24  1  0
 25 26  2  0
 26 21  1  0
  2 27  1  0
  3 28  1  0
  6 29  1  6
  7 30  1  0
  7 31  1  0
  8 32  1  1
 10 33  1  0
 12 34  1  0
 12 35  1  0
 12 36  1  0
 15 37  1  0
 21 38  1  0
 22 39  1  0
 23 40  1  0
M  ISO  8  27  14  28  14  29  13  30  13  31  13  32  13  33  14  34   8
M  ISO  6  35   8  36   8  37   9  38  14  39  14  40  14
M  END
>  <minimizedAffinity>  (1) 
-5.29815435

>  <minimizedRMSD>  (1) 
5.05993462

$$$$
