
     RDKit          3D

 37 40  0  0  1  0  0  0  0  0999 V2000
   36.8550   21.1430   33.2980 C   0  0  0  0  0  0  0  0  0  0  0  0
   35.7050   20.6700   33.8820 C   0  0  0  0  0  0  0  0  0  0  0  0
   35.3620   19.4980   33.2300 C   0  0  0  0  0  0  0  0  0  0  0  0
   36.2950   19.2910   32.2820 N   0  0  0  0  0  0  0  0  0  0  0  0
   37.1830   20.2510   32.3090 N   0  0  0  0  0  0  0  0  0  0  0  0
   36.2930   18.1550   31.3740 C   0  0  2  0  0  0  0  0  0  0  0  0
   37.5040   17.2670   31.3840 C   0  0  0  0  0  0  0  0  0  0  0  0
   37.3700   18.1850   30.2580 C   0  0  1  0  0  0  0  0  0  0  0  0
   36.8410   17.8340   28.9410 C   0  0  0  0  0  0  0  0  0  0  0  0
   36.5860   18.8620   28.0250 C   0  0  0  0  0  0  0  0  0  0  0  0
   36.0880   18.6170   26.7670 C   0  0  0  0  0  0  0  0  0  0  0  0
   35.8580   17.3010   26.4650 C   0  0  0  0  0  0  0  0  0  0  0  0
   36.0750   16.2210   27.2900 C   0  0  0  0  0  0  0  0  0  0  0  0
   36.5800   16.5340   28.5550 C   0  0  0  0  0  0  0  0  0  0  0  0
   37.4400   22.3200   33.7530 O   0  0  0  0  0  0  0  0  0  0  0  0
   38.5830   22.3000   34.5240 C   0  0  0  0  0  0  0  0  0  0  0  0
   39.5900   21.9240   33.8610 O   0  0  0  0  0  0  0  0  0  0  0  0
   39.9370   22.7890   37.8510 C   0  0  0  0  0  0  0  0  0  0  0  0
   38.8930   23.3150   38.5780 C   0  0  0  0  0  0  0  0  0  0  0  0
   37.6760   23.5100   37.8990 C   0  0  0  0  0  0  0  0  0  0  0  0
   37.5700   23.1800   36.5750 N   0  0  0  0  0  0  0  0  0  0  0  0
   38.6660   22.6600   35.9300 C   0  0  0  0  0  0  0  0  0  0  0  0
   39.8160   22.4740   36.5630 N   0  0  0  0  0  0  0  0  0  0  0  0
   35.1576   21.1366   34.7143 H   0  0  0  0  0  0  0  0  0  0  0  0
   34.4934   18.8584   33.4453 H   0  0  0  0  0  0  0  0  0  0  0  0
   35.2054   18.0036   31.4380 H   0  0  0  0  0  0  0  0  0  0  0  0
   38.2939   17.4378   32.1302 H   0  0  0  0  0  0  0  0  0  0  0  0
   37.6464   16.1791   31.4631 H   0  0  0  0  0  0  0  0  0  0  0  0
   38.1076   18.8647   29.8064 H   0  0  0  0  0  0  0  0  0  0  0  0
   36.7911   19.9011   28.3220 H   0  0  0  0  0  0  0  0  0  0  0  0
   35.8872   19.4260   26.0492 H   0  0  0  0  0  0  0  0  0  0  0  0
   35.4599   17.0857   25.4624 H   0  0  0  0  0  0  0  0  0  0  0  0
   35.8663   15.1874   26.9768 H   0  0  0  0  0  0  0  0  0  0  0  0
   36.7760   15.7182   29.2664 H   0  0  0  0  0  0  0  0  0  0  0  0
   40.9029   22.6235   38.3506 H   0  0  0  0  0  0  0  0  0  0  0  0
   39.0051   23.5713   39.6418 H   0  0  0  0  0  0  0  0  0  0  0  0
   36.8095   23.9278   38.4326 H   0  0  0  0  0  0  0  0  0  0  0  0
  1 15  1  0
  1  2  1  0
  3  2  2  0
  4  5  1  0
  4  3  1  0
  5  1  2  0
  6  7  1  0
  6  4  1  0
  8  6  1  0
  8  7  1  0
  9  8  1  0
 10  9  2  0
 11 10  1  0
 12 11  2  0
 12 13  1  0
 13 14  2  0
 14  9  1  0
 15 16  1  0
 16 22  1  0
 17 16  2  0
 18 19  2  0
 20 19  1  0
 21 20  2  0
 22 23  2  0
 22 21  1  0
 23 18  1  0
  2 24  1  0
  3 25  1  0
  6 26  1  6
  7 27  1  0
  7 28  1  0
  8 29  1  6
 10 30  1  0
 11 31  1  0
 12 32  1  0
 13 33  1  0
 14 34  1  0
 18 35  1  0
 19 36  1  0
 20 37  1  0
M  ISO  8  24  14  25  14  26  13  27  13  28  13  29  13  30  14  31  14
M  ISO  6  32  14  33  14  34  14  35  14  36  14  37  14
M  END
>  <minimizedAffinity>  (1) 
-4.9983902

>  <minimizedRMSD>  (1) 
1.01779175

$$$$
