
     RDKit          3D

 43 46  0  0  1  0  0  0  0  0999 V2000
   36.9010   21.4890   33.2810 C   0  0  0  0  0  0  0  0  0  0  0  0
   35.9670   20.7830   34.0270 C   0  0  0  0  0  0  0  0  0  0  0  0
   35.4880   19.7600   33.2370 C   0  0  0  0  0  0  0  0  0  0  0  0
   36.1330   19.8630   32.0430 N   0  0  0  0  0  0  0  0  0  0  0  0
   36.9640   20.8760   32.0590 N   0  0  0  0  0  0  0  0  0  0  0  0
   35.9100   18.9630   30.9230 C   0  0  2  0  0  0  0  0  0  0  0  0
   36.5570   17.6120   30.9890 C   0  0  0  0  0  0  0  0  0  0  0  0
   37.1310   18.6100   30.0770 C   0  0  1  0  0  0  0  0  0  0  0  0
   36.8020   18.5090   28.6050 C   0  0  0  0  0  0  0  0  0  0  0  0
   36.6720   17.0640   28.1540 C   0  0  0  0  0  0  0  0  0  0  0  0
   35.8980   17.0880   26.8610 C   0  0  0  0  0  0  0  0  0  0  0  0
   35.9970   18.4020   26.1520 C   0  0  0  0  0  0  0  0  0  0  0  0
   37.3490   19.0560   26.3000 C   0  0  0  0  0  0  0  0  0  0  0  0
   37.8140   19.1600   27.7220 C   0  0  0  0  0  0  0  0  0  0  0  0
   37.5230   22.5720   33.8680 O   0  0  0  0  0  0  0  0  0  0  0  0
   38.6310   22.3990   34.6800 C   0  0  0  0  0  0  0  0  0  0  0  0
   39.5980   21.8800   34.0680 O   0  0  0  0  0  0  0  0  0  0  0  0
   39.9500   22.8290   38.0170 C   0  0  0  0  0  0  0  0  0  0  0  0
   38.9180   23.4260   38.7440 C   0  0  0  0  0  0  0  0  0  0  0  0
   37.7330   23.6800   38.0320 C   0  0  0  0  0  0  0  0  0  0  0  0
   37.6440   23.3480   36.7200 N   0  0  0  0  0  0  0  0  0  0  0  0
   38.7040   22.7620   36.0760 C   0  0  0  0  0  0  0  0  0  0  0  0
   39.8220   22.5200   36.7410 N   0  0  0  0  0  0  0  0  0  0  0  0
   35.6639   21.0007   35.0618 H   0  0  0  0  0  0  0  0  0  0  0  0
   34.7340   19.0093   33.5162 H   0  0  0  0  0  0  0  0  0  0  0  0
   34.8942   19.3395   30.7321 H   0  0  0  0  0  0  0  0  0  0  0  0
   37.1112   17.3171   31.8922 H   0  0  0  0  0  0  0  0  0  0  0  0
   36.1932   16.5812   30.8663 H   0  0  0  0  0  0  0  0  0  0  0  0
   38.1549   18.9845   29.9306 H   0  0  0  0  0  0  0  0  0  0  0  0
   35.8435   19.0392   28.5041 H   0  0  0  0  0  0  0  0  0  0  0  0
   37.6677   16.6250   27.9929 H   0  0  0  0  0  0  0  0  0  0  0  0
   36.1600   16.4546   28.9132 H   0  0  0  0  0  0  0  0  0  0  0  0
   36.2919   16.3014   26.2006 H   0  0  0  0  0  0  0  0  0  0  0  0
   34.8384   16.9218   27.1053 H   0  0  0  0  0  0  0  0  0  0  0  0
   35.2339   19.0795   26.5628 H   0  0  0  0  0  0  0  0  0  0  0  0
   35.8428   18.2080   25.0803 H   0  0  0  0  0  0  0  0  0  0  0  0
   38.0850   18.4642   25.7360 H   0  0  0  0  0  0  0  0  0  0  0  0
   37.2542   20.0825   25.9161 H   0  0  0  0  0  0  0  0  0  0  0  0
   38.7833   18.6519   27.8326 H   0  0  0  0  0  0  0  0  0  0  0  0
   37.9308   20.2174   28.0018 H   0  0  0  0  0  0  0  0  0  0  0  0
   40.9006   22.6092   38.5249 H   0  0  0  0  0  0  0  0  0  0  0  0
   39.0258   23.6818   39.8084 H   0  0  0  0  0  0  0  0  0  0  0  0
   36.8769   24.1486   38.5394 H   0  0  0  0  0  0  0  0  0  0  0  0
  1 15  1  0
  1  2  1  0
  3  2  2  0
  4  5  1  0
  4  3  1  0
  5  1  2  0
  6  7  1  0
  6  4  1  0
  8  6  1  0
  8  7  1  0
  9  8  1  0
 10  9  1  0
 11 10  1  0
 12 13  1  0
 12 11  1  0
 13 14  1  0
 14  9  1  0
 15 16  1  0
 16 22  1  0
 17 16  2  0
 18 19  2  0
 20 19  1  0
 21 20  2  0
 22 21  1  0
 22 23  2  0
 23 18  1  0
  2 24  1  0
  3 25  1  0
  6 26  1  6
  7 27  1  0
  7 28  1  0
  8 29  1  6
  9 30  1  0
 10 31  1  0
 10 32  1  0
 11 33  1  0
 11 34  1  0
 12 35  1  0
 12 36  1  0
 13 37  1  0
 13 38  1  0
 14 39  1  0
 14 40  1  0
 18 41  1  0
 19 42  1  0
 20 43  1  0
M  ISO  8  24  14  25  14  26  13  27  13  28  13  29  13  30  13  31  13
M  ISO  8  32  13  33  13  34  13  35  13  36  13  37  13  38  13  39  13
M  ISO  4  40  13  41  14  42  14  43  14
M  END
>  <minimizedAffinity>  (1) 
-4.91999149

>  <minimizedRMSD>  (1) 
1.0670253

$$$$
