
     RDKit          3D

 36 39  0  0  1  0  0  0  0  0999 V2000
   36.9210   21.2630   33.3190 C   0  0  0  0  0  0  0  0  0  0  0  0
   35.8030   20.7750   33.9750 C   0  0  0  0  0  0  0  0  0  0  0  0
   35.3850   19.6460   33.3050 C   0  0  0  0  0  0  0  0  0  0  0  0
   36.2540   19.4800   32.2650 N   0  0  0  0  0  0  0  0  0  0  0  0
   37.1540   20.4180   32.2630 N   0  0  0  0  0  0  0  0  0  0  0  0
   36.1480   18.3910   31.3190 C   0  0  2  0  0  0  0  0  0  0  0  0
   37.1780   17.2930   31.4250 C   0  0  0  0  0  0  0  0  0  0  0  0
   37.2710   18.2480   30.2900 C   0  0  1  0  0  0  0  0  0  0  0  0
   36.7980   17.8630   28.9360 C   0  0  0  0  0  0  0  0  0  0  0  0
   36.5510   18.8070   27.9440 C   0  0  0  0  0  0  0  0  0  0  0  0
   36.1100   18.4480   26.6870 C   0  0  0  0  0  0  0  0  0  0  0  0
   35.9110   17.0930   26.4190 C   0  0  0  0  0  0  0  0  0  0  0  0
   36.1580   16.1480   27.4170 C   0  0  0  0  0  0  0  0  0  0  0  0
   36.5870   16.5610   28.6230 N   0  0  0  0  0  0  0  0  0  0  0  0
   37.5410   22.4050   33.7990 O   0  0  0  0  0  0  0  0  0  0  0  0
   38.6600   22.3260   34.6270 C   0  0  0  0  0  0  0  0  0  0  0  0
   39.6700   21.8840   34.0130 O   0  0  0  0  0  0  0  0  0  0  0  0
   39.9200   22.8510   37.9690 C   0  0  0  0  0  0  0  0  0  0  0  0
   38.8380   23.3770   38.6790 C   0  0  0  0  0  0  0  0  0  0  0  0
   37.6540   23.5480   37.9690 C   0  0  0  0  0  0  0  0  0  0  0  0
   37.5960   23.2030   36.6410 N   0  0  0  0  0  0  0  0  0  0  0  0
   38.6930   22.6960   36.0220 C   0  0  0  0  0  0  0  0  0  0  0  0
   39.8160   22.5340   36.6890 N   0  0  0  0  0  0  0  0  0  0  0  0
   35.3335   21.2103   34.8695 H   0  0  0  0  0  0  0  0  0  0  0  0
   34.5253   19.0077   33.5569 H   0  0  0  0  0  0  0  0  0  0  0  0
   35.0498   18.4412   31.2809 H   0  0  0  0  0  0  0  0  0  0  0  0
   37.9290   17.3245   32.2281 H   0  0  0  0  0  0  0  0  0  0  0  0
   37.1287   16.1971   31.5064 H   0  0  0  0  0  0  0  0  0  0  0  0
   38.1033   18.8513   29.8985 H   0  0  0  0  0  0  0  0  0  0  0  0
   36.7122   19.8716   28.1688 H   0  0  0  0  0  0  0  0  0  0  0  0
   35.9203   19.2097   25.9164 H   0  0  0  0  0  0  0  0  0  0  0  0
   35.5615   16.7711   25.4269 H   0  0  0  0  0  0  0  0  0  0  0  0
   36.0033   15.0771   27.2189 H   0  0  0  0  0  0  0  0  0  0  0  0
   40.8790   22.6971   38.4854 H   0  0  0  0  0  0  0  0  0  0  0  0
   38.9180   23.6421   39.7436 H   0  0  0  0  0  0  0  0  0  0  0  0
   36.7655   23.9590   38.4706 H   0  0  0  0  0  0  0  0  0  0  0  0
  1 15  1  0
  1  2  1  0
  3  2  2  0
  4  3  1  0
  5  4  1  0
  5  1  2  0
  6  7  1  0
  6  4  1  0
  8  6  1  0
  8  7  1  0
  9  8  1  0
 10  9  2  0
 11 10  1  0
 12 11  2  0
 12 13  1  0
 13 14  2  0
 14  9  1  0
 15 16  1  0
 16 22  1  0
 17 16  2  0
 18 19  2  0
 20 19  1  0
 21 20  2  0
 22 21  1  0
 22 23  2  0
 23 18  1  0
  2 24  1  0
  3 25  1  0
  6 26  1  6
  7 27  1  0
  7 28  1  0
  8 29  1  6
 10 30  1  0
 11 31  1  0
 12 32  1  0
 13 33  1  0
 18 34  1  0
 19 35  1  0
 20 36  1  0
M  ISO  8  24  14  25  14  26  13  27  13  28  13  29  13  30  14  31  14
M  ISO  5  32  14  33  14  34  14  35  14  36  14
M  END
>  <minimizedAffinity>  (1) 
-4.90237236

>  <minimizedRMSD>  (1) 
0.997068107

$$$$
