
     RDKit          3D

 33 36  0  0  1  0  0  0  0  0999 V2000
   37.5240   24.2470   32.9300 C   0  0  0  0  0  0  0  0  0  0  0  0
   36.5740   24.8140   32.0960 C   0  0  0  0  0  0  0  0  0  0  0  0
   35.8890   23.7870   31.4840 C   0  0  0  0  0  0  0  0  0  0  0  0
   36.4320   22.6290   31.9560 N   0  0  0  0  0  0  0  0  0  0  0  0
   37.3890   22.8910   32.8020 N   0  0  0  0  0  0  0  0  0  0  0  0
   35.9840   21.3070   31.5520 C   0  0  2  0  0  0  0  0  0  0  0  0
   34.6570   20.8490   32.0560 C   0  0  0  0  0  0  0  0  0  0  0  0
   35.8480   20.2530   32.6750 C   0  0  1  0  0  0  0  0  0  0  0  0
   36.2040   18.8880   32.3830 N   0  0  0  0  0  0  0  0  0  0  0  0
   35.3830   17.8080   32.5410 C   0  0  0  0  0  0  0  0  0  0  0  0
   36.0750   16.7080   32.1620 N   0  0  0  0  0  0  0  0  0  0  0  0
   37.3060   17.0980   31.7750 C   0  0  0  0  0  0  0  0  0  0  0  0
   37.3750   18.4340   31.9140 N   0  0  0  0  0  0  0  0  0  0  0  0
   38.3550   25.0760   33.6680 O   0  0  0  0  0  0  0  0  0  0  0  0
   39.3410   24.5320   34.4910 C   0  0  0  0  0  0  0  0  0  0  0  0
   40.4470   24.4160   33.9180 O   0  0  0  0  0  0  0  0  0  0  0  0
   39.7960   22.8350   37.6530 C   0  0  0  0  0  0  0  0  0  0  0  0
   38.7860   23.3140   38.4690 C   0  0  0  0  0  0  0  0  0  0  0  0
   37.9150   24.2600   37.9030 C   0  0  0  0  0  0  0  0  0  0  0  0
   38.0920   24.6560   36.6180 N   0  0  0  0  0  0  0  0  0  0  0  0
   39.1100   24.1380   35.8790 C   0  0  0  0  0  0  0  0  0  0  0  0
   39.9340   23.2450   36.4060 N   0  0  0  0  0  0  0  0  0  0  0  0
   36.3983   25.8899   31.9490 H   0  0  0  0  0  0  0  0  0  0  0  0
   35.0674   23.8825   30.7588 H   0  0  0  0  0  0  0  0  0  0  0  0
   36.4742   21.3649   30.5690 H   0  0  0  0  0  0  0  0  0  0  0  0
   34.0315   21.5402   32.6400 H   0  0  0  0  0  0  0  0  0  0  0  0
   33.7629   20.4307   31.5706 H   0  0  0  0  0  0  0  0  0  0  0  0
   36.2118   20.1460   33.7076 H   0  0  0  0  0  0  0  0  0  0  0  0
   34.3468   17.8283   32.9096 H   0  0  0  0  0  0  0  0  0  0  0  0
   38.1099   16.4414   31.4108 H   0  0  0  0  0  0  0  0  0  0  0  0
   40.5022   22.0932   38.0542 H   0  0  0  0  0  0  0  0  0  0  0  0
   38.6710   22.9714   39.5080 H   0  0  0  0  0  0  0  0  0  0  0  0
   37.0916   24.6784   38.5005 H   0  0  0  0  0  0  0  0  0  0  0  0
  1 14  1  0
  2  1  1  0
  3  4  1  0
  3  2  2  0
  4  5  1  0
  5  1  2  0
  6  4  1  0
  6  7  1  0
  6  8  1  0
  7  8  1  0
  9 10  1  0
  9  8  1  0
 11 10  2  0
 12 13  2  0
 12 11  1  0
 13  9  1  0
 14 15  1  0
 15 21  1  0
 16 15  2  0
 17 18  2  0
 19 18  1  0
 20 19  2  0
 21 22  2  0
 21 20  1  0
 22 17  1  0
  2 23  1  0
  3 24  1  0
  6 25  1  6
  7 26  1  0
  7 27  1  0
  8 28  1  1
 10 29  1  0
 12 30  1  0
 17 31  1  0
 18 32  1  0
 19 33  1  0
M  ISO  8  23  14  24  14  25  13  26  13  27  13  28  13  29  14  30  14
M  ISO  3  31  14  32  14  33  14
M  END
>  <minimizedAffinity>  (1) 
-4.84284401

>  <minimizedRMSD>  (1) 
3.38131142

$$$$
