
     RDKit          3D

 35 38  0  0  1  0  0  0  0  0999 V2000
   36.8600   21.2450   33.2880 C   0  0  0  0  0  0  0  0  0  0  0  0
   35.7530   20.7360   33.9470 C   0  0  0  0  0  0  0  0  0  0  0  0
   35.3700   19.5940   33.2820 C   0  0  0  0  0  0  0  0  0  0  0  0
   36.2410   19.4360   32.2480 N   0  0  0  0  0  0  0  0  0  0  0  0
   37.1230   20.4000   32.2410 N   0  0  0  0  0  0  0  0  0  0  0  0
   36.1640   18.3270   31.3030 C   0  0  2  0  0  0  0  0  0  0  0  0
   37.2340   17.2890   31.3860 C   0  0  0  0  0  0  0  0  0  0  0  0
   37.3180   18.2400   30.2720 C   0  0  1  0  0  0  0  0  0  0  0  0
   36.8260   17.8750   28.9180 C   0  0  0  0  0  0  0  0  0  0  0  0
   36.6340   16.5680   28.5200 C   0  0  0  0  0  0  0  0  0  0  0  0
   36.1720   16.3740   27.2350 C   0  0  0  0  0  0  0  0  0  0  0  0
   35.9050   17.3700   26.3640 N   0  0  0  0  0  0  0  0  0  0  0  0
   36.1090   18.6310   26.8020 C   0  0  0  0  0  0  0  0  0  0  0  0
   36.5640   18.8950   28.0610 N   0  0  0  0  0  0  0  0  0  0  0  0
   37.4620   22.4090   33.7500 O   0  0  0  0  0  0  0  0  0  0  0  0
   38.6010   22.3510   34.5370 C   0  0  0  0  0  0  0  0  0  0  0  0
   39.6060   21.9550   33.8910 O   0  0  0  0  0  0  0  0  0  0  0  0
   39.9290   22.8140   37.8700 C   0  0  0  0  0  0  0  0  0  0  0  0
   38.8630   23.3310   38.6040 C   0  0  0  0  0  0  0  0  0  0  0  0
   37.6620   23.5220   37.9290 C   0  0  0  0  0  0  0  0  0  0  0  0
   37.5840   23.2000   36.6020 N   0  0  0  0  0  0  0  0  0  0  0  0
   38.6620   22.7000   35.9480 C   0  0  0  0  0  0  0  0  0  0  0  0
   39.8110   22.5160   36.5880 N   0  0  0  0  0  0  0  0  0  0  0  0
   35.2697   21.1653   34.8370 H   0  0  0  0  0  0  0  0  0  0  0  0
   34.5251   18.9371   33.5362 H   0  0  0  0  0  0  0  0  0  0  0  0
   35.0644   18.3207   31.2753 H   0  0  0  0  0  0  0  0  0  0  0  0
   37.9749   17.3393   32.1975 H   0  0  0  0  0  0  0  0  0  0  0  0
   37.2228   16.1908   31.4470 H   0  0  0  0  0  0  0  0  0  0  0  0
   38.1490   18.8545   29.8954 H   0  0  0  0  0  0  0  0  0  0  0  0
   36.8391   15.7230   29.1938 H   0  0  0  0  0  0  0  0  0  0  0  0
   36.0105   15.3395   26.8978 H   0  0  0  0  0  0  0  0  0  0  0  0
   35.9020   19.4712   26.1229 H   0  0  0  0  0  0  0  0  0  0  0  0
   40.8943   22.6496   38.3712 H   0  0  0  0  0  0  0  0  0  0  0  0
   38.9670   23.5773   39.6710 H   0  0  0  0  0  0  0  0  0  0  0  0
   36.7855   23.9271   38.4560 H   0  0  0  0  0  0  0  0  0  0  0  0
  1 15  1  0
  1  2  1  0
  3  2  2  0
  4  3  1  0
  5  4  1  0
  5  1  2  0
  6  7  1  0
  6  4  1  0
  8  6  1  0
  8  7  1  0
  9  8  1  0
 10  9  2  0
 11 10  1  0
 12 13  1  0
 12 11  2  0
 13 14  2  0
 14  9  1  0
 15 16  1  0
 16 22  1  0
 17 16  2  0
 18 19  2  0
 20 19  1  0
 21 20  2  0
 22 23  2  0
 22 21  1  0
 23 18  1  0
  2 24  1  0
  3 25  1  0
  6 26  1  6
  7 27  1  0
  7 28  1  0
  8 29  1  6
 10 30  1  0
 11 31  1  0
 13 32  1  0
 18 33  1  0
 19 34  1  0
 20 35  1  0
M  ISO  8  24  14  25  14  26  13  27  13  28  13  29  13  30  14  31  14
M  ISO  4  32  14  33  14  34  14  35  14
M  END
>  <minimizedAffinity>  (1) 
-4.8106389

>  <minimizedRMSD>  (1) 
0.973362803

$$$$
