
     RDKit          3D

 34 37  0  0  1  0  0  0  0  0999 V2000
   36.9230   21.2550   33.3240 C   0  0  0  0  0  0  0  0  0  0  0  0
   35.8140   20.8110   33.9950 C   0  0  0  0  0  0  0  0  0  0  0  0
   35.3580   19.6720   33.3570 C   0  0  0  0  0  0  0  0  0  0  0  0
   36.2090   19.4600   32.3160 N   0  0  0  0  0  0  0  0  0  0  0  0
   37.1320   20.3830   32.2860 N   0  0  0  0  0  0  0  0  0  0  0  0
   36.0760   18.3480   31.3870 C   0  0  2  0  0  0  0  0  0  0  0  0
   37.0540   17.2280   31.5320 C   0  0  0  0  0  0  0  0  0  0  0  0
   37.2510   18.1400   30.3990 C   0  0  1  0  0  0  0  0  0  0  0  0
   36.7870   17.8810   29.0340 C   0  0  0  0  0  0  0  0  0  0  0  0
   36.7290   18.8930   28.0800 C   0  0  0  0  0  0  0  0  0  0  0  0
   36.2690   18.3490   26.9410 N   0  0  0  0  0  0  0  0  0  0  0  0
   36.0650   17.0540   27.2230 C   0  0  0  0  0  0  0  0  0  0  0  0
   36.3730   16.7390   28.4950 N   0  0  0  0  0  0  0  0  0  0  0  0
   37.5800   22.3990   33.7690 O   0  0  0  0  0  0  0  0  0  0  0  0
   38.6890   22.3100   34.6020 C   0  0  0  0  0  0  0  0  0  0  0  0
   39.6870   21.8600   34.0010 O   0  0  0  0  0  0  0  0  0  0  0  0
   39.9050   22.8530   37.9610 C   0  0  0  0  0  0  0  0  0  0  0  0
   38.8320   23.3750   38.6520 C   0  0  0  0  0  0  0  0  0  0  0  0
   37.6480   23.5480   37.9420 C   0  0  0  0  0  0  0  0  0  0  0  0
   37.6030   23.2020   36.6280 N   0  0  0  0  0  0  0  0  0  0  0  0
   38.6960   22.6930   36.0100 C   0  0  0  0  0  0  0  0  0  0  0  0
   39.8200   22.5280   36.6780 N   0  0  0  0  0  0  0  0  0  0  0  0
   35.3655   21.2781   34.8842 H   0  0  0  0  0  0  0  0  0  0  0  0
   34.4857   19.0619   33.6342 H   0  0  0  0  0  0  0  0  0  0  0  0
   34.9818   18.4351   31.3159 H   0  0  0  0  0  0  0  0  0  0  0  0
   37.7701   17.2394   32.3669 H   0  0  0  0  0  0  0  0  0  0  0  0
   36.9508   16.1363   31.6189 H   0  0  0  0  0  0  0  0  0  0  0  0
   38.1622   18.6402   30.0390 H   0  0  0  0  0  0  0  0  0  0  0  0
   37.0088   19.9460   28.2311 H   0  0  0  0  0  0  0  0  0  0  0  0
   35.6857   16.3253   26.4914 H   0  0  0  0  0  0  0  0  0  0  0  0
   36.3033   15.8174   28.9496 H   0  0  0  0  0  0  0  0  0  0  0  0
   40.8583   22.7019   38.4887 H   0  0  0  0  0  0  0  0  0  0  0  0
   38.9086   23.6425   39.7162 H   0  0  0  0  0  0  0  0  0  0  0  0
   36.7575   23.9605   38.4388 H   0  0  0  0  0  0  0  0  0  0  0  0
  1 14  1  0
  1  2  1  0
  3  2  2  0
  4  3  1  0
  5  4  1  0
  5  1  2  0
  6  7  1  0
  6  4  1  0
  8  6  1  0
  8  7  1  0
  9  8  1  0
 10  9  2  0
 11 12  2  0
 11 10  1  0
 12 13  1  0
 13  9  1  0
 14 15  1  0
 15 21  1  0
 16 15  2  0
 17 18  2  0
 19 18  1  0
 20 19  2  0
 21 20  1  0
 21 22  2  0
 22 17  1  0
  2 23  1  0
  3 24  1  0
  6 25  1  6
  7 26  1  0
  7 27  1  0
  8 28  1  6
 10 29  1  0
 12 30  1  0
 13 31  1  0
 17 32  1  0
 18 33  1  0
 19 34  1  0
M  ISO  8  23  14  24  14  25  13  26  13  27  13  28  13  29  14  30  14
M  ISO  4  31   9  32  14  33  14  34  14
M  END
>  <minimizedAffinity>  (1) 
-4.74663353

>  <minimizedRMSD>  (1) 
0.954988539

$$$$
