
     RDKit          3D

 34 37  0  0  1  0  0  0  0  0999 V2000
   37.2650   23.1040   32.7800 C   0  0  0  0  0  0  0  0  0  0  0  0
   36.6340   23.5170   31.6240 C   0  0  0  0  0  0  0  0  0  0  0  0
   35.6710   22.5740   31.3260 C   0  0  0  0  0  0  0  0  0  0  0  0
   35.7310   21.6240   32.2850 N   0  0  0  0  0  0  0  0  0  0  0  0
   36.6660   21.9300   33.1410 N   0  0  0  0  0  0  0  0  0  0  0  0
   34.8830   20.4550   32.3400 C   0  0  2  0  0  0  0  0  0  0  0  0
   35.3980   19.2680   33.1160 C   0  0  0  0  0  0  0  0  0  0  0  0
   35.3940   19.1810   31.6450 C   0  0  2  0  0  0  0  0  0  0  0  0
   36.6360   19.2310   30.9260 N   0  0  0  0  0  0  0  0  0  0  0  0
   36.7400   19.4320   29.5880 C   0  0  0  0  0  0  0  0  0  0  0  0
   38.0670   19.4230   29.2190 C   0  0  0  0  0  0  0  0  0  0  0  0
   38.7920   19.2150   30.3320 N   0  0  0  0  0  0  0  0  0  0  0  0
   37.9160   19.1020   31.3490 C   0  0  0  0  0  0  0  0  0  0  0  0
   38.2900   23.8730   33.3130 O   0  0  0  0  0  0  0  0  0  0  0  0
   39.1620   23.3460   34.2480 C   0  0  0  0  0  0  0  0  0  0  0  0
   40.1490   22.8100   33.7080 O   0  0  0  0  0  0  0  0  0  0  0  0
   39.7560   22.7890   37.7860 C   0  0  0  0  0  0  0  0  0  0  0  0
   38.7090   23.4370   38.4250 C   0  0  0  0  0  0  0  0  0  0  0  0
   37.7830   24.0770   37.6070 C   0  0  0  0  0  0  0  0  0  0  0  0
   37.9180   24.0560   36.2470 N   0  0  0  0  0  0  0  0  0  0  0  0
   38.9800   23.3940   35.6900 C   0  0  0  0  0  0  0  0  0  0  0  0
   39.8720   22.7780   36.4650 N   0  0  0  0  0  0  0  0  0  0  0  0
   36.8568   24.4273   31.0480 H   0  0  0  0  0  0  0  0  0  0  0  0
   34.9831   22.5925   30.4679 H   0  0  0  0  0  0  0  0  0  0  0  0
   33.9564   21.0475   32.3219 H   0  0  0  0  0  0  0  0  0  0  0  0
   36.3545   19.3431   33.6540 H   0  0  0  0  0  0  0  0  0  0  0  0
   34.9848   18.6421   33.9207 H   0  0  0  0  0  0  0  0  0  0  0  0
   34.9814   18.4706   30.9135 H   0  0  0  0  0  0  0  0  0  0  0  0
   35.8929   19.5797   28.9020 H   0  0  0  0  0  0  0  0  0  0  0  0
   38.4610   19.5606   28.2012 H   0  0  0  0  0  0  0  0  0  0  0  0
   38.2051   18.9263   32.3957 H   0  0  0  0  0  0  0  0  0  0  0  0
   40.5120   22.2691   38.3928 H   0  0  0  0  0  0  0  0  0  0  0  0
   38.6157   23.4445   39.5210 H   0  0  0  0  0  0  0  0  0  0  0  0
   36.9319   24.6063   38.0604 H   0  0  0  0  0  0  0  0  0  0  0  0
  1  5  2  0
  1 14  1  0
  2  1  1  0
  3  2  2  0
  3  4  1  0
  4  6  1  0
  4  5  1  0
  6  7  1  0
  8  6  1  0
  8  7  1  0
  9 13  1  0
  9  8  1  0
 10  9  1  0
 11 10  2  0
 11 12  1  0
 12 13  2  0
 14 15  1  0
 15 21  1  0
 16 15  2  0
 17 18  2  0
 19 18  1  0
 20 19  2  0
 21 20  1  0
 21 22  2  0
 22 17  1  0
  2 23  1  0
  3 24  1  0
  6 25  1  1
  7 26  1  0
  7 27  1  0
  8 28  1  1
 10 29  1  0
 11 30  1  0
 13 31  1  0
 17 32  1  0
 18 33  1  0
 19 34  1  0
M  ISO  8  23  14  24  14  25  13  26  13  27  13  28  13  29  14  30  14
M  ISO  4  31  14  32  14  33  14  34  14
M  END
>  <minimizedAffinity>  (1) 
-4.66367865

>  <minimizedRMSD>  (1) 
2.2841351

$$$$
