
     RDKit          3D

 33 36  0  0  1  0  0  0  0  0999 V2000
   36.8020   21.0190   33.0790 C   0  0  0  0  0  0  0  0  0  0  0  0
   35.6260   20.4300   33.4740 C   0  0  0  0  0  0  0  0  0  0  0  0
   35.4050   19.3430   32.6600 C   0  0  0  0  0  0  0  0  0  0  0  0
   36.4460   19.2970   31.7930 N   0  0  0  0  0  0  0  0  0  0  0  0
   37.2700   20.2730   32.0280 N   0  0  0  0  0  0  0  0  0  0  0  0
   36.5900   18.2850   30.7550 C   0  0  2  0  0  0  0  0  0  0  0  0
   37.9980   17.9720   30.3030 C   0  0  0  0  0  0  0  0  0  0  0  0
   37.1110   18.7470   29.3910 C   0  0  1  0  0  0  0  0  0  0  0  0
   36.5730   18.0320   28.2040 C   0  0  0  0  0  0  0  0  0  0  0  0
   36.2030   18.8280   27.0150 C   0  0  0  0  0  0  0  0  0  0  0  0
   35.6070   17.4480   25.8670 S   0  0  0  0  0  0  0  0  0  0  0  0
   35.9710   16.1370   27.1910 C   0  0  0  0  0  0  0  0  0  0  0  0
   36.3860   16.7090   28.1020 N   0  0  0  0  0  0  0  0  0  0  0  0
   37.2580   22.1430   33.7420 O   0  0  0  0  0  0  0  0  0  0  0  0
   38.4450   22.1070   34.4830 C   0  0  0  0  0  0  0  0  0  0  0  0
   39.4040   21.6690   33.8110 O   0  0  0  0  0  0  0  0  0  0  0  0
   39.9180   22.7310   37.7280 C   0  0  0  0  0  0  0  0  0  0  0  0
   38.9030   23.2830   38.4890 C   0  0  0  0  0  0  0  0  0  0  0  0
   37.6780   23.4380   37.8520 C   0  0  0  0  0  0  0  0  0  0  0  0
   37.5200   23.0570   36.5460 N   0  0  0  0  0  0  0  0  0  0  0  0
   38.5650   22.5240   35.8640 C   0  0  0  0  0  0  0  0  0  0  0  0
   39.7340   22.3740   36.4670 N   0  0  0  0  0  0  0  0  0  0  0  0
   34.9763   20.7673   34.2951 H   0  0  0  0  0  0  0  0  0  0  0  0
   34.5527   18.6490   32.7040 H   0  0  0  0  0  0  0  0  0  0  0  0
   35.7253   17.7031   31.1068 H   0  0  0  0  0  0  0  0  0  0  0  0
   38.8507   18.4693   30.7884 H   0  0  0  0  0  0  0  0  0  0  0  0
   38.5868   17.0483   30.2027 H   0  0  0  0  0  0  0  0  0  0  0  0
   37.1900   19.7122   28.8693 H   0  0  0  0  0  0  0  0  0  0  0  0
   36.2584   19.9135   26.8459 H   0  0  0  0  0  0  0  0  0  0  0  0
   35.8171   15.0511   27.1061 H   0  0  0  0  0  0  0  0  0  0  0  0
   40.9078   22.5844   38.1849 H   0  0  0  0  0  0  0  0  0  0  0  0
   39.0567   23.5815   39.5365 H   0  0  0  0  0  0  0  0  0  0  0  0
   36.8283   23.8701   38.4009 H   0  0  0  0  0  0  0  0  0  0  0  0
  1  2  1  0
  1 14  1  0
  3  2  2  0
  4  5  1  0
  4  3  1  0
  5  1  2  0
  6  4  1  0
  7  6  1  0
  8  7  1  0
  8  6  1  0
  9  8  1  0
 10  9  2  0
 11 10  1  0
 11 12  1  0
 12 13  2  0
 13  9  1  0
 14 15  1  0
 15 21  1  0
 16 15  2  0
 17 18  2  0
 19 18  1  0
 20 19  2  0
 21 22  2  0
 21 20  1  0
 22 17  1  0
  2 23  1  0
  3 24  1  0
  6 25  1  6
  7 26  1  0
  7 27  1  0
  8 28  1  6
 10 29  1  0
 12 30  1  0
 17 31  1  0
 18 32  1  0
 19 33  1  0
M  ISO  8  23  14  24  14  25  13  26  13  27  13  28  13  29  14  30  14
M  ISO  3  31  14  32  14  33  14
M  END
>  <minimizedAffinity>  (1) 
-4.66356564

>  <minimizedRMSD>  (1) 
0.658671677

$$$$
