
     RDKit          3D

 32 35  0  0  1  0  0  0  0  0999 V2000
   36.8830   21.3020   33.2930 C   0  0  0  0  0  0  0  0  0  0  0  0
   35.7970   20.7530   33.9580 C   0  0  0  0  0  0  0  0  0  0  0  0
   35.4070   19.6270   33.2710 C   0  0  0  0  0  0  0  0  0  0  0  0
   36.2510   19.5140   32.2170 N   0  0  0  0  0  0  0  0  0  0  0  0
   37.1160   20.4820   32.2140 N   0  0  0  0  0  0  0  0  0  0  0  0
   36.1650   18.4400   31.2400 C   0  0  2  0  0  0  0  0  0  0  0  0
   37.2350   17.3790   31.3010 C   0  0  0  0  0  0  0  0  0  0  0  0
   37.2740   18.3640   30.1870 C   0  0  1  0  0  0  0  0  0  0  0  0
   36.7710   17.9990   28.8400 C   0  0  0  0  0  0  0  0  0  0  0  0
   36.4020   18.7890   27.8040 N   0  0  0  0  0  0  0  0  0  0  0  0
   36.0220   18.0270   26.8060 O   0  0  0  0  0  0  0  0  0  0  0  0
   36.1150   16.7650   27.1130 C   0  0  0  0  0  0  0  0  0  0  0  0
   36.5850   16.7260   28.3890 N   0  0  0  0  0  0  0  0  0  0  0  0
   37.4820   22.4540   33.7730 O   0  0  0  0  0  0  0  0  0  0  0  0
   38.6140   22.3930   34.5650 C   0  0  0  0  0  0  0  0  0  0  0  0
   39.6180   22.0060   33.9190 O   0  0  0  0  0  0  0  0  0  0  0  0
   39.9240   22.8460   37.9140 C   0  0  0  0  0  0  0  0  0  0  0  0
   38.8650   23.3360   38.6450 C   0  0  0  0  0  0  0  0  0  0  0  0
   37.6530   23.5180   37.9670 C   0  0  0  0  0  0  0  0  0  0  0  0
   37.5780   23.2100   36.6420 N   0  0  0  0  0  0  0  0  0  0  0  0
   38.6600   22.7300   35.9750 C   0  0  0  0  0  0  0  0  0  0  0  0
   39.8080   22.5570   36.6140 N   0  0  0  0  0  0  0  0  0  0  0  0
   35.3303   21.1479   34.8725 H   0  0  0  0  0  0  0  0  0  0  0  0
   34.5760   18.9530   33.5262 H   0  0  0  0  0  0  0  0  0  0  0  0
   35.0652   18.4509   31.2220 H   0  0  0  0  0  0  0  0  0  0  0  0
   37.9986   17.4187   32.0917 H   0  0  0  0  0  0  0  0  0  0  0  0
   37.2264   16.2804   31.3562 H   0  0  0  0  0  0  0  0  0  0  0  0
   38.0814   19.0002   29.7953 H   0  0  0  0  0  0  0  0  0  0  0  0
   35.8649   15.9067   26.4721 H   0  0  0  0  0  0  0  0  0  0  0  0
   40.8914   22.6881   38.4132 H   0  0  0  0  0  0  0  0  0  0  0  0
   38.9664   23.5740   39.7142 H   0  0  0  0  0  0  0  0  0  0  0  0
   36.7713   23.9054   38.4985 H   0  0  0  0  0  0  0  0  0  0  0  0
  1 14  1  0
  1  2  1  0
  3  2  2  0
  4  3  1  0
  5  4  1  0
  5  1  2  0
  6  7  1  0
  6  4  1  0
  8  6  1  0
  8  7  1  0
  9  8  1  0
 10  9  2  0
 11 12  1  0
 11 10  1  0
 12 13  2  0
 13  9  1  0
 14 15  1  0
 15 21  1  0
 16 15  2  0
 17 18  2  0
 19 18  1  0
 20 19  2  0
 21 22  2  0
 21 20  1  0
 22 17  1  0
  2 23  1  0
  3 24  1  0
  6 25  1  6
  7 26  1  0
  7 27  1  0
  8 28  1  6
 12 29  1  0
 17 30  1  0
 18 31  1  0
 19 32  1  0
M  ISO  8  23  14  24  14  25  13  26  13  27  13  28  13  29  14  30  14
M  ISO  2  31  14  32  14
M  END
>  <minimizedAffinity>  (1) 
-4.65364122

>  <minimizedRMSD>  (1) 
0.796204448

$$$$
