
     RDKit          3D

 40 43  0  0  1  0  0  0  0  0999 V2000
   36.8940   21.3800   33.2980 C   0  0  0  0  0  0  0  0  0  0  0  0
   35.9210   20.7980   34.0620 C   0  0  0  0  0  0  0  0  0  0  0  0
   35.4130   19.7190   33.3600 C   0  0  0  0  0  0  0  0  0  0  0  0
   36.0900   19.6760   32.1920 N   0  0  0  0  0  0  0  0  0  0  0  0
   36.9630   20.6520   32.1510 N   0  0  0  0  0  0  0  0  0  0  0  0
   35.8750   18.6980   31.1530 C   0  0  2  0  0  0  0  0  0  0  0  0
   36.3840   17.3000   31.3890 C   0  0  0  0  0  0  0  0  0  0  0  0
   37.0950   18.1390   30.4160 C   0  0  1  0  0  0  0  0  0  0  0  0
   37.0300   17.8220   29.0520 N   0  0  0  0  0  0  0  0  0  0  0  0
   36.6720   16.5140   28.6910 C   0  0  0  0  0  0  0  0  0  0  0  0
   36.1350   16.3540   27.2950 C   0  0  0  0  0  0  0  0  0  0  0  0
   36.5910   17.3030   26.4000 O   0  0  0  0  0  0  0  0  0  0  0  0
   36.1530   18.5430   26.8920 C   0  0  0  0  0  0  0  0  0  0  0  0
   37.0440   18.8400   28.0880 C   0  0  0  0  0  0  0  0  0  0  0  0
   37.5690   22.4960   33.7790 O   0  0  0  0  0  0  0  0  0  0  0  0
   38.6800   22.3510   34.6150 C   0  0  0  0  0  0  0  0  0  0  0  0
   39.6620   21.8650   34.0230 O   0  0  0  0  0  0  0  0  0  0  0  0
   39.9260   22.8480   37.9770 C   0  0  0  0  0  0  0  0  0  0  0  0
   38.8620   23.3830   38.6800 C   0  0  0  0  0  0  0  0  0  0  0  0
   37.6790   23.5740   37.9630 C   0  0  0  0  0  0  0  0  0  0  0  0
   37.6050   23.2440   36.6430 N   0  0  0  0  0  0  0  0  0  0  0  0
   38.7060   22.7190   36.0200 C   0  0  0  0  0  0  0  0  0  0  0  0
   39.8390   22.5300   36.6850 N   0  0  0  0  0  0  0  0  0  0  0  0
   35.5984   21.1294   35.0600 H   0  0  0  0  0  0  0  0  0  0  0  0
   34.6173   19.0337   33.6876 H   0  0  0  0  0  0  0  0  0  0  0  0
   34.9193   19.1562   30.8587 H   0  0  0  0  0  0  0  0  0  0  0  0
   36.8646   17.0498   32.3463 H   0  0  0  0  0  0  0  0  0  0  0  0
   35.9258   16.3008   31.3490 H   0  0  0  0  0  0  0  0  0  0  0  0
   38.1332   18.4772   30.2823 H   0  0  0  0  0  0  0  0  0  0  0  0
   37.5654   15.8792   28.7858 H   0  0  0  0  0  0  0  0  0  0  0  0
   35.8521   16.2270   29.3659 H   0  0  0  0  0  0  0  0  0  0  0  0
   36.4288   15.3609   26.9242 H   0  0  0  0  0  0  0  0  0  0  0  0
   35.0441   16.4794   27.3599 H   0  0  0  0  0  0  0  0  0  0  0  0
   36.2659   19.3231   26.1248 H   0  0  0  0  0  0  0  0  0  0  0  0
   35.0890   18.5202   27.1700 H   0  0  0  0  0  0  0  0  0  0  0  0
   38.0764   18.9700   27.7314 H   0  0  0  0  0  0  0  0  0  0  0  0
   36.6555   19.7505   28.5676 H   0  0  0  0  0  0  0  0  0  0  0  0
   40.8776   22.6788   38.5022 H   0  0  0  0  0  0  0  0  0  0  0  0
   38.9431   23.6438   39.7456 H   0  0  0  0  0  0  0  0  0  0  0  0
   36.7978   23.9952   38.4690 H   0  0  0  0  0  0  0  0  0  0  0  0
  1 15  1  0
  1  2  1  0
  3  2  2  0
  4  3  1  0
  5  4  1  0
  5  1  2  0
  6  7  1  0
  6  4  1  0
  8  6  1  0
  8  7  1  0
  9  8  1  0
 10  9  1  0
 11 10  1  0
 12 13  1  0
 12 11  1  0
 13 14  1  0
 14  9  1  0
 15 16  1  0
 16 22  1  0
 17 16  2  0
 18 19  2  0
 20 19  1  0
 21 20  2  0
 22 21  1  0
 22 23  2  0
 23 18  1  0
  2 24  1  0
  3 25  1  0
  6 26  1  6
  7 27  1  0
  7 28  1  0
  8 29  1  1
 10 30  1  0
 10 31  1  0
 11 32  1  0
 11 33  1  0
 13 34  1  0
 13 35  1  0
 14 36  1  0
 14 37  1  0
 18 38  1  0
 19 39  1  0
 20 40  1  0
M  ISO  8  24  14  25  14  26  13  27  13  28  13  29  13  30  13  31  13
M  ISO  8  32  13  33  13  34  13  35  13  36  13  37  13  38  14  39  14
M  ISO  1  40  14
M  END
>  <minimizedAffinity>  (1) 
-4.60019827

>  <minimizedRMSD>  (1) 
1.04673564

$$$$
