
     RDKit          3D

 29 31  0  0  1  0  0  0  0  0999 V2000
   36.7640   21.0980   33.2300 C   0  0  0  0  0  0  0  0  0  0  0  0
   35.6480   20.4550   33.7070 C   0  0  0  0  0  0  0  0  0  0  0  0
   35.4070   19.3740   32.8750 C   0  0  0  0  0  0  0  0  0  0  0  0
   36.3790   19.3950   31.9250 N   0  0  0  0  0  0  0  0  0  0  0  0
   37.1820   20.4070   32.1270 N   0  0  0  0  0  0  0  0  0  0  0  0
   36.4840   18.4220   30.8550 C   0  0  2  0  0  0  0  0  0  0  0  0
   37.8590   18.1710   30.2960 C   0  0  0  0  0  0  0  0  0  0  0  0
   36.9110   18.9680   29.4760 C   0  0  1  0  0  0  0  0  0  0  0  0
   36.2780   18.4260   28.3100 N   0  0  0  0  0  0  0  0  0  0  0  0
   37.2220   22.2250   33.8920 O   0  0  0  0  0  0  0  0  0  0  0  0
   38.4160   22.2050   34.6130 C   0  0  0  0  0  0  0  0  0  0  0  0
   39.3780   21.8010   33.9150 O   0  0  0  0  0  0  0  0  0  0  0  0
   39.9220   22.7950   37.8430 C   0  0  0  0  0  0  0  0  0  0  0  0
   38.9090   23.3160   38.6200 C   0  0  0  0  0  0  0  0  0  0  0  0
   37.6700   23.4670   38.0060 C   0  0  0  0  0  0  0  0  0  0  0  0
   37.4990   23.1060   36.6940 N   0  0  0  0  0  0  0  0  0  0  0  0
   38.5560   22.5990   36.0030 C   0  0  0  0  0  0  0  0  0  0  0  0
   39.7430   22.4450   36.5640 N   0  0  0  0  0  0  0  0  0  0  0  0
   35.0552   20.7449   34.5871 H   0  0  0  0  0  0  0  0  0  0  0  0
   34.5902   18.6428   32.9653 H   0  0  0  0  0  0  0  0  0  0  0  0
   35.6667   17.7946   31.2403 H   0  0  0  0  0  0  0  0  0  0  0  0
   38.7302   18.6634   30.7528 H   0  0  0  0  0  0  0  0  0  0  0  0
   38.4564   17.2660   30.1115 H   0  0  0  0  0  0  0  0  0  0  0  0
   36.9731   19.9510   28.9863 H   0  0  0  0  0  0  0  0  0  0  0  0
   35.5262   17.7823   28.5953 H   0  0  0  0  0  0  0  0  0  0  0  0
   35.8794   19.1919   27.7483 H   0  0  0  0  0  0  0  0  0  0  0  0
   40.9171   22.6618   38.2926 H   0  0  0  0  0  0  0  0  0  0  0  0
   39.0722   23.5976   39.6708 H   0  0  0  0  0  0  0  0  0  0  0  0
   36.8233   23.8779   38.5755 H   0  0  0  0  0  0  0  0  0  0  0  0
  1  2  1  0
  1 10  1  0
  3  2  2  0
  4  5  1  0
  4  3  1  0
  5  1  2  0
  6  4  1  0
  7  6  1  0
  8  7  1  0
  8  6  1  0
  9  8  1  0
 10 11  1  0
 11 17  1  0
 12 11  2  0
 13 14  2  0
 15 14  1  0
 16 15  2  0
 17 18  2  0
 17 16  1  0
 18 13  1  0
  2 19  1  0
  3 20  1  0
  6 21  1  6
  7 22  1  0
  7 23  1  0
  8 24  1  1
  9 25  1  0
  9 26  1  0
 13 27  1  0
 14 28  1  0
 15 29  1  0
M  ISO  8  19  14  20  14  21  13  22  13  23  13  24  13  25   5  26   5
M  ISO  3  27  14  28  14  29  14
M  END
>  <minimizedAffinity>  (1) 
-4.49352932

>  <minimizedRMSD>  (1) 
0.323169857

$$$$
