
     RDKit          3D

 28 30  0  0  1  0  0  0  0  0999 V2000
   36.7760   21.0480   33.2710 C   0  0  0  0  0  0  0  0  0  0  0  0
   35.6330   20.4510   33.7370 C   0  0  0  0  0  0  0  0  0  0  0  0
   35.4160   19.3330   32.9630 C   0  0  0  0  0  0  0  0  0  0  0  0
   36.4170   19.2710   32.0520 N   0  0  0  0  0  0  0  0  0  0  0  0
   37.2190   20.2760   32.2270 N   0  0  0  0  0  0  0  0  0  0  0  0
   36.5490   18.2370   31.0500 C   0  0  2  0  0  0  0  0  0  0  0  0
   37.8980   18.0410   30.4410 C   0  0  0  0  0  0  0  0  0  0  0  0
   36.8780   18.7000   29.6130 C   0  0  1  0  0  0  0  0  0  0  0  0
   36.1780   18.0200   28.6210 O   0  0  0  0  0  0  0  0  0  0  0  0
   37.2280   22.2130   33.8850 O   0  0  0  0  0  0  0  0  0  0  0  0
   38.4270   22.2050   34.6030 C   0  0  0  0  0  0  0  0  0  0  0  0
   39.3960   21.8160   33.9130 O   0  0  0  0  0  0  0  0  0  0  0  0
   39.9110   22.8040   37.8450 C   0  0  0  0  0  0  0  0  0  0  0  0
   38.9000   23.3220   38.6310 C   0  0  0  0  0  0  0  0  0  0  0  0
   37.6680   23.4630   38.0040 C   0  0  0  0  0  0  0  0  0  0  0  0
   37.4860   23.1090   36.6990 N   0  0  0  0  0  0  0  0  0  0  0  0
   38.5480   22.6040   36.0000 C   0  0  0  0  0  0  0  0  0  0  0  0
   39.7350   22.4610   36.5810 N   0  0  0  0  0  0  0  0  0  0  0  0
   35.0073   20.7995   34.5719 H   0  0  0  0  0  0  0  0  0  0  0  0
   34.5834   18.6214   33.0654 H   0  0  0  0  0  0  0  0  0  0  0  0
   35.7968   17.5887   31.5232 H   0  0  0  0  0  0  0  0  0  0  0  0
   38.7517   18.6247   30.8158 H   0  0  0  0  0  0  0  0  0  0  0  0
   38.5464   17.1645   30.2948 H   0  0  0  0  0  0  0  0  0  0  0  0
   36.8945   19.6301   29.0260 H   0  0  0  0  0  0  0  0  0  0  0  0
   35.5347   17.3951   29.0403 H   0  0  0  0  0  0  0  0  0  0  0  0
   40.9075   22.6710   38.2914 H   0  0  0  0  0  0  0  0  0  0  0  0
   39.0595   23.6038   39.6823 H   0  0  0  0  0  0  0  0  0  0  0  0
   36.8192   23.8697   38.5734 H   0  0  0  0  0  0  0  0  0  0  0  0
  1  2  1  0
  1 10  1  0
  3  2  2  0
  4  5  1  0
  4  3  1  0
  5  1  2  0
  6  4  1  0
  7  6  1  0
  8  7  1  0
  8  6  1  0
  9  8  1  0
 10 11  1  0
 11 17  1  0
 12 11  2  0
 13 14  2  0
 15 14  1  0
 16 15  2  0
 17 18  2  0
 17 16  1  0
 18 13  1  0
  2 19  1  0
  3 20  1  0
  6 21  1  6
  7 22  1  0
  7 23  1  0
  8 24  1  1
  9 25  1  0
 13 26  1  0
 14 27  1  0
 15 28  1  0
M  ISO  8  19  14  20  14  21  13  22  13  23  13  24  13  25   3  26  14
M  ISO  2  27  14  28  14
M  END
>  <minimizedAffinity>  (1) 
-4.48518229

>  <minimizedRMSD>  (1) 
0.366496593

$$$$
