
     RDKit          3D

 39 42  0  0  1  0  0  0  0  0999 V2000
   36.8140   21.0380   33.2460 C   0  0  0  0  0  0  0  0  0  0  0  0
   35.6340   20.5280   33.7690 C   0  0  0  0  0  0  0  0  0  0  0  0
   35.3400   19.3640   33.0780 C   0  0  0  0  0  0  0  0  0  0  0  0
   36.3260   19.1930   32.1690 N   0  0  0  0  0  0  0  0  0  0  0  0
   37.1810   20.1670   32.2680 N   0  0  0  0  0  0  0  0  0  0  0  0
   36.4000   18.0840   31.2330 C   0  0  2  0  0  0  0  0  0  0  0  0
   37.7320   17.4430   31.0310 C   0  0  0  0  0  0  0  0  0  0  0  0
   37.2130   18.3210   29.9490 C   0  0  1  0  0  0  0  0  0  0  0  0
   36.7320   17.7070   28.7270 N   0  0  0  0  0  0  0  0  0  0  0  0
   36.4290   18.7010   27.7230 C   0  0  0  0  0  0  0  0  0  0  0  0
   37.3210   18.4620   26.5390 C   0  0  0  0  0  0  0  0  0  0  0  0
   38.5610   17.8920   27.2380 C   0  0  0  0  0  0  0  0  0  0  0  0
   37.8560   16.9320   28.2040 C   0  0  0  0  0  0  0  0  0  0  0  0
   37.3230   22.2080   33.7740 O   0  0  0  0  0  0  0  0  0  0  0  0
   38.4990   22.2010   34.5270 C   0  0  0  0  0  0  0  0  0  0  0  0
   39.4820   21.8110   33.8450 O   0  0  0  0  0  0  0  0  0  0  0  0
   39.9300   22.7680   37.8040 C   0  0  0  0  0  0  0  0  0  0  0  0
   38.8980   23.2970   38.5580 C   0  0  0  0  0  0  0  0  0  0  0  0
   37.6660   23.4580   37.8970 C   0  0  0  0  0  0  0  0  0  0  0  0
   37.5320   23.1020   36.5850 N   0  0  0  0  0  0  0  0  0  0  0  0
   38.6090   22.5870   35.9170 C   0  0  0  0  0  0  0  0  0  0  0  0
   39.7700   22.4310   36.5280 N   0  0  0  0  0  0  0  0  0  0  0  0
   35.0403   20.9680   34.5838 H   0  0  0  0  0  0  0  0  0  0  0  0
   34.4727   18.7065   33.2378 H   0  0  0  0  0  0  0  0  0  0  0  0
   35.3887   17.7242   31.4736 H   0  0  0  0  0  0  0  0  0  0  0  0
   38.5912   17.7725   31.6337 H   0  0  0  0  0  0  0  0  0  0  0  0
   38.0944   16.4050   31.0659 H   0  0  0  0  0  0  0  0  0  0  0  0
   37.5972   19.1986   29.4084 H   0  0  0  0  0  0  0  0  0  0  0  0
   35.3755   18.6134   27.4188 H   0  0  0  0  0  0  0  0  0  0  0  0
   36.5967   19.7106   28.1263 H   0  0  0  0  0  0  0  0  0  0  0  0
   37.5484   19.3969   26.0059 H   0  0  0  0  0  0  0  0  0  0  0  0
   36.8908   17.8113   25.7634 H   0  0  0  0  0  0  0  0  0  0  0  0
   39.2246   17.3628   26.5384 H   0  0  0  0  0  0  0  0  0  0  0  0
   39.2298   18.6315   27.7026 H   0  0  0  0  0  0  0  0  0  0  0  0
   37.4989   16.0373   27.6729 H   0  0  0  0  0  0  0  0  0  0  0  0
   38.5240   16.5707   28.9998 H   0  0  0  0  0  0  0  0  0  0  0  0
   40.9134   22.6217   38.2747 H   0  0  0  0  0  0  0  0  0  0  0  0
   39.0325   23.5758   39.6135 H   0  0  0  0  0  0  0  0  0  0  0  0
   36.8048   23.8735   38.4408 H   0  0  0  0  0  0  0  0  0  0  0  0
  1  2  1  0
  1 14  1  0
  3  2  2  0
  4  5  1  0
  4  3  1  0
  5  1  2  0
  6  4  1  0
  7  6  1  0
  8  7  1  0
  8  6  1  0
  9 10  1  0
  9  8  1  0
 11 12  1  0
 11 10  1  0
 12 13  1  0
 13  9  1  0
 14 15  1  0
 15 21  1  0
 16 15  2  0
 17 18  2  0
 19 18  1  0
 20 19  2  0
 21 22  2  0
 21 20  1  0
 22 17  1  0
  2 23  1  0
  3 24  1  0
  6 25  1  6
  7 26  1  0
  7 27  1  0
  8 28  1  6
 10 29  1  0
 10 30  1  0
 11 31  1  0
 11 32  1  0
 12 33  1  0
 12 34  1  0
 13 35  1  0
 13 36  1  0
 17 37  1  0
 18 38  1  0
 19 39  1  0
M  ISO  8  23  14  24  14  25  13  26  13  27  13  28  13  29  13  30  13
M  ISO  8  31  13  32  13  33  13  34  13  35  13  36  13  37  14  38  14
M  ISO  1  39  14
M  END
>  <minimizedAffinity>  (1) 
-4.47364235

>  <minimizedRMSD>  (1) 
0.713107467

$$$$
