
     RDKit          3D

 30 32  0  0  1  0  0  0  0  0999 V2000
   36.7600   21.1400   33.2350 C   0  0  0  0  0  0  0  0  0  0  0  0
   35.6620   20.4610   33.7330 C   0  0  0  0  0  0  0  0  0  0  0  0
   35.4130   19.4040   32.8820 C   0  0  0  0  0  0  0  0  0  0  0  0
   36.3420   19.4630   31.9070 N   0  0  0  0  0  0  0  0  0  0  0  0
   37.1370   20.4760   32.1050 N   0  0  0  0  0  0  0  0  0  0  0  0
   36.4310   18.5180   30.7990 C   0  0  2  0  0  0  0  0  0  0  0  0
   37.7920   18.0420   30.4110 C   0  0  0  0  0  0  0  0  0  0  0  0
   37.1380   19.0170   29.5260 C   0  0  1  0  0  0  0  0  0  0  0  0
   36.5430   18.6120   28.2000 C   0  0  0  0  0  0  0  0  0  0  0  0
   37.2190   22.2550   33.9150 O   0  0  0  0  0  0  0  0  0  0  0  0
   38.4050   22.2160   34.6400 C   0  0  0  0  0  0  0  0  0  0  0  0
   39.3560   21.7970   33.9510 O   0  0  0  0  0  0  0  0  0  0  0  0
   39.9320   22.8140   37.8680 C   0  0  0  0  0  0  0  0  0  0  0  0
   38.9210   23.3250   38.6520 C   0  0  0  0  0  0  0  0  0  0  0  0
   37.6680   23.4690   38.0420 C   0  0  0  0  0  0  0  0  0  0  0  0
   37.4990   23.1090   36.7400 N   0  0  0  0  0  0  0  0  0  0  0  0
   38.5430   22.6120   36.0290 C   0  0  0  0  0  0  0  0  0  0  0  0
   39.7240   22.4740   36.5960 N   0  0  0  0  0  0  0  0  0  0  0  0
   35.0932   20.7165   34.6392 H   0  0  0  0  0  0  0  0  0  0  0  0
   34.6112   18.6573   32.9802 H   0  0  0  0  0  0  0  0  0  0  0  0
   35.4703   18.0390   31.0391 H   0  0  0  0  0  0  0  0  0  0  0  0
   38.6645   18.3492   31.0062 H   0  0  0  0  0  0  0  0  0  0  0  0
   38.2359   17.0478   30.2541 H   0  0  0  0  0  0  0  0  0  0  0  0
   37.4524   19.9826   29.1030 H   0  0  0  0  0  0  0  0  0  0  0  0
   35.6449   18.0007   28.3725 H   0  0  0  0  0  0  0  0  0  0  0  0
   36.2698   19.5125   27.6304 H   0  0  0  0  0  0  0  0  0  0  0  0
   37.2805   18.0275   27.6304 H   0  0  0  0  0  0  0  0  0  0  0  0
   40.9344   22.6835   38.3018 H   0  0  0  0  0  0  0  0  0  0  0  0
   39.0888   23.6054   39.7023 H   0  0  0  0  0  0  0  0  0  0  0  0
   36.8206   23.8730   38.6152 H   0  0  0  0  0  0  0  0  0  0  0  0
  1  2  1  0
  1 10  1  0
  3  2  2  0
  4  5  1  0
  4  3  1  0
  5  1  2  0
  6  4  1  0
  7  6  1  0
  8  7  1  0
  8  6  1  0
  9  8  1  0
 10 11  1  0
 11 17  1  0
 12 11  2  0
 13 14  2  0
 15 14  1  0
 16 15  2  0
 17 18  2  0
 17 16  1  0
 18 13  1  0
  2 19  1  0
  3 20  1  0
  6 21  1  6
  7 22  1  0
  7 23  1  0
  8 24  1  1
  9 25  1  0
  9 26  1  0
  9 27  1  0
 13 28  1  0
 14 29  1  0
 15 30  1  0
M  ISO  8  19  14  20  14  21  13  22  13  23  13  24  13  25   8  26   8
M  ISO  4  27   8  28  14  29  14  30  14
M  END
>  <minimizedAffinity>  (1) 
-4.47264385

>  <minimizedRMSD>  (1) 
0.368109345

$$$$
