
     RDKit          3D

 36 38  0  0  1  0  0  0  0  0999 V2000
   36.8270   21.0310   33.2390 C   0  0  0  0  0  0  0  0  0  0  0  0
   35.6300   20.5490   33.7350 C   0  0  0  0  0  0  0  0  0  0  0  0
   35.3430   19.3730   33.0660 C   0  0  0  0  0  0  0  0  0  0  0  0
   36.3490   19.1680   32.1950 N   0  0  0  0  0  0  0  0  0  0  0  0
   37.2250   20.1360   32.2890 N   0  0  0  0  0  0  0  0  0  0  0  0
   36.4360   18.0420   31.2950 C   0  0  2  0  0  0  0  0  0  0  0  0
   37.7620   17.3750   31.1210 C   0  0  0  0  0  0  0  0  0  0  0  0
   37.2940   18.2250   30.0180 C   0  0  1  0  0  0  0  0  0  0  0  0
   36.7300   17.6940   28.7320 C   0  0  0  0  0  0  0  0  0  0  0  0
   36.5430   18.7530   27.6820 C   0  0  0  0  0  0  0  0  0  0  0  0
   37.5270   16.5620   28.1590 C   0  0  0  0  0  0  0  0  0  0  0  0
   37.3400   22.2070   33.7490 O   0  0  0  0  0  0  0  0  0  0  0  0
   38.5250   22.2050   34.4910 C   0  0  0  0  0  0  0  0  0  0  0  0
   39.5170   21.8320   33.8220 O   0  0  0  0  0  0  0  0  0  0  0  0
   39.9290   22.7550   37.7780 C   0  0  0  0  0  0  0  0  0  0  0  0
   38.8860   23.2880   38.5310 C   0  0  0  0  0  0  0  0  0  0  0  0
   37.6640   23.4600   37.8740 C   0  0  0  0  0  0  0  0  0  0  0  0
   37.5390   23.1090   36.5620 N   0  0  0  0  0  0  0  0  0  0  0  0
   38.6130   22.5910   35.8900 C   0  0  0  0  0  0  0  0  0  0  0  0
   39.7770   22.4260   36.5080 N   0  0  0  0  0  0  0  0  0  0  0  0
   35.0168   21.0162   34.5197 H   0  0  0  0  0  0  0  0  0  0  0  0
   34.4634   18.7299   33.2164 H   0  0  0  0  0  0  0  0  0  0  0  0
   35.4146   17.7080   31.5298 H   0  0  0  0  0  0  0  0  0  0  0  0
   38.6167   17.7019   31.7314 H   0  0  0  0  0  0  0  0  0  0  0  0
   38.1008   16.3304   31.1838 H   0  0  0  0  0  0  0  0  0  0  0  0
   37.7700   19.0435   29.4582 H   0  0  0  0  0  0  0  0  0  0  0  0
   35.7388   17.3108   29.0160 H   0  0  0  0  0  0  0  0  0  0  0  0
   36.3714   19.7248   28.1679 H   0  0  0  0  0  0  0  0  0  0  0  0
   37.4448   18.8108   27.0548 H   0  0  0  0  0  0  0  0  0  0  0  0
   35.6759   18.4984   27.0548 H   0  0  0  0  0  0  0  0  0  0  0  0
   37.9504   15.9607   28.9770 H   0  0  0  0  0  0  0  0  0  0  0  0
   36.8735   15.9301   27.5396 H   0  0  0  0  0  0  0  0  0  0  0  0
   38.3423   16.9642   27.5396 H   0  0  0  0  0  0  0  0  0  0  0  0
   40.9085   22.6035   38.2550 H   0  0  0  0  0  0  0  0  0  0  0  0
   39.0169   23.5599   39.5888 H   0  0  0  0  0  0  0  0  0  0  0  0
   36.8029   23.8786   38.4155 H   0  0  0  0  0  0  0  0  0  0  0  0
  1  2  1  0
  1 12  1  0
  3  2  2  0
  4  5  1  0
  4  3  1  0
  5  1  2  0
  6  4  1  0
  7  6  1  0
  8  7  1  0
  8  6  1  0
  9  8  1  0
 10  9  1  0
 11  9  1  0
 12 13  1  0
 13 19  1  0
 14 13  2  0
 15 16  2  0
 17 16  1  0
 18 17  2  0
 19 20  2  0
 19 18  1  0
 20 15  1  0
  2 21  1  0
  3 22  1  0
  6 23  1  6
  7 24  1  0
  7 25  1  0
  8 26  1  6
  9 27  1  0
 10 28  1  0
 10 29  1  0
 10 30  1  0
 11 31  1  0
 11 32  1  0
 11 33  1  0
 15 34  1  0
 16 35  1  0
 17 36  1  0
M  ISO  8  21  14  22  14  23  13  24  13  25  13  26  13  27   8  28   8
M  ISO  8  29   8  30   8  31   8  32   8  33   8  34  14  35  14  36  14
M  END
>  <minimizedAffinity>  (1) 
-4.39217234

>  <minimizedRMSD>  (1) 
0.7527771

$$$$
