
     RDKit          3D

 28 30  0  0  1  0  0  0  0  0999 V2000
   36.8250   21.2770   33.0420 C   0  0  0  0  0  0  0  0  0  0  0  0
   35.4720   21.3050   32.7900 C   0  0  0  0  0  0  0  0  0  0  0  0
   35.1150   20.0550   32.3340 C   0  0  0  0  0  0  0  0  0  0  0  0
   36.2460   19.3100   32.3220 N   0  0  0  0  0  0  0  0  0  0  0  0
   37.2530   20.0130   32.7330 N   0  0  0  0  0  0  0  0  0  0  0  0
   36.3000   17.9210   31.9020 C   0  0  2  0  0  0  0  0  0  0  0  0
   37.6530   17.3610   31.5500 C   0  0  0  0  0  0  0  0  0  0  0  0
   36.7290   17.6540   30.4440 C   0  0  2  0  0  0  0  0  0  0  0  0
   36.8460   19.1320   29.4260 S   0  0  0  0  0  0  0  0  0  0  0  0
   37.4490   22.4210   33.5160 O   0  0  0  0  0  0  0  0  0  0  0  0
   38.5820   22.3430   34.3180 C   0  0  0  0  0  0  0  0  0  0  0  0
   39.5720   21.9450   33.6730 O   0  0  0  0  0  0  0  0  0  0  0  0
   39.8570   22.6710   37.6850 C   0  0  0  0  0  0  0  0  0  0  0  0
   38.8190   23.2680   38.4040 C   0  0  0  0  0  0  0  0  0  0  0  0
   37.6620   23.5570   37.6900 C   0  0  0  0  0  0  0  0  0  0  0  0
   37.5700   23.2610   36.3640 N   0  0  0  0  0  0  0  0  0  0  0  0
   38.6390   22.6720   35.7300 C   0  0  0  0  0  0  0  0  0  0  0  0
   39.7500   22.3920   36.4000 N   0  0  0  0  0  0  0  0  0  0  0  0
   34.8007   22.1655   32.9272 H   0  0  0  0  0  0  0  0  0  0  0  0
   34.1080   19.7262   32.0375 H   0  0  0  0  0  0  0  0  0  0  0  0
   35.4661   17.6197   32.5530 H   0  0  0  0  0  0  0  0  0  0  0  0
   38.5504   17.9822   31.6871 H   0  0  0  0  0  0  0  0  0  0  0  0
   38.2129   16.4664   31.8601 H   0  0  0  0  0  0  0  0  0  0  0  0
   36.4126   17.0478   29.5824 H   0  0  0  0  0  0  0  0  0  0  0  0
   36.9334   20.2361   30.2323 H   0  0  0  0  0  0  0  0  0  0  0  0
   40.7937   22.4256   38.2069 H   0  0  0  0  0  0  0  0  0  0  0  0
   38.9120   23.4968   39.4759 H   0  0  0  0  0  0  0  0  0  0  0  0
   36.8111   24.0302   38.2019 H   0  0  0  0  0  0  0  0  0  0  0  0
  1 10  1  0
  2  1  1  0
  3  2  2  0
  4  3  1  0
  4  5  1  0
  5  1  2  0
  6  4  1  0
  7  6  1  0
  8  7  1  0
  8  6  1  0
  9  8  1  0
 10 11  1  0
 11 17  1  0
 12 11  2  0
 13 14  2  0
 15 14  1  0
 16 15  2  0
 17 16  1  0
 17 18  2  0
 18 13  1  0
  2 19  1  0
  3 20  1  0
  6 21  1  1
  7 22  1  0
  7 23  1  0
  8 24  1  6
  9 25  1  0
 13 26  1  0
 14 27  1  0
 15 28  1  0
M  ISO  8  19  14  20  14  21  13  22  13  23  13  24  13  25  11  26  14
M  ISO  2  27  14  28  14
M  END
>  <minimizedAffinity>  (1) 
-4.03931141

>  <minimizedRMSD>  (1) 
0.872209311

$$$$
