
     RDKit          3D

 29 30  0  0  0  0  0  0  0  0999 V2000
   40.4630   22.4240   37.7660 C   0  0  0  0  0  0  0  0  0  0  0  0
   39.2730   23.1370   37.4590 C   0  0  0  0  0  0  0  0  0  0  0  0
   38.9490   23.2890   36.1090 C   0  0  0  0  0  0  0  0  0  0  0  0
   39.7720   22.7540   35.1640 N   0  0  0  0  0  0  0  0  0  0  0  0
   40.9040   22.0780   35.5080 C   0  0  0  0  0  0  0  0  0  0  0  0
   41.2300   21.9250   36.8040 N   0  0  0  0  0  0  0  0  0  0  0  0
   41.7710   21.5140   34.4480 C   0  0  0  0  0  0  0  0  0  0  0  0
   42.4990   22.5710   33.6420 C   0  0  0  0  0  0  0  0  0  0  0  0
   43.2740   21.8740   32.5750 C   0  0  0  0  0  0  0  0  0  0  0  0
   44.2130   20.8340   33.0500 C   0  0  0  0  0  0  0  0  0  0  0  0
   43.7250   19.9750   34.1740 C   0  0  0  0  0  0  0  0  0  0  0  0
   42.8390   20.6990   35.1480 C   0  0  0  0  0  0  0  0  0  0  0  0
   38.3780   23.7180   38.4920 C   0  0  0  0  0  0  0  0  0  0  0  0
   39.1550   23.9130   39.6350 F   0  0  0  0  0  0  0  0  0  0  0  0
   37.3500   22.8810   38.8120 F   0  0  0  0  0  0  0  0  0  0  0  0
   37.9460   24.9870   38.1200 F   0  0  0  0  0  0  0  0  0  0  0  0
   40.7535   22.2832   38.8176 H   0  0  0  0  0  0  0  0  0  0  0  0
   38.0407   23.8339   35.8123 H   0  0  0  0  0  0  0  0  0  0  0  0
   41.1327   20.9392   33.7608 H   0  0  0  0  0  0  0  0  0  0  0  0
   41.7732   23.2614   33.1875 H   0  0  0  0  0  0  0  0  0  0  0  0
   43.1718   23.1532   34.2889 H   0  0  0  0  0  0  0  0  0  0  0  0
   43.8546   22.6311   32.0276 H   0  0  0  0  0  0  0  0  0  0  0  0
   42.5320   21.3516   31.9533 H   0  0  0  0  0  0  0  0  0  0  0  0
   44.4451   20.1760   32.1996 H   0  0  0  0  0  0  0  0  0  0  0  0
   45.0824   21.3780   33.4478 H   0  0  0  0  0  0  0  0  0  0  0  0
   43.1580   19.1344   33.7475 H   0  0  0  0  0  0  0  0  0  0  0  0
   44.6123   19.6428   34.7328 H   0  0  0  0  0  0  0  0  0  0  0  0
   43.4582   21.3739   35.7571 H   0  0  0  0  0  0  0  0  0  0  0  0
   42.3362   19.9465   35.7733 H   0  0  0  0  0  0  0  0  0  0  0  0
  2  1  2  0
  2 13  1  0
  3  2  1  0
  4  5  1  0
  4  3  2  0
  5  6  2  0
  6  1  1  0
  7 12  1  0
  7  5  1  0
  8  7  1  0
  9 10  1  0
  9  8  1  0
 10 11  1  0
 11 12  1  0
 13 15  1  0
 13 14  1  0
 16 13  1  0
  1 17  1  0
  3 18  1  0
  7 19  1  0
  8 20  1  0
  8 21  1  0
  9 22  1  0
  9 23  1  0
 10 24  1  0
 10 25  1  0
 11 26  1  0
 11 27  1  0
 12 28  1  0
 12 29  1  0
M  ISO  8  17  14  18  14  19  13  20  13  21  13  22  13  23  13  24  13
M  ISO  5  25  13  26  13  27  13  28  13  29  13
M  END
>  <minimizedAffinity>  (1) 
-3.96901751

>  <minimizedRMSD>  (1) 
0.821966529

$$$$
