
     RDKit          3D

 23 24  0  0  0  0  0  0  0  0999 V2000
   40.4810   22.4240   37.7530 C   0  0  0  0  0  0  0  0  0  0  0  0
   39.2850   23.1320   37.4490 C   0  0  0  0  0  0  0  0  0  0  0  0
   38.9490   23.2680   36.1030 C   0  0  0  0  0  0  0  0  0  0  0  0
   39.7590   22.7320   35.1510 N   0  0  0  0  0  0  0  0  0  0  0  0
   40.8970   22.0610   35.4950 C   0  0  0  0  0  0  0  0  0  0  0  0
   41.2360   21.9200   36.7860 N   0  0  0  0  0  0  0  0  0  0  0  0
   41.7900   21.4720   34.5070 C   0  0  0  0  0  0  0  0  0  0  0  0
   42.8860   20.7940   34.9750 C   0  0  0  0  0  0  0  0  0  0  0  0
   43.7680   20.2140   34.0670 C   0  0  0  0  0  0  0  0  0  0  0  0
   43.5390   20.3210   32.7160 C   0  0  0  0  0  0  0  0  0  0  0  0
   42.4450   20.9980   32.2250 C   0  0  0  0  0  0  0  0  0  0  0  0
   41.5770   21.5690   33.1490 C   0  0  0  0  0  0  0  0  0  0  0  0
   38.3960   23.7200   38.4850 C   0  0  0  0  0  0  0  0  0  0  0  0
   39.1650   23.9040   39.6300 F   0  0  0  0  0  0  0  0  0  0  0  0
   37.3640   22.8880   38.8110 F   0  0  0  0  0  0  0  0  0  0  0  0
   37.9730   25.0010   38.1140 F   0  0  0  0  0  0  0  0  0  0  0  0
   40.7832   22.2930   38.8025 H   0  0  0  0  0  0  0  0  0  0  0  0
   38.0343   23.8056   35.8126 H   0  0  0  0  0  0  0  0  0  0  0  0
   43.0667   20.7091   36.0567 H   0  0  0  0  0  0  0  0  0  0  0  0
   44.6507   19.6685   34.4320 H   0  0  0  0  0  0  0  0  0  0  0  0
   44.2447   19.8559   32.0119 H   0  0  0  0  0  0  0  0  0  0  0  0
   42.2647   21.0838   31.1433 H   0  0  0  0  0  0  0  0  0  0  0  0
   40.6938   22.1145   32.7851 H   0  0  0  0  0  0  0  0  0  0  0  0
  2  1  2  0
  2 13  1  0
  3  2  1  0
  4  5  1  0
  4  3  2  0
  5  6  2  0
  6  1  1  0
  7  8  2  0
  7  5  1  0
  9  8  1  0
 10  9  2  0
 11 10  1  0
 11 12  2  0
 12  7  1  0
 13 15  1  0
 13 14  1  0
 16 13  1  0
  1 17  1  0
  3 18  1  0
  8 19  1  0
  9 20  1  0
 10 21  1  0
 11 22  1  0
 12 23  1  0
M  ISO  7  17  14  18  14  19  14  20  14  21  14  22  14  23  14
M  END
>  <minimizedAffinity>  (1) 
-3.93266892

>  <minimizedRMSD>  (1) 
0.578362525

$$$$
