
     RDKit          3D

 40 42  0  0  1  0  0  0  0  0999 V2000
   36.1300   21.0340   32.1910 C   0  0  0  0  0  0  0  0  0  0  0  0
   34.7940   20.7270   32.0800 C   0  0  0  0  0  0  0  0  0  0  0  0
   34.6970   19.3450   32.0840 C   0  0  0  0  0  0  0  0  0  0  0  0
   35.9520   18.8520   32.1960 N   0  0  0  0  0  0  0  0  0  0  0  0
   36.7870   19.8300   32.2590 N   0  0  0  0  0  0  0  0  0  0  0  0
   36.2730   17.4440   32.2360 C   0  0  2  0  0  0  0  0  0  0  0  0
   37.6550   17.0350   31.8870 C   0  0  0  0  0  0  0  0  0  0  0  0
   36.6010   16.7760   30.8970 C   0  0  1  0  0  0  0  0  0  0  0  0
   35.9570   15.4200   30.7090 C   0  0  0  0  0  0  0  0  0  0  0  0
   35.9550   14.9740   29.2690 C   0  0  0  0  0  0  0  0  0  0  0  0
   36.5040   22.3630   32.2100 O   0  0  0  0  0  0  0  0  0  0  0  0
   37.8410   22.7160   32.2080 C   0  0  0  0  0  0  0  0  0  0  0  0
   38.3650   22.6450   31.0500 O   0  0  0  0  0  0  0  0  0  0  0  0
   40.6530   23.3080   34.3930 C   0  0  0  0  0  0  0  0  0  0  0  0
   40.0970   23.9030   35.5260 C   0  0  0  0  0  0  0  0  0  0  0  0
   38.7310   24.0980   35.5270 C   0  0  0  0  0  0  0  0  0  0  0  0
   38.0150   23.7050   34.4390 N   0  0  0  0  0  0  0  0  0  0  0  0
   38.6120   23.1310   33.3650 C   0  0  0  0  0  0  0  0  0  0  0  0
   39.9180   22.9400   33.3540 N   0  0  0  0  0  0  0  0  0  0  0  0
   37.9490   24.6540   36.5740 N   0  0  0  0  0  0  0  0  0  0  0  0
   37.8480   23.9990   37.8300 C   0  0  0  0  0  0  0  0  0  0  0  0
   37.5350   22.7600   37.8930 N   0  0  0  0  0  0  0  0  0  0  0  0
   38.0810   24.7320   39.0400 N   0  0  0  0  0  0  0  0  0  0  0  0
   37.3500   22.2160   37.0390 H   0  0  0  0  0  0  0  0  0  0  0  0
   33.9616   21.4420   32.0028 H   0  0  0  0  0  0  0  0  0  0  0  0
   33.7704   18.7569   32.0098 H   0  0  0  0  0  0  0  0  0  0  0  0
   35.5903   17.2498   33.0763 H   0  0  0  0  0  0  0  0  0  0  0  0
   38.4139   17.8048   31.6832 H   0  0  0  0  0  0  0  0  0  0  0  0
   38.4111   16.4052   32.3785 H   0  0  0  0  0  0  0  0  0  0  0  0
   36.5422   16.9908   29.8198 H   0  0  0  0  0  0  0  0  0  0  0  0
   36.5113   14.6809   31.3060 H   0  0  0  0  0  0  0  0  0  0  0  0
   34.9093   15.5007   31.0343 H   0  0  0  0  0  0  0  0  0  0  0  0
   35.9501   13.8749   29.2256 H   0  0  0  0  0  0  0  0  0  0  0  0
   35.0586   15.3649   28.7653 H   0  0  0  0  0  0  0  0  0  0  0  0
   36.8549   15.3568   28.7653 H   0  0  0  0  0  0  0  0  0  0  0  0
   41.7394   23.1386   34.3614 H   0  0  0  0  0  0  0  0  0  0  0  0
   40.7204   24.2035   36.3810 H   0  0  0  0  0  0  0  0  0  0  0  0
   37.4498   25.5418   36.4208 H   0  0  0  0  0  0  0  0  0  0  0  0
   38.0080   24.2579   39.9515 H   0  0  0  0  0  0  0  0  0  0  0  0
   38.3214   25.7327   38.9978 H   0  0  0  0  0  0  0  0  0  0  0  0
  1 11  1  0
  1  5  2  0
  2  3  2  0
  2  1  1  0
  3  4  1  0
  4  6  1  0
  4  5  1  0
  7  6  1  0
  8  7  1  0
  8  6  1  0
  9  8  1  0
 10  9  1  0
 12 11  1  0
 12 18  1  0
 13 12  2  0
 14 15  2  0
 15 16  1  0
 16 20  1  0
 17 16  2  0
 18 17  1  0
 19 18  2  0
 19 14  1  0
 20 21  1  0
 21 22  2  0
 21 23  1  0
 24 22  1  0
  2 25  1  0
  3 26  1  0
  6 27  1  1
  7 28  1  0
  7 29  1  0
  8 30  1  6
  9 31  1  0
  9 32  1  0
 10 33  1  0
 10 34  1  0
 10 35  1  0
 14 36  1  0
 15 37  1  0
 20 38  1  0
 23 39  1  0
 23 40  1  0
M  ISO  8  25  14  26  14  27  13  28  13  29  13  30  13  31   8  32   8
M  ISO  5  33   8  34   8  35   8  36  14  37  14
M  END
>  <minimizedAffinity>  (1) 
-4.62592554

>  <minimizedRMSD>  (1) 
2.70395279

$$$$
