
     RDKit          3D

 34 36  0  0  1  0  0  0  0  0999 V2000
   36.7470   21.0660   33.2600 C   0  0  0  0  0  0  0  0  0  0  0  0
   35.6300   20.4090   33.7230 C   0  0  0  0  0  0  0  0  0  0  0  0
   35.3770   19.3830   32.8400 C   0  0  0  0  0  0  0  0  0  0  0  0
   36.3240   19.4370   31.8800 N   0  0  0  0  0  0  0  0  0  0  0  0
   37.1360   20.4180   32.1110 N   0  0  0  0  0  0  0  0  0  0  0  0
   36.4110   18.5260   30.7600 C   0  0  2  0  0  0  0  0  0  0  0  0
   37.7440   17.9660   30.4050 C   0  0  0  0  0  0  0  0  0  0  0  0
   37.1820   19.0150   29.5280 C   0  0  1  0  0  0  0  0  0  0  0  0
   36.5210   18.6470   28.2230 C   0  0  0  0  0  0  0  0  0  0  0  0
   37.4150   18.8710   27.0360 C   0  0  0  0  0  0  0  0  0  0  0  0
   37.2290   22.1600   33.9710 O   0  0  0  0  0  0  0  0  0  0  0  0
   38.5310   22.1720   34.4390 C   0  0  0  0  0  0  0  0  0  0  0  0
   39.3750   21.8850   33.5450 O   0  0  0  0  0  0  0  0  0  0  0  0
   40.4980   22.2890   37.4640 C   0  0  0  0  0  0  0  0  0  0  0  0
   39.7390   23.0050   38.3720 C   0  0  0  0  0  0  0  0  0  0  0  0
   38.5070   23.4620   37.9200 C   0  0  0  0  0  0  0  0  0  0  0  0
   38.1150   23.1920   36.6430 N   0  0  0  0  0  0  0  0  0  0  0  0
   38.9170   22.4780   35.8030 C   0  0  0  0  0  0  0  0  0  0  0  0
   40.0860   22.0440   36.2310 N   0  0  0  0  0  0  0  0  0  0  0  0
   37.5390   24.1990   38.5940 O   0  0  0  0  0  0  0  0  0  0  0  0
   35.0507   20.6559   34.6249 H   0  0  0  0  0  0  0  0  0  0  0  0
   34.5554   18.6545   32.9051 H   0  0  0  0  0  0  0  0  0  0  0  0
   35.4164   18.1003   30.9589 H   0  0  0  0  0  0  0  0  0  0  0  0
   38.6153   18.1944   31.0363 H   0  0  0  0  0  0  0  0  0  0  0  0
   38.1243   16.9483   30.2326 H   0  0  0  0  0  0  0  0  0  0  0  0
   37.5964   19.9552   29.1352 H   0  0  0  0  0  0  0  0  0  0  0  0
   36.2420   17.5835   28.2576 H   0  0  0  0  0  0  0  0  0  0  0  0
   35.6405   19.2952   28.1025 H   0  0  0  0  0  0  0  0  0  0  0  0
   38.4277   19.1247   27.3824 H   0  0  0  0  0  0  0  0  0  0  0  0
   37.4541   17.9549   26.4284 H   0  0  0  0  0  0  0  0  0  0  0  0
   37.0175   19.6973   26.4284 H   0  0  0  0  0  0  0  0  0  0  0  0
   41.4811   21.9091   37.7790 H   0  0  0  0  0  0  0  0  0  0  0  0
   40.0912   23.2018   39.3954 H   0  0  0  0  0  0  0  0  0  0  0  0
   36.7007   24.4536   38.1330 H   0  0  0  0  0  0  0  0  0  0  0  0
  1  2  1  0
  1 11  1  0
  3  2  2  0
  4  5  1  0
  4  3  1  0
  5  1  2  0
  6  4  1  0
  7  6  1  0
  8  7  1  0
  8  6  1  0
  9  8  1  0
 10  9  1  0
 11 12  1  0
 12 18  1  0
 13 12  2  0
 14 15  2  0
 16 15  1  0
 16 20  1  0
 17 16  2  0
 18 19  2  0
 18 17  1  0
 19 14  1  0
  2 21  1  0
  3 22  1  0
  6 23  1  6
  7 24  1  0
  7 25  1  0
  8 26  1  1
  9 27  1  0
  9 28  1  0
 10 29  1  0
 10 30  1  0
 10 31  1  0
 14 32  1  0
 15 33  1  0
 20 34  1  0
M  ISO  8  21  14  22  14  23  13  24  13  25  13  26  13  27   8  28   8
M  ISO  6  29   8  30   8  31   8  32  14  33  14  34   3
M  END
>  <minimizedAffinity>  (1) 
-4.50892401

>  <minimizedRMSD>  (1) 
0.520511448

$$$$
