
     RDKit          3D

 42 44  0  0  1  0  0  0  0  0999 V2000
   35.8750   21.7030   31.7020 C   0  0  0  0  0  0  0  0  0  0  0  0
   34.9780   20.8390   32.2650 C   0  0  0  0  0  0  0  0  0  0  0  0
   35.1780   19.5970   31.6900 C   0  0  0  0  0  0  0  0  0  0  0  0
   36.1940   19.7370   30.7910 N   0  0  0  0  0  0  0  0  0  0  0  0
   36.6080   20.9700   30.7920 N   0  0  0  0  0  0  0  0  0  0  0  0
   36.7160   18.6700   29.9710 C   0  0  2  0  0  0  0  0  0  0  0  0
   38.0330   18.8590   29.3220 C   0  0  0  0  0  0  0  0  0  0  0  0
   36.8280   18.9300   28.4780 C   0  0  1  0  0  0  0  0  0  0  0  0
   36.3700   17.7760   27.6230 C   0  0  0  0  0  0  0  0  0  0  0  0
   35.8400   18.2370   26.2790 C   0  0  0  0  0  0  0  0  0  0  0  0
   35.8970   23.0180   32.0930 O   0  0  0  0  0  0  0  0  0  0  0  0
   37.0910   23.6590   32.4250 C   0  0  0  0  0  0  0  0  0  0  0  0
   37.2630   24.7110   31.7590 O   0  0  0  0  0  0  0  0  0  0  0  0
   40.0380   22.1190   33.8520 C   0  0  0  0  0  0  0  0  0  0  0  0
   39.8830   22.2850   35.2310 C   0  0  0  0  0  0  0  0  0  0  0  0
   38.7360   22.9430   35.6650 C   0  0  0  0  0  0  0  0  0  0  0  0
   37.8330   23.3860   34.7510 N   0  0  0  0  0  0  0  0  0  0  0  0
   38.0450   23.1920   33.4180 C   0  0  0  0  0  0  0  0  0  0  0  0
   39.1200   22.5740   32.9970 N   0  0  0  0  0  0  0  0  0  0  0  0
   38.4590   23.1800   37.1110 C   0  0  0  0  0  0  0  0  0  0  0  0
   39.7270   22.8890   37.9190 C   0  0  0  0  0  0  0  0  0  0  0  0
   37.9800   24.5820   37.3930 C   0  0  0  0  0  0  0  0  0  0  0  0
   34.2326   21.0864   33.0352 H   0  0  0  0  0  0  0  0  0  0  0  0
   34.6240   18.6736   31.9147 H   0  0  0  0  0  0  0  0  0  0  0  0
   36.2663   17.8943   30.6083 H   0  0  0  0  0  0  0  0  0  0  0  0
   38.6125   19.7724   29.5218 H   0  0  0  0  0  0  0  0  0  0  0  0
   38.9607   18.2691   29.2850 H   0  0  0  0  0  0  0  0  0  0  0  0
   36.4968   19.6704   27.7350 H   0  0  0  0  0  0  0  0  0  0  0  0
   37.2207   17.0991   27.4556 H   0  0  0  0  0  0  0  0  0  0  0  0
   35.5521   17.2656   28.1527 H   0  0  0  0  0  0  0  0  0  0  0  0
   35.0184   18.9517   26.4344 H   0  0  0  0  0  0  0  0  0  0  0  0
   36.6480   18.7245   25.7138 H   0  0  0  0  0  0  0  0  0  0  0  0
   35.4692   17.3692   25.7138 H   0  0  0  0  0  0  0  0  0  0  0  0
   40.9306   21.6053   33.4654 H   0  0  0  0  0  0  0  0  0  0  0  0
   40.6347   21.9119   35.9422 H   0  0  0  0  0  0  0  0  0  0  0  0
   37.6459   22.5017   37.4090 H   0  0  0  0  0  0  0  0  0  0  0  0
   39.4973   22.9417   38.9935 H   0  0  0  0  0  0  0  0  0  0  0  0
   40.0963   21.8827   37.6720 H   0  0  0  0  0  0  0  0  0  0  0  0
   40.4981   23.6335   37.6720 H   0  0  0  0  0  0  0  0  0  0  0  0
   37.9262   24.7393   38.4804 H   0  0  0  0  0  0  0  0  0  0  0  0
   38.6821   25.3050   36.9522 H   0  0  0  0  0  0  0  0  0  0  0  0
   36.9823   24.7242   36.9522 H   0  0  0  0  0  0  0  0  0  0  0  0
  1 11  1  0
  1  2  1  0
  3  2  2  0
  4  5  1  0
  4  3  1  0
  5  1  2  0
  6  4  1  0
  7  6  1  0
  8  7  1  0
  8  6  1  0
  9  8  1  0
 10  9  1  0
 11 12  1  0
 12 18  1  0
 13 12  2  0
 14 15  2  0
 15 16  1  0
 16 20  1  0
 17 16  2  0
 18 17  1  0
 19 18  2  0
 19 14  1  0
 20 22  1  0
 20 21  1  0
  2 23  1  0
  3 24  1  0
  6 25  1  6
  7 26  1  0
  7 27  1  0
  8 28  1  6
  9 29  1  0
  9 30  1  0
 10 31  1  0
 10 32  1  0
 10 33  1  0
 14 34  1  0
 15 35  1  0
 20 36  1  0
 21 37  1  0
 21 38  1  0
 21 39  1  0
 22 40  1  0
 22 41  1  0
 22 42  1  0
M  ISO  8  23  14  24  14  25  13  26  13  27  13  28  13  29   8  30   8
M  ISO  8  31   8  32   8  33   8  34  14  35  14  36   8  37   8  38   8
M  ISO  4  39   8  40   8  41   8  42   8
M  END
>  <minimizedAffinity>  (1) 
-4.47305059

>  <minimizedRMSD>  (1) 
2.44819355

$$$$
