
     RDKit          3D

 22 23  0  0  0  0  0  0  0  0999 V2000
   40.4980   22.4860   37.7520 C   0  0  0  0  0  0  0  0  0  0  0  0
   39.2520   23.0980   37.4440 C   0  0  0  0  0  0  0  0  0  0  0  0
   38.8660   23.1300   36.1120 C   0  0  0  0  0  0  0  0  0  0  0  0
   39.6700   22.5890   35.1620 N   0  0  0  0  0  0  0  0  0  0  0  0
   40.8570   22.0110   35.4940 C   0  0  0  0  0  0  0  0  0  0  0  0
   41.2530   21.9680   36.7800 N   0  0  0  0  0  0  0  0  0  0  0  0
   41.7590   21.4140   34.5100 C   0  0  0  0  0  0  0  0  0  0  0  0
   43.0210   21.0110   34.9100 C   0  0  0  0  0  0  0  0  0  0  0  0
   43.9290   20.4390   34.0400 C   0  0  0  0  0  0  0  0  0  0  0  0
   43.5450   20.2700   32.7180 C   0  0  0  0  0  0  0  0  0  0  0  0
   42.2710   20.6810   32.3330 C   0  0  0  0  0  0  0  0  0  0  0  0
   41.4240   21.2320   33.2210 N   0  0  0  0  0  0  0  0  0  0  0  0
   38.3660   23.6940   38.4780 C   0  0  0  0  0  0  0  0  0  0  0  0
   39.1480   23.9170   39.6130 F   0  0  0  0  0  0  0  0  0  0  0  0
   37.3350   22.8970   38.8160 F   0  0  0  0  0  0  0  0  0  0  0  0
   37.9660   24.9870   38.1010 F   0  0  0  0  0  0  0  0  0  0  0  0
   40.8416   22.4390   38.7959 H   0  0  0  0  0  0  0  0  0  0  0  0
   37.9100   23.5930   35.8263 H   0  0  0  0  0  0  0  0  0  0  0  0
   43.3124   21.1515   35.9613 H   0  0  0  0  0  0  0  0  0  0  0  0
   44.9258   20.1272   34.3851 H   0  0  0  0  0  0  0  0  0  0  0  0
   44.2334   19.8200   31.9875 H   0  0  0  0  0  0  0  0  0  0  0  0
   41.9529   20.5532   31.2878 H   0  0  0  0  0  0  0  0  0  0  0  0
  2  1  2  0
  2 13  1  0
  3  2  1  0
  4  5  1  0
  4  3  2  0
  5  6  2  0
  6  1  1  0
  7  8  2  0
  7  5  1  0
  9  8  1  0
 10  9  2  0
 11 10  1  0
 11 12  2  0
 12  7  1  0
 13 15  1  0
 13 14  1  0
 16 13  1  0
  1 17  1  0
  3 18  1  0
  8 19  1  0
  9 20  1  0
 10 21  1  0
 11 22  1  0
M  ISO  6  17  14  18  14  19  14  20  14  21  14  22  14
M  END
>  <minimizedAffinity>  (1) 
-3.9318645

>  <minimizedRMSD>  (1) 
0.314810067

$$$$
