
     RDKit          3D

 49 52  0  0  1  0  0  0  0  0999 V2000
   36.1140   20.0220   32.6540 C   0  0  0  0  0  0  0  0  0  0  0  0
   35.4460   18.8370   32.9010 C   0  0  0  0  0  0  0  0  0  0  0  0
   35.7120   17.9790   31.8500 C   0  0  0  0  0  0  0  0  0  0  0  0
   36.5160   18.6410   31.0040 N   0  0  0  0  0  0  0  0  0  0  0  0
   36.7540   19.8310   31.4680 N   0  0  0  0  0  0  0  0  0  0  0  0
   37.0370   18.1050   29.7660 C   0  0  2  0  0  0  0  0  0  0  0  0
   38.0030   18.9180   28.9910 C   0  0  0  0  0  0  0  0  0  0  0  0
   36.6300   18.7950   28.4740 C   0  0  1  0  0  0  0  0  0  0  0  0
   36.2800   17.8550   27.3500 C   0  0  0  0  0  0  0  0  0  0  0  0
   35.7590   18.5700   26.1260 C   0  0  0  0  0  0  0  0  0  0  0  0
   36.0040   21.0590   33.5760 O   0  0  0  0  0  0  0  0  0  0  0  0
   36.9300   22.0730   33.5690 C   0  0  0  0  0  0  0  0  0  0  0  0
   36.7970   22.8820   32.5870 O   0  0  0  0  0  0  0  0  0  0  0  0
   40.2250   22.0610   35.0770 C   0  0  0  0  0  0  0  0  0  0  0  0
   40.0400   22.5840   36.3540 C   0  0  0  0  0  0  0  0  0  0  0  0
   38.7500   22.9400   36.6800 C   0  0  0  0  0  0  0  0  0  0  0  0
   37.7390   22.7790   35.7880 N   0  0  0  0  0  0  0  0  0  0  0  0
   37.9810   22.2610   34.5500 C   0  0  0  0  0  0  0  0  0  0  0  0
   39.2200   21.9130   34.2200 N   0  0  0  0  0  0  0  0  0  0  0  0
   41.2530   22.6770   37.2000 C   0  0  0  0  0  0  0  0  0  0  0  0
   42.4680   23.1080   36.4670 C   0  0  0  0  0  0  0  0  0  0  0  0
   42.7590   21.8400   35.6390 C   0  0  0  0  0  0  0  0  0  0  0  0
   42.7000   20.7600   36.7250 C   0  0  0  0  0  0  0  0  0  0  0  0
   41.7200   21.3200   37.6780 C   0  0  0  0  0  0  0  0  0  0  0  0
   38.4810   23.4890   38.0040 C   0  0  0  0  0  0  0  0  0  0  0  0
   37.3020   22.8840   38.4650 F   0  0  0  0  0  0  0  0  0  0  0  0
   38.1230   24.8280   37.9490 F   0  0  0  0  0  0  0  0  0  0  0  0
   39.4640   23.3620   38.9110 F   0  0  0  0  0  0  0  0  0  0  0  0
   34.8165   18.6166   33.7758 H   0  0  0  0  0  0  0  0  0  0  0  0
   35.3369   16.9519   31.7304 H   0  0  0  0  0  0  0  0  0  0  0  0
   37.0190   17.0757   30.1535 H   0  0  0  0  0  0  0  0  0  0  0  0
   38.3493   19.8817   29.3927 H   0  0  0  0  0  0  0  0  0  0  0  0
   39.0006   18.7265   28.5690 H   0  0  0  0  0  0  0  0  0  0  0  0
   35.9009   19.5440   28.1313 H   0  0  0  0  0  0  0  0  0  0  0  0
   37.1823   17.2917   27.0698 H   0  0  0  0  0  0  0  0  0  0  0  0
   35.4793   17.1927   27.7110 H   0  0  0  0  0  0  0  0  0  0  0  0
   35.1375   19.4229   26.4363 H   0  0  0  0  0  0  0  0  0  0  0  0
   36.6059   18.9329   25.5251 H   0  0  0  0  0  0  0  0  0  0  0  0
   35.1541   17.8750   25.5251 H   0  0  0  0  0  0  0  0  0  0  0  0
   41.2367   21.7603   34.7671 H   0  0  0  0  0  0  0  0  0  0  0  0
   40.9292   23.3774   37.9840 H   0  0  0  0  0  0  0  0  0  0  0  0
   42.2673   23.9768   35.8229 H   0  0  0  0  0  0  0  0  0  0  0  0
   43.2984   23.4379   37.1086 H   0  0  0  0  0  0  0  0  0  0  0  0
   41.9931   21.6778   34.8663 H   0  0  0  0  0  0  0  0  0  0  0  0
   43.7069   21.8706   35.0817 H   0  0  0  0  0  0  0  0  0  0  0  0
   42.3517   19.8010   36.3138 H   0  0  0  0  0  0  0  0  0  0  0  0
   43.6775   20.5400   37.1789 H   0  0  0  0  0  0  0  0  0  0  0  0
   42.1912   21.4240   38.6665 H   0  0  0  0  0  0  0  0  0  0  0  0
   40.8553   20.6435   37.7470 H   0  0  0  0  0  0  0  0  0  0  0  0
  1  2  1  0
  1 11  1  0
  3  2  2  0
  4  5  1  0
  4  3  1  0
  5  1  2  0
  6  4  1  0
  7  6  1  0
  8  7  1  0
  8  6  1  0
  9  8  1  0
 10  9  1  0
 12 11  1  0
 12 18  1  0
 13 12  2  0
 14 15  2  0
 15 16  1  0
 15 20  1  0
 16 25  1  0
 17 16  2  0
 18 17  1  0
 19 18  2  0
 19 14  1  0
 20 24  1  0
 21 20  1  0
 22 21  1  0
 22 23  1  0
 23 24  1  0
 25 26  1  0
 25 28  1  0
 27 25  1  0
  2 29  1  0
  3 30  1  0
  6 31  1  6
  7 32  1  0
  7 33  1  0
  8 34  1  1
  9 35  1  0
  9 36  1  0
 10 37  1  0
 10 38  1  0
 10 39  1  0
 14 40  1  0
 20 41  1  0
 21 42  1  0
 21 43  1  0
 22 44  1  0
 22 45  1  0
 23 46  1  0
 23 47  1  0
 24 48  1  0
 24 49  1  0
M  ISO  8  29  14  30  14  31  13  32  13  33  13  34  13  35   8  36   8
M  ISO  8  37   8  38   8  39   8  40  14  41  13  42  13  43  13  44  13
M  ISO  5  45  13  46  13  47  13  48  13  49  13
M  END
>  <minimizedAffinity>  (1) 
-5.95707798

>  <minimizedRMSD>  (1) 
0.698770821

$$$$
