
     RDKit          3D

 51 54  0  0  1  0  0  0  0  0999 V2000
   35.9290   19.9830   32.3280 C   0  0  0  0  0  0  0  0  0  0  0  0
   35.5210   18.7290   32.7360 C   0  0  0  0  0  0  0  0  0  0  0  0
   35.8480   17.8320   31.7380 C   0  0  0  0  0  0  0  0  0  0  0  0
   36.4390   18.5380   30.7560 N   0  0  0  0  0  0  0  0  0  0  0  0
   36.4950   19.7980   31.0850 N   0  0  0  0  0  0  0  0  0  0  0  0
   36.9380   17.9830   29.5190 C   0  0  2  0  0  0  0  0  0  0  0  0
   37.9650   18.7390   28.7670 C   0  0  0  0  0  0  0  0  0  0  0  0
   36.5860   18.7210   28.2280 C   0  0  1  0  0  0  0  0  0  0  0  0
   36.1880   17.8070   27.0910 C   0  0  0  0  0  0  0  0  0  0  0  0
   35.5760   18.5580   25.9350 C   0  0  0  0  0  0  0  0  0  0  0  0
   35.7130   21.0730   33.1600 O   0  0  0  0  0  0  0  0  0  0  0  0
   36.6320   22.0920   33.2020 C   0  0  0  0  0  0  0  0  0  0  0  0
   36.4250   23.0050   32.3310 O   0  0  0  0  0  0  0  0  0  0  0  0
   40.0020   21.8600   34.5140 C   0  0  0  0  0  0  0  0  0  0  0  0
   39.9010   22.3640   35.8180 C   0  0  0  0  0  0  0  0  0  0  0  0
   38.6460   22.7800   36.2210 C   0  0  0  0  0  0  0  0  0  0  0  0
   37.6050   22.6910   35.3830 N   0  0  0  0  0  0  0  0  0  0  0  0
   37.7620   22.1910   34.1220 C   0  0  0  0  0  0  0  0  0  0  0  0
   38.9400   21.7890   33.7140 N   0  0  0  0  0  0  0  0  0  0  0  0
   41.1440   22.3210   36.4930 N   0  0  0  0  0  0  0  0  0  0  0  0
   41.7740   21.3850   37.4010 C   0  0  0  0  0  0  0  0  0  0  0  0
   43.0090   20.7550   36.7790 C   0  0  0  0  0  0  0  0  0  0  0  0
   43.7610   21.7470   35.9190 C   0  0  0  0  0  0  0  0  0  0  0  0
   43.4730   23.1080   36.5090 C   0  0  0  0  0  0  0  0  0  0  0  0
   42.0140   23.4730   36.2340 C   0  0  0  0  0  0  0  0  0  0  0  0
   38.5050   23.3080   37.5780 C   0  0  0  0  0  0  0  0  0  0  0  0
   37.2500   22.8980   38.0470 F   0  0  0  0  0  0  0  0  0  0  0  0
   38.4020   24.6970   37.5580 F   0  0  0  0  0  0  0  0  0  0  0  0
   39.5070   22.9920   38.4360 F   0  0  0  0  0  0  0  0  0  0  0  0
   35.0238   18.4871   33.6869 H   0  0  0  0  0  0  0  0  0  0  0  0
   35.6612   16.7480   31.7444 H   0  0  0  0  0  0  0  0  0  0  0  0
   36.8497   16.9515   29.8908 H   0  0  0  0  0  0  0  0  0  0  0  0
   38.3723   19.6699   29.1882 H   0  0  0  0  0  0  0  0  0  0  0  0
   38.9517   18.4846   28.3527 H   0  0  0  0  0  0  0  0  0  0  0  0
   35.9154   19.5235   27.8870 H   0  0  0  0  0  0  0  0  0  0  0  0
   37.0836   17.2777   26.7336 H   0  0  0  0  0  0  0  0  0  0  0  0
   35.4309   17.1068   27.4737 H   0  0  0  0  0  0  0  0  0  0  0  0
   34.9251   19.3567   26.3201 H   0  0  0  0  0  0  0  0  0  0  0  0
   36.3745   18.9999   25.3209 H   0  0  0  0  0  0  0  0  0  0  0  0
   34.9820   17.8651   25.3209 H   0  0  0  0  0  0  0  0  0  0  0  0
   40.9790   21.5159   34.1438 H   0  0  0  0  0  0  0  0  0  0  0  0
   42.0671   21.9178   38.3177 H   0  0  0  0  0  0  0  0  0  0  0  0
   41.0541   20.5848   37.6278 H   0  0  0  0  0  0  0  0  0  0  0  0
   43.6731   20.4013   37.5814 H   0  0  0  0  0  0  0  0  0  0  0  0
   42.6871   19.9183   36.1416 H   0  0  0  0  0  0  0  0  0  0  0  0
   43.4062   21.6979   34.8789 H   0  0  0  0  0  0  0  0  0  0  0  0
   44.8399   21.5329   35.9047 H   0  0  0  0  0  0  0  0  0  0  0  0
   43.6484   23.0836   37.5946 H   0  0  0  0  0  0  0  0  0  0  0  0
   44.1354   23.8580   36.0522 H   0  0  0  0  0  0  0  0  0  0  0  0
   41.9083   23.7785   35.1826 H   0  0  0  0  0  0  0  0  0  0  0  0
   41.7205   24.2996   36.8978 H   0  0  0  0  0  0  0  0  0  0  0  0
  1  2  1  0
  1 11  1  0
  3  2  2  0
  4  5  1  0
  4  3  1  0
  5  1  2  0
  6  4  1  0
  7  6  1  0
  8  7  1  0
  8  6  1  0
  9  8  1  0
 10  9  1  0
 11 12  1  0
 12 18  1  0
 13 12  2  0
 14 15  2  0
 15 16  1  0
 15 20  1  0
 16 26  1  0
 17 16  2  0
 18 17  1  0
 19 18  2  0
 19 14  1  0
 20 21  1  0
 22 21  1  0
 23 24  1  0
 23 22  1  0
 25 20  1  0
 25 24  1  0
 26 27  1  0
 26 29  1  0
 28 26  1  0
  2 30  1  0
  3 31  1  0
  6 32  1  6
  7 33  1  0
  7 34  1  0
  8 35  1  1
  9 36  1  0
  9 37  1  0
 10 38  1  0
 10 39  1  0
 10 40  1  0
 14 41  1  0
 21 42  1  0
 21 43  1  0
 22 44  1  0
 22 45  1  0
 23 46  1  0
 23 47  1  0
 24 48  1  0
 24 49  1  0
 25 50  1  0
 25 51  1  0
M  ISO  8  30  14  31  14  32  13  33  13  34  13  35  13  36   8  37   8
M  ISO  8  38   8  39   8  40   8  41  14  42  13  43  13  44  13  45  13
M  ISO  6  46  13  47  13  48  13  49  13  50  13  51  13
M  END
>  <minimizedAffinity>  (1) 
-5.64111805

>  <minimizedRMSD>  (1) 
1.17011714

$$$$
