
     RDKit          3D

 39 41  0  0  1  0  0  0  0  0999 V2000
   36.0370   20.3670   32.3910 C   0  0  0  0  0  0  0  0  0  0  0  0
   35.4930   19.1770   32.8350 C   0  0  0  0  0  0  0  0  0  0  0  0
   35.7720   18.2090   31.8890 C   0  0  0  0  0  0  0  0  0  0  0  0
   36.4690   18.8180   30.9000 N   0  0  0  0  0  0  0  0  0  0  0  0
   36.6270   20.0760   31.1870 N   0  0  0  0  0  0  0  0  0  0  0  0
   36.9610   18.1630   29.7080 C   0  0  2  0  0  0  0  0  0  0  0  0
   38.0220   18.8230   28.9220 C   0  0  0  0  0  0  0  0  0  0  0  0
   36.6490   18.8140   28.3660 C   0  0  1  0  0  0  0  0  0  0  0  0
   36.2420   17.8510   27.2840 C   0  0  0  0  0  0  0  0  0  0  0  0
   35.7100   18.5420   26.0570 C   0  0  0  0  0  0  0  0  0  0  0  0
   35.8940   21.4990   33.1630 O   0  0  0  0  0  0  0  0  0  0  0  0
   36.9350   22.4030   33.2830 C   0  0  0  0  0  0  0  0  0  0  0  0
   36.9480   23.2820   32.3530 O   0  0  0  0  0  0  0  0  0  0  0  0
   40.0780   21.8770   34.9730 C   0  0  0  0  0  0  0  0  0  0  0  0
   39.8690   22.3780   36.2600 C   0  0  0  0  0  0  0  0  0  0  0  0
   38.6290   22.9000   36.5310 C   0  0  0  0  0  0  0  0  0  0  0  0
   37.6770   22.9110   35.5720 N   0  0  0  0  0  0  0  0  0  0  0  0
   37.9420   22.4050   34.3330 C   0  0  0  0  0  0  0  0  0  0  0  0
   39.1230   21.9030   34.0590 N   0  0  0  0  0  0  0  0  0  0  0  0
   38.3520   23.4450   37.8610 C   0  0  0  0  0  0  0  0  0  0  0  0
   37.2060   22.7980   38.3490 F   0  0  0  0  0  0  0  0  0  0  0  0
   37.9530   24.7810   37.7840 F   0  0  0  0  0  0  0  0  0  0  0  0
   39.3800   23.3890   38.7310 F   0  0  0  0  0  0  0  0  0  0  0  0
   41.0540   22.2160   37.0740 C   0  0  0  0  0  0  0  0  0  0  0  0
   42.1150   22.8200   37.2660 O   0  0  0  0  0  0  0  0  0  0  0  0
   41.3530   21.2370   37.9520 O   0  0  0  0  0  0  0  0  0  0  0  0
   34.9378   19.0271   33.7727 H   0  0  0  0  0  0  0  0  0  0  0  0
   35.4836   17.1483   31.9310 H   0  0  0  0  0  0  0  0  0  0  0  0
   36.8302   17.1647   30.1510 H   0  0  0  0  0  0  0  0  0  0  0  0
   38.4578   19.7671   29.2808 H   0  0  0  0  0  0  0  0  0  0  0  0
   39.0040   18.5046   28.5422 H   0  0  0  0  0  0  0  0  0  0  0  0
   36.0039   19.6090   27.9638 H   0  0  0  0  0  0  0  0  0  0  0  0
   37.1197   17.2529   26.9977 H   0  0  0  0  0  0  0  0  0  0  0  0
   35.4336   17.2231   27.6868 H   0  0  0  0  0  0  0  0  0  0  0  0
   35.0647   19.3801   26.3589 H   0  0  0  0  0  0  0  0  0  0  0  0
   36.5499   18.9233   25.4577 H   0  0  0  0  0  0  0  0  0  0  0  0
   35.1266   17.8275   25.4577 H   0  0  0  0  0  0  0  0  0  0  0  0
   41.0588   21.4514   34.7142 H   0  0  0  0  0  0  0  0  0  0  0  0
   42.2124   21.2580   38.4430 H   0  0  0  0  0  0  0  0  0  0  0  0
  1  2  1  0
  1 11  1  0
  3  2  2  0
  4  5  1  0
  4  3  1  0
  5  1  2  0
  6  4  1  0
  7  6  1  0
  8  7  1  0
  8  6  1  0
  9  8  1  0
 10  9  1  0
 11 12  1  0
 12 18  1  0
 13 12  2  0
 14 15  2  0
 15 16  1  0
 15 24  1  0
 16 20  1  0
 17 16  2  0
 18 17  1  0
 19 18  2  0
 19 14  1  0
 20 21  1  0
 20 23  1  0
 22 20  1  0
 24 25  2  0
 24 26  1  0
  2 27  1  0
  3 28  1  0
  6 29  1  6
  7 30  1  0
  7 31  1  0
  8 32  1  1
  9 33  1  0
  9 34  1  0
 10 35  1  0
 10 36  1  0
 10 37  1  0
 14 38  1  0
 26 39  1  0
M  ISO  8  27  14  28  14  29  13  30  13  31  13  32  13  33   8  34   8
M  ISO  5  35   8  36   8  37   8  38  14  39   3
M  END
>  <minimizedAffinity>  (1) 
-5.40374088

>  <minimizedRMSD>  (1) 
0.781069279

$$$$
