
     RDKit          3D

 42 44  0  0  1  0  0  0  0  0999 V2000
   36.0940   20.1360   32.6350 C   0  0  0  0  0  0  0  0  0  0  0  0
   35.4350   18.9520   32.9210 C   0  0  0  0  0  0  0  0  0  0  0  0
   35.7050   18.0650   31.8920 C   0  0  0  0  0  0  0  0  0  0  0  0
   36.5010   18.7020   31.0180 N   0  0  0  0  0  0  0  0  0  0  0  0
   36.7360   19.9040   31.4360 N   0  0  0  0  0  0  0  0  0  0  0  0
   37.0160   18.1330   29.8000 C   0  0  2  0  0  0  0  0  0  0  0  0
   38.0190   18.9020   29.0180 C   0  0  0  0  0  0  0  0  0  0  0  0
   36.6380   18.8150   28.4820 C   0  0  1  0  0  0  0  0  0  0  0  0
   36.2800   17.8660   27.3720 C   0  0  0  0  0  0  0  0  0  0  0  0
   35.7670   18.5650   26.1440 C   0  0  0  0  0  0  0  0  0  0  0  0
   35.9900   21.1980   33.5120 O   0  0  0  0  0  0  0  0  0  0  0  0
   36.9560   22.1730   33.5400 C   0  0  0  0  0  0  0  0  0  0  0  0
   36.8600   22.9940   32.5670 O   0  0  0  0  0  0  0  0  0  0  0  0
   40.2020   22.0000   35.1070 C   0  0  0  0  0  0  0  0  0  0  0  0
   40.0210   22.5170   36.3890 C   0  0  0  0  0  0  0  0  0  0  0  0
   38.7420   22.9260   36.6920 C   0  0  0  0  0  0  0  0  0  0  0  0
   37.7430   22.8210   35.7790 N   0  0  0  0  0  0  0  0  0  0  0  0
   37.9980   22.3040   34.5430 C   0  0  0  0  0  0  0  0  0  0  0  0
   39.2210   21.9040   34.2330 N   0  0  0  0  0  0  0  0  0  0  0  0
   38.4590   23.4830   38.0160 C   0  0  0  0  0  0  0  0  0  0  0  0
   37.2880   22.8730   38.4800 F   0  0  0  0  0  0  0  0  0  0  0  0
   38.1210   24.8300   37.9490 F   0  0  0  0  0  0  0  0  0  0  0  0
   39.4550   23.3680   38.9180 F   0  0  0  0  0  0  0  0  0  0  0  0
   41.1770   22.5810   37.2840 C   0  0  0  0  0  0  0  0  0  0  0  0
   41.9490   21.2970   37.3840 C   0  0  0  0  0  0  0  0  0  0  0  0
   34.8108   18.7523   33.8045 H   0  0  0  0  0  0  0  0  0  0  0  0
   35.3364   17.0321   31.8067 H   0  0  0  0  0  0  0  0  0  0  0  0
   36.9632   17.1122   30.2065 H   0  0  0  0  0  0  0  0  0  0  0  0
   38.3927   19.8610   29.4061 H   0  0  0  0  0  0  0  0  0  0  0  0
   39.0141   18.6695   28.6109 H   0  0  0  0  0  0  0  0  0  0  0  0
   35.9337   19.5782   28.1194 H   0  0  0  0  0  0  0  0  0  0  0  0
   37.1774   17.2914   27.0991 H   0  0  0  0  0  0  0  0  0  0  0  0
   35.4731   17.2164   27.7420 H   0  0  0  0  0  0  0  0  0  0  0  0
   35.1406   19.4185   26.4426 H   0  0  0  0  0  0  0  0  0  0  0  0
   36.6166   18.9254   25.5454 H   0  0  0  0  0  0  0  0  0  0  0  0
   35.1684   17.8626   25.5454 H   0  0  0  0  0  0  0  0  0  0  0  0
   41.2054   21.6581   34.8131 H   0  0  0  0  0  0  0  0  0  0  0  0
   41.8559   23.3640   36.9153 H   0  0  0  0  0  0  0  0  0  0  0  0
   40.7868   22.7947   38.2900 H   0  0  0  0  0  0  0  0  0  0  0  0
   42.1019   21.0427   38.4432 H   0  0  0  0  0  0  0  0  0  0  0  0
   41.3856   20.4911   36.8910 H   0  0  0  0  0  0  0  0  0  0  0  0
   42.9250   21.4167   36.8910 H   0  0  0  0  0  0  0  0  0  0  0  0
  1  2  1  0
  1 11  1  0
  3  2  2  0
  4  5  1  0
  4  3  1  0
  5  1  2  0
  6  4  1  0
  7  6  1  0
  8  7  1  0
  8  6  1  0
  9  8  1  0
 10  9  1  0
 11 12  1  0
 12 18  1  0
 13 12  2  0
 14 15  2  0
 15 16  1  0
 15 24  1  0
 16 20  1  0
 17 16  2  0
 18 17  1  0
 19 18  2  0
 19 14  1  0
 20 21  1  0
 20 23  1  0
 22 20  1  0
 24 25  1  0
  2 26  1  0
  3 27  1  0
  6 28  1  6
  7 29  1  0
  7 30  1  0
  8 31  1  1
  9 32  1  0
  9 33  1  0
 10 34  1  0
 10 35  1  0
 10 36  1  0
 14 37  1  0
 24 38  1  0
 24 39  1  0
 25 40  1  0
 25 41  1  0
 25 42  1  0
M  ISO  8  26  14  27  14  28  13  29  13  30  13  31  13  32   8  33   8
M  ISO  8  34   8  35   8  36   8  37  14  38   8  39   8  40   8  41   8
M  ISO  1  42   8
M  END
>  <minimizedAffinity>  (1) 
-5.38188314

>  <minimizedRMSD>  (1) 
0.573918998

$$$$
