
     RDKit          3D

 21 22  0  0  0  0  0  0  0  0999 V2000
   40.4950   22.4800   37.7260 C   0  0  0  0  0  0  0  0  0  0  0  0
   39.2640   23.1110   37.4580 C   0  0  0  0  0  0  0  0  0  0  0  0
   38.8530   23.1850   36.1240 C   0  0  0  0  0  0  0  0  0  0  0  0
   39.6560   22.6520   35.1570 N   0  0  0  0  0  0  0  0  0  0  0  0
   40.8330   22.0560   35.4650 C   0  0  0  0  0  0  0  0  0  0  0  0
   41.2420   21.9750   36.7460 N   0  0  0  0  0  0  0  0  0  0  0  0
   41.6770   21.4890   34.4060 C   0  0  0  0  0  0  0  0  0  0  0  0
   41.2990   21.6690   33.0840 C   0  0  0  0  0  0  0  0  0  0  0  0
   42.1360   21.1100   32.1110 C   0  0  0  0  0  0  0  0  0  0  0  0
   43.2380   20.4430   32.5050 N   0  0  0  0  0  0  0  0  0  0  0  0
   43.5930   20.2750   33.7780 C   0  0  0  0  0  0  0  0  0  0  0  0
   42.7960   20.8080   34.7240 N   0  0  0  0  0  0  0  0  0  0  0  0
   38.3810   23.6980   38.5130 C   0  0  0  0  0  0  0  0  0  0  0  0
   39.1860   23.8750   39.6390 F   0  0  0  0  0  0  0  0  0  0  0  0
   37.3740   22.8570   38.8740 F   0  0  0  0  0  0  0  0  0  0  0  0
   37.9540   24.9700   38.1570 F   0  0  0  0  0  0  0  0  0  0  0  0
   40.8461   22.4030   38.7656 H   0  0  0  0  0  0  0  0  0  0  0  0
   37.8993   23.6643   35.8580 H   0  0  0  0  0  0  0  0  0  0  0  0
   40.3879   22.2228   32.8136 H   0  0  0  0  0  0  0  0  0  0  0  0
   41.8977   21.2137   31.0422 H   0  0  0  0  0  0  0  0  0  0  0  0
   44.5044   19.7208   34.0469 H   0  0  0  0  0  0  0  0  0  0  0  0
  2  1  2  0
  2 13  1  0
  3  2  1  0
  4  5  1  0
  4  3  2  0
  5  6  2  0
  6  1  1  0
  7 12  1  0
  7  5  1  0
  8  7  2  0
  9 10  2  0
  9  8  1  0
 10 11  1  0
 11 12  2  0
 13 15  1  0
 13 14  1  0
 16 13  1  0
  1 17  1  0
  3 18  1  0
  8 19  1  0
  9 20  1  0
 11 21  1  0
M  ISO  5  17  14  18  14  19  14  20  14  21  14
M  END
>  <minimizedAffinity>  (1) 
-3.92256069

>  <minimizedRMSD>  (1) 
0.159713194

$$$$
