
     RDKit          3D

 38 40  0  0  1  0  0  0  0  0999 V2000
   36.1960   20.2590   32.7620 C   0  0  0  0  0  0  0  0  0  0  0  0
   35.4260   19.1340   32.9890 C   0  0  0  0  0  0  0  0  0  0  0  0
   35.6770   18.2600   31.9550 C   0  0  0  0  0  0  0  0  0  0  0  0
   36.5740   18.8460   31.1290 N   0  0  0  0  0  0  0  0  0  0  0  0
   36.8740   20.0130   31.6030 N   0  0  0  0  0  0  0  0  0  0  0  0
   37.1070   18.2640   29.9190 C   0  0  2  0  0  0  0  0  0  0  0  0
   38.0820   19.0550   29.1360 C   0  0  0  0  0  0  0  0  0  0  0  0
   36.7010   18.9140   28.6060 C   0  0  1  0  0  0  0  0  0  0  0  0
   36.3740   17.9560   27.5010 C   0  0  0  0  0  0  0  0  0  0  0  0
   35.8430   18.6280   26.2540 C   0  0  0  0  0  0  0  0  0  0  0  0
   36.1340   21.3150   33.6660 O   0  0  0  0  0  0  0  0  0  0  0  0
   37.1670   22.2150   33.7620 C   0  0  0  0  0  0  0  0  0  0  0  0
   37.2380   22.9850   32.7450 O   0  0  0  0  0  0  0  0  0  0  0  0
   40.2440   22.0070   35.6530 C   0  0  0  0  0  0  0  0  0  0  0  0
   39.9020   22.5270   36.9090 C   0  0  0  0  0  0  0  0  0  0  0  0
   38.5930   22.9470   37.0800 C   0  0  0  0  0  0  0  0  0  0  0  0
   37.7000   22.8510   36.0710 N   0  0  0  0  0  0  0  0  0  0  0  0
   38.1080   22.3290   34.8660 C   0  0  0  0  0  0  0  0  0  0  0  0
   39.3420   21.9270   34.6840 N   0  0  0  0  0  0  0  0  0  0  0  0
   38.2070   23.4970   38.3900 C   0  0  0  0  0  0  0  0  0  0  0  0
   37.1910   22.6750   38.8800 F   0  0  0  0  0  0  0  0  0  0  0  0
   37.5960   24.7350   38.2400 F   0  0  0  0  0  0  0  0  0  0  0  0
   39.2470   23.6400   39.2700 F   0  0  0  0  0  0  0  0  0  0  0  0
   40.9060   22.5830   37.8910 N   0  0  0  0  0  0  0  0  0  0  0  0
   34.7426   18.9683   33.8349 H   0  0  0  0  0  0  0  0  0  0  0  0
   35.2287   17.2641   31.8241 H   0  0  0  0  0  0  0  0  0  0  0  0
   37.0899   17.2452   30.3334 H   0  0  0  0  0  0  0  0  0  0  0  0
   38.4237   20.0294   29.5153 H   0  0  0  0  0  0  0  0  0  0  0  0
   39.0844   18.8539   28.7301 H   0  0  0  0  0  0  0  0  0  0  0  0
   35.9645   19.6457   28.2424 H   0  0  0  0  0  0  0  0  0  0  0  0
   37.2886   17.4050   27.2365 H   0  0  0  0  0  0  0  0  0  0  0  0
   35.5791   17.2931   27.8735 H   0  0  0  0  0  0  0  0  0  0  0  0
   35.1843   19.4616   26.5389 H   0  0  0  0  0  0  0  0  0  0  0  0
   36.6840   19.0123   25.6582 H   0  0  0  0  0  0  0  0  0  0  0  0
   35.2746   17.8987   25.6582 H   0  0  0  0  0  0  0  0  0  0  0  0
   41.2720   21.6614   35.4690 H   0  0  0  0  0  0  0  0  0  0  0  0
   40.6917   22.9589   38.8257 H   0  0  0  0  0  0  0  0  0  0  0  0
   41.8560   22.2482   37.6759 H   0  0  0  0  0  0  0  0  0  0  0  0
  1  2  1  0
  1 11  1  0
  3  2  2  0
  4  5  1  0
  4  3  1  0
  5  1  2  0
  6  4  1  0
  7  6  1  0
  8  7  1  0
  8  6  1  0
  9  8  1  0
 10  9  1  0
 11 12  1  0
 12 18  1  0
 13 12  2  0
 14 15  2  0
 15 16  1  0
 15 24  1  0
 16 20  1  0
 17 16  2  0
 18 17  1  0
 19 18  2  0
 19 14  1  0
 20 21  1  0
 20 23  1  0
 22 20  1  0
  2 25  1  0
  3 26  1  0
  6 27  1  6
  7 28  1  0
  7 29  1  0
  8 30  1  1
  9 31  1  0
  9 32  1  0
 10 33  1  0
 10 34  1  0
 10 35  1  0
 14 36  1  0
 24 37  1  0
 24 38  1  0
M  ISO  8  25  14  26  14  27  13  28  13  29  13  30  13  31   8  32   8
M  ISO  4  33   8  34   8  35   8  36  14
M  END
>  <minimizedAffinity>  (1) 
-5.32742214

>  <minimizedRMSD>  (1) 
0.236671507

$$$$
