
     RDKit          3D

 38 40  0  0  1  0  0  0  0  0999 V2000
   36.1190   20.0220   32.7770 C   0  0  0  0  0  0  0  0  0  0  0  0
   35.3880   18.8750   32.9710 C   0  0  0  0  0  0  0  0  0  0  0  0
   35.6520   18.0220   31.9080 C   0  0  0  0  0  0  0  0  0  0  0  0
   36.5240   18.6570   31.1020 N   0  0  0  0  0  0  0  0  0  0  0  0
   36.8060   19.8250   31.5970 N   0  0  0  0  0  0  0  0  0  0  0  0
   37.0690   18.1210   29.8680 C   0  0  2  0  0  0  0  0  0  0  0  0
   38.0330   18.9400   29.1110 C   0  0  0  0  0  0  0  0  0  0  0  0
   36.6610   18.8230   28.5730 C   0  0  1  0  0  0  0  0  0  0  0  0
   36.3290   17.8940   27.4370 C   0  0  0  0  0  0  0  0  0  0  0  0
   35.8230   18.6230   26.2100 C   0  0  0  0  0  0  0  0  0  0  0  0
   36.0380   21.0400   33.6970 O   0  0  0  0  0  0  0  0  0  0  0  0
   36.9560   22.0750   33.6850 C   0  0  0  0  0  0  0  0  0  0  0  0
   36.7900   22.8790   32.7030 O   0  0  0  0  0  0  0  0  0  0  0  0
   40.2670   22.1440   35.1720 C   0  0  0  0  0  0  0  0  0  0  0  0
   40.0300   22.6530   36.4490 C   0  0  0  0  0  0  0  0  0  0  0  0
   38.7300   22.9690   36.7910 C   0  0  0  0  0  0  0  0  0  0  0  0
   37.7460   22.7830   35.9020 N   0  0  0  0  0  0  0  0  0  0  0  0
   38.0260   22.2820   34.6620 C   0  0  0  0  0  0  0  0  0  0  0  0
   39.2500   21.9760   34.3170 N   0  0  0  0  0  0  0  0  0  0  0  0
   38.4730   23.5030   38.1310 C   0  0  0  0  0  0  0  0  0  0  0  0
   37.3070   22.8840   38.5930 F   0  0  0  0  0  0  0  0  0  0  0  0
   38.1260   24.8500   38.0700 F   0  0  0  0  0  0  0  0  0  0  0  0
   39.5000   23.3920   39.0120 F   0  0  0  0  0  0  0  0  0  0  0  0
   41.2160   22.7680   37.2210 C   0  0  0  0  0  0  0  0  0  0  0  0
   42.3750   23.0860   36.9280 O   0  0  0  0  0  0  0  0  0  0  0  0
   34.7148   18.6696   33.8163 H   0  0  0  0  0  0  0  0  0  0  0  0
   35.2293   17.0183   31.7535 H   0  0  0  0  0  0  0  0  0  0  0  0
   37.0604   17.0890   30.2487 H   0  0  0  0  0  0  0  0  0  0  0  0
   38.3740   19.9001   29.5258 H   0  0  0  0  0  0  0  0  0  0  0  0
   39.0345   18.7526   28.6964 H   0  0  0  0  0  0  0  0  0  0  0  0
   35.9305   19.5709   28.2310 H   0  0  0  0  0  0  0  0  0  0  0  0
   37.2360   17.3347   27.1641 H   0  0  0  0  0  0  0  0  0  0  0  0
   35.5249   17.2264   27.7800 H   0  0  0  0  0  0  0  0  0  0  0  0
   35.2213   19.4899   26.5207 H   0  0  0  0  0  0  0  0  0  0  0  0
   36.6779   18.9665   25.6090 H   0  0  0  0  0  0  0  0  0  0  0  0
   35.2022   17.9422   25.6090 H   0  0  0  0  0  0  0  0  0  0  0  0
   41.2904   21.8803   34.8669 H   0  0  0  0  0  0  0  0  0  0  0  0
   41.0775   22.5279   38.2855 H   0  0  0  0  0  0  0  0  0  0  0  0
  1  2  1  0
  1 11  1  0
  3  2  2  0
  4  5  1  0
  4  3  1  0
  5  1  2  0
  6  4  1  0
  7  6  1  0
  8  7  1  0
  8  6  1  0
  9  8  1  0
 10  9  1  0
 12 11  1  0
 12 18  1  0
 13 12  2  0
 14 15  2  0
 15 16  1  0
 15 24  1  0
 16 20  1  0
 17 16  2  0
 18 17  1  0
 19 18  2  0
 19 14  1  0
 20 21  1  0
 20 23  1  0
 22 20  1  0
 25 24  2  0
  2 26  1  0
  3 27  1  0
  6 28  1  6
  7 29  1  0
  7 30  1  0
  8 31  1  1
  9 32  1  0
  9 33  1  0
 10 34  1  0
 10 35  1  0
 10 36  1  0
 14 37  1  0
 24 38  1  0
M  ISO  8  26  14  27  14  28  13  29  13  30  13  31  13  32   8  33   8
M  ISO  5  34   8  35   8  36   8  37  14  38   6
M  END
>  <minimizedAffinity>  (1) 
-5.19730854

>  <minimizedRMSD>  (1) 
0.497625202

$$$$
