
     RDKit          3D

 48 51  0  0  1  0  0  0  0  0999 V2000
   36.0410   18.9280   32.2800 C   0  0  0  0  0  0  0  0  0  0  0  0
   35.8680   17.5550   32.4150 C   0  0  0  0  0  0  0  0  0  0  0  0
   36.2470   16.9710   31.2200 C   0  0  0  0  0  0  0  0  0  0  0  0
   36.6350   17.9720   30.4000 N   0  0  0  0  0  0  0  0  0  0  0  0
   36.5170   19.1150   31.0120 N   0  0  0  0  0  0  0  0  0  0  0  0
   37.1120   17.8030   29.0440 C   0  0  2  0  0  0  0  0  0  0  0  0
   37.9220   18.8920   28.4330 C   0  0  0  0  0  0  0  0  0  0  0  0
   36.5180   18.7080   27.9800 C   0  0  1  0  0  0  0  0  0  0  0  0
   36.1840   18.0310   26.6790 C   0  0  0  0  0  0  0  0  0  0  0  0
   35.4000   18.9070   25.7340 C   0  0  0  0  0  0  0  0  0  0  0  0
   35.7260   19.7410   33.3530 O   0  0  0  0  0  0  0  0  0  0  0  0
   36.1370   21.0720   33.3530 C   0  0  0  0  0  0  0  0  0  0  0  0
   35.3640   21.8350   32.7200 O   0  0  0  0  0  0  0  0  0  0  0  0
   39.6260   21.9170   33.8970 C   0  0  0  0  0  0  0  0  0  0  0  0
   39.6340   22.4800   35.1840 C   0  0  0  0  0  0  0  0  0  0  0  0
   38.4250   22.5620   35.8440 C   0  0  0  0  0  0  0  0  0  0  0  0
   37.3070   22.1150   35.2590 N   0  0  0  0  0  0  0  0  0  0  0  0
   37.3360   21.5730   34.0070 C   0  0  0  0  0  0  0  0  0  0  0  0
   38.4790   21.4830   33.3540 N   0  0  0  0  0  0  0  0  0  0  0  0
   40.9590   22.8290   35.5650 N   0  0  0  0  0  0  0  0  0  0  0  0
   41.8070   24.0170   35.5750 C   0  0  0  0  0  0  0  0  0  0  0  0
   43.1920   23.4860   35.4330 C   0  0  0  0  0  0  0  0  0  0  0  0
   43.1360   22.2470   36.3140 C   0  0  0  0  0  0  0  0  0  0  0  0
   41.7380   21.7040   36.1070 C   0  0  0  0  0  0  0  0  0  0  0  0
   38.4110   23.1610   37.1800 C   0  0  0  0  0  0  0  0  0  0  0  0
   37.1020   23.0550   37.6580 F   0  0  0  0  0  0  0  0  0  0  0  0
   38.6170   24.5430   37.1050 F   0  0  0  0  0  0  0  0  0  0  0  0
   39.3490   22.6850   38.0420 F   0  0  0  0  0  0  0  0  0  0  0  0
   35.4978   17.0299   33.3079 H   0  0  0  0  0  0  0  0  0  0  0  0
   36.2348   15.8970   30.9827 H   0  0  0  0  0  0  0  0  0  0  0  0
   37.2446   16.7189   29.1750 H   0  0  0  0  0  0  0  0  0  0  0  0
   38.1914   19.7743   29.0321 H   0  0  0  0  0  0  0  0  0  0  0  0
   38.8960   18.9338   27.9235 H   0  0  0  0  0  0  0  0  0  0  0  0
   35.6749   19.4064   27.8734 H   0  0  0  0  0  0  0  0  0  0  0  0
   37.1231   17.7390   26.1863 H   0  0  0  0  0  0  0  0  0  0  0  0
   35.5528   17.1621   26.9168 H   0  0  0  0  0  0  0  0  0  0  0  0
   34.7761   19.6041   26.3126 H   0  0  0  0  0  0  0  0  0  0  0  0
   36.0953   19.4768   25.1001 H   0  0  0  0  0  0  0  0  0  0  0  0
   34.7568   18.2789   25.1001 H   0  0  0  0  0  0  0  0  0  0  0  0
   40.5656   21.8316   33.3315 H   0  0  0  0  0  0  0  0  0  0  0  0
   41.5567   24.6808   34.7343 H   0  0  0  0  0  0  0  0  0  0  0  0
   41.6793   24.6151   36.4893 H   0  0  0  0  0  0  0  0  0  0  0  0
   43.4170   23.2258   34.3882 H   0  0  0  0  0  0  0  0  0  0  0  0
   43.9773   24.2021   35.7170 H   0  0  0  0  0  0  0  0  0  0  0  0
   43.8905   21.5109   35.9996 H   0  0  0  0  0  0  0  0  0  0  0  0
   43.3475   22.4720   37.3698 H   0  0  0  0  0  0  0  0  0  0  0  0
   41.3112   21.3651   37.0625 H   0  0  0  0  0  0  0  0  0  0  0  0
   41.7315   20.8374   35.4295 H   0  0  0  0  0  0  0  0  0  0  0  0
  1  2  1  0
  1 11  1  0
  3  2  2  0
  4  5  1  0
  4  3  1  0
  5  1  2  0
  6  4  1  0
  7  6  1  0
  8  7  1  0
  8  6  1  0
  9  8  1  0
 10  9  1  0
 11 12  1  0
 12 18  1  0
 13 12  2  0
 14 15  2  0
 15 20  1  0
 15 16  1  0
 16 25  1  0
 17 16  2  0
 18 17  1  0
 19 14  1  0
 19 18  2  0
 20 21  1  0
 20 24  1  0
 22 21  1  0
 22 23  1  0
 24 23  1  0
 25 26  1  0
 25 28  1  0
 27 25  1  0
  2 29  1  0
  3 30  1  0
  6 31  1  6
  7 32  1  0
  7 33  1  0
  8 34  1  1
  9 35  1  0
  9 36  1  0
 10 37  1  0
 10 38  1  0
 10 39  1  0
 14 40  1  0
 21 41  1  0
 21 42  1  0
 22 43  1  0
 22 44  1  0
 23 45  1  0
 23 46  1  0
 24 47  1  0
 24 48  1  0
M  ISO  8  29  14  30  14  31  13  32  13  33  13  34  13  35   8  36   8
M  ISO  8  37   8  38   8  39   8  40  14  41  13  42  13  43  13  44  13
M  ISO  4  45  13  46  13  47  13  48  13
M  END
>  <minimizedAffinity>  (1) 
-5.16601896

>  <minimizedRMSD>  (1) 
1.86763918

$$$$
