
     RDKit          3D

 37 39  0  0  1  0  0  0  0  0999 V2000
   35.9750   19.5930   32.5530 C   0  0  0  0  0  0  0  0  0  0  0  0
   35.4290   18.3450   32.8280 C   0  0  0  0  0  0  0  0  0  0  0  0
   35.7460   17.5150   31.7590 C   0  0  0  0  0  0  0  0  0  0  0  0
   36.4630   18.2550   30.8750 N   0  0  0  0  0  0  0  0  0  0  0  0
   36.5990   19.4590   31.3290 N   0  0  0  0  0  0  0  0  0  0  0  0
   36.9900   17.7680   29.6250 C   0  0  2  0  0  0  0  0  0  0  0  0
   37.9980   18.5980   28.9200 C   0  0  0  0  0  0  0  0  0  0  0  0
   36.6250   18.5580   28.3660 C   0  0  1  0  0  0  0  0  0  0  0  0
   36.2860   17.7050   27.1780 C   0  0  0  0  0  0  0  0  0  0  0  0
   35.6980   18.5160   26.0340 C   0  0  0  0  0  0  0  0  0  0  0  0
   35.8110   20.6220   33.4540 O   0  0  0  0  0  0  0  0  0  0  0  0
   36.6060   21.7470   33.4050 C   0  0  0  0  0  0  0  0  0  0  0  0
   36.2310   22.5560   32.5110 O   0  0  0  0  0  0  0  0  0  0  0  0
   40.0390   22.0080   34.5220 C   0  0  0  0  0  0  0  0  0  0  0  0
   39.9460   22.4890   35.8190 C   0  0  0  0  0  0  0  0  0  0  0  0
   38.6730   22.7260   36.3090 C   0  0  0  0  0  0  0  0  0  0  0  0
   37.5850   22.4870   35.5320 N   0  0  0  0  0  0  0  0  0  0  0  0
   37.7470   22.0120   34.2600 C   0  0  0  0  0  0  0  0  0  0  0  0
   38.9530   21.7830   33.7830 N   0  0  0  0  0  0  0  0  0  0  0  0
   38.5010   23.2380   37.6800 C   0  0  0  0  0  0  0  0  0  0  0  0
   37.2170   22.8810   38.0950 F   0  0  0  0  0  0  0  0  0  0  0  0
   38.5220   24.6230   37.7030 F   0  0  0  0  0  0  0  0  0  0  0  0
   39.4790   22.8120   38.5360 F   0  0  0  0  0  0  0  0  0  0  0  0
   41.3680   22.8120   36.8670 S   0  0  0  0  0  0  0  0  0  0  0  0
   34.8540   18.0663   33.7234 H   0  0  0  0  0  0  0  0  0  0  0  0
   35.4679   16.4564   31.6497 H   0  0  0  0  0  0  0  0  0  0  0  0
   36.9341   16.7171   29.9451 H   0  0  0  0  0  0  0  0  0  0  0  0
   38.3680   19.5208   29.3906 H   0  0  0  0  0  0  0  0  0  0  0  0
   38.9968   18.3993   28.5041 H   0  0  0  0  0  0  0  0  0  0  0  0
   35.9225   19.3484   28.0630 H   0  0  0  0  0  0  0  0  0  0  0  0
   37.2024   17.2091   26.8256 H   0  0  0  0  0  0  0  0  0  0  0  0
   35.5291   16.9724   27.4948 H   0  0  0  0  0  0  0  0  0  0  0  0
   35.0982   19.3432   26.4414 H   0  0  0  0  0  0  0  0  0  0  0  0
   36.5123   18.9229   25.4165 H   0  0  0  0  0  0  0  0  0  0  0  0
   35.0581   17.8685   25.4165 H   0  0  0  0  0  0  0  0  0  0  0  0
   41.0319   21.8075   34.0931 H   0  0  0  0  0  0  0  0  0  0  0  0
   40.9945   22.7272   38.1824 H   0  0  0  0  0  0  0  0  0  0  0  0
  1  2  1  0
  1 11  1  0
  3  2  2  0
  4  5  1  0
  4  3  1  0
  5  1  2  0
  6  4  1  0
  7  6  1  0
  8  7  1  0
  8  6  1  0
  9  8  1  0
 10  9  1  0
 12 11  1  0
 12 18  1  0
 13 12  2  0
 14 15  2  0
 15 16  1  0
 15 24  1  0
 16 20  1  0
 17 16  2  0
 18 17  1  0
 19 18  2  0
 19 14  1  0
 20 22  1  0
 20 21  1  0
 20 23  1  0
  2 25  1  0
  3 26  1  0
  6 27  1  6
  7 28  1  0
  7 29  1  0
  8 30  1  1
  9 31  1  0
  9 32  1  0
 10 33  1  0
 10 34  1  0
 10 35  1  0
 14 36  1  0
 24 37  1  0
M  ISO  8  25  14  26  14  27  13  28  13  29  13  30  13  31   8  32   8
M  ISO  5  33   8  34   8  35   8  36  14  37  11
M  END
>  <minimizedAffinity>  (1) 
-4.82860613

>  <minimizedRMSD>  (1) 
0.979999363

$$$$
