
     RDKit          3D

 17 18  0  0  0  0  0  0  0  0999 V2000
   39.9060   22.6340   37.2220 C   0  0  0  0  0  0  0  0  0  0  0  0
   39.2550   23.2960   38.2750 C   0  0  0  0  0  0  0  0  0  0  0  0
   37.8530   23.4460   38.1990 C   0  0  0  0  0  0  0  0  0  0  0  0
   37.2080   22.9380   37.1050 N   0  0  0  0  0  0  0  0  0  0  0  0
   37.8720   22.3090   36.1160 C   0  0  0  0  0  0  0  0  0  0  0  0
   39.2080   22.1540   36.1650 N   0  0  0  0  0  0  0  0  0  0  0  0
   37.1910   21.7650   34.9450 C   0  0  0  0  0  0  0  0  0  0  0  0
   36.0620   20.9680   35.1730 C   0  0  0  0  0  0  0  0  0  0  0  0
   35.5740   20.5590   33.9280 C   0  0  0  0  0  0  0  0  0  0  0  0
   36.4590   21.1470   33.0170 C   0  0  0  0  0  0  0  0  0  0  0  0
   37.3750   21.8340   33.6400 O   0  0  0  0  0  0  0  0  0  0  0  0
   40.9977   22.5033   37.2557 H   0  0  0  0  0  0  0  0  0  0  0  0
   39.8204   23.6864   39.1340 H   0  0  0  0  0  0  0  0  0  0  0  0
   37.2951   23.9572   38.9974 H   0  0  0  0  0  0  0  0  0  0  0  0
   35.6362   20.7104   36.1540 H   0  0  0  0  0  0  0  0  0  0  0  0
   34.7008   19.9249   33.7149 H   0  0  0  0  0  0  0  0  0  0  0  0
   36.3908   21.0435   31.9240 H   0  0  0  0  0  0  0  0  0  0  0  0
  1  2  2  0
  3  2  1  0
  4  3  2  0
  5  6  2  0
  5  4  1  0
  6  1  1  0
  7  8  2  0
  7  5  1  0
  9  8  1  0
 10 11  1  0
 10  9  2  0
 11  7  1  0
  1 12  1  0
  2 13  1  0
  3 14  1  0
  8 15  1  0
  9 16  1  0
 10 17  1  0
M  ISO  6  12  14  13  14  14  14  15  14  16  14  17  14
M  END
>  <minimizedAffinity>  (1) 
-3.74187112

>  <minimizedRMSD>  (1) 
1.26250792

$$$$
