
     RDKit          3D

 31 34  0  0  0  0  0  0  0  0999 V2000
   37.2910   21.7790   35.4100 C   0  0  0  0  0  0  0  0  0  0  0  0
   36.0640   21.1720   35.6540 C   0  0  0  0  0  0  0  0  0  0  0  0
   35.6170   20.6080   34.4450 C   0  0  0  0  0  0  0  0  0  0  0  0
   36.6290   20.9240   33.5470 C   0  0  0  0  0  0  0  0  0  0  0  0
   37.5740   21.5960   34.1340 O   0  0  0  0  0  0  0  0  0  0  0  0
   36.6210   20.5570   32.1750 N   0  0  0  0  0  0  0  0  0  0  0  0
   36.6660   21.3810   31.1110 C   0  0  0  0  0  0  0  0  0  0  0  0
   36.6430   20.7080   29.9410 N   0  0  0  0  0  0  0  0  0  0  0  0
   36.5800   19.4090   30.2580 C   0  0  0  0  0  0  0  0  0  0  0  0
   36.5350   18.3090   29.4280 C   0  0  0  0  0  0  0  0  0  0  0  0
   36.5470   18.3920   28.1830 O   0  0  0  0  0  0  0  0  0  0  0  0
   36.4740   17.0870   30.0200 N   0  0  0  0  0  0  0  0  0  0  0  0
   36.4620   17.0070   31.3580 C   0  0  0  0  0  0  0  0  0  0  0  0
   36.3970   15.7040   31.9300 N   0  0  0  0  0  0  0  0  0  0  0  0
   36.5070   18.0930   32.1840 N   0  0  0  0  0  0  0  0  0  0  0  0
   36.5680   19.3300   31.6400 C   0  0  0  0  0  0  0  0  0  0  0  0
   39.9430   22.7980   37.6980 C   0  0  0  0  0  0  0  0  0  0  0  0
   39.2920   23.6420   38.6050 C   0  0  0  0  0  0  0  0  0  0  0  0
   37.9100   23.8620   38.4220 C   0  0  0  0  0  0  0  0  0  0  0  0
   37.2750   23.2460   37.3740 N   0  0  0  0  0  0  0  0  0  0  0  0
   37.9590   22.4400   36.5310 C   0  0  0  0  0  0  0  0  0  0  0  0
   39.2700   22.2110   36.6780 N   0  0  0  0  0  0  0  0  0  0  0  0
   35.5373   21.1387   36.6191 H   0  0  0  0  0  0  0  0  0  0  0  0
   34.6881   20.0501   34.2559 H   0  0  0  0  0  0  0  0  0  0  0  0
   36.7158   22.4773   31.1865 H   0  0  0  0  0  0  0  0  0  0  0  0
   36.4374   16.2320   29.4469 H   0  0  0  0  0  0  0  0  0  0  0  0
   36.3854   15.5910   32.9537 H   0  0  0  0  0  0  0  0  0  0  0  0
   36.3616   14.8749   31.3199 H   0  0  0  0  0  0  0  0  0  0  0  0
   41.0201   22.6075   37.8149 H   0  0  0  0  0  0  0  0  0  0  0  0
   39.8389   24.1177   39.4324 H   0  0  0  0  0  0  0  0  0  0  0  0
   37.3519   24.5162   39.1080 H   0  0  0  0  0  0  0  0  0  0  0  0
  1  2  2  0
  1 21  1  0
  3  2  1  0
  4  5  1  0
  4  3  2  0
  5  1  1  0
  6  4  1  0
  7  6  1  0
  8  9  1  0
  8  7  2  0
  9 16  2  0
 10 12  1  0
 10  9  1  0
 11 10  2  0
 12 13  1  0
 13 14  1  0
 13 15  2  0
 16  6  1  0
 16 15  1  0
 17 18  2  0
 19 18  1  0
 20 19  2  0
 21 22  2  0
 21 20  1  0
 22 17  1  0
  2 23  1  0
  3 24  1  0
  7 25  1  0
 12 26  1  0
 14 27  1  0
 14 28  1  0
 17 29  1  0
 18 30  1  0
 19 31  1  0
M  ISO  7  23  14  24  14  25  14  26   9  29  14  30  14  31  14
M  END
>  <minimizedAffinity>  (1) 
-5.06170464

>  <minimizedRMSD>  (1) 
1.83434021

$$$$
