
     RDKit          3D

 27 29  0  0  0  0  0  0  0  0999 V2000
   37.2750   21.6280   35.1930 C   0  0  0  0  0  0  0  0  0  0  0  0
   35.9530   21.1950   35.3850 C   0  0  0  0  0  0  0  0  0  0  0  0
   35.5470   20.5770   34.1880 C   0  0  0  0  0  0  0  0  0  0  0  0
   36.6780   20.6890   33.3580 C   0  0  0  0  0  0  0  0  0  0  0  0
   37.6490   21.2960   33.9650 O   0  0  0  0  0  0  0  0  0  0  0  0
   39.9080   22.7860   37.4470 C   0  0  0  0  0  0  0  0  0  0  0  0
   39.2190   23.5540   38.3910 C   0  0  0  0  0  0  0  0  0  0  0  0
   37.8260   23.6750   38.2500 C   0  0  0  0  0  0  0  0  0  0  0  0
   37.2260   23.0390   37.2020 N   0  0  0  0  0  0  0  0  0  0  0  0
   37.9150   22.3060   36.3090 C   0  0  0  0  0  0  0  0  0  0  0  0
   39.2420   22.1890   36.4420 N   0  0  0  0  0  0  0  0  0  0  0  0
   36.6520   20.1670   32.0350 N   0  0  0  0  0  0  0  0  0  0  0  0
   37.3050   20.7670   31.0150 C   0  0  0  0  0  0  0  0  0  0  0  0
   37.3070   20.2940   29.7170 C   0  0  0  0  0  0  0  0  0  0  0  0
   36.5760   19.1380   29.5320 C   0  0  0  0  0  0  0  0  0  0  0  0
   36.5310   18.6400   28.3560 O   0  0  0  0  0  0  0  0  0  0  0  0
   35.9110   18.5070   30.5200 N   0  0  0  0  0  0  0  0  0  0  0  0
   35.9580   19.0350   31.7700 C   0  0  0  0  0  0  0  0  0  0  0  0
   35.3440   18.4600   32.7000 O   0  0  0  0  0  0  0  0  0  0  0  0
   35.3500   21.3159   36.2970 H   0  0  0  0  0  0  0  0  0  0  0  0
   34.5758   20.1156   33.9559 H   0  0  0  0  0  0  0  0  0  0  0  0
   40.9989   22.6696   37.5265 H   0  0  0  0  0  0  0  0  0  0  0  0
   39.7506   24.0478   39.2178 H   0  0  0  0  0  0  0  0  0  0  0  0
   37.2352   24.2663   38.9650 H   0  0  0  0  0  0  0  0  0  0  0  0
   37.8684   21.6867   31.2313 H   0  0  0  0  0  0  0  0  0  0  0  0
   37.8457   20.7963   28.9000 H   0  0  0  0  0  0  0  0  0  0  0  0
   35.3799   17.6449   30.3313 H   0  0  0  0  0  0  0  0  0  0  0  0
  1  2  2  0
  1 10  1  0
  3  2  1  0
  4  5  1  0
  4  3  2  0
  5  1  1  0
  6  7  2  0
  8  7  1  0
  9  8  2  0
 10 11  2  0
 10  9  1  0
 11  6  1  0
 12  4  1  0
 13 12  1  0
 14 13  2  0
 15 14  1  0
 15 17  1  0
 16 15  2  0
 17 18  1  0
 18 12  1  0
 18 19  2  0
  2 20  1  0
  3 21  1  0
  6 22  1  0
  7 23  1  0
  8 24  1  0
 13 25  1  0
 14 26  1  0
 17 27  1  0
M  ISO  8  20  14  21  14  22  14  23  14  24  14  25  14  26  14  27   9
M  END
>  <minimizedAffinity>  (1) 
-4.92602777

>  <minimizedRMSD>  (1) 
1.11645496

$$$$
