
     RDKit          3D

 33 36  0  0  0  0  0  0  0  0999 V2000
   37.5380   21.6670   34.8110 C   0  0  0  0  0  0  0  0  0  0  0  0
   36.1990   21.3080   34.7470 C   0  0  0  0  0  0  0  0  0  0  0  0
   35.9830   20.7510   33.4910 C   0  0  0  0  0  0  0  0  0  0  0  0
   37.2150   20.8030   32.8510 C   0  0  0  0  0  0  0  0  0  0  0  0
   38.0480   21.3340   33.6600 O   0  0  0  0  0  0  0  0  0  0  0  0
   37.3000   20.2820   31.4950 C   0  0  0  0  0  0  0  0  0  0  0  0
   36.4510   19.2940   30.9900 C   0  0  0  0  0  0  0  0  0  0  0  0
   36.5090   18.7850   29.7200 C   0  0  0  0  0  0  0  0  0  0  0  0
   37.4600   19.2580   28.8500 C   0  0  0  0  0  0  0  0  0  0  0  0
   38.3350   20.2330   29.2720 C   0  0  0  0  0  0  0  0  0  0  0  0
   39.2580   20.6680   28.3730 C   0  0  0  0  0  0  0  0  0  0  0  0
   40.1650   21.6430   28.7300 C   0  0  0  0  0  0  0  0  0  0  0  0
   40.0960   22.1510   30.0180 C   0  0  0  0  0  0  0  0  0  0  0  0
   39.1370   21.6640   30.8730 C   0  0  0  0  0  0  0  0  0  0  0  0
   38.2170   20.6940   30.5560 C   0  0  0  0  0  0  0  0  0  0  0  0
   39.8700   22.7600   37.3860 C   0  0  0  0  0  0  0  0  0  0  0  0
   39.0580   23.4060   38.3180 C   0  0  0  0  0  0  0  0  0  0  0  0
   37.6820   23.4670   38.0530 C   0  0  0  0  0  0  0  0  0  0  0  0
   37.1930   22.8970   36.9040 N   0  0  0  0  0  0  0  0  0  0  0  0
   38.0370   22.2810   36.0350 C   0  0  0  0  0  0  0  0  0  0  0  0
   39.3540   22.2140   36.2700 N   0  0  0  0  0  0  0  0  0  0  0  0
   35.4490   21.4394   35.5409 H   0  0  0  0  0  0  0  0  0  0  0  0
   35.0386   20.3542   33.0901 H   0  0  0  0  0  0  0  0  0  0  0  0
   35.6779   18.8950   31.6631 H   0  0  0  0  0  0  0  0  0  0  0  0
   35.8014   18.0058   29.4004 H   0  0  0  0  0  0  0  0  0  0  0  0
   37.5220   18.8616   27.8258 H   0  0  0  0  0  0  0  0  0  0  0  0
   39.2810   20.2413   27.3594 H   0  0  0  0  0  0  0  0  0  0  0  0
   40.9189   22.0060   28.0160 H   0  0  0  0  0  0  0  0  0  0  0  0
   40.7972   22.9308   30.3499 H   0  0  0  0  0  0  0  0  0  0  0  0
   39.1032   22.0829   31.8895 H   0  0  0  0  0  0  0  0  0  0  0  0
   40.9531   22.6957   37.5669 H   0  0  0  0  0  0  0  0  0  0  0  0
   39.4821   23.8523   39.2295 H   0  0  0  0  0  0  0  0  0  0  0  0
   37.0018   23.9664   38.7586 H   0  0  0  0  0  0  0  0  0  0  0  0
  1 20  1  0
  2  1  2  0
  3  2  1  0
  4  3  2  0
  4  5  1  0
  5  1  1  0
  6  4  1  0
  7  6  2  0
  8  7  1  0
  9 10  1  0
  9  8  2  0
 10 15  2  0
 11 12  2  0
 11 10  1  0
 12 13  1  0
 13 14  2  0
 15 14  1  0
 15  6  1  0
 16 17  2  0
 18 17  1  0
 19 18  2  0
 20 21  2  0
 20 19  1  0
 21 16  1  0
  2 22  1  0
  3 23  1  0
  7 24  1  0
  8 25  1  0
  9 26  1  0
 11 27  1  0
 12 28  1  0
 13 29  1  0
 14 30  1  0
 16 31  1  0
 17 32  1  0
 18 33  1  0
M  ISO  8  22  14  23  14  24  14  25  14  26  14  27  14  28  14  29  14
M  ISO  4  30  14  31  14  32  14  33  14
M  END
>  <minimizedAffinity>  (1) 
-4.71423435

>  <minimizedRMSD>  (1) 
1.5547471

$$$$
