
     RDKit          3D

 29 30  0  0  0  0  0  0  0  0999 V2000
   37.1650   21.7900   35.2610 C   0  0  0  0  0  0  0  0  0  0  0  0
   36.1100   20.9530   35.6030 C   0  0  0  0  0  0  0  0  0  0  0  0
   35.4900   20.5180   34.4310 C   0  0  0  0  0  0  0  0  0  0  0  0
   36.2410   21.1460   33.4200 C   0  0  0  0  0  0  0  0  0  0  0  0
   37.1920   21.8670   33.9390 O   0  0  0  0  0  0  0  0  0  0  0  0
   40.0620   22.6300   37.2980 C   0  0  0  0  0  0  0  0  0  0  0  0
   39.5310   23.4070   38.3280 C   0  0  0  0  0  0  0  0  0  0  0  0
   38.1300   23.6550   38.3250 C   0  0  0  0  0  0  0  0  0  0  0  0
   37.4010   23.1090   37.3100 N   0  0  0  0  0  0  0  0  0  0  0  0
   37.9580   22.3650   36.3380 C   0  0  0  0  0  0  0  0  0  0  0  0
   39.2740   22.1200   36.3190 N   0  0  0  0  0  0  0  0  0  0  0  0
   35.9610   20.9880   31.9790 C   0  0  0  0  0  0  0  0  0  0  0  0
   34.8320   19.9930   31.7710 C   0  0  0  0  0  0  0  0  0  0  0  0
   37.1680   20.4090   31.2350 C   0  0  0  0  0  0  0  0  0  0  0  0
   35.6560   22.3120   31.3220 C   0  0  0  0  0  0  0  0  0  0  0  0
   35.8132   20.6792   36.6262 H   0  0  0  0  0  0  0  0  0  0  0  0
   34.6247   19.8474   34.3235 H   0  0  0  0  0  0  0  0  0  0  0  0
   41.1429   22.4267   37.2795 H   0  0  0  0  0  0  0  0  0  0  0  0
   40.1766   23.8159   39.1192 H   0  0  0  0  0  0  0  0  0  0  0  0
   37.6544   24.2622   39.1092 H   0  0  0  0  0  0  0  0  0  0  0  0
   34.4530   19.6590   32.7481 H   0  0  0  0  0  0  0  0  0  0  0  0
   34.0189   20.4736   31.2071 H   0  0  0  0  0  0  0  0  0  0  0  0
   35.2066   19.1260   31.2071 H   0  0  0  0  0  0  0  0  0  0  0  0
   37.9112   20.0525   31.9634 H   0  0  0  0  0  0  0  0  0  0  0  0
   36.8414   19.5695   30.6036 H   0  0  0  0  0  0  0  0  0  0  0  0
   37.6183   21.1891   30.6036 H   0  0  0  0  0  0  0  0  0  0  0  0
   35.4805   23.0736   32.0960 H   0  0  0  0  0  0  0  0  0  0  0  0
   36.5078   22.6153   30.6955 H   0  0  0  0  0  0  0  0  0  0  0  0
   34.7574   22.2121   30.6955 H   0  0  0  0  0  0  0  0  0  0  0  0
  1  2  2  0
  1 10  1  0
  3  2  1  0
  4  5  1  0
  4  3  2  0
  5  1  1  0
  6  7  2  0
  8  7  1  0
  9  8  2  0
 10  9  1  0
 11 10  2  0
 11  6  1  0
 12  4  1  0
 13 12  1  0
 14 12  1  0
 15 12  1  0
  2 16  1  0
  3 17  1  0
  6 18  1  0
  7 19  1  0
  8 20  1  0
 13 21  1  0
 13 22  1  0
 13 23  1  0
 14 24  1  0
 14 25  1  0
 14 26  1  0
 15 27  1  0
 15 28  1  0
 15 29  1  0
M  ISO  8  16  14  17  14  18  14  19  14  20  14  21   8  22   8  23   8
M  ISO  6  24   8  25   8  26   8  27   8  28   8  29   8
M  END
>  <minimizedAffinity>  (1) 
-4.70652533

>  <minimizedRMSD>  (1) 
0.440899372

$$$$
