
     RDKit          3D

 30 32  0  0  0  0  0  0  0  0999 V2000
   37.4260   21.6910   35.0320 C   0  0  0  0  0  0  0  0  0  0  0  0
   36.0950   21.2340   35.0950 C   0  0  0  0  0  0  0  0  0  0  0  0
   35.8120   20.6560   33.8480 C   0  0  0  0  0  0  0  0  0  0  0  0
   36.9990   20.8070   33.1190 C   0  0  0  0  0  0  0  0  0  0  0  0
   37.8890   21.4050   33.8410 O   0  0  0  0  0  0  0  0  0  0  0  0
   39.8380   22.8260   37.5240 C   0  0  0  0  0  0  0  0  0  0  0  0
   39.0450   23.5140   38.4540 C   0  0  0  0  0  0  0  0  0  0  0  0
   37.6620   23.5940   38.2290 C   0  0  0  0  0  0  0  0  0  0  0  0
   37.1570   22.9920   37.1070 N   0  0  0  0  0  0  0  0  0  0  0  0
   37.9450   22.3360   36.2280 C   0  0  0  0  0  0  0  0  0  0  0  0
   39.2750   22.2510   36.4300 N   0  0  0  0  0  0  0  0  0  0  0  0
   37.3200   19.3640   29.1070 C   0  0  0  0  0  0  0  0  0  0  0  0
   38.2190   20.2950   29.5820 C   0  0  0  0  0  0  0  0  0  0  0  0
   38.1260   20.7700   30.8810 C   0  0  0  0  0  0  0  0  0  0  0  0
   37.1280   20.3300   31.7490 C   0  0  0  0  0  0  0  0  0  0  0  0
   36.2480   19.3990   31.2370 C   0  0  0  0  0  0  0  0  0  0  0  0
   36.3180   18.9070   29.9430 C   0  0  0  0  0  0  0  0  0  0  0  0
   37.5280   18.8360   27.4620 S   0  0  0  0  0  0  0  0  0  0  0  0
   38.4000   19.7690   26.7050 O   0  0  0  0  0  0  0  0  0  0  0  0
   36.1480   18.7910   26.8300 O   0  0  0  0  0  0  0  0  0  0  0  0
   35.4116   21.3144   35.9532 H   0  0  0  0  0  0  0  0  0  0  0  0
   34.8718   20.1902   33.5178 H   0  0  0  0  0  0  0  0  0  0  0  0
   40.9241   22.7516   37.6819 H   0  0  0  0  0  0  0  0  0  0  0  0
   39.4975   23.9811   39.3411 H   0  0  0  0  0  0  0  0  0  0  0  0
   37.0033   24.1242   38.9326 H   0  0  0  0  0  0  0  0  0  0  0  0
   39.0186   20.6648   28.9233 H   0  0  0  0  0  0  0  0  0  0  0  0
   38.8571   21.5117   31.2352 H   0  0  0  0  0  0  0  0  0  0  0  0
   35.4465   19.0265   31.8919 H   0  0  0  0  0  0  0  0  0  0  0  0
   35.5882   18.1650   29.5870 H   0  0  0  0  0  0  0  0  0  0  0  0
   38.1294   17.6054   27.4358 H   0  0  0  0  0  0  0  0  0  0  0  0
  1  2  2  0
  1 10  1  0
  3  2  1  0
  4  5  1  0
  4  3  2  0
  5  1  1  0
  6  7  2  0
  8  7  1  0
  9  8  2  0
 10 11  2  0
 10  9  1  0
 11  6  1  0
 12 13  2  0
 12 17  1  0
 13 14  1  0
 14 15  2  0
 15  4  1  0
 16 15  1  0
 17 16  2  0
 18 12  1  0
 19 18  2  0
 20 18  2  0
  2 21  1  0
  3 22  1  0
  6 23  1  0
  7 24  1  0
  8 25  1  0
 13 26  1  0
 14 27  1  0
 16 28  1  0
 17 29  1  0
 18 30  1  0
M  ISO  8  21  14  22  14  23  14  24  14  25  14  26  14  27  14  28  14
M  ISO  2  29  14  30  11
M  END
>  <minimizedAffinity>  (1) 
-4.52424479

>  <minimizedRMSD>  (1) 
1.3222661

$$$$
