
     RDKit          3D

 28 30  0  0  0  0  0  0  0  0999 V2000
   37.2930   21.6580   35.2720 C   0  0  0  0  0  0  0  0  0  0  0  0
   35.9710   21.2270   35.4720 C   0  0  0  0  0  0  0  0  0  0  0  0
   35.5370   20.6030   34.2990 C   0  0  0  0  0  0  0  0  0  0  0  0
   36.6590   20.7070   33.4530 C   0  0  0  0  0  0  0  0  0  0  0  0
   37.6410   21.3180   34.0520 O   0  0  0  0  0  0  0  0  0  0  0  0
   36.6230   20.1780   32.1330 N   0  0  0  0  0  0  0  0  0  0  0  0
   37.1050   20.9080   31.1070 C   0  0  0  0  0  0  0  0  0  0  0  0
   37.0700   20.3970   29.8300 C   0  0  0  0  0  0  0  0  0  0  0  0
   36.5280   19.1330   29.6760 C   0  0  0  0  0  0  0  0  0  0  0  0
   36.4720   18.5640   28.3580 N   0  0  0  0  0  0  0  0  0  0  0  0
   36.0480   18.4130   30.7080 N   0  0  0  0  0  0  0  0  0  0  0  0
   36.0970   18.9410   31.9460 C   0  0  0  0  0  0  0  0  0  0  0  0
   35.6500   18.2780   32.9400 O   0  0  0  0  0  0  0  0  0  0  0  0
   39.9430   22.7920   37.5010 C   0  0  0  0  0  0  0  0  0  0  0  0
   39.2690   23.5820   38.4430 C   0  0  0  0  0  0  0  0  0  0  0  0
   37.8730   23.7280   38.3100 C   0  0  0  0  0  0  0  0  0  0  0  0
   37.2530   23.0930   37.2700 N   0  0  0  0  0  0  0  0  0  0  0  0
   37.9380   22.3370   36.3780 C   0  0  0  0  0  0  0  0  0  0  0  0
   39.2710   22.1930   36.5000 N   0  0  0  0  0  0  0  0  0  0  0  0
   35.3807   21.3577   36.3909 H   0  0  0  0  0  0  0  0  0  0  0  0
   34.5599   20.1437   34.0882 H   0  0  0  0  0  0  0  0  0  0  0  0
   37.5246   21.9082   31.2902 H   0  0  0  0  0  0  0  0  0  0  0  0
   37.4549   20.9667   28.9714 H   0  0  0  0  0  0  0  0  0  0  0  0
   36.0729   17.6247   28.2191 H   0  0  0  0  0  0  0  0  0  0  0  0
   36.8310   19.0954   27.5520 H   0  0  0  0  0  0  0  0  0  0  0  0
   41.0322   22.6603   37.5807 H   0  0  0  0  0  0  0  0  0  0  0  0
   39.8138   24.0738   39.2624 H   0  0  0  0  0  0  0  0  0  0  0  0
   37.2982   24.3364   39.0237 H   0  0  0  0  0  0  0  0  0  0  0  0
  1  2  2  0
  1 18  1  0
  3  2  1  0
  4  5  1  0
  4  3  2  0
  5  1  1  0
  6  4  1  0
  7  6  1  0
  8  7  2  0
  9  8  1  0
  9 11  2  0
 10  9  1  0
 11 12  1  0
 12  6  1  0
 12 13  2  0
 14 15  2  0
 16 15  1  0
 17 16  2  0
 18 19  2  0
 18 17  1  0
 19 14  1  0
  2 20  1  0
  3 21  1  0
  7 22  1  0
  8 23  1  0
 10 24  1  0
 10 25  1  0
 14 26  1  0
 15 27  1  0
 16 28  1  0
M  ISO  7  20  14  21  14  22  14  23  14  26  14  27  14  28  14
M  END
>  <minimizedAffinity>  (1) 
-4.49480438

>  <minimizedRMSD>  (1) 
0.992067754

$$$$
