
     RDKit          3D

 26 27  0  0  0  0  0  0  0  0999 V2000
   37.1780   21.7840   35.1420 C   0  0  0  0  0  0  0  0  0  0  0  0
   36.0790   20.9710   35.4100 C   0  0  0  0  0  0  0  0  0  0  0  0
   35.5690   20.5320   34.1820 C   0  0  0  0  0  0  0  0  0  0  0  0
   36.4270   21.1340   33.2370 C   0  0  0  0  0  0  0  0  0  0  0  0
   37.3330   21.8420   33.8290 O   0  0  0  0  0  0  0  0  0  0  0  0
   39.9380   22.6690   37.3560 C   0  0  0  0  0  0  0  0  0  0  0  0
   39.3200   23.3970   38.3810 C   0  0  0  0  0  0  0  0  0  0  0  0
   37.9310   23.5890   38.3100 C   0  0  0  0  0  0  0  0  0  0  0  0
   37.2500   23.0560   37.2490 N   0  0  0  0  0  0  0  0  0  0  0  0
   37.8770   22.3610   36.2820 C   0  0  0  0  0  0  0  0  0  0  0  0
   39.2150   22.1650   36.3320 N   0  0  0  0  0  0  0  0  0  0  0  0
   36.3340   20.9970   31.7450 C   0  0  0  0  0  0  0  0  0  0  0  0
   35.6050   22.1940   31.1600 C   0  0  0  0  0  0  0  0  0  0  0  0
   35.6680   19.6950   31.3550 C   0  0  0  0  0  0  0  0  0  0  0  0
   35.6837   20.7196   36.4053 H   0  0  0  0  0  0  0  0  0  0  0  0
   34.7061   19.8751   33.9980 H   0  0  0  0  0  0  0  0  0  0  0  0
   41.0254   22.5057   37.3853 H   0  0  0  0  0  0  0  0  0  0  0  0
   39.9059   23.8063   39.2171 H   0  0  0  0  0  0  0  0  0  0  0  0
   37.4015   24.1555   39.0902 H   0  0  0  0  0  0  0  0  0  0  0  0
   37.3519   20.9742   31.3286 H   0  0  0  0  0  0  0  0  0  0  0  0
   35.2212   22.8242   31.9758 H   0  0  0  0  0  0  0  0  0  0  0  0
   36.3000   22.7796   30.5402 H   0  0  0  0  0  0  0  0  0  0  0  0
   34.7658   21.8452   30.5402 H   0  0  0  0  0  0  0  0  0  0  0  0
   35.3850   19.1417   32.2626 H   0  0  0  0  0  0  0  0  0  0  0  0
   34.7679   19.9076   30.7595 H   0  0  0  0  0  0  0  0  0  0  0  0
   36.3671   19.0895   30.7595 H   0  0  0  0  0  0  0  0  0  0  0  0
  1  2  2  0
  1 10  1  0
  3  2  1  0
  4  5  1  0
  4  3  2  0
  5  1  1  0
  6  7  2  0
  8  7  1  0
  9  8  2  0
 10 11  2  0
 10  9  1  0
 11  6  1  0
 12  4  1  0
 13 12  1  0
 14 12  1  0
  2 15  1  0
  3 16  1  0
  6 17  1  0
  7 18  1  0
  8 19  1  0
 12 20  1  0
 13 21  1  0
 13 22  1  0
 13 23  1  0
 14 24  1  0
 14 25  1  0
 14 26  1  0
M  ISO  8  15  14  16  14  17  14  18  14  19  14  20   8  21   8  22   8
M  ISO  4  23   8  24   8  25   8  26   8
M  END
>  <minimizedAffinity>  (1) 
-4.49031973

>  <minimizedRMSD>  (1) 
0.482998431

$$$$
