
     RDKit          3D

 18 19  0  0  0  0  0  0  0  0999 V2000
   40.4540   22.4240   37.6890 C   0  0  0  0  0  0  0  0  0  0  0  0
   39.2530   23.1340   37.4340 C   0  0  0  0  0  0  0  0  0  0  0  0
   38.8710   23.3090   36.1130 C   0  0  0  0  0  0  0  0  0  0  0  0
   39.6570   22.7990   35.1280 N   0  0  0  0  0  0  0  0  0  0  0  0
   40.7980   22.1270   35.4100 C   0  0  0  0  0  0  0  0  0  0  0  0
   41.1850   21.9460   36.6730 N   0  0  0  0  0  0  0  0  0  0  0  0
   41.6440   21.5770   34.3570 C   0  0  0  0  0  0  0  0  0  0  0  0
   41.7190   21.7530   33.0390 N   0  0  0  0  0  0  0  0  0  0  0  0
   42.6680   21.0040   32.5770 O   0  0  0  0  0  0  0  0  0  0  0  0
   43.2330   20.3300   33.5510 C   0  0  0  0  0  0  0  0  0  0  0  0
   42.6090   20.6710   34.6800 N   0  0  0  0  0  0  0  0  0  0  0  0
   38.3930   23.6930   38.5210 C   0  0  0  0  0  0  0  0  0  0  0  0
   39.2230   23.8650   39.6320 F   0  0  0  0  0  0  0  0  0  0  0  0
   37.3750   22.8790   38.8590 F   0  0  0  0  0  0  0  0  0  0  0  0
   37.9970   25.0030   38.2010 F   0  0  0  0  0  0  0  0  0  0  0  0
   40.7867   22.2651   38.7254 H   0  0  0  0  0  0  0  0  0  0  0  0
   37.9468   23.8518   35.8657 H   0  0  0  0  0  0  0  0  0  0  0  0
   44.0653   19.6173   33.4547 H   0  0  0  0  0  0  0  0  0  0  0  0
  2  1  2  0
  2 12  1  0
  3  2  1  0
  4  5  1  0
  4  3  2  0
  5  6  2  0
  6  1  1  0
  7 11  1  0
  7  5  1  0
  8  7  2  0
  9  8  1  0
  9 10  1  0
 10 11  2  0
 12 14  1  0
 12 13  1  0
 15 12  1  0
  1 16  1  0
  3 17  1  0
 10 18  1  0
M  ISO  3  16  14  17  14  18  14
M  END
>  <minimizedAffinity>  (1) 
-3.90842104

>  <minimizedRMSD>  (1) 
0.408063531

$$$$
