
     RDKit          3D

 24 26  0  0  0  0  0  0  0  0999 V2000
   37.2240   21.4730   34.6990 C   0  0  0  0  0  0  0  0  0  0  0  0
   35.9110   20.9830   34.8180 C   0  0  0  0  0  0  0  0  0  0  0  0
   35.5840   20.3910   33.5850 C   0  0  0  0  0  0  0  0  0  0  0  0
   36.7260   20.5700   32.8120 C   0  0  0  0  0  0  0  0  0  0  0  0
   37.6600   21.1990   33.4810 O   0  0  0  0  0  0  0  0  0  0  0  0
   39.7040   22.7720   37.0320 C   0  0  0  0  0  0  0  0  0  0  0  0
   38.9130   23.3610   38.0470 C   0  0  0  0  0  0  0  0  0  0  0  0
   37.5170   23.3110   37.9270 C   0  0  0  0  0  0  0  0  0  0  0  0
   37.0060   22.6900   36.8280 N   0  0  0  0  0  0  0  0  0  0  0  0
   37.7800   22.1350   35.8720 C   0  0  0  0  0  0  0  0  0  0  0  0
   39.1260   22.1740   35.9690 N   0  0  0  0  0  0  0  0  0  0  0  0
   36.8650   20.1160   31.4340 C   0  0  0  0  0  0  0  0  0  0  0  0
   37.8550   20.4130   30.5420 C   0  0  0  0  0  0  0  0  0  0  0  0
   37.6350   19.7980   29.3540 N   0  0  0  0  0  0  0  0  0  0  0  0
   36.4810   19.1040   29.5160 C   0  0  0  0  0  0  0  0  0  0  0  0
   36.0040   19.2890   30.7780 N   0  0  0  0  0  0  0  0  0  0  0  0
   35.2641   21.0500   35.7052 H   0  0  0  0  0  0  0  0  0  0  0  0
   34.6424   19.8998   33.2983 H   0  0  0  0  0  0  0  0  0  0  0  0
   40.8008   22.8019   37.1102 H   0  0  0  0  0  0  0  0  0  0  0  0
   39.3842   23.8485   38.9132 H   0  0  0  0  0  0  0  0  0  0  0  0
   36.8609   23.7555   38.6899 H   0  0  0  0  0  0  0  0  0  0  0  0
   38.7152   21.0636   30.7581 H   0  0  0  0  0  0  0  0  0  0  0  0
   36.0020   18.4844   28.7435 H   0  0  0  0  0  0  0  0  0  0  0  0
   35.1443   18.8766   31.1676 H   0  0  0  0  0  0  0  0  0  0  0  0
  1  2  2  0
  1 10  1  0
  3  2  1  0
  4  5  1  0
  4  3  2  0
  5  1  1  0
  6  7  2  0
  8  7  1  0
  9  8  2  0
 10 11  2  0
 10  9  1  0
 11  6  1  0
 12  4  1  0
 13 12  2  0
 14 15  2  0
 14 13  1  0
 15 16  1  0
 16 12  1  0
  2 17  1  0
  3 18  1  0
  6 19  1  0
  7 20  1  0
  8 21  1  0
 13 22  1  0
 15 23  1  0
 16 24  1  0
M  ISO  8  17  14  18  14  19  14  20  14  21  14  22  14  23  14  24   9
M  END
>  <minimizedAffinity>  (1) 
-4.28020287

>  <minimizedRMSD>  (1) 
0.949932635

$$$$
