
     RDKit          3D

 23 25  0  0  0  0  0  0  0  0999 V2000
   37.3260   21.6420   34.9990 C   0  0  0  0  0  0  0  0  0  0  0  0
   36.0240   21.1330   35.1290 C   0  0  0  0  0  0  0  0  0  0  0  0
   35.6830   20.5740   33.8850 C   0  0  0  0  0  0  0  0  0  0  0  0
   36.8080   20.7870   33.0940 C   0  0  0  0  0  0  0  0  0  0  0  0
   37.7240   21.4010   33.7700 O   0  0  0  0  0  0  0  0  0  0  0  0
   39.8490   22.7720   37.3730 C   0  0  0  0  0  0  0  0  0  0  0  0
   39.1010   23.4520   38.3490 C   0  0  0  0  0  0  0  0  0  0  0  0
   37.7050   23.5220   38.1860 C   0  0  0  0  0  0  0  0  0  0  0  0
   37.1460   22.9270   37.0900 N   0  0  0  0  0  0  0  0  0  0  0  0
   37.9080   22.2810   36.1730 C   0  0  0  0  0  0  0  0  0  0  0  0
   39.2440   22.1980   36.3040 N   0  0  0  0  0  0  0  0  0  0  0  0
   36.9050   20.3760   31.7330 N   0  0  0  0  0  0  0  0  0  0  0  0
   37.8990   20.6800   30.8750 C   0  0  0  0  0  0  0  0  0  0  0  0
   37.6570   20.1230   29.6890 N   0  0  0  0  0  0  0  0  0  0  0  0
   36.4950   19.4520   29.7900 C   0  0  0  0  0  0  0  0  0  0  0  0
   36.0630   19.6250   31.0450 N   0  0  0  0  0  0  0  0  0  0  0  0
   35.3931   21.1653   36.0295 H   0  0  0  0  0  0  0  0  0  0  0  0
   34.7416   20.0807   33.6015 H   0  0  0  0  0  0  0  0  0  0  0  0
   40.9419   22.7043   37.4778 H   0  0  0  0  0  0  0  0  0  0  0  0
   39.5929   23.9166   39.2162 H   0  0  0  0  0  0  0  0  0  0  0  0
   37.0780   24.0438   38.9240 H   0  0  0  0  0  0  0  0  0  0  0  0
   38.7779   21.2954   31.1174 H   0  0  0  0  0  0  0  0  0  0  0  0
   35.9977   18.8746   28.9968 H   0  0  0  0  0  0  0  0  0  0  0  0
  1  2  2  0
  1 10  1  0
  3  2  1  0
  4  5  1  0
  4  3  2  0
  5  1  1  0
  6  7  2  0
  8  7  1  0
  9  8  2  0
 10 11  2  0
 10  9  1  0
 11  6  1  0
 12  4  1  0
 13 12  1  0
 14 15  1  0
 14 13  2  0
 15 16  2  0
 16 12  1  0
  2 17  1  0
  3 18  1  0
  6 19  1  0
  7 20  1  0
  8 21  1  0
 13 22  1  0
 15 23  1  0
M  ISO  7  17  14  18  14  19  14  20  14  21  14  22  14  23  14
M  END
>  <minimizedAffinity>  (1) 
-4.27717304

>  <minimizedRMSD>  (1) 
0.734919548

$$$$
