
     RDKit          3D

 24 26  0  0  0  0  0  0  0  0999 V2000
   37.3330   21.5770   34.8320 C   0  0  0  0  0  0  0  0  0  0  0  0
   36.0190   21.1450   34.8860 C   0  0  0  0  0  0  0  0  0  0  0  0
   35.7000   20.5780   33.6570 C   0  0  0  0  0  0  0  0  0  0  0  0
   36.8740   20.7110   32.9260 C   0  0  0  0  0  0  0  0  0  0  0  0
   37.7980   21.2940   33.6400 O   0  0  0  0  0  0  0  0  0  0  0  0
   39.8280   22.7440   37.2360 C   0  0  0  0  0  0  0  0  0  0  0  0
   39.0650   23.3870   38.2100 C   0  0  0  0  0  0  0  0  0  0  0  0
   37.6500   23.4270   38.0480 C   0  0  0  0  0  0  0  0  0  0  0  0
   37.1160   22.8270   36.9380 N   0  0  0  0  0  0  0  0  0  0  0  0
   37.8990   22.2130   36.0150 C   0  0  0  0  0  0  0  0  0  0  0  0
   39.2460   22.1710   36.1620 N   0  0  0  0  0  0  0  0  0  0  0  0
   37.1210   20.2850   31.5530 C   0  0  0  0  0  0  0  0  0  0  0  0
   36.2480   19.5600   30.7700 C   0  0  0  0  0  0  0  0  0  0  0  0
   36.5990   19.2250   29.5020 C   0  0  0  0  0  0  0  0  0  0  0  0
   37.9110   19.6680   29.0490 C   0  0  0  0  0  0  0  0  0  0  0  0
   38.5590   20.5810   30.5790 S   0  0  0  0  0  0  0  0  0  0  0  0
   35.3447   21.2346   35.7504 H   0  0  0  0  0  0  0  0  0  0  0  0
   34.7463   20.1311   33.3395 H   0  0  0  0  0  0  0  0  0  0  0  0
   40.9218   22.7032   37.3450 H   0  0  0  0  0  0  0  0  0  0  0  0
   39.5446   23.8528   39.0835 H   0  0  0  0  0  0  0  0  0  0  0  0
   37.0072   23.9234   38.7899 H   0  0  0  0  0  0  0  0  0  0  0  0
   35.2705   19.2541   31.1712 H   0  0  0  0  0  0  0  0  0  0  0  0
   35.9268   18.6483   28.8496 H   0  0  0  0  0  0  0  0  0  0  0  0
   38.3979   19.5133   28.0748 H   0  0  0  0  0  0  0  0  0  0  0  0
  1  2  2  0
  1 10  1  0
  3  2  1  0
  4  5  1  0
  4  3  2  0
  5  1  1  0
  6  7  2  0
  8  7  1  0
  9  8  2  0
 10 11  2  0
 10  9  1  0
 11  6  1  0
 12  4  1  0
 13 12  2  0
 14 13  1  0
 15 14  2  0
 15 16  1  0
 16 12  1  0
  2 17  1  0
  3 18  1  0
  6 19  1  0
  7 20  1  0
  8 21  1  0
 13 22  1  0
 14 23  1  0
 15 24  1  0
M  ISO  8  17  14  18  14  19  14  20  14  21  14  22  14  23  14  24  14
M  END
>  <minimizedAffinity>  (1) 
-4.26891851

>  <minimizedRMSD>  (1) 
1.00828862

$$$$
