
     RDKit          3D

 18 19  0  0  0  0  0  0  0  0999 V2000
   39.9000   22.6360   37.2060 C   0  0  0  0  0  0  0  0  0  0  0  0
   39.2530   23.2980   38.2600 C   0  0  0  0  0  0  0  0  0  0  0  0
   37.8510   23.4450   38.1960 C   0  0  0  0  0  0  0  0  0  0  0  0
   37.2030   22.9300   37.1040 N   0  0  0  0  0  0  0  0  0  0  0  0
   37.8590   22.3040   36.1160 C   0  0  0  0  0  0  0  0  0  0  0  0
   39.1870   22.1550   36.1570 N   0  0  0  0  0  0  0  0  0  0  0  0
   37.1600   21.7580   34.9540 C   0  0  0  0  0  0  0  0  0  0  0  0
   36.0520   20.9490   35.1810 C   0  0  0  0  0  0  0  0  0  0  0  0
   35.5660   20.5580   33.9280 C   0  0  0  0  0  0  0  0  0  0  0  0
   36.4230   21.1620   33.0150 C   0  0  0  0  0  0  0  0  0  0  0  0
   37.3350   21.8500   33.6460 O   0  0  0  0  0  0  0  0  0  0  0  0
   36.4040   21.0980   31.2210 S   0  0  0  0  0  0  0  0  0  0  0  0
   40.9920   22.5062   37.2303 H   0  0  0  0  0  0  0  0  0  0  0  0
   39.8235   23.6921   39.1139 H   0  0  0  0  0  0  0  0  0  0  0  0
   37.2964   23.9563   38.9966 H   0  0  0  0  0  0  0  0  0  0  0  0
   35.6361   20.6692   36.1602 H   0  0  0  0  0  0  0  0  0  0  0  0
   34.6991   19.9158   33.7134 H   0  0  0  0  0  0  0  0  0  0  0  0
   36.0318   19.8443   30.8127 H   0  0  0  0  0  0  0  0  0  0  0  0
  1  2  2  0
  3  2  1  0
  4  3  2  0
  5  6  2  0
  5  4  1  0
  6  1  1  0
  7  8  2  0
  7  5  1  0
  9  8  1  0
 10 11  1  0
 10  9  2  0
 11  7  1  0
 12 10  1  0
  1 13  1  0
  2 14  1  0
  3 15  1  0
  8 16  1  0
  9 17  1  0
 12 18  1  0
M  ISO  6  13  14  14  14  15  14  16  14  17  14  18  11
M  END
>  <minimizedAffinity>  (1) 
-3.98376656

>  <minimizedRMSD>  (1) 
0.0287403502

$$$$
