
     RDKit          3D

 18 19  0  0  0  0  0  0  0  0999 V2000
   39.9150   22.6350   37.2310 C   0  0  0  0  0  0  0  0  0  0  0  0
   39.2730   23.3080   38.2820 C   0  0  0  0  0  0  0  0  0  0  0  0
   37.8680   23.4620   38.2110 C   0  0  0  0  0  0  0  0  0  0  0  0
   37.2150   22.9480   37.1210 N   0  0  0  0  0  0  0  0  0  0  0  0
   37.8850   22.3100   36.1380 C   0  0  0  0  0  0  0  0  0  0  0  0
   39.2190   22.1450   36.1740 N   0  0  0  0  0  0  0  0  0  0  0  0
   37.1890   21.7600   34.9750 C   0  0  0  0  0  0  0  0  0  0  0  0
   36.0560   20.9640   35.2120 C   0  0  0  0  0  0  0  0  0  0  0  0
   35.5710   20.5620   33.9660 C   0  0  0  0  0  0  0  0  0  0  0  0
   36.4420   21.1400   33.0540 C   0  0  0  0  0  0  0  0  0  0  0  0
   37.3750   21.8330   33.6660 O   0  0  0  0  0  0  0  0  0  0  0  0
   36.4120   21.0550   31.6680 O   0  0  0  0  0  0  0  0  0  0  0  0
   41.0064   22.5017   37.2647 H   0  0  0  0  0  0  0  0  0  0  0  0
   39.8443   23.7036   39.1347 H   0  0  0  0  0  0  0  0  0  0  0  0
   37.3152   23.9799   39.0086 H   0  0  0  0  0  0  0  0  0  0  0  0
   35.6313   20.7062   36.1934 H   0  0  0  0  0  0  0  0  0  0  0  0
   34.6959   19.9298   33.7551 H   0  0  0  0  0  0  0  0  0  0  0  0
   35.7031   20.5292   31.2195 H   0  0  0  0  0  0  0  0  0  0  0  0
  1  2  2  0
  3  2  1  0
  4  3  2  0
  5  6  2  0
  5  4  1  0
  6  1  1  0
  7  8  2  0
  7  5  1  0
  9  8  1  0
 10 11  1  0
 10  9  2  0
 11  7  1  0
 12 10  1  0
  1 13  1  0
  2 14  1  0
  3 15  1  0
  8 16  1  0
  9 17  1  0
 12 18  1  0
M  ISO  6  13  14  14  14  15  14  16  14  17  14  18   3
M  END
>  <minimizedAffinity>  (1) 
-3.93931627

>  <minimizedRMSD>  (1) 
0.0292041302

$$$$
