
     RDKit          3D

 42 45  0  0  1  0  0  0  0  0999 V2000
   36.1880   20.5190   32.2880 N   0  0  0  0  0  0  0  0  0  0  0  0
   35.9660   19.1010   31.9430 C   0  0  0  0  0  0  0  0  0  0  0  0
   36.2980   18.9310   30.5080 C   0  0  0  0  0  0  0  0  0  0  0  0
   37.0170   20.2410   30.2060 C   0  0  0  0  0  0  0  0  0  0  0  0
   36.0750   21.1740   31.0000 C   0  0  2  0  0  0  0  0  0  0  0  0
   36.5690   22.5130   30.9720 N   0  0  0  0  0  0  0  0  0  0  0  0
   35.7400   23.5710   31.0590 C   0  0  0  0  0  0  0  0  0  0  0  0
   36.1980   24.8720   31.0330 C   0  0  0  0  0  0  0  0  0  0  0  0
   35.2640   26.0220   31.1310 C   0  0  0  0  0  0  0  0  0  0  0  0
   37.5640   25.0180   30.9120 C   0  0  0  0  0  0  0  0  0  0  0  0
   37.9920   26.2130   30.8880 O   0  0  0  0  0  0  0  0  0  0  0  0
   38.3890   23.9540   30.8250 N   0  0  0  0  0  0  0  0  0  0  0  0
   37.8980   22.6810   30.8540 C   0  0  0  0  0  0  0  0  0  0  0  0
   38.6880   21.7080   30.7720 O   0  0  0  0  0  0  0  0  0  0  0  0
   37.2070   21.7480   35.4730 C   0  0  0  0  0  0  0  0  0  0  0  0
   36.0330   21.0780   35.7960 C   0  0  0  0  0  0  0  0  0  0  0  0
   35.5130   20.5330   34.6120 C   0  0  0  0  0  0  0  0  0  0  0  0
   36.4390   20.9260   33.6370 C   0  0  0  0  0  0  0  0  0  0  0  0
   37.3890   21.6170   34.1680 O   0  0  0  0  0  0  0  0  0  0  0  0
   39.9950   22.7660   37.5870 C   0  0  0  0  0  0  0  0  0  0  0  0
   39.3990   23.6200   38.5210 C   0  0  0  0  0  0  0  0  0  0  0  0
   38.0220   23.8420   38.4150 C   0  0  0  0  0  0  0  0  0  0  0  0
   37.3160   23.2290   37.4190 N   0  0  0  0  0  0  0  0  0  0  0  0
   37.9430   22.4030   36.5310 C   0  0  0  0  0  0  0  0  0  0  0  0
   39.2450   22.1980   36.6390 N   0  0  0  0  0  0  0  0  0  0  0  0
   36.6156   18.4596   32.5567 H   0  0  0  0  0  0  0  0  0  0  0  0
   34.9208   18.8162   32.1339 H   0  0  0  0  0  0  0  0  0  0  0  0
   36.9567   18.0647   30.3477 H   0  0  0  0  0  0  0  0  0  0  0  0
   35.4262   18.7390   29.8653 H   0  0  0  0  0  0  0  0  0  0  0  0
   38.0456   20.2539   30.5957 H   0  0  0  0  0  0  0  0  0  0  0  0
   37.1626   20.4841   29.1431 H   0  0  0  0  0  0  0  0  0  0  0  0
   35.0407   21.2917   30.6445 H   0  0  0  0  0  0  0  0  0  0  0  0
   34.6590   23.3912   31.1542 H   0  0  0  0  0  0  0  0  0  0  0  0
   35.0765   26.2529   32.1900 H   0  0  0  0  0  0  0  0  0  0  0  0
   35.7089   26.8988   30.6378 H   0  0  0  0  0  0  0  0  0  0  0  0
   34.3146   25.7663   30.6378 H   0  0  0  0  0  0  0  0  0  0  0  0
   39.4040   24.1047   30.7354 H   0  0  0  0  0  0  0  0  0  0  0  0
   35.5909   20.9906   36.7994 H   0  0  0  0  0  0  0  0  0  0  0  0
   34.5966   19.9388   34.4808 H   0  0  0  0  0  0  0  0  0  0  0  0
   41.0752   22.5634   37.6331 H   0  0  0  0  0  0  0  0  0  0  0  0
   39.9932   24.1007   39.3121 H   0  0  0  0  0  0  0  0  0  0  0  0
   37.5113   24.5054   39.1285 H   0  0  0  0  0  0  0  0  0  0  0  0
  1 18  1  0
  2  1  1  0
  3  2  1  0
  4  3  1  0
  4  5  1  0
  5  1  1  0
  6  5  1  0
  6  7  1  0
  8  7  2  0
  8  9  1  0
 10  8  1  0
 11 10  2  0
 12 13  1  0
 12 10  1  0
 13  6  1  0
 14 13  2  0
 15 16  2  0
 15 24  1  0
 17 16  1  0
 18 19  1  0
 18 17  2  0
 19 15  1  0
 20 21  2  0
 22 21  1  0
 23 22  2  0
 24 25  2  0
 24 23  1  0
 25 20  1  0
  2 26  1  0
  2 27  1  0
  3 28  1  0
  3 29  1  0
  4 30  1  0
  4 31  1  0
  5 32  1  6
  7 33  1  0
  9 34  1  0
  9 35  1  0
  9 36  1  0
 12 37  1  0
 16 38  1  0
 17 39  1  0
 20 40  1  0
 21 41  1  0
 22 42  1  0
M  ISO  8  26  13  27  13  28  13  29  13  30  13  31  13  32  13  33  14
M  ISO  8  34   8  35   8  36   8  37   9  38  14  39  14  40  14  41  14
M  ISO  1  42  14
M  END
>  <minimizedAffinity>  (1) 
-5.95766401

>  <minimizedRMSD>  (1) 
0.883829057

$$$$
