
     RDKit          3D

 40 43  0  0  1  0  0  0  0  0999 V2000
   36.2260   20.7410   32.2910 N   0  0  0  0  0  0  0  0  0  0  0  0
   35.9720   19.3410   31.8700 C   0  0  0  0  0  0  0  0  0  0  0  0
   36.3620   19.2110   30.4440 C   0  0  0  0  0  0  0  0  0  0  0  0
   37.0520   20.5610   30.1800 C   0  0  0  0  0  0  0  0  0  0  0  0
   36.1260   21.4290   31.0250 C   0  0  2  0  0  0  0  0  0  0  0  0
   36.4140   22.8060   31.0300 N   0  0  0  0  0  0  0  0  0  0  0  0
   35.4030   23.7040   31.1270 C   0  0  0  0  0  0  0  0  0  0  0  0
   35.6250   25.0840   31.1380 C   0  0  0  0  0  0  0  0  0  0  0  0
   36.9470   25.5100   31.0420 C   0  0  0  0  0  0  0  0  0  0  0  0
   37.0650   26.9300   31.0610 N   0  0  0  0  0  0  0  0  0  0  0  0
   37.9420   24.6180   30.9460 N   0  0  0  0  0  0  0  0  0  0  0  0
   37.6510   23.2890   30.9420 C   0  0  0  0  0  0  0  0  0  0  0  0
   38.6460   22.5510   30.8490 O   0  0  0  0  0  0  0  0  0  0  0  0
   37.2500   21.8450   35.5050 C   0  0  0  0  0  0  0  0  0  0  0  0
   36.1110   21.0880   35.8190 C   0  0  0  0  0  0  0  0  0  0  0  0
   35.5970   20.5840   34.6200 C   0  0  0  0  0  0  0  0  0  0  0  0
   36.4780   21.0810   33.6480 C   0  0  0  0  0  0  0  0  0  0  0  0
   37.4140   21.8000   34.1980 O   0  0  0  0  0  0  0  0  0  0  0  0
   39.9930   22.7770   37.7180 C   0  0  0  0  0  0  0  0  0  0  0  0
   39.3910   23.6240   38.6390 C   0  0  0  0  0  0  0  0  0  0  0  0
   38.0200   23.8830   38.5000 C   0  0  0  0  0  0  0  0  0  0  0  0
   37.3340   23.2980   37.4770 N   0  0  0  0  0  0  0  0  0  0  0  0
   37.9660   22.4770   36.6030 C   0  0  0  0  0  0  0  0  0  0  0  0
   39.2640   22.2290   36.7280 N   0  0  0  0  0  0  0  0  0  0  0  0
   36.5704   18.6523   32.4846 H   0  0  0  0  0  0  0  0  0  0  0  0
   34.9085   19.0910   31.9988 H   0  0  0  0  0  0  0  0  0  0  0  0
   37.0559   18.3708   30.2939 H   0  0  0  0  0  0  0  0  0  0  0  0
   35.5184   19.0033   29.7694 H   0  0  0  0  0  0  0  0  0  0  0  0
   38.0898   20.5787   30.5442 H   0  0  0  0  0  0  0  0  0  0  0  0
   37.1640   20.8523   29.1252 H   0  0  0  0  0  0  0  0  0  0  0  0
   35.0969   21.5070   30.6444 H   0  0  0  0  0  0  0  0  0  0  0  0
   34.3700   23.3330   31.1997 H   0  0  0  0  0  0  0  0  0  0  0  0
   34.7939   25.8001   31.2187 H   0  0  0  0  0  0  0  0  0  0  0  0
   37.9938   27.3705   30.9964 H   0  0  0  0  0  0  0  0  0  0  0  0
   36.2215   27.5159   31.1394 H   0  0  0  0  0  0  0  0  0  0  0  0
   35.6978   20.9214   36.8247 H   0  0  0  0  0  0  0  0  0  0  0  0
   34.7113   19.9482   34.4737 H   0  0  0  0  0  0  0  0  0  0  0  0
   41.0671   22.5535   37.7975 H   0  0  0  0  0  0  0  0  0  0  0  0
   39.9729   24.0787   39.4542 H   0  0  0  0  0  0  0  0  0  0  0  0
   37.5045   24.5495   39.2071 H   0  0  0  0  0  0  0  0  0  0  0  0
  1 17  1  0
  2  1  1  0
  3  2  1  0
  4  3  1  0
  4  5  1  0
  5  6  1  0
  5  1  1  0
  6  7  1  0
  7  8  2  0
  9 10  1  0
  9  8  1  0
 11  9  2  0
 12 11  1  0
 12  6  1  0
 13 12  2  0
 14 15  2  0
 14 23  1  0
 16 15  1  0
 17 18  1  0
 17 16  2  0
 18 14  1  0
 19 20  2  0
 21 20  1  0
 22 21  2  0
 23 24  2  0
 23 22  1  0
 24 19  1  0
  2 25  1  0
  2 26  1  0
  3 27  1  0
  3 28  1  0
  4 29  1  0
  4 30  1  0
  5 31  1  6
  7 32  1  0
  8 33  1  0
 10 34  1  0
 10 35  1  0
 15 36  1  0
 16 37  1  0
 19 38  1  0
 20 39  1  0
 21 40  1  0
M  ISO  8  25  13  26  13  27  13  28  13  29  13  30  13  31  13  32  14
M  ISO  6  33  14  36  14  37  14  38  14  39  14  40  14
M  END
>  <minimizedAffinity>  (1) 
-5.79412842

>  <minimizedRMSD>  (1) 
0.907954216

$$$$
