
     RDKit          3D

 36 39  0  0  1  0  0  0  0  0999 V2000
   36.1090   20.5240   32.2810 N   0  0  0  0  0  0  0  0  0  0  0  0
   36.0530   19.1140   31.8930 C   0  0  0  0  0  0  0  0  0  0  0  0
   36.4280   19.0290   30.4420 C   0  0  0  0  0  0  0  0  0  0  0  0
   36.8340   20.4740   30.1320 C   0  0  0  0  0  0  0  0  0  0  0  0
   35.8240   21.1990   31.0160 C   0  0  2  0  0  0  0  0  0  0  0  0
   37.1930   21.7530   35.4420 C   0  0  0  0  0  0  0  0  0  0  0  0
   36.0310   21.0810   35.7930 C   0  0  0  0  0  0  0  0  0  0  0  0
   35.4940   20.5370   34.6130 C   0  0  0  0  0  0  0  0  0  0  0  0
   36.3890   20.9320   33.6260 C   0  0  0  0  0  0  0  0  0  0  0  0
   37.3570   21.6330   34.1380 O   0  0  0  0  0  0  0  0  0  0  0  0
   40.0060   22.7600   37.5250 C   0  0  0  0  0  0  0  0  0  0  0  0
   39.4450   23.5940   38.4770 C   0  0  0  0  0  0  0  0  0  0  0  0
   38.0490   23.8180   38.3980 C   0  0  0  0  0  0  0  0  0  0  0  0
   37.3360   23.2160   37.4120 N   0  0  0  0  0  0  0  0  0  0  0  0
   37.9380   22.4070   36.5050 C   0  0  0  0  0  0  0  0  0  0  0  0
   39.2600   22.1800   36.5600 N   0  0  0  0  0  0  0  0  0  0  0  0
   36.1220   22.6540   31.0860 C   0  0  0  0  0  0  0  0  0  0  0  0
   35.4230   23.8020   31.4250 C   0  0  0  0  0  0  0  0  0  0  0  0
   36.3370   24.8490   31.2650 C   0  0  0  0  0  0  0  0  0  0  0  0
   37.5310   24.2560   30.8370 C   0  0  0  0  0  0  0  0  0  0  0  0
   37.3500   22.9760   30.7510 O   0  0  0  0  0  0  0  0  0  0  0  0
   36.7613   18.5296   32.4986 H   0  0  0  0  0  0  0  0  0  0  0  0
   35.0440   18.7074   32.0564 H   0  0  0  0  0  0  0  0  0  0  0  0
   37.2678   18.3358   30.2863 H   0  0  0  0  0  0  0  0  0  0  0  0
   35.6225   18.6469   29.7976 H   0  0  0  0  0  0  0  0  0  0  0  0
   37.8711   20.6847   30.4320 H   0  0  0  0  0  0  0  0  0  0  0  0
   36.8180   20.7526   29.0680 H   0  0  0  0  0  0  0  0  0  0  0  0
   34.7755   21.1578   30.6859 H   0  0  0  0  0  0  0  0  0  0  0  0
   35.6090   20.9908   36.8048 H   0  0  0  0  0  0  0  0  0  0  0  0
   34.5785   19.9381   34.4978 H   0  0  0  0  0  0  0  0  0  0  0  0
   41.0881   22.5645   37.5553 H   0  0  0  0  0  0  0  0  0  0  0  0
   40.0575   24.0627   39.2613 H   0  0  0  0  0  0  0  0  0  0  0  0
   37.5482   24.4721   39.1270 H   0  0  0  0  0  0  0  0  0  0  0  0
   34.3746   23.8743   31.7501 H   0  0  0  0  0  0  0  0  0  0  0  0
   36.1548   25.9196   31.4398 H   0  0  0  0  0  0  0  0  0  0  0  0
   38.4668   24.7882   30.6114 H   0  0  0  0  0  0  0  0  0  0  0  0
  1  9  1  0
  2  1  1  0
  3  2  1  0
  4  3  1  0
  4  5  1  0
  5 17  1  0
  5  1  1  0
  6  7  2  0
  6 15  1  0
  8  7  1  0
  9 10  1  0
  9  8  2  0
 10  6  1  0
 11 12  2  0
 13 12  1  0
 14 13  2  0
 15 16  2  0
 15 14  1  0
 16 11  1  0
 17 18  2  0
 19 18  1  0
 20 19  2  0
 21 20  1  0
 21 17  1  0
  2 22  1  0
  2 23  1  0
  3 24  1  0
  3 25  1  0
  4 26  1  0
  4 27  1  0
  5 28  1  6
  7 29  1  0
  8 30  1  0
 11 31  1  0
 12 32  1  0
 13 33  1  0
 18 34  1  0
 19 35  1  0
 20 36  1  0
M  ISO  8  22  13  23  13  24  13  25  13  26  13  27  13  28  13  29  14
M  ISO  7  30  14  31  14  32  14  33  14  34  14  35  14  36  14
M  END
>  <minimizedAffinity>  (1) 
-5.38832664

>  <minimizedRMSD>  (1) 
0.990735829

$$$$
