
     RDKit          3D

 41 44  0  0  1  0  0  0  0  0999 V2000
   36.6730   20.7150   31.8740 N   0  0  0  0  0  0  0  0  0  0  0  0
   35.8380   19.5880   31.4150 C   0  0  0  0  0  0  0  0  0  0  0  0
   36.3960   19.1100   30.1180 C   0  0  0  0  0  0  0  0  0  0  0  0
   37.7060   19.8850   30.0430 C   0  0  0  0  0  0  0  0  0  0  0  0
   37.2290   21.2210   30.6280 C   0  0  2  0  0  0  0  0  0  0  0  0
   37.3390   21.7840   35.1990 C   0  0  0  0  0  0  0  0  0  0  0  0
   36.1320   21.1290   35.3700 C   0  0  0  0  0  0  0  0  0  0  0  0
   35.7420   20.6460   34.1120 C   0  0  0  0  0  0  0  0  0  0  0  0
   36.7690   21.0550   33.2490 C   0  0  0  0  0  0  0  0  0  0  0  0
   37.6540   21.7010   33.9260 O   0  0  0  0  0  0  0  0  0  0  0  0
   39.9230   22.7560   37.5890 C   0  0  0  0  0  0  0  0  0  0  0  0
   39.2200   23.4940   38.5390 C   0  0  0  0  0  0  0  0  0  0  0  0
   37.8250   23.6640   38.3570 C   0  0  0  0  0  0  0  0  0  0  0  0
   37.2290   23.1000   37.2640 N   0  0  0  0  0  0  0  0  0  0  0  0
   37.9710   22.3870   36.3660 C   0  0  0  0  0  0  0  0  0  0  0  0
   39.2730   22.2340   36.5450 N   0  0  0  0  0  0  0  0  0  0  0  0
   38.3130   22.0790   30.9860 N   0  0  0  0  0  0  0  0  0  0  0  0
   38.0260   23.4610   30.7320 C   0  0  0  0  0  0  0  0  0  0  0  0
   38.8120   23.8610   29.5080 C   0  0  0  0  0  0  0  0  0  0  0  0
   39.7550   22.7360   29.2160 C   0  0  0  0  0  0  0  0  0  0  0  0
   39.5560   21.7640   30.3300 C   0  0  0  0  0  0  0  0  0  0  0  0
   35.8644   18.7758   32.1564 H   0  0  0  0  0  0  0  0  0  0  0  0
   34.7930   19.9082   31.2905 H   0  0  0  0  0  0  0  0  0  0  0  0
   36.5723   18.0243   30.1328 H   0  0  0  0  0  0  0  0  0  0  0  0
   35.7302   19.2727   29.2576 H   0  0  0  0  0  0  0  0  0  0  0  0
   38.4937   19.4238   30.6569 H   0  0  0  0  0  0  0  0  0  0  0  0
   38.1648   19.9427   29.0449 H   0  0  0  0  0  0  0  0  0  0  0  0
   36.5852   21.7990   29.9488 H   0  0  0  0  0  0  0  0  0  0  0  0
   35.5817   21.0095   36.3149 H   0  0  0  0  0  0  0  0  0  0  0  0
   34.8359   20.0757   33.8596 H   0  0  0  0  0  0  0  0  0  0  0  0
   41.0070   22.6040   37.6979 H   0  0  0  0  0  0  0  0  0  0  0  0
   39.7340   23.9328   39.4069 H   0  0  0  0  0  0  0  0  0  0  0  0
   37.2321   24.2399   39.0828 H   0  0  0  0  0  0  0  0  0  0  0  0
   36.9496   23.5952   30.5494 H   0  0  0  0  0  0  0  0  0  0  0  0
   38.3038   24.0831   31.5956 H   0  0  0  0  0  0  0  0  0  0  0  0
   38.1337   24.0179   28.6564 H   0  0  0  0  0  0  0  0  0  0  0  0
   39.3577   24.8009   29.6778 H   0  0  0  0  0  0  0  0  0  0  0  0
   39.5132   22.2703   28.2492 H   0  0  0  0  0  0  0  0  0  0  0  0
   40.7980   23.0789   29.1492 H   0  0  0  0  0  0  0  0  0  0  0  0
   39.5162   20.7407   29.9285 H   0  0  0  0  0  0  0  0  0  0  0  0
   40.3898   21.8294   31.0445 H   0  0  0  0  0  0  0  0  0  0  0  0
  1  9  1  0
  2  1  1  0
  3  2  1  0
  4  3  1  0
  4  5  1  0
  5 17  1  0
  5  1  1  0
  6  7  2  0
  6 15  1  0
  8  7  1  0
  9 10  1  0
  9  8  2  0
 10  6  1  0
 11 12  2  0
 13 12  1  0
 14 13  2  0
 15 16  2  0
 15 14  1  0
 16 11  1  0
 17 18  1  0
 19 18  1  0
 20 19  1  0
 20 21  1  0
 21 17  1  0
  2 22  1  0
  2 23  1  0
  3 24  1  0
  3 25  1  0
  4 26  1  0
  4 27  1  0
  5 28  1  6
  7 29  1  0
  8 30  1  0
 11 31  1  0
 12 32  1  0
 13 33  1  0
 18 34  1  0
 18 35  1  0
 19 36  1  0
 19 37  1  0
 20 38  1  0
 20 39  1  0
 21 40  1  0
 21 41  1  0
M  ISO  8  22  13  23  13  24  13  25  13  26  13  27  13  28  13  29  14
M  ISO  8  30  14  31  14  32  14  33  14  34  13  35  13  36  13  37  13
M  ISO  4  38  13  39  13  40  13  41  13
M  END
>  <minimizedAffinity>  (1) 
-4.91169214

>  <minimizedRMSD>  (1) 
0.964763582

$$$$
