
     RDKit          3D

 41 43  0  0  1  0  0  0  0  0999 V2000
   37.3460   21.7750   35.1600 C   0  0  0  0  0  0  0  0  0  0  0  0
   36.1230   21.1520   35.3030 C   0  0  0  0  0  0  0  0  0  0  0  0
   35.7510   20.6680   34.0360 C   0  0  0  0  0  0  0  0  0  0  0  0
   36.8130   21.0480   33.1950 C   0  0  0  0  0  0  0  0  0  0  0  0
   37.7100   21.6830   33.8850 O   0  0  0  0  0  0  0  0  0  0  0  0
   36.7200   20.6890   31.8210 N   0  0  0  0  0  0  0  0  0  0  0  0
   35.8690   19.5900   31.3580 C   0  0  0  0  0  0  0  0  0  0  0  0
   36.4410   19.0850   30.0810 C   0  0  0  0  0  0  0  0  0  0  0  0
   37.7760   19.8140   30.0210 C   0  0  0  0  0  0  0  0  0  0  0  0
   37.3080   21.1690   30.5750 C   0  0  2  0  0  0  0  0  0  0  0  0
   38.5260   22.0110   30.7670 C   0  0  0  0  0  0  0  0  0  0  0  0
   39.4930   21.4940   31.7830 C   0  0  0  0  0  0  0  0  0  0  0  0
   39.1840   22.3820   29.4540 C   0  0  0  0  0  0  0  0  0  0  0  0
   38.0110   23.3460   31.3110 C   0  0  0  0  0  0  0  0  0  0  0  0
   39.9310   22.7420   37.5530 C   0  0  0  0  0  0  0  0  0  0  0  0
   39.2100   23.4700   38.5140 C   0  0  0  0  0  0  0  0  0  0  0  0
   37.8140   23.6260   38.3310 C   0  0  0  0  0  0  0  0  0  0  0  0
   37.2290   23.0660   37.2340 N   0  0  0  0  0  0  0  0  0  0  0  0
   37.9670   22.3680   36.3250 C   0  0  0  0  0  0  0  0  0  0  0  0
   39.2690   22.2320   36.5130 N   0  0  0  0  0  0  0  0  0  0  0  0
   35.5464   21.0525   36.2345 H   0  0  0  0  0  0  0  0  0  0  0  0
   34.8380   20.1178   33.7645 H   0  0  0  0  0  0  0  0  0  0  0  0
   35.8556   18.7848   32.1073 H   0  0  0  0  0  0  0  0  0  0  0  0
   34.8364   19.9381   31.2077 H   0  0  0  0  0  0  0  0  0  0  0  0
   36.5822   17.9945   30.1101 H   0  0  0  0  0  0  0  0  0  0  0  0
   35.7986   19.2640   29.2062 H   0  0  0  0  0  0  0  0  0  0  0  0
   38.5366   19.3429   30.6610 H   0  0  0  0  0  0  0  0  0  0  0  0
   38.2672   19.8395   29.0371 H   0  0  0  0  0  0  0  0  0  0  0  0
   36.6212   21.7883   29.9793 H   0  0  0  0  0  0  0  0  0  0  0  0
   39.1086   21.6995   32.7929 H   0  0  0  0  0  0  0  0  0  0  0  0
   39.6175   20.4090   31.6518 H   0  0  0  0  0  0  0  0  0  0  0  0
   40.4645   21.9931   31.6518 H   0  0  0  0  0  0  0  0  0  0  0  0
   40.1263   22.9133   29.6534 H   0  0  0  0  0  0  0  0  0  0  0  0
   39.3929   21.4687   28.8776 H   0  0  0  0  0  0  0  0  0  0  0  0
   38.5106   23.0334   28.8776 H   0  0  0  0  0  0  0  0  0  0  0  0
   38.0203   23.3219   32.4107 H   0  0  0  0  0  0  0  0  0  0  0  0
   38.6593   24.1609   30.9566 H   0  0  0  0  0  0  0  0  0  0  0  0
   36.9834   23.5144   30.9566 H   0  0  0  0  0  0  0  0  0  0  0  0
   41.0164   22.5958   37.6556 H   0  0  0  0  0  0  0  0  0  0  0  0
   39.7167   23.9079   39.3866 H   0  0  0  0  0  0  0  0  0  0  0  0
   37.2129   24.1886   39.0605 H   0  0  0  0  0  0  0  0  0  0  0  0
  1  2  2  0
  1 19  1  0
  3  2  1  0
  4  5  1  0
  4  3  2  0
  5  1  1  0
  6  4  1  0
  7  6  1  0
  8  7  1  0
  9  8  1  0
  9 10  1  0
 10 11  1  0
 10  6  1  0
 11 14  1  0
 11 12  1  0
 13 11  1  0
 15 16  2  0
 17 16  1  0
 18 17  2  0
 19 20  2  0
 19 18  1  0
 20 15  1  0
  2 21  1  0
  3 22  1  0
  7 23  1  0
  7 24  1  0
  8 25  1  0
  8 26  1  0
  9 27  1  0
  9 28  1  0
 10 29  1  6
 12 30  1  0
 12 31  1  0
 12 32  1  0
 13 33  1  0
 13 34  1  0
 13 35  1  0
 14 36  1  0
 14 37  1  0
 14 38  1  0
 15 39  1  0
 16 40  1  0
 17 41  1  0
M  ISO  8  21  14  22  14  23  13  24  13  25  13  26  13  27  13  28  13
M  ISO  8  29  13  30   8  31   8  32   8  33   8  34   8  35   8  36   8
M  ISO  5  37   8  38   8  39  14  40  14  41  14
M  END
>  <minimizedAffinity>  (1) 
-4.71759558

>  <minimizedRMSD>  (1) 
0.712064862

$$$$
