
     RDKit          3D

 36 39  0  0  1  0  0  0  0  0999 V2000
   37.8460   21.8540   33.9950 N   0  0  0  0  0  0  0  0  0  0  0  0
   36.5510   21.5130   34.5890 C   0  0  0  0  0  0  0  0  0  0  0  0
   35.8000   20.6980   33.5840 C   0  0  0  0  0  0  0  0  0  0  0  0
   36.8420   20.4900   32.4920 C   0  0  0  0  0  0  0  0  0  0  0  0
   37.5660   21.8230   32.5550 C   0  0  1  0  0  0  0  0  0  0  0  0
   40.9770   22.4930   35.5600 C   0  0  0  0  0  0  0  0  0  0  0  0
   40.1140   22.5340   36.6420 C   0  0  0  0  0  0  0  0  0  0  0  0
   38.8180   22.2950   36.1690 C   0  0  0  0  0  0  0  0  0  0  0  0
   38.9940   22.1210   34.7990 C   0  0  0  0  0  0  0  0  0  0  0  0
   40.2560   22.2430   34.4840 O   0  0  0  0  0  0  0  0  0  0  0  0
   44.5850   21.9340   35.5900 C   0  0  0  0  0  0  0  0  0  0  0  0
   45.0850   23.0530   36.2320 C   0  0  0  0  0  0  0  0  0  0  0  0
   44.1700   24.0200   36.6640 C   0  0  0  0  0  0  0  0  0  0  0  0
   42.8280   23.8420   36.4480 N   0  0  0  0  0  0  0  0  0  0  0  0
   42.3940   22.7160   35.8080 C   0  0  0  0  0  0  0  0  0  0  0  0
   43.2590   21.7880   35.3920 N   0  0  0  0  0  0  0  0  0  0  0  0
   36.8180   22.9340   32.0870 C   0  0  0  0  0  0  0  0  0  0  0  0
   35.6990   23.1120   31.3280 C   0  0  0  0  0  0  0  0  0  0  0  0
   35.2170   24.3630   31.0500 C   0  0  0  0  0  0  0  0  0  0  0  0
   35.9450   25.4670   31.5940 C   0  0  0  0  0  0  0  0  0  0  0  0
   37.3360   24.5750   32.5100 S   0  0  0  0  0  0  0  0  0  0  0  0
   36.7012   20.9300   35.5096 H   0  0  0  0  0  0  0  0  0  0  0  0
   35.9905   22.4231   34.8488 H   0  0  0  0  0  0  0  0  0  0  0  0
   35.4745   19.7385   34.0122 H   0  0  0  0  0  0  0  0  0  0  0  0
   34.8774   21.1791   33.2271 H   0  0  0  0  0  0  0  0  0  0  0  0
   36.3754   20.3257   31.5095 H   0  0  0  0  0  0  0  0  0  0  0  0
   37.4852   19.6083   32.6296 H   0  0  0  0  0  0  0  0  0  0  0  0
   38.4436   21.9026   31.8967 H   0  0  0  0  0  0  0  0  0  0  0  0
   40.3967   22.7213   37.6884 H   0  0  0  0  0  0  0  0  0  0  0  0
   37.8814   22.2543   36.7444 H   0  0  0  0  0  0  0  0  0  0  0  0
   45.2767   21.1548   35.2372 H   0  0  0  0  0  0  0  0  0  0  0  0
   46.1652   23.1784   36.3973 H   0  0  0  0  0  0  0  0  0  0  0  0
   44.5283   24.9243   37.1777 H   0  0  0  0  0  0  0  0  0  0  0  0
   35.1725   22.2317   30.9307 H   0  0  0  0  0  0  0  0  0  0  0  0
   34.3147   24.5114   30.4386 H   0  0  0  0  0  0  0  0  0  0  0  0
   35.7481   26.5454   31.5035 H   0  0  0  0  0  0  0  0  0  0  0  0
  1  2  1  0
  1  9  1  0
  3  2  1  0
  4  5  1  0
  4  3  1  0
  5  1  1  0
  6 15  1  0
  6  7  2  0
  8  7  1  0
  9  8  2  0
 10  9  1  0
 10  6  1  0
 11 12  2  0
 12 13  1  0
 14 13  2  0
 15 14  1  0
 16 11  1  0
 16 15  2  0
 17 21  1  0
 17  5  1  0
 18 17  2  0
 19 18  1  0
 19 20  2  0
 20 21  1  0
  2 22  1  0
  2 23  1  0
  3 24  1  0
  3 25  1  0
  4 26  1  0
  4 27  1  0
  5 28  1  6
  7 29  1  0
  8 30  1  0
 11 31  1  0
 12 32  1  0
 13 33  1  0
 18 34  1  0
 19 35  1  0
 20 36  1  0
M  ISO  8  22  13  23  13  24  13  25  13  26  13  27  13  28  13  29  14
M  ISO  7  30  14  31  14  32  14  33  14  34  14  35  14  36  14
M  END
>  <minimizedAffinity>  (1) 
-4.48102665

>  <minimizedRMSD>  (1) 
4.10767508

$$$$
