
     RDKit          3D

 44 47  0  0  1  0  0  0  0  0999 V2000
   37.2360   20.6360   31.7850 N   0  0  0  0  0  0  0  0  0  0  0  0
   36.0300   20.3940   30.9940 C   0  0  0  0  0  0  0  0  0  0  0  0
   36.3870   19.4510   29.8850 C   0  0  0  0  0  0  0  0  0  0  0  0
   37.7880   19.0250   30.3020 C   0  0  0  0  0  0  0  0  0  0  0  0
   38.3030   20.3500   30.8120 C   0  0  1  0  0  0  0  0  0  0  0  0
   37.5640   21.8330   35.1140 C   0  0  0  0  0  0  0  0  0  0  0  0
   36.2680   21.3010   35.1340 C   0  0  0  0  0  0  0  0  0  0  0  0
   36.0050   20.7850   33.8570 C   0  0  0  0  0  0  0  0  0  0  0  0
   37.1700   21.0420   33.1450 C   0  0  0  0  0  0  0  0  0  0  0  0
   38.0450   21.6470   33.9040 O   0  0  0  0  0  0  0  0  0  0  0  0
   39.9060   22.8050   37.7390 C   0  0  0  0  0  0  0  0  0  0  0  0
   39.1010   23.5310   38.6330 C   0  0  0  0  0  0  0  0  0  0  0  0
   37.7310   23.6810   38.3150 C   0  0  0  0  0  0  0  0  0  0  0  0
   37.2420   23.1290   37.1760 N   0  0  0  0  0  0  0  0  0  0  0  0
   38.0670   22.4330   36.3390 C   0  0  0  0  0  0  0  0  0  0  0  0
   39.3710   22.2790   36.6230 N   0  0  0  0  0  0  0  0  0  0  0  0
   38.4560   21.3820   29.8620 N   0  0  0  0  0  0  0  0  0  0  0  0
   38.5660   22.7010   30.4560 C   0  0  0  0  0  0  0  0  0  0  0  0
   39.8180   23.4200   29.9530 C   0  0  0  0  0  0  0  0  0  0  0  0
   40.9620   22.4580   30.2030 C   0  0  0  0  0  0  0  0  0  0  0  0
   40.8060   21.3600   29.1520 C   0  0  0  0  0  0  0  0  0  0  0  0
   39.3520   21.1730   28.7890 C   0  0  0  0  0  0  0  0  0  0  0  0
   35.2506   19.9467   31.6284 H   0  0  0  0  0  0  0  0  0  0  0  0
   35.6452   21.3393   30.5837 H   0  0  0  0  0  0  0  0  0  0  0  0
   36.3934   19.9593   28.9095 H   0  0  0  0  0  0  0  0  0  0  0  0
   35.6808   18.6178   29.7546 H   0  0  0  0  0  0  0  0  0  0  0  0
   37.7673   18.2600   31.0922 H   0  0  0  0  0  0  0  0  0  0  0  0
   38.3929   18.5580   29.5108 H   0  0  0  0  0  0  0  0  0  0  0  0
   39.3350   20.2979   31.1893 H   0  0  0  0  0  0  0  0  0  0  0  0
   35.5823   21.2901   35.9941 H   0  0  0  0  0  0  0  0  0  0  0  0
   35.0887   20.2912   33.5014 H   0  0  0  0  0  0  0  0  0  0  0  0
   40.9762   22.6666   37.9525 H   0  0  0  0  0  0  0  0  0  0  0  0
   39.5225   23.9684   39.5501 H   0  0  0  0  0  0  0  0  0  0  0  0
   37.0655   24.2422   38.9875 H   0  0  0  0  0  0  0  0  0  0  0  0
   37.6782   23.2925   30.1879 H   0  0  0  0  0  0  0  0  0  0  0  0
   38.6372   22.5911   31.5482 H   0  0  0  0  0  0  0  0  0  0  0  0
   39.9738   24.3562   30.5091 H   0  0  0  0  0  0  0  0  0  0  0  0
   39.7354   23.6901   28.8899 H   0  0  0  0  0  0  0  0  0  0  0  0
   41.9283   22.9700   30.0842 H   0  0  0  0  0  0  0  0  0  0  0  0
   40.9391   22.0521   31.2251 H   0  0  0  0  0  0  0  0  0  0  0  0
   41.3704   21.6401   28.2503 H   0  0  0  0  0  0  0  0  0  0  0  0
   41.1920   20.4166   29.5654 H   0  0  0  0  0  0  0  0  0  0  0  0
   39.1023   21.8838   27.9875 H   0  0  0  0  0  0  0  0  0  0  0  0
   39.2356   20.1239   28.4794 H   0  0  0  0  0  0  0  0  0  0  0  0
  1  9  1  0
  2  1  1  0
  3  4  1  0
  3  2  1  0
  4  5  1  0
  5  1  1  0
  6  7  2  0
  6 15  1  0
  8  7  1  0
  9  8  2  0
  9 10  1  0
 10  6  1  0
 11 12  2  0
 13 12  1  0
 14 13  2  0
 15 16  2  0
 15 14  1  0
 16 11  1  0
 17 18  1  0
 17  5  1  0
 19 20  1  0
 19 18  1  0
 21 20  1  0
 22 21  1  0
 22 17  1  0
  2 23  1  0
  2 24  1  0
  3 25  1  0
  3 26  1  0
  4 27  1  0
  4 28  1  0
  5 29  1  1
  7 30  1  0
  8 31  1  0
 11 32  1  0
 12 33  1  0
 13 34  1  0
 18 35  1  0
 18 36  1  0
 19 37  1  0
 19 38  1  0
 20 39  1  0
 20 40  1  0
 21 41  1  0
 21 42  1  0
 22 43  1  0
 22 44  1  0
M  ISO  8  23  13  24  13  25  13  26  13  27  13  28  13  29  13  30  14
M  ISO  8  31  14  32  14  33  14  34  14  35  13  36  13  37  13  38  13
M  ISO  6  39  13  40  13  41  13  42  13  43  13  44  13
M  END
>  <minimizedAffinity>  (1) 
-4.46573162

>  <minimizedRMSD>  (1) 
3.25237536

$$$$
