
     RDKit          3D

 38 41  0  0  1  0  0  0  0  0999 V2000
   37.8670   22.0480   33.7070 N   0  0  0  0  0  0  0  0  0  0  0  0
   36.5310   21.6890   34.2130 C   0  0  0  0  0  0  0  0  0  0  0  0
   35.8050   21.0190   33.1020 C   0  0  0  0  0  0  0  0  0  0  0  0
   36.8890   20.8490   32.0590 C   0  0  0  0  0  0  0  0  0  0  0  0
   37.6410   22.1640   32.2590 C   0  0  1  0  0  0  0  0  0  0  0  0
   40.9300   22.4920   35.4550 C   0  0  0  0  0  0  0  0  0  0  0  0
   40.0430   22.3050   36.4940 C   0  0  0  0  0  0  0  0  0  0  0  0
   38.7730   22.1150   35.9390 C   0  0  0  0  0  0  0  0  0  0  0  0
   38.9990   22.2050   34.5580 C   0  0  0  0  0  0  0  0  0  0  0  0
   40.2500   22.4220   34.3210 O   0  0  0  0  0  0  0  0  0  0  0  0
   44.5310   21.9140   35.7090 C   0  0  0  0  0  0  0  0  0  0  0  0
   44.9970   23.0670   36.3210 C   0  0  0  0  0  0  0  0  0  0  0  0
   44.0630   24.0710   36.6590 C   0  0  0  0  0  0  0  0  0  0  0  0
   42.7460   23.8680   36.3690 N   0  0  0  0  0  0  0  0  0  0  0  0
   42.3410   22.7160   35.7660 C   0  0  0  0  0  0  0  0  0  0  0  0
   43.2200   21.7770   35.4520 N   0  0  0  0  0  0  0  0  0  0  0  0
   36.8410   23.3480   31.9310 C   0  0  0  0  0  0  0  0  0  0  0  0
   35.7220   23.4220   31.1320 C   0  0  0  0  0  0  0  0  0  0  0  0
   35.0640   24.6150   30.9080 C   0  0  0  0  0  0  0  0  0  0  0  0
   35.5350   25.7580   31.4950 C   0  0  0  0  0  0  0  0  0  0  0  0
   36.6590   25.6960   32.2990 C   0  0  0  0  0  0  0  0  0  0  0  0
   37.2700   24.5130   32.4900 N   0  0  0  0  0  0  0  0  0  0  0  0
   36.6237   21.0047   35.0693 H   0  0  0  0  0  0  0  0  0  0  0  0
   35.9879   22.5841   34.5503 H   0  0  0  0  0  0  0  0  0  0  0  0
   35.4027   20.0458   33.4197 H   0  0  0  0  0  0  0  0  0  0  0  0
   34.9342   21.5863   32.7416 H   0  0  0  0  0  0  0  0  0  0  0  0
   36.4725   20.7649   31.0444 H   0  0  0  0  0  0  0  0  0  0  0  0
   37.4999   19.9402   32.1629 H   0  0  0  0  0  0  0  0  0  0  0  0
   38.5301   22.2967   31.6251 H   0  0  0  0  0  0  0  0  0  0  0  0
   40.2896   22.3052   37.5660 H   0  0  0  0  0  0  0  0  0  0  0  0
   37.8219   21.9371   36.4622 H   0  0  0  0  0  0  0  0  0  0  0  0
   45.2333   21.1131   35.4345 H   0  0  0  0  0  0  0  0  0  0  0  0
   46.0675   23.1968   36.5380 H   0  0  0  0  0  0  0  0  0  0  0  0
   44.3919   25.0001   37.1474 H   0  0  0  0  0  0  0  0  0  0  0  0
   35.3415   22.5048   30.6588 H   0  0  0  0  0  0  0  0  0  0  0  0
   34.1718   24.6463   30.2654 H   0  0  0  0  0  0  0  0  0  0  0  0
   35.0241   26.7179   31.3289 H   0  0  0  0  0  0  0  0  0  0  0  0
   37.0496   26.6060   32.7778 H   0  0  0  0  0  0  0  0  0  0  0  0
  1  2  1  0
  1  9  1  0
  3  2  1  0
  4  5  1  0
  4  3  1  0
  5  1  1  0
  6 15  1  0
  6  7  2  0
  8  7  1  0
  9  8  2  0
 10  9  1  0
 10  6  1  0
 11 12  2  0
 12 13  1  0
 14 13  2  0
 15 14  1  0
 16 11  1  0
 16 15  2  0
 17  5  1  0
 17 22  1  0
 18 17  2  0
 19 18  1  0
 19 20  2  0
 20 21  1  0
 21 22  2  0
  2 23  1  0
  2 24  1  0
  3 25  1  0
  3 26  1  0
  4 27  1  0
  4 28  1  0
  5 29  1  6
  7 30  1  0
  8 31  1  0
 11 32  1  0
 12 33  1  0
 13 34  1  0
 18 35  1  0
 19 36  1  0
 20 37  1  0
 21 38  1  0
M  ISO  8  23  13  24  13  25  13  26  13  27  13  28  13  29  13  30  14
M  ISO  8  31  14  32  14  33  14  34  14  35  14  36  14  37  14  38  14
M  END
>  <minimizedAffinity>  (1) 
-4.43484974

>  <minimizedRMSD>  (1) 
4.12412357

$$$$
