
     RDKit          3D

 43 47  0  0  1  0  0  0  0  0999 V2000
   41.9730   21.4580   33.6780 N   0  0  0  0  0  0  0  0  0  0  0  0
   43.2710   20.9690   33.2200 C   0  0  0  0  0  0  0  0  0  0  0  0
   44.2240   21.0640   34.3650 C   0  0  0  0  0  0  0  0  0  0  0  0
   43.2910   21.4240   35.5260 C   0  0  0  0  0  0  0  0  0  0  0  0
   42.3420   22.3550   34.7620 C   0  0  1  0  0  0  0  0  0  0  0  0
   43.0210   23.5630   34.2920 C   0  0  0  0  0  0  0  0  0  0  0  0
   43.0160   23.9700   33.0140 N   0  0  0  0  0  0  0  0  0  0  0  0
   43.6520   25.0870   32.6120 C   0  0  0  0  0  0  0  0  0  0  0  0
   44.3310   25.8560   33.4810 N   0  0  0  0  0  0  0  0  0  0  0  0
   44.3870   25.5180   34.7890 C   0  0  0  0  0  0  0  0  0  0  0  0
   45.0870   26.3150   35.6730 C   0  0  0  0  0  0  0  0  0  0  0  0
   45.1360   25.9550   37.0160 C   0  0  0  0  0  0  0  0  0  0  0  0
   44.4940   24.8170   37.4570 C   0  0  0  0  0  0  0  0  0  0  0  0
   43.8120   24.0630   36.5240 C   0  0  0  0  0  0  0  0  0  0  0  0
   43.7200   24.3580   35.1790 C   0  0  0  0  0  0  0  0  0  0  0  0
   38.6920   20.7000   32.5260 C   0  0  0  0  0  0  0  0  0  0  0  0
   39.4720   19.9620   31.6330 C   0  0  0  0  0  0  0  0  0  0  0  0
   40.8170   20.1780   31.9830 C   0  0  0  0  0  0  0  0  0  0  0  0
   40.7400   21.0380   33.0730 C   0  0  0  0  0  0  0  0  0  0  0  0
   39.5050   21.3200   33.3620 O   0  0  0  0  0  0  0  0  0  0  0  0
   35.3830   19.2860   31.9180 C   0  0  0  0  0  0  0  0  0  0  0  0
   34.5360   20.3780   32.0240 C   0  0  0  0  0  0  0  0  0  0  0  0
   35.1130   21.6240   32.3100 C   0  0  0  0  0  0  0  0  0  0  0  0
   36.4660   21.7460   32.4760 N   0  0  0  0  0  0  0  0  0  0  0  0
   37.2490   20.6320   32.3590 C   0  0  0  0  0  0  0  0  0  0  0  0
   36.6990   19.4570   32.0890 N   0  0  0  0  0  0  0  0  0  0  0  0
   43.1824   19.9226   32.8926 H   0  0  0  0  0  0  0  0  0  0  0  0
   43.6298   21.5688   32.3706 H   0  0  0  0  0  0  0  0  0  0  0  0
   44.7320   20.1047   34.5430 H   0  0  0  0  0  0  0  0  0  0  0  0
   45.0363   21.7887   34.2073 H   0  0  0  0  0  0  0  0  0  0  0  0
   42.7722   20.5428   35.9314 H   0  0  0  0  0  0  0  0  0  0  0  0
   43.7740   21.8540   36.4158 H   0  0  0  0  0  0  0  0  0  0  0  0
   41.4984   22.7602   35.3400 H   0  0  0  0  0  0  0  0  0  0  0  0
   43.6152   25.3760   31.5513 H   0  0  0  0  0  0  0  0  0  0  0  0
   45.5990   27.2224   35.3201 H   0  0  0  0  0  0  0  0  0  0  0  0
   45.6901   26.5818   37.7302 H   0  0  0  0  0  0  0  0  0  0  0  0
   44.5245   24.5206   38.5159 H   0  0  0  0  0  0  0  0  0  0  0  0
   43.3018   23.1559   36.8802 H   0  0  0  0  0  0  0  0  0  0  0  0
   39.1038   19.3307   30.8108 H   0  0  0  0  0  0  0  0  0  0  0  0
   41.7179   19.7640   31.5066 H   0  0  0  0  0  0  0  0  0  0  0  0
   34.9771   18.2881   31.6954 H   0  0  0  0  0  0  0  0  0  0  0  0
   33.4496   20.2712   31.8886 H   0  0  0  0  0  0  0  0  0  0  0  0
   34.4712   22.5126   32.4019 H   0  0  0  0  0  0  0  0  0  0  0  0
  1  5  1  0
  2  1  1  0
  2  3  1  0
  3  4  1  0
  5  4  1  0
  6  5  1  0
  6 15  1  0
  7  6  2  0
  8  7  1  0
  8  9  2  0
  9 10  1  0
 10 15  2  0
 10 11  1  0
 11 12  2  0
 12 13  1  0
 14 13  2  0
 15 14  1  0
 16 20  1  0
 17 18  1  0
 17 16  2  0
 18 19  2  0
 19 20  1  0
 19  1  1  0
 21 22  2  0
 21 26  1  0
 22 23  1  0
 23 24  2  0
 25 24  1  0
 25 16  1  0
 26 25  2  0
  2 27  1  0
  2 28  1  0
  3 29  1  0
  3 30  1  0
  4 31  1  0
  4 32  1  0
  5 33  1  1
  8 34  1  0
 11 35  1  0
 12 36  1  0
 13 37  1  0
 14 38  1  0
 17 39  1  0
 18 40  1  0
 21 41  1  0
 22 42  1  0
 23 43  1  0
M  ISO  8  27  13  28  13  29  13  30  13  31  13  32  13  33  13  34  14
M  ISO  8  35  14  36  14  37  14  38  14  39  14  40  14  41  14  42  14
M  ISO  1  43  14
M  END
>  <minimizedAffinity>  (1) 
-4.28753805

>  <minimizedRMSD>  (1) 
9.32389259

$$$$
