
     RDKit          3D

 36 39  0  0  1  0  0  0  0  0999 V2000
   37.6450   21.7690   34.8860 C   0  0  0  0  0  0  0  0  0  0  0  0
   36.3240   21.3000   34.8550 C   0  0  0  0  0  0  0  0  0  0  0  0
   36.1070   20.7850   33.5700 C   0  0  0  0  0  0  0  0  0  0  0  0
   37.3220   20.9830   32.9200 C   0  0  0  0  0  0  0  0  0  0  0  0
   38.1730   21.5470   33.7070 O   0  0  0  0  0  0  0  0  0  0  0  0
   37.4360   20.5570   31.5580 N   0  0  0  0  0  0  0  0  0  0  0  0
   36.2400   20.3640   30.7060 C   0  0  0  0  0  0  0  0  0  0  0  0
   36.5870   19.3640   29.6590 C   0  0  0  0  0  0  0  0  0  0  0  0
   37.9620   18.8980   30.1070 C   0  0  0  0  0  0  0  0  0  0  0  0
   38.5160   20.2110   30.6440 C   0  0  1  0  0  0  0  0  0  0  0  0
   38.7310   21.2430   29.5960 C   0  0  0  0  0  0  0  0  0  0  0  0
   39.7020   21.1380   28.5030 C   0  0  0  0  0  0  0  0  0  0  0  0
   40.1140   21.9280   29.7120 C   0  0  0  0  0  0  0  0  0  0  0  0
   39.9090   22.7790   37.5620 C   0  0  0  0  0  0  0  0  0  0  0  0
   39.0640   23.4360   38.4730 C   0  0  0  0  0  0  0  0  0  0  0  0
   37.6900   23.5280   38.1550 C   0  0  0  0  0  0  0  0  0  0  0  0
   37.2600   22.9810   36.9890 N   0  0  0  0  0  0  0  0  0  0  0  0
   38.1060   22.3570   36.1370 C   0  0  0  0  0  0  0  0  0  0  0  0
   39.3930   22.2660   36.4310 N   0  0  0  0  0  0  0  0  0  0  0  0
   35.5977   21.3305   35.6806 H   0  0  0  0  0  0  0  0  0  0  0  0
   35.1897   20.3300   33.1682 H   0  0  0  0  0  0  0  0  0  0  0  0
   35.4021   19.9936   31.3148 H   0  0  0  0  0  0  0  0  0  0  0  0
   35.9378   21.3158   30.2448 H   0  0  0  0  0  0  0  0  0  0  0  0
   36.6276   19.8274   28.6622 H   0  0  0  0  0  0  0  0  0  0  0  0
   35.8532   18.5501   29.5639 H   0  0  0  0  0  0  0  0  0  0  0  0
   37.8984   18.1292   30.8912 H   0  0  0  0  0  0  0  0  0  0  0  0
   38.5702   18.4208   29.3245 H   0  0  0  0  0  0  0  0  0  0  0  0
   39.5178   20.1384   31.0926 H   0  0  0  0  0  0  0  0  0  0  0  0
   37.6591   21.4885   29.5699 H   0  0  0  0  0  0  0  0  0  0  0  0
   40.1841   20.1709   28.2975 H   0  0  0  0  0  0  0  0  0  0  0  0
   39.6624   21.3602   27.4264 H   0  0  0  0  0  0  0  0  0  0  0  0
   40.1992   23.0234   29.6591 H   0  0  0  0  0  0  0  0  0  0  0  0
   40.9515   21.9071   30.4248 H   0  0  0  0  0  0  0  0  0  0  0  0
   40.9846   22.6851   37.7726 H   0  0  0  0  0  0  0  0  0  0  0  0
   39.4600   23.8655   39.4050 H   0  0  0  0  0  0  0  0  0  0  0  0
   36.9864   24.0303   38.8352 H   0  0  0  0  0  0  0  0  0  0  0  0
  1 18  1  0
  2  1  2  0
  3  2  1  0
  4  3  2  0
  4  5  1  0
  5  1  1  0
  6  4  1  0
  7  6  1  0
  8  9  1  0
  8  7  1  0
  9 10  1  0
 10  6  1  0
 11 13  1  0
 11 10  1  0
 12 11  1  0
 12 13  1  0
 14 15  2  0
 16 15  1  0
 17 16  2  0
 18 19  2  0
 18 17  1  0
 19 14  1  0
  2 20  1  0
  3 21  1  0
  7 22  1  0
  7 23  1  0
  8 24  1  0
  8 25  1  0
  9 26  1  0
  9 27  1  0
 10 28  1  1
 11 29  1  0
 12 30  1  0
 12 31  1  0
 13 32  1  0
 13 33  1  0
 14 34  1  0
 15 35  1  0
 16 36  1  0
M  ISO  8  20  14  21  14  22  13  23  13  24  13  25  13  26  13  27  13
M  ISO  8  28  13  29  13  30  13  31  13  32  13  33  13  34  14  35  14
M  ISO  1  36  14
M  END
>  <minimizedAffinity>  (1) 
-4.2103138

>  <minimizedRMSD>  (1) 
1.85897994

$$$$
