
     RDKit          3D

 51 55  0  0  1  0  0  0  0  0999 V2000
   36.2130   20.5990   32.2850 N   0  0  0  0  0  0  0  0  0  0  0  0
   36.2720   19.1790   31.8590 C   0  0  0  0  0  0  0  0  0  0  0  0
   36.6010   19.1640   30.4190 C   0  0  0  0  0  0  0  0  0  0  0  0
   36.8750   20.6340   30.1330 C   0  0  0  0  0  0  0  0  0  0  0  0
   35.8760   21.2930   31.0390 C   0  0  2  0  0  0  0  0  0  0  0  0
   37.2150   21.7830   35.4790 C   0  0  0  0  0  0  0  0  0  0  0  0
   36.0420   21.1010   35.8010 C   0  0  0  0  0  0  0  0  0  0  0  0
   35.5260   20.5700   34.6100 C   0  0  0  0  0  0  0  0  0  0  0  0
   36.4560   20.9860   33.6370 C   0  0  0  0  0  0  0  0  0  0  0  0
   37.3870   21.6680   34.1830 O   0  0  0  0  0  0  0  0  0  0  0  0
   39.9790   22.7540   37.6400 C   0  0  0  0  0  0  0  0  0  0  0  0
   39.3940   23.6090   38.5740 C   0  0  0  0  0  0  0  0  0  0  0  0
   38.0090   23.8550   38.4520 C   0  0  0  0  0  0  0  0  0  0  0  0
   37.3020   23.2620   37.4470 N   0  0  0  0  0  0  0  0  0  0  0  0
   37.9410   22.4290   36.5570 C   0  0  0  0  0  0  0  0  0  0  0  0
   39.2510   22.1940   36.6710 N   0  0  0  0  0  0  0  0  0  0  0  0
   36.2420   22.7070   31.2170 C   0  0  0  0  0  0  0  0  0  0  0  0
   35.4340   23.7630   31.4540 C   0  0  0  0  0  0  0  0  0  0  0  0
   36.2560   24.8950   31.5290 C   0  0  0  0  0  0  0  0  0  0  0  0
   37.5330   24.4540   31.3310 N   0  0  0  0  0  0  0  0  0  0  0  0
   37.5250   23.1420   31.1450 N   0  0  0  0  0  0  0  0  0  0  0  0
   38.2880   27.2740   29.4700 N   0  0  0  0  0  0  0  0  0  0  0  0
   39.5090   26.4940   29.2840 C   0  0  0  0  0  0  0  0  0  0  0  0
   39.3380   25.1340   29.9260 C   0  0  0  0  0  0  0  0  0  0  0  0
   38.7850   25.2280   31.3110 C   0  0  0  0  0  0  0  0  0  0  0  0
   38.5920   26.6120   31.8320 C   0  0  0  0  0  0  0  0  0  0  0  0
   38.0790   27.6080   30.8490 C   0  0  0  0  0  0  0  0  0  0  0  0
   37.0491   18.6476   32.4279 H   0  0  0  0  0  0  0  0  0  0  0  0
   35.3104   18.6776   32.0433 H   0  0  0  0  0  0  0  0  0  0  0  0
   37.4897   18.5471   30.2199 H   0  0  0  0  0  0  0  0  0  0  0  0
   35.8074   18.7337   29.7905 H   0  0  0  0  0  0  0  0  0  0  0  0
   37.9058   20.9118   30.3982 H   0  0  0  0  0  0  0  0  0  0  0  0
   36.7811   20.9151   29.0737 H   0  0  0  0  0  0  0  0  0  0  0  0
   34.8296   21.2487   30.7028 H   0  0  0  0  0  0  0  0  0  0  0  0
   35.6025   20.9985   36.8042 H   0  0  0  0  0  0  0  0  0  0  0  0
   34.6136   19.9719   34.4692 H   0  0  0  0  0  0  0  0  0  0  0  0
   41.0558   22.5380   37.7027 H   0  0  0  0  0  0  0  0  0  0  0  0
   39.9885   24.0735   39.3745 H   0  0  0  0  0  0  0  0  0  0  0  0
   37.5019   24.5222   39.1645 H   0  0  0  0  0  0  0  0  0  0  0  0
   34.3400   23.7389   31.5666 H   0  0  0  0  0  0  0  0  0  0  0  0
   35.9365   25.9317   31.7110 H   0  0  0  0  0  0  0  0  0  0  0  0
   37.4851   26.7230   29.1343 H   0  0  0  0  0  0  0  0  0  0  0  0
   39.7056   26.3704   28.2088 H   0  0  0  0  0  0  0  0  0  0  0  0
   40.3553   27.0181   29.7521 H   0  0  0  0  0  0  0  0  0  0  0  0
   38.6505   24.5357   29.3101 H   0  0  0  0  0  0  0  0  0  0  0  0
   40.3306   24.6642   29.9903 H   0  0  0  0  0  0  0  0  0  0  0  0
   39.5326   24.8120   32.0024 H   0  0  0  0  0  0  0  0  0  0  0  0
   37.8772   26.5621   32.6666 H   0  0  0  0  0  0  0  0  0  0  0  0
   39.5927   26.9652   32.1215 H   0  0  0  0  0  0  0  0  0  0  0  0
   38.5793   28.5677   31.0455 H   0  0  0  0  0  0  0  0  0  0  0  0
   36.9888   27.6411   30.9914 H   0  0  0  0  0  0  0  0  0  0  0  0
  1  9  1  0
  2  1  1  0
  3  2  1  0
  4  3  1  0
  4  5  1  0
  5 17  1  0
  5  1  1  0
  6  7  2  0
  6 15  1  0
  8  7  1  0
  9 10  1  0
  9  8  2  0
 10  6  1  0
 11 12  2  0
 13 12  1  0
 14 13  2  0
 15 16  2  0
 15 14  1  0
 16 11  1  0
 17 18  1  0
 18 19  2  0
 20 19  1  0
 21 17  2  0
 21 20  1  0
 22 27  1  0
 23 22  1  0
 23 24  1  0
 24 25  1  0
 25 20  1  0
 25 26  1  0
 27 26  1  0
  2 28  1  0
  2 29  1  0
  3 30  1  0
  3 31  1  0
  4 32  1  0
  4 33  1  0
  5 34  1  6
  7 35  1  0
  8 36  1  0
 11 37  1  0
 12 38  1  0
 13 39  1  0
 18 40  1  0
 19 41  1  0
 22 42  1  0
 23 43  1  0
 23 44  1  0
 24 45  1  0
 24 46  1  0
 25 47  1  0
 26 48  1  0
 26 49  1  0
 27 50  1  0
 27 51  1  0
M  ISO  8  28  13  29  13  30  13  31  13  32  13  33  13  34  13  35  14
M  ISO  8  36  14  37  14  38  14  39  14  40  14  41  14  42   5  43  13
M  ISO  8  44  13  45  13  46  13  47  13  48  13  49  13  50  13  51  13
M  END
>  <minimizedAffinity>  (1) 
-6.03508711

>  <minimizedRMSD>  (1) 
0.326103359

$$$$
