
     RDKit          3D

 43 47  0  0  1  0  0  0  0  0999 V2000
   36.2520   20.4570   32.2210 N   0  0  0  0  0  0  0  0  0  0  0  0
   36.3580   19.0290   31.8320 C   0  0  0  0  0  0  0  0  0  0  0  0
   36.6990   18.9860   30.3950 C   0  0  0  0  0  0  0  0  0  0  0  0
   36.9060   20.4590   30.0650 C   0  0  0  0  0  0  0  0  0  0  0  0
   35.8920   21.1070   30.9600 C   0  0  2  0  0  0  0  0  0  0  0  0
   36.1970   22.5310   31.1010 C   0  0  0  0  0  0  0  0  0  0  0  0
   35.3780   23.5370   31.4830 C   0  0  0  0  0  0  0  0  0  0  0  0
   36.1260   24.7190   31.4430 C   0  0  0  0  0  0  0  0  0  0  0  0
   37.3830   24.3600   31.0300 N   0  0  0  0  0  0  0  0  0  0  0  0
   37.4210   23.0480   30.8270 N   0  0  0  0  0  0  0  0  0  0  0  0
   39.9600   26.7780   30.3570 N   0  0  0  0  0  0  0  0  0  0  0  0
   39.2960   25.7100   29.9800 N   0  0  0  0  0  0  0  0  0  0  0  0
   38.3650   25.3810   30.8990 C   0  0  0  0  0  0  0  0  0  0  0  0
   38.5120   26.3540   31.8940 C   0  0  0  0  0  0  0  0  0  0  0  0
   39.5260   27.2330   31.5410 C   0  0  0  0  0  0  0  0  0  0  0  0
   37.2340   21.7280   35.3900 C   0  0  0  0  0  0  0  0  0  0  0  0
   36.0300   21.1130   35.7090 C   0  0  0  0  0  0  0  0  0  0  0  0
   35.5160   20.5550   34.5290 C   0  0  0  0  0  0  0  0  0  0  0  0
   36.4820   20.8890   33.5640 C   0  0  0  0  0  0  0  0  0  0  0  0
   37.4300   21.5510   34.1040 O   0  0  0  0  0  0  0  0  0  0  0  0
   40.0210   22.7560   37.4960 C   0  0  0  0  0  0  0  0  0  0  0  0
   39.4370   23.5760   38.4510 C   0  0  0  0  0  0  0  0  0  0  0  0
   38.0420   23.7820   38.3670 C   0  0  0  0  0  0  0  0  0  0  0  0
   37.3220   23.1790   37.3680 N   0  0  0  0  0  0  0  0  0  0  0  0
   37.9620   22.3820   36.4600 C   0  0  0  0  0  0  0  0  0  0  0  0
   39.2840   22.1840   36.5350 N   0  0  0  0  0  0  0  0  0  0  0  0
   37.1464   18.5367   32.4203 H   0  0  0  0  0  0  0  0  0  0  0  0
   35.4104   18.5036   32.0219 H   0  0  0  0  0  0  0  0  0  0  0  0
   37.6174   18.4061   30.2209 H   0  0  0  0  0  0  0  0  0  0  0  0
   35.9314   18.4998   29.7750 H   0  0  0  0  0  0  0  0  0  0  0  0
   37.9270   20.7868   30.3100 H   0  0  0  0  0  0  0  0  0  0  0  0
   36.7864   20.7025   28.9990 H   0  0  0  0  0  0  0  0  0  0  0  0
   34.8477   21.0173   30.6264 H   0  0  0  0  0  0  0  0  0  0  0  0
   34.3206   23.4436   31.7715 H   0  0  0  0  0  0  0  0  0  0  0  0
   35.7761   25.7316   31.6925 H   0  0  0  0  0  0  0  0  0  0  0  0
   40.7187   27.2116   29.8118 H   0  0  0  0  0  0  0  0  0  0  0  0
   37.9146   26.4130   32.8157 H   0  0  0  0  0  0  0  0  0  0  0  0
   39.8907   28.1046   32.1043 H   0  0  0  0  0  0  0  0  0  0  0  0
   35.5647   21.0712   36.7049 H   0  0  0  0  0  0  0  0  0  0  0  0
   34.5814   19.9914   34.3918 H   0  0  0  0  0  0  0  0  0  0  0  0
   41.1052   22.5731   37.5287 H   0  0  0  0  0  0  0  0  0  0  0  0
   40.0373   24.0475   39.2430 H   0  0  0  0  0  0  0  0  0  0  0  0
   37.5345   24.4247   39.1014 H   0  0  0  0  0  0  0  0  0  0  0  0
  1 19  1  0
  2  1  1  0
  3  2  1  0
  4  3  1  0
  4  5  1  0
  5  6  1  0
  5  1  1  0
  6  7  1  0
  8  7  2  0
  9  8  1  0
 10  9  1  0
 10  6  2  0
 11 15  1  0
 12 11  1  0
 12 13  2  0
 13  9  1  0
 13 14  1  0
 15 14  2  0
 16 17  2  0
 16 25  1  0
 18 17  1  0
 19 20  1  0
 19 18  2  0
 20 16  1  0
 21 22  2  0
 23 22  1  0
 24 23  2  0
 25 26  2  0
 25 24  1  0
 26 21  1  0
  2 27  1  0
  2 28  1  0
  3 29  1  0
  3 30  1  0
  4 31  1  0
  4 32  1  0
  5 33  1  6
  7 34  1  0
  8 35  1  0
 11 36  1  0
 14 37  1  0
 15 38  1  0
 17 39  1  0
 18 40  1  0
 21 41  1  0
 22 42  1  0
 23 43  1  0
M  ISO  8  27  13  28  13  29  13  30  13  31  13  32  13  33  13  34  14
M  ISO  8  35  14  36   9  37  14  38  14  39  14  40  14  41  14  42  14
M  ISO  1  43  14
M  END
>  <minimizedAffinity>  (1) 
-5.99938965

>  <minimizedRMSD>  (1) 
0.145879373

$$$$
