
     RDKit          3D

 39 42  0  0  1  0  0  0  0  0999 V2000
   36.1970   20.4530   32.2340 N   0  0  0  0  0  0  0  0  0  0  0  0
   36.2790   19.0210   31.8500 C   0  0  0  0  0  0  0  0  0  0  0  0
   36.5760   18.9700   30.4040 C   0  0  0  0  0  0  0  0  0  0  0  0
   36.8250   20.4360   30.0730 C   0  0  0  0  0  0  0  0  0  0  0  0
   35.8320   21.1090   30.9760 C   0  0  2  0  0  0  0  0  0  0  0  0
   37.2330   21.7220   35.3880 C   0  0  0  0  0  0  0  0  0  0  0  0
   36.0230   21.1080   35.7260 C   0  0  0  0  0  0  0  0  0  0  0  0
   35.4940   20.5540   34.5530 C   0  0  0  0  0  0  0  0  0  0  0  0
   36.4470   20.8850   33.5750 C   0  0  0  0  0  0  0  0  0  0  0  0
   37.4070   21.5440   34.0970 O   0  0  0  0  0  0  0  0  0  0  0  0
   40.0590   22.7260   37.4530 C   0  0  0  0  0  0  0  0  0  0  0  0
   39.4950   23.5570   38.4100 C   0  0  0  0  0  0  0  0  0  0  0  0
   38.1010   23.7790   38.3450 C   0  0  0  0  0  0  0  0  0  0  0  0
   37.3640   23.1840   37.3630 N   0  0  0  0  0  0  0  0  0  0  0  0
   37.9800   22.3760   36.4480 C   0  0  0  0  0  0  0  0  0  0  0  0
   39.3010   22.1600   36.5040 N   0  0  0  0  0  0  0  0  0  0  0  0
   36.1730   22.5260   31.1090 C   0  0  0  0  0  0  0  0  0  0  0  0
   35.3890   23.5470   31.5200 C   0  0  0  0  0  0  0  0  0  0  0  0
   36.1570   24.7150   31.4570 C   0  0  0  0  0  0  0  0  0  0  0  0
   37.3900   24.3330   31.0010 N   0  0  0  0  0  0  0  0  0  0  0  0
   37.3960   23.0180   30.7940 N   0  0  0  0  0  0  0  0  0  0  0  0
   38.4480   25.3000   30.8130 C   0  0  0  0  0  0  0  0  0  0  0  0
   39.1240   25.0140   29.6440 F   0  0  0  0  0  0  0  0  0  0  0  0
   39.3000   25.2450   31.9090 F   0  0  0  0  0  0  0  0  0  0  0  0
   37.8830   26.5760   30.7270 F   0  0  0  0  0  0  0  0  0  0  0  0
   37.0806   18.5247   32.4166 H   0  0  0  0  0  0  0  0  0  0  0  0
   35.3339   18.5037   32.0718 H   0  0  0  0  0  0  0  0  0  0  0  0
   37.4678   18.3587   30.2016 H   0  0  0  0  0  0  0  0  0  0  0  0
   35.7746   18.5127   29.8051 H   0  0  0  0  0  0  0  0  0  0  0  0
   37.8561   20.7345   30.3134 H   0  0  0  0  0  0  0  0  0  0  0  0
   36.7094   20.6853   29.0079 H   0  0  0  0  0  0  0  0  0  0  0  0
   34.7816   21.0427   30.6562 H   0  0  0  0  0  0  0  0  0  0  0  0
   35.5702   21.0675   36.7277 H   0  0  0  0  0  0  0  0  0  0  0  0
   34.5559   19.9934   34.4275 H   0  0  0  0  0  0  0  0  0  0  0  0
   41.1411   22.5294   37.4735 H   0  0  0  0  0  0  0  0  0  0  0  0
   40.1108   24.0263   39.1914 H   0  0  0  0  0  0  0  0  0  0  0  0
   37.6113   24.4299   39.0843 H   0  0  0  0  0  0  0  0  0  0  0  0
   34.3405   23.4735   31.8443 H   0  0  0  0  0  0  0  0  0  0  0  0
   35.8353   25.7334   31.7204 H   0  0  0  0  0  0  0  0  0  0  0  0
  1  9  1  0
  2  1  1  0
  3  2  1  0
  4  3  1  0
  4  5  1  0
  5 17  1  0
  5  1  1  0
  6  7  2  0
  6 15  1  0
  8  7  1  0
  9 10  1  0
  9  8  2  0
 10  6  1  0
 11 12  2  0
 13 12  1  0
 14 13  2  0
 15 16  2  0
 15 14  1  0
 16 11  1  0
 17 18  1  0
 19 18  2  0
 20 19  1  0
 21 20  1  0
 21 17  2  0
 22 20  1  0
 22 24  1  0
 23 22  1  0
 25 22  1  0
  2 26  1  0
  2 27  1  0
  3 28  1  0
  3 29  1  0
  4 30  1  0
  4 31  1  0
  5 32  1  6
  7 33  1  0
  8 34  1  0
 11 35  1  0
 12 36  1  0
 13 37  1  0
 18 38  1  0
 19 39  1  0
M  ISO  8  26  13  27  13  28  13  29  13  30  13  31  13  32  13  33  14
M  ISO  6  34  14  35  14  36  14  37  14  38  14  39  14
M  END
>  <minimizedAffinity>  (1) 
-5.55561209

>  <minimizedRMSD>  (1) 
0.166724131

$$$$
