
     RDKit          3D

 24 25  0  0  0  0  0  0  0  0999 V2000
   37.9900   24.5180   38.6890 C   0  0  0  0  0  0  0  0  0  0  0  0
   38.6800   23.2910   38.6090 C   0  0  0  0  0  0  0  0  0  0  0  0
   39.2730   22.9670   37.3770 C   0  0  0  0  0  0  0  0  0  0  0  0
   39.1520   23.8330   36.3530 N   0  0  0  0  0  0  0  0  0  0  0  0
   38.4800   25.0080   36.4610 C   0  0  0  0  0  0  0  0  0  0  0  0
   37.9060   25.3370   37.6300 N   0  0  0  0  0  0  0  0  0  0  0  0
   39.9900   21.7460   37.2070 N   0  0  0  0  0  0  0  0  0  0  0  0
   41.4120   21.7740   37.1710 C   0  0  0  0  0  0  0  0  0  0  0  0
   42.0690   22.8480   36.8660 N   0  0  0  0  0  0  0  0  0  0  0  0
   42.0860   20.5610   37.4900 N   0  0  0  0  0  0  0  0  0  0  0  0
   43.1020   22.9230   36.8160 H   0  0  0  0  0  0  0  0  0  0  0  0
   38.3790   25.9300   35.2920 C   0  0  0  0  0  0  0  0  0  0  0  0
   39.6060   26.8840   35.1460 C   0  0  0  0  0  0  0  0  0  0  0  0
   38.2450   27.3910   35.4690 C   0  0  0  0  0  0  0  0  0  0  0  0
   37.5123   24.8087   39.6363 H   0  0  0  0  0  0  0  0  0  0  0  0
   38.7511   22.6159   39.4745 H   0  0  0  0  0  0  0  0  0  0  0  0
   39.4841   20.8539   37.1114 H   0  0  0  0  0  0  0  0  0  0  0  0
   43.1153   20.5256   37.4792 H   0  0  0  0  0  0  0  0  0  0  0  0
   41.5442   19.7190   37.7316 H   0  0  0  0  0  0  0  0  0  0  0  0
   37.8134   25.2021   34.6918 H   0  0  0  0  0  0  0  0  0  0  0  0
   40.3977   26.8919   35.9097 H   0  0  0  0  0  0  0  0  0  0  0  0
   40.3613   27.0866   34.3724 H   0  0  0  0  0  0  0  0  0  0  0  0
   37.6951   27.9777   34.7184 H   0  0  0  0  0  0  0  0  0  0  0  0
   37.8445   28.0216   36.2764 H   0  0  0  0  0  0  0  0  0  0  0  0
  2  1  2  0
  3  2  1  0
  4  5  1  0
  4  3  2  0
  5  6  2  0
  6  1  1  0
  7  3  1  0
  8  7  1  0
  8 10  1  0
  9  8  2  0
 11  9  1  0
 12 14  1  0
 12  5  1  0
 13 12  1  0
 13 14  1  0
  1 15  1  0
  2 16  1  0
  7 17  1  0
 10 18  1  0
 10 19  1  0
 12 20  1  0
 13 21  1  0
 13 22  1  0
 14 23  1  0
 14 24  1  0
M  ISO  7  15  14  16  14  20  13  21  13  22  13  23  13  24  13
M  END
>  <minimizedAffinity>  (1) 
-4.70686674

>  <minimizedRMSD>  (1) 
5.23445463

$$$$
