
     RDKit          3D

 18 18  0  0  0  0  0  0  0  0999 V2000
   40.3550   23.3580   35.9780 C   0  0  0  0  0  0  0  0  0  0  0  0
   39.5210   24.2940   35.3610 C   0  0  0  0  0  0  0  0  0  0  0  0
   38.3590   24.7200   36.0420 C   0  0  0  0  0  0  0  0  0  0  0  0
   38.1260   24.1930   37.2580 N   0  0  0  0  0  0  0  0  0  0  0  0
   38.9400   23.2950   37.8340 C   0  0  0  0  0  0  0  0  0  0  0  0
   40.0550   22.8730   37.2040 N   0  0  0  0  0  0  0  0  0  0  0  0
   37.4750   25.6700   35.4620 N   0  0  0  0  0  0  0  0  0  0  0  0
   37.7880   27.0580   35.5350 C   0  0  0  0  0  0  0  0  0  0  0  0
   38.5900   27.5180   36.4250 N   0  0  0  0  0  0  0  0  0  0  0  0
   37.1800   27.9140   34.5920 N   0  0  0  0  0  0  0  0  0  0  0  0
   38.8830   28.5170   36.5240 H   0  0  0  0  0  0  0  0  0  0  0  0
   38.7190   22.7410   39.0850 O   0  0  0  0  0  0  0  0  0  0  0  0
   41.2631   23.0128   35.4621 H   0  0  0  0  0  0  0  0  0  0  0  0
   39.7645   24.6913   34.3646 H   0  0  0  0  0  0  0  0  0  0  0  0
   36.6136   25.3570   34.9919 H   0  0  0  0  0  0  0  0  0  0  0  0
   37.3793   28.9244   34.6099 H   0  0  0  0  0  0  0  0  0  0  0  0
   36.5370   27.5284   33.8858 H   0  0  0  0  0  0  0  0  0  0  0  0
   39.3589   22.0822   39.4547 H   0  0  0  0  0  0  0  0  0  0  0  0
  1  6  2  0
  2  1  1  0
  2  3  2  0
  3  4  1  0
  4  5  2  0
  5 12  1  0
  6  5  1  0
  7  8  1  0
  7  3  1  0
  8  9  2  0
  9 11  1  0
 10  8  1  0
  1 13  1  0
  2 14  1  0
  7 15  1  0
 10 16  1  0
 10 17  1  0
 12 18  1  0
M  ISO  3  13  14  14  14  18   3
M  END
>  <minimizedAffinity>  (1) 
-4.2090354

>  <minimizedRMSD>  (1) 
0.542512298

$$$$
