
     RDKit          3D

 19 19  0  0  0  0  0  0  0  0999 V2000
   38.0560   24.5570   38.3270 C   0  0  0  0  0  0  0  0  0  0  0  0
   38.7590   23.3490   38.5450 C   0  0  0  0  0  0  0  0  0  0  0  0
   39.4440   22.7890   37.4340 C   0  0  0  0  0  0  0  0  0  0  0  0
   39.3800   23.4400   36.2540 N   0  0  0  0  0  0  0  0  0  0  0  0
   38.7000   24.5850   36.0910 C   0  0  0  0  0  0  0  0  0  0  0  0
   38.0430   25.1460   37.1030 N   0  0  0  0  0  0  0  0  0  0  0  0
   40.1800   21.5730   37.5580 N   0  0  0  0  0  0  0  0  0  0  0  0
   41.5880   21.5930   37.3860 C   0  0  0  0  0  0  0  0  0  0  0  0
   42.1750   22.5330   36.7200 N   0  0  0  0  0  0  0  0  0  0  0  0
   42.3100   20.5290   37.9840 N   0  0  0  0  0  0  0  0  0  0  0  0
   43.1970   22.6020   36.5790 H   0  0  0  0  0  0  0  0  0  0  0  0
   38.6970   25.2060   34.7690 C   0  0  0  0  0  0  0  0  0  0  0  0
   37.6170   25.5400   34.2150 O   0  0  0  0  0  0  0  0  0  0  0  0
   37.5122   25.0260   39.1603 H   0  0  0  0  0  0  0  0  0  0  0  0
   38.7745   22.8643   39.5323 H   0  0  0  0  0  0  0  0  0  0  0  0
   39.6941   20.6899   37.7702 H   0  0  0  0  0  0  0  0  0  0  0  0
   43.3353   20.4879   37.8943 H   0  0  0  0  0  0  0  0  0  0  0  0
   41.8091   19.7973   38.5080 H   0  0  0  0  0  0  0  0  0  0  0  0
   39.6508   25.3842   34.2507 H   0  0  0  0  0  0  0  0  0  0  0  0
  1  2  2  0
  3  7  1  0
  3  2  1  0
  4  3  2  0
  5  4  1  0
  5  6  2  0
  6  1  1  0
  8  7  1  0
  8 10  1  0
  9  8  2  0
 11  9  1  0
 12  5  1  0
 13 12  2  0
  1 14  1  0
  2 15  1  0
  7 16  1  0
 10 17  1  0
 10 18  1  0
 12 19  1  0
M  ISO  3  14  14  15  14  19   6
M  END
>  <minimizedAffinity>  (1) 
-4.06281424

>  <minimizedRMSD>  (1) 
5.15970421

$$$$
