
     RDKit          3D

 20 20  0  0  0  0  0  0  0  0999 V2000
   37.9880   24.5340   38.7130 C   0  0  0  0  0  0  0  0  0  0  0  0
   38.6760   23.3150   38.6250 C   0  0  0  0  0  0  0  0  0  0  0  0
   39.2450   22.9830   37.3810 C   0  0  0  0  0  0  0  0  0  0  0  0
   39.1060   23.8400   36.3460 N   0  0  0  0  0  0  0  0  0  0  0  0
   38.4350   25.0050   36.4720 C   0  0  0  0  0  0  0  0  0  0  0  0
   37.8850   25.3450   37.6370 N   0  0  0  0  0  0  0  0  0  0  0  0
   39.9730   21.7590   37.1770 N   0  0  0  0  0  0  0  0  0  0  0  0
   41.3890   21.7920   37.1720 C   0  0  0  0  0  0  0  0  0  0  0  0
   42.0400   22.8750   36.8770 N   0  0  0  0  0  0  0  0  0  0  0  0
   42.0640   20.5770   37.5080 N   0  0  0  0  0  0  0  0  0  0  0  0
   43.0700   22.9580   36.8420 H   0  0  0  0  0  0  0  0  0  0  0  0
   38.3020   25.9280   35.2990 C   0  0  0  0  0  0  0  0  0  0  0  0
   39.0610   27.0440   35.5710 F   0  0  0  0  0  0  0  0  0  0  0  0
   38.7330   25.3410   34.1470 F   0  0  0  0  0  0  0  0  0  0  0  0
   36.9630   26.3040   35.1260 F   0  0  0  0  0  0  0  0  0  0  0  0
   37.5281   24.8326   39.6666 H   0  0  0  0  0  0  0  0  0  0  0  0
   38.7673   22.6455   39.4930 H   0  0  0  0  0  0  0  0  0  0  0  0
   39.4712   20.8706   37.0365 H   0  0  0  0  0  0  0  0  0  0  0  0
   43.0935   20.5460   37.5195 H   0  0  0  0  0  0  0  0  0  0  0  0
   41.5207   19.7328   37.7385 H   0  0  0  0  0  0  0  0  0  0  0  0
  2  1  2  0
  3  2  1  0
  4  5  1  0
  4  3  2  0
  5  6  2  0
  6  1  1  0
  7  3  1  0
  8  7  1  0
  8 10  1  0
  9  8  2  0
 11  9  1  0
 12 13  1  0
 12  5  1  0
 14 12  1  0
 15 12  1  0
  1 16  1  0
  2 17  1  0
  7 18  1  0
 10 19  1  0
 10 20  1  0
M  ISO  2  16  14  17  14
M  END
>  <minimizedAffinity>  (1) 
-4.4735651

>  <minimizedRMSD>  (1) 
5.19023848

$$$$
