
     RDKit          3D

 30 31  0  0  0  0  0  0  0  0999 V2000
   37.4210   25.9490   35.3460 C   0  0  0  0  0  0  0  0  0  0  0  0
   38.6680   25.4360   34.9960 C   0  0  0  0  0  0  0  0  0  0  0  0
   39.2620   25.8870   33.8190 C   0  0  0  0  0  0  0  0  0  0  0  0
   38.6120   26.8060   33.0550 N   0  0  0  0  0  0  0  0  0  0  0  0
   37.3950   27.2860   33.4260 C   0  0  0  0  0  0  0  0  0  0  0  0
   36.8130   26.8640   34.5510 N   0  0  0  0  0  0  0  0  0  0  0  0
   40.5470   25.4300   33.3600 N   0  0  0  0  0  0  0  0  0  0  0  0
   41.6940   26.2430   33.5990 C   0  0  0  0  0  0  0  0  0  0  0  0
   41.5860   27.5380   33.7400 N   0  0  0  0  0  0  0  0  0  0  0  0
   42.9710   25.6150   33.6810 N   0  0  0  0  0  0  0  0  0  0  0  0
   42.3700   28.1880   33.9040 H   0  0  0  0  0  0  0  0  0  0  0  0
   39.3280   24.4570   35.8330 C   0  0  0  0  0  0  0  0  0  0  0  0
   38.5620   24.1860   36.9730 C   0  0  0  0  0  0  0  0  0  0  0  0
   38.9950   23.2640   37.9330 C   0  0  0  0  0  0  0  0  0  0  0  0
   40.1870   22.6270   37.7390 C   0  0  0  0  0  0  0  0  0  0  0  0
   40.9570   22.8900   36.6090 C   0  0  0  0  0  0  0  0  0  0  0  0
   40.5230   23.7910   35.6810 C   0  0  0  0  0  0  0  0  0  0  0  0
   36.7020   28.2970   32.5660 C   0  0  0  0  0  0  0  0  0  0  0  0
   36.2680   29.3080   33.4070 F   0  0  0  0  0  0  0  0  0  0  0  0
   37.5340   28.8210   31.6320 F   0  0  0  0  0  0  0  0  0  0  0  0
   35.5990   27.7250   31.9420 F   0  0  0  0  0  0  0  0  0  0  0  0
   36.9283   25.6110   36.2696 H   0  0  0  0  0  0  0  0  0  0  0  0
   40.6369   24.5302   32.8668 H   0  0  0  0  0  0  0  0  0  0  0  0
   43.8136   26.1819   33.8529 H   0  0  0  0  0  0  0  0  0  0  0  0
   43.0511   24.5943   33.5683 H   0  0  0  0  0  0  0  0  0  0  0  0
   37.6036   24.7064   37.1167 H   0  0  0  0  0  0  0  0  0  0  0  0
   38.3871   23.0567   38.8260 H   0  0  0  0  0  0  0  0  0  0  0  0
   40.5426   21.8988   38.4828 H   0  0  0  0  0  0  0  0  0  0  0  0
   41.9160   22.3709   36.4644 H   0  0  0  0  0  0  0  0  0  0  0  0
   41.1409   23.9893   34.7928 H   0  0  0  0  0  0  0  0  0  0  0  0
  2  1  2  0
  2 12  1  0
  3  2  1  0
  4  5  1  0
  4  3  2  0
  5  6  2  0
  6  1  1  0
  7  8  1  0
  7  3  1  0
  8 10  1  0
  8  9  2  0
  9 11  1  0
 12 13  2  0
 13 14  1  0
 15 14  2  0
 16 15  1  0
 17 12  1  0
 17 16  2  0
 18 19  1  0
 18  5  1  0
 20 18  1  0
 21 18  1  0
  1 22  1  0
  7 23  1  0
 10 24  1  0
 10 25  1  0
 13 26  1  0
 14 27  1  0
 15 28  1  0
 16 29  1  0
 17 30  1  0
M  ISO  6  22  14  26  14  27  14  28  14  29  14  30  14
M  END
>  <minimizedAffinity>  (1) 
-4.99902725

>  <minimizedRMSD>  (1) 
4.67821264

$$$$
