
     RDKit          3D

 30 31  0  0  0  0  0  0  0  0999 V2000
   38.4820   26.9340   36.0660 C   0  0  0  0  0  0  0  0  0  0  0  0
   38.4920   25.7730   35.2790 C   0  0  0  0  0  0  0  0  0  0  0  0
   37.6650   25.7170   34.1570 C   0  0  0  0  0  0  0  0  0  0  0  0
   36.8800   26.7880   33.8640 N   0  0  0  0  0  0  0  0  0  0  0  0
   36.8910   27.9010   34.6460 C   0  0  0  0  0  0  0  0  0  0  0  0
   37.6740   27.9710   35.7200 N   0  0  0  0  0  0  0  0  0  0  0  0
   37.5950   24.5890   33.2830 N   0  0  0  0  0  0  0  0  0  0  0  0
   38.3240   24.6200   32.0620 C   0  0  0  0  0  0  0  0  0  0  0  0
   38.6490   25.7450   31.4820 N   0  0  0  0  0  0  0  0  0  0  0  0
   38.6880   23.3750   31.4740 N   0  0  0  0  0  0  0  0  0  0  0  0
   39.1170   25.8390   30.5740 H   0  0  0  0  0  0  0  0  0  0  0  0
   39.3450   24.6490   35.6290 C   0  0  0  0  0  0  0  0  0  0  0  0
   40.6150   24.8170   35.0660 C   0  0  0  0  0  0  0  0  0  0  0  0
   41.6170   23.8610   35.2680 C   0  0  0  0  0  0  0  0  0  0  0  0
   41.3540   22.7400   36.0310 C   0  0  0  0  0  0  0  0  0  0  0  0
   40.0950   22.5950   36.5760 C   0  0  0  0  0  0  0  0  0  0  0  0
   39.0990   23.5290   36.3840 C   0  0  0  0  0  0  0  0  0  0  0  0
   36.0140   29.0650   34.2960 C   0  0  0  0  0  0  0  0  0  0  0  0
   36.3100   30.0710   35.1910 F   0  0  0  0  0  0  0  0  0  0  0  0
   36.2380   29.5040   33.0320 F   0  0  0  0  0  0  0  0  0  0  0  0
   34.6690   28.7210   34.4360 F   0  0  0  0  0  0  0  0  0  0  0  0
   39.1234   27.0049   36.9568 H   0  0  0  0  0  0  0  0  0  0  0  0
   37.0263   23.7673   33.5328 H   0  0  0  0  0  0  0  0  0  0  0  0
   39.2162   23.3579   30.5899 H   0  0  0  0  0  0  0  0  0  0  0  0
   38.4230   22.4917   31.9328 H   0  0  0  0  0  0  0  0  0  0  0  0
   40.8279   25.7091   34.4587 H   0  0  0  0  0  0  0  0  0  0  0  0
   42.6118   24.0020   34.8201 H   0  0  0  0  0  0  0  0  0  0  0  0
   42.1310   21.9800   36.2003 H   0  0  0  0  0  0  0  0  0  0  0  0
   39.8784   21.7044   37.1842 H   0  0  0  0  0  0  0  0  0  0  0  0
   38.1076   23.3768   36.8356 H   0  0  0  0  0  0  0  0  0  0  0  0
  2 12  1  0
  2  1  2  0
  3  2  1  0
  4  3  2  0
  4  5  1  0
  5  6  2  0
  6  1  1  0
  7  3  1  0
  8  7  1  0
  9  8  2  0
 10  8  1  0
 11  9  1  0
 12 17  2  0
 13 14  2  0
 13 12  1  0
 14 15  1  0
 15 16  2  0
 17 16  1  0
 18 21  1  0
 18  5  1  0
 18 19  1  0
 20 18  1  0
  1 22  1  0
  7 23  1  0
 10 24  1  0
 10 25  1  0
 13 26  1  0
 14 27  1  0
 15 28  1  0
 16 29  1  0
 17 30  1  0
M  ISO  6  22  14  26  14  27  14  28  14  29  14  30  14
M  END
>  <minimizedAffinity>  (1) 
-4.7708149

>  <minimizedRMSD>  (1) 
5.24960184

$$$$
