
     RDKit          3D

 27 28  0  0  0  0  0  0  0  0999 V2000
   38.5980   24.3210   36.5770 C   0  0  0  0  0  0  0  0  0  0  0  0
   39.7740   24.0090   35.8990 C   0  0  0  0  0  0  0  0  0  0  0  0
   40.1660   24.8310   34.8390 C   0  0  0  0  0  0  0  0  0  0  0  0
   39.3870   25.8930   34.5200 N   0  0  0  0  0  0  0  0  0  0  0  0
   38.2590   26.1720   35.1900 C   0  0  0  0  0  0  0  0  0  0  0  0
   37.8680   25.4000   36.2040 N   0  0  0  0  0  0  0  0  0  0  0  0
   41.3610   24.5870   34.0830 N   0  0  0  0  0  0  0  0  0  0  0  0
   42.5110   25.3610   34.3510 C   0  0  0  0  0  0  0  0  0  0  0  0
   42.4300   26.5350   34.8950 N   0  0  0  0  0  0  0  0  0  0  0  0
   43.7760   24.7940   33.9980 N   0  0  0  0  0  0  0  0  0  0  0  0
   43.2320   27.1660   35.0690 H   0  0  0  0  0  0  0  0  0  0  0  0
   40.6080   22.8640   36.2480 C   0  0  0  0  0  0  0  0  0  0  0  0
   40.7070   22.3850   37.5590 C   0  0  0  0  0  0  0  0  0  0  0  0
   41.5840   21.3130   37.4430 C   0  0  0  0  0  0  0  0  0  0  0  0
   41.9620   21.1970   36.1070 C   0  0  0  0  0  0  0  0  0  0  0  0
   41.3520   22.1400   35.4660 O   0  0  0  0  0  0  0  0  0  0  0  0
   37.4230   27.3590   34.8040 C   0  0  0  0  0  0  0  0  0  0  0  0
   37.7440   28.3820   35.6510 F   0  0  0  0  0  0  0  0  0  0  0  0
   37.6500   27.7290   33.5140 F   0  0  0  0  0  0  0  0  0  0  0  0
   36.0530   27.0460   34.9270 F   0  0  0  0  0  0  0  0  0  0  0  0
   38.2621   23.6920   37.4146 H   0  0  0  0  0  0  0  0  0  0  0  0
   41.3795   23.8580   33.3556 H   0  0  0  0  0  0  0  0  0  0  0  0
   44.6435   25.3206   34.1740 H   0  0  0  0  0  0  0  0  0  0  0  0
   43.8193   23.8591   33.5678 H   0  0  0  0  0  0  0  0  0  0  0  0
   40.2102   22.7654   38.4637 H   0  0  0  0  0  0  0  0  0  0  0  0
   41.9221   20.6662   38.2660 H   0  0  0  0  0  0  0  0  0  0  0  0
   42.6463   20.4488   35.6804 H   0  0  0  0  0  0  0  0  0  0  0  0
  2 12  1  0
  2  1  2  0
  3  2  1  0
  4  3  2  0
  4  5  1  0
  5  6  2  0
  6  1  1  0
  7  8  1  0
  7  3  1  0
  8  9  2  0
  9 11  1  0
 10  8  1  0
 12 13  2  0
 14 13  1  0
 15 14  2  0
 16 15  1  0
 16 12  1  0
 17 20  1  0
 17  5  1  0
 17 18  1  0
 19 17  1  0
  1 21  1  0
  7 22  1  0
 10 23  1  0
 10 24  1  0
 13 25  1  0
 14 26  1  0
 15 27  1  0
M  ISO  4  21  14  25  14  26  14  27  14
M  END
>  <minimizedAffinity>  (1) 
-4.60770702

>  <minimizedRMSD>  (1) 
3.68745255

$$$$
