
     RDKit          3D

 27 28  0  0  0  0  0  0  0  0999 V2000
   37.9780   26.9510   35.7210 C   0  0  0  0  0  0  0  0  0  0  0  0
   38.1390   25.6690   35.2010 C   0  0  0  0  0  0  0  0  0  0  0  0
   37.6380   25.4040   33.9280 C   0  0  0  0  0  0  0  0  0  0  0  0
   37.0160   26.4040   33.2530 N   0  0  0  0  0  0  0  0  0  0  0  0
   36.8780   27.6350   33.7900 C   0  0  0  0  0  0  0  0  0  0  0  0
   37.3440   27.9130   34.9950 N   0  0  0  0  0  0  0  0  0  0  0  0
   37.7470   24.1280   33.2990 N   0  0  0  0  0  0  0  0  0  0  0  0
   38.7610   23.9350   32.3110 C   0  0  0  0  0  0  0  0  0  0  0  0
   39.2410   24.9180   31.6240 N   0  0  0  0  0  0  0  0  0  0  0  0
   39.2040   22.5800   32.1360 N   0  0  0  0  0  0  0  0  0  0  0  0
   39.9390   24.8220   30.8720 H   0  0  0  0  0  0  0  0  0  0  0  0
   38.8150   24.6280   35.9650 C   0  0  0  0  0  0  0  0  0  0  0  0
   39.8960   23.8840   35.8560 C   0  0  0  0  0  0  0  0  0  0  0  0
   40.2320   22.9710   36.8050 C   0  0  0  0  0  0  0  0  0  0  0  0
   39.2810   22.8890   37.9620 C   0  0  0  0  0  0  0  0  0  0  0  0
   38.0480   24.1340   37.5130 S   0  0  0  0  0  0  0  0  0  0  0  0
   36.1810   28.7180   33.0110 C   0  0  0  0  0  0  0  0  0  0  0  0
   37.0100   29.1060   31.9970 F   0  0  0  0  0  0  0  0  0  0  0  0
   34.9790   28.2840   32.5130 F   0  0  0  0  0  0  0  0  0  0  0  0
   35.9080   29.8140   33.8560 F   0  0  0  0  0  0  0  0  0  0  0  0
   38.3649   27.1876   36.7232 H   0  0  0  0  0  0  0  0  0  0  0  0
   37.1075   23.3613   33.5521 H   0  0  0  0  0  0  0  0  0  0  0  0
   39.9330   22.3621   31.4417 H   0  0  0  0  0  0  0  0  0  0  0  0
   38.7927   21.8262   32.7048 H   0  0  0  0  0  0  0  0  0  0  0  0
   40.5433   24.0045   34.9748 H   0  0  0  0  0  0  0  0  0  0  0  0
   41.1310   22.3415   36.7304 H   0  0  0  0  0  0  0  0  0  0  0  0
   39.3225   22.2417   38.8504 H   0  0  0  0  0  0  0  0  0  0  0  0
  2  1  2  0
  2 12  1  0
  3  2  1  0
  4  5  1  0
  4  3  2  0
  5  6  2  0
  6  1  1  0
  7  3  1  0
  8  7  1  0
  9  8  2  0
 10  8  1  0
 11  9  1  0
 12 16  1  0
 13 12  2  0
 13 14  1  0
 14 15  2  0
 16 15  1  0
 17  5  1  0
 17 20  1  0
 18 17  1  0
 19 17  1  0
  1 21  1  0
  7 22  1  0
 10 23  1  0
 10 24  1  0
 13 25  1  0
 14 26  1  0
 15 27  1  0
M  ISO  4  21  14  25  14  26  14  27  14
M  END
>  <minimizedAffinity>  (1) 
-4.58591604

>  <minimizedRMSD>  (1) 
4.78092146

$$$$
