
     RDKit          3D

 27 28  0  0  0  0  0  0  0  0999 V2000
   38.3110   26.8060   35.3450 C   0  0  0  0  0  0  0  0  0  0  0  0
   38.1260   25.8070   34.3670 C   0  0  0  0  0  0  0  0  0  0  0  0
   37.1510   26.0340   33.4040 C   0  0  0  0  0  0  0  0  0  0  0  0
   36.4280   27.1870   33.4390 N   0  0  0  0  0  0  0  0  0  0  0  0
   36.6450   28.1220   34.4040 C   0  0  0  0  0  0  0  0  0  0  0  0
   37.5660   27.9350   35.3350 N   0  0  0  0  0  0  0  0  0  0  0  0
   36.8710   25.1040   32.3640 N   0  0  0  0  0  0  0  0  0  0  0  0
   37.4160   25.3200   31.0600 C   0  0  0  0  0  0  0  0  0  0  0  0
   37.7160   26.5280   30.6530 N   0  0  0  0  0  0  0  0  0  0  0  0
   37.6210   24.2040   30.2040 N   0  0  0  0  0  0  0  0  0  0  0  0
   38.0640   26.7800   29.7200 H   0  0  0  0  0  0  0  0  0  0  0  0
   35.8340   29.3810   34.4200 C   0  0  0  0  0  0  0  0  0  0  0  0
   36.2970   30.1580   35.4440 F   0  0  0  0  0  0  0  0  0  0  0  0
   35.9320   30.0510   33.2300 F   0  0  0  0  0  0  0  0  0  0  0  0
   34.4830   29.0820   34.6300 F   0  0  0  0  0  0  0  0  0  0  0  0
   39.0370   24.6930   34.5670 C   0  0  0  0  0  0  0  0  0  0  0  0
   38.6150   23.6040   35.6050 C   0  0  0  0  0  0  0  0  0  0  0  0
   38.7790   23.3110   34.1550 C   0  0  0  0  0  0  0  0  0  0  0  0
   39.0718   26.6652   36.1269 H   0  0  0  0  0  0  0  0  0  0  0  0
   36.2799   24.2811   32.5493 H   0  0  0  0  0  0  0  0  0  0  0  0
   38.0128   24.3429   29.2616 H   0  0  0  0  0  0  0  0  0  0  0  0
   37.3778   23.2564   30.5261 H   0  0  0  0  0  0  0  0  0  0  0  0
   39.8770   25.3767   34.3749 H   0  0  0  0  0  0  0  0  0  0  0  0
   39.3413   23.2204   36.3367 H   0  0  0  0  0  0  0  0  0  0  0  0
   37.8162   23.4878   36.3523 H   0  0  0  0  0  0  0  0  0  0  0  0
   37.8904   23.0870   33.5466 H   0  0  0  0  0  0  0  0  0  0  0  0
   39.3678   22.5677   33.5976 H   0  0  0  0  0  0  0  0  0  0  0  0
  2 16  1  0
  2  1  2  0
  3  4  2  0
  3  2  1  0
  4  5  1  0
  5 12  1  0
  5  6  2  0
  6  1  1  0
  7  3  1  0
  8  7  1  0
  9  8  2  0
 10  8  1  0
 11  9  1  0
 12 15  1  0
 12 13  1  0
 14 12  1  0
 16 17  1  0
 18 16  1  0
 18 17  1  0
  1 19  1  0
  7 20  1  0
 10 21  1  0
 10 22  1  0
 16 23  1  0
 17 24  1  0
 17 25  1  0
 18 26  1  0
 18 27  1  0
M  ISO  6  19  14  23  13  24  13  25  13  26  13  27  13
M  END
>  <minimizedAffinity>  (1) 
-4.30932999

>  <minimizedRMSD>  (1) 
5.80403805

$$$$
