
     RDKit          3D

 21 21  0  0  0  0  0  0  0  0999 V2000
   37.6380   25.4730   35.9270 C   0  0  0  0  0  0  0  0  0  0  0  0
   38.1210   24.3910   36.6760 C   0  0  0  0  0  0  0  0  0  0  0  0
   38.6670   23.3070   35.9620 C   0  0  0  0  0  0  0  0  0  0  0  0
   38.7030   23.3570   34.6210 N   0  0  0  0  0  0  0  0  0  0  0  0
   38.2260   24.4230   33.9370 C   0  0  0  0  0  0  0  0  0  0  0  0
   37.7020   25.4670   34.5780 N   0  0  0  0  0  0  0  0  0  0  0  0
   39.1850   22.1570   36.6480 N   0  0  0  0  0  0  0  0  0  0  0  0
   40.5970   22.0120   36.7850 C   0  0  0  0  0  0  0  0  0  0  0  0
   41.4230   22.5960   35.9810 N   0  0  0  0  0  0  0  0  0  0  0  0
   41.0490   21.1840   37.8620 N   0  0  0  0  0  0  0  0  0  0  0  0
   42.4490   22.5420   36.0460 H   0  0  0  0  0  0  0  0  0  0  0  0
   38.2860   24.4360   32.4350 C   0  0  0  0  0  0  0  0  0  0  0  0
   39.2250   25.3810   32.0780 F   0  0  0  0  0  0  0  0  0  0  0  0
   38.6350   23.2270   31.9360 F   0  0  0  0  0  0  0  0  0  0  0  0
   37.0430   24.8000   31.9080 F   0  0  0  0  0  0  0  0  0  0  0  0
   38.0630   24.3460   38.4640 S   0  0  0  0  0  0  0  0  0  0  0  0
   37.2007   26.3391   36.4453 H   0  0  0  0  0  0  0  0  0  0  0  0
   38.5465   21.4476   37.0352 H   0  0  0  0  0  0  0  0  0  0  0  0
   42.0577   21.0403   38.0128 H   0  0  0  0  0  0  0  0  0  0  0  0
   40.3655   20.7320   38.4860 H   0  0  0  0  0  0  0  0  0  0  0  0
   39.0679   25.1256   38.9733 H   0  0  0  0  0  0  0  0  0  0  0  0
  1  2  2  0
  2 16  1  0
  3  7  1  0
  3  2  1  0
  4  3  2  0
  5  6  2  0
  5  4  1  0
  6  1  1  0
  7  8  1  0
  8 10  1  0
  9 11  1  0
  9  8  2  0
 12  5  1  0
 13 12  1  0
 14 12  1  0
 15 12  1  0
  1 17  1  0
  7 18  1  0
 10 19  1  0
 10 20  1  0
 16 21  1  0
M  ISO  2  17  14  21  11
M  END
>  <minimizedAffinity>  (1) 
-4.23269987

>  <minimizedRMSD>  (1) 
2.52656841

$$$$
