
     RDKit          3D

 26 27  0  0  0  0  0  0  0  0999 V2000
   38.3460   24.0780   36.0070 C   0  0  0  0  0  0  0  0  0  0  0  0
   39.6560   23.8600   35.5920 C   0  0  0  0  0  0  0  0  0  0  0  0
   40.1650   24.6440   34.5580 C   0  0  0  0  0  0  0  0  0  0  0  0
   39.3700   25.5840   33.9980 N   0  0  0  0  0  0  0  0  0  0  0  0
   38.1010   25.7730   34.4260 C   0  0  0  0  0  0  0  0  0  0  0  0
   37.5970   25.0400   35.4050 N   0  0  0  0  0  0  0  0  0  0  0  0
   41.5050   24.4760   34.0780 N   0  0  0  0  0  0  0  0  0  0  0  0
   42.5040   25.4020   34.4660 C   0  0  0  0  0  0  0  0  0  0  0  0
   42.2050   26.6000   34.8460 N   0  0  0  0  0  0  0  0  0  0  0  0
   43.8570   24.9670   34.4220 N   0  0  0  0  0  0  0  0  0  0  0  0
   42.8730   27.3280   35.1610 H   0  0  0  0  0  0  0  0  0  0  0  0
   40.4630   22.8640   36.2010 N   0  0  0  0  0  0  0  0  0  0  0  0
   40.5230   22.5910   37.5160 C   0  0  0  0  0  0  0  0  0  0  0  0
   41.3920   21.5850   37.7550 N   0  0  0  0  0  0  0  0  0  0  0  0
   41.8790   21.2310   36.5430 C   0  0  0  0  0  0  0  0  0  0  0  0
   41.2870   22.0360   35.6120 N   0  0  0  0  0  0  0  0  0  0  0  0
   37.2440   26.8290   33.7790 C   0  0  0  0  0  0  0  0  0  0  0  0
   36.4880   27.4050   34.7590 F   0  0  0  0  0  0  0  0  0  0  0  0
   38.0060   27.7720   33.1480 F   0  0  0  0  0  0  0  0  0  0  0  0
   36.4030   26.2470   32.8160 F   0  0  0  0  0  0  0  0  0  0  0  0
   37.9173   23.4737   36.8200 H   0  0  0  0  0  0  0  0  0  0  0  0
   41.7394   23.6889   33.4564 H   0  0  0  0  0  0  0  0  0  0  0  0
   44.6138   25.6097   34.6961 H   0  0  0  0  0  0  0  0  0  0  0  0
   44.0803   24.0092   34.1160 H   0  0  0  0  0  0  0  0  0  0  0  0
   39.9440   23.1149   38.2908 H   0  0  0  0  0  0  0  0  0  0  0  0
   42.6167   20.4397   36.3441 H   0  0  0  0  0  0  0  0  0  0  0  0
  2  1  2  0
  2 12  1  0
  3  2  1  0
  4  5  1  0
  4  3  2  0
  5  6  2  0
  6  1  1  0
  7  8  1  0
  7  3  1  0
  8  9  2  0
  9 11  1  0
 10  8  1  0
 12 13  1  0
 13 14  2  0
 15 14  1  0
 16 12  1  0
 16 15  2  0
 17  5  1  0
 17 18  1  0
 19 17  1  0
 20 17  1  0
  1 21  1  0
  7 22  1  0
 10 23  1  0
 10 24  1  0
 13 25  1  0
 15 26  1  0
M  ISO  3  21  14  25  14  26  14
M  END
>  <minimizedAffinity>  (1) 
-4.28600407

>  <minimizedRMSD>  (1) 
3.7633841

$$$$
