
     RDKit          3D

 19 19  0  0  0  0  0  0  0  0999 V2000
   40.4870   22.4120   37.7180 C   0  0  0  0  0  0  0  0  0  0  0  0
   39.2960   23.1260   37.4300 C   0  0  0  0  0  0  0  0  0  0  0  0
   38.9540   23.2780   36.0970 C   0  0  0  0  0  0  0  0  0  0  0  0
   39.7570   22.7470   35.1370 N   0  0  0  0  0  0  0  0  0  0  0  0
   40.8880   22.0720   35.4530 C   0  0  0  0  0  0  0  0  0  0  0  0
   41.2310   21.9160   36.7270 N   0  0  0  0  0  0  0  0  0  0  0  0
   38.4120   23.7090   38.4950 C   0  0  0  0  0  0  0  0  0  0  0  0
   39.2000   23.8730   39.6220 F   0  0  0  0  0  0  0  0  0  0  0  0
   37.3870   22.8730   38.8210 F   0  0  0  0  0  0  0  0  0  0  0  0
   37.9960   24.9820   38.1360 F   0  0  0  0  0  0  0  0  0  0  0  0
   41.6460   21.5600   34.2780 C   0  0  0  0  0  0  0  0  0  0  0  0
   42.7430   20.6050   34.6300 C   0  0  0  0  0  0  0  0  0  0  0  0
   40.7990   22.2663   38.7627 H   0  0  0  0  0  0  0  0  0  0  0  0
   38.0407   23.8235   35.8172 H   0  0  0  0  0  0  0  0  0  0  0  0
   42.0900   22.4182   33.7523 H   0  0  0  0  0  0  0  0  0  0  0  0
   40.9294   21.0054   33.6543 H   0  0  0  0  0  0  0  0  0  0  0  0
   42.8278   20.5312   35.7242 H   0  0  0  0  0  0  0  0  0  0  0  0
   42.5141   19.6135   34.2123 H   0  0  0  0  0  0  0  0  0  0  0  0
   43.6935   20.9683   34.2123 H   0  0  0  0  0  0  0  0  0  0  0  0
  2  1  2  0
  2  7  1  0
  3  2  1  0
  4  5  1  0
  4  3  2  0
  5  6  2  0
  6  1  1  0
  7  9  1  0
  7  8  1  0
 10  7  1  0
 11 12  1  0
 11  5  1  0
  1 13  1  0
  3 14  1  0
 11 15  1  0
 11 16  1  0
 12 17  1  0
 12 18  1  0
 12 19  1  0
M  ISO  7  13  14  14  14  15   8  16   8  17   8  18   8  19   8
M  END
>  <minimizedAffinity>  (1) 
-3.75355411

>  <minimizedRMSD>  (1) 
0.467444479

$$$$
