
     RDKit          3D

 41 43  0  0  0  0  0  0  0  0999 V2000
   38.2530   24.4830   35.8410 C   0  0  0  0  0  0  0  0  0  0  0  0
   39.5650   24.1610   35.4870 C   0  0  0  0  0  0  0  0  0  0  0  0
   40.1670   24.8670   34.4580 C   0  0  0  0  0  0  0  0  0  0  0  0
   39.4760   25.8360   33.8320 N   0  0  0  0  0  0  0  0  0  0  0  0
   38.2020   26.1330   34.1910 C   0  0  0  0  0  0  0  0  0  0  0  0
   37.6040   25.4730   35.1710 N   0  0  0  0  0  0  0  0  0  0  0  0
   41.5200   24.5780   34.0490 N   0  0  0  0  0  0  0  0  0  0  0  0
   42.5590   25.4430   34.4480 C   0  0  0  0  0  0  0  0  0  0  0  0
   42.3390   26.6790   34.7710 N   0  0  0  0  0  0  0  0  0  0  0  0
   43.8840   24.9090   34.4850 N   0  0  0  0  0  0  0  0  0  0  0  0
   43.0470   27.3640   35.1000 H   0  0  0  0  0  0  0  0  0  0  0  0
   40.2700   23.1280   36.1710 N   0  0  0  0  0  0  0  0  0  0  0  0
   40.1280   22.8000   37.4570 C   0  0  0  0  0  0  0  0  0  0  0  0
   40.9470   21.7730   37.7880 N   0  0  0  0  0  0  0  0  0  0  0  0
   41.6110   21.4700   36.6520 C   0  0  0  0  0  0  0  0  0  0  0  0
   41.1670   22.3220   35.6880 N   0  0  0  0  0  0  0  0  0  0  0  0
   42.6030   20.5340   36.2390 N   0  0  0  0  0  0  0  0  0  0  0  0
   43.0700   19.3300   36.8960 C   0  0  0  0  0  0  0  0  0  0  0  0
   44.5390   19.1960   37.0090 C   0  0  0  0  0  0  0  0  0  0  0  0
   45.3810   20.0040   36.1010 C   0  0  0  0  0  0  0  0  0  0  0  0
   44.7110   21.1740   35.4450 C   0  0  0  0  0  0  0  0  0  0  0  0
   43.3300   20.6940   34.9910 C   0  0  0  0  0  0  0  0  0  0  0  0
   37.4570   27.2210   33.4720 C   0  0  0  0  0  0  0  0  0  0  0  0
   37.0250   28.1160   34.4060 F   0  0  0  0  0  0  0  0  0  0  0  0
   38.2600   27.8450   32.5440 F   0  0  0  0  0  0  0  0  0  0  0  0
   36.3590   26.6900   32.7790 F   0  0  0  0  0  0  0  0  0  0  0  0
   37.7489   23.9408   36.6545 H   0  0  0  0  0  0  0  0  0  0  0  0
   41.7243   23.7494   33.4723 H   0  0  0  0  0  0  0  0  0  0  0  0
   44.6724   25.5069   34.7709 H   0  0  0  0  0  0  0  0  0  0  0  0
   44.0506   23.9262   34.2257 H   0  0  0  0  0  0  0  0  0  0  0  0
   39.4381   23.2972   38.1548 H   0  0  0  0  0  0  0  0  0  0  0  0
   42.6488   19.3130   37.9120 H   0  0  0  0  0  0  0  0  0  0  0  0
   42.7377   18.4927   36.2647 H   0  0  0  0  0  0  0  0  0  0  0  0
   44.8141   19.4677   38.0388 H   0  0  0  0  0  0  0  0  0  0  0  0
   44.7433   18.1546   36.7196 H   0  0  0  0  0  0  0  0  0  0  0  0
   46.2315   20.3874   36.6839 H   0  0  0  0  0  0  0  0  0  0  0  0
   45.6634   19.3277   35.2807 H   0  0  0  0  0  0  0  0  0  0  0  0
   44.6076   22.0021   36.1616 H   0  0  0  0  0  0  0  0  0  0  0  0
   45.3018   21.5408   34.5927 H   0  0  0  0  0  0  0  0  0  0  0  0
   42.8455   21.4420   34.3462 H   0  0  0  0  0  0  0  0  0  0  0  0
   43.3704   19.7699   34.3956 H   0  0  0  0  0  0  0  0  0  0  0  0
  2  1  2  0
  2 12  1  0
  3  2  1  0
  4  5  1  0
  4  3  2  0
  5  6  2  0
  6  1  1  0
  7  8  1  0
  7  3  1  0
  8 10  1  0
  8  9  2  0
  9 11  1  0
 12 13  1  0
 13 14  2  0
 15 14  1  0
 16 12  1  0
 16 15  2  0
 17 15  1  0
 17 18  1  0
 18 19  1  0
 20 19  1  0
 21 20  1  0
 22 21  1  0
 22 17  1  0
 23  5  1  0
 23 24  1  0
 25 23  1  0
 26 23  1  0
  1 27  1  0
  7 28  1  0
 10 29  1  0
 10 30  1  0
 13 31  1  0
 18 32  1  0
 18 33  1  0
 19 34  1  0
 19 35  1  0
 20 36  1  0
 20 37  1  0
 21 38  1  0
 21 39  1  0
 22 40  1  0
 22 41  1  0
M  ISO  8  27  14  31  14  32  13  33  13  34  13  35  13  36  13  37  13
M  ISO  4  38  13  39  13  40  13  41  13
M  END
>  <minimizedAffinity>  (1) 
-5.2900424

>  <minimizedRMSD>  (1) 
0.460311443

$$$$
