
     RDKit          3D

 33 35  0  0  0  0  0  0  0  0999 V2000
   37.6880   25.1830   35.7820 C   0  0  0  0  0  0  0  0  0  0  0  0
   38.9770   24.7340   35.4880 C   0  0  0  0  0  0  0  0  0  0  0  0
   39.6280   25.2750   34.3850 C   0  0  0  0  0  0  0  0  0  0  0  0
   38.9930   26.2060   33.6450 N   0  0  0  0  0  0  0  0  0  0  0  0
   37.7510   26.6240   33.9440 C   0  0  0  0  0  0  0  0  0  0  0  0
   37.1060   26.1230   34.9950 N   0  0  0  0  0  0  0  0  0  0  0  0
   40.9530   24.8590   34.0280 N   0  0  0  0  0  0  0  0  0  0  0  0
   42.0480   25.7020   34.3390 C   0  0  0  0  0  0  0  0  0  0  0  0
   41.8960   26.9770   34.5170 N   0  0  0  0  0  0  0  0  0  0  0  0
   43.3300   25.1020   34.4520 N   0  0  0  0  0  0  0  0  0  0  0  0
   42.6420   27.6570   34.7710 H   0  0  0  0  0  0  0  0  0  0  0  0
   39.6120   23.7520   36.2930 N   0  0  0  0  0  0  0  0  0  0  0  0
   39.3590   23.5190   37.5870 C   0  0  0  0  0  0  0  0  0  0  0  0
   40.1290   22.5210   38.0610 N   0  0  0  0  0  0  0  0  0  0  0  0
   40.8860   22.1280   37.0030 C   0  0  0  0  0  0  0  0  0  0  0  0
   40.5380   22.9070   35.9400 N   0  0  0  0  0  0  0  0  0  0  0  0
   41.9030   21.0830   36.9220 C   0  0  0  0  0  0  0  0  0  0  0  0
   42.6310   20.8180   35.7600 C   0  0  0  0  0  0  0  0  0  0  0  0
   43.4860   19.8210   35.9610 N   0  0  0  0  0  0  0  0  0  0  0  0
   43.3100   19.4410   37.2550 C   0  0  0  0  0  0  0  0  0  0  0  0
   42.3580   20.2020   37.8310 N   0  0  0  0  0  0  0  0  0  0  0  0
   37.0710   27.6600   33.1020 C   0  0  0  0  0  0  0  0  0  0  0  0
   36.5990   28.6350   33.9350 F   0  0  0  0  0  0  0  0  0  0  0  0
   37.9390   28.1950   32.1830 F   0  0  0  0  0  0  0  0  0  0  0  0
   36.0070   27.0890   32.3770 F   0  0  0  0  0  0  0  0  0  0  0  0
   37.1461   24.7762   36.6485 H   0  0  0  0  0  0  0  0  0  0  0  0
   41.1065   23.9588   33.5516 H   0  0  0  0  0  0  0  0  0  0  0  0
   44.1516   25.6810   34.6769 H   0  0  0  0  0  0  0  0  0  0  0  0
   43.4383   24.0877   34.3091 H   0  0  0  0  0  0  0  0  0  0  0  0
   38.6187   24.0708   38.1849 H   0  0  0  0  0  0  0  0  0  0  0  0
   42.5129   21.3597   34.8099 H   0  0  0  0  0  0  0  0  0  0  0  0
   43.8623   18.6329   37.7569 H   0  0  0  0  0  0  0  0  0  0  0  0
   42.0330   20.1222   38.8051 H   0  0  0  0  0  0  0  0  0  0  0  0
  2  1  2  0
  2 12  1  0
  3  2  1  0
  4  5  1  0
  4  3  2  0
  5  6  2  0
  6  1  1  0
  7  8  1  0
  7  3  1  0
  8 10  1  0
  8  9  2  0
  9 11  1  0
 12 13  1  0
 13 14  2  0
 15 14  1  0
 16 12  1  0
 16 15  2  0
 17 15  1  0
 17 21  1  0
 18 19  1  0
 18 17  2  0
 19 20  2  0
 20 21  1  0
 22 23  1  0
 22  5  1  0
 24 22  1  0
 25 22  1  0
  1 26  1  0
  7 27  1  0
 10 28  1  0
 10 29  1  0
 13 30  1  0
 18 31  1  0
 20 32  1  0
 21 33  1  0
M  ISO  5  26  14  30  14  31  14  32  14  33   9
M  END
>  <minimizedAffinity>  (1) 
-5.28898573

>  <minimizedRMSD>  (1) 
1.22275162

$$$$
