
     RDKit          3D

 34 36  0  0  0  0  0  0  0  0999 V2000
   38.1150   24.7850   35.8700 C   0  0  0  0  0  0  0  0  0  0  0  0
   39.4150   24.4540   35.4660 C   0  0  0  0  0  0  0  0  0  0  0  0
   39.9570   25.1260   34.3840 C   0  0  0  0  0  0  0  0  0  0  0  0
   39.2170   26.0730   33.7590 N   0  0  0  0  0  0  0  0  0  0  0  0
   37.9710   26.3760   34.1640 C   0  0  0  0  0  0  0  0  0  0  0  0
   37.4270   25.7460   35.1990 N   0  0  0  0  0  0  0  0  0  0  0  0
   41.2750   24.8440   33.9150 N   0  0  0  0  0  0  0  0  0  0  0  0
   42.3410   25.7240   34.2240 C   0  0  0  0  0  0  0  0  0  0  0  0
   42.1200   26.9660   34.5180 N   0  0  0  0  0  0  0  0  0  0  0  0
   43.6590   25.1970   34.1990 N   0  0  0  0  0  0  0  0  0  0  0  0
   42.8310   27.6680   34.7720 H   0  0  0  0  0  0  0  0  0  0  0  0
   40.1520   23.4600   36.1450 N   0  0  0  0  0  0  0  0  0  0  0  0
   39.8430   22.8950   37.3230 C   0  0  0  0  0  0  0  0  0  0  0  0
   40.7750   21.9810   37.6730 N   0  0  0  0  0  0  0  0  0  0  0  0
   41.6870   21.9840   36.6780 C   0  0  0  0  0  0  0  0  0  0  0  0
   41.2630   22.9030   35.7680 N   0  0  0  0  0  0  0  0  0  0  0  0
   42.8900   21.1540   36.6060 C   0  0  0  0  0  0  0  0  0  0  0  0
   42.8730   19.8940   37.1650 C   0  0  0  0  0  0  0  0  0  0  0  0
   44.0540   19.1490   37.0650 C   0  0  0  0  0  0  0  0  0  0  0  0
   45.1380   19.6740   36.4410 N   0  0  0  0  0  0  0  0  0  0  0  0
   45.1310   20.9070   35.9010 C   0  0  0  0  0  0  0  0  0  0  0  0
   43.9840   21.6400   35.9950 N   0  0  0  0  0  0  0  0  0  0  0  0
   37.1800   27.4320   33.4470 C   0  0  0  0  0  0  0  0  0  0  0  0
   36.6910   28.2990   34.3900 F   0  0  0  0  0  0  0  0  0  0  0  0
   37.9490   28.0980   32.5420 F   0  0  0  0  0  0  0  0  0  0  0  0
   36.1090   26.8430   32.7520 F   0  0  0  0  0  0  0  0  0  0  0  0
   37.6537   24.2699   36.7255 H   0  0  0  0  0  0  0  0  0  0  0  0
   41.4512   24.0000   33.3515 H   0  0  0  0  0  0  0  0  0  0  0  0
   44.4610   25.8051   34.4179 H   0  0  0  0  0  0  0  0  0  0  0  0
   43.8132   24.2066   33.9620 H   0  0  0  0  0  0  0  0  0  0  0  0
   38.9535   23.1420   37.9211 H   0  0  0  0  0  0  0  0  0  0  0  0
   41.9777   19.4946   37.6639 H   0  0  0  0  0  0  0  0  0  0  0  0
   44.1030   18.1368   37.4929 H   0  0  0  0  0  0  0  0  0  0  0  0
   46.0226   21.3112   35.3993 H   0  0  0  0  0  0  0  0  0  0  0  0
  2  1  2  0
  2 12  1  0
  3  2  1  0
  4  5  1  0
  4  3  2  0
  5  6  2  0
  6  1  1  0
  7  8  1  0
  7  3  1  0
  8  9  2  0
  9 11  1  0
 10  8  1  0
 12 13  1  0
 13 14  2  0
 15 14  1  0
 16 12  1  0
 16 15  2  0
 17 15  1  0
 17 18  2  0
 19 18  1  0
 20 19  2  0
 21 22  2  0
 21 20  1  0
 22 17  1  0
 23  5  1  0
 23 24  1  0
 25 23  1  0
 26 23  1  0
  1 27  1  0
  7 28  1  0
 10 29  1  0
 10 30  1  0
 13 31  1  0
 18 32  1  0
 19 33  1  0
 21 34  1  0
M  ISO  5  27  14  31  14  32  14  33  14  34  14
M  END
>  <minimizedAffinity>  (1) 
-5.16533279

>  <minimizedRMSD>  (1) 
0.883130491

$$$$
