
     RDKit          3D

 39 41  0  0  0  0  0  0  0  0999 V2000
   38.3250   24.1350   36.0710 C   0  0  0  0  0  0  0  0  0  0  0  0
   39.6150   23.9060   35.6150 C   0  0  0  0  0  0  0  0  0  0  0  0
   40.1100   24.6880   34.5740 C   0  0  0  0  0  0  0  0  0  0  0  0
   39.3070   25.6430   34.0480 N   0  0  0  0  0  0  0  0  0  0  0  0
   38.0590   25.8470   34.5090 C   0  0  0  0  0  0  0  0  0  0  0  0
   37.5720   25.1120   35.4970 N   0  0  0  0  0  0  0  0  0  0  0  0
   41.4370   24.5080   34.0490 N   0  0  0  0  0  0  0  0  0  0  0  0
   42.4520   25.4220   34.4210 C   0  0  0  0  0  0  0  0  0  0  0  0
   42.1850   26.6160   34.8190 N   0  0  0  0  0  0  0  0  0  0  0  0
   43.8010   24.9740   34.3400 N   0  0  0  0  0  0  0  0  0  0  0  0
   42.8710   27.3350   35.1210 H   0  0  0  0  0  0  0  0  0  0  0  0
   40.4320   22.8920   36.1910 N   0  0  0  0  0  0  0  0  0  0  0  0
   40.5310   22.6120   37.5010 C   0  0  0  0  0  0  0  0  0  0  0  0
   41.3990   21.5870   37.7070 N   0  0  0  0  0  0  0  0  0  0  0  0
   41.8300   21.2460   36.4810 C   0  0  0  0  0  0  0  0  0  0  0  0
   41.2330   22.0500   35.5690 N   0  0  0  0  0  0  0  0  0  0  0  0
   42.7580   20.2190   36.1640 N   0  0  0  0  0  0  0  0  0  0  0  0
   43.3570   19.4020   37.1800 C   0  0  0  0  0  0  0  0  0  0  0  0
   43.1590   17.9540   36.7280 C   0  0  0  0  0  0  0  0  0  0  0  0
   43.9160   17.7830   35.5880 O   0  0  0  0  0  0  0  0  0  0  0  0
   43.2940   18.4600   34.5420 C   0  0  0  0  0  0  0  0  0  0  0  0
   43.1530   19.9350   34.8220 C   0  0  0  0  0  0  0  0  0  0  0  0
   37.1960   26.9200   33.8980 C   0  0  0  0  0  0  0  0  0  0  0  0
   36.4410   27.4590   34.8840 F   0  0  0  0  0  0  0  0  0  0  0  0
   37.9620   27.8830   33.2900 F   0  0  0  0  0  0  0  0  0  0  0  0
   36.3550   26.3600   32.9170 F   0  0  0  0  0  0  0  0  0  0  0  0
   37.9132   23.5300   36.8922 H   0  0  0  0  0  0  0  0  0  0  0  0
   41.6456   23.7259   33.4120 H   0  0  0  0  0  0  0  0  0  0  0  0
   44.5704   25.6069   34.6013 H   0  0  0  0  0  0  0  0  0  0  0  0
   44.0075   24.0169   34.0201 H   0  0  0  0  0  0  0  0  0  0  0  0
   39.9849   23.1395   38.2970 H   0  0  0  0  0  0  0  0  0  0  0  0
   44.4291   19.6306   37.2715 H   0  0  0  0  0  0  0  0  0  0  0  0
   42.8998   19.5830   38.1640 H   0  0  0  0  0  0  0  0  0  0  0  0
   43.4974   17.2628   37.5140 H   0  0  0  0  0  0  0  0  0  0  0  0
   42.0973   17.7449   36.5306 H   0  0  0  0  0  0  0  0  0  0  0  0
   42.2927   18.0313   34.3884 H   0  0  0  0  0  0  0  0  0  0  0  0
   43.9207   18.3449   33.6453 H   0  0  0  0  0  0  0  0  0  0  0  0
   44.1217   20.4206   34.6328 H   0  0  0  0  0  0  0  0  0  0  0  0
   42.3616   20.3182   34.1611 H   0  0  0  0  0  0  0  0  0  0  0  0
  2  1  2  0
  2 12  1  0
  3  2  1  0
  4  5  1  0
  4  3  2  0
  5  6  2  0
  6  1  1  0
  7  8  1  0
  7  3  1  0
  8  9  2  0
  9 11  1  0
 10  8  1  0
 12 13  1  0
 13 14  2  0
 15 14  1  0
 16 12  1  0
 16 15  2  0
 17 15  1  0
 17 18  1  0
 19 18  1  0
 20 19  1  0
 21 22  1  0
 21 20  1  0
 22 17  1  0
 23  5  1  0
 23 24  1  0
 25 23  1  0
 26 23  1  0
  1 27  1  0
  7 28  1  0
 10 29  1  0
 10 30  1  0
 13 31  1  0
 18 32  1  0
 18 33  1  0
 19 34  1  0
 19 35  1  0
 21 36  1  0
 21 37  1  0
 22 38  1  0
 22 39  1  0
M  ISO  8  27  14  31  14  32  13  33  13  34  13  35  13  36  13  37  13
M  ISO  2  38  13  39  13
M  END
>  <minimizedAffinity>  (1) 
-5.06688023

>  <minimizedRMSD>  (1) 
0.116975605

$$$$
