
     RDKit          3D

 40 42  0  0  0  0  0  0  0  0999 V2000
   38.6250   23.5850   36.0910 C   0  0  0  0  0  0  0  0  0  0  0  0
   39.9450   23.4370   35.6920 C   0  0  0  0  0  0  0  0  0  0  0  0
   40.4290   24.2730   34.6940 C   0  0  0  0  0  0  0  0  0  0  0  0
   39.6060   25.2020   34.1440 N   0  0  0  0  0  0  0  0  0  0  0  0
   38.3240   25.3130   34.5620 C   0  0  0  0  0  0  0  0  0  0  0  0
   37.8410   24.5300   35.5090 N   0  0  0  0  0  0  0  0  0  0  0  0
   41.7860   24.1850   34.2230 N   0  0  0  0  0  0  0  0  0  0  0  0
   42.7410   25.1440   34.6570 C   0  0  0  0  0  0  0  0  0  0  0  0
   42.3810   26.3170   35.0650 N   0  0  0  0  0  0  0  0  0  0  0  0
   44.1130   24.7740   34.6290 N   0  0  0  0  0  0  0  0  0  0  0  0
   43.0110   27.0620   35.4260 H   0  0  0  0  0  0  0  0  0  0  0  0
   40.7930   22.4620   36.2760 N   0  0  0  0  0  0  0  0  0  0  0  0
   40.8600   22.1620   37.5930 C   0  0  0  0  0  0  0  0  0  0  0  0
   41.7740   21.1850   37.8100 N   0  0  0  0  0  0  0  0  0  0  0  0
   42.2670   20.8920   36.5960 C   0  0  0  0  0  0  0  0  0  0  0  0
   41.6620   21.6760   35.6720 N   0  0  0  0  0  0  0  0  0  0  0  0
   43.2650   19.9100   36.3480 N   0  0  0  0  0  0  0  0  0  0  0  0
   44.6650   20.2880   36.3770 C   0  0  0  0  0  0  0  0  0  0  0  0
   45.4560   19.0210   36.6330 C   0  0  0  0  0  0  0  0  0  0  0  0
   44.7870   18.1950   37.5870 N   0  0  0  0  0  0  0  0  0  0  0  0
   43.5070   17.6980   37.1950 C   0  0  0  0  0  0  0  0  0  0  0  0
   42.9360   18.5250   36.0640 C   0  0  0  0  0  0  0  0  0  0  0  0
   37.4230   26.3500   33.9410 C   0  0  0  0  0  0  0  0  0  0  0  0
   36.6550   26.8830   34.9230 F   0  0  0  0  0  0  0  0  0  0  0  0
   38.1530   27.3230   33.3120 F   0  0  0  0  0  0  0  0  0  0  0  0
   36.6010   25.7500   32.9630 F   0  0  0  0  0  0  0  0  0  0  0  0
   38.2127   22.9373   36.8787 H   0  0  0  0  0  0  0  0  0  0  0  0
   42.0630   23.4327   33.5763 H   0  0  0  0  0  0  0  0  0  0  0  0
   44.8332   25.4432   34.9362 H   0  0  0  0  0  0  0  0  0  0  0  0
   44.3870   23.8367   34.3016 H   0  0  0  0  0  0  0  0  0  0  0  0
   40.2576   22.6431   38.3776 H   0  0  0  0  0  0  0  0  0  0  0  0
   44.9581   20.7290   35.4128 H   0  0  0  0  0  0  0  0  0  0  0  0
   44.8553   21.0368   37.1600 H   0  0  0  0  0  0  0  0  0  0  0  0
   45.5663   18.4668   35.6893 H   0  0  0  0  0  0  0  0  0  0  0  0
   46.4442   19.2942   37.0315 H   0  0  0  0  0  0  0  0  0  0  0  0
   45.3930   17.3855   37.7831 H   0  0  0  0  0  0  0  0  0  0  0  0
   43.6110   16.6546   36.8626 H   0  0  0  0  0  0  0  0  0  0  0  0
   42.8253   17.7579   38.0562 H   0  0  0  0  0  0  0  0  0  0  0  0
   41.8445   18.3975   36.0156 H   0  0  0  0  0  0  0  0  0  0  0  0
   43.3539   18.2111   35.0961 H   0  0  0  0  0  0  0  0  0  0  0  0
  2  1  2  0
  2 12  1  0
  3  2  1  0
  4  5  1  0
  4  3  2  0
  5  6  2  0
  6  1  1  0
  7  8  1  0
  7  3  1  0
  8  9  2  0
  9 11  1  0
 10  8  1  0
 12 13  1  0
 13 14  2  0
 15 14  1  0
 16 12  1  0
 16 15  2  0
 17 18  1  0
 17 15  1  0
 18 19  1  0
 19 20  1  0
 21 20  1  0
 22 17  1  0
 22 21  1  0
 23  5  1  0
 23 24  1  0
 25 23  1  0
 26 23  1  0
  1 27  1  0
  7 28  1  0
 10 29  1  0
 10 30  1  0
 13 31  1  0
 18 32  1  0
 18 33  1  0
 19 34  1  0
 19 35  1  0
 20 36  1  0
 21 37  1  0
 21 38  1  0
 22 39  1  0
 22 40  1  0
M  ISO  8  27  14  31  14  32  13  33  13  34  13  35  13  36   5  37  13
M  ISO  3  38  13  39  13  40  13
M  END
>  <minimizedAffinity>  (1) 
-5.05390739

>  <minimizedRMSD>  (1) 
0.520164728

$$$$
