
     RDKit          3D

 29 30  0  0  0  0  0  0  0  0999 V2000
   38.3060   24.1550   36.0020 C   0  0  0  0  0  0  0  0  0  0  0  0
   39.6130   23.9270   35.6000 C   0  0  0  0  0  0  0  0  0  0  0  0
   40.1390   24.6780   34.5590 C   0  0  0  0  0  0  0  0  0  0  0  0
   39.3520   25.6100   33.9730 N   0  0  0  0  0  0  0  0  0  0  0  0
   38.0840   25.8140   34.3800 C   0  0  0  0  0  0  0  0  0  0  0  0
   37.5640   25.1050   35.3740 N   0  0  0  0  0  0  0  0  0  0  0  0
   41.4830   24.4960   34.0920 N   0  0  0  0  0  0  0  0  0  0  0  0
   42.4830   25.4260   34.4800 C   0  0  0  0  0  0  0  0  0  0  0  0
   42.1840   26.6320   34.8280 N   0  0  0  0  0  0  0  0  0  0  0  0
   43.8310   24.9870   34.4770 N   0  0  0  0  0  0  0  0  0  0  0  0
   42.8470   27.3670   35.1380 H   0  0  0  0  0  0  0  0  0  0  0  0
   40.4110   22.9340   36.2470 N   0  0  0  0  0  0  0  0  0  0  0  0
   40.3940   22.6320   37.5530 C   0  0  0  0  0  0  0  0  0  0  0  0
   41.2740   21.6470   37.8130 N   0  0  0  0  0  0  0  0  0  0  0  0
   41.8420   21.3400   36.6350 C   0  0  0  0  0  0  0  0  0  0  0  0
   41.2990   22.1390   35.6880 N   0  0  0  0  0  0  0  0  0  0  0  0
   42.8930   20.3130   36.3240 C   0  0  0  0  0  0  0  0  0  0  0  0
   42.7310   19.8650   35.0280 F   0  0  0  0  0  0  0  0  0  0  0  0
   44.1680   20.8560   36.3710 F   0  0  0  0  0  0  0  0  0  0  0  0
   42.8760   19.2680   37.2390 F   0  0  0  0  0  0  0  0  0  0  0  0
   37.2250   26.8580   33.7100 C   0  0  0  0  0  0  0  0  0  0  0  0
   36.4990   27.4880   34.6770 F   0  0  0  0  0  0  0  0  0  0  0  0
   38.0010   27.7620   33.0340 F   0  0  0  0  0  0  0  0  0  0  0  0
   36.3690   26.2590   32.7770 F   0  0  0  0  0  0  0  0  0  0  0  0
   37.8713   23.5696   36.8256 H   0  0  0  0  0  0  0  0  0  0  0  0
   41.7197   23.7002   33.4825 H   0  0  0  0  0  0  0  0  0  0  0  0
   44.5838   25.6337   34.7525 H   0  0  0  0  0  0  0  0  0  0  0  0
   44.0575   24.0213   34.1993 H   0  0  0  0  0  0  0  0  0  0  0  0
   39.7537   23.1186   38.3035 H   0  0  0  0  0  0  0  0  0  0  0  0
  2  1  2  0
  2 12  1  0
  3  2  1  0
  4  5  1  0
  4  3  2  0
  5  6  2  0
  6  1  1  0
  7  8  1  0
  7  3  1  0
  8  9  2  0
  9 11  1  0
 10  8  1  0
 12 13  1  0
 13 14  2  0
 15 14  1  0
 16 12  1  0
 16 15  2  0
 17 19  1  0
 17 15  1  0
 17 20  1  0
 18 17  1  0
 21  5  1  0
 21 22  1  0
 23 21  1  0
 24 21  1  0
  1 25  1  0
  7 26  1  0
 10 27  1  0
 10 28  1  0
 13 29  1  0
M  ISO  2  25  14  29  14
M  END
>  <minimizedAffinity>  (1) 
-4.72108078

>  <minimizedRMSD>  (1) 
0.395168751

$$$$
