
     RDKit          3D

 33 35  0  0  0  0  0  0  0  0999 V2000
   38.3940   24.1560   36.0250 C   0  0  0  0  0  0  0  0  0  0  0  0
   39.7030   23.9550   35.6110 C   0  0  0  0  0  0  0  0  0  0  0  0
   40.2000   24.7200   34.5520 C   0  0  0  0  0  0  0  0  0  0  0  0
   39.3850   25.6330   33.9660 N   0  0  0  0  0  0  0  0  0  0  0  0
   38.1120   25.8030   34.3970 C   0  0  0  0  0  0  0  0  0  0  0  0
   37.6280   25.0850   35.4000 N   0  0  0  0  0  0  0  0  0  0  0  0
   41.5350   24.5740   34.0660 N   0  0  0  0  0  0  0  0  0  0  0  0
   42.5180   25.5190   34.4170 C   0  0  0  0  0  0  0  0  0  0  0  0
   42.1990   26.7210   34.7640 N   0  0  0  0  0  0  0  0  0  0  0  0
   43.8830   25.1110   34.3800 N   0  0  0  0  0  0  0  0  0  0  0  0
   42.8530   27.4750   35.0760 H   0  0  0  0  0  0  0  0  0  0  0  0
   40.5350   22.9970   36.2370 N   0  0  0  0  0  0  0  0  0  0  0  0
   40.3780   22.5020   37.4710 C   0  0  0  0  0  0  0  0  0  0  0  0
   41.3520   21.6030   37.7550 N   0  0  0  0  0  0  0  0  0  0  0  0
   42.1270   21.5500   36.6560 C   0  0  0  0  0  0  0  0  0  0  0  0
   41.5990   22.4120   35.7530 N   0  0  0  0  0  0  0  0  0  0  0  0
   43.3220   20.6960   36.5090 C   0  0  0  0  0  0  0  0  0  0  0  0
   43.1200   19.5060   35.5580 C   0  0  0  0  0  0  0  0  0  0  0  0
   43.3400   19.3070   37.0200 C   0  0  0  0  0  0  0  0  0  0  0  0
   37.2280   26.8230   33.7290 C   0  0  0  0  0  0  0  0  0  0  0  0
   36.4880   27.4280   34.6950 F   0  0  0  0  0  0  0  0  0  0  0  0
   37.9700   27.7530   33.0540 F   0  0  0  0  0  0  0  0  0  0  0  0
   36.3830   26.1870   32.7920 F   0  0  0  0  0  0  0  0  0  0  0  0
   37.9797   23.5654   36.8554 H   0  0  0  0  0  0  0  0  0  0  0  0
   41.7785   23.7781   33.4593 H   0  0  0  0  0  0  0  0  0  0  0  0
   44.6268   25.7778   34.6309 H   0  0  0  0  0  0  0  0  0  0  0  0
   44.1257   24.1493   34.1024 H   0  0  0  0  0  0  0  0  0  0  0  0
   39.5691   22.7860   38.1603 H   0  0  0  0  0  0  0  0  0  0  0  0
   44.0141   21.5411   36.6387 H   0  0  0  0  0  0  0  0  0  0  0  0
   42.1320   19.3123   35.1149 H   0  0  0  0  0  0  0  0  0  0  0  0
   43.5981   19.1471   34.6346 H   0  0  0  0  0  0  0  0  0  0  0  0
   44.2857   18.8698   37.3729 H   0  0  0  0  0  0  0  0  0  0  0  0
   42.7891   18.7763   37.8105 H   0  0  0  0  0  0  0  0  0  0  0  0
  2  1  2  0
  2 12  1  0
  3  2  1  0
  4  5  1  0
  4  3  2  0
  5  6  2  0
  6  1  1  0
  7  8  1  0
  7  3  1  0
  8  9  2  0
  9 11  1  0
 10  8  1  0
 12 13  1  0
 13 14  2  0
 15 14  1  0
 16 12  1  0
 16 15  2  0
 17 15  1  0
 17 19  1  0
 18 17  1  0
 18 19  1  0
 20  5  1  0
 20 21  1  0
 22 20  1  0
 23 20  1  0
  1 24  1  0
  7 25  1  0
 10 26  1  0
 10 27  1  0
 13 28  1  0
 17 29  1  0
 18 30  1  0
 18 31  1  0
 19 32  1  0
 19 33  1  0
M  ISO  7  24  14  28  14  29  13  30  13  31  13  32  13  33  13
M  END
>  <minimizedAffinity>  (1) 
-4.68623114

>  <minimizedRMSD>  (1) 
0.363702089

$$$$
