
     RDKit          3D

 27 28  0  0  0  0  0  0  0  0999 V2000
   38.3380   24.0850   36.0180 C   0  0  0  0  0  0  0  0  0  0  0  0
   39.6460   23.8610   35.6010 C   0  0  0  0  0  0  0  0  0  0  0  0
   40.1610   24.6350   34.5620 C   0  0  0  0  0  0  0  0  0  0  0  0
   39.3580   25.5780   34.0030 N   0  0  0  0  0  0  0  0  0  0  0  0
   38.0890   25.7700   34.4350 C   0  0  0  0  0  0  0  0  0  0  0  0
   37.5830   25.0440   35.4190 N   0  0  0  0  0  0  0  0  0  0  0  0
   41.4940   24.4630   34.0790 N   0  0  0  0  0  0  0  0  0  0  0  0
   42.4900   25.3940   34.4710 C   0  0  0  0  0  0  0  0  0  0  0  0
   42.1930   26.5910   34.8520 N   0  0  0  0  0  0  0  0  0  0  0  0
   43.8460   24.9490   34.4260 N   0  0  0  0  0  0  0  0  0  0  0  0
   42.8670   27.3190   35.1740 H   0  0  0  0  0  0  0  0  0  0  0  0
   40.4540   22.8600   36.2170 N   0  0  0  0  0  0  0  0  0  0  0  0
   40.5240   22.6010   37.5310 C   0  0  0  0  0  0  0  0  0  0  0  0
   41.3930   21.5850   37.7580 N   0  0  0  0  0  0  0  0  0  0  0  0
   41.8630   21.2170   36.5530 C   0  0  0  0  0  0  0  0  0  0  0  0
   41.2660   22.0220   35.6110 N   0  0  0  0  0  0  0  0  0  0  0  0
   42.7470   20.2870   36.0190 O   0  0  0  0  0  0  0  0  0  0  0  0
   37.2390   26.8260   33.7840 C   0  0  0  0  0  0  0  0  0  0  0  0
   36.4870   27.4120   34.7640 F   0  0  0  0  0  0  0  0  0  0  0  0
   37.9980   27.7740   33.1580 F   0  0  0  0  0  0  0  0  0  0  0  0
   36.4030   26.2570   32.8170 F   0  0  0  0  0  0  0  0  0  0  0  0
   37.9129   23.4840   36.8354 H   0  0  0  0  0  0  0  0  0  0  0  0
   41.7282   23.6764   33.4567 H   0  0  0  0  0  0  0  0  0  0  0  0
   44.6067   25.5868   34.7006 H   0  0  0  0  0  0  0  0  0  0  0  0
   44.0634   23.9902   34.1189 H   0  0  0  0  0  0  0  0  0  0  0  0
   39.9595   23.1343   38.3101 H   0  0  0  0  0  0  0  0  0  0  0  0
   42.8968   20.2512   35.0411 H   0  0  0  0  0  0  0  0  0  0  0  0
  2  1  2  0
  2 12  1  0
  3  2  1  0
  4  5  1  0
  4  3  2  0
  5  6  2  0
  6  1  1  0
  7  8  1  0
  7  3  1  0
  8  9  2  0
  9 11  1  0
 10  8  1  0
 12 13  1  0
 13 14  2  0
 15 14  1  0
 16 12  1  0
 16 15  2  0
 17 15  1  0
 18  5  1  0
 18 19  1  0
 20 18  1  0
 21 18  1  0
  1 22  1  0
  7 23  1  0
 10 24  1  0
 10 25  1  0
 13 26  1  0
 17 27  1  0
M  ISO  3  22  14  26  14  27   3
M  END
>  <minimizedAffinity>  (1) 
-4.41483021

>  <minimizedRMSD>  (1) 
0.01645636

$$$$
