
     RDKit          3D

 28 29  0  0  0  0  0  0  0  0999 V2000
   38.3620   24.0700   35.9940 C   0  0  0  0  0  0  0  0  0  0  0  0
   39.6670   23.8510   35.5840 C   0  0  0  0  0  0  0  0  0  0  0  0
   40.1730   24.6330   34.5510 C   0  0  0  0  0  0  0  0  0  0  0  0
   39.3740   25.5720   33.9890 N   0  0  0  0  0  0  0  0  0  0  0  0
   38.1110   25.7570   34.4130 C   0  0  0  0  0  0  0  0  0  0  0  0
   37.6050   25.0280   35.3940 N   0  0  0  0  0  0  0  0  0  0  0  0
   41.5210   24.4620   34.0720 N   0  0  0  0  0  0  0  0  0  0  0  0
   42.5140   25.4000   34.4650 C   0  0  0  0  0  0  0  0  0  0  0  0
   42.2030   26.6040   34.8490 N   0  0  0  0  0  0  0  0  0  0  0  0
   43.8690   24.9750   34.4230 N   0  0  0  0  0  0  0  0  0  0  0  0
   42.8700   27.3310   35.1670 H   0  0  0  0  0  0  0  0  0  0  0  0
   40.4830   22.8560   36.1940 N   0  0  0  0  0  0  0  0  0  0  0  0
   40.5290   22.5890   37.5170 C   0  0  0  0  0  0  0  0  0  0  0  0
   41.4030   21.5890   37.7700 N   0  0  0  0  0  0  0  0  0  0  0  0
   41.8990   21.2440   36.5680 C   0  0  0  0  0  0  0  0  0  0  0  0
   41.3140   22.0410   35.6130 N   0  0  0  0  0  0  0  0  0  0  0  0
   42.8580   20.2670   36.1100 C   0  0  0  0  0  0  0  0  0  0  0  0
   43.0250   19.0740   36.4840 O   0  0  0  0  0  0  0  0  0  0  0  0
   37.2450   26.8070   33.7730 C   0  0  0  0  0  0  0  0  0  0  0  0
   36.4950   27.3870   34.7550 F   0  0  0  0  0  0  0  0  0  0  0  0
   38.0090   27.7530   33.1360 F   0  0  0  0  0  0  0  0  0  0  0  0
   36.4120   26.2290   32.8010 F   0  0  0  0  0  0  0  0  0  0  0  0
   37.9357   23.4663   36.8088 H   0  0  0  0  0  0  0  0  0  0  0  0
   41.7612   23.6730   33.4549 H   0  0  0  0  0  0  0  0  0  0  0  0
   44.6207   25.6227   34.6993 H   0  0  0  0  0  0  0  0  0  0  0  0
   44.0997   24.0192   34.1162 H   0  0  0  0  0  0  0  0  0  0  0  0
   39.9375   23.1125   38.2825 H   0  0  0  0  0  0  0  0  0  0  0  0
   43.5419   20.6129   35.3209 H   0  0  0  0  0  0  0  0  0  0  0  0
  2  1  2  0
  2 12  1  0
  3  2  1  0
  4  5  1  0
  4  3  2  0
  5  6  2  0
  6  1  1  0
  7  8  1  0
  7  3  1  0
  8  9  2  0
  9 11  1  0
 10  8  1  0
 12 13  1  0
 13 14  2  0
 15 14  1  0
 16 12  1  0
 16 15  2  0
 17 18  2  0
 17 15  1  0
 19  5  1  0
 19 20  1  0
 21 19  1  0
 22 19  1  0
  1 23  1  0
  7 24  1  0
 10 25  1  0
 10 26  1  0
 13 27  1  0
 17 28  1  0
M  ISO  3  23  14  27  14  28   6
M  END
>  <minimizedAffinity>  (1) 
-4.34752512

>  <minimizedRMSD>  (1) 
0.0882381648

$$$$
