
     RDKit          3D

 17 18  0  0  0  0  0  0  0  0999 V2000
   37.9740   22.3150   36.2080 C   0  0  0  0  0  0  0  0  0  0  0  0
   39.3670   22.1950   36.3240 C   0  0  0  0  0  0  0  0  0  0  0  0
   39.9760   22.7480   37.4500 C   0  0  0  0  0  0  0  0  0  0  0  0
   39.1980   23.3740   38.3840 N   0  0  0  0  0  0  0  0  0  0  0  0
   37.8590   23.4700   38.2390 C   0  0  0  0  0  0  0  0  0  0  0  0
   37.2480   22.9460   37.1630 N   0  0  0  0  0  0  0  0  0  0  0  0
   37.2070   21.7850   35.0840 C   0  0  0  0  0  0  0  0  0  0  0  0
   36.0990   20.9610   35.2900 C   0  0  0  0  0  0  0  0  0  0  0  0
   35.5810   20.6170   34.0560 C   0  0  0  0  0  0  0  0  0  0  0  0
   36.3960   21.2480   33.1630 C   0  0  0  0  0  0  0  0  0  0  0  0
   37.3400   21.9260   33.8090 O   0  0  0  0  0  0  0  0  0  0  0  0
   39.9593   21.6816   35.5522 H   0  0  0  0  0  0  0  0  0  0  0  0
   41.0657   22.6816   37.5848 H   0  0  0  0  0  0  0  0  0  0  0  0
   37.2628   23.9819   39.0088 H   0  0  0  0  0  0  0  0  0  0  0  0
   35.7061   20.6408   36.2663 H   0  0  0  0  0  0  0  0  0  0  0  0
   34.7101   19.9797   33.8427 H   0  0  0  0  0  0  0  0  0  0  0  0
   36.2883   21.2027   32.0692 H   0  0  0  0  0  0  0  0  0  0  0  0
  1  2  2  0
  1  6  1  0
  2  3  1  0
  3  4  2  0
  5  4  1  0
  6  5  2  0
  7  8  2  0
  7  1  1  0
  9  8  1  0
 10 11  1  0
 10  9  2  0
 11  7  1  0
  2 12  1  0
  3 13  1  0
  5 14  1  0
  8 15  1  0
  9 16  1  0
 10 17  1  0
M  ISO  6  12  14  13  14  14  14  15  14  16  14  17  14
M  END
>  <minimizedAffinity>  (1) 
-3.64471054

>  <minimizedRMSD>  (1) 
5.42994595

$$$$
