
     RDKit          3D

 28 30  0  0  0  0  0  0  0  0999 V2000
   38.1080   22.5340   36.1480 C   0  0  0  0  0  0  0  0  0  0  0  0
   38.1360   23.7140   36.9200 C   0  0  0  0  0  0  0  0  0  0  0  0
   38.0830   24.9200   36.2580 C   0  0  0  0  0  0  0  0  0  0  0  0
   38.0080   24.9460   34.9010 N   0  0  0  0  0  0  0  0  0  0  0  0
   37.9850   23.7760   34.1960 C   0  0  0  0  0  0  0  0  0  0  0  0
   38.0330   22.6090   34.8090 N   0  0  0  0  0  0  0  0  0  0  0  0
   38.2180   23.7080   38.4100 C   0  0  0  0  0  0  0  0  0  0  0  0
   39.5290   23.3760   38.7360 F   0  0  0  0  0  0  0  0  0  0  0  0
   37.4120   22.7910   38.9870 F   0  0  0  0  0  0  0  0  0  0  0  0
   38.0650   25.0140   38.9170 F   0  0  0  0  0  0  0  0  0  0  0  0
   37.8840   23.8850   32.4070 S   0  0  0  0  0  0  0  0  0  0  0  0
   36.9490   22.4790   31.7790 C   0  0  0  0  0  0  0  0  0  0  0  0
   35.6010   22.2900   32.0780 C   0  0  0  0  0  0  0  0  0  0  0  0
   35.2110   21.1590   31.4590 N   0  0  0  0  0  0  0  0  0  0  0  0
   36.2420   20.6140   30.7790 C   0  0  0  0  0  0  0  0  0  0  0  0
   36.4120   19.4900   29.9910 C   0  0  0  0  0  0  0  0  0  0  0  0
   37.6580   19.2370   29.4340 C   0  0  0  0  0  0  0  0  0  0  0  0
   38.7350   20.0660   29.6390 C   0  0  0  0  0  0  0  0  0  0  0  0
   38.5820   21.2000   30.4290 C   0  0  0  0  0  0  0  0  0  0  0  0
   37.3410   21.4280   30.9670 C   0  0  0  0  0  0  0  0  0  0  0  0
   38.1476   21.5522   36.6425 H   0  0  0  0  0  0  0  0  0  0  0  0
   38.1013   25.8615   36.8266 H   0  0  0  0  0  0  0  0  0  0  0  0
   34.9730   22.9423   32.7026 H   0  0  0  0  0  0  0  0  0  0  0  0
   34.2600   20.7654   31.4989 H   0  0  0  0  0  0  0  0  0  0  0  0
   35.5706   18.8054   29.8081 H   0  0  0  0  0  0  0  0  0  0  0  0
   37.7879   18.3425   28.8071 H   0  0  0  0  0  0  0  0  0  0  0  0
   39.7087   19.8346   29.1825 H   0  0  0  0  0  0  0  0  0  0  0  0
   39.4216   21.8860   30.6149 H   0  0  0  0  0  0  0  0  0  0  0  0
  1  2  2  0
  2  7  1  0
  3  2  1  0
  4  3  2  0
  5  6  2  0
  5  4  1  0
  6  1  1  0
  7  8  1  0
  7 10  1  0
  7  9  1  0
 11  5  1  0
 12 13  2  0
 12 11  1  0
 14 13  1  0
 15 20  2  0
 15 14  1  0
 16 15  1  0
 17 18  1  0
 17 16  2  0
 18 19  2  0
 19 20  1  0
 20 12  1  0
  1 21  1  0
  3 22  1  0
 13 23  1  0
 14 24  1  0
 16 25  1  0
 17 26  1  0
 18 27  1  0
 19 28  1  0
M  ISO  8  21  14  22  14  23  14  24   9  25  14  26  14  27  14  28  14
M  END
>  <minimizedAffinity>  (1) 
-5.37982845

>  <minimizedRMSD>  (1) 
3.31882977

$$$$
