
     RDKit          3D

 33 36  0  0  0  0  0  0  0  0999 V2000
   37.0360   21.2330   33.7610 C   0  0  0  0  0  0  0  0  0  0  0  0
   35.7280   20.8060   33.8700 C   0  0  0  0  0  0  0  0  0  0  0  0
   35.4780   19.9440   32.8260 C   0  0  0  0  0  0  0  0  0  0  0  0
   36.6370   19.8760   32.1210 C   0  0  0  0  0  0  0  0  0  0  0  0
   37.4910   20.6510   32.7270 O   0  0  0  0  0  0  0  0  0  0  0  0
   36.6780   19.0250   30.9380 C   0  0  0  0  0  0  0  0  0  0  0  0
   36.6160   19.5000   29.6410 C   0  0  0  0  0  0  0  0  0  0  0  0
   36.6520   18.7120   28.5190 C   0  0  0  0  0  0  0  0  0  0  0  0
   36.7590   17.3460   28.6380 C   0  0  0  0  0  0  0  0  0  0  0  0
   36.8260   16.8040   29.9020 C   0  0  0  0  0  0  0  0  0  0  0  0
   36.9310   15.4460   29.9860 C   0  0  0  0  0  0  0  0  0  0  0  0
   37.0040   14.8330   31.2190 C   0  0  0  0  0  0  0  0  0  0  0  0
   36.9660   15.6380   32.3600 C   0  0  0  0  0  0  0  0  0  0  0  0
   36.8580   16.9940   32.1870 C   0  0  0  0  0  0  0  0  0  0  0  0
   36.7830   17.6550   30.9840 C   0  0  0  0  0  0  0  0  0  0  0  0
   37.6360   22.1630   34.7110 C   0  0  0  0  0  0  0  0  0  0  0  0
   38.6270   23.0910   34.3930 C   0  0  0  0  0  0  0  0  0  0  0  0
   39.1040   23.9170   35.3940 C   0  0  0  0  0  0  0  0  0  0  0  0
   38.5930   23.7950   36.6460 N   0  0  0  0  0  0  0  0  0  0  0  0
   37.6330   22.8870   36.9280 C   0  0  0  0  0  0  0  0  0  0  0  0
   37.1430   22.0670   35.9840 N   0  0  0  0  0  0  0  0  0  0  0  0
   35.0128   21.1017   34.6517 H   0  0  0  0  0  0  0  0  0  0  0  0
   34.5359   19.4196   32.6082 H   0  0  0  0  0  0  0  0  0  0  0  0
   36.5318   20.5875   29.4988 H   0  0  0  0  0  0  0  0  0  0  0  0
   36.5952   19.1734   27.5221 H   0  0  0  0  0  0  0  0  0  0  0  0
   36.7903   16.7029   27.7461 H   0  0  0  0  0  0  0  0  0  0  0  0
   36.9574   14.8394   29.0687 H   0  0  0  0  0  0  0  0  0  0  0  0
   37.0898   13.7395   31.3019 H   0  0  0  0  0  0  0  0  0  0  0  0
   37.0210   15.1976   33.3665 H   0  0  0  0  0  0  0  0  0  0  0  0
   36.8286   17.6113   33.0970 H   0  0  0  0  0  0  0  0  0  0  0  0
   39.0206   23.1643   33.3684 H   0  0  0  0  0  0  0  0  0  0  0  0
   39.8851   24.6612   35.1794 H   0  0  0  0  0  0  0  0  0  0  0  0
   37.2438   22.8178   37.9545 H   0  0  0  0  0  0  0  0  0  0  0  0
  1  2  2  0
  1 16  1  0
  3  2  1  0
  4  5  1  0
  4  3  2  0
  5  1  1  0
  6 15  1  0
  6  4  1  0
  7  6  2  0
  8  9  2  0
  8  7  1  0
  9 10  1  0
 10 11  1  0
 10 15  2  0
 11 12  2  0
 12 13  1  0
 14 13  2  0
 15 14  1  0
 16 21  1  0
 17 16  2  0
 17 18  1  0
 18 19  2  0
 19 20  1  0
 21 20  2  0
  2 22  1  0
  3 23  1  0
  7 24  1  0
  8 25  1  0
  9 26  1  0
 11 27  1  0
 12 28  1  0
 13 29  1  0
 14 30  1  0
 17 31  1  0
 18 32  1  0
 20 33  1  0
M  ISO  8  22  14  23  14  24  14  25  14  26  14  27  14  28  14  29  14
M  ISO  4  30  14  31  14  32  14  33  14
M  END
>  <minimizedAffinity>  (1) 
-4.88639212

>  <minimizedRMSD>  (1) 
2.52442193

$$$$
