
     RDKit          3D

 28 31  0  0  0  0  0  0  0  0999 V2000
   37.2310   21.7640   35.5830 C   0  0  0  0  0  0  0  0  0  0  0  0
   36.0390   21.1140   35.8630 C   0  0  0  0  0  0  0  0  0  0  0  0
   35.5100   20.6080   34.7020 C   0  0  0  0  0  0  0  0  0  0  0  0
   36.4180   20.9790   33.7490 C   0  0  0  0  0  0  0  0  0  0  0  0
   37.4290   21.6640   34.3040 O   0  0  0  0  0  0  0  0  0  0  0  0
   36.4500   20.7590   32.3450 N   0  0  0  0  0  0  0  0  0  0  0  0
   36.3470   21.7620   31.4490 C   0  0  0  0  0  0  0  0  0  0  0  0
   36.4080   21.2490   30.1960 N   0  0  0  0  0  0  0  0  0  0  0  0
   36.5500   19.9240   30.3250 C   0  0  0  0  0  0  0  0  0  0  0  0
   36.6670   18.8820   29.4250 C   0  0  0  0  0  0  0  0  0  0  0  0
   36.8010   17.6170   29.8760 N   0  0  0  0  0  0  0  0  0  0  0  0
   36.8250   17.3380   31.1940 C   0  0  0  0  0  0  0  0  0  0  0  0
   36.7130   18.3320   32.0900 N   0  0  0  0  0  0  0  0  0  0  0  0
   36.5780   19.6020   31.6710 C   0  0  0  0  0  0  0  0  0  0  0  0
   38.0220   22.4020   36.6150 C   0  0  0  0  0  0  0  0  0  0  0  0
   39.4020   22.2680   36.7580 C   0  0  0  0  0  0  0  0  0  0  0  0
   40.0470   22.9310   37.7880 C   0  0  0  0  0  0  0  0  0  0  0  0
   39.2840   23.7020   38.6340 N   0  0  0  0  0  0  0  0  0  0  0  0
   37.9510   23.8230   38.4840 C   0  0  0  0  0  0  0  0  0  0  0  0
   37.3310   23.1770   37.4830 N   0  0  0  0  0  0  0  0  0  0  0  0
   35.5870   21.0185   36.8613 H   0  0  0  0  0  0  0  0  0  0  0  0
   34.5777   20.0394   34.5696 H   0  0  0  0  0  0  0  0  0  0  0  0
   36.2317   22.8277   31.6962 H   0  0  0  0  0  0  0  0  0  0  0  0
   36.6510   19.0830   28.3436 H   0  0  0  0  0  0  0  0  0  0  0  0
   36.9361   16.2982   31.5353 H   0  0  0  0  0  0  0  0  0  0  0  0
   39.9738   21.6407   36.0583 H   0  0  0  0  0  0  0  0  0  0  0  0
   41.1349   22.8441   37.9255 H   0  0  0  0  0  0  0  0  0  0  0  0
   37.3720   24.4489   39.1791 H   0  0  0  0  0  0  0  0  0  0  0  0
  1  2  2  0
  1 15  1  0
  3  2  1  0
  4  5  1  0
  4  3  2  0
  5  1  1  0
  6  4  1  0
  7  6  1  0
  8  9  1  0
  8  7  2  0
  9 14  2  0
 10 11  2  0
 10  9  1  0
 11 12  1  0
 12 13  2  0
 14 13  1  0
 14  6  1  0
 15 16  2  0
 15 20  1  0
 16 17  1  0
 17 18  2  0
 19 18  1  0
 20 19  2  0
  2 21  1  0
  3 22  1  0
  7 23  1  0
 10 24  1  0
 12 25  1  0
 16 26  1  0
 17 27  1  0
 19 28  1  0
M  ISO  8  21  14  22  14  23  14  24  14  25  14  26  14  27  14  28  14
M  END
>  <minimizedAffinity>  (1) 
-4.46804523

>  <minimizedRMSD>  (1) 
1.30621839

$$$$
