
     RDKit          3D

 31 33  0  0  0  0  0  0  0  0999 V2000
   37.3090   21.6450   35.1070 C   0  0  0  0  0  0  0  0  0  0  0  0
   36.0320   21.1210   35.2340 C   0  0  0  0  0  0  0  0  0  0  0  0
   35.6370   20.6090   34.0180 C   0  0  0  0  0  0  0  0  0  0  0  0
   36.6980   20.8500   33.2060 C   0  0  0  0  0  0  0  0  0  0  0  0
   37.6790   21.4670   33.8780 O   0  0  0  0  0  0  0  0  0  0  0  0
   38.0040   22.2660   36.2370 C   0  0  0  0  0  0  0  0  0  0  0  0
   39.3860   22.2330   36.4190 C   0  0  0  0  0  0  0  0  0  0  0  0
   39.9030   22.8690   37.5470 C   0  0  0  0  0  0  0  0  0  0  0  0
   39.0560   23.4870   38.4100 N   0  0  0  0  0  0  0  0  0  0  0  0
   37.7130   23.5000   38.2030 C   0  0  0  0  0  0  0  0  0  0  0  0
   37.1820   22.8950   37.1240 N   0  0  0  0  0  0  0  0  0  0  0  0
   36.8440   20.5300   31.8260 N   0  0  0  0  0  0  0  0  0  0  0  0
   37.3250   21.4430   30.8150 C   0  0  0  0  0  0  0  0  0  0  0  0
   38.3570   20.7060   29.9880 C   0  0  0  0  0  0  0  0  0  0  0  0
   37.6630   19.6810   29.2650 N   0  0  0  0  0  0  0  0  0  0  0  0
   36.4410   19.2560   29.8750 C   0  0  0  0  0  0  0  0  0  0  0  0
   36.4890   19.1950   31.3860 C   0  0  0  0  0  0  0  0  0  0  0  0
   35.4319   21.1151   36.1558 H   0  0  0  0  0  0  0  0  0  0  0  0
   34.6851   20.1196   33.7642 H   0  0  0  0  0  0  0  0  0  0  0  0
   40.0441   21.7241   35.6993 H   0  0  0  0  0  0  0  0  0  0  0  0
   40.9866   22.8701   37.7360 H   0  0  0  0  0  0  0  0  0  0  0  0
   37.0547   24.0088   38.9226 H   0  0  0  0  0  0  0  0  0  0  0  0
   36.4915   21.7661   30.1740 H   0  0  0  0  0  0  0  0  0  0  0  0
   37.7679   22.3363   31.2797 H   0  0  0  0  0  0  0  0  0  0  0  0
   38.8436   21.3994   29.2863 H   0  0  0  0  0  0  0  0  0  0  0  0
   39.1372   20.2723   30.6308 H   0  0  0  0  0  0  0  0  0  0  0  0
   38.2854   18.8641   29.1858 H   0  0  0  0  0  0  0  0  0  0  0  0
   35.6473   19.9596   29.5834 H   0  0  0  0  0  0  0  0  0  0  0  0
   36.2529   18.2307   29.5237 H   0  0  0  0  0  0  0  0  0  0  0  0
   35.5065   18.9079   31.7888 H   0  0  0  0  0  0  0  0  0  0  0  0
   37.2153   18.4473   31.7373 H   0  0  0  0  0  0  0  0  0  0  0  0
  1  2  2  0
  1  6  1  0
  3  2  1  0
  4  5  1  0
  4  3  2  0
  5  1  1  0
  6  7  2  0
  6 11  1  0
  7  8  1  0
  8  9  2  0
 10  9  1  0
 11 10  2  0
 12  4  1  0
 13 12  1  0
 14 13  1  0
 15 16  1  0
 15 14  1  0
 16 17  1  0
 17 12  1  0
  2 18  1  0
  3 19  1  0
  7 20  1  0
  8 21  1  0
 10 22  1  0
 13 23  1  0
 13 24  1  0
 14 25  1  0
 14 26  1  0
 15 27  1  0
 16 28  1  0
 16 29  1  0
 17 30  1  0
 17 31  1  0
M  ISO  8  18  14  19  14  20  14  21  14  22  14  23  13  24  13  25  13
M  ISO  6  26  13  27   5  28  13  29  13  30  13  31  13
M  END
>  <minimizedAffinity>  (1) 
-4.31014585

>  <minimizedRMSD>  (1) 
0.811466455

$$$$
