
     RDKit          3D

 22 24  0  0  0  0  0  0  0  0999 V2000
   37.2320   21.5580   34.9240 C   0  0  0  0  0  0  0  0  0  0  0  0
   35.9450   21.0590   35.0670 C   0  0  0  0  0  0  0  0  0  0  0  0
   35.5550   20.5150   33.8590 C   0  0  0  0  0  0  0  0  0  0  0  0
   36.6210   20.7080   33.0370 C   0  0  0  0  0  0  0  0  0  0  0  0
   37.5940   21.3280   33.7020 O   0  0  0  0  0  0  0  0  0  0  0  0
   37.9320   22.2000   36.0280 C   0  0  0  0  0  0  0  0  0  0  0  0
   39.3170   22.2240   36.1710 C   0  0  0  0  0  0  0  0  0  0  0  0
   39.8540   22.8760   37.2800 C   0  0  0  0  0  0  0  0  0  0  0  0
   38.9870   23.4600   38.1760 N   0  0  0  0  0  0  0  0  0  0  0  0
   37.6570   23.4210   38.0140 C   0  0  0  0  0  0  0  0  0  0  0  0
   37.1300   22.7970   36.9510 N   0  0  0  0  0  0  0  0  0  0  0  0
   36.9110   20.3940   31.6410 C   0  0  0  0  0  0  0  0  0  0  0  0
   37.8460   20.7670   30.7490 N   0  0  0  0  0  0  0  0  0  0  0  0
   37.6410   20.1730   29.6140 O   0  0  0  0  0  0  0  0  0  0  0  0
   36.5970   19.4120   29.7140 C   0  0  0  0  0  0  0  0  0  0  0  0
   36.1130   19.5320   30.9850 N   0  0  0  0  0  0  0  0  0  0  0  0
   35.3395   21.0912   35.9848 H   0  0  0  0  0  0  0  0  0  0  0  0
   34.5964   20.0333   33.6161 H   0  0  0  0  0  0  0  0  0  0  0  0
   39.9698   21.7414   35.4287 H   0  0  0  0  0  0  0  0  0  0  0  0
   40.9420   22.9227   37.4352 H   0  0  0  0  0  0  0  0  0  0  0  0
   36.9983   23.9008   38.7529 H   0  0  0  0  0  0  0  0  0  0  0  0
   36.1758   18.7817   28.9170 H   0  0  0  0  0  0  0  0  0  0  0  0
  1  2  2  0
  1  6  1  0
  3  2  1  0
  4  5  1  0
  4  3  2  0
  5  1  1  0
  6  7  2  0
  6 11  1  0
  7  8  1  0
  8  9  2  0
 10  9  1  0
 11 10  2  0
 12  4  1  0
 13 12  2  0
 14 15  1  0
 14 13  1  0
 15 16  2  0
 16 12  1  0
  2 17  1  0
  3 18  1  0
  7 19  1  0
  8 20  1  0
 10 21  1  0
 15 22  1  0
M  ISO  6  17  14  18  14  19  14  20  14  21  14  22  14
M  END
>  <minimizedAffinity>  (1) 
-4.20319605

>  <minimizedRMSD>  (1) 
0.940544903

$$$$
