
     RDKit          3D

 20 21  0  0  0  0  0  0  0  0999 V2000
   37.1390   21.8000   34.9660 C   0  0  0  0  0  0  0  0  0  0  0  0
   36.1160   20.8750   35.1680 C   0  0  0  0  0  0  0  0  0  0  0  0
   35.5420   20.5880   33.9550 C   0  0  0  0  0  0  0  0  0  0  0  0
   36.2390   21.3470   33.0750 C   0  0  0  0  0  0  0  0  0  0  0  0
   37.1790   22.0540   33.7100 O   0  0  0  0  0  0  0  0  0  0  0  0
   37.9380   22.2980   36.0860 C   0  0  0  0  0  0  0  0  0  0  0  0
   39.3250   22.1930   36.1700 C   0  0  0  0  0  0  0  0  0  0  0  0
   39.9740   22.7040   37.2810 C   0  0  0  0  0  0  0  0  0  0  0  0
   39.2300   23.2910   38.2540 N   0  0  0  0  0  0  0  0  0  0  0  0
   37.8770   23.3840   38.1550 C   0  0  0  0  0  0  0  0  0  0  0  0
   37.2270   22.8930   37.0810 N   0  0  0  0  0  0  0  0  0  0  0  0
   36.1480   21.5210   31.6300 C   0  0  0  0  0  0  0  0  0  0  0  0
   36.4760   20.7250   30.7190 O   0  0  0  0  0  0  0  0  0  0  0  0
   35.6420   22.6900   31.0490 O   0  0  0  0  0  0  0  0  0  0  0  0
   35.8188   20.4471   36.1368 H   0  0  0  0  0  0  0  0  0  0  0  0
   34.7089   19.9009   33.7455 H   0  0  0  0  0  0  0  0  0  0  0  0
   39.8969   21.7103   35.3638 H   0  0  0  0  0  0  0  0  0  0  0  0
   41.0680   22.6361   37.3737 H   0  0  0  0  0  0  0  0  0  0  0  0
   37.3055   23.8662   38.9618 H   0  0  0  0  0  0  0  0  0  0  0  0
   35.5952   22.7728   30.0636 H   0  0  0  0  0  0  0  0  0  0  0  0
  1  2  2  0
  1  6  1  0
  3  2  1  0
  4  5  1  0
  4  3  2  0
  5  1  1  0
  6  7  2  0
  6 11  1  0
  7  8  1  0
  8  9  2  0
 10  9  1  0
 11 10  2  0
 12  4  1  0
 13 12  2  0
 14 12  1  0
  2 15  1  0
  3 16  1  0
  7 17  1  0
  8 18  1  0
 10 19  1  0
 14 20  1  0
M  ISO  6  15  14  16  14  17  14  18  14  19  14  20   3
M  END
>  <minimizedAffinity>  (1) 
-4.16648674

>  <minimizedRMSD>  (1) 
0.240273982

$$$$
