
     RDKit          3D

 24 26  0  0  0  0  0  0  0  0999 V2000
   37.2040   21.4590   34.6980 C   0  0  0  0  0  0  0  0  0  0  0  0
   35.8940   20.9780   34.8100 C   0  0  0  0  0  0  0  0  0  0  0  0
   35.5470   20.3910   33.5980 C   0  0  0  0  0  0  0  0  0  0  0  0
   36.6500   20.5450   32.8260 C   0  0  0  0  0  0  0  0  0  0  0  0
   37.5890   21.1730   33.5100 O   0  0  0  0  0  0  0  0  0  0  0  0
   37.8580   22.1300   35.8040 C   0  0  0  0  0  0  0  0  0  0  0  0
   39.2390   22.2560   35.9450 C   0  0  0  0  0  0  0  0  0  0  0  0
   39.7300   22.9270   37.0610 C   0  0  0  0  0  0  0  0  0  0  0  0
   38.8460   23.4330   37.9710 N   0  0  0  0  0  0  0  0  0  0  0  0
   37.5210   23.2990   37.8130 C   0  0  0  0  0  0  0  0  0  0  0  0
   37.0290   22.6530   36.7400 N   0  0  0  0  0  0  0  0  0  0  0  0
   36.8210   20.1020   31.4460 C   0  0  0  0  0  0  0  0  0  0  0  0
   37.8350   20.4150   30.5660 C   0  0  0  0  0  0  0  0  0  0  0  0
   37.6400   19.8100   29.3810 N   0  0  0  0  0  0  0  0  0  0  0  0
   36.5020   19.1080   29.5010 C   0  0  0  0  0  0  0  0  0  0  0  0
   36.0160   19.2870   30.7410 N   0  0  0  0  0  0  0  0  0  0  0  0
   35.2520   21.0515   35.7002 H   0  0  0  0  0  0  0  0  0  0  0  0
   34.5947   19.9113   33.3277 H   0  0  0  0  0  0  0  0  0  0  0  0
   39.9233   21.8358   35.1933 H   0  0  0  0  0  0  0  0  0  0  0  0
   40.8134   23.0480   37.2080 H   0  0  0  0  0  0  0  0  0  0  0  0
   36.8342   23.7185   38.5629 H   0  0  0  0  0  0  0  0  0  0  0  0
   38.6869   21.0700   30.8010 H   0  0  0  0  0  0  0  0  0  0  0  0
   36.0438   18.4894   28.7153 H   0  0  0  0  0  0  0  0  0  0  0  0
   35.1500   18.8607   31.1005 H   0  0  0  0  0  0  0  0  0  0  0  0
  1  2  2  0
  1  6  1  0
  3  2  1  0
  4  5  1  0
  4  3  2  0
  5  1  1  0
  6  7  2  0
  6 11  1  0
  7  8  1  0
  8  9  2  0
 10  9  1  0
 11 10  2  0
 12  4  1  0
 13 12  2  0
 14 15  2  0
 14 13  1  0
 15 16  1  0
 16 12  1  0
  2 17  1  0
  3 18  1  0
  7 19  1  0
  8 20  1  0
 10 21  1  0
 13 22  1  0
 15 23  1  0
 16 24  1  0
M  ISO  8  17  14  18  14  19  14  20  14  21  14  22  14  23  14  24   9
M  END
>  <minimizedAffinity>  (1) 
-4.15520239

>  <minimizedRMSD>  (1) 
1.1706996

$$$$
