
     RDKit          3D

 23 24  0  0  0  0  0  0  0  0999 V2000
   37.1600   21.7930   35.0420 C   0  0  0  0  0  0  0  0  0  0  0  0
   36.1270   20.8940   35.2430 C   0  0  0  0  0  0  0  0  0  0  0  0
   35.5530   20.6000   34.0310 C   0  0  0  0  0  0  0  0  0  0  0  0
   36.2680   21.3370   33.1470 C   0  0  0  0  0  0  0  0  0  0  0  0
   37.2250   22.0440   33.7670 O   0  0  0  0  0  0  0  0  0  0  0  0
   37.9710   22.3010   36.1540 C   0  0  0  0  0  0  0  0  0  0  0  0
   39.3550   22.1820   36.2460 C   0  0  0  0  0  0  0  0  0  0  0  0
   39.9920   22.7110   37.3560 C   0  0  0  0  0  0  0  0  0  0  0  0
   39.2420   23.3260   38.3120 N   0  0  0  0  0  0  0  0  0  0  0  0
   37.9030   23.4260   38.1950 C   0  0  0  0  0  0  0  0  0  0  0  0
   37.2450   22.9230   37.1290 N   0  0  0  0  0  0  0  0  0  0  0  0
   36.0390   21.3750   31.6610 C   0  0  0  0  0  0  0  0  0  0  0  0
   35.7250   22.7740   31.1970 C   0  0  0  0  0  0  0  0  0  0  0  0
   35.8167   20.4824   36.2148 H   0  0  0  0  0  0  0  0  0  0  0  0
   34.7098   19.9241   33.8256 H   0  0  0  0  0  0  0  0  0  0  0  0
   39.9298   21.6789   35.4545 H   0  0  0  0  0  0  0  0  0  0  0  0
   41.0841   22.6358   37.4636 H   0  0  0  0  0  0  0  0  0  0  0  0
   37.3318   23.9303   38.9884 H   0  0  0  0  0  0  0  0  0  0  0  0
   36.9457   21.0213   31.1484 H   0  0  0  0  0  0  0  0  0  0  0  0
   35.1828   20.7269   31.4223 H   0  0  0  0  0  0  0  0  0  0  0  0
   35.5787   23.4259   32.0708 H   0  0  0  0  0  0  0  0  0  0  0  0
   36.5599   23.1553   30.5907 H   0  0  0  0  0  0  0  0  0  0  0  0
   34.8072   22.7619   30.5907 H   0  0  0  0  0  0  0  0  0  0  0  0
  1  2  2  0
  1  6  1  0
  3  2  1  0
  4  5  1  0
  4  3  2  0
  5  1  1  0
  6  7  2  0
  6 11  1  0
  7  8  1  0
  8  9  2  0
 10  9  1  0
 11 10  2  0
 12  4  1  0
 13 12  1  0
  2 14  1  0
  3 15  1  0
  7 16  1  0
  8 17  1  0
 10 18  1  0
 12 19  1  0
 12 20  1  0
 13 21  1  0
 13 22  1  0
 13 23  1  0
M  ISO  8  14  14  15  14  16  14  17  14  18  14  19   8  20   8  21   8
M  ISO  2  22   8  23   8
M  END
>  <minimizedAffinity>  (1) 
-4.12369442

>  <minimizedRMSD>  (1) 
0.47429356

$$$$
