
     RDKit          3D

 19 20  0  0  0  0  0  0  0  0999 V2000
   37.1970   21.7570   34.9640 C   0  0  0  0  0  0  0  0  0  0  0  0
   36.0720   20.9640   35.1550 C   0  0  0  0  0  0  0  0  0  0  0  0
   35.5820   20.6160   33.9090 C   0  0  0  0  0  0  0  0  0  0  0  0
   36.4280   21.2110   33.0340 C   0  0  0  0  0  0  0  0  0  0  0  0
   37.3710   21.8770   33.6910 O   0  0  0  0  0  0  0  0  0  0  0  0
   37.9490   22.2890   36.1070 C   0  0  0  0  0  0  0  0  0  0  0  0
   39.3350   22.2140   36.2230 C   0  0  0  0  0  0  0  0  0  0  0  0
   39.9440   22.7520   37.3480 C   0  0  0  0  0  0  0  0  0  0  0  0
   39.1340   23.3330   38.2950 N   0  0  0  0  0  0  0  0  0  0  0  0
   37.7990   23.3890   38.1540 C   0  0  0  0  0  0  0  0  0  0  0  0
   37.2140   22.8730   37.0710 N   0  0  0  0  0  0  0  0  0  0  0  0
   36.3170   21.1300   31.5810 C   0  0  0  0  0  0  0  0  0  0  0  0
   35.4690   21.8800   31.0120 O   0  0  0  0  0  0  0  0  0  0  0  0
   35.6467   20.6659   36.1247 H   0  0  0  0  0  0  0  0  0  0  0  0
   34.7030   19.9956   33.6801 H   0  0  0  0  0  0  0  0  0  0  0  0
   39.9369   21.7362   35.4359 H   0  0  0  0  0  0  0  0  0  0  0  0
   41.0357   22.7149   37.4775 H   0  0  0  0  0  0  0  0  0  0  0  0
   37.1854   23.8623   38.9347 H   0  0  0  0  0  0  0  0  0  0  0  0
   36.9479   20.4414   30.9998 H   0  0  0  0  0  0  0  0  0  0  0  0
  1  2  2  0
  1  6  1  0
  3  2  1  0
  4  5  1  0
  4  3  2  0
  5  1  1  0
  6  7  2  0
  6 11  1  0
  7  8  1  0
  8  9  2  0
 10  9  1  0
 11 10  2  0
 12  4  1  0
 13 12  2  0
  2 14  1  0
  3 15  1  0
  7 16  1  0
  8 17  1  0
 10 18  1  0
 12 19  1  0
M  ISO  6  14  14  15  14  16  14  17  14  18  14  19   6
M  END
>  <minimizedAffinity>  (1) 
-3.95317173

>  <minimizedRMSD>  (1) 
0.576975584

$$$$
