
     RDKit          3D

 20 21  0  0  0  0  0  0  0  0999 V2000
   37.9520   22.2930   36.0980 C   0  0  0  0  0  0  0  0  0  0  0  0
   39.3380   22.1970   36.1880 C   0  0  0  0  0  0  0  0  0  0  0  0
   39.9680   22.7180   37.3050 C   0  0  0  0  0  0  0  0  0  0  0  0
   39.2050   23.3050   38.2740 N   0  0  0  0  0  0  0  0  0  0  0  0
   37.8530   23.3880   38.1660 C   0  0  0  0  0  0  0  0  0  0  0  0
   37.2250   22.8880   37.0870 N   0  0  0  0  0  0  0  0  0  0  0  0
   37.1560   21.7870   34.9770 C   0  0  0  0  0  0  0  0  0  0  0  0
   36.1010   20.9100   35.1680 C   0  0  0  0  0  0  0  0  0  0  0  0
   35.5540   20.6180   33.9290 C   0  0  0  0  0  0  0  0  0  0  0  0
   36.3030   21.3320   33.0560 C   0  0  0  0  0  0  0  0  0  0  0  0
   37.2520   22.0200   33.7030 O   0  0  0  0  0  0  0  0  0  0  0  0
   36.1590   21.3960   31.5770 C   0  0  0  0  0  0  0  0  0  0  0  0
   39.9205   21.7170   35.3878 H   0  0  0  0  0  0  0  0  0  0  0  0
   41.0614   22.6604   37.4102 H   0  0  0  0  0  0  0  0  0  0  0  0
   37.2689   23.8669   38.9657 H   0  0  0  0  0  0  0  0  0  0  0  0
   35.7573   20.5142   36.1351 H   0  0  0  0  0  0  0  0  0  0  0  0
   34.7042   19.9563   33.7054 H   0  0  0  0  0  0  0  0  0  0  0  0
   35.1811   21.8306   31.3223 H   0  0  0  0  0  0  0  0  0  0  0  0
   36.9595   22.0231   31.1575 H   0  0  0  0  0  0  0  0  0  0  0  0
   36.2299   20.3816   31.1575 H   0  0  0  0  0  0  0  0  0  0  0  0
  1  2  2  0
  1  6  1  0
  2  3  1  0
  3  4  2  0
  5  4  1  0
  6  5  2  0
  7  8  2  0
  7  1  1  0
  9  8  1  0
 10 11  1  0
 10  9  2  0
 11  7  1  0
 12 10  1  0
  2 13  1  0
  3 14  1  0
  5 15  1  0
  8 16  1  0
  9 17  1  0
 12 18  1  0
 12 19  1  0
 12 20  1  0
M  ISO  8  13  14  14  14  15  14  16  14  17  14  18   8  19   8  20   8
M  END
>  <minimizedAffinity>  (1) 
-3.95063376

>  <minimizedRMSD>  (1) 
0.144036099

$$$$
