
     RDKit          3D

 18 19  0  0  0  0  0  0  0  0999 V2000
   37.9440   22.3030   36.1250 C   0  0  0  0  0  0  0  0  0  0  0  0
   39.3360   22.2040   36.2170 C   0  0  0  0  0  0  0  0  0  0  0  0
   39.9560   22.7330   37.3460 C   0  0  0  0  0  0  0  0  0  0  0  0
   39.1770   23.3200   38.3040 N   0  0  0  0  0  0  0  0  0  0  0  0
   37.8340   23.4010   38.1860 C   0  0  0  0  0  0  0  0  0  0  0  0
   37.2310   22.8920   37.1020 N   0  0  0  0  0  0  0  0  0  0  0  0
   37.1740   21.7890   34.9950 C   0  0  0  0  0  0  0  0  0  0  0  0
   36.0850   20.9270   35.2110 C   0  0  0  0  0  0  0  0  0  0  0  0
   35.5690   20.6210   33.9570 C   0  0  0  0  0  0  0  0  0  0  0  0
   36.3490   21.2920   33.0710 C   0  0  0  0  0  0  0  0  0  0  0  0
   37.2780   21.9640   33.7260 O   0  0  0  0  0  0  0  0  0  0  0  0
   36.3260   21.4070   31.2850 S   0  0  0  0  0  0  0  0  0  0  0  0
   39.9235   21.7226   35.4213 H   0  0  0  0  0  0  0  0  0  0  0  0
   41.0483   22.6798   37.4645 H   0  0  0  0  0  0  0  0  0  0  0  0
   37.2378   23.8822   38.9753 H   0  0  0  0  0  0  0  0  0  0  0  0
   35.7140   20.5656   36.1815 H   0  0  0  0  0  0  0  0  0  0  0  0
   34.7101   19.9722   33.7303 H   0  0  0  0  0  0  0  0  0  0  0  0
   36.0674   22.7002   30.9140 H   0  0  0  0  0  0  0  0  0  0  0  0
  1  2  2  0
  1  6  1  0
  2  3  1  0
  3  4  2  0
  5  4  1  0
  6  5  2  0
  7  8  2  0
  7  1  1  0
  9  8  1  0
 10 11  1  0
 10  9  2  0
 11  7  1  0
 12 10  1  0
  2 13  1  0
  3 14  1  0
  5 15  1  0
  8 16  1  0
  9 17  1  0
 12 18  1  0
M  ISO  6  13  14  14  14  15  14  16  14  17  14  18  11
M  END
>  <minimizedAffinity>  (1) 
-3.89821935

>  <minimizedRMSD>  (1) 
0.104113363

$$$$
