
     RDKit          3D

 40 43  0  0  1  0  0  0  0  0999 V2000
   36.3250   21.6510   31.7230 C   0  0  2  0  0  0  0  0  0  0  0  0
   37.2690   21.9120   35.1360 C   0  0  0  0  0  0  0  0  0  0  0  0
   36.2230   21.0020   35.3330 C   0  0  0  0  0  0  0  0  0  0  0  0
   35.6840   20.7450   34.0720 C   0  0  0  0  0  0  0  0  0  0  0  0
   36.4420   21.5170   33.2020 C   0  0  0  0  0  0  0  0  0  0  0  0
   37.3550   22.1780   33.8790 O   0  0  0  0  0  0  0  0  0  0  0  0
   38.0500   22.3920   36.2770 C   0  0  0  0  0  0  0  0  0  0  0  0
   39.4330   22.2260   36.4070 C   0  0  0  0  0  0  0  0  0  0  0  0
   40.0500   22.7370   37.5520 C   0  0  0  0  0  0  0  0  0  0  0  0
   39.2990   23.3670   38.4880 N   0  0  0  0  0  0  0  0  0  0  0  0
   37.9630   23.5140   38.3370 C   0  0  0  0  0  0  0  0  0  0  0  0
   37.3630   23.0310   37.2500 N   0  0  0  0  0  0  0  0  0  0  0  0
   35.7330   22.9920   31.3410 C   0  0  0  0  0  0  0  0  0  0  0  0
   35.4310   20.5400   31.2520 C   0  0  0  0  0  0  0  0  0  0  0  0
   36.1680   19.3860   30.6980 C   0  0  0  0  0  0  0  0  0  0  0  0
   37.0120   19.3080   29.5970 C   0  0  0  0  0  0  0  0  0  0  0  0
   37.4780   18.0590   29.4390 N   0  0  0  0  0  0  0  0  0  0  0  0
   36.9660   17.2850   30.4120 C   0  0  0  0  0  0  0  0  0  0  0  0
   37.0740   15.9550   30.7610 C   0  0  0  0  0  0  0  0  0  0  0  0
   36.4210   15.3880   31.8450 C   0  0  0  0  0  0  0  0  0  0  0  0
   35.6100   16.1940   32.6300 C   0  0  0  0  0  0  0  0  0  0  0  0
   35.4990   17.5220   32.2850 C   0  0  0  0  0  0  0  0  0  0  0  0
   36.1510   18.1070   31.1970 C   0  0  0  0  0  0  0  0  0  0  0  0
   37.3188   21.5902   31.2554 H   0  0  0  0  0  0  0  0  0  0  0  0
   35.8922   20.5748   36.2912 H   0  0  0  0  0  0  0  0  0  0  0  0
   34.8450   20.0788   33.8226 H   0  0  0  0  0  0  0  0  0  0  0  0
   40.0171   21.7089   35.6314 H   0  0  0  0  0  0  0  0  0  0  0  0
   41.1356   22.6289   37.6924 H   0  0  0  0  0  0  0  0  0  0  0  0
   37.3739   24.0306   39.1091 H   0  0  0  0  0  0  0  0  0  0  0  0
   35.4841   23.5558   32.2521 H   0  0  0  0  0  0  0  0  0  0  0  0
   36.4642   23.5597   30.7467 H   0  0  0  0  0  0  0  0  0  0  0  0
   34.8209   22.8342   30.7467 H   0  0  0  0  0  0  0  0  0  0  0  0
   34.8291   20.1921   32.1045 H   0  0  0  0  0  0  0  0  0  0  0  0
   34.8091   20.9466   30.4409 H   0  0  0  0  0  0  0  0  0  0  0  0
   37.2644   20.1556   28.9429 H   0  0  0  0  0  0  0  0  0  0  0  0
   38.1201   17.7461   28.6969 H   0  0  0  0  0  0  0  0  0  0  0  0
   37.7145   15.3073   30.1444 H   0  0  0  0  0  0  0  0  0  0  0  0
   36.5438   14.3199   32.0777 H   0  0  0  0  0  0  0  0  0  0  0  0
   35.0735   15.7857   33.4992 H   0  0  0  0  0  0  0  0  0  0  0  0
   34.8559   18.1633   32.9056 H   0  0  0  0  0  0  0  0  0  0  0  0
  1  5  1  0
  2  3  2  0
  2  7  1  0
  4  3  1  0
  5  6  1  0
  5  4  2  0
  6  2  1  0
  7  8  2  0
  7 12  1  0
  8  9  1  0
  9 10  2  0
 11 10  1  0
 12 11  2  0
 13  1  1  0
 14  1  1  0
 15 23  1  0
 15 14  1  0
 16 15  2  0
 17 16  1  0
 17 18  1  0
 18 19  2  0
 18 23  1  0
 19 20  1  0
 20 21  2  0
 22 21  1  0
 23 22  2  0
  1 24  1  6
  3 25  1  0
  4 26  1  0
  8 27  1  0
  9 28  1  0
 11 29  1  0
 13 30  1  0
 13 31  1  0
 13 32  1  0
 14 33  1  0
 14 34  1  0
 16 35  1  0
 17 36  1  0
 19 37  1  0
 20 38  1  0
 21 39  1  0
 22 40  1  0
M  ISO  8  24   8  25  14  26  14  27  14  28  14  29  14  30   8  31   8
M  ISO  8  32   8  33   8  34   8  35  14  36   9  37  14  38  14  39  14
M  ISO  1  40  14
M  END
>  <minimizedAffinity>  (1) 
-5.55989933

>  <minimizedRMSD>  (1) 
2.13836598

$$$$
