
     RDKit          3D

 34 36  0  0  1  0  0  0  0  0999 V2000
   37.1340   21.7970   34.9680 C   0  0  0  0  0  0  0  0  0  0  0  0
   36.1130   20.8660   35.1810 C   0  0  0  0  0  0  0  0  0  0  0  0
   35.5480   20.5990   33.9400 C   0  0  0  0  0  0  0  0  0  0  0  0
   36.2690   21.3890   33.0570 C   0  0  0  0  0  0  0  0  0  0  0  0
   37.1830   22.0680   33.7070 O   0  0  0  0  0  0  0  0  0  0  0  0
   37.9330   22.2920   36.0910 C   0  0  0  0  0  0  0  0  0  0  0  0
   39.3260   22.1880   36.1650 C   0  0  0  0  0  0  0  0  0  0  0  0
   39.9460   22.7130   37.3020 C   0  0  0  0  0  0  0  0  0  0  0  0
   39.2030   23.2920   38.2730 N   0  0  0  0  0  0  0  0  0  0  0  0
   37.8530   23.3780   38.1720 C   0  0  0  0  0  0  0  0  0  0  0  0
   37.2470   22.8810   37.0920 N   0  0  0  0  0  0  0  0  0  0  0  0
   36.1100   21.5240   31.5720 C   0  0  2  0  0  0  0  0  0  0  0  0
   36.2120   20.1760   30.8910 C   0  0  0  0  0  0  0  0  0  0  0  0
   37.1850   22.4500   31.0930 C   0  0  0  0  0  0  0  0  0  0  0  0
   36.6290   23.8270   31.0510 C   0  0  0  0  0  0  0  0  0  0  0  0
   37.5640   24.8540   31.1080 C   0  0  0  0  0  0  0  0  0  0  0  0
   37.0750   26.1470   31.0710 C   0  0  0  0  0  0  0  0  0  0  0  0
   35.7750   26.4830   30.9830 N   0  0  0  0  0  0  0  0  0  0  0  0
   34.9040   25.4340   30.9300 C   0  0  0  0  0  0  0  0  0  0  0  0
   35.3290   24.1600   30.9630 N   0  0  0  0  0  0  0  0  0  0  0  0
   35.8145   20.4290   36.1453 H   0  0  0  0  0  0  0  0  0  0  0  0
   34.7171   19.9158   33.7100 H   0  0  0  0  0  0  0  0  0  0  0  0
   39.9088   21.7130   35.3621 H   0  0  0  0  0  0  0  0  0  0  0  0
   41.0394   22.6554   37.4076 H   0  0  0  0  0  0  0  0  0  0  0  0
   37.2645   23.8521   38.9713 H   0  0  0  0  0  0  0  0  0  0  0  0
   35.1167   21.9277   31.3262 H   0  0  0  0  0  0  0  0  0  0  0  0
   36.2719   19.3842   31.6522 H   0  0  0  0  0  0  0  0  0  0  0  0
   35.3235   20.0143   30.2629 H   0  0  0  0  0  0  0  0  0  0  0  0
   37.1147   20.1499   30.2629 H   0  0  0  0  0  0  0  0  0  0  0  0
   38.0408   22.4152   31.7832 H   0  0  0  0  0  0  0  0  0  0  0  0
   37.5271   22.1484   30.0920 H   0  0  0  0  0  0  0  0  0  0  0  0
   38.6422   24.6479   31.1792 H   0  0  0  0  0  0  0  0  0  0  0  0
   37.8074   26.9664   31.1172 H   0  0  0  0  0  0  0  0  0  0  0  0
   33.8252   25.6369   30.8584 H   0  0  0  0  0  0  0  0  0  0  0  0
  1  2  2  0
  1  6  1  0
  3  2  1  0
  4  5  1  0
  4  3  2  0
  5  1  1  0
  6  7  2  0
  6 11  1  0
  7  8  1  0
  8  9  2  0
 10  9  1  0
 11 10  2  0
 12  4  1  0
 13 12  1  0
 14 12  1  0
 15 14  1  0
 15 16  2  0
 17 16  1  0
 18 17  2  0
 19 20  2  0
 19 18  1  0
 20 15  1  0
  2 21  1  0
  3 22  1  0
  7 23  1  0
  8 24  1  0
 10 25  1  0
 12 26  1  1
 13 27  1  0
 13 28  1  0
 13 29  1  0
 14 30  1  0
 14 31  1  0
 16 32  1  0
 17 33  1  0
 19 34  1  0
M  ISO  8  21  14  22  14  23  14  24  14  25  14  26   8  27   8  28   8
M  ISO  6  29   8  30   8  31   8  32  14  33  14  34  14
M  END
>  <minimizedAffinity>  (1) 
-5.44948912

>  <minimizedRMSD>  (1) 
3.5445261

$$$$
