
     RDKit          3D

 30 32  0  0  0  0  0  0  0  0999 V2000
   40.4290   22.3960   37.8190 C   0  0  0  0  0  0  0  0  0  0  0  0
   39.2900   23.1470   37.4670 C   0  0  0  0  0  0  0  0  0  0  0  0
   39.0540   23.3810   36.1140 C   0  0  0  0  0  0  0  0  0  0  0  0
   39.9170   22.8850   35.1830 N   0  0  0  0  0  0  0  0  0  0  0  0
   41.0020   22.1660   35.5690 C   0  0  0  0  0  0  0  0  0  0  0  0
   41.2440   21.9320   36.8620 N   0  0  0  0  0  0  0  0  0  0  0  0
   38.3360   23.6970   38.4790 C   0  0  0  0  0  0  0  0  0  0  0  0
   39.0640   23.9450   39.6320 F   0  0  0  0  0  0  0  0  0  0  0  0
   37.3290   22.8490   38.7630 F   0  0  0  0  0  0  0  0  0  0  0  0
   37.8990   24.9870   38.0910 F   0  0  0  0  0  0  0  0  0  0  0  0
   42.0780   21.5550   34.2690 S   0  0  0  0  0  0  0  0  0  0  0  0
   43.6930   21.2210   34.9800 C   0  0  0  0  0  0  0  0  0  0  0  0
   44.1190   19.9020   35.1330 C   0  0  0  0  0  0  0  0  0  0  0  0
   45.3430   19.6310   35.6720 C   0  0  0  0  0  0  0  0  0  0  0  0
   46.2120   20.6100   36.0880 C   0  0  0  0  0  0  0  0  0  0  0  0
   45.7950   21.9340   35.9390 C   0  0  0  0  0  0  0  0  0  0  0  0
   46.6090   22.9780   36.3310 C   0  0  0  0  0  0  0  0  0  0  0  0
   46.1320   24.2630   36.1550 C   0  0  0  0  0  0  0  0  0  0  0  0
   44.8990   24.5670   35.6140 C   0  0  0  0  0  0  0  0  0  0  0  0
   44.1040   23.5160   35.2280 C   0  0  0  0  0  0  0  0  0  0  0  0
   44.5580   22.2130   35.3940 C   0  0  0  0  0  0  0  0  0  0  0  0
   40.6487   22.1911   38.8772 H   0  0  0  0  0  0  0  0  0  0  0  0
   38.1755   23.9632   35.7987 H   0  0  0  0  0  0  0  0  0  0  0  0
   43.4650   19.0757   34.8176 H   0  0  0  0  0  0  0  0  0  0  0  0
   45.6480   18.5795   35.7783 H   0  0  0  0  0  0  0  0  0  0  0  0
   47.1930   20.3618   36.5194 H   0  0  0  0  0  0  0  0  0  0  0  0
   47.6016   22.7936   36.7677 H   0  0  0  0  0  0  0  0  0  0  0  0
   46.7769   25.0980   36.4663 H   0  0  0  0  0  0  0  0  0  0  0  0
   44.5667   25.6090   35.4968 H   0  0  0  0  0  0  0  0  0  0  0  0
   43.1129   23.7044   34.7896 H   0  0  0  0  0  0  0  0  0  0  0  0
  2  1  2  0
  2  7  1  0
  3  2  1  0
  4  5  1  0
  4  3  2  0
  5  6  2  0
  6  1  1  0
  7  9  1  0
  7  8  1  0
 10  7  1  0
 11 12  1  0
 11  5  1  0
 12 13  2  0
 12 21  1  0
 13 14  1  0
 14 15  2  0
 16 15  1  0
 16 17  2  0
 18 17  1  0
 19 18  2  0
 20 21  2  0
 20 19  1  0
 21 16  1  0
  1 22  1  0
  3 23  1  0
 13 24  1  0
 14 25  1  0
 15 26  1  0
 17 27  1  0
 18 28  1  0
 19 29  1  0
 20 30  1  0
M  ISO  8  22  14  23  14  24  14  25  14  26  14  27  14  28  14  29  14
M  ISO  1  30  14
M  END
>  <minimizedAffinity>  (1) 
-4.76946354

>  <minimizedRMSD>  (1) 
1.05154395

$$$$
