
     RDKit          3D

 36 38  0  0  1  0  0  0  0  0999 V2000
   36.0750   21.2340   32.1270 C   0  0  2  0  0  0  0  0  0  0  0  0
   37.2780   21.8250   35.4220 C   0  0  0  0  0  0  0  0  0  0  0  0
   36.1580   21.0550   35.7950 C   0  0  0  0  0  0  0  0  0  0  0  0
   35.5130   20.6990   34.6170 C   0  0  0  0  0  0  0  0  0  0  0  0
   36.2800   21.2730   33.6120 C   0  0  0  0  0  0  0  0  0  0  0  0
   37.3000   21.9200   34.1350 O   0  0  0  0  0  0  0  0  0  0  0  0
   38.1710   22.3560   36.4500 C   0  0  0  0  0  0  0  0  0  0  0  0
   39.5530   22.1350   36.4680 C   0  0  0  0  0  0  0  0  0  0  0  0
   40.2820   22.7080   37.5160 C   0  0  0  0  0  0  0  0  0  0  0  0
   39.6480   23.4410   38.4560 N   0  0  0  0  0  0  0  0  0  0  0  0
   38.3020   23.6380   38.4100 C   0  0  0  0  0  0  0  0  0  0  0  0
   37.6070   23.0910   37.4120 N   0  0  0  0  0  0  0  0  0  0  0  0
   35.6860   22.6000   31.6000 C   0  0  0  0  0  0  0  0  0  0  0  0
   34.9800   20.2390   31.8670 C   0  0  0  0  0  0  0  0  0  0  0  0
   35.6470   18.9180   31.5820 C   0  0  0  0  0  0  0  0  0  0  0  0
   36.5140   18.7090   30.5530 C   0  0  0  0  0  0  0  0  0  0  0  0
   37.1150   17.4960   30.3060 C   0  0  0  0  0  0  0  0  0  0  0  0
   36.8330   16.4300   31.1350 C   0  0  0  0  0  0  0  0  0  0  0  0
   35.9660   16.5750   32.1920 C   0  0  0  0  0  0  0  0  0  0  0  0
   35.3950   17.8150   32.3880 C   0  0  0  0  0  0  0  0  0  0  0  0
   37.0036   20.9438   31.6137 H   0  0  0  0  0  0  0  0  0  0  0  0
   35.8542   20.7882   36.8180 H   0  0  0  0  0  0  0  0  0  0  0  0
   34.5991   20.0970   34.5055 H   0  0  0  0  0  0  0  0  0  0  0  0
   40.0464   21.5348   35.6893 H   0  0  0  0  0  0  0  0  0  0  0  0
   41.3706   22.5614   37.5739 H   0  0  0  0  0  0  0  0  0  0  0  0
   37.7969   24.2373   39.1818 H   0  0  0  0  0  0  0  0  0  0  0  0
   35.4930   23.2776   32.4448 H   0  0  0  0  0  0  0  0  0  0  0  0
   36.5051   23.0031   30.9863 H   0  0  0  0  0  0  0  0  0  0  0  0
   34.7775   22.5111   30.9863 H   0  0  0  0  0  0  0  0  0  0  0  0
   34.3305   20.1519   32.7505 H   0  0  0  0  0  0  0  0  0  0  0  0
   34.3542   20.5549   31.0193 H   0  0  0  0  0  0  0  0  0  0  0  0
   36.7456   19.5522   29.8856 H   0  0  0  0  0  0  0  0  0  0  0  0
   37.8093   17.3782   29.4609 H   0  0  0  0  0  0  0  0  0  0  0  0
   37.3064   15.4547   30.9485 H   0  0  0  0  0  0  0  0  0  0  0  0
   35.7356   15.7309   32.8586 H   0  0  0  0  0  0  0  0  0  0  0  0
   34.6997   17.9377   33.2315 H   0  0  0  0  0  0  0  0  0  0  0  0
  1  5  1  0
  2  3  2  0
  2  7  1  0
  4  3  1  0
  5  6  1  0
  5  4  2  0
  6  2  1  0
  7  8  2  0
  7 12  1  0
  8  9  1  0
  9 10  2  0
 11 10  1  0
 12 11  2  0
 13  1  1  0
 14  1  1  0
 15 14  1  0
 15 20  1  0
 16 15  2  0
 17 16  1  0
 17 18  2  0
 18 19  1  0
 19 20  2  0
  1 21  1  6
  3 22  1  0
  4 23  1  0
  8 24  1  0
  9 25  1  0
 11 26  1  0
 13 27  1  0
 13 28  1  0
 13 29  1  0
 14 30  1  0
 14 31  1  0
 16 32  1  0
 17 33  1  0
 18 34  1  0
 19 35  1  0
 20 36  1  0
M  ISO  8  21   8  22  14  23  14  24  14  25  14  26  14  27   8  28   8
M  ISO  8  29   8  30   8  31   8  32  14  33  14  34  14  35  14  36  14
M  END
>  <minimizedAffinity>  (1) 
-5.22692823

>  <minimizedRMSD>  (1) 
2.23682952

$$$$
