
     RDKit          3D

 42 44  0  0  1  0  0  0  0  0999 V2000
   37.2070   21.7570   35.2600 C   0  0  0  0  0  0  0  0  0  0  0  0
   36.0570   21.0260   35.5490 C   0  0  0  0  0  0  0  0  0  0  0  0
   35.5240   20.6400   34.3160 C   0  0  0  0  0  0  0  0  0  0  0  0
   36.3950   21.1670   33.3720 C   0  0  0  0  0  0  0  0  0  0  0  0
   37.3580   21.8080   33.9760 O   0  0  0  0  0  0  0  0  0  0  0  0
   38.0160   22.3230   36.3380 C   0  0  0  0  0  0  0  0  0  0  0  0
   39.3990   22.2000   36.4380 C   0  0  0  0  0  0  0  0  0  0  0  0
   40.0360   22.8070   37.5130 C   0  0  0  0  0  0  0  0  0  0  0  0
   39.3030   23.4940   38.4280 N   0  0  0  0  0  0  0  0  0  0  0  0
   37.9630   23.5990   38.3110 C   0  0  0  0  0  0  0  0  0  0  0  0
   37.3650   23.0130   37.2760 N   0  0  0  0  0  0  0  0  0  0  0  0
   36.2770   21.0500   31.9130 C   0  0  2  0  0  0  0  0  0  0  0  0
   35.7150   22.3030   31.2870 C   0  0  0  0  0  0  0  0  0  0  0  0
   35.5060   19.8410   31.5480 C   0  0  0  0  0  0  0  0  0  0  0  0
   36.1500   18.5240   31.4840 C   0  0  0  0  0  0  0  0  0  0  0  0
   35.4250   17.5910   32.4860 C   0  0  0  0  0  0  0  0  0  0  0  0
   35.5150   16.1880   31.9710 C   0  0  0  0  0  0  0  0  0  0  0  0
   36.6440   16.0660   31.0060 C   0  0  0  0  0  0  0  0  0  0  0  0
   37.8800   16.8300   31.4030 C   0  0  0  0  0  0  0  0  0  0  0  0
   37.5880   18.3220   31.6680 C   0  0  0  0  0  0  0  0  0  0  0  0
   35.6507   20.7986   36.5456 H   0  0  0  0  0  0  0  0  0  0  0  0
   34.6145   20.0487   34.1336 H   0  0  0  0  0  0  0  0  0  0  0  0
   39.9719   21.6374   35.6862 H   0  0  0  0  0  0  0  0  0  0  0  0
   41.1279   22.7319   37.6229 H   0  0  0  0  0  0  0  0  0  0  0  0
   37.3766   24.1574   39.0556 H   0  0  0  0  0  0  0  0  0  0  0  0
   37.2897   20.9344   31.4994 H   0  0  0  0  0  0  0  0  0  0  0  0
   35.4024   22.9999   32.0786 H   0  0  0  0  0  0  0  0  0  0  0  0
   36.4860   22.7787   30.6631 H   0  0  0  0  0  0  0  0  0  0  0  0
   34.8470   22.0436   30.6631 H   0  0  0  0  0  0  0  0  0  0  0  0
   34.6920   19.7556   32.2830 H   0  0  0  0  0  0  0  0  0  0  0  0
   35.2408   20.0316   30.4976 H   0  0  0  0  0  0  0  0  0  0  0  0
   36.0504   18.3167   30.4083 H   0  0  0  0  0  0  0  0  0  0  0  0
   35.9079   17.6570   33.4721 H   0  0  0  0  0  0  0  0  0  0  0  0
   34.3715   17.8903   32.5887 H   0  0  0  0  0  0  0  0  0  0  0  0
   35.6817   15.5014   32.8141 H   0  0  0  0  0  0  0  0  0  0  0  0
   34.5756   15.9324   31.4589 H   0  0  0  0  0  0  0  0  0  0  0  0
   36.3051   16.4414   30.0292 H   0  0  0  0  0  0  0  0  0  0  0  0
   36.9242   15.0026   30.9796 H   0  0  0  0  0  0  0  0  0  0  0  0
   38.2932   16.3825   32.3190 H   0  0  0  0  0  0  0  0  0  0  0  0
   38.5942   16.7705   30.5685 H   0  0  0  0  0  0  0  0  0  0  0  0
   38.1497   18.9472   30.9584 H   0  0  0  0  0  0  0  0  0  0  0  0
   37.8934   18.6034   32.6866 H   0  0  0  0  0  0  0  0  0  0  0  0
  1  2  2  0
  1  6  1  0
  3  2  1  0
  4  5  1  0
  4  3  2  0
  5  1  1  0
  6  7  2  0
  6 11  1  0
  7  8  1  0
  8  9  2  0
 10  9  1  0
 11 10  2  0
 12  4  1  0
 13 12  1  0
 14 12  1  0
 15 14  1  0
 15 20  1  0
 15 16  1  0
 17 16  1  0
 18 19  1  0
 18 17  1  0
 19 20  1  0
  2 21  1  0
  3 22  1  0
  7 23  1  0
  8 24  1  0
 10 25  1  0
 12 26  1  6
 13 27  1  0
 13 28  1  0
 13 29  1  0
 14 30  1  0
 14 31  1  0
 15 32  1  0
 16 33  1  0
 16 34  1  0
 17 35  1  0
 17 36  1  0
 18 37  1  0
 18 38  1  0
 19 39  1  0
 19 40  1  0
 20 41  1  0
 20 42  1  0
M  ISO  8  21  14  22  14  23  14  24  14  25  14  26   8  27   8  28   8
M  ISO  8  29   8  30   8  31   8  32  13  33  13  34  13  35  13  36  13
M  ISO  6  37  13  38  13  39  13  40  13  41  13  42  13
M  END
>  <minimizedAffinity>  (1) 
-5.18704367

>  <minimizedRMSD>  (1) 
0.307263017

$$$$
