
     RDKit          3D

 36 38  0  0  1  0  0  0  0  0999 V2000
   36.1740   21.4010   31.9670 C   0  0  2  0  0  0  0  0  0  0  0  0
   37.2440   21.8470   35.3300 C   0  0  0  0  0  0  0  0  0  0  0  0
   36.1770   20.9950   35.6200 C   0  0  0  0  0  0  0  0  0  0  0  0
   35.5820   20.6720   34.3980 C   0  0  0  0  0  0  0  0  0  0  0  0
   36.3360   21.3570   33.4560 C   0  0  0  0  0  0  0  0  0  0  0  0
   37.2900   22.0240   34.0540 O   0  0  0  0  0  0  0  0  0  0  0  0
   38.0810   22.3730   36.4050 C   0  0  0  0  0  0  0  0  0  0  0  0
   39.4650   22.1900   36.4780 C   0  0  0  0  0  0  0  0  0  0  0  0
   40.1280   22.7570   37.5650 C   0  0  0  0  0  0  0  0  0  0  0  0
   39.4380   23.4510   38.4950 N   0  0  0  0  0  0  0  0  0  0  0  0
   38.0880   23.6140   38.3990 C   0  0  0  0  0  0  0  0  0  0  0  0
   37.4440   23.0760   37.3650 N   0  0  0  0  0  0  0  0  0  0  0  0
   35.7130   22.7720   31.5210 C   0  0  0  0  0  0  0  0  0  0  0  0
   35.1520   20.3630   31.6100 C   0  0  0  0  0  0  0  0  0  0  0  0
   35.9250   19.1860   31.0730 C   0  0  0  0  0  0  0  0  0  0  0  0
   36.5280   19.2250   29.8320 C   0  0  0  0  0  0  0  0  0  0  0  0
   37.2390   18.1520   29.3320 C   0  0  0  0  0  0  0  0  0  0  0  0
   37.3570   16.9930   30.0950 C   0  0  0  0  0  0  0  0  0  0  0  0
   36.7620   16.9370   31.3400 C   0  0  0  0  0  0  0  0  0  0  0  0
   36.0540   18.0150   31.8280 C   0  0  0  0  0  0  0  0  0  0  0  0
   37.1315   21.2000   31.4642 H   0  0  0  0  0  0  0  0  0  0  0  0
   35.8657   20.6462   36.6157 H   0  0  0  0  0  0  0  0  0  0  0  0
   34.7124   20.0217   34.2223 H   0  0  0  0  0  0  0  0  0  0  0  0
   40.0086   21.6217   35.7089 H   0  0  0  0  0  0  0  0  0  0  0  0
   41.2170   22.6386   37.6655 H   0  0  0  0  0  0  0  0  0  0  0  0
   37.5386   24.1817   39.1645 H   0  0  0  0  0  0  0  0  0  0  0  0
   35.5039   23.3938   32.4040 H   0  0  0  0  0  0  0  0  0  0  0  0
   36.5013   23.2455   30.9174 H   0  0  0  0  0  0  0  0  0  0  0  0
   34.7987   22.6730   30.9174 H   0  0  0  0  0  0  0  0  0  0  0  0
   34.5785   20.0690   32.5014 H   0  0  0  0  0  0  0  0  0  0  0  0
   34.4326   20.7438   30.8701 H   0  0  0  0  0  0  0  0  0  0  0  0
   36.4396   20.1372   29.2237 H   0  0  0  0  0  0  0  0  0  0  0  0
   37.7084   18.2122   28.3390 H   0  0  0  0  0  0  0  0  0  0  0  0
   37.9192   16.1297   29.7094 H   0  0  0  0  0  0  0  0  0  0  0  0
   36.8536   16.0246   31.9476 H   0  0  0  0  0  0  0  0  0  0  0  0
   35.5856   17.9537   32.8214 H   0  0  0  0  0  0  0  0  0  0  0  0
  1  5  1  0
  2  3  2  0
  2  7  1  0
  4  3  1  0
  5  6  1  0
  5  4  2  0
  6  2  1  0
  7  8  2  0
  7 12  1  0
  8  9  1  0
  9 10  2  0
 11 10  1  0
 12 11  2  0
 13  1  1  0
 14  1  1  0
 15 14  1  0
 15 20  1  0
 16 15  2  0
 17 16  1  0
 17 18  2  0
 18 19  1  0
 19 20  2  0
  1 21  1  6
  3 22  1  0
  4 23  1  0
  8 24  1  0
  9 25  1  0
 11 26  1  0
 13 27  1  0
 13 28  1  0
 13 29  1  0
 14 30  1  0
 14 31  1  0
 16 32  1  0
 17 33  1  0
 18 34  1  0
 19 35  1  0
 20 36  1  0
M  ISO  8  21   8  22  14  23  14  24  14  25  14  26  14  27   8  28   8
M  ISO  8  29   8  30   8  31   8  32  14  33  14  34  14  35  14  36  14
M  END
>  <minimizedAffinity>  (1) 
-5.16825294

>  <minimizedRMSD>  (1) 
1.87590683

$$$$
