
     RDKit          3D

 39 41  0  0  1  0  0  0  0  0999 V2000
   36.1760   21.4720   31.9610 C   0  0  2  0  0  0  0  0  0  0  0  0
   37.2840   21.8670   35.3200 C   0  0  0  0  0  0  0  0  0  0  0  0
   36.2230   21.0060   35.6040 C   0  0  0  0  0  0  0  0  0  0  0  0
   35.6160   20.7020   34.3850 C   0  0  0  0  0  0  0  0  0  0  0  0
   36.3550   21.4040   33.4460 C   0  0  0  0  0  0  0  0  0  0  0  0
   37.3120   22.0640   34.0480 O   0  0  0  0  0  0  0  0  0  0  0  0
   38.1240   22.3730   36.3970 C   0  0  0  0  0  0  0  0  0  0  0  0
   39.5070   22.1600   36.4670 C   0  0  0  0  0  0  0  0  0  0  0  0
   40.1950   22.7010   37.5570 C   0  0  0  0  0  0  0  0  0  0  0  0
   39.5140   23.4050   38.4970 N   0  0  0  0  0  0  0  0  0  0  0  0
   38.1750   23.5920   38.3990 C   0  0  0  0  0  0  0  0  0  0  0  0
   37.5030   23.0840   37.3700 N   0  0  0  0  0  0  0  0  0  0  0  0
   35.7140   22.8470   31.5340 C   0  0  0  0  0  0  0  0  0  0  0  0
   35.1570   20.4310   31.5940 C   0  0  0  0  0  0  0  0  0  0  0  0
   37.2770   16.9850   30.0940 C   0  0  0  0  0  0  0  0  0  0  0  0
   37.2070   18.1490   29.3590 C   0  0  0  0  0  0  0  0  0  0  0  0
   36.5470   19.2840   29.7800 C   0  0  0  0  0  0  0  0  0  0  0  0
   35.9100   19.2590   31.0230 C   0  0  0  0  0  0  0  0  0  0  0  0
   35.9880   18.0760   31.7560 C   0  0  0  0  0  0  0  0  0  0  0  0
   36.6500   16.9460   31.3290 C   0  0  0  0  0  0  0  0  0  0  0  0
   38.1070   15.5630   29.5620 S   0  0  0  0  0  0  0  0  0  0  0  0
   39.2110   15.9720   28.6010 O   0  0  0  0  0  0  0  0  0  0  0  0
   37.1620   14.6900   28.8090 O   0  0  0  0  0  0  0  0  0  0  0  0
   37.1303   21.2832   31.4475 H   0  0  0  0  0  0  0  0  0  0  0  0
   35.9234   20.6383   36.5965 H   0  0  0  0  0  0  0  0  0  0  0  0
   34.7466   20.0515   34.2089 H   0  0  0  0  0  0  0  0  0  0  0  0
   40.0338   21.5863   35.6903 H   0  0  0  0  0  0  0  0  0  0  0  0
   41.2814   22.5572   37.6525 H   0  0  0  0  0  0  0  0  0  0  0  0
   37.6430   24.1653   39.1725 H   0  0  0  0  0  0  0  0  0  0  0  0
   35.5087   23.4580   32.4253 H   0  0  0  0  0  0  0  0  0  0  0  0
   36.5000   23.3277   30.9330 H   0  0  0  0  0  0  0  0  0  0  0  0
   34.7972   22.7556   30.9330 H   0  0  0  0  0  0  0  0  0  0  0  0
   34.5959   20.1202   32.4876 H   0  0  0  0  0  0  0  0  0  0  0  0
   34.4364   20.8277   30.8637 H   0  0  0  0  0  0  0  0  0  0  0  0
   37.7068   18.1738   28.3794 H   0  0  0  0  0  0  0  0  0  0  0  0
   36.5226   20.1871   29.1524 H   0  0  0  0  0  0  0  0  0  0  0  0
   35.4900   18.0427   32.7363 H   0  0  0  0  0  0  0  0  0  0  0  0
   36.6800   16.0389   31.9505 H   0  0  0  0  0  0  0  0  0  0  0  0
   38.6141   14.9012   30.6491 H   0  0  0  0  0  0  0  0  0  0  0  0
  1  5  1  0
  2  3  2  0
  2  7  1  0
  4  3  1  0
  5  6  1  0
  5  4  2  0
  6  2  1  0
  7  8  2  0
  7 12  1  0
  8  9  1  0
  9 10  2  0
 11 10  1  0
 12 11  2  0
 13  1  1  0
 14  1  1  0
 15 20  2  0
 16 17  2  0
 16 15  1  0
 17 18  1  0
 18 14  1  0
 18 19  2  0
 20 19  1  0
 21 15  1  0
 22 21  2  0
 23 21  2  0
  1 24  1  6
  3 25  1  0
  4 26  1  0
  8 27  1  0
  9 28  1  0
 11 29  1  0
 13 30  1  0
 13 31  1  0
 13 32  1  0
 14 33  1  0
 14 34  1  0
 16 35  1  0
 17 36  1  0
 19 37  1  0
 20 38  1  0
 21 39  1  0
M  ISO  8  24   8  25  14  26  14  27  14  28  14  29  14  30   8  31   8
M  ISO  8  32   8  33   8  34   8  35  14  36  14  37  14  38  14  39  11
M  END
>  <minimizedAffinity>  (1) 
-5.03871822

>  <minimizedRMSD>  (1) 
2.96187115

$$$$
