
     RDKit          3D

 25 27  0  0  0  0  0  0  0  0999 V2000
   40.3780   22.6570   37.6570 C   0  0  0  0  0  0  0  0  0  0  0  0
   39.2720   23.4050   37.2220 C   0  0  0  0  0  0  0  0  0  0  0  0
   39.3550   24.0560   36.0020 C   0  0  0  0  0  0  0  0  0  0  0  0
   40.5090   23.9480   35.2660 N   0  0  0  0  0  0  0  0  0  0  0  0
   41.5600   23.2100   35.7270 C   0  0  0  0  0  0  0  0  0  0  0  0
   41.4780   22.5840   36.9030 N   0  0  0  0  0  0  0  0  0  0  0  0
   38.0100   23.5320   38.0150 C   0  0  0  0  0  0  0  0  0  0  0  0
   38.1590   22.7290   39.1360 F   0  0  0  0  0  0  0  0  0  0  0  0
   36.9140   23.1180   37.3510 F   0  0  0  0  0  0  0  0  0  0  0  0
   37.8990   24.8380   38.5510 F   0  0  0  0  0  0  0  0  0  0  0  0
   43.0090   23.1400   34.6910 S   0  0  0  0  0  0  0  0  0  0  0  0
   46.1710   26.0530   37.1110 N   0  0  0  0  0  0  0  0  0  0  0  0
   45.9700   24.8350   37.6210 C   0  0  0  0  0  0  0  0  0  0  0  0
   45.0980   24.1310   36.8900 N   0  0  0  0  0  0  0  0  0  0  0  0
   44.7050   24.9090   35.8570 C   0  0  0  0  0  0  0  0  0  0  0  0
   43.8270   24.7240   34.7850 C   0  0  0  0  0  0  0  0  0  0  0  0
   43.6490   25.7410   33.8900 N   0  0  0  0  0  0  0  0  0  0  0  0
   44.3310   26.9060   34.0700 C   0  0  0  0  0  0  0  0  0  0  0  0
   45.1670   27.0570   35.1080 N   0  0  0  0  0  0  0  0  0  0  0  0
   45.3850   26.1010   36.0160 C   0  0  0  0  0  0  0  0  0  0  0  0
   40.3383   22.1297   38.6215 H   0  0  0  0  0  0  0  0  0  0  0  0
   38.5085   24.6509   35.6283 H   0  0  0  0  0  0  0  0  0  0  0  0
   46.7896   26.7923   37.4738 H   0  0  0  0  0  0  0  0  0  0  0  0
   46.4609   24.4572   38.5300 H   0  0  0  0  0  0  0  0  0  0  0  0
   44.1948   27.7320   33.3565 H   0  0  0  0  0  0  0  0  0  0  0  0
  2  1  2  0
  2  7  1  0
  3  2  1  0
  4  5  1  0
  4  3  2  0
  5  6  2  0
  6  1  1  0
  7 10  1  0
  7  8  1  0
  9  7  1  0
 11 16  1  0
 11  5  1  0
 12 13  1  0
 14 13  2  0
 15 20  2  0
 15 14  1  0
 16 15  1  0
 17 18  1  0
 17 16  2  0
 18 19  2  0
 19 20  1  0
 20 12  1  0
  1 21  1  0
  3 22  1  0
 12 23  1  0
 13 24  1  0
 18 25  1  0
M  ISO  5  21  14  22  14  23   9  24  14  25  14
M  END
>  <minimizedAffinity>  (1) 
-4.70555639

>  <minimizedRMSD>  (1) 
3.60725665

$$$$
