
     RDKit          3D

 41 43  0  0  1  0  0  0  0  0999 V2000
   37.1890   21.8440   34.9910 C   0  0  0  0  0  0  0  0  0  0  0  0
   36.1540   20.9250   35.1870 C   0  0  0  0  0  0  0  0  0  0  0  0
   35.6100   20.6720   33.9300 C   0  0  0  0  0  0  0  0  0  0  0  0
   36.3550   21.4510   33.0580 C   0  0  0  0  0  0  0  0  0  0  0  0
   37.2530   22.1050   33.7430 O   0  0  0  0  0  0  0  0  0  0  0  0
   37.9670   22.3220   36.1300 C   0  0  0  0  0  0  0  0  0  0  0  0
   39.3520   22.1890   36.2400 C   0  0  0  0  0  0  0  0  0  0  0  0
   39.9750   22.6940   37.3730 C   0  0  0  0  0  0  0  0  0  0  0  0
   39.2330   23.3000   38.3340 N   0  0  0  0  0  0  0  0  0  0  0  0
   37.8830   23.4200   38.2040 C   0  0  0  0  0  0  0  0  0  0  0  0
   37.2710   22.9330   37.1140 N   0  0  0  0  0  0  0  0  0  0  0  0
   36.2010   21.5700   31.5880 C   0  0  2  0  0  0  0  0  0  0  0  0
   35.9600   20.2230   30.9380 C   0  0  0  0  0  0  0  0  0  0  0  0
   37.4660   22.1570   31.0420 C   0  0  0  0  0  0  0  0  0  0  0  0
   37.3600   23.5400   30.7040 N   0  0  0  0  0  0  0  0  0  0  0  0
   36.1160   24.1750   30.9350 C   0  0  0  0  0  0  0  0  0  0  0  0
   36.3490   25.2620   31.9850 C   0  0  0  0  0  0  0  0  0  0  0  0
   37.1640   26.3360   31.3310 C   0  0  0  0  0  0  0  0  0  0  0  0
   38.3580   25.7150   30.6400 C   0  0  0  0  0  0  0  0  0  0  0  0
   38.5350   24.2850   31.0520 C   0  0  0  0  0  0  0  0  0  0  0  0
   35.8329   20.4883   36.1442 H   0  0  0  0  0  0  0  0  0  0  0  0
   34.7734   20.0017   33.6834 H   0  0  0  0  0  0  0  0  0  0  0  0
   39.9355   21.6962   35.4484 H   0  0  0  0  0  0  0  0  0  0  0  0
   41.0649   22.6034   37.4912 H   0  0  0  0  0  0  0  0  0  0  0  0
   37.2954   23.9152   38.9910 H   0  0  0  0  0  0  0  0  0  0  0  0
   35.3308   22.2066   31.3701 H   0  0  0  0  0  0  0  0  0  0  0  0
   35.8233   19.4590   31.7175 H   0  0  0  0  0  0  0  0  0  0  0  0
   35.0567   20.2742   30.3123 H   0  0  0  0  0  0  0  0  0  0  0  0
   36.8250   19.9578   30.3123 H   0  0  0  0  0  0  0  0  0  0  0  0
   38.2558   22.0445   31.7994 H   0  0  0  0  0  0  0  0  0  0  0  0
   37.6950   21.6163   30.1118 H   0  0  0  0  0  0  0  0  0  0  0  0
   35.7443   24.6254   30.0028 H   0  0  0  0  0  0  0  0  0  0  0  0
   35.3671   23.4493   31.2850 H   0  0  0  0  0  0  0  0  0  0  0  0
   35.3863   25.6721   32.3241 H   0  0  0  0  0  0  0  0  0  0  0  0
   36.8704   24.8538   32.8633 H   0  0  0  0  0  0  0  0  0  0  0  0
   36.5462   26.8649   30.5903 H   0  0  0  0  0  0  0  0  0  0  0  0
   37.5121   27.0474   32.0944 H   0  0  0  0  0  0  0  0  0  0  0  0
   39.2626   26.2808   30.9076 H   0  0  0  0  0  0  0  0  0  0  0  0
   38.1895   25.7477   29.5535 H   0  0  0  0  0  0  0  0  0  0  0  0
   38.6937   24.2333   32.1393 H   0  0  0  0  0  0  0  0  0  0  0  0
   39.4070   23.8588   30.5343 H   0  0  0  0  0  0  0  0  0  0  0  0
  1  2  2  0
  1  6  1  0
  3  2  1  0
  4  5  1  0
  4  3  2  0
  5  1  1  0
  6  7  2  0
  6 11  1  0
  7  8  1  0
  8  9  2  0
 10  9  1  0
 11 10  2  0
 12  4  1  0
 13 12  1  0
 14 12  1  0
 15 16  1  0
 15 14  1  0
 15 20  1  0
 16 17  1  0
 18 17  1  0
 19 20  1  0
 19 18  1  0
  2 21  1  0
  3 22  1  0
  7 23  1  0
  8 24  1  0
 10 25  1  0
 12 26  1  1
 13 27  1  0
 13 28  1  0
 13 29  1  0
 14 30  1  0
 14 31  1  0
 16 32  1  0
 16 33  1  0
 17 34  1  0
 17 35  1  0
 18 36  1  0
 18 37  1  0
 19 38  1  0
 19 39  1  0
 20 40  1  0
 20 41  1  0
M  ISO  8  21  14  22  14  23  14  24  14  25  14  26   8  27   8  28   8
M  ISO  8  29   8  30   8  31   8  32  13  33  13  34  13  35  13  36  13
M  ISO  5  37  13  38  13  39  13  40  13  41  13
M  END
>  <minimizedAffinity>  (1) 
-5.01215744

>  <minimizedRMSD>  (1) 
3.92671561

$$$$
