
     RDKit          3D

 33 34  0  0  1  0  0  0  0  0999 V2000
   36.4300   21.0960   31.7670 C   0  0  2  0  0  0  0  0  0  0  0  0
   37.2300   21.7650   35.1570 C   0  0  0  0  0  0  0  0  0  0  0  0
   36.0770   21.0120   35.4030 C   0  0  0  0  0  0  0  0  0  0  0  0
   35.5730   20.6260   34.1670 C   0  0  0  0  0  0  0  0  0  0  0  0
   36.4600   21.1740   33.2520 C   0  0  0  0  0  0  0  0  0  0  0  0
   37.4000   21.8240   33.8970 O   0  0  0  0  0  0  0  0  0  0  0  0
   37.9960   22.3210   36.2780 C   0  0  0  0  0  0  0  0  0  0  0  0
   39.3850   22.2000   36.3950 C   0  0  0  0  0  0  0  0  0  0  0  0
   39.9980   22.7680   37.5010 C   0  0  0  0  0  0  0  0  0  0  0  0
   39.2340   23.4170   38.4260 N   0  0  0  0  0  0  0  0  0  0  0  0
   37.8940   23.5130   38.2770 C   0  0  0  0  0  0  0  0  0  0  0  0
   37.3010   22.9680   37.2150 N   0  0  0  0  0  0  0  0  0  0  0  0
   35.5780   22.2020   31.1780 C   0  0  0  0  0  0  0  0  0  0  0  0
   35.8690   19.7750   31.3820 C   0  0  0  0  0  0  0  0  0  0  0  0
   36.7200   18.6420   31.6670 N   0  0  0  0  0  0  0  0  0  0  0  0
   36.0080   17.4800   32.0610 C   0  0  0  0  0  0  0  0  0  0  0  0
   34.7850   17.2890   32.4130 N   0  0  0  0  0  0  0  0  0  0  0  0
   36.7080   16.2180   32.1070 N   0  0  0  0  0  0  0  0  0  0  0  0
   34.0470   18.0310   32.4710 H   0  0  0  0  0  0  0  0  0  0  0  0
   37.4519   21.2145   31.3774 H   0  0  0  0  0  0  0  0  0  0  0  0
   35.6504   20.7712   36.3879 H   0  0  0  0  0  0  0  0  0  0  0  0
   34.6759   20.0237   33.9612 H   0  0  0  0  0  0  0  0  0  0  0  0
   39.9733   21.6697   35.6317 H   0  0  0  0  0  0  0  0  0  0  0  0
   41.0879   22.6962   37.6312 H   0  0  0  0  0  0  0  0  0  0  0  0
   37.2930   24.0408   39.0321 H   0  0  0  0  0  0  0  0  0  0  0  0
   35.1258   22.7890   31.9910 H   0  0  0  0  0  0  0  0  0  0  0  0
   36.2063   22.8581   30.5577 H   0  0  0  0  0  0  0  0  0  0  0  0
   34.7833   21.7618   30.5577 H   0  0  0  0  0  0  0  0  0  0  0  0
   35.6726   19.7903   30.2998 H   0  0  0  0  0  0  0  0  0  0  0  0
   34.9621   19.6380   31.9893 H   0  0  0  0  0  0  0  0  0  0  0  0
   37.7467   18.6752   31.5912 H   0  0  0  0  0  0  0  0  0  0  0  0
   36.2093   15.3625   32.3905 H   0  0  0  0  0  0  0  0  0  0  0  0
   37.7060   16.1732   31.8564 H   0  0  0  0  0  0  0  0  0  0  0  0
  1  5  1  0
  2  3  2  0
  2  7  1  0
  4  3  1  0
  5  6  1  0
  5  4  2  0
  6  2  1  0
  7  8  2  0
  7 12  1  0
  8  9  1  0
  9 10  2  0
 11 10  1  0
 12 11  2  0
 13  1  1  0
 14 15  1  0
 14  1  1  0
 15 16  1  0
 16 18  1  0
 16 17  2  0
 17 19  1  0
  1 20  1  6
  3 21  1  0
  4 22  1  0
  8 23  1  0
  9 24  1  0
 11 25  1  0
 13 26  1  0
 13 27  1  0
 13 28  1  0
 14 29  1  0
 14 30  1  0
 15 31  1  0
 18 32  1  0
 18 33  1  0
M  ISO  8  20   8  21  14  22  14  23  14  24  14  25  14  26   8  27   8
M  ISO  3  28   8  29   8  30   8
M  END
>  <minimizedAffinity>  (1) 
-4.97801304

>  <minimizedRMSD>  (1) 
0.495362163

$$$$
