
     RDKit          3D

 33 35  0  0  1  0  0  0  0  0999 V2000
   37.2750   21.8930   35.0940 C   0  0  0  0  0  0  0  0  0  0  0  0
   36.2220   20.9940   35.2660 C   0  0  0  0  0  0  0  0  0  0  0  0
   35.7050   20.7380   34.0040 C   0  0  0  0  0  0  0  0  0  0  0  0
   36.4830   21.5020   33.1440 C   0  0  0  0  0  0  0  0  0  0  0  0
   37.3850   22.1560   33.8350 O   0  0  0  0  0  0  0  0  0  0  0  0
   38.0430   22.3760   36.2430 C   0  0  0  0  0  0  0  0  0  0  0  0
   39.4260   22.2180   36.3840 C   0  0  0  0  0  0  0  0  0  0  0  0
   40.0160   22.7380   37.5440 C   0  0  0  0  0  0  0  0  0  0  0  0
   39.2450   23.3630   38.4680 N   0  0  0  0  0  0  0  0  0  0  0  0
   37.9110   23.5000   38.3030 C   0  0  0  0  0  0  0  0  0  0  0  0
   37.3510   23.0030   37.1980 N   0  0  0  0  0  0  0  0  0  0  0  0
   36.3880   21.6300   31.6550 C   0  0  2  0  0  0  0  0  0  0  0  0
   35.6420   22.8910   31.2690 C   0  0  0  0  0  0  0  0  0  0  0  0
   35.6550   20.4230   31.1550 C   0  0  0  0  0  0  0  0  0  0  0  0
   36.4520   19.5800   30.2620 C   0  0  0  0  0  0  0  0  0  0  0  0
   37.7180   20.0230   29.9080 C   0  0  0  0  0  0  0  0  0  0  0  0
   38.2560   19.0820   29.0820 N   0  0  0  0  0  0  0  0  0  0  0  0
   37.3720   18.0910   28.9210 C   0  0  0  0  0  0  0  0  0  0  0  0
   36.2820   18.4010   29.6390 N   0  0  0  0  0  0  0  0  0  0  0  0
   35.8697   20.5701   36.2180 H   0  0  0  0  0  0  0  0  0  0  0  0
   34.8655   20.0769   33.7428 H   0  0  0  0  0  0  0  0  0  0  0  0
   40.0254   21.7068   35.6162 H   0  0  0  0  0  0  0  0  0  0  0  0
   41.0998   22.6396   37.7042 H   0  0  0  0  0  0  0  0  0  0  0  0
   37.3000   24.0098   39.0625 H   0  0  0  0  0  0  0  0  0  0  0  0
   37.3924   21.6945   31.2111 H   0  0  0  0  0  0  0  0  0  0  0  0
   35.3269   23.4236   32.1785 H   0  0  0  0  0  0  0  0  0  0  0  0
   36.3017   23.5398   30.6742 H   0  0  0  0  0  0  0  0  0  0  0  0
   34.7557   22.6252   30.6742 H   0  0  0  0  0  0  0  0  0  0  0  0
   35.3486   19.8188   32.0216 H   0  0  0  0  0  0  0  0  0  0  0  0
   34.7955   20.7865   30.5727 H   0  0  0  0  0  0  0  0  0  0  0  0
   38.1975   20.9581   30.2330 H   0  0  0  0  0  0  0  0  0  0  0  0
   37.5131   17.1866   28.3110 H   0  0  0  0  0  0  0  0  0  0  0  0
   35.4351   17.8184   29.7037 H   0  0  0  0  0  0  0  0  0  0  0  0
  1  2  2  0
  1  6  1  0
  3  2  1  0
  4  5  1  0
  4  3  2  0
  5  1  1  0
  6  7  2  0
  6 11  1  0
  7  8  1  0
  8  9  2  0
 10  9  1  0
 11 10  2  0
 12  4  1  0
 13 12  1  0
 14 12  1  0
 15 14  1  0
 16 15  2  0
 17 16  1  0
 18 17  2  0
 18 19  1  0
 19 15  1  0
  2 20  1  0
  3 21  1  0
  7 22  1  0
  8 23  1  0
 10 24  1  0
 12 25  1  6
 13 26  1  0
 13 27  1  0
 13 28  1  0
 14 29  1  0
 14 30  1  0
 16 31  1  0
 18 32  1  0
 19 33  1  0
M  ISO  8  20  14  21  14  22  14  23  14  24  14  25   8  26   8  27   8
M  ISO  6  28   8  29   8  30   8  31  14  32  14  33   9
M  END
>  <minimizedAffinity>  (1) 
-4.94252682

>  <minimizedRMSD>  (1) 
1.67083383

$$$$
