
     RDKit          3D

 33 35  0  0  1  0  0  0  0  0999 V2000
   37.2470   21.8760   35.2130 C   0  0  0  0  0  0  0  0  0  0  0  0
   36.2010   20.9720   35.4520 C   0  0  0  0  0  0  0  0  0  0  0  0
   35.6480   20.6720   34.2070 C   0  0  0  0  0  0  0  0  0  0  0  0
   36.3930   21.4110   33.2990 C   0  0  0  0  0  0  0  0  0  0  0  0
   37.3230   22.1030   33.9440 O   0  0  0  0  0  0  0  0  0  0  0  0
   38.0340   22.3890   36.3370 C   0  0  0  0  0  0  0  0  0  0  0  0
   39.4160   22.2260   36.4620 C   0  0  0  0  0  0  0  0  0  0  0  0
   40.0280   22.7760   37.5910 C   0  0  0  0  0  0  0  0  0  0  0  0
   39.2810   23.4360   38.5100 N   0  0  0  0  0  0  0  0  0  0  0  0
   37.9420   23.5780   38.3590 C   0  0  0  0  0  0  0  0  0  0  0  0
   37.3660   23.0520   37.2830 N   0  0  0  0  0  0  0  0  0  0  0  0
   36.2580   21.4940   31.8290 C   0  0  2  0  0  0  0  0  0  0  0  0
   35.7320   22.8440   31.3950 C   0  0  0  0  0  0  0  0  0  0  0  0
   35.3290   20.3960   31.4070 C   0  0  0  0  0  0  0  0  0  0  0  0
   36.0540   19.2860   30.8170 C   0  0  0  0  0  0  0  0  0  0  0  0
   36.6080   19.1770   29.5470 C   0  0  0  0  0  0  0  0  0  0  0  0
   37.2420   17.9980   29.2610 C   0  0  0  0  0  0  0  0  0  0  0  0
   37.2920   16.9840   30.2600 C   0  0  0  0  0  0  0  0  0  0  0  0
   36.4040   17.7690   31.6190 S   0  0  0  0  0  0  0  0  0  0  0  0
   35.8805   20.5779   36.4277 H   0  0  0  0  0  0  0  0  0  0  0  0
   34.8060   19.9975   33.9921 H   0  0  0  0  0  0  0  0  0  0  0  0
   39.9991   21.6860   35.7015 H   0  0  0  0  0  0  0  0  0  0  0  0
   41.1139   22.6738   37.7341 H   0  0  0  0  0  0  0  0  0  0  0  0
   37.3452   24.1164   39.1100 H   0  0  0  0  0  0  0  0  0  0  0  0
   37.2418   21.3773   31.3510 H   0  0  0  0  0  0  0  0  0  0  0  0
   35.4964   23.4486   32.2833 H   0  0  0  0  0  0  0  0  0  0  0  0
   36.4954   23.3587   30.7930 H   0  0  0  0  0  0  0  0  0  0  0  0
   34.8216   22.7066   30.7930 H   0  0  0  0  0  0  0  0  0  0  0  0
   34.7777   20.0354   32.2879 H   0  0  0  0  0  0  0  0  0  0  0  0
   34.6381   20.7986   30.6517 H   0  0  0  0  0  0  0  0  0  0  0  0
   36.5407   19.9930   28.8124 H   0  0  0  0  0  0  0  0  0  0  0  0
   37.7050   17.8364   28.2764 H   0  0  0  0  0  0  0  0  0  0  0  0
   37.7512   15.9855   30.2145 H   0  0  0  0  0  0  0  0  0  0  0  0
  1  2  2  0
  1  6  1  0
  3  2  1  0
  4  5  1  0
  4  3  2  0
  5  1  1  0
  6  7  2  0
  6 11  1  0
  7  8  1  0
  8  9  2  0
 10  9  1  0
 11 10  2  0
 12  4  1  0
 13 12  1  0
 14 12  1  0
 15 14  1  0
 15 19  1  0
 16 15  2  0
 17 16  1  0
 17 18  2  0
 18 19  1  0
  2 20  1  0
  3 21  1  0
  7 22  1  0
  8 23  1  0
 10 24  1  0
 12 25  1  6
 13 26  1  0
 13 27  1  0
 13 28  1  0
 14 29  1  0
 14 30  1  0
 16 31  1  0
 17 32  1  0
 18 33  1  0
M  ISO  8  20  14  21  14  22  14  23  14  24  14  25   8  26   8  27   8
M  ISO  6  28   8  29   8  30   8  31  14  32  14  33  14
M  END
>  <minimizedAffinity>  (1) 
-4.92977762

>  <minimizedRMSD>  (1) 
1.52556229

$$$$
