
     RDKit          3D

 32 34  0  0  1  0  0  0  0  0999 V2000
   37.2680   21.8730   35.1940 C   0  0  0  0  0  0  0  0  0  0  0  0
   36.1980   20.9770   35.4310 C   0  0  0  0  0  0  0  0  0  0  0  0
   35.6600   20.6650   34.1840 C   0  0  0  0  0  0  0  0  0  0  0  0
   36.4360   21.3890   33.2880 C   0  0  0  0  0  0  0  0  0  0  0  0
   37.3600   22.0780   33.9250 O   0  0  0  0  0  0  0  0  0  0  0  0
   38.0360   22.3870   36.3220 C   0  0  0  0  0  0  0  0  0  0  0  0
   39.4210   22.2270   36.4480 C   0  0  0  0  0  0  0  0  0  0  0  0
   40.0260   22.7730   37.5810 C   0  0  0  0  0  0  0  0  0  0  0  0
   39.2720   23.4280   38.5070 N   0  0  0  0  0  0  0  0  0  0  0  0
   37.9370   23.5630   38.3520 C   0  0  0  0  0  0  0  0  0  0  0  0
   37.3490   23.0470   37.2750 N   0  0  0  0  0  0  0  0  0  0  0  0
   36.3170   21.4460   31.8110 C   0  0  2  0  0  0  0  0  0  0  0  0
   35.7380   22.7700   31.3490 C   0  0  0  0  0  0  0  0  0  0  0  0
   35.4320   20.3340   31.3640 C   0  0  0  0  0  0  0  0  0  0  0  0
   36.1510   19.2400   30.6690 C   0  0  0  0  0  0  0  0  0  0  0  0
   36.4990   18.0840   31.2770 C   0  0  0  0  0  0  0  0  0  0  0  0
   37.3720   17.0940   29.9520 S   0  0  0  0  0  0  0  0  0  0  0  0
   37.0670   18.5450   28.7610 C   0  0  0  0  0  0  0  0  0  0  0  0
   36.5260   19.2670   29.4210 N   0  0  0  0  0  0  0  0  0  0  0  0
   35.8581   20.6011   36.4073 H   0  0  0  0  0  0  0  0  0  0  0  0
   34.8143   19.9980   33.9604 H   0  0  0  0  0  0  0  0  0  0  0  0
   40.0079   21.6933   35.6859 H   0  0  0  0  0  0  0  0  0  0  0  0
   41.1119   22.6743   37.7261 H   0  0  0  0  0  0  0  0  0  0  0  0
   37.3412   24.0944   39.1087 H   0  0  0  0  0  0  0  0  0  0  0  0
   37.3208   21.3475   31.3721 H   0  0  0  0  0  0  0  0  0  0  0  0
   35.4715   23.3793   32.2252 H   0  0  0  0  0  0  0  0  0  0  0  0
   36.4842   23.3052   30.7434 H   0  0  0  0  0  0  0  0  0  0  0  0
   34.8384   22.5855   30.7434 H   0  0  0  0  0  0  0  0  0  0  0  0
   34.9307   19.9129   32.2480 H   0  0  0  0  0  0  0  0  0  0  0  0
   34.7216   20.7608   30.6407 H   0  0  0  0  0  0  0  0  0  0  0  0
   36.3105   17.7905   32.3202 H   0  0  0  0  0  0  0  0  0  0  0  0
   37.3485   18.6468   27.7025 H   0  0  0  0  0  0  0  0  0  0  0  0
  1  2  2  0
  1  6  1  0
  3  2  1  0
  4  5  1  0
  4  3  2  0
  5  1  1  0
  6  7  2  0
  6 11  1  0
  7  8  1  0
  8  9  2  0
 10  9  1  0
 11 10  2  0
 12  4  1  0
 13 12  1  0
 14 12  1  0
 15 16  2  0
 15 14  1  0
 17 16  1  0
 18 19  2  0
 18 17  1  0
 19 15  1  0
  2 20  1  0
  3 21  1  0
  7 22  1  0
  8 23  1  0
 10 24  1  0
 12 25  1  6
 13 26  1  0
 13 27  1  0
 13 28  1  0
 14 29  1  0
 14 30  1  0
 16 31  1  0
 18 32  1  0
M  ISO  8  20  14  21  14  22  14  23  14  24  14  25   8  26   8  27   8
M  ISO  5  28   8  29   8  30   8  31  14  32  14
M  END
>  <minimizedAffinity>  (1) 
-4.86385632

>  <minimizedRMSD>  (1) 
1.26518941

$$$$
