
     RDKit          3D

 38 40  0  0  1  0  0  0  0  0999 V2000
   37.2290   21.8040   35.1630 C   0  0  0  0  0  0  0  0  0  0  0  0
   36.1140   20.9750   35.4140 C   0  0  0  0  0  0  0  0  0  0  0  0
   35.5980   20.6150   34.1680 C   0  0  0  0  0  0  0  0  0  0  0  0
   36.4290   21.2470   33.2520 C   0  0  0  0  0  0  0  0  0  0  0  0
   37.3560   21.9210   33.8950 O   0  0  0  0  0  0  0  0  0  0  0  0
   37.9890   22.3450   36.2790 C   0  0  0  0  0  0  0  0  0  0  0  0
   39.3780   22.2120   36.4030 C   0  0  0  0  0  0  0  0  0  0  0  0
   40.0090   22.7670   37.5150 C   0  0  0  0  0  0  0  0  0  0  0  0
   39.2410   23.4200   38.4390 N   0  0  0  0  0  0  0  0  0  0  0  0
   37.9040   23.5320   38.2940 C   0  0  0  0  0  0  0  0  0  0  0  0
   37.3060   22.9980   37.2250 N   0  0  0  0  0  0  0  0  0  0  0  0
   36.3760   21.2360   31.7640 C   0  0  2  0  0  0  0  0  0  0  0  0
   35.5960   22.4210   31.2360 C   0  0  0  0  0  0  0  0  0  0  0  0
   35.6760   19.9690   31.3510 C   0  0  0  0  0  0  0  0  0  0  0  0
   36.5820   19.2110   30.5670 N   0  0  0  0  0  0  0  0  0  0  0  0
   37.9570   19.6280   30.6610 C   0  0  0  0  0  0  0  0  0  0  0  0
   38.6080   18.6600   31.6340 C   0  0  0  0  0  0  0  0  0  0  0  0
   37.6740   17.4620   31.6950 C   0  0  0  0  0  0  0  0  0  0  0  0
   36.5850   17.8000   30.7350 C   0  0  0  0  0  0  0  0  0  0  0  0
   35.7277   20.6722   36.3984 H   0  0  0  0  0  0  0  0  0  0  0  0
   34.7285   19.9746   33.9586 H   0  0  0  0  0  0  0  0  0  0  0  0
   39.9602   21.6792   35.6367 H   0  0  0  0  0  0  0  0  0  0  0  0
   41.0978   22.6818   37.6461 H   0  0  0  0  0  0  0  0  0  0  0  0
   37.3087   24.0609   39.0529 H   0  0  0  0  0  0  0  0  0  0  0  0
   37.3967   21.2916   31.3576 H   0  0  0  0  0  0  0  0  0  0  0  0
   35.2082   23.0102   32.0801 H   0  0  0  0  0  0  0  0  0  0  0  0
   36.2567   23.0508   30.6221 H   0  0  0  0  0  0  0  0  0  0  0  0
   34.7563   22.0631   30.6221 H   0  0  0  0  0  0  0  0  0  0  0  0
   35.3820   19.3958   32.2427 H   0  0  0  0  0  0  0  0  0  0  0  0
   34.7686   20.2010   30.7741 H   0  0  0  0  0  0  0  0  0  0  0  0
   38.4446   19.5701   29.6767 H   0  0  0  0  0  0  0  0  0  0  0  0
   38.0454   20.6704   31.0011 H   0  0  0  0  0  0  0  0  0  0  0  0
   39.6004   18.3564   31.2693 H   0  0  0  0  0  0  0  0  0  0  0  0
   38.7576   19.1137   32.6248 H   0  0  0  0  0  0  0  0  0  0  0  0
   38.1957   16.5441   31.3862 H   0  0  0  0  0  0  0  0  0  0  0  0
   37.2971   17.2721   32.7108 H   0  0  0  0  0  0  0  0  0  0  0  0
   35.6158   17.4680   31.1354 H   0  0  0  0  0  0  0  0  0  0  0  0
   36.7504   17.2968   29.7709 H   0  0  0  0  0  0  0  0  0  0  0  0
  1  2  2  0
  1  6  1  0
  3  2  1  0
  4  5  1  0
  4  3  2  0
  5  1  1  0
  6  7  2  0
  6 11  1  0
  7  8  1  0
  8  9  2  0
 10  9  1  0
 11 10  2  0
 12  4  1  0
 13 12  1  0
 14 12  1  0
 15 16  1  0
 15 19  1  0
 15 14  1  0
 16 17  1  0
 17 18  1  0
 19 18  1  0
  2 20  1  0
  3 21  1  0
  7 22  1  0
  8 23  1  0
 10 24  1  0
 12 25  1  6
 13 26  1  0
 13 27  1  0
 13 28  1  0
 14 29  1  0
 14 30  1  0
 16 31  1  0
 16 32  1  0
 17 33  1  0
 17 34  1  0
 18 35  1  0
 18 36  1  0
 19 37  1  0
 19 38  1  0
M  ISO  8  20  14  21  14  22  14  23  14  24  14  25   8  26   8  27   8
M  ISO  8  28   8  29   8  30   8  31  13  32  13  33  13  34  13  35  13
M  ISO  3  36  13  37  13  38  13
M  END
>  <minimizedAffinity>  (1) 
-4.72244215

>  <minimizedRMSD>  (1) 
1.28274715

$$$$
