
     RDKit          3D

 33 35  0  0  1  0  0  0  0  0999 V2000
   37.2950   21.9220   35.0010 C   0  0  0  0  0  0  0  0  0  0  0  0
   36.2560   20.9990   35.1340 C   0  0  0  0  0  0  0  0  0  0  0  0
   35.7750   20.7770   33.8450 C   0  0  0  0  0  0  0  0  0  0  0  0
   36.5540   21.5800   33.0230 C   0  0  0  0  0  0  0  0  0  0  0  0
   37.4260   22.2280   33.7550 O   0  0  0  0  0  0  0  0  0  0  0  0
   38.0250   22.3790   36.1830 C   0  0  0  0  0  0  0  0  0  0  0  0
   39.4050   22.2360   36.3560 C   0  0  0  0  0  0  0  0  0  0  0  0
   39.9700   22.7220   37.5320 C   0  0  0  0  0  0  0  0  0  0  0  0
   39.1880   23.3090   38.4610 N   0  0  0  0  0  0  0  0  0  0  0  0
   37.8440   23.4370   38.2730 C   0  0  0  0  0  0  0  0  0  0  0  0
   37.3120   22.9700   37.1450 N   0  0  0  0  0  0  0  0  0  0  0  0
   36.4830   21.7480   31.5450 C   0  0  2  0  0  0  0  0  0  0  0  0
   35.6020   22.9200   31.1740 C   0  0  0  0  0  0  0  0  0  0  0  0
   35.9300   20.4730   30.9820 C   0  0  0  0  0  0  0  0  0  0  0  0
   36.9620   19.5400   30.4540 C   0  0  0  0  0  0  0  0  0  0  0  0
   36.7680   18.1110   30.2720 C   0  0  0  0  0  0  0  0  0  0  0  0
   36.6700   18.9920   29.0470 C   0  0  0  0  0  0  0  0  0  0  0  0
   35.8917   20.5409   36.0653 H   0  0  0  0  0  0  0  0  0  0  0  0
   34.9545   20.1091   33.5437 H   0  0  0  0  0  0  0  0  0  0  0  0
   40.0256   21.7541   35.5862 H   0  0  0  0  0  0  0  0  0  0  0  0
   41.0525   22.6274   37.7032 H   0  0  0  0  0  0  0  0  0  0  0  0
   37.2127   23.9155   39.0362 H   0  0  0  0  0  0  0  0  0  0  0  0
   37.4819   21.9560   31.1341 H   0  0  0  0  0  0  0  0  0  0  0  0
   35.2356   23.4075   32.0895 H   0  0  0  0  0  0  0  0  0  0  0  0
   36.1828   23.6421   30.5814 H   0  0  0  0  0  0  0  0  0  0  0  0
   34.7469   22.5628   30.5814 H   0  0  0  0  0  0  0  0  0  0  0  0
   35.3739   19.9570   31.7786 H   0  0  0  0  0  0  0  0  0  0  0  0
   35.2932   20.7541   30.1302 H   0  0  0  0  0  0  0  0  0  0  0  0
   37.7507   20.0926   30.9855 H   0  0  0  0  0  0  0  0  0  0  0  0
   37.6233   17.4283   30.3830 H   0  0  0  0  0  0  0  0  0  0  0  0
   36.1015   17.3666   30.7320 H   0  0  0  0  0  0  0  0  0  0  0  0
   37.4588   18.9724   28.2806 H   0  0  0  0  0  0  0  0  0  0  0  0
   35.9255   19.1790   28.2592 H   0  0  0  0  0  0  0  0  0  0  0  0
  1  2  2  0
  1  6  1  0
  3  2  1  0
  4  5  1  0
  4  3  2  0
  5  1  1  0
  6  7  2  0
  6 11  1  0
  7  8  1  0
  8  9  2  0
 10  9  1  0
 11 10  2  0
 12  4  1  0
 13 12  1  0
 14 12  1  0
 15 14  1  0
 16 15  1  0
 17 16  1  0
 17 15  1  0
  2 18  1  0
  3 19  1  0
  7 20  1  0
  8 21  1  0
 10 22  1  0
 12 23  1  6
 13 24  1  0
 13 25  1  0
 13 26  1  0
 14 27  1  0
 14 28  1  0
 15 29  1  0
 16 30  1  0
 16 31  1  0
 17 32  1  0
 17 33  1  0
M  ISO  8  18  14  19  14  20  14  21  14  22  14  23   8  24   8  25   8
M  ISO  8  26   8  27   8  28   8  29  13  30  13  31  13  32  13  33  13
M  END
>  <minimizedAffinity>  (1) 
-4.68223715

>  <minimizedRMSD>  (1) 
1.12185311

$$$$
