
     RDKit          3D

 28 29  0  0  1  0  0  0  0  0999 V2000
   37.2030   21.6580   35.3250 C   0  0  0  0  0  0  0  0  0  0  0  0
   35.9770   21.0420   35.6740 C   0  0  0  0  0  0  0  0  0  0  0  0
   35.4550   20.5360   34.4870 C   0  0  0  0  0  0  0  0  0  0  0  0
   36.3580   20.8610   33.5200 C   0  0  0  0  0  0  0  0  0  0  0  0
   37.3520   21.5120   34.0650 O   0  0  0  0  0  0  0  0  0  0  0  0
   38.0160   22.2980   36.3560 C   0  0  0  0  0  0  0  0  0  0  0  0
   39.4120   22.1880   36.4040 C   0  0  0  0  0  0  0  0  0  0  0  0
   40.0610   22.8480   37.4480 C   0  0  0  0  0  0  0  0  0  0  0  0
   39.3310   23.5590   38.3630 N   0  0  0  0  0  0  0  0  0  0  0  0
   37.9860   23.6380   38.2770 C   0  0  0  0  0  0  0  0  0  0  0  0
   37.3650   23.0090   37.2810 N   0  0  0  0  0  0  0  0  0  0  0  0
   36.3160   20.5750   32.0710 C   0  0  2  0  0  0  0  0  0  0  0  0
   35.2600   21.4060   31.3560 C   0  0  0  0  0  0  0  0  0  0  0  0
   35.9730   19.1330   31.8850 C   0  0  0  0  0  0  0  0  0  0  0  0
   34.5360   19.0040   31.7920 N   0  0  0  0  0  0  0  0  0  0  0  0
   35.5292   20.9767   36.6766 H   0  0  0  0  0  0  0  0  0  0  0  0
   34.5102   19.9879   34.3568 H   0  0  0  0  0  0  0  0  0  0  0  0
   39.9701   21.6085   35.6538 H   0  0  0  0  0  0  0  0  0  0  0  0
   41.1563   22.7974   37.5359 H   0  0  0  0  0  0  0  0  0  0  0  0
   37.4119   24.2132   39.0183 H   0  0  0  0  0  0  0  0  0  0  0  0
   37.2998   20.8232   31.6462 H   0  0  0  0  0  0  0  0  0  0  0  0
   34.6228   21.9074   32.0993 H   0  0  0  0  0  0  0  0  0  0  0  0
   35.7525   22.1614   30.7260 H   0  0  0  0  0  0  0  0  0  0  0  0
   34.6416   20.7497   30.7260 H   0  0  0  0  0  0  0  0  0  0  0  0
   36.4383   18.7585   30.9613 H   0  0  0  0  0  0  0  0  0  0  0  0
   36.3464   18.5471   32.7378 H   0  0  0  0  0  0  0  0  0  0  0  0
   34.1325   18.9678   32.7390 H   0  0  0  0  0  0  0  0  0  0  0  0
   34.1507   19.8138   31.2854 H   0  0  0  0  0  0  0  0  0  0  0  0
  1  2  2  0
  1  6  1  0
  3  2  1  0
  4  5  1  0
  4  3  2  0
  5  1  1  0
  6  7  2  0
  6 11  1  0
  7  8  1  0
  8  9  2  0
 10  9  1  0
 11 10  2  0
 12  4  1  0
 13 12  1  0
 14 12  1  0
 15 14  1  0
  2 16  1  0
  3 17  1  0
  7 18  1  0
  8 19  1  0
 10 20  1  0
 12 21  1  6
 13 22  1  0
 13 23  1  0
 13 24  1  0
 14 25  1  0
 14 26  1  0
 15 27  1  0
 15 28  1  0
M  ISO  8  16  14  17  14  18  14  19  14  20  14  21   8  22   8  23   8
M  ISO  5  24   8  25   8  26   8  27   5  28   5
M  END
>  <minimizedAffinity>  (1) 
-4.35235071

>  <minimizedRMSD>  (1) 
0.569673896

$$$$
