
     RDKit          3D

 46 50  0  0  1  0  0  0  0  0999 V2000
   35.4410   19.9300   31.4770 C   0  0  0  0  0  0  0  0  0  0  0  0
   36.0700   18.6750   31.2850 N   0  0  0  0  0  0  0  0  0  0  0  0
   36.8640   18.0980   30.3650 C   0  0  0  0  0  0  0  0  0  0  0  0
   37.1510   16.8420   30.7150 N   0  0  0  0  0  0  0  0  0  0  0  0
   36.5140   16.6210   31.8990 C   0  0  0  0  0  0  0  0  0  0  0  0
   35.8750   17.7470   32.2070 N   0  0  0  0  0  0  0  0  0  0  0  0
   36.5700   15.3880   32.6090 N   0  0  0  0  0  0  0  0  0  0  0  0
   37.6590   14.5780   32.7010 C   0  0  0  0  0  0  0  0  0  0  0  0
   37.3670   13.4960   33.4460 N   0  0  0  0  0  0  0  0  0  0  0  0
   36.1030   13.5880   33.8420 C   0  0  0  0  0  0  0  0  0  0  0  0
   35.3420   12.7350   34.6190 C   0  0  0  0  0  0  0  0  0  0  0  0
   35.8130   11.6680   35.0830 O   0  0  0  0  0  0  0  0  0  0  0  0
   34.0620   13.1280   34.8420 N   0  0  0  0  0  0  0  0  0  0  0  0
   33.5730   14.2890   34.3290 C   0  0  0  0  0  0  0  0  0  0  0  0
   32.1990   14.5040   34.6910 N   0  0  0  0  0  0  0  0  0  0  0  0
   34.3380   15.0990   33.5760 N   0  0  0  0  0  0  0  0  0  0  0  0
   35.6060   14.7690   33.3190 C   0  0  0  0  0  0  0  0  0  0  0  0
   36.2640   21.0660   31.8940 C   0  0  2  0  0  0  0  0  0  0  0  0
   37.2050   21.7350   35.2320 C   0  0  0  0  0  0  0  0  0  0  0  0
   36.0730   20.9900   35.5160 C   0  0  0  0  0  0  0  0  0  0  0  0
   35.5330   20.6130   34.2820 C   0  0  0  0  0  0  0  0  0  0  0  0
   36.3930   21.1680   33.3450 C   0  0  0  0  0  0  0  0  0  0  0  0
   37.3530   21.8130   33.9420 O   0  0  0  0  0  0  0  0  0  0  0  0
   38.0410   22.3060   36.3030 C   0  0  0  0  0  0  0  0  0  0  0  0
   39.4170   22.1940   36.3840 C   0  0  0  0  0  0  0  0  0  0  0  0
   40.0200   22.8160   37.4880 C   0  0  0  0  0  0  0  0  0  0  0  0
   39.2910   23.4750   38.4030 N   0  0  0  0  0  0  0  0  0  0  0  0
   37.9430   23.5660   38.2950 C   0  0  0  0  0  0  0  0  0  0  0  0
   37.3460   22.9890   37.2620 N   0  0  0  0  0  0  0  0  0  0  0  0
   35.7460   22.3680   31.2770 C   0  0  0  0  0  0  0  0  0  0  0  0
   34.6660   19.7909   32.2452 H   0  0  0  0  0  0  0  0  0  0  0  0
   35.0842   20.2090   30.4746 H   0  0  0  0  0  0  0  0  0  0  0  0
   37.2263   18.5923   29.4515 H   0  0  0  0  0  0  0  0  0  0  0  0
   38.6350   14.7781   32.2348 H   0  0  0  0  0  0  0  0  0  0  0  0
   33.4460   12.5325   35.4136 H   0  0  0  0  0  0  0  0  0  0  0  0
   31.7070   15.3486   34.3663 H   0  0  0  0  0  0  0  0  0  0  0  0
   31.7062   13.8135   35.2751 H   0  0  0  0  0  0  0  0  0  0  0  0
   37.2796   20.8860   31.5118 H   0  0  0  0  0  0  0  0  0  0  0  0
   35.6775   20.7439   36.5125 H   0  0  0  0  0  0  0  0  0  0  0  0
   34.6304   20.0122   34.0963 H   0  0  0  0  0  0  0  0  0  0  0  0
   40.0034   21.6502   35.6287 H   0  0  0  0  0  0  0  0  0  0  0  0
   41.1123   22.7626   37.6062 H   0  0  0  0  0  0  0  0  0  0  0  0
   37.3556   24.1085   39.0504 H   0  0  0  0  0  0  0  0  0  0  0  0
   35.4675   23.0681   32.0784 H   0  0  0  0  0  0  0  0  0  0  0  0
   36.5337   22.8177   30.6547 H   0  0  0  0  0  0  0  0  0  0  0  0
   34.8647   22.1536   30.6547 H   0  0  0  0  0  0  0  0  0  0  0  0
  1 18  1  0
  2  1  1  0
  2  6  1  0
  3  4  2  0
  3  2  1  0
  4  5  1  0
  5  6  2  0
  5  7  1  0
  7  8  1  0
  7 17  1  0
  8  9  2  0
  9 10  1  0
 10 11  1  0
 11 13  1  0
 11 12  2  0
 14 15  1  0
 14 13  1  0
 16 14  2  0
 17 16  1  0
 17 10  2  0
 18 22  1  0
 19 20  2  0
 19 24  1  0
 21 20  1  0
 22 23  1  0
 22 21  2  0
 23 19  1  0
 24 25  2  0
 24 29  1  0
 25 26  1  0
 26 27  2  0
 28 27  1  0
 29 28  2  0
 30 18  1  0
  1 31  1  0
  1 32  1  0
  3 33  1  0
  8 34  1  0
 13 35  1  0
 15 36  1  0
 15 37  1  0
 18 38  1  6
 20 39  1  0
 21 40  1  0
 25 41  1  0
 26 42  1  0
 28 43  1  0
 30 44  1  0
 30 45  1  0
 30 46  1  0
M  ISO  8  31   8  32   8  33  14  34  14  35   9  38   8  39  14  40  14
M  ISO  6  41  14  42  14  43  14  44   8  45   8  46   8
M  END
>  <minimizedAffinity>  (1) 
-6.47542286

>  <minimizedRMSD>  (1) 
1.65113139

$$$$
