
     RDKit          3D

 43 46  0  0  1  0  0  0  0  0999 V2000
   36.1920   21.3240   31.9640 C   0  0  2  0  0  0  0  0  0  0  0  0
   37.2310   21.8180   35.3050 C   0  0  0  0  0  0  0  0  0  0  0  0
   36.1370   21.0090   35.5760 C   0  0  0  0  0  0  0  0  0  0  0  0
   35.5600   20.6860   34.3420 C   0  0  0  0  0  0  0  0  0  0  0  0
   36.3680   21.3380   33.4120 C   0  0  0  0  0  0  0  0  0  0  0  0
   37.3220   21.9790   34.0210 O   0  0  0  0  0  0  0  0  0  0  0  0
   38.0780   22.3500   36.3780 C   0  0  0  0  0  0  0  0  0  0  0  0
   39.4500   22.2050   36.4530 C   0  0  0  0  0  0  0  0  0  0  0  0
   40.0870   22.7840   37.5560 C   0  0  0  0  0  0  0  0  0  0  0  0
   39.3730   23.4510   38.4910 N   0  0  0  0  0  0  0  0  0  0  0  0
   38.0340   23.5760   38.3900 C   0  0  0  0  0  0  0  0  0  0  0  0
   37.4050   23.0330   37.3510 N   0  0  0  0  0  0  0  0  0  0  0  0
   35.6900   22.6750   31.4430 C   0  0  0  0  0  0  0  0  0  0  0  0
   35.3100   20.2410   31.5090 C   0  0  0  0  0  0  0  0  0  0  0  0
   35.8730   18.9600   31.2960 N   0  0  0  0  0  0  0  0  0  0  0  0
   36.7050   18.3890   30.4060 C   0  0  0  0  0  0  0  0  0  0  0  0
   36.8850   17.0890   30.7070 N   0  0  0  0  0  0  0  0  0  0  0  0
   36.1410   16.8470   31.8190 C   0  0  0  0  0  0  0  0  0  0  0  0
   35.5510   17.9960   32.1390 N   0  0  0  0  0  0  0  0  0  0  0  0
   36.0140   15.5910   32.5200 N   0  0  0  0  0  0  0  0  0  0  0  0
   34.8230   15.0620   32.8530 C   0  0  0  0  0  0  0  0  0  0  0  0
   34.8530   13.8390   33.5280 C   0  0  0  0  0  0  0  0  0  0  0  0
   36.0590   13.2240   33.8270 C   0  0  0  0  0  0  0  0  0  0  0  0
   35.9190   11.9860   34.5170 N   0  0  0  0  0  0  0  0  0  0  0  0
   37.1900   13.8220   33.4560 N   0  0  0  0  0  0  0  0  0  0  0  0
   37.1900   15.0000   32.8060 C   0  0  0  0  0  0  0  0  0  0  0  0
   38.3110   15.4960   32.4910 O   0  0  0  0  0  0  0  0  0  0  0  0
   37.1892   21.1339   31.5404 H   0  0  0  0  0  0  0  0  0  0  0  0
   35.7902   20.6843   36.5681 H   0  0  0  0  0  0  0  0  0  0  0  0
   34.6743   20.0623   34.1507 H   0  0  0  0  0  0  0  0  0  0  0  0
   40.0147   21.6602   35.6821 H   0  0  0  0  0  0  0  0  0  0  0  0
   41.1782   22.6959   37.6636 H   0  0  0  0  0  0  0  0  0  0  0  0
   37.4675   24.1215   39.1591 H   0  0  0  0  0  0  0  0  0  0  0  0
   35.4471   23.3287   32.2937 H   0  0  0  0  0  0  0  0  0  0  0  0
   36.4732   23.1458   30.8307 H   0  0  0  0  0  0  0  0  0  0  0  0
   34.7894   22.5202   30.8307 H   0  0  0  0  0  0  0  0  0  0  0  0
   34.5184   20.1270   32.2643 H   0  0  0  0  0  0  0  0  0  0  0  0
   34.9808   20.5617   30.5096 H   0  0  0  0  0  0  0  0  0  0  0  0
   37.1706   18.9089   29.5557 H   0  0  0  0  0  0  0  0  0  0  0  0
   33.8762   15.5652   32.6071 H   0  0  0  0  0  0  0  0  0  0  0  0
   33.9092   13.3587   33.8255 H   0  0  0  0  0  0  0  0  0  0  0  0
   36.7557   11.4487   34.7857 H   0  0  0  0  0  0  0  0  0  0  0  0
   34.9811   11.6280   34.7473 H   0  0  0  0  0  0  0  0  0  0  0  0
  1  5  1  0
  2  3  2  0
  2  7  1  0
  4  3  1  0
  5  6  1  0
  5  4  2  0
  6  2  1  0
  7  8  2  0
  7 12  1  0
  8  9  1  0
  9 10  2  0
 11 10  1  0
 12 11  2  0
 13  1  1  0
 14  1  1  0
 15 14  1  0
 15 19  1  0
 16 17  2  0
 16 15  1  0
 17 18  1  0
 18 19  2  0
 18 20  1  0
 20 26  1  0
 20 21  1  0
 21 22  2  0
 22 23  1  0
 23 24  1  0
 25 23  2  0
 26 25  1  0
 27 26  2  0
  1 28  1  6
  3 29  1  0
  4 30  1  0
  8 31  1  0
  9 32  1  0
 11 33  1  0
 13 34  1  0
 13 35  1  0
 13 36  1  0
 14 37  1  0
 14 38  1  0
 16 39  1  0
 21 40  1  0
 22 41  1  0
 24 42  1  0
 24 43  1  0
M  ISO  8  28   8  29  14  30  14  31  14  32  14  33  14  34   8  35   8
M  ISO  6  36   8  37   8  38   8  39  14  40  14  41  14
M  END
>  <minimizedAffinity>  (1) 
-5.68997717

>  <minimizedRMSD>  (1) 
1.69207203

$$$$
