
     RDKit          3D

 29 30  0  0  0  0  0  0  0  0999 V2000
   40.0440   22.6890   37.6260 C   0  0  0  0  0  0  0  0  0  0  0  0
   39.1350   23.4920   36.9090 C   0  0  0  0  0  0  0  0  0  0  0  0
   39.5870   24.1470   35.7670 C   0  0  0  0  0  0  0  0  0  0  0  0
   40.8870   23.9870   35.3900 N   0  0  0  0  0  0  0  0  0  0  0  0
   41.7360   23.2060   36.1040 C   0  0  0  0  0  0  0  0  0  0  0  0
   41.3120   22.5720   37.2020 N   0  0  0  0  0  0  0  0  0  0  0  0
   37.7080   23.6580   37.3370 C   0  0  0  0  0  0  0  0  0  0  0  0
   37.7070   23.9620   38.6730 F   0  0  0  0  0  0  0  0  0  0  0  0
   36.9800   22.5170   37.1590 F   0  0  0  0  0  0  0  0  0  0  0  0
   37.1350   24.7670   36.7080 F   0  0  0  0  0  0  0  0  0  0  0  0
   43.4070   23.0760   35.5040 S   0  0  0  0  0  0  0  0  0  0  0  0
   46.5390   25.9030   36.1590 N   0  0  0  0  0  0  0  0  0  0  0  0
   46.8380   24.6400   36.7910 C   0  0  0  0  0  0  0  0  0  0  0  0
   46.0390   23.4840   36.2260 C   0  0  0  0  0  0  0  0  0  0  0  0
   44.6210   23.6300   36.7020 C   0  0  0  0  0  0  0  0  0  0  0  0
   44.3760   25.0990   37.0040 C   0  0  0  0  0  0  0  0  0  0  0  0
   45.0990   25.9780   35.9770 C   0  0  0  0  0  0  0  0  0  0  0  0
   39.7149   22.1588   38.5319 H   0  0  0  0  0  0  0  0  0  0  0  0
   38.9075   24.7821   35.1796 H   0  0  0  0  0  0  0  0  0  0  0  0
   46.8575   26.6785   36.7574 H   0  0  0  0  0  0  0  0  0  0  0  0
   47.9080   24.4253   36.6534 H   0  0  0  0  0  0  0  0  0  0  0  0
   46.5678   24.7348   37.8531 H   0  0  0  0  0  0  0  0  0  0  0  0
   46.4570   22.5308   36.5819 H   0  0  0  0  0  0  0  0  0  0  0  0
   46.0781   23.4907   35.1267 H   0  0  0  0  0  0  0  0  0  0  0  0
   44.5017   22.9950   37.5923 H   0  0  0  0  0  0  0  0  0  0  0  0
   43.2960   25.3036   36.9613 H   0  0  0  0  0  0  0  0  0  0  0  0
   44.7621   25.3284   38.0081 H   0  0  0  0  0  0  0  0  0  0  0  0
   44.7732   27.0212   36.1017 H   0  0  0  0  0  0  0  0  0  0  0  0
   44.8512   25.6186   34.9673 H   0  0  0  0  0  0  0  0  0  0  0  0
  2  7  1  0
  2  1  2  0
  3  2  1  0
  4  3  2  0
  4  5  1  0
  5  6  2  0
  6  1  1  0
  7  8  1  0
  9  7  1  0
 10  7  1  0
 11  5  1  0
 11 15  1  0
 12 13  1  0
 14 15  1  0
 14 13  1  0
 15 16  1  0
 17 12  1  0
 17 16  1  0
  1 18  1  0
  3 19  1  0
 12 20  1  0
 13 21  1  0
 13 22  1  0
 14 23  1  0
 14 24  1  0
 15 25  1  0
 16 26  1  0
 16 27  1  0
 17 28  1  0
 17 29  1  0
M  ISO  8  18  14  19  14  20   5  21  13  22  13  23  13  24  13  25  13
M  ISO  4  26  13  27  13  28  13  29  13
M  END
>  <minimizedAffinity>  (1) 
-4.24979782

>  <minimizedRMSD>  (1) 
2.83121991

$$$$
