
     RDKit          3D

 42 45  0  0  1  0  0  0  0  0999 V2000
   36.2430   21.3970   31.8710 C   0  0  2  0  0  0  0  0  0  0  0  0
   37.2240   21.8360   35.2360 C   0  0  0  0  0  0  0  0  0  0  0  0
   36.1370   21.0100   35.4730 C   0  0  0  0  0  0  0  0  0  0  0  0
   35.5850   20.7060   34.2250 C   0  0  0  0  0  0  0  0  0  0  0  0
   36.3990   21.3850   33.3220 C   0  0  0  0  0  0  0  0  0  0  0  0
   37.3370   22.0280   33.9560 O   0  0  0  0  0  0  0  0  0  0  0  0
   38.0540   22.3600   36.3350 C   0  0  0  0  0  0  0  0  0  0  0  0
   39.4230   22.2110   36.4410 C   0  0  0  0  0  0  0  0  0  0  0  0
   40.0370   22.7810   37.5610 C   0  0  0  0  0  0  0  0  0  0  0  0
   39.3000   23.4430   38.4830 N   0  0  0  0  0  0  0  0  0  0  0  0
   37.9600   23.5720   38.3520 C   0  0  0  0  0  0  0  0  0  0  0  0
   37.3690   23.0370   37.2960 N   0  0  0  0  0  0  0  0  0  0  0  0
   35.7390   22.7540   31.3700 C   0  0  0  0  0  0  0  0  0  0  0  0
   35.3840   20.3150   31.3820 C   0  0  0  0  0  0  0  0  0  0  0  0
   35.9640   19.0430   31.1490 N   0  0  0  0  0  0  0  0  0  0  0  0
   36.7140   18.4630   30.1980 C   0  0  0  0  0  0  0  0  0  0  0  0
   36.9730   17.1870   30.5140 N   0  0  0  0  0  0  0  0  0  0  0  0
   36.3630   16.9630   31.7080 C   0  0  0  0  0  0  0  0  0  0  0  0
   35.7670   18.1040   32.0570 N   0  0  0  0  0  0  0  0  0  0  0  0
   36.3950   15.6880   32.4180 C   0  0  0  0  0  0  0  0  0  0  0  0
   37.5170   14.9410   32.7070 C   0  0  0  0  0  0  0  0  0  0  0  0
   37.3910   13.7420   33.3930 C   0  0  0  0  0  0  0  0  0  0  0  0
   36.1540   13.2690   33.8000 C   0  0  0  0  0  0  0  0  0  0  0  0
   35.0350   14.0220   33.5070 C   0  0  0  0  0  0  0  0  0  0  0  0
   35.1610   15.2260   32.8190 C   0  0  0  0  0  0  0  0  0  0  0  0
   37.2472   21.2239   31.4567 H   0  0  0  0  0  0  0  0  0  0  0  0
   35.7782   20.6613   36.4526 H   0  0  0  0  0  0  0  0  0  0  0  0
   34.7100   20.0761   34.0068 H   0  0  0  0  0  0  0  0  0  0  0  0
   40.0035   21.6691   35.6798 H   0  0  0  0  0  0  0  0  0  0  0  0
   41.1253   22.6907   37.6932 H   0  0  0  0  0  0  0  0  0  0  0  0
   37.3725   24.1117   39.1093 H   0  0  0  0  0  0  0  0  0  0  0  0
   35.5003   23.3968   32.2301 H   0  0  0  0  0  0  0  0  0  0  0  0
   36.5194   23.2325   30.7600 H   0  0  0  0  0  0  0  0  0  0  0  0
   34.8355   22.6071   30.7600 H   0  0  0  0  0  0  0  0  0  0  0  0
   34.5835   20.1758   32.1235 H   0  0  0  0  0  0  0  0  0  0  0  0
   35.0674   20.6530   30.3843 H   0  0  0  0  0  0  0  0  0  0  0  0
   37.0669   18.9660   29.2856 H   0  0  0  0  0  0  0  0  0  0  0  0
   38.5104   15.2951   32.3942 H   0  0  0  0  0  0  0  0  0  0  0  0
   38.2928   13.1539   33.6188 H   0  0  0  0  0  0  0  0  0  0  0  0
   36.0659   12.3166   34.3434 H   0  0  0  0  0  0  0  0  0  0  0  0
   34.0404   13.6698   33.8180 H   0  0  0  0  0  0  0  0  0  0  0  0
   34.2614   15.8171   32.5923 H   0  0  0  0  0  0  0  0  0  0  0  0
  1  5  1  0
  2  3  2  0
  2  7  1  0
  4  3  1  0
  5  6  1  0
  5  4  2  0
  6  2  1  0
  7  8  2  0
  7 12  1  0
  8  9  1  0
  9 10  2  0
 11 10  1  0
 12 11  2  0
 13  1  1  0
 14  1  1  0
 15 14  1  0
 15 19  1  0
 16 17  2  0
 16 15  1  0
 17 18  1  0
 18 19  2  0
 18 20  1  0
 20 21  2  0
 20 25  1  0
 21 22  1  0
 22 23  2  0
 24 23  1  0
 25 24  2  0
  1 26  1  6
  3 27  1  0
  4 28  1  0
  8 29  1  0
  9 30  1  0
 11 31  1  0
 13 32  1  0
 13 33  1  0
 13 34  1  0
 14 35  1  0
 14 36  1  0
 16 37  1  0
 21 38  1  0
 22 39  1  0
 23 40  1  0
 24 41  1  0
 25 42  1  0
M  ISO  8  26   8  27  14  28  14  29  14  30  14  31  14  32   8  33   8
M  ISO  8  34   8  35   8  36   8  37  14  38  14  39  14  40  14  41  14
M  ISO  1  42  14
M  END
>  <minimizedAffinity>  (1) 
-5.55570412

>  <minimizedRMSD>  (1) 
1.31344497

$$$$
