
     RDKit          3D

 42 45  0  0  1  0  0  0  0  0999 V2000
   36.2480   21.4120   31.8590 C   0  0  2  0  0  0  0  0  0  0  0  0
   37.2430   21.8520   35.2220 C   0  0  0  0  0  0  0  0  0  0  0  0
   36.1470   21.0200   35.4610 C   0  0  0  0  0  0  0  0  0  0  0  0
   35.5910   20.7170   34.2140 C   0  0  0  0  0  0  0  0  0  0  0  0
   36.4040   21.3980   33.3090 C   0  0  0  0  0  0  0  0  0  0  0  0
   37.3370   22.0320   33.9480 O   0  0  0  0  0  0  0  0  0  0  0  0
   38.0640   22.3660   36.3240 C   0  0  0  0  0  0  0  0  0  0  0  0
   39.4350   22.2140   36.4260 C   0  0  0  0  0  0  0  0  0  0  0  0
   40.0430   22.7780   37.5560 C   0  0  0  0  0  0  0  0  0  0  0  0
   39.3080   23.4330   38.4850 N   0  0  0  0  0  0  0  0  0  0  0  0
   37.9610   23.5640   38.3530 C   0  0  0  0  0  0  0  0  0  0  0  0
   37.3660   23.0380   37.2910 N   0  0  0  0  0  0  0  0  0  0  0  0
   35.7470   22.7710   31.3580 C   0  0  0  0  0  0  0  0  0  0  0  0
   35.3830   20.3330   31.3700 C   0  0  0  0  0  0  0  0  0  0  0  0
   35.9570   19.0590   31.1450 N   0  0  0  0  0  0  0  0  0  0  0  0
   36.7120   18.4730   30.1970 C   0  0  0  0  0  0  0  0  0  0  0  0
   36.9560   17.1940   30.5230 N   0  0  0  0  0  0  0  0  0  0  0  0
   36.3320   16.9780   31.7140 C   0  0  0  0  0  0  0  0  0  0  0  0
   35.7450   18.1230   32.0530 N   0  0  0  0  0  0  0  0  0  0  0  0
   36.3540   15.7010   32.4190 C   0  0  0  0  0  0  0  0  0  0  0  0
   37.4890   15.0020   32.6970 C   0  0  0  0  0  0  0  0  0  0  0  0
   37.5390   13.7930   33.3610 C   0  0  0  0  0  0  0  0  0  0  0  0
   36.2930   13.3040   33.7520 C   0  0  0  0  0  0  0  0  0  0  0  0
   35.0870   13.9340   33.5200 C   0  0  0  0  0  0  0  0  0  0  0  0
   35.1740   15.1330   32.8480 C   0  0  0  0  0  0  0  0  0  0  0  0
   37.2519   21.2365   31.4449 H   0  0  0  0  0  0  0  0  0  0  0  0
   35.7900   20.6705   36.4410 H   0  0  0  0  0  0  0  0  0  0  0  0
   34.7154   20.0874   33.9975 H   0  0  0  0  0  0  0  0  0  0  0  0
   40.0171   21.6791   35.6611 H   0  0  0  0  0  0  0  0  0  0  0  0
   41.1311   22.6872   37.6895 H   0  0  0  0  0  0  0  0  0  0  0  0
   37.3742   24.0978   39.1150 H   0  0  0  0  0  0  0  0  0  0  0  0
   35.5099   23.4142   32.2183 H   0  0  0  0  0  0  0  0  0  0  0  0
   36.5285   23.2478   30.7481 H   0  0  0  0  0  0  0  0  0  0  0  0
   34.8431   22.6264   30.7481 H   0  0  0  0  0  0  0  0  0  0  0  0
   34.5785   20.2013   32.1086 H   0  0  0  0  0  0  0  0  0  0  0  0
   35.0710   20.6691   30.3701 H   0  0  0  0  0  0  0  0  0  0  0  0
   37.0765   18.9707   29.2863 H   0  0  0  0  0  0  0  0  0  0  0  0
   38.4437   15.4362   32.3654 H   0  0  0  0  0  0  0  0  0  0  0  0
   38.4803   13.2612   33.5642 H   0  0  0  0  0  0  0  0  0  0  0  0
   36.2694   12.3427   34.2862 H   0  0  0  0  0  0  0  0  0  0  0  0
   34.1266   13.5095   33.8479 H   0  0  0  0  0  0  0  0  0  0  0  0
   34.2389   15.6735   32.6397 H   0  0  0  0  0  0  0  0  0  0  0  0
  1  5  1  0
  2  3  2  0
  2  7  1  0
  4  3  1  0
  5  6  1  0
  5  4  2  0
  6  2  1  0
  7  8  2  0
  7 12  1  0
  8  9  1  0
  9 10  2  0
 11 10  1  0
 12 11  2  0
 13  1  1  0
 14  1  1  0
 15 14  1  0
 15 19  1  0
 16 17  2  0
 16 15  1  0
 17 18  1  0
 18 19  2  0
 18 20  1  0
 20 21  2  0
 20 25  1  0
 21 22  1  0
 22 23  2  0
 24 23  1  0
 25 24  2  0
  1 26  1  6
  3 27  1  0
  4 28  1  0
  8 29  1  0
  9 30  1  0
 11 31  1  0
 13 32  1  0
 13 33  1  0
 13 34  1  0
 14 35  1  0
 14 36  1  0
 16 37  1  0
 21 38  1  0
 22 39  1  0
 23 40  1  0
 24 41  1  0
 25 42  1  0
M  ISO  8  26   8  27  14  28  14  29  14  30  14  31  14  32   8  33   8
M  ISO  8  34   8  35   8  36   8  37  14  38  14  39  14  40  14  41  14
M  ISO  1  42  14
M  END
>  <minimizedAffinity>  (1) 
-5.55564928

>  <minimizedRMSD>  (1) 
1.31310964

$$$$
