
     RDKit          3D

 45 48  0  0  1  0  0  0  0  0999 V2000
   36.3150   21.6780   31.6810 C   0  0  2  0  0  0  0  0  0  0  0  0
   37.2760   21.9040   35.0700 C   0  0  0  0  0  0  0  0  0  0  0  0
   36.2150   21.0200   35.2440 C   0  0  0  0  0  0  0  0  0  0  0  0
   35.6760   20.7880   33.9750 C   0  0  0  0  0  0  0  0  0  0  0  0
   36.4660   21.5630   33.1280 C   0  0  0  0  0  0  0  0  0  0  0  0
   37.3860   22.1970   33.8080 O   0  0  0  0  0  0  0  0  0  0  0  0
   38.0780   22.3700   36.2130 C   0  0  0  0  0  0  0  0  0  0  0  0
   39.4460   22.2020   36.3370 C   0  0  0  0  0  0  0  0  0  0  0  0
   40.0280   22.7190   37.5030 C   0  0  0  0  0  0  0  0  0  0  0  0
   39.2820   23.3400   38.4380 N   0  0  0  0  0  0  0  0  0  0  0  0
   37.9440   23.4860   38.2820 C   0  0  0  0  0  0  0  0  0  0  0  0
   37.3780   23.0040   37.1890 N   0  0  0  0  0  0  0  0  0  0  0  0
   35.7970   23.0590   31.2750 C   0  0  0  0  0  0  0  0  0  0  0  0
   35.4640   20.6210   31.1140 C   0  0  0  0  0  0  0  0  0  0  0  0
   36.0870   19.4370   30.6480 N   0  0  0  0  0  0  0  0  0  0  0  0
   36.7480   19.0320   29.5470 C   0  0  0  0  0  0  0  0  0  0  0  0
   37.1240   17.7500   29.6700 N   0  0  0  0  0  0  0  0  0  0  0  0
   36.6770   17.3400   30.8990 C   0  0  0  0  0  0  0  0  0  0  0  0
   36.0690   18.3810   31.4380 N   0  0  0  0  0  0  0  0  0  0  0  0
   36.8580   15.9700   31.4930 C   0  0  0  0  0  0  0  0  0  0  0  0
   38.1090   15.8590   32.3290 C   0  0  0  0  0  0  0  0  0  0  0  0
   37.8940   14.4580   32.9170 C   0  0  0  0  0  0  0  0  0  0  0  0
   36.3900   14.3220   33.0650 C   0  0  0  0  0  0  0  0  0  0  0  0
   35.8070   15.5980   32.4820 C   0  0  0  0  0  0  0  0  0  0  0  0
   37.3226   21.5477   31.2593 H   0  0  0  0  0  0  0  0  0  0  0  0
   35.8683   20.5882   36.1944 H   0  0  0  0  0  0  0  0  0  0  0  0
   34.8258   20.1434   33.7073 H   0  0  0  0  0  0  0  0  0  0  0  0
   40.0421   21.6925   35.5656 H   0  0  0  0  0  0  0  0  0  0  0  0
   41.1122   22.6160   37.6574 H   0  0  0  0  0  0  0  0  0  0  0  0
   37.3414   23.9949   39.0488 H   0  0  0  0  0  0  0  0  0  0  0  0
   35.5762   23.6477   32.1776 H   0  0  0  0  0  0  0  0  0  0  0  0
   36.5621   23.5766   30.6777 H   0  0  0  0  0  0  0  0  0  0  0  0
   34.8802   22.9457   30.6777 H   0  0  0  0  0  0  0  0  0  0  0  0
   34.7466   20.3265   31.8941 H   0  0  0  0  0  0  0  0  0  0  0  0
   35.0318   21.0751   30.2101 H   0  0  0  0  0  0  0  0  0  0  0  0
   36.9512   19.6637   28.6697 H   0  0  0  0  0  0  0  0  0  0  0  0
   36.8540   15.3307   30.5978 H   0  0  0  0  0  0  0  0  0  0  0  0
   39.0198   15.9112   31.7144 H   0  0  0  0  0  0  0  0  0  0  0  0
   38.2521   16.6611   33.0680 H   0  0  0  0  0  0  0  0  0  0  0  0
   38.2869   13.6884   32.2363 H   0  0  0  0  0  0  0  0  0  0  0  0
   38.4175   14.3269   33.8755 H   0  0  0  0  0  0  0  0  0  0  0  0
   36.0269   13.4447   32.5095 H   0  0  0  0  0  0  0  0  0  0  0  0
   36.0946   14.1814   34.1152 H   0  0  0  0  0  0  0  0  0  0  0  0
   35.6850   16.3741   33.2519 H   0  0  0  0  0  0  0  0  0  0  0  0
   34.8022   15.4796   32.0504 H   0  0  0  0  0  0  0  0  0  0  0  0
  1  5  1  0
  2  3  2  0
  2  7  1  0
  4  3  1  0
  5  6  1  0
  5  4  2  0
  6  2  1  0
  7  8  2  0
  7 12  1  0
  8  9  1  0
  9 10  2  0
 11 10  1  0
 12 11  2  0
 13  1  1  0
 14  1  1  0
 15 14  1  0
 15 19  1  0
 16 17  2  0
 16 15  1  0
 17 18  1  0
 18 19  2  0
 18 20  1  0
 20 21  1  0
 20 24  1  0
 21 22  1  0
 22 23  1  0
 24 23  1  0
  1 25  1  6
  3 26  1  0
  4 27  1  0
  8 28  1  0
  9 29  1  0
 11 30  1  0
 13 31  1  0
 13 32  1  0
 13 33  1  0
 14 34  1  0
 14 35  1  0
 16 36  1  0
 20 37  1  0
 21 38  1  0
 21 39  1  0
 22 40  1  0
 22 41  1  0
 23 42  1  0
 23 43  1  0
 24 44  1  0
 24 45  1  0
M  ISO  8  25   8  26  14  27  14  28  14  29  14  30  14  31   8  32   8
M  ISO  8  33   8  34   8  35   8  36  14  37  13  38  13  39  13  40  13
M  ISO  5  41  13  42  13  43  13  44  13  45  13
M  END
>  <minimizedAffinity>  (1) 
-5.38827658

>  <minimizedRMSD>  (1) 
0.474131793

$$$$
