
     RDKit          3D

 39 42  0  0  1  0  0  0  0  0999 V2000
   36.1750   21.2910   31.9960 C   0  0  2  0  0  0  0  0  0  0  0  0
   37.2430   21.8190   35.3190 C   0  0  0  0  0  0  0  0  0  0  0  0
   36.1340   21.0190   35.6110 C   0  0  0  0  0  0  0  0  0  0  0  0
   35.5490   20.6890   34.3850 C   0  0  0  0  0  0  0  0  0  0  0  0
   36.3600   21.3220   33.4440 C   0  0  0  0  0  0  0  0  0  0  0  0
   37.3330   21.9670   34.0320 O   0  0  0  0  0  0  0  0  0  0  0  0
   38.0990   22.3520   36.3890 C   0  0  0  0  0  0  0  0  0  0  0  0
   39.4730   22.1940   36.4530 C   0  0  0  0  0  0  0  0  0  0  0  0
   40.1170   22.7810   37.5540 C   0  0  0  0  0  0  0  0  0  0  0  0
   39.4230   23.4540   38.4860 N   0  0  0  0  0  0  0  0  0  0  0  0
   38.0700   23.5910   38.3940 C   0  0  0  0  0  0  0  0  0  0  0  0
   37.4370   23.0460   37.3620 N   0  0  0  0  0  0  0  0  0  0  0  0
   35.7130   22.6480   31.4570 C   0  0  0  0  0  0  0  0  0  0  0  0
   35.2620   20.2270   31.5630 C   0  0  0  0  0  0  0  0  0  0  0  0
   35.7820   18.9210   31.3940 N   0  0  0  0  0  0  0  0  0  0  0  0
   36.6480   18.3020   30.5760 C   0  0  0  0  0  0  0  0  0  0  0  0
   36.7510   17.0040   30.8910 N   0  0  0  0  0  0  0  0  0  0  0  0
   35.9130   16.8050   31.9500 C   0  0  0  0  0  0  0  0  0  0  0  0
   35.3530   17.9790   32.2190 N   0  0  0  0  0  0  0  0  0  0  0  0
   35.7020   15.5220   32.6300 C   0  0  0  0  0  0  0  0  0  0  0  0
   36.8160   14.7120   32.8580 C   0  0  0  0  0  0  0  0  0  0  0  0
   36.3060   13.5920   33.5060 C   0  0  0  0  0  0  0  0  0  0  0  0
   34.9250   13.7810   33.6340 C   0  0  0  0  0  0  0  0  0  0  0  0
   34.6220   14.9540   33.0920 O   0  0  0  0  0  0  0  0  0  0  0  0
   37.1632   21.0652   31.5687 H   0  0  0  0  0  0  0  0  0  0  0  0
   35.7897   20.7101   36.6090 H   0  0  0  0  0  0  0  0  0  0  0  0
   34.6559   20.0728   34.2045 H   0  0  0  0  0  0  0  0  0  0  0  0
   40.0296   21.6390   35.6835 H   0  0  0  0  0  0  0  0  0  0  0  0
   41.2084   22.6880   37.6548 H   0  0  0  0  0  0  0  0  0  0  0  0
   37.5112   24.1446   39.1629 H   0  0  0  0  0  0  0  0  0  0  0  0
   35.4848   23.3184   32.2987 H   0  0  0  0  0  0  0  0  0  0  0  0
   36.5114   23.0896   30.8426 H   0  0  0  0  0  0  0  0  0  0  0  0
   34.8110   22.5107   30.8426 H   0  0  0  0  0  0  0  0  0  0  0  0
   34.4589   20.1629   32.3119 H   0  0  0  0  0  0  0  0  0  0  0  0
   34.9555   20.5291   30.5507 H   0  0  0  0  0  0  0  0  0  0  0  0
   37.1975   18.7931   29.7594 H   0  0  0  0  0  0  0  0  0  0  0  0
   37.8625   14.9143   32.5861 H   0  0  0  0  0  0  0  0  0  0  0  0
   36.8805   12.7205   33.8531 H   0  0  0  0  0  0  0  0  0  0  0  0
   34.2163   13.0813   34.1011 H   0  0  0  0  0  0  0  0  0  0  0  0
  1  5  1  0
  2  3  2  0
  2  7  1  0
  4  3  1  0
  5  6  1  0
  5  4  2  0
  6  2  1  0
  7  8  2  0
  7 12  1  0
  8  9  1  0
  9 10  2  0
 11 10  1  0
 12 11  2  0
 13  1  1  0
 14  1  1  0
 15 14  1  0
 15 19  1  0
 16 17  2  0
 16 15  1  0
 17 18  1  0
 18 19  2  0
 18 20  1  0
 20 21  2  0
 20 24  1  0
 21 22  1  0
 22 23  2  0
 24 23  1  0
  1 25  1  6
  3 26  1  0
  4 27  1  0
  8 28  1  0
  9 29  1  0
 11 30  1  0
 13 31  1  0
 13 32  1  0
 13 33  1  0
 14 34  1  0
 14 35  1  0
 16 36  1  0
 21 37  1  0
 22 38  1  0
 23 39  1  0
M  ISO  8  25   8  26  14  27  14  28  14  29  14  30  14  31   8  32   8
M  ISO  7  33   8  34   8  35   8  36  14  37  14  38  14  39  14
M  END
>  <minimizedAffinity>  (1) 
-5.26381731

>  <minimizedRMSD>  (1) 
1.58222282

$$$$
