
     RDKit          3D

 39 42  0  0  1  0  0  0  0  0999 V2000
   36.2790   21.5980   31.7360 C   0  0  2  0  0  0  0  0  0  0  0  0
   37.2500   21.8890   35.1250 C   0  0  0  0  0  0  0  0  0  0  0  0
   36.1740   21.0370   35.3160 C   0  0  0  0  0  0  0  0  0  0  0  0
   35.6250   20.7830   34.0550 C   0  0  0  0  0  0  0  0  0  0  0  0
   36.4310   21.5180   33.1860 C   0  0  0  0  0  0  0  0  0  0  0  0
   37.3550   22.1390   33.8540 O   0  0  0  0  0  0  0  0  0  0  0  0
   38.0630   22.3670   36.2470 C   0  0  0  0  0  0  0  0  0  0  0  0
   39.4310   22.2070   36.3580 C   0  0  0  0  0  0  0  0  0  0  0  0
   40.0360   22.7330   37.5040 C   0  0  0  0  0  0  0  0  0  0  0  0
   39.3070   23.3610   38.4410 N   0  0  0  0  0  0  0  0  0  0  0  0
   37.9640   23.5050   38.3070 C   0  0  0  0  0  0  0  0  0  0  0  0
   37.3660   23.0130   37.2250 N   0  0  0  0  0  0  0  0  0  0  0  0
   35.7490   22.9680   31.3030 C   0  0  0  0  0  0  0  0  0  0  0  0
   35.4340   20.5250   31.1950 C   0  0  0  0  0  0  0  0  0  0  0  0
   36.0470   19.2880   30.8750 N   0  0  0  0  0  0  0  0  0  0  0  0
   36.7140   18.7600   29.8350 C   0  0  0  0  0  0  0  0  0  0  0  0
   37.0680   17.4950   30.0990 N   0  0  0  0  0  0  0  0  0  0  0  0
   36.6070   17.2220   31.3470 C   0  0  0  0  0  0  0  0  0  0  0  0
   35.9990   18.3240   31.7820 N   0  0  0  0  0  0  0  0  0  0  0  0
   36.7400   15.9460   32.1080 C   0  0  0  0  0  0  0  0  0  0  0  0
   35.5840   15.2830   32.6340 C   0  0  0  0  0  0  0  0  0  0  0  0
   35.8100   14.1180   33.3180 C   0  0  0  0  0  0  0  0  0  0  0  0
   37.0990   13.6000   33.4960 C   0  0  0  0  0  0  0  0  0  0  0  0
   38.1370   14.9010   32.5950 S   0  0  0  0  0  0  0  0  0  0  0  0
   37.2861   21.4632   31.3145 H   0  0  0  0  0  0  0  0  0  0  0  0
   35.8190   20.6365   36.2770 H   0  0  0  0  0  0  0  0  0  0  0  0
   34.7596   20.1511   33.8066 H   0  0  0  0  0  0  0  0  0  0  0  0
   40.0159   21.6908   35.5825 H   0  0  0  0  0  0  0  0  0  0  0  0
   41.1228   22.6311   37.6397 H   0  0  0  0  0  0  0  0  0  0  0  0
   37.3783   24.0211   39.0819 H   0  0  0  0  0  0  0  0  0  0  0  0
   35.5163   23.5695   32.1941 H   0  0  0  0  0  0  0  0  0  0  0  0
   36.5126   23.4833   30.7019 H   0  0  0  0  0  0  0  0  0  0  0  0
   34.8374   22.8352   30.7019 H   0  0  0  0  0  0  0  0  0  0  0  0
   34.6518   20.3184   31.9403 H   0  0  0  0  0  0  0  0  0  0  0  0
   35.0840   20.9146   30.2277 H   0  0  0  0  0  0  0  0  0  0  0  0
   36.9380   19.2916   28.8984 H   0  0  0  0  0  0  0  0  0  0  0  0
   34.5704   15.6874   32.4961 H   0  0  0  0  0  0  0  0  0  0  0  0
   34.9531   13.5727   33.7403 H   0  0  0  0  0  0  0  0  0  0  0  0
   37.4204   12.6862   34.0173 H   0  0  0  0  0  0  0  0  0  0  0  0
  1  5  1  0
  2  3  2  0
  2  7  1  0
  4  3  1  0
  5  6  1  0
  5  4  2  0
  6  2  1  0
  7  8  2  0
  7 12  1  0
  8  9  1  0
  9 10  2  0
 11 10  1  0
 12 11  2  0
 13  1  1  0
 14  1  1  0
 15 14  1  0
 15 19  1  0
 16 17  2  0
 16 15  1  0
 17 18  1  0
 18 19  2  0
 18 20  1  0
 20 24  1  0
 20 21  2  0
 21 22  1  0
 22 23  2  0
 24 23  1  0
  1 25  1  6
  3 26  1  0
  4 27  1  0
  8 28  1  0
  9 29  1  0
 11 30  1  0
 13 31  1  0
 13 32  1  0
 13 33  1  0
 14 34  1  0
 14 35  1  0
 16 36  1  0
 21 37  1  0
 22 38  1  0
 23 39  1  0
M  ISO  8  25   8  26  14  27  14  28  14  29  14  30  14  31   8  32   8
M  ISO  7  33   8  34   8  35   8  36  14  37  14  38  14  39  14
M  END
>  <minimizedAffinity>  (1) 
-5.25469255

>  <minimizedRMSD>  (1) 
0.914819121

$$$$
