
     RDKit          3D

 38 41  0  0  1  0  0  0  0  0999 V2000
   36.2620   21.1290   31.9170 C   0  0  2  0  0  0  0  0  0  0  0  0
   37.2140   21.7660   35.2580 C   0  0  0  0  0  0  0  0  0  0  0  0
   36.0810   21.0000   35.5390 C   0  0  0  0  0  0  0  0  0  0  0  0
   35.5340   20.6300   34.3060 C   0  0  0  0  0  0  0  0  0  0  0  0
   36.3920   21.2110   33.3720 C   0  0  0  0  0  0  0  0  0  0  0  0
   37.3490   21.8580   33.9690 O   0  0  0  0  0  0  0  0  0  0  0  0
   38.0460   22.3290   36.3320 C   0  0  0  0  0  0  0  0  0  0  0  0
   39.4210   22.1980   36.4180 C   0  0  0  0  0  0  0  0  0  0  0  0
   40.0500   22.8050   37.5150 C   0  0  0  0  0  0  0  0  0  0  0  0
   39.3070   23.4840   38.4350 N   0  0  0  0  0  0  0  0  0  0  0  0
   37.9660   23.5920   38.3210 C   0  0  0  0  0  0  0  0  0  0  0  0
   37.3630   23.0220   37.2850 N   0  0  0  0  0  0  0  0  0  0  0  0
   35.7950   22.4610   31.3180 C   0  0  0  0  0  0  0  0  0  0  0  0
   35.3650   20.0460   31.4920 C   0  0  0  0  0  0  0  0  0  0  0  0
   35.9040   18.7470   31.3390 N   0  0  0  0  0  0  0  0  0  0  0  0
   36.7640   18.1260   30.5130 C   0  0  0  0  0  0  0  0  0  0  0  0
   36.8980   16.8370   30.8400 N   0  0  0  0  0  0  0  0  0  0  0  0
   36.0860   16.6410   31.9190 C   0  0  0  0  0  0  0  0  0  0  0  0
   35.5150   17.8100   32.1780 N   0  0  0  0  0  0  0  0  0  0  0  0
   35.8770   15.3720   32.6620 C   0  0  0  0  0  0  0  0  0  0  0  0
   36.8200   14.4130   32.8750 C   0  0  0  0  0  0  0  0  0  0  0  0
   35.9180   13.1440   33.8400 S   0  0  0  0  0  0  0  0  0  0  0  0
   34.3460   14.2080   33.7730 C   0  0  0  0  0  0  0  0  0  0  0  0
   34.7120   15.0860   33.1860 N   0  0  0  0  0  0  0  0  0  0  0  0
   37.2677   20.9008   31.5342 H   0  0  0  0  0  0  0  0  0  0  0  0
   35.6943   20.7387   36.5351 H   0  0  0  0  0  0  0  0  0  0  0  0
   34.6366   20.0226   34.1169 H   0  0  0  0  0  0  0  0  0  0  0  0
   39.9944   21.6432   35.6607 H   0  0  0  0  0  0  0  0  0  0  0  0
   41.1413   22.7334   37.6330 H   0  0  0  0  0  0  0  0  0  0  0  0
   37.3832   24.1430   39.0738 H   0  0  0  0  0  0  0  0  0  0  0  0
   35.5493   23.1618   32.1294 H   0  0  0  0  0  0  0  0  0  0  0  0
   36.5979   22.8855   30.6974 H   0  0  0  0  0  0  0  0  0  0  0  0
   34.9028   22.2912   30.6974 H   0  0  0  0  0  0  0  0  0  0  0  0
   34.5603   19.9783   32.2389 H   0  0  0  0  0  0  0  0  0  0  0  0
   35.0577   20.3327   30.4755 H   0  0  0  0  0  0  0  0  0  0  0  0
   37.2882   18.6143   29.6782 H   0  0  0  0  0  0  0  0  0  0  0  0
   37.8699   14.4028   32.5468 H   0  0  0  0  0  0  0  0  0  0  0  0
   33.3493   14.0136   34.1957 H   0  0  0  0  0  0  0  0  0  0  0  0
  1  5  1  0
  2  3  2  0
  2  7  1  0
  4  3  1  0
  5  6  1  0
  5  4  2  0
  6  2  1  0
  7  8  2  0
  7 12  1  0
  8  9  1  0
  9 10  2  0
 11 10  1  0
 12 11  2  0
 13  1  1  0
 14  1  1  0
 15 14  1  0
 15 19  1  0
 16 17  2  0
 16 15  1  0
 17 18  1  0
 18 19  2  0
 18 20  1  0
 20 21  2  0
 20 24  1  0
 21 22  1  0
 23 22  1  0
 24 23  2  0
  1 25  1  6
  3 26  1  0
  4 27  1  0
  8 28  1  0
  9 29  1  0
 11 30  1  0
 13 31  1  0
 13 32  1  0
 13 33  1  0
 14 34  1  0
 14 35  1  0
 16 36  1  0
 21 37  1  0
 23 38  1  0
M  ISO  8  25   8  26  14  27  14  28  14  29  14  30  14  31   8  32   8
M  ISO  6  33   8  34   8  35   8  36  14  37  14  38  14
M  END
>  <minimizedAffinity>  (1) 
-5.15302896

>  <minimizedRMSD>  (1) 
1.55760181

$$$$
