
     RDKit          3D

 38 40  0  0  1  0  0  0  0  0999 V2000
   36.2430   21.3820   31.8830 C   0  0  2  0  0  0  0  0  0  0  0  0
   37.2280   21.8250   35.2450 C   0  0  0  0  0  0  0  0  0  0  0  0
   36.1520   20.9880   35.4840 C   0  0  0  0  0  0  0  0  0  0  0  0
   35.5990   20.6790   34.2380 C   0  0  0  0  0  0  0  0  0  0  0  0
   36.4040   21.3700   33.3340 C   0  0  0  0  0  0  0  0  0  0  0  0
   37.3370   22.0220   33.9650 O   0  0  0  0  0  0  0  0  0  0  0  0
   38.0530   22.3560   36.3460 C   0  0  0  0  0  0  0  0  0  0  0  0
   39.4230   22.2050   36.4550 C   0  0  0  0  0  0  0  0  0  0  0  0
   40.0230   22.7900   37.5810 C   0  0  0  0  0  0  0  0  0  0  0  0
   39.2920   23.4540   38.4890 N   0  0  0  0  0  0  0  0  0  0  0  0
   37.9490   23.5850   38.3540 C   0  0  0  0  0  0  0  0  0  0  0  0
   37.3530   23.0420   37.2990 N   0  0  0  0  0  0  0  0  0  0  0  0
   35.7300   22.7360   31.3820 C   0  0  0  0  0  0  0  0  0  0  0  0
   35.3850   20.2970   31.3950 C   0  0  0  0  0  0  0  0  0  0  0  0
   35.9830   19.0570   31.0640 N   0  0  0  0  0  0  0  0  0  0  0  0
   36.7520   18.5690   30.0810 C   0  0  0  0  0  0  0  0  0  0  0  0
   37.0250   17.2760   30.2840 N   0  0  0  0  0  0  0  0  0  0  0  0
   36.4000   16.9400   31.4430 C   0  0  0  0  0  0  0  0  0  0  0  0
   35.7840   18.0410   31.8820 N   0  0  0  0  0  0  0  0  0  0  0  0
   36.4330   15.5850   32.0580 C   0  0  0  0  0  0  0  0  0  0  0  0
   35.1240   15.2480   32.7600 C   0  0  0  0  0  0  0  0  0  0  0  0
   37.2478   21.2134   31.4682 H   0  0  0  0  0  0  0  0  0  0  0  0
   35.8002   20.6345   36.4644 H   0  0  0  0  0  0  0  0  0  0  0  0
   34.7307   20.0394   34.0213 H   0  0  0  0  0  0  0  0  0  0  0  0
   40.0093   21.6576   35.7022 H   0  0  0  0  0  0  0  0  0  0  0  0
   41.1105   22.7026   37.7212 H   0  0  0  0  0  0  0  0  0  0  0  0
   37.3626   24.1325   39.1066 H   0  0  0  0  0  0  0  0  0  0  0  0
   35.4871   23.3772   32.2422 H   0  0  0  0  0  0  0  0  0  0  0  0
   36.5072   23.2197   30.7721 H   0  0  0  0  0  0  0  0  0  0  0  0
   34.8274   22.5833   30.7721 H   0  0  0  0  0  0  0  0  0  0  0  0
   34.6374   20.0980   32.1770 H   0  0  0  0  0  0  0  0  0  0  0  0
   34.9971   20.6722   30.4364 H   0  0  0  0  0  0  0  0  0  0  0  0
   37.1108   19.1543   29.2215 H   0  0  0  0  0  0  0  0  0  0  0  0
   36.6153   14.8406   31.2689 H   0  0  0  0  0  0  0  0  0  0  0  0
   37.2363   15.5711   32.8094 H   0  0  0  0  0  0  0  0  0  0  0  0
   35.2718   15.2860   33.8494 H   0  0  0  0  0  0  0  0  0  0  0  0
   34.3535   15.9771   32.4688 H   0  0  0  0  0  0  0  0  0  0  0  0
   34.8013   14.2375   32.4688 H   0  0  0  0  0  0  0  0  0  0  0  0
  1  5  1  0
  2  3  2  0
  2  7  1  0
  4  3  1  0
  5  6  1  0
  5  4  2  0
  6  2  1  0
  7  8  2  0
  7 12  1  0
  8  9  1  0
  9 10  2  0
 11 10  1  0
 12 11  2  0
 13  1  1  0
 14  1  1  0
 15 14  1  0
 15 19  1  0
 16 17  2  0
 16 15  1  0
 17 18  1  0
 18 19  2  0
 18 20  1  0
 20 21  1  0
  1 22  1  6
  3 23  1  0
  4 24  1  0
  8 25  1  0
  9 26  1  0
 11 27  1  0
 13 28  1  0
 13 29  1  0
 13 30  1  0
 14 31  1  0
 14 32  1  0
 16 33  1  0
 20 34  1  0
 20 35  1  0
 21 36  1  0
 21 37  1  0
 21 38  1  0
M  ISO  8  22   8  23  14  24  14  25  14  26  14  27  14  28   8  29   8
M  ISO  8  30   8  31   8  32   8  33  14  34   8  35   8  36   8  37   8
M  ISO  1  38   8
M  END
>  <minimizedAffinity>  (1) 
-4.87822628

>  <minimizedRMSD>  (1) 
0.809901536

$$$$
