
     RDKit          3D

 35 37  0  0  1  0  0  0  0  0999 V2000
   36.2450   21.3940   31.8770 C   0  0  2  0  0  0  0  0  0  0  0  0
   37.2290   21.8340   35.2410 C   0  0  0  0  0  0  0  0  0  0  0  0
   36.1510   20.9930   35.4810 C   0  0  0  0  0  0  0  0  0  0  0  0
   35.6020   20.6890   34.2340 C   0  0  0  0  0  0  0  0  0  0  0  0
   36.4030   21.3790   33.3270 C   0  0  0  0  0  0  0  0  0  0  0  0
   37.3350   22.0300   33.9610 O   0  0  0  0  0  0  0  0  0  0  0  0
   38.0500   22.3600   36.3410 C   0  0  0  0  0  0  0  0  0  0  0  0
   39.4200   22.2080   36.4480 C   0  0  0  0  0  0  0  0  0  0  0  0
   40.0210   22.7890   37.5760 C   0  0  0  0  0  0  0  0  0  0  0  0
   39.2940   23.4500   38.4900 N   0  0  0  0  0  0  0  0  0  0  0  0
   37.9490   23.5810   38.3560 C   0  0  0  0  0  0  0  0  0  0  0  0
   37.3590   23.0430   37.3010 N   0  0  0  0  0  0  0  0  0  0  0  0
   35.7300   22.7470   31.3790 C   0  0  0  0  0  0  0  0  0  0  0  0
   35.3880   20.3080   31.3880 C   0  0  0  0  0  0  0  0  0  0  0  0
   35.9840   19.0630   31.0760 N   0  0  0  0  0  0  0  0  0  0  0  0
   36.7460   18.5520   30.0930 C   0  0  0  0  0  0  0  0  0  0  0  0
   37.0150   17.2610   30.3230 N   0  0  0  0  0  0  0  0  0  0  0  0
   36.4000   16.9490   31.4910 C   0  0  0  0  0  0  0  0  0  0  0  0
   35.7920   18.0590   31.9110 N   0  0  0  0  0  0  0  0  0  0  0  0
   36.3980   15.6360   32.1760 C   0  0  0  0  0  0  0  0  0  0  0  0
   35.3770   14.9040   32.2630 O   0  0  0  0  0  0  0  0  0  0  0  0
   37.5750   15.1770   32.7540 O   0  0  0  0  0  0  0  0  0  0  0  0
   37.2502   21.2290   31.4618 H   0  0  0  0  0  0  0  0  0  0  0  0
   35.7989   20.6365   36.4603 H   0  0  0  0  0  0  0  0  0  0  0  0
   34.7337   20.0495   34.0169 H   0  0  0  0  0  0  0  0  0  0  0  0
   40.0055   21.6632   35.6928 H   0  0  0  0  0  0  0  0  0  0  0  0
   41.1088   22.7007   37.7132 H   0  0  0  0  0  0  0  0  0  0  0  0
   37.3610   24.1242   39.1105 H   0  0  0  0  0  0  0  0  0  0  0  0
   35.4866   23.3863   32.2404 H   0  0  0  0  0  0  0  0  0  0  0  0
   36.5061   23.2329   30.7694 H   0  0  0  0  0  0  0  0  0  0  0  0
   34.8273   22.5939   30.7694 H   0  0  0  0  0  0  0  0  0  0  0  0
   34.6298   20.1195   32.1624 H   0  0  0  0  0  0  0  0  0  0  0  0
   35.0140   20.6761   30.4212 H   0  0  0  0  0  0  0  0  0  0  0  0
   37.1002   19.1179   29.2187 H   0  0  0  0  0  0  0  0  0  0  0  0
   37.5911   14.3014   33.2158 H   0  0  0  0  0  0  0  0  0  0  0  0
  1  5  1  0
  2  3  2  0
  2  7  1  0
  4  3  1  0
  5  6  1  0
  5  4  2  0
  6  2  1  0
  7  8  2  0
  7 12  1  0
  8  9  1  0
  9 10  2  0
 11 10  1  0
 12 11  2  0
 13  1  1  0
 14  1  1  0
 15 14  1  0
 15 19  1  0
 16 17  2  0
 16 15  1  0
 17 18  1  0
 18 19  2  0
 18 20  1  0
 20 21  2  0
 20 22  1  0
  1 23  1  6
  3 24  1  0
  4 25  1  0
  8 26  1  0
  9 27  1  0
 11 28  1  0
 13 29  1  0
 13 30  1  0
 13 31  1  0
 14 32  1  0
 14 33  1  0
 16 34  1  0
 22 35  1  0
M  ISO  8  23   8  24  14  25  14  26  14  27  14  28  14  29   8  30   8
M  ISO  5  31   8  32   8  33   8  34  14  35   3
M  END
>  <minimizedAffinity>  (1) 
-4.86155701

>  <minimizedRMSD>  (1) 
0.814066887

$$$$
