
     RDKit          3D

 19 20  0  0  0  0  0  0  0  0999 V2000
   38.8490   24.4090   36.0150 C   0  0  0  0  0  0  0  0  0  0  0  0
   38.3240   25.5370   35.3310 C   0  0  0  0  0  0  0  0  0  0  0  0
   37.8810   25.3420   34.0420 C   0  0  0  0  0  0  0  0  0  0  0  0
   37.9590   24.0990   33.4760 N   0  0  0  0  0  0  0  0  0  0  0  0
   38.4720   23.0540   34.1780 C   0  0  0  0  0  0  0  0  0  0  0  0
   38.9090   23.2170   35.4290 N   0  0  0  0  0  0  0  0  0  0  0  0
   38.2400   26.8900   35.9530 C   0  0  0  0  0  0  0  0  0  0  0  0
   39.3940   27.5630   35.6100 F   0  0  0  0  0  0  0  0  0  0  0  0
   38.1690   26.8360   37.3080 F   0  0  0  0  0  0  0  0  0  0  0  0
   37.2000   27.6280   35.3600 F   0  0  0  0  0  0  0  0  0  0  0  0
   38.5080   21.4870   33.2960 S   0  0  0  0  0  0  0  0  0  0  0  0
   36.9990   21.4410   32.3120 C   0  0  0  0  0  0  0  0  0  0  0  0
   36.5110   21.7580   31.0860 N   0  0  0  0  0  0  0  0  0  0  0  0
   35.2700   21.4370   31.0530 O   0  0  0  0  0  0  0  0  0  0  0  0
   34.8470   20.9180   32.1680 C   0  0  0  0  0  0  0  0  0  0  0  0
   35.9410   20.9130   32.9860 N   0  0  0  0  0  0  0  0  0  0  0  0
   39.2122   24.5231   37.0470 H   0  0  0  0  0  0  0  0  0  0  0  0
   37.4653   26.1837   33.4687 H   0  0  0  0  0  0  0  0  0  0  0  0
   33.8326   20.5618   32.4008 H   0  0  0  0  0  0  0  0  0  0  0  0
  2  7  1  0
  2  1  2  0
  3  2  1  0
  4  3  2  0
  4  5  1  0
  5  6  2  0
  6  1  1  0
  7  9  1  0
  8  7  1  0
 10  7  1  0
 11  5  1  0
 12 16  1  0
 12 11  1  0
 13 12  2  0
 14 13  1  0
 14 15  1  0
 15 16  2  0
  1 17  1  0
  3 18  1  0
 15 19  1  0
M  ISO  3  17  14  18  14  19  14
M  END
>  <minimizedAffinity>  (1) 
-4.06778622

>  <minimizedRMSD>  (1) 
4.60099983

$$$$
