
     RDKit          3D

 38 41  0  0  1  0  0  0  0  0999 V2000
   36.1960   21.1130   31.9760 C   0  0  2  0  0  0  0  0  0  0  0  0
   37.2030   21.7620   35.2950 C   0  0  0  0  0  0  0  0  0  0  0  0
   36.0810   21.0080   35.5970 C   0  0  0  0  0  0  0  0  0  0  0  0
   35.5100   20.6330   34.3760 C   0  0  0  0  0  0  0  0  0  0  0  0
   36.3540   21.2060   33.4250 C   0  0  0  0  0  0  0  0  0  0  0  0
   37.3270   21.8530   34.0040 O   0  0  0  0  0  0  0  0  0  0  0  0
   38.0580   22.3280   36.3550 C   0  0  0  0  0  0  0  0  0  0  0  0
   39.4330   22.1980   36.4190 C   0  0  0  0  0  0  0  0  0  0  0  0
   40.0680   22.8130   37.5090 C   0  0  0  0  0  0  0  0  0  0  0  0
   39.3620   23.4860   38.4320 N   0  0  0  0  0  0  0  0  0  0  0  0
   38.0120   23.5950   38.3430 C   0  0  0  0  0  0  0  0  0  0  0  0
   37.3910   23.0210   37.3180 N   0  0  0  0  0  0  0  0  0  0  0  0
   35.7430   22.4450   31.3700 C   0  0  0  0  0  0  0  0  0  0  0  0
   35.2920   20.0300   31.5700 C   0  0  0  0  0  0  0  0  0  0  0  0
   35.8240   18.7210   31.4450 N   0  0  0  0  0  0  0  0  0  0  0  0
   36.7060   18.0870   30.6580 C   0  0  0  0  0  0  0  0  0  0  0  0
   36.8120   16.8000   31.0100 N   0  0  0  0  0  0  0  0  0  0  0  0
   35.9650   16.6230   32.0560 C   0  0  0  0  0  0  0  0  0  0  0  0
   35.3860   17.8010   32.2910 N   0  0  0  0  0  0  0  0  0  0  0  0
   35.7810   15.3810   32.7270 N   0  0  0  0  0  0  0  0  0  0  0  0
   36.7190   14.4400   32.9020 C   0  0  0  0  0  0  0  0  0  0  0  0
   36.1550   13.4270   33.5770 N   0  0  0  0  0  0  0  0  0  0  0  0
   34.8520   13.7380   33.8260 C   0  0  0  0  0  0  0  0  0  0  0  0
   34.6460   14.9600   33.2850 N   0  0  0  0  0  0  0  0  0  0  0  0
   37.1928   20.8705   31.5790 H   0  0  0  0  0  0  0  0  0  0  0  0
   35.7110   20.7536   36.6012 H   0  0  0  0  0  0  0  0  0  0  0  0
   34.6071   20.0281   34.2060 H   0  0  0  0  0  0  0  0  0  0  0  0
   39.9988   21.6424   35.6566 H   0  0  0  0  0  0  0  0  0  0  0  0
   41.1612   22.7427   37.6088 H   0  0  0  0  0  0  0  0  0  0  0  0
   37.4429   24.1479   39.1048 H   0  0  0  0  0  0  0  0  0  0  0  0
   35.5025   23.1522   32.1774 H   0  0  0  0  0  0  0  0  0  0  0  0
   36.5509   22.8588   30.7487 H   0  0  0  0  0  0  0  0  0  0  0  0
   34.8503   22.2804   30.7487 H   0  0  0  0  0  0  0  0  0  0  0  0
   34.4843   19.9834   32.3153 H   0  0  0  0  0  0  0  0  0  0  0  0
   34.9890   20.2986   30.5472 H   0  0  0  0  0  0  0  0  0  0  0  0
   37.2649   18.5595   29.8368 H   0  0  0  0  0  0  0  0  0  0  0  0
   37.7618   14.4892   32.5552 H   0  0  0  0  0  0  0  0  0  0  0  0
   34.1156   13.1193   34.3598 H   0  0  0  0  0  0  0  0  0  0  0  0
  1  5  1  0
  2  3  2  0
  2  7  1  0
  4  3  1  0
  5  6  1  0
  5  4  2  0
  6  2  1  0
  7  8  2  0
  7 12  1  0
  8  9  1  0
  9 10  2  0
 11 10  1  0
 12 11  2  0
 13  1  1  0
 14  1  1  0
 15 14  1  0
 15 19  1  0
 16 17  2  0
 16 15  1  0
 17 18  1  0
 18 19  2  0
 18 20  1  0
 20 21  1  0
 20 24  1  0
 21 22  2  0
 22 23  1  0
 24 23  2  0
  1 25  1  6
  3 26  1  0
  4 27  1  0
  8 28  1  0
  9 29  1  0
 11 30  1  0
 13 31  1  0
 13 32  1  0
 13 33  1  0
 14 34  1  0
 14 35  1  0
 16 36  1  0
 21 37  1  0
 23 38  1  0
M  ISO  8  25   8  26  14  27  14  28  14  29  14  30  14  31   8  32   8
M  ISO  6  33   8  34   8  35   8  36  14  37  14  38  14
M  END
>  <minimizedAffinity>  (1) 
-5.38227081

>  <minimizedRMSD>  (1) 
1.63064742

$$$$
