
     RDKit          3D

 50 54  0  0  1  0  0  0  0  0999 V2000
   36.5840   21.9120   31.5550 C   0  0  2  0  0  0  0  0  0  0  0  0
   37.3820   22.0100   34.9770 C   0  0  0  0  0  0  0  0  0  0  0  0
   36.2810   21.1590   35.0850 C   0  0  0  0  0  0  0  0  0  0  0  0
   35.7910   20.9790   33.7840 C   0  0  0  0  0  0  0  0  0  0  0  0
   36.6620   21.7560   33.0010 C   0  0  0  0  0  0  0  0  0  0  0  0
   37.5780   22.3430   33.7290 O   0  0  0  0  0  0  0  0  0  0  0  0
   38.1550   22.4230   36.1670 C   0  0  0  0  0  0  0  0  0  0  0  0
   39.5020   22.2370   36.3430 C   0  0  0  0  0  0  0  0  0  0  0  0
   40.0530   22.6970   37.5440 C   0  0  0  0  0  0  0  0  0  0  0  0
   39.2830   23.2940   38.4770 N   0  0  0  0  0  0  0  0  0  0  0  0
   37.9620   23.4630   38.2790 C   0  0  0  0  0  0  0  0  0  0  0  0
   37.4270   23.0310   37.1420 N   0  0  0  0  0  0  0  0  0  0  0  0
   36.1560   23.3570   31.1780 C   0  0  0  0  0  0  0  0  0  0  0  0
   35.6880   20.9710   30.9020 C   0  0  0  0  0  0  0  0  0  0  0  0
   36.1080   19.6410   30.6900 N   0  0  0  0  0  0  0  0  0  0  0  0
   36.7570   19.0330   29.7000 C   0  0  0  0  0  0  0  0  0  0  0  0
   36.9220   17.7290   29.9770 N   0  0  0  0  0  0  0  0  0  0  0  0
   36.3460   17.5290   31.1920 C   0  0  0  0  0  0  0  0  0  0  0  0
   35.8750   18.7030   31.5750 N   0  0  0  0  0  0  0  0  0  0  0  0
   36.3030   16.2720   31.8440 N   0  0  0  0  0  0  0  0  0  0  0  0
   37.2250   15.3150   31.7960 C   0  0  0  0  0  0  0  0  0  0  0  0
   36.7900   14.2960   32.5520 N   0  0  0  0  0  0  0  0  0  0  0  0
   35.5870   14.6180   33.0780 C   0  0  0  0  0  0  0  0  0  0  0  0
   35.2950   15.8570   32.6270 N   0  0  0  0  0  0  0  0  0  0  0  0
   34.7740   13.8280   33.9360 N   0  0  0  0  0  0  0  0  0  0  0  0
   35.1270   13.3190   35.2500 C   0  0  0  0  0  0  0  0  0  0  0  0
   33.8620   13.6770   36.0030 C   0  0  0  0  0  0  0  0  0  0  0  0
   32.7590   13.7210   34.9670 C   0  0  0  0  0  0  0  0  0  0  0  0
   33.4220   13.3800   33.6490 C   0  0  0  0  0  0  0  0  0  0  0  0
   37.5996   21.6988   31.1902 H   0  0  0  0  0  0  0  0  0  0  0  0
   35.8777   20.7171   36.0081 H   0  0  0  0  0  0  0  0  0  0  0  0
   34.9322   20.3754   33.4553 H   0  0  0  0  0  0  0  0  0  0  0  0
   40.1207   21.7488   35.5756 H   0  0  0  0  0  0  0  0  0  0  0  0
   41.1297   22.5700   37.7301 H   0  0  0  0  0  0  0  0  0  0  0  0
   37.3380   23.9491   39.0434 H   0  0  0  0  0  0  0  0  0  0  0  0
   35.9835   23.9394   32.0951 H   0  0  0  0  0  0  0  0  0  0  0  0
   36.9519   23.8325   30.5860 H   0  0  0  0  0  0  0  0  0  0  0  0
   35.2296   23.3223   30.5860 H   0  0  0  0  0  0  0  0  0  0  0  0
   34.7741   20.9239   31.5125 H   0  0  0  0  0  0  0  0  0  0  0  0
   35.5889   21.3748   29.8836 H   0  0  0  0  0  0  0  0  0  0  0  0
   37.1090   19.5288   28.7833 H   0  0  0  0  0  0  0  0  0  0  0  0
   38.1721   15.3522   31.2378 H   0  0  0  0  0  0  0  0  0  0  0  0
   35.3032   12.2333   35.2361 H   0  0  0  0  0  0  0  0  0  0  0  0
   36.0567   13.7245   35.6757 H   0  0  0  0  0  0  0  0  0  0  0  0
   33.6413   12.9142   36.7643 H   0  0  0  0  0  0  0  0  0  0  0  0
   33.9627   14.6395   36.5259 H   0  0  0  0  0  0  0  0  0  0  0  0
   31.9785   12.9836   35.2060 H   0  0  0  0  0  0  0  0  0  0  0  0
   32.2719   14.7067   34.9337 H   0  0  0  0  0  0  0  0  0  0  0  0
   32.9758   13.9341   32.8100 H   0  0  0  0  0  0  0  0  0  0  0  0
   33.3337   12.3281   33.3395 H   0  0  0  0  0  0  0  0  0  0  0  0
  1  5  1  0
  2  3  2  0
  2  7  1  0
  4  3  1  0
  5  6  1  0
  5  4  2  0
  6  2  1  0
  7  8  2  0
  7 12  1  0
  8  9  1  0
  9 10  2  0
 11 10  1  0
 12 11  2  0
 13  1  1  0
 14  1  1  0
 15 14  1  0
 15 19  1  0
 16 17  2  0
 16 15  1  0
 17 18  1  0
 18 19  2  0
 18 20  1  0
 20 24  1  0
 21 20  1  0
 21 22  2  0
 22 23  1  0
 23 25  1  0
 24 23  2  0
 25 26  1  0
 26 27  1  0
 28 27  1  0
 29 25  1  0
 29 28  1  0
  1 30  1  6
  3 31  1  0
  4 32  1  0
  8 33  1  0
  9 34  1  0
 11 35  1  0
 13 36  1  0
 13 37  1  0
 13 38  1  0
 14 39  1  0
 14 40  1  0
 16 41  1  0
 21 42  1  0
 26 43  1  0
 26 44  1  0
 27 45  1  0
 27 46  1  0
 28 47  1  0
 28 48  1  0
 29 49  1  0
 29 50  1  0
M  ISO  8  30   8  31  14  32  14  33  14  34  14  35  14  36   8  37   8
M  ISO  8  38   8  39   8  40   8  41  14  42  14  43  13  44  13  45  13
M  ISO  5  46  13  47  13  48  13  49  13  50  13
M  END
>  <minimizedAffinity>  (1) 
-6.41778326

>  <minimizedRMSD>  (1) 
1.08775079

$$$$
