
     RDKit          3D

 47 50  0  0  1  0  0  0  0  0999 V2000
   36.3720   21.1180   31.9110 C   0  0  2  0  0  0  0  0  0  0  0  0
   37.2360   21.7740   35.2580 C   0  0  0  0  0  0  0  0  0  0  0  0
   36.0820   21.0330   35.5230 C   0  0  0  0  0  0  0  0  0  0  0  0
   35.5600   20.6580   34.2780 C   0  0  0  0  0  0  0  0  0  0  0  0
   36.4650   21.2180   33.3610 C   0  0  0  0  0  0  0  0  0  0  0  0
   37.4210   21.8560   33.9750 O   0  0  0  0  0  0  0  0  0  0  0  0
   38.0550   22.3390   36.3540 C   0  0  0  0  0  0  0  0  0  0  0  0
   39.4150   22.2040   36.4780 C   0  0  0  0  0  0  0  0  0  0  0  0
   40.0140   22.8060   37.5810 C   0  0  0  0  0  0  0  0  0  0  0  0
   39.2780   23.4920   38.4850 N   0  0  0  0  0  0  0  0  0  0  0  0
   37.9450   23.6090   38.3380 C   0  0  0  0  0  0  0  0  0  0  0  0
   37.3650   23.0340   37.2840 N   0  0  0  0  0  0  0  0  0  0  0  0
   35.9810   22.4860   31.2920 C   0  0  0  0  0  0  0  0  0  0  0  0
   35.4350   20.1050   31.4460 C   0  0  0  0  0  0  0  0  0  0  0  0
   35.8350   18.7560   31.3890 N   0  0  0  0  0  0  0  0  0  0  0  0
   36.5960   18.0520   30.5540 C   0  0  0  0  0  0  0  0  0  0  0  0
   36.6710   16.7720   30.9420 N   0  0  0  0  0  0  0  0  0  0  0  0
   35.9240   16.6820   32.0600 C   0  0  0  0  0  0  0  0  0  0  0  0
   35.4390   17.8940   32.2980 N   0  0  0  0  0  0  0  0  0  0  0  0
   35.7240   15.4870   32.8070 N   0  0  0  0  0  0  0  0  0  0  0  0
   36.6220   14.4960   32.9500 C   0  0  0  0  0  0  0  0  0  0  0  0
   36.0670   13.5510   33.7320 N   0  0  0  0  0  0  0  0  0  0  0  0
   34.8130   13.9670   34.0730 C   0  0  0  0  0  0  0  0  0  0  0  0
   34.6160   15.1620   33.4950 N   0  0  0  0  0  0  0  0  0  0  0  0
   33.7880   13.3030   34.9160 C   0  0  0  0  0  0  0  0  0  0  0  0
   32.3970   13.8720   34.6470 C   0  0  0  0  0  0  0  0  0  0  0  0
   34.0310   13.4500   36.3990 C   0  0  0  0  0  0  0  0  0  0  0  0
   37.3741   20.8111   31.5768 H   0  0  0  0  0  0  0  0  0  0  0  0
   35.6658   20.7918   36.5123 H   0  0  0  0  0  0  0  0  0  0  0  0
   34.6568   20.0661   34.0685 H   0  0  0  0  0  0  0  0  0  0  0  0
   40.0061   21.6445   35.7380 H   0  0  0  0  0  0  0  0  0  0  0  0
   41.1021   22.7226   37.7195 H   0  0  0  0  0  0  0  0  0  0  0  0
   37.3464   24.1677   39.0725 H   0  0  0  0  0  0  0  0  0  0  0  0
   35.7749   23.2071   32.0967 H   0  0  0  0  0  0  0  0  0  0  0  0
   36.8090   22.8572   30.6702 H   0  0  0  0  0  0  0  0  0  0  0  0
   35.0819   22.3636   30.6702 H   0  0  0  0  0  0  0  0  0  0  0  0
   34.5606   20.1502   32.1118 H   0  0  0  0  0  0  0  0  0  0  0  0
   35.2767   20.3692   30.3900 H   0  0  0  0  0  0  0  0  0  0  0  0
   37.0957   18.4654   29.6655 H   0  0  0  0  0  0  0  0  0  0  0  0
   37.6286   14.4635   32.5077 H   0  0  0  0  0  0  0  0  0  0  0  0
   33.8568   12.2403   34.6405 H   0  0  0  0  0  0  0  0  0  0  0  0
   31.8938   14.0778   35.6033 H   0  0  0  0  0  0  0  0  0  0  0  0
   32.4875   14.8053   34.0720 H   0  0  0  0  0  0  0  0  0  0  0  0
   31.8075   13.1428   34.0720 H   0  0  0  0  0  0  0  0  0  0  0  0
   33.2185   12.9585   36.9542 H   0  0  0  0  0  0  0  0  0  0  0  0
   34.9906   12.9808   36.6616 H   0  0  0  0  0  0  0  0  0  0  0  0
   34.0609   14.5178   36.6616 H   0  0  0  0  0  0  0  0  0  0  0  0
  1  5  1  0
  2  3  2  0
  2  7  1  0
  4  3  1  0
  5  6  1  0
  5  4  2  0
  6  2  1  0
  7  8  2  0
  7 12  1  0
  8  9  1  0
  9 10  2  0
 11 10  1  0
 12 11  2  0
 13  1  1  0
 14  1  1  0
 15 14  1  0
 15 19  1  0
 16 17  2  0
 16 15  1  0
 17 18  1  0
 18 19  2  0
 18 20  1  0
 20 21  1  0
 20 24  1  0
 21 22  2  0
 22 23  1  0
 23 25  1  0
 24 23  2  0
 25 27  1  0
 26 25  1  0
  1 28  1  6
  3 29  1  0
  4 30  1  0
  8 31  1  0
  9 32  1  0
 11 33  1  0
 13 34  1  0
 13 35  1  0
 13 36  1  0
 14 37  1  0
 14 38  1  0
 16 39  1  0
 21 40  1  0
 25 41  1  0
 26 42  1  0
 26 43  1  0
 26 44  1  0
 27 45  1  0
 27 46  1  0
 27 47  1  0
M  ISO  8  28   8  29  14  30  14  31  14  32  14  33  14  34   8  35   8
M  ISO  8  36   8  37   8  38   8  39  14  40  14  41   8  42   8  43   8
M  ISO  4  44   8  45   8  46   8  47   8
M  END
>  <minimizedAffinity>  (1) 
-6.05602217

>  <minimizedRMSD>  (1) 
0.230886117

$$$$
