
     RDKit          3D

 45 49  0  0  1  0  0  0  0  0999 V2000
   36.2780   21.3630   31.8670 C   0  0  2  0  0  0  0  0  0  0  0  0
   37.2310   21.8320   35.2190 C   0  0  0  0  0  0  0  0  0  0  0  0
   36.1240   21.0190   35.4690 C   0  0  0  0  0  0  0  0  0  0  0  0
   35.5730   20.7030   34.2190 C   0  0  0  0  0  0  0  0  0  0  0  0
   36.4200   21.3700   33.3160 C   0  0  0  0  0  0  0  0  0  0  0  0
   37.3710   22.0150   33.9370 O   0  0  0  0  0  0  0  0  0  0  0  0
   38.0600   22.3600   36.3230 C   0  0  0  0  0  0  0  0  0  0  0  0
   39.4200   22.2150   36.4310 C   0  0  0  0  0  0  0  0  0  0  0  0
   40.0300   22.7840   37.5540 C   0  0  0  0  0  0  0  0  0  0  0  0
   39.3050   23.4410   38.4780 N   0  0  0  0  0  0  0  0  0  0  0  0
   37.9670   23.5700   38.3510 C   0  0  0  0  0  0  0  0  0  0  0  0
   37.3620   23.0340   37.2860 N   0  0  0  0  0  0  0  0  0  0  0  0
   35.7710   22.7390   31.3570 C   0  0  0  0  0  0  0  0  0  0  0  0
   35.3980   20.3220   31.3600 C   0  0  0  0  0  0  0  0  0  0  0  0
   35.8730   19.0000   31.2370 N   0  0  0  0  0  0  0  0  0  0  0  0
   36.6440   18.3800   30.3520 C   0  0  0  0  0  0  0  0  0  0  0  0
   36.8110   17.0910   30.6790 N   0  0  0  0  0  0  0  0  0  0  0  0
   36.1110   16.9140   31.8150 C   0  0  0  0  0  0  0  0  0  0  0  0
   35.5620   18.0770   32.1210 N   0  0  0  0  0  0  0  0  0  0  0  0
   36.0110   15.6710   32.5190 N   0  0  0  0  0  0  0  0  0  0  0  0
   36.9700   14.7410   32.6000 C   0  0  0  0  0  0  0  0  0  0  0  0
   36.4870   13.7330   33.3500 N   0  0  0  0  0  0  0  0  0  0  0  0
   35.2270   14.0440   33.7310 C   0  0  0  0  0  0  0  0  0  0  0  0
   34.9370   15.2590   33.2070 N   0  0  0  0  0  0  0  0  0  0  0  0
   34.2610   13.2550   34.5740 C   0  0  0  0  0  0  0  0  0  0  0  0
   34.2660   13.3680   36.0340 C   0  0  0  0  0  0  0  0  0  0  0  0
   33.1890   14.0590   35.3090 C   0  0  0  0  0  0  0  0  0  0  0  0
   37.2865   21.1511   31.4823 H   0  0  0  0  0  0  0  0  0  0  0  0
   35.7565   20.6910   36.4526 H   0  0  0  0  0  0  0  0  0  0  0  0
   34.6914   20.0833   33.9981 H   0  0  0  0  0  0  0  0  0  0  0  0
   40.0036   21.6764   35.6699 H   0  0  0  0  0  0  0  0  0  0  0  0
   41.1185   22.6930   37.6837 H   0  0  0  0  0  0  0  0  0  0  0  0
   37.3834   24.1081   39.1125 H   0  0  0  0  0  0  0  0  0  0  0  0
   35.5335   23.3836   32.2161 H   0  0  0  0  0  0  0  0  0  0  0  0
   36.5529   23.2147   30.7468 H   0  0  0  0  0  0  0  0  0  0  0  0
   34.8674   22.5936   30.7468 H   0  0  0  0  0  0  0  0  0  0  0  0
   34.5274   20.2862   32.0314 H   0  0  0  0  0  0  0  0  0  0  0  0
   35.2181   20.6258   30.3182 H   0  0  0  0  0  0  0  0  0  0  0  0
   37.0872   18.8605   29.4673 H   0  0  0  0  0  0  0  0  0  0  0  0
   37.9676   14.7911   32.1393 H   0  0  0  0  0  0  0  0  0  0  0  0
   34.3036   12.4027   33.8800 H   0  0  0  0  0  0  0  0  0  0  0  0
   34.0280   12.4861   36.6469 H   0  0  0  0  0  0  0  0  0  0  0  0
   35.0171   13.6907   36.7700 H   0  0  0  0  0  0  0  0  0  0  0  0
   33.1790   15.1571   35.2459 H   0  0  0  0  0  0  0  0  0  0  0  0
   32.0896   14.0571   35.3440 H   0  0  0  0  0  0  0  0  0  0  0  0
  1  5  1  0
  2  3  2  0
  2  7  1  0
  4  3  1  0
  5  6  1  0
  5  4  2  0
  6  2  1  0
  7  8  2  0
  7 12  1  0
  8  9  1  0
  9 10  2  0
 11 10  1  0
 12 11  2  0
 13  1  1  0
 14  1  1  0
 15 14  1  0
 15 19  1  0
 16 17  2  0
 16 15  1  0
 17 18  1  0
 18 19  2  0
 18 20  1  0
 20 21  1  0
 20 24  1  0
 21 22  2  0
 22 23  1  0
 23 25  1  0
 24 23  2  0
 25 27  1  0
 25 26  1  0
 27 26  1  0
  1 28  1  6
  3 29  1  0
  4 30  1  0
  8 31  1  0
  9 32  1  0
 11 33  1  0
 13 34  1  0
 13 35  1  0
 13 36  1  0
 14 37  1  0
 14 38  1  0
 16 39  1  0
 21 40  1  0
 25 41  1  0
 26 42  1  0
 26 43  1  0
 27 44  1  0
 27 45  1  0
M  ISO  8  28   8  29  14  30  14  31  14  32  14  33  14  34   8  35   8
M  ISO  8  36   8  37   8  38   8  39  14  40  14  41  13  42  13  43  13
M  ISO  2  44  13  45  13
M  END
>  <minimizedAffinity>  (1) 
-6.05428839

>  <minimizedRMSD>  (1) 
0.479139119

$$$$
