
     RDKit          3D

 45 49  0  0  1  0  0  0  0  0999 V2000
   36.3210   21.2240   31.8690 C   0  0  2  0  0  0  0  0  0  0  0  0
   37.2240   21.7860   35.2200 C   0  0  0  0  0  0  0  0  0  0  0  0
   36.0960   21.0070   35.4780 C   0  0  0  0  0  0  0  0  0  0  0  0
   35.5600   20.6600   34.2290 C   0  0  0  0  0  0  0  0  0  0  0  0
   36.4360   21.2760   33.3210 C   0  0  0  0  0  0  0  0  0  0  0  0
   37.3910   21.9220   33.9350 O   0  0  0  0  0  0  0  0  0  0  0  0
   38.0490   22.3350   36.3190 C   0  0  0  0  0  0  0  0  0  0  0  0
   39.4100   22.2030   36.4300 C   0  0  0  0  0  0  0  0  0  0  0  0
   40.0090   22.7960   37.5510 C   0  0  0  0  0  0  0  0  0  0  0  0
   39.2760   23.4560   38.4590 N   0  0  0  0  0  0  0  0  0  0  0  0
   37.9390   23.5720   38.3280 C   0  0  0  0  0  0  0  0  0  0  0  0
   37.3500   23.0180   37.2730 N   0  0  0  0  0  0  0  0  0  0  0  0
   35.7310   22.5480   31.3130 C   0  0  0  0  0  0  0  0  0  0  0  0
   35.5300   20.1090   31.3750 C   0  0  0  0  0  0  0  0  0  0  0  0
   36.0590   18.8030   31.4050 N   0  0  0  0  0  0  0  0  0  0  0  0
   37.1120   18.2290   30.8270 C   0  0  0  0  0  0  0  0  0  0  0  0
   37.1930   16.9370   31.1760 N   0  0  0  0  0  0  0  0  0  0  0  0
   36.1410   16.7040   32.0060 C   0  0  0  0  0  0  0  0  0  0  0  0
   35.4910   17.8500   32.1130 N   0  0  0  0  0  0  0  0  0  0  0  0
   35.8660   15.4470   32.5950 N   0  0  0  0  0  0  0  0  0  0  0  0
   36.7550   14.5390   32.9860 C   0  0  0  0  0  0  0  0  0  0  0  0
   36.0890   13.4960   33.4880 N   0  0  0  0  0  0  0  0  0  0  0  0
   34.7430   13.7550   33.4090 C   0  0  0  0  0  0  0  0  0  0  0  0
   34.6330   14.9800   32.8480 N   0  0  0  0  0  0  0  0  0  0  0  0
   33.5820   12.9700   33.8070 C   0  0  0  0  0  0  0  0  0  0  0  0
   32.3640   13.6560   33.7940 C   0  0  0  0  0  0  0  0  0  0  0  0
   31.3790   12.7610   34.1960 C   0  0  0  0  0  0  0  0  0  0  0  0
   32.0320   11.5900   34.4330 N   0  0  0  0  0  0  0  0  0  0  0  0
   33.3450   11.7090   34.2030 N   0  0  0  0  0  0  0  0  0  0  0  0
   37.3489   21.0763   31.5063 H   0  0  0  0  0  0  0  0  0  0  0  0
   35.7043   20.7214   36.4654 H   0  0  0  0  0  0  0  0  0  0  0  0
   34.6689   20.0523   34.0132 H   0  0  0  0  0  0  0  0  0  0  0  0
   40.0013   21.6598   35.6782 H   0  0  0  0  0  0  0  0  0  0  0  0
   41.0977   22.7183   37.6874 H   0  0  0  0  0  0  0  0  0  0  0  0
   37.3471   24.1147   39.0798 H   0  0  0  0  0  0  0  0  0  0  0  0
   35.4405   23.2000   32.1500 H   0  0  0  0  0  0  0  0  0  0  0  0
   36.4876   23.0567   30.6975 H   0  0  0  0  0  0  0  0  0  0  0  0
   34.8469   22.3255   30.6975 H   0  0  0  0  0  0  0  0  0  0  0  0
   35.2898   20.3305   30.3246 H   0  0  0  0  0  0  0  0  0  0  0  0
   34.6914   20.0590   32.0851 H   0  0  0  0  0  0  0  0  0  0  0  0
   37.8169   18.7428   30.1569 H   0  0  0  0  0  0  0  0  0  0  0  0
   37.8485   14.6309   32.9094 H   0  0  0  0  0  0  0  0  0  0  0  0
   32.2128   14.7097   33.5168 H   0  0  0  0  0  0  0  0  0  0  0  0
   30.3017   12.9571   34.3004 H   0  0  0  0  0  0  0  0  0  0  0  0
   31.5739   10.7232   34.7490 H   0  0  0  0  0  0  0  0  0  0  0  0
  1  5  1  0
  2  3  2  0
  2  7  1  0
  4  3  1  0
  5  6  1  0
  5  4  2  0
  6  2  1  0
  7  8  2  0
  7 12  1  0
  8  9  1  0
  9 10  2  0
 11 10  1  0
 12 11  2  0
 13  1  1  0
 14 15  1  0
 14  1  1  0
 15 19  1  0
 16 17  2  0
 16 15  1  0
 17 18  1  0
 18 19  2  0
 18 20  1  0
 20 24  1  0
 20 21  1  0
 21 22  2  0
 23 22  1  0
 23 25  1  0
 24 23  2  0
 25 29  2  0
 26 25  1  0
 26 27  2  0
 27 28  1  0
 29 28  1  0
  1 30  1  6
  3 31  1  0
  4 32  1  0
  8 33  1  0
  9 34  1  0
 11 35  1  0
 13 36  1  0
 13 37  1  0
 13 38  1  0
 14 39  1  0
 14 40  1  0
 16 41  1  0
 21 42  1  0
 26 43  1  0
 27 44  1  0
 28 45  1  0
M  ISO  8  30   8  31  14  32  14  33  14  34  14  35  14  36   8  37   8
M  ISO  8  38   8  39   8  40   8  41  14  42  14  43  14  44  14  45   9
M  END
>  <minimizedAffinity>  (1) 
-5.85768461

>  <minimizedRMSD>  (1) 
0.454674482

$$$$
