
     RDKit          3D

 45 49  0  0  1  0  0  0  0  0999 V2000
   36.3490   21.2600   31.8460 C   0  0  2  0  0  0  0  0  0  0  0  0
   37.2310   21.7970   35.2160 C   0  0  0  0  0  0  0  0  0  0  0  0
   36.1090   21.0180   35.4530 C   0  0  0  0  0  0  0  0  0  0  0  0
   35.5800   20.6790   34.2000 C   0  0  0  0  0  0  0  0  0  0  0  0
   36.4590   21.3030   33.2980 C   0  0  0  0  0  0  0  0  0  0  0  0
   37.4070   21.9440   33.9240 O   0  0  0  0  0  0  0  0  0  0  0  0
   38.0490   22.3390   36.3230 C   0  0  0  0  0  0  0  0  0  0  0  0
   39.4200   22.1960   36.4280 C   0  0  0  0  0  0  0  0  0  0  0  0
   40.0010   22.7950   37.5640 C   0  0  0  0  0  0  0  0  0  0  0  0
   39.2650   23.4490   38.4630 N   0  0  0  0  0  0  0  0  0  0  0  0
   37.9240   23.5650   38.3260 C   0  0  0  0  0  0  0  0  0  0  0  0
   37.3550   23.0120   37.2650 N   0  0  0  0  0  0  0  0  0  0  0  0
   35.7350   22.5780   31.3030 C   0  0  0  0  0  0  0  0  0  0  0  0
   35.5730   20.1350   31.3430 C   0  0  0  0  0  0  0  0  0  0  0  0
   36.1240   18.8400   31.3720 N   0  0  0  0  0  0  0  0  0  0  0  0
   37.1900   18.2760   30.8120 C   0  0  0  0  0  0  0  0  0  0  0  0
   37.2820   16.9830   31.1560 N   0  0  0  0  0  0  0  0  0  0  0  0
   36.2300   16.7410   31.9600 C   0  0  0  0  0  0  0  0  0  0  0  0
   35.5550   17.8810   32.0680 N   0  0  0  0  0  0  0  0  0  0  0  0
   35.9360   15.4820   32.5560 N   0  0  0  0  0  0  0  0  0  0  0  0
   36.8550   14.5820   32.9530 C   0  0  0  0  0  0  0  0  0  0  0  0
   36.1870   13.5310   33.4800 N   0  0  0  0  0  0  0  0  0  0  0  0
   34.8480   13.7980   33.4010 C   0  0  0  0  0  0  0  0  0  0  0  0
   34.7120   15.0020   32.8300 N   0  0  0  0  0  0  0  0  0  0  0  0
   33.6800   13.0180   33.8180 C   0  0  0  0  0  0  0  0  0  0  0  0
   32.3970   13.5270   33.8490 C   0  0  0  0  0  0  0  0  0  0  0  0
   31.5260   12.5670   34.2770 N   0  0  0  0  0  0  0  0  0  0  0  0
   32.2970   11.4890   34.5010 C   0  0  0  0  0  0  0  0  0  0  0  0
   33.5790   11.7410   34.2330 N   0  0  0  0  0  0  0  0  0  0  0  0
   37.3791   21.1318   31.4819 H   0  0  0  0  0  0  0  0  0  0  0  0
   35.7107   20.7229   36.4350 H   0  0  0  0  0  0  0  0  0  0  0  0
   34.6910   20.0710   33.9764 H   0  0  0  0  0  0  0  0  0  0  0  0
   40.0150   21.6535   35.6786 H   0  0  0  0  0  0  0  0  0  0  0  0
   41.0884   22.7211   37.7125 H   0  0  0  0  0  0  0  0  0  0  0  0
   37.3233   24.1031   39.0741 H   0  0  0  0  0  0  0  0  0  0  0  0
   35.4367   23.2183   32.1463 H   0  0  0  0  0  0  0  0  0  0  0  0
   36.4807   23.1042   30.6889 H   0  0  0  0  0  0  0  0  0  0  0  0
   34.8524   22.3457   30.6889 H   0  0  0  0  0  0  0  0  0  0  0  0
   35.3338   20.3566   30.2924 H   0  0  0  0  0  0  0  0  0  0  0  0
   34.7294   20.0706   32.0460 H   0  0  0  0  0  0  0  0  0  0  0  0
   37.9005   18.7993   30.1552 H   0  0  0  0  0  0  0  0  0  0  0  0
   37.9468   14.6828   32.8650 H   0  0  0  0  0  0  0  0  0  0  0  0
   32.1180   14.5538   33.5702 H   0  0  0  0  0  0  0  0  0  0  0  0
   31.9183   10.5207   34.8602 H   0  0  0  0  0  0  0  0  0  0  0  0
   34.3578   11.0736   34.3273 H   0  0  0  0  0  0  0  0  0  0  0  0
  1  5  1  0
  2  3  2  0
  2  7  1  0
  4  3  1  0
  5  6  1  0
  5  4  2  0
  6  2  1  0
  7  8  2  0
  7 12  1  0
  8  9  1  0
  9 10  2  0
 11 10  1  0
 12 11  2  0
 13  1  1  0
 14 15  1  0
 14  1  1  0
 15 19  1  0
 16 17  2  0
 16 15  1  0
 17 18  1  0
 18 19  2  0
 18 20  1  0
 20 24  1  0
 20 21  1  0
 21 22  2  0
 23 22  1  0
 23 25  1  0
 24 23  2  0
 25 26  2  0
 25 29  1  0
 26 27  1  0
 27 28  2  0
 29 28  1  0
  1 30  1  6
  3 31  1  0
  4 32  1  0
  8 33  1  0
  9 34  1  0
 11 35  1  0
 13 36  1  0
 13 37  1  0
 13 38  1  0
 14 39  1  0
 14 40  1  0
 16 41  1  0
 21 42  1  0
 26 43  1  0
 28 44  1  0
 29 45  1  0
M  ISO  8  30   8  31  14  32  14  33  14  34  14  35  14  36   8  37   8
M  ISO  8  38   8  39   8  40   8  41  14  42  14  43  14  44  14  45   9
M  END
>  <minimizedAffinity>  (1) 
-5.77700233

>  <minimizedRMSD>  (1) 
0.49447304

$$$$
