
     RDKit          3D

 41 44  0  0  1  0  0  0  0  0999 V2000
   36.3260   21.1540   31.9160 C   0  0  2  0  0  0  0  0  0  0  0  0
   37.2250   21.7730   35.2560 C   0  0  0  0  0  0  0  0  0  0  0  0
   36.0850   21.0210   35.5270 C   0  0  0  0  0  0  0  0  0  0  0  0
   35.5470   20.6570   34.2840 C   0  0  0  0  0  0  0  0  0  0  0  0
   36.4370   21.2360   33.3650 C   0  0  0  0  0  0  0  0  0  0  0  0
   37.4080   21.8820   33.9630 O   0  0  0  0  0  0  0  0  0  0  0  0
   38.0560   22.3340   36.3430 C   0  0  0  0  0  0  0  0  0  0  0  0
   39.4180   22.2010   36.4510 C   0  0  0  0  0  0  0  0  0  0  0  0
   40.0210   22.8110   37.5620 C   0  0  0  0  0  0  0  0  0  0  0  0
   39.2910   23.4850   38.4620 N   0  0  0  0  0  0  0  0  0  0  0  0
   37.9550   23.6010   38.3350 C   0  0  0  0  0  0  0  0  0  0  0  0
   37.3650   23.0300   37.2880 N   0  0  0  0  0  0  0  0  0  0  0  0
   35.8780   22.5130   31.3150 C   0  0  0  0  0  0  0  0  0  0  0  0
   35.4300   20.1110   31.4440 C   0  0  0  0  0  0  0  0  0  0  0  0
   35.8700   18.7750   31.3820 N   0  0  0  0  0  0  0  0  0  0  0  0
   36.6780   18.1190   30.5430 C   0  0  0  0  0  0  0  0  0  0  0  0
   36.7830   16.8320   30.9200 N   0  0  0  0  0  0  0  0  0  0  0  0
   36.0160   16.6930   32.0250 C   0  0  0  0  0  0  0  0  0  0  0  0
   35.4870   17.8810   32.2660 N   0  0  0  0  0  0  0  0  0  0  0  0
   35.8560   15.4730   32.7320 N   0  0  0  0  0  0  0  0  0  0  0  0
   36.7720   14.5200   32.8840 C   0  0  0  0  0  0  0  0  0  0  0  0
   36.2190   13.5370   33.6160 N   0  0  0  0  0  0  0  0  0  0  0  0
   34.9340   13.8880   33.9240 C   0  0  0  0  0  0  0  0  0  0  0  0
   34.7300   15.0990   33.3600 N   0  0  0  0  0  0  0  0  0  0  0  0
   34.0500   13.0600   34.7000 C   0  0  0  0  0  0  0  0  0  0  0  0
   33.7090   11.9470   34.2260 O   0  0  0  0  0  0  0  0  0  0  0  0
   33.6210   13.5480   35.9430 O   0  0  0  0  0  0  0  0  0  0  0  0
   37.3369   20.8923   31.5701 H   0  0  0  0  0  0  0  0  0  0  0  0
   35.6856   20.7635   36.5191 H   0  0  0  0  0  0  0  0  0  0  0  0
   34.6452   20.0615   34.0785 H   0  0  0  0  0  0  0  0  0  0  0  0
   40.0061   21.6454   35.7058 H   0  0  0  0  0  0  0  0  0  0  0  0
   41.1101   22.7348   37.6964 H   0  0  0  0  0  0  0  0  0  0  0  0
   37.3652   24.1552   39.0800 H   0  0  0  0  0  0  0  0  0  0  0  0
   35.6464   23.2155   32.1292 H   0  0  0  0  0  0  0  0  0  0  0  0
   36.6880   22.9246   30.6949 H   0  0  0  0  0  0  0  0  0  0  0  0
   34.9820   22.3622   30.6949 H   0  0  0  0  0  0  0  0  0  0  0  0
   34.5514   20.1248   32.1058 H   0  0  0  0  0  0  0  0  0  0  0  0
   35.2741   20.3733   30.3872 H   0  0  0  0  0  0  0  0  0  0  0  0
   37.1822   18.5655   29.6733 H   0  0  0  0  0  0  0  0  0  0  0  0
   37.7963   14.5338   32.4833 H   0  0  0  0  0  0  0  0  0  0  0  0
   33.0122   13.0055   36.5044 H   0  0  0  0  0  0  0  0  0  0  0  0
  1  5  1  0
  2  3  2  0
  2  7  1  0
  4  3  1  0
  5  6  1  0
  5  4  2  0
  6  2  1  0
  7  8  2  0
  7 12  1  0
  8  9  1  0
  9 10  2  0
 11 10  1  0
 12 11  2  0
 13  1  1  0
 14  1  1  0
 15 14  1  0
 15 19  1  0
 16 17  2  0
 16 15  1  0
 17 18  1  0
 18 19  2  0
 18 20  1  0
 20 21  1  0
 20 24  1  0
 21 22  2  0
 22 23  1  0
 23 25  1  0
 24 23  2  0
 25 27  1  0
 26 25  2  0
  1 28  1  6
  3 29  1  0
  4 30  1  0
  8 31  1  0
  9 32  1  0
 11 33  1  0
 13 34  1  0
 13 35  1  0
 13 36  1  0
 14 37  1  0
 14 38  1  0
 16 39  1  0
 21 40  1  0
 27 41  1  0
M  ISO  8  28   8  29  14  30  14  31  14  32  14  33  14  34   8  35   8
M  ISO  6  36   8  37   8  38   8  39  14  40  14  41   3
M  END
>  <minimizedAffinity>  (1) 
-5.58117819

>  <minimizedRMSD>  (1) 
0.145734265

$$$$
