
     RDKit          3D

 21 22  0  0  0  0  0  0  0  0999 V2000
   40.4650   22.4200   37.7830 C   0  0  0  0  0  0  0  0  0  0  0  0
   39.3060   23.1320   37.4380 C   0  0  0  0  0  0  0  0  0  0  0  0
   39.0150   23.2890   36.0910 C   0  0  0  0  0  0  0  0  0  0  0  0
   39.8340   22.7620   35.1440 N   0  0  0  0  0  0  0  0  0  0  0  0
   40.9590   22.0700   35.5360 C   0  0  0  0  0  0  0  0  0  0  0  0
   41.2510   21.9130   36.8190 N   0  0  0  0  0  0  0  0  0  0  0  0
   38.3680   23.7250   38.4520 C   0  0  0  0  0  0  0  0  0  0  0  0
   39.0960   23.9290   39.5930 F   0  0  0  0  0  0  0  0  0  0  0  0
   37.3460   22.8660   38.7580 F   0  0  0  0  0  0  0  0  0  0  0  0
   37.9360   24.9900   38.0480 F   0  0  0  0  0  0  0  0  0  0  0  0
   41.9780   21.3810   34.2510 S   0  0  0  0  0  0  0  0  0  0  0  0
   44.5170   18.7180   35.6090 N   0  0  0  0  0  0  0  0  0  0  0  0
   43.3420   19.0320   35.0520 N   0  0  0  0  0  0  0  0  0  0  0  0
   43.2830   20.3740   34.9210 C   0  0  0  0  0  0  0  0  0  0  0  0
   44.4690   20.9040   35.4170 C   0  0  0  0  0  0  0  0  0  0  0  0
   45.2300   19.8530   35.8440 C   0  0  0  0  0  0  0  0  0  0  0  0
   40.7294   22.2773   38.8412 H   0  0  0  0  0  0  0  0  0  0  0  0
   38.1150   23.8440   35.7875 H   0  0  0  0  0  0  0  0  0  0  0  0
   44.8339   17.7625   35.8269 H   0  0  0  0  0  0  0  0  0  0  0  0
   44.7427   21.9686   35.4578 H   0  0  0  0  0  0  0  0  0  0  0  0
   46.2320   19.9130   36.2938 H   0  0  0  0  0  0  0  0  0  0  0  0
  2  1  2  0
  2  7  1  0
  3  2  1  0
  4  5  1  0
  4  3  2  0
  5  6  2  0
  6  1  1  0
  7  9  1  0
  7  8  1  0
 10  7  1  0
 11 14  1  0
 11  5  1  0
 12 16  1  0
 13 12  1  0
 14 13  2  0
 14 15  1  0
 15 16  2  0
  1 17  1  0
  3 18  1  0
 12 19  1  0
 15 20  1  0
 16 21  1  0
M  ISO  5  17  14  18  14  19   9  20  14  21  14
M  END
>  <minimizedAffinity>  (1) 
-3.91804743

>  <minimizedRMSD>  (1) 
0.779195726

$$$$
