
     RDKit          3D

 16 17  0  0  0  0  0  0  0  0999 V2000
   37.1640   22.8500   37.0720 C   0  0  0  0  0  0  0  0  0  0  0  0
   37.9300   22.2620   36.0560 C   0  0  0  0  0  0  0  0  0  0  0  0
   39.3160   22.2240   36.1930 C   0  0  0  0  0  0  0  0  0  0  0  0
   39.8630   22.7670   37.3210 N   0  0  0  0  0  0  0  0  0  0  0  0
   39.1040   23.3260   38.2830 C   0  0  0  0  0  0  0  0  0  0  0  0
   37.7670   23.3630   38.1510 N   0  0  0  0  0  0  0  0  0  0  0  0
   37.2200   21.7390   34.9430 N   0  0  0  0  0  0  0  0  0  0  0  0
   37.4380   21.8080   33.5980 C   0  0  0  0  0  0  0  0  0  0  0  0
   36.4560   21.1350   32.9540 N   0  0  0  0  0  0  0  0  0  0  0  0
   35.6220   20.6450   33.9160 C   0  0  0  0  0  0  0  0  0  0  0  0
   36.1140   21.0300   35.1240 N   0  0  0  0  0  0  0  0  0  0  0  0
   36.0684   22.8897   36.9825 H   0  0  0  0  0  0  0  0  0  0  0  0
   39.9502   21.7708   35.4169 H   0  0  0  0  0  0  0  0  0  0  0  0
   39.5793   23.7531   39.1784 H   0  0  0  0  0  0  0  0  0  0  0  0
   38.2780   22.3278   33.1140 H   0  0  0  0  0  0  0  0  0  0  0  0
   34.7151   20.0464   33.7454 H   0  0  0  0  0  0  0  0  0  0  0  0
  1  6  2  0
  2  3  2  0
  2  1  1  0
  3  4  1  0
  4  5  2  0
  6  5  1  0
  7 11  1  0
  7  2  1  0
  8  7  1  0
  9  8  2  0
  9 10  1  0
 10 11  2  0
  1 12  1  0
  3 13  1  0
  5 14  1  0
  8 15  1  0
 10 16  1  0
M  ISO  5  12  14  13  14  14  14  15  14  16  14
M  END
>  <minimizedAffinity>  (1) 
-3.30831242

>  <minimizedRMSD>  (1) 
5.76426077

$$$$
