
     RDKit          3D

 23 24  0  0  0  0  0  0  0  0999 V2000
   37.7250   22.3040   35.0150 N   0  0  0  0  0  0  0  0  0  0  0  0
   37.9750   22.6940   33.7420 C   0  0  0  0  0  0  0  0  0  0  0  0
   37.1800   22.0100   32.8970 N   0  0  0  0  0  0  0  0  0  0  0  0
   36.4110   21.1730   33.6680 C   0  0  0  0  0  0  0  0  0  0  0  0
   36.7680   21.3760   34.9590 N   0  0  0  0  0  0  0  0  0  0  0  0
   35.4100   20.2400   33.2670 N   0  0  0  0  0  0  0  0  0  0  0  0
   35.5830   19.3430   32.1700 C   0  0  0  0  0  0  0  0  0  0  0  0
   36.7260   19.4470   31.5640 N   0  0  0  0  0  0  0  0  0  0  0  0
   34.5090   18.4580   31.8750 N   0  0  0  0  0  0  0  0  0  0  0  0
   37.0010   18.8640   30.7480 H   0  0  0  0  0  0  0  0  0  0  0  0
   37.4010   23.3370   37.1640 C   0  0  0  0  0  0  0  0  0  0  0  0
   38.2590   22.6830   36.2820 C   0  0  0  0  0  0  0  0  0  0  0  0
   39.5850   22.4280   36.6590 C   0  0  0  0  0  0  0  0  0  0  0  0
   39.9700   22.8450   37.9060 N   0  0  0  0  0  0  0  0  0  0  0  0
   39.1110   23.4800   38.7420 C   0  0  0  0  0  0  0  0  0  0  0  0
   37.8330   23.7220   38.3680 N   0  0  0  0  0  0  0  0  0  0  0  0
   38.7137   23.4527   33.4442 H   0  0  0  0  0  0  0  0  0  0  0  0
   34.5239   20.2121   33.7914 H   0  0  0  0  0  0  0  0  0  0  0  0
   34.5895   17.7933   31.0923 H   0  0  0  0  0  0  0  0  0  0  0  0
   33.6508   18.4819   32.4441 H   0  0  0  0  0  0  0  0  0  0  0  0
   36.3611   23.5376   36.8668 H   0  0  0  0  0  0  0  0  0  0  0  0
   40.2856   21.9156   35.9833 H   0  0  0  0  0  0  0  0  0  0  0  0
   39.4571   23.8019   39.7353 H   0  0  0  0  0  0  0  0  0  0  0  0
  1 12  1  0
  2  1  1  0
  3  4  1  0
  3  2  2  0
  4  5  2  0
  5  1  1  0
  6  4  1  0
  7  6  1  0
  8  7  2  0
  9  7  1  0
 10  8  1  0
 11 16  2  0
 12 13  2  0
 12 11  1  0
 13 14  1  0
 14 15  2  0
 16 15  1  0
  2 17  1  0
  6 18  1  0
  9 19  1  0
  9 20  1  0
 11 21  1  0
 13 22  1  0
 15 23  1  0
M  ISO  4  17  14  21  14  22  14  23  14
M  END
>  <minimizedAffinity>  (1) 
-4.61541653

>  <minimizedRMSD>  (1) 
1.03738618

$$$$
