
     RDKit          3D

 29 31  0  0  0  0  0  0  0  0999 V2000
   37.4350   21.9420   33.8490 N   0  0  0  0  0  0  0  0  0  0  0  0
   37.9270   21.9820   35.1250 C   0  0  0  0  0  0  0  0  0  0  0  0
   38.2460   23.2700   35.4130 N   0  0  0  0  0  0  0  0  0  0  0  0
   37.9450   24.0140   34.3080 C   0  0  0  0  0  0  0  0  0  0  0  0
   37.4530   23.1700   33.3740 N   0  0  0  0  0  0  0  0  0  0  0  0
   35.6690   20.3820   33.3690 C   0  0  0  0  0  0  0  0  0  0  0  0
   36.9590   20.8620   33.0590 C   0  0  0  0  0  0  0  0  0  0  0  0
   37.6550   20.2570   32.0250 C   0  0  0  0  0  0  0  0  0  0  0  0
   37.0670   19.2270   31.3530 N   0  0  0  0  0  0  0  0  0  0  0  0
   35.8360   18.7870   31.6670 C   0  0  0  0  0  0  0  0  0  0  0  0
   35.1630   19.3660   32.6630 N   0  0  0  0  0  0  0  0  0  0  0  0
   38.1550   25.4840   34.2320 C   0  0  0  0  0  0  0  0  0  0  0  0
   37.8640   26.1350   35.5900 C   0  0  0  0  0  0  0  0  0  0  0  0
   38.7790   27.3460   35.6450 C   0  0  0  0  0  0  0  0  0  0  0  0
   40.0390   26.7720   35.0400 C   0  0  0  0  0  0  0  0  0  0  0  0
   39.5720   25.8370   33.9350 C   0  0  0  0  0  0  0  0  0  0  0  0
   38.0437   21.1211   35.7997 H   0  0  0  0  0  0  0  0  0  0  0  0
   35.0862   20.8387   34.1825 H   0  0  0  0  0  0  0  0  0  0  0  0
   38.6632   20.6014   31.7514 H   0  0  0  0  0  0  0  0  0  0  0  0
   35.3863   17.9545   31.1060 H   0  0  0  0  0  0  0  0  0  0  0  0
   37.4847   25.8380   33.4349 H   0  0  0  0  0  0  0  0  0  0  0  0
   36.8099   26.4428   35.6540 H   0  0  0  0  0  0  0  0  0  0  0  0
   38.0399   25.4439   36.4275 H   0  0  0  0  0  0  0  0  0  0  0  0
   38.3847   28.1796   35.0454 H   0  0  0  0  0  0  0  0  0  0  0  0
   38.9090   27.7751   36.6495 H   0  0  0  0  0  0  0  0  0  0  0  0
   40.6658   27.5748   34.6245 H   0  0  0  0  0  0  0  0  0  0  0  0
   40.6473   26.2448   35.7897 H   0  0  0  0  0  0  0  0  0  0  0  0
   40.1925   24.9288   33.9214 H   0  0  0  0  0  0  0  0  0  0  0  0
   39.6579   26.3197   32.9503 H   0  0  0  0  0  0  0  0  0  0  0  0
  1  2  1  0
  2  3  2  0
  4  3  1  0
  5  1  1  0
  5  4  2  0
  7  6  2  0
  7  1  1  0
  8  7  1  0
  9 10  1  0
  9  8  2  0
 10 11  2  0
 11  6  1  0
 12  4  1  0
 12 13  1  0
 13 14  1  0
 15 14  1  0
 16 12  1  0
 16 15  1  0
  2 17  1  0
  6 18  1  0
  8 19  1  0
 10 20  1  0
 12 21  1  0
 13 22  1  0
 13 23  1  0
 14 24  1  0
 14 25  1  0
 15 26  1  0
 15 27  1  0
 16 28  1  0
 16 29  1  0
M  ISO  8  17  14  18  14  19  14  20  14  21  13  22  13  23  13  24  13
M  ISO  5  25  13  26  13  27  13  28  13  29  13
M  END
>  <minimizedAffinity>  (1) 
-4.0848918

>  <minimizedRMSD>  (1) 
6.61481428

$$$$
