
     RDKit          3D

 29 31  0  0  0  0  0  0  0  0999 V2000
   37.9980   23.2000   34.2950 N   0  0  0  0  0  0  0  0  0  0  0  0
   38.2440   23.8300   33.0990 C   0  0  0  0  0  0  0  0  0  0  0  0
   38.1260   22.9230   32.0920 N   0  0  0  0  0  0  0  0  0  0  0  0
   37.8110   21.7440   32.6790 C   0  0  0  0  0  0  0  0  0  0  0  0
   37.7360   21.9270   34.0150 N   0  0  0  0  0  0  0  0  0  0  0  0
   37.5940   20.5190   32.0080 N   0  0  0  0  0  0  0  0  0  0  0  0
   38.6930   19.6070   31.7610 C   0  0  0  0  0  0  0  0  0  0  0  0
   38.6460   19.3270   30.2530 C   0  0  0  0  0  0  0  0  0  0  0  0
   37.4650   18.6550   30.0400 O   0  0  0  0  0  0  0  0  0  0  0  0
   36.3200   19.3840   30.2460 C   0  0  0  0  0  0  0  0  0  0  0  0
   36.2820   20.1430   31.5510 C   0  0  0  0  0  0  0  0  0  0  0  0
   37.6770   22.7300   36.6230 C   0  0  0  0  0  0  0  0  0  0  0  0
   37.9890   23.6780   35.6310 C   0  0  0  0  0  0  0  0  0  0  0  0
   38.2620   24.9830   36.0050 C   0  0  0  0  0  0  0  0  0  0  0  0
   38.2140   25.2880   37.3370 N   0  0  0  0  0  0  0  0  0  0  0  0
   37.9150   24.3750   38.2710 C   0  0  0  0  0  0  0  0  0  0  0  0
   37.6490   23.0990   37.9080 N   0  0  0  0  0  0  0  0  0  0  0  0
   38.4953   24.8938   32.9759 H   0  0  0  0  0  0  0  0  0  0  0  0
   39.6507   20.0717   32.0382 H   0  0  0  0  0  0  0  0  0  0  0  0
   38.6063   18.6853   32.3551 H   0  0  0  0  0  0  0  0  0  0  0  0
   38.6593   20.2698   29.6865 H   0  0  0  0  0  0  0  0  0  0  0  0
   39.5148   18.7403   29.9199 H   0  0  0  0  0  0  0  0  0  0  0  0
   36.2231   20.1093   29.4247 H   0  0  0  0  0  0  0  0  0  0  0  0
   35.4929   18.6598   30.2833 H   0  0  0  0  0  0  0  0  0  0  0  0
   35.6823   21.0545   31.4117 H   0  0  0  0  0  0  0  0  0  0  0  0
   35.8405   19.4807   32.3103 H   0  0  0  0  0  0  0  0  0  0  0  0
   37.4570   21.6894   36.3425 H   0  0  0  0  0  0  0  0  0  0  0  0
   38.5093   25.7490   35.2553 H   0  0  0  0  0  0  0  0  0  0  0  0
   37.8858   24.6627   39.3323 H   0  0  0  0  0  0  0  0  0  0  0  0
  1 13  1  0
  2  1  1  0
  3  4  1  0
  3  2  2  0
  4  5  2  0
  5  1  1  0
  6  4  1  0
  7  6  1  0
  8  7  1  0
  9 10  1  0
  9  8  1  0
 10 11  1  0
 11  6  1  0
 12 17  2  0
 13 14  2  0
 13 12  1  0
 14 15  1  0
 15 16  2  0
 17 16  1  0
  2 18  1  0
  7 19  1  0
  7 20  1  0
  8 21  1  0
  8 22  1  0
 10 23  1  0
 10 24  1  0
 11 25  1  0
 11 26  1  0
 12 27  1  0
 14 28  1  0
 16 29  1  0
M  ISO  8  18  14  19  13  20  13  21  13  22  13  23  13  24  13  25  13
M  ISO  4  26  13  27  14  28  14  29  14
M  END
>  <minimizedAffinity>  (1) 
-3.70444632

>  <minimizedRMSD>  (1) 
3.2503159

$$$$
