
     RDKit          3D

 17 18  0  0  0  0  0  0  0  0999 V2000
   37.3250   23.0730   37.0050 C   0  0  0  0  0  0  0  0  0  0  0  0
   38.1890   22.5170   36.0650 C   0  0  0  0  0  0  0  0  0  0  0  0
   39.5200   22.3540   36.4020 C   0  0  0  0  0  0  0  0  0  0  0  0
   39.9490   22.7390   37.6340 N   0  0  0  0  0  0  0  0  0  0  0  0
   39.0830   23.2770   38.5270 C   0  0  0  0  0  0  0  0  0  0  0  0
   37.7800   23.4390   38.2020 N   0  0  0  0  0  0  0  0  0  0  0  0
   37.6330   22.1510   34.8080 N   0  0  0  0  0  0  0  0  0  0  0  0
   37.9190   22.5080   33.5300 C   0  0  0  0  0  0  0  0  0  0  0  0
   37.0820   21.8640   32.6880 N   0  0  0  0  0  0  0  0  0  0  0  0
   36.2610   21.0890   33.4630 C   0  0  0  0  0  0  0  0  0  0  0  0
   36.6220   21.2860   34.7630 N   0  0  0  0  0  0  0  0  0  0  0  0
   35.2160   20.2190   33.1570 O   0  0  0  0  0  0  0  0  0  0  0  0
   36.2620   23.2105   36.7578 H   0  0  0  0  0  0  0  0  0  0  0  0
   40.2257   21.9169   35.6802 H   0  0  0  0  0  0  0  0  0  0  0  0
   39.4415   23.5834   39.5208 H   0  0  0  0  0  0  0  0  0  0  0  0
   38.7087   23.2115   33.2275 H   0  0  0  0  0  0  0  0  0  0  0  0
   34.7389   19.7438   33.8827 H   0  0  0  0  0  0  0  0  0  0  0  0
  1  6  2  0
  2  3  2  0
  2  1  1  0
  3  4  1  0
  4  5  2  0
  6  5  1  0
  7  2  1  0
  8  7  1  0
  9 10  1  0
  9  8  2  0
 10 11  2  0
 11  7  1  0
 12 10  1  0
  1 13  1  0
  3 14  1  0
  5 15  1  0
  8 16  1  0
 12 17  1  0
M  ISO  5  13  14  14  14  15  14  16  14  17   3
M  END
>  <minimizedAffinity>  (1) 
-3.47925758

>  <minimizedRMSD>  (1) 
0.64703089

$$$$
