
     RDKit          3D

 21 22  0  0  0  0  0  0  0  0999 V2000
   40.4680   22.3840   37.7230 C   0  0  0  0  0  0  0  0  0  0  0  0
   39.3010   23.1300   37.4410 C   0  0  0  0  0  0  0  0  0  0  0  0
   38.9870   23.3600   36.1160 C   0  0  0  0  0  0  0  0  0  0  0  0
   39.7940   22.8710   35.1320 N   0  0  0  0  0  0  0  0  0  0  0  0
   40.9160   22.1520   35.4610 C   0  0  0  0  0  0  0  0  0  0  0  0
   41.2250   21.9280   36.7270 N   0  0  0  0  0  0  0  0  0  0  0  0
   38.4130   23.6680   38.5030 C   0  0  0  0  0  0  0  0  0  0  0  0
   39.1970   23.8660   39.6310 F   0  0  0  0  0  0  0  0  0  0  0  0
   37.3920   22.8490   38.8250 F   0  0  0  0  0  0  0  0  0  0  0  0
   37.9830   24.9740   38.1750 F   0  0  0  0  0  0  0  0  0  0  0  0
   41.8990   21.5600   34.0790 S   0  0  0  0  0  0  0  0  0  0  0  0
   43.3360   22.6290   33.8470 C   0  0  0  0  0  0  0  0  0  0  0  0
   44.5580   22.3450   33.2700 C   0  0  0  0  0  0  0  0  0  0  0  0
   45.2890   23.5240   33.3530 C   0  0  0  0  0  0  0  0  0  0  0  0
   44.5270   24.4620   33.9550 N   0  0  0  0  0  0  0  0  0  0  0  0
   43.3450   23.9100   34.2490 N   0  0  0  0  0  0  0  0  0  0  0  0
   40.7511   22.1800   38.7662 H   0  0  0  0  0  0  0  0  0  0  0  0
   38.0874   23.9367   35.8550 H   0  0  0  0  0  0  0  0  0  0  0  0
   44.8839   21.3880   32.8364 H   0  0  0  0  0  0  0  0  0  0  0  0
   46.3169   23.6688   32.9890 H   0  0  0  0  0  0  0  0  0  0  0  0
   44.8072   25.4331   34.1532 H   0  0  0  0  0  0  0  0  0  0  0  0
  2  1  2  0
  2  7  1  0
  3  2  1  0
  4  5  1  0
  4  3  2  0
  5  6  2  0
  6  1  1  0
  7  9  1  0
  7  8  1  0
 10  7  1  0
 11  5  1  0
 12 11  1  0
 12 16  2  0
 13 14  2  0
 13 12  1  0
 14 15  1  0
 15 16  1  0
  1 17  1  0
  3 18  1  0
 13 19  1  0
 14 20  1  0
 15 21  1  0
M  ISO  5  17  14  18  14  19  14  20  14  21   9
M  END
>  <minimizedAffinity>  (1) 
-3.78992772

>  <minimizedRMSD>  (1) 
0.665282726

$$$$
