
     RDKit          3D

 30 32  0  0  0  0  0  0  0  0999 V2000
   38.0590   23.0720   34.8250 N   0  0  0  0  0  0  0  0  0  0  0  0
   37.9620   23.9690   33.8140 C   0  0  0  0  0  0  0  0  0  0  0  0
   37.5900   23.3160   32.6860 N   0  0  0  0  0  0  0  0  0  0  0  0
   37.4580   21.9870   33.0250 C   0  0  0  0  0  0  0  0  0  0  0  0
   37.7550   21.8810   34.3450 N   0  0  0  0  0  0  0  0  0  0  0  0
   37.5550   23.9460   37.0070 C   0  0  0  0  0  0  0  0  0  0  0  0
   38.4070   23.2160   36.1990 C   0  0  0  0  0  0  0  0  0  0  0  0
   39.5480   22.6700   36.7750 C   0  0  0  0  0  0  0  0  0  0  0  0
   39.7820   22.8720   38.1010 N   0  0  0  0  0  0  0  0  0  0  0  0
   38.9140   23.5980   38.8560 C   0  0  0  0  0  0  0  0  0  0  0  0
   37.7990   24.1310   38.2940 N   0  0  0  0  0  0  0  0  0  0  0  0
   37.1060   20.8650   32.2960 O   0  0  0  0  0  0  0  0  0  0  0  0
   36.0420   20.8080   31.4000 C   0  0  0  0  0  0  0  0  0  0  0  0
   36.2570   19.5920   30.5140 C   0  0  0  0  0  0  0  0  0  0  0  0
   36.1470   18.4640   31.5180 C   0  0  0  0  0  0  0  0  0  0  0  0
   35.2600   18.9980   32.6440 C   0  0  0  0  0  0  0  0  0  0  0  0
   34.7640   20.3510   32.1180 C   0  0  0  0  0  0  0  0  0  0  0  0
   38.1536   25.0491   33.8953 H   0  0  0  0  0  0  0  0  0  0  0  0
   36.6479   24.3858   36.5669 H   0  0  0  0  0  0  0  0  0  0  0  0
   40.2525   22.0826   36.1678 H   0  0  0  0  0  0  0  0  0  0  0  0
   39.1163   23.7538   39.9260 H   0  0  0  0  0  0  0  0  0  0  0  0
   35.9738   21.7900   30.9091 H   0  0  0  0  0  0  0  0  0  0  0  0
   35.4802   19.5172   29.7388 H   0  0  0  0  0  0  0  0  0  0  0  0
   37.2051   19.6053   29.9563 H   0  0  0  0  0  0  0  0  0  0  0  0
   35.6861   17.5801   31.0530 H   0  0  0  0  0  0  0  0  0  0  0  0
   37.1344   18.1543   31.8909 H   0  0  0  0  0  0  0  0  0  0  0  0
   34.4156   18.3185   32.8319 H   0  0  0  0  0  0  0  0  0  0  0  0
   35.7977   19.0873   33.5995 H   0  0  0  0  0  0  0  0  0  0  0  0
   34.4820   21.0331   32.9336 H   0  0  0  0  0  0  0  0  0  0  0  0
   33.8573   20.3150   31.4962 H   0  0  0  0  0  0  0  0  0  0  0  0
  1  7  1  0
  2  1  1  0
  3  4  1  0
  3  2  2  0
  4  5  2  0
  5  1  1  0
  6 11  2  0
  7  8  2  0
  7  6  1  0
  8  9  1  0
  9 10  2  0
 11 10  1  0
 12  4  1  0
 13 17  1  0
 13 12  1  0
 14 13  1  0
 14 15  1  0
 15 16  1  0
 17 16  1  0
  2 18  1  0
  6 19  1  0
  8 20  1  0
 10 21  1  0
 13 22  1  0
 14 23  1  0
 14 24  1  0
 15 25  1  0
 15 26  1  0
 16 27  1  0
 16 28  1  0
 17 29  1  0
 17 30  1  0
M  ISO  8  18  14  19  14  20  14  21  14  22  13  23  13  24  13  25  13
M  ISO  5  26  13  27  13  28  13  29  13  30  13
M  END
>  <minimizedAffinity>  (1) 
-4.69702721

>  <minimizedRMSD>  (1) 
1.43314826

$$$$
