
     RDKit          3D

 24 26  0  0  0  0  0  0  0  0999 V2000
   38.6100   22.1190   34.6850 N   0  0  0  0  0  0  0  0  0  0  0  0
   39.5140   21.8960   33.6910 C   0  0  0  0  0  0  0  0  0  0  0  0
   38.8620   21.5290   32.5740 N   0  0  0  0  0  0  0  0  0  0  0  0
   37.5370   21.5230   32.8780 C   0  0  0  0  0  0  0  0  0  0  0  0
   37.3990   21.8910   34.1900 N   0  0  0  0  0  0  0  0  0  0  0  0
   37.6120   23.0220   36.6690 C   0  0  0  0  0  0  0  0  0  0  0  0
   38.7610   22.5190   36.0420 C   0  0  0  0  0  0  0  0  0  0  0  0
   39.9250   22.4510   36.7630 C   0  0  0  0  0  0  0  0  0  0  0  0
   39.9540   22.8630   38.0540 N   0  0  0  0  0  0  0  0  0  0  0  0
   38.8320   23.3470   38.6410 C   0  0  0  0  0  0  0  0  0  0  0  0
   37.6700   23.4210   37.9400 N   0  0  0  0  0  0  0  0  0  0  0  0
   36.3720   21.2310   32.1460 O   0  0  0  0  0  0  0  0  0  0  0  0
   35.9600   19.9000   32.1850 C   0  0  0  0  0  0  0  0  0  0  0  0
   35.4280   18.9510   33.0340 C   0  0  0  0  0  0  0  0  0  0  0  0
   35.2790   17.7660   32.3100 C   0  0  0  0  0  0  0  0  0  0  0  0
   35.7190   18.0290   31.0650 N   0  0  0  0  0  0  0  0  0  0  0  0
   36.1210   19.2810   30.9790 N   0  0  0  0  0  0  0  0  0  0  0  0
   40.6049   21.9997   33.7869 H   0  0  0  0  0  0  0  0  0  0  0  0
   36.6648   23.0873   36.1135 H   0  0  0  0  0  0  0  0  0  0  0  0
   40.8391   22.0605   36.2919 H   0  0  0  0  0  0  0  0  0  0  0  0
   38.8622   23.6811   39.6886 H   0  0  0  0  0  0  0  0  0  0  0  0
   35.1677   19.1011   34.0922 H   0  0  0  0  0  0  0  0  0  0  0  0
   34.8820   16.8100   32.6821 H   0  0  0  0  0  0  0  0  0  0  0  0
   35.7386   17.3495   30.2912 H   0  0  0  0  0  0  0  0  0  0  0  0
  1  7  1  0
  2  1  1  0
  3  4  1  0
  3  2  2  0
  4  5  2  0
  5  1  1  0
  6 11  2  0
  7  6  1  0
  7  8  2  0
  8  9  1  0
  9 10  2  0
 11 10  1  0
 12 13  1  0
 12  4  1  0
 13 14  1  0
 15 14  2  0
 16 15  1  0
 17 16  1  0
 17 13  2  0
  2 18  1  0
  6 19  1  0
  8 20  1  0
 10 21  1  0
 14 22  1  0
 15 23  1  0
 16 24  1  0
M  ISO  7  18  14  19  14  20  14  21  14  22  14  23  14  24   9
M  END
>  <minimizedAffinity>  (1) 
-4.43882084

>  <minimizedRMSD>  (1) 
1.71855557

$$$$
