
     RDKit          3D

 25 27  0  0  0  0  0  0  0  0999 V2000
   37.7830   22.4230   34.7740 N   0  0  0  0  0  0  0  0  0  0  0  0
   38.0930   22.9480   33.5650 C   0  0  0  0  0  0  0  0  0  0  0  0
   37.3310   22.3550   32.6170 N   0  0  0  0  0  0  0  0  0  0  0  0
   36.5330   21.4410   33.2710 C   0  0  0  0  0  0  0  0  0  0  0  0
   36.8340   21.5050   34.6000 N   0  0  0  0  0  0  0  0  0  0  0  0
   37.3610   23.1980   37.0120 C   0  0  0  0  0  0  0  0  0  0  0  0
   38.2750   22.6820   36.0810 C   0  0  0  0  0  0  0  0  0  0  0  0
   39.5670   22.4660   36.4920 C   0  0  0  0  0  0  0  0  0  0  0  0
   39.9460   22.7440   37.7640 N   0  0  0  0  0  0  0  0  0  0  0  0
   39.0430   23.2410   38.6410 C   0  0  0  0  0  0  0  0  0  0  0  0
   37.7750   23.4590   38.2560 N   0  0  0  0  0  0  0  0  0  0  0  0
   35.5690   20.5590   32.8110 O   0  0  0  0  0  0  0  0  0  0  0  0
   35.9990   19.6470   31.8280 C   0  0  0  0  0  0  0  0  0  0  0  0
   36.2110   18.3200   32.2160 C   0  0  0  0  0  0  0  0  0  0  0  0
   36.6330   17.3300   31.3470 C   0  0  0  0  0  0  0  0  0  0  0  0
   36.8350   17.7200   30.0640 N   0  0  0  0  0  0  0  0  0  0  0  0
   36.6310   19.0010   29.6890 C   0  0  0  0  0  0  0  0  0  0  0  0
   36.2200   19.9750   30.5240 N   0  0  0  0  0  0  0  0  0  0  0  0
   38.8438   23.7310   33.3827 H   0  0  0  0  0  0  0  0  0  0  0  0
   36.3166   23.3855   36.7219 H   0  0  0  0  0  0  0  0  0  0  0  0
   40.3033   22.0627   35.7812 H   0  0  0  0  0  0  0  0  0  0  0  0
   39.3488   23.4673   39.6731 H   0  0  0  0  0  0  0  0  0  0  0  0
   36.0328   18.0495   33.2672 H   0  0  0  0  0  0  0  0  0  0  0  0
   36.7944   16.2927   31.6756 H   0  0  0  0  0  0  0  0  0  0  0  0
   36.8116   19.2656   28.6367 H   0  0  0  0  0  0  0  0  0  0  0  0
  1  7  1  0
  2  1  1  0
  3  4  1  0
  3  2  2  0
  4  5  2  0
  5  1  1  0
  6 11  2  0
  7  8  2  0
  7  6  1  0
  8  9  1  0
  9 10  2  0
 11 10  1  0
 12  4  1  0
 13 14  2  0
 13 12  1  0
 15 14  1  0
 16 15  2  0
 17 16  1  0
 17 18  2  0
 18 13  1  0
  2 19  1  0
  6 20  1  0
  8 21  1  0
 10 22  1  0
 14 23  1  0
 15 24  1  0
 17 25  1  0
M  ISO  7  19  14  20  14  21  14  22  14  23  14  24  14  25  14
M  END
>  <minimizedAffinity>  (1) 
-4.31991959

>  <minimizedRMSD>  (1) 
1.43158352

$$$$
