
     RDKit          3D

 22 24  0  0  0  0  0  0  0  0999 V2000
   37.8360   22.5570   34.8510 N   0  0  0  0  0  0  0  0  0  0  0  0
   38.0510   23.1870   33.6540 C   0  0  0  0  0  0  0  0  0  0  0  0
   37.3370   22.5700   32.6950 N   0  0  0  0  0  0  0  0  0  0  0  0
   36.6700   21.5450   33.3100 C   0  0  0  0  0  0  0  0  0  0  0  0
   36.9930   21.5540   34.6440 N   0  0  0  0  0  0  0  0  0  0  0  0
   37.4550   23.4030   37.0660 C   0  0  0  0  0  0  0  0  0  0  0  0
   38.3400   22.8030   36.1580 C   0  0  0  0  0  0  0  0  0  0  0  0
   39.6150   22.4960   36.5820 C   0  0  0  0  0  0  0  0  0  0  0  0
   39.9760   22.7830   37.8600 N   0  0  0  0  0  0  0  0  0  0  0  0
   39.1070   23.3590   38.7110 C   0  0  0  0  0  0  0  0  0  0  0  0
   37.8420   23.6670   38.3030 N   0  0  0  0  0  0  0  0  0  0  0  0
   35.7820   20.5620   32.8410 O   0  0  0  0  0  0  0  0  0  0  0  0
   36.1090   19.9280   31.6520 C   0  0  0  0  0  0  0  0  0  0  0  0
   36.2670   18.5790   31.7930 N   0  0  0  0  0  0  0  0  0  0  0  0
   36.5720   18.0670   30.6300 O   0  0  0  0  0  0  0  0  0  0  0  0
   36.6260   18.9960   29.7240 C   0  0  0  0  0  0  0  0  0  0  0  0
   36.3410   20.1560   30.3460 N   0  0  0  0  0  0  0  0  0  0  0  0
   38.7038   24.0590   33.5010 H   0  0  0  0  0  0  0  0  0  0  0  0
   36.4329   23.6555   36.7474 H   0  0  0  0  0  0  0  0  0  0  0  0
   40.3318   22.0242   35.8938 H   0  0  0  0  0  0  0  0  0  0  0  0
   39.4185   23.5829   39.7419 H   0  0  0  0  0  0  0  0  0  0  0  0
   36.8589   18.8616   28.6574 H   0  0  0  0  0  0  0  0  0  0  0  0
  1  7  1  0
  2  1  1  0
  3  4  1  0
  3  2  2  0
  4  5  2  0
  5  1  1  0
  6 11  2  0
  7  8  2  0
  7  6  1  0
  8  9  1  0
  9 10  2  0
 11 10  1  0
 12  4  1  0
 13 14  2  0
 13 12  1  0
 15 14  1  0
 16 17  2  0
 16 15  1  0
 17 13  1  0
  2 18  1  0
  6 19  1  0
  8 20  1  0
 10 21  1  0
 16 22  1  0
M  ISO  5  18  14  19  14  20  14  21  14  22  14
M  END
>  <minimizedAffinity>  (1) 
-4.07976866

>  <minimizedRMSD>  (1) 
1.17021704

$$$$
