
     RDKit          3D

 26 27  0  0  0  0  0  0  0  0999 V2000
   38.5010   22.0430   34.7410 N   0  0  0  0  0  0  0  0  0  0  0  0
   39.3600   21.9380   33.6890 C   0  0  0  0  0  0  0  0  0  0  0  0
   38.6840   21.4430   32.6260 N   0  0  0  0  0  0  0  0  0  0  0  0
   37.3820   21.2410   33.0390 C   0  0  0  0  0  0  0  0  0  0  0  0
   37.2900   21.6190   34.3560 N   0  0  0  0  0  0  0  0  0  0  0  0
   37.5750   23.0160   36.7290 C   0  0  0  0  0  0  0  0  0  0  0  0
   38.6740   22.4920   36.0760 C   0  0  0  0  0  0  0  0  0  0  0  0
   39.8610   22.4420   36.7700 C   0  0  0  0  0  0  0  0  0  0  0  0
   39.9440   22.8930   38.0470 N   0  0  0  0  0  0  0  0  0  0  0  0
   38.8290   23.4020   38.6480 C   0  0  0  0  0  0  0  0  0  0  0  0
   37.6450   23.4580   37.9730 N   0  0  0  0  0  0  0  0  0  0  0  0
   36.2630   20.7580   32.3860 O   0  0  0  0  0  0  0  0  0  0  0  0
   36.3530   19.3880   31.9690 C   0  0  0  0  0  0  0  0  0  0  0  0
   35.2200   18.5750   32.5520 C   0  0  0  0  0  0  0  0  0  0  0  0
   36.3100   19.3530   30.4540 C   0  0  0  0  0  0  0  0  0  0  0  0
   40.4257   22.2102   33.7013 H   0  0  0  0  0  0  0  0  0  0  0  0
   36.6130   23.0670   36.1980 H   0  0  0  0  0  0  0  0  0  0  0  0
   40.7566   22.0300   36.2820 H   0  0  0  0  0  0  0  0  0  0  0  0
   38.8857   23.7694   39.6833 H   0  0  0  0  0  0  0  0  0  0  0  0
   37.2938   18.9473   32.3305 H   0  0  0  0  0  0  0  0  0  0  0  0
   35.2702   18.6110   33.6503 H   0  0  0  0  0  0  0  0  0  0  0  0
   34.2590   18.9909   32.2150 H   0  0  0  0  0  0  0  0  0  0  0  0
   35.3063   17.5314   32.2150 H   0  0  0  0  0  0  0  0  0  0  0  0
   35.4958   18.6903   30.1255 H   0  0  0  0  0  0  0  0  0  0  0  0
   36.1345   20.3682   30.0686 H   0  0  0  0  0  0  0  0  0  0  0  0
   37.2685   18.9751   30.0686 H   0  0  0  0  0  0  0  0  0  0  0  0
  1  7  1  0
  2  1  1  0
  3  4  1  0
  3  2  2  0
  4  5  2  0
  5  1  1  0
  6 11  2  0
  7  6  1  0
  7  8  2  0
  8  9  1  0
  9 10  2  0
 11 10  1  0
 12  4  1  0
 13 12  1  0
 13 14  1  0
 15 13  1  0
  2 16  1  0
  6 17  1  0
  8 18  1  0
 10 19  1  0
 13 20  1  0
 14 21  1  0
 14 22  1  0
 14 23  1  0
 15 24  1  0
 15 25  1  0
 15 26  1  0
M  ISO  8  16  14  17  14  18  14  19  14  20   8  21   8  22   8  23   8
M  ISO  3  24   8  25   8  26   8
M  END
>  <minimizedAffinity>  (1) 
-3.99784613

>  <minimizedRMSD>  (1) 
1.28919113

$$$$
