
     RDKit          3D

 21 22  0  0  0  0  0  0  0  0999 V2000
   37.6730   22.0000   34.7930 N   0  0  0  0  0  0  0  0  0  0  0  0
   37.4020   22.4340   36.0390 C   0  0  0  0  0  0  0  0  0  0  0  0
   38.5710   22.7480   36.6600 N   0  0  0  0  0  0  0  0  0  0  0  0
   39.5800   22.5000   35.7690 C   0  0  0  0  0  0  0  0  0  0  0  0
   39.0030   22.0410   34.6280 N   0  0  0  0  0  0  0  0  0  0  0  0
   37.1930   21.9470   32.4440 C   0  0  0  0  0  0  0  0  0  0  0  0
   36.8660   21.5490   33.7260 C   0  0  0  0  0  0  0  0  0  0  0  0
   35.7620   20.7290   33.8770 C   0  0  0  0  0  0  0  0  0  0  0  0
   35.0350   20.3370   32.8040 N   0  0  0  0  0  0  0  0  0  0  0  0
   35.4020   20.7600   31.5580 C   0  0  0  0  0  0  0  0  0  0  0  0
   36.4710   21.5560   31.3960 N   0  0  0  0  0  0  0  0  0  0  0  0
   40.9530   22.6350   35.8550 O   0  0  0  0  0  0  0  0  0  0  0  0
   41.7280   21.8850   36.7570 C   0  0  0  0  0  0  0  0  0  0  0  0
   40.9180   21.4360   37.8540 N   0  0  0  0  0  0  0  0  0  0  0  0
   42.9280   21.4830   36.8990 O   0  0  0  0  0  0  0  0  0  0  0  0
   36.3990   22.5204   36.4822 H   0  0  0  0  0  0  0  0  0  0  0  0
   38.0653   22.5984   32.2864 H   0  0  0  0  0  0  0  0  0  0  0  0
   35.4708   20.3909   34.8824 H   0  0  0  0  0  0  0  0  0  0  0  0
   34.8173   20.4461   30.6808 H   0  0  0  0  0  0  0  0  0  0  0  0
   41.3371   20.8707   38.6061 H   0  0  0  0  0  0  0  0  0  0  0  0
   39.9177   21.6792   37.8890 H   0  0  0  0  0  0  0  0  0  0  0  0
  1  2  1  0
  2  3  2  0
  4 12  1  0
  4  3  1  0
  5  1  1  0
  5  4  2  0
  6  7  2  0
  7  8  1  0
  7  1  1  0
  9  8  2  0
 10  9  1  0
 11 10  2  0
 11  6  1  0
 12 13  1  0
 13 15  2  0
 13 14  1  0
  2 16  1  0
  6 17  1  0
  8 18  1  0
 10 19  1  0
 14 20  1  0
 14 21  1  0
M  ISO  4  16  14  17  14  18  14  19  14
M  END
>  <minimizedAffinity>  (1) 
-3.82574892

>  <minimizedRMSD>  (1) 
6.320261

$$$$
