
     RDKit          3D

 40 44  0  0  1  0  0  0  0  0999 V2000
   35.6070   19.8640   32.8520 C   0  0  1  0  0  0  0  0  0  0  0  0
   34.4820   19.4050   31.9700 C   0  0  0  0  0  0  0  0  0  0  0  0
   35.7210   18.6450   32.0800 C   0  0  2  0  0  0  0  0  0  0  0  0
   35.9820   17.2740   32.3190 C   0  0  0  0  0  0  0  0  0  0  0  0
   35.0050   16.3080   32.6420 C   0  0  0  0  0  0  0  0  0  0  0  0
   35.1750   14.9610   32.8380 C   0  0  0  0  0  0  0  0  0  0  0  0
   36.4430   14.4510   32.7130 C   0  0  0  0  0  0  0  0  0  0  0  0
   37.4850   15.2910   32.4030 C   0  0  0  0  0  0  0  0  0  0  0  0
   38.7350   14.7340   32.3050 C   0  0  0  0  0  0  0  0  0  0  0  0
   39.8160   15.5380   32.0140 C   0  0  0  0  0  0  0  0  0  0  0  0
   39.6100   16.8990   31.8240 C   0  0  0  0  0  0  0  0  0  0  0  0
   38.3380   17.3630   31.9400 C   0  0  0  0  0  0  0  0  0  0  0  0
   37.2040   16.6290   32.2260 C   0  0  0  0  0  0  0  0  0  0  0  0
   36.2690   21.0670   32.3490 O   0  0  0  0  0  0  0  0  0  0  0  0
   38.5300   22.1270   34.8000 N   0  0  0  0  0  0  0  0  0  0  0  0
   39.3720   21.9280   33.7770 C   0  0  0  0  0  0  0  0  0  0  0  0
   38.6670   21.5040   32.6970 N   0  0  0  0  0  0  0  0  0  0  0  0
   37.3380   21.4470   33.0970 C   0  0  0  0  0  0  0  0  0  0  0  0
   37.2850   21.8330   34.3850 N   0  0  0  0  0  0  0  0  0  0  0  0
   37.6040   23.0690   36.8030 C   0  0  0  0  0  0  0  0  0  0  0  0
   38.6990   22.5560   36.1600 C   0  0  0  0  0  0  0  0  0  0  0  0
   39.9280   22.4580   36.8290 C   0  0  0  0  0  0  0  0  0  0  0  0
   39.9860   22.8830   38.1160 N   0  0  0  0  0  0  0  0  0  0  0  0
   38.9060   23.3830   38.7340 C   0  0  0  0  0  0  0  0  0  0  0  0
   37.7150   23.4740   38.0680 N   0  0  0  0  0  0  0  0  0  0  0  0
   35.7650   20.1000   33.9147 H   0  0  0  0  0  0  0  0  0  0  0  0
   34.2466   19.9497   31.0438 H   0  0  0  0  0  0  0  0  0  0  0  0
   33.4123   19.1892   32.1083 H   0  0  0  0  0  0  0  0  0  0  0  0
   36.5006   18.2310   31.4237 H   0  0  0  0  0  0  0  0  0  0  0  0
   33.9766   16.6829   32.7503 H   0  0  0  0  0  0  0  0  0  0  0  0
   34.3232   14.3111   33.0871 H   0  0  0  0  0  0  0  0  0  0  0  0
   36.6239   13.3760   32.8602 H   0  0  0  0  0  0  0  0  0  0  0  0
   38.8735   13.6535   32.4576 H   0  0  0  0  0  0  0  0  0  0  0  0
   40.8257   15.1091   31.9334 H   0  0  0  0  0  0  0  0  0  0  0  0
   40.4450   17.5753   31.5886 H   0  0  0  0  0  0  0  0  0  0  0  0
   38.1960   18.4433   31.7893 H   0  0  0  0  0  0  0  0  0  0  0  0
   40.4606   22.0833   33.8073 H   0  0  0  0  0  0  0  0  0  0  0  0
   36.6398   23.1462   36.2792 H   0  0  0  0  0  0  0  0  0  0  0  0
   40.8168   22.0494   36.3259 H   0  0  0  0  0  0  0  0  0  0  0  0
   38.9782   23.7205   39.7784 H   0  0  0  0  0  0  0  0  0  0  0  0
  2  3  1  0
  2  1  1  0
  3  4  1  0
  3  1  1  0
  4  5  2  0
  5  6  1  0
  7  6  2  0
  8  7  1  0
  9  8  2  0
 10  9  1  0
 11 12  1  0
 11 10  2  0
 12 13  2  0
 13  4  1  0
 13  8  1  0
 14  1  1  0
 14 18  1  0
 15 21  1  0
 16 15  1  0
 17 18  1  0
 17 16  2  0
 18 19  2  0
 19 15  1  0
 20 25  2  0
 21 20  1  0
 21 22  2  0
 22 23  1  0
 23 24  2  0
 25 24  1  0
  1 26  1  1
  2 27  1  0
  2 28  1  0
  3 29  1  6
  5 30  1  0
  6 31  1  0
  7 32  1  0
  9 33  1  0
 10 34  1  0
 11 35  1  0
 12 36  1  0
 16 37  1  0
 20 38  1  0
 22 39  1  0
 24 40  1  0
M  ISO  8  26  13  27  13  28  13  29  13  30  14  31  14  32  14  33  14
M  ISO  7  34  14  35  14  36  14  37  14  38  14  39  14  40  14
M  END
>  <minimizedAffinity>  (1) 
-5.33267069

>  <minimizedRMSD>  (1) 
1.66744339

$$$$
