
     RDKit          3D

 26 26  0  0  0  0  0  0  0  0999 V2000
   40.4480   22.3640   37.7390 C   0  0  0  0  0  0  0  0  0  0  0  0
   39.3070   23.1430   37.4340 C   0  0  0  0  0  0  0  0  0  0  0  0
   39.0150   23.3780   36.1040 C   0  0  0  0  0  0  0  0  0  0  0  0
   39.8320   22.8540   35.1340 N   0  0  0  0  0  0  0  0  0  0  0  0
   40.9170   22.1120   35.4780 C   0  0  0  0  0  0  0  0  0  0  0  0
   41.2060   21.8800   36.7640 N   0  0  0  0  0  0  0  0  0  0  0  0
   38.4030   23.7120   38.4900 C   0  0  0  0  0  0  0  0  0  0  0  0
   39.1690   23.8850   39.6280 F   0  0  0  0  0  0  0  0  0  0  0  0
   37.3900   22.8520   38.8140 F   0  0  0  0  0  0  0  0  0  0  0  0
   37.9690   24.9880   38.1280 F   0  0  0  0  0  0  0  0  0  0  0  0
   41.8950   21.4790   34.1180 S   0  0  0  0  0  0  0  0  0  0  0  0
   43.5960   22.0560   34.1430 C   0  0  0  0  0  0  0  0  0  0  0  0
   44.4500   21.2570   35.1090 C   0  0  0  0  0  0  0  0  0  0  0  0
   44.2550   21.9480   32.7700 C   0  0  0  0  0  0  0  0  0  0  0  0
   43.6010   23.5150   34.5040 C   0  0  0  0  0  0  0  0  0  0  0  0
   40.7074   22.1590   38.7882 H   0  0  0  0  0  0  0  0  0  0  0  0
   38.1367   23.9789   35.8257 H   0  0  0  0  0  0  0  0  0  0  0  0
   44.1741   21.5151   36.1421 H   0  0  0  0  0  0  0  0  0  0  0  0
   44.2840   20.1824   34.9427 H   0  0  0  0  0  0  0  0  0  0  0  0
   45.5112   21.4941   34.9427 H   0  0  0  0  0  0  0  0  0  0  0  0
   45.3336   21.7712   32.8939 H   0  0  0  0  0  0  0  0  0  0  0  0
   43.8078   21.1112   32.2135 H   0  0  0  0  0  0  0  0  0  0  0  0
   44.0983   22.8838   32.2135 H   0  0  0  0  0  0  0  0  0  0  0  0
   43.6014   23.6218   35.5988 H   0  0  0  0  0  0  0  0  0  0  0  0
   44.5008   23.9924   34.0887 H   0  0  0  0  0  0  0  0  0  0  0  0
   42.7045   23.9986   34.0887 H   0  0  0  0  0  0  0  0  0  0  0  0
  2  1  2  0
  2  7  1  0
  3  2  1  0
  4  5  1  0
  4  3  2  0
  5  6  2  0
  6  1  1  0
  7  9  1  0
  7  8  1  0
 10  7  1  0
 11 12  1  0
 11  5  1  0
 12 15  1  0
 12 13  1  0
 14 12  1  0
  1 16  1  0
  3 17  1  0
 13 18  1  0
 13 19  1  0
 13 20  1  0
 14 21  1  0
 14 22  1  0
 14 23  1  0
 15 24  1  0
 15 25  1  0
 15 26  1  0
M  ISO  8  16  14  17  14  18   8  19   8  20   8  21   8  22   8  23   8
M  ISO  3  24   8  25   8  26   8
M  END
>  <minimizedAffinity>  (1) 
-3.74554205

>  <minimizedRMSD>  (1) 
0.917350113

$$$$
