
     RDKit          3D

 34 37  0  0  1  0  0  0  0  0999 V2000
   36.7580   21.3280   32.2930 O   0  0  0  0  0  0  0  0  0  0  0  0
   35.7180   20.5600   32.9240 C   0  0  1  0  0  0  0  0  0  0  0  0
   34.5400   20.2760   32.0450 C   0  0  0  0  0  0  0  0  0  0  0  0
   35.5030   19.1740   32.4080 C   0  0  1  0  0  0  0  0  0  0  0  0
   36.2380   18.6620   31.2760 N   0  0  0  0  0  0  0  0  0  0  0  0
   36.2780   19.3670   30.1080 C   0  0  0  0  0  0  0  0  0  0  0  0
   36.9550   18.9400   28.9950 C   0  0  0  0  0  0  0  0  0  0  0  0
   37.6440   17.7490   29.0110 C   0  0  0  0  0  0  0  0  0  0  0  0
   38.2640   17.3440   28.0110 O   0  0  0  0  0  0  0  0  0  0  0  0
   37.5950   17.0650   30.1740 N   0  0  0  0  0  0  0  0  0  0  0  0
   36.9170   17.5170   31.2480 C   0  0  0  0  0  0  0  0  0  0  0  0
   36.9300   16.8090   32.2860 O   0  0  0  0  0  0  0  0  0  0  0  0
   38.0500   23.3330   34.8620 N   0  0  0  0  0  0  0  0  0  0  0  0
   38.1170   24.1870   33.8330 C   0  0  0  0  0  0  0  0  0  0  0  0
   37.6510   23.5990   32.7130 N   0  0  0  0  0  0  0  0  0  0  0  0
   37.2830   22.3180   33.0820 C   0  0  0  0  0  0  0  0  0  0  0  0
   37.5340   22.1760   34.4000 N   0  0  0  0  0  0  0  0  0  0  0  0
   37.5790   24.1070   37.0830 C   0  0  0  0  0  0  0  0  0  0  0  0
   38.4040   23.4000   36.2530 C   0  0  0  0  0  0  0  0  0  0  0  0
   39.5320   22.7700   36.7580 C   0  0  0  0  0  0  0  0  0  0  0  0
   39.8160   22.8560   38.0880 N   0  0  0  0  0  0  0  0  0  0  0  0
   38.9710   23.5700   38.8870 C   0  0  0  0  0  0  0  0  0  0  0  0
   37.8690   24.1840   38.3820 N   0  0  0  0  0  0  0  0  0  0  0  0
   35.8700   20.9865   33.9265 H   0  0  0  0  0  0  0  0  0  0  0  0
   34.5124   20.6672   31.0173 H   0  0  0  0  0  0  0  0  0  0  0  0
   33.4526   20.4200   32.1276 H   0  0  0  0  0  0  0  0  0  0  0  0
   35.4923   18.1987   32.9165 H   0  0  0  0  0  0  0  0  0  0  0  0
   35.7404   20.3253   30.0572 H   0  0  0  0  0  0  0  0  0  0  0  0
   36.9474   19.5540   28.0824 H   0  0  0  0  0  0  0  0  0  0  0  0
   38.0932   16.1662   30.2431 H   0  0  0  0  0  0  0  0  0  0  0  0
   38.4967   25.2176   33.8928 H   0  0  0  0  0  0  0  0  0  0  0  0
   36.6848   24.6073   36.6829 H   0  0  0  0  0  0  0  0  0  0  0  0
   40.1946   22.2032   36.0874 H   0  0  0  0  0  0  0  0  0  0  0  0
   39.1865   23.6502   39.9627 H   0  0  0  0  0  0  0  0  0  0  0  0
  1  2  1  0
  1 16  1  0
  3  4  1  0
  3  2  1  0
  4  2  1  0
  5  4  1  0
  6  5  1  0
  7  8  1  0
  7  6  2  0
  8 10  1  0
  9  8  2  0
 10 11  1  0
 11  5  1  0
 11 12  2  0
 13 19  1  0
 14 13  1  0
 15 16  1  0
 15 14  2  0
 16 17  2  0
 17 13  1  0
 18 23  2  0
 19 20  2  0
 19 18  1  0
 20 21  1  0
 21 22  2  0
 23 22  1  0
  2 24  1  1
  3 25  1  0
  3 26  1  0
  4 27  1  1
  6 28  1  0
  7 29  1  0
 10 30  1  0
 14 31  1  0
 18 32  1  0
 20 33  1  0
 22 34  1  0
M  ISO  8  24  13  25  13  26  13  27  13  28  14  29  14  30   9  31  14
M  ISO  3  32  14  33  14  34  14
M  END
>  <minimizedAffinity>  (1) 
-4.95446157

>  <minimizedRMSD>  (1) 
1.58974969

$$$$
