
     RDKit          3D

 27 29  0  0  1  0  0  0  0  0999 V2000
   39.5330   22.3160   35.0650 N   0  0  0  0  0  0  0  0  0  0  0  0
   40.7460   22.0360   34.5720 C   0  0  0  0  0  0  0  0  0  0  0  0
   40.6310   21.4500   33.3630 N   0  0  0  0  0  0  0  0  0  0  0  0
   39.2720   21.3700   33.1090 C   0  0  0  0  0  0  0  0  0  0  0  0
   38.6220   21.9060   34.1600 N   0  0  0  0  0  0  0  0  0  0  0  0
   37.9300   23.6940   36.2010 C   0  0  0  0  0  0  0  0  0  0  0  0
   39.0540   22.9150   36.2760 C   0  0  0  0  0  0  0  0  0  0  0  0
   39.6830   22.7280   37.4920 C   0  0  0  0  0  0  0  0  0  0  0  0
   39.1650   23.3290   38.5980 N   0  0  0  0  0  0  0  0  0  0  0  0
   38.0650   24.0900   38.5170 C   0  0  0  0  0  0  0  0  0  0  0  0
   37.4540   24.2650   37.3040 N   0  0  0  0  0  0  0  0  0  0  0  0
   38.6470   20.8470   32.0110 O   0  0  0  0  0  0  0  0  0  0  0  0
   37.2120   20.8590   32.0780 C   0  0  1  0  0  0  0  0  0  0  0  0
   36.5280   20.3970   30.8280 C   0  0  0  0  0  0  0  0  0  0  0  0
   36.5340   19.5200   32.0470 C   0  0  2  0  0  0  0  0  0  0  0  0
   35.2550   19.3490   32.7950 C   0  0  0  0  0  0  0  0  0  0  0  0
   34.1510   19.7420   32.0300 F   0  0  0  0  0  0  0  0  0  0  0  0
   35.0340   18.0380   33.1540 F   0  0  0  0  0  0  0  0  0  0  0  0
   35.3000   20.0950   33.9650 F   0  0  0  0  0  0  0  0  0  0  0  0
   41.6977   22.2525   35.0793 H   0  0  0  0  0  0  0  0  0  0  0  0
   37.4247   23.8463   35.2359 H   0  0  0  0  0  0  0  0  0  0  0  0
   40.5863   22.1045   37.5649 H   0  0  0  0  0  0  0  0  0  0  0  0
   37.6559   24.5705   39.4180 H   0  0  0  0  0  0  0  0  0  0  0  0
   37.1460   21.7391   32.7346 H   0  0  0  0  0  0  0  0  0  0  0  0
   37.1237   20.1174   29.9465 H   0  0  0  0  0  0  0  0  0  0  0  0
   35.7483   20.8092   30.1706 H   0  0  0  0  0  0  0  0  0  0  0  0
   36.8448   18.4879   32.2666 H   0  0  0  0  0  0  0  0  0  0  0  0
  1  7  1  0
  2  1  1  0
  3  2  2  0
  4  3  1  0
  4  5  2  0
  5  1  1  0
  6  7  2  0
  6 11  1  0
  7  8  1  0
  8  9  2  0
 10  9  1  0
 11 10  2  0
 12 13  1  0
 12  4  1  0
 14 15  1  0
 14 13  1  0
 15 13  1  0
 15 16  1  0
 16 18  1  0
 16 19  1  0
 17 16  1  0
  2 20  1  0
  6 21  1  0
  8 22  1  0
 10 23  1  0
 13 24  1  1
 14 25  1  0
 14 26  1  0
 15 27  1  6
M  ISO  8  20  14  21  14  22  14  23  14  24  13  25  13  26  13  27  13
M  END
>  <minimizedAffinity>  (1) 
-4.78113937

>  <minimizedRMSD>  (1) 
1.6736871

$$$$
