
     RDKit          3D

 32 35  0  0  1  0  0  0  0  0999 V2000
   38.5880   22.1350   34.8340 N   0  0  0  0  0  0  0  0  0  0  0  0
   39.4620   21.8770   33.8370 C   0  0  0  0  0  0  0  0  0  0  0  0
   38.7840   21.4860   32.7370 N   0  0  0  0  0  0  0  0  0  0  0  0
   37.4480   21.5060   33.0780 C   0  0  0  0  0  0  0  0  0  0  0  0
   37.3570   21.9080   34.3630 N   0  0  0  0  0  0  0  0  0  0  0  0
   37.6190   23.0770   36.8040 C   0  0  0  0  0  0  0  0  0  0  0  0
   38.7340   22.5670   36.1940 C   0  0  0  0  0  0  0  0  0  0  0  0
   39.9360   22.4810   36.8850 C   0  0  0  0  0  0  0  0  0  0  0  0
   39.9700   22.9160   38.1720 N   0  0  0  0  0  0  0  0  0  0  0  0
   38.8760   23.4140   38.7640 C   0  0  0  0  0  0  0  0  0  0  0  0
   37.7030   23.4900   38.0690 N   0  0  0  0  0  0  0  0  0  0  0  0
   36.3740   21.1840   32.2950 O   0  0  0  0  0  0  0  0  0  0  0  0
   35.3990   20.3450   32.9390 C   0  0  1  0  0  0  0  0  0  0  0  0
   34.2860   19.8970   32.0410 C   0  0  0  0  0  0  0  0  0  0  0  0
   35.3390   18.9180   32.4820 C   0  0  1  0  0  0  0  0  0  0  0  0
   36.3210   18.5620   31.4270 C   0  0  0  0  0  0  0  0  0  0  0  0
   37.4000   17.7560   31.7790 C   0  0  0  0  0  0  0  0  0  0  0  0
   38.3090   17.4280   30.7950 C   0  0  0  0  0  0  0  0  0  0  0  0
   38.1290   17.8940   29.5260 N   0  0  0  0  0  0  0  0  0  0  0  0
   37.0820   18.6720   29.1930 C   0  0  0  0  0  0  0  0  0  0  0  0
   36.1860   18.9960   30.1620 N   0  0  0  0  0  0  0  0  0  0  0  0
   40.5556   21.9708   33.9100 H   0  0  0  0  0  0  0  0  0  0  0  0
   36.6667   23.1450   36.2576 H   0  0  0  0  0  0  0  0  0  0  0  0
   40.8362   22.0717   36.4033 H   0  0  0  0  0  0  0  0  0  0  0  0
   38.9226   23.7606   39.8069 H   0  0  0  0  0  0  0  0  0  0  0  0
   35.4754   20.8308   33.9230 H   0  0  0  0  0  0  0  0  0  0  0  0
   34.2530   20.2354   30.9949 H   0  0  0  0  0  0  0  0  0  0  0  0
   33.1875   19.9315   32.0865 H   0  0  0  0  0  0  0  0  0  0  0  0
   35.3381   17.9393   32.9841 H   0  0  0  0  0  0  0  0  0  0  0  0
   37.5238   17.3921   32.8097 H   0  0  0  0  0  0  0  0  0  0  0  0
   39.1754   16.7933   31.0327 H   0  0  0  0  0  0  0  0  0  0  0  0
   36.9550   19.0361   28.1628 H   0  0  0  0  0  0  0  0  0  0  0  0
  1  7  1  0
  2  1  1  0
  3  4  1  0
  3  2  2  0
  4  5  2  0
  5  1  1  0
  6 11  2  0
  7  6  1  0
  7  8  2  0
  8  9  1  0
  9 10  2  0
 11 10  1  0
 12 13  1  0
 12  4  1  0
 14 15  1  0
 14 13  1  0
 15 13  1  0
 16 17  2  0
 16 15  1  0
 18 17  1  0
 19 18  2  0
 20 19  1  0
 20 21  2  0
 21 16  1  0
  2 22  1  0
  6 23  1  0
  8 24  1  0
 10 25  1  0
 13 26  1  1
 14 27  1  0
 14 28  1  0
 15 29  1  1
 17 30  1  0
 18 31  1  0
 20 32  1  0
M  ISO  8  22  14  23  14  24  14  25  14  26  13  27  13  28  13  29  13
M  ISO  3  30  14  31  14  32  14
M  END
>  <minimizedAffinity>  (1) 
-4.69271278

>  <minimizedRMSD>  (1) 
0.617508233

$$$$
