
     RDKit          3D

 39 42  0  0  1  0  0  0  0  0999 V2000
   38.5420   22.1400   34.8280 N   0  0  0  0  0  0  0  0  0  0  0  0
   39.4150   21.8410   33.8390 C   0  0  0  0  0  0  0  0  0  0  0  0
   38.7100   21.4790   32.7300 N   0  0  0  0  0  0  0  0  0  0  0  0
   37.3850   21.5640   33.0690 C   0  0  0  0  0  0  0  0  0  0  0  0
   37.3170   21.9700   34.3500 N   0  0  0  0  0  0  0  0  0  0  0  0
   37.6040   23.0780   36.8140 C   0  0  0  0  0  0  0  0  0  0  0  0
   38.7070   22.5650   36.1860 C   0  0  0  0  0  0  0  0  0  0  0  0
   39.9340   22.4670   36.8590 C   0  0  0  0  0  0  0  0  0  0  0  0
   39.9780   22.9030   38.1550 N   0  0  0  0  0  0  0  0  0  0  0  0
   38.8900   23.4030   38.7580 C   0  0  0  0  0  0  0  0  0  0  0  0
   37.7230   23.4840   38.0850 N   0  0  0  0  0  0  0  0  0  0  0  0
   36.3120   21.2870   32.2780 O   0  0  0  0  0  0  0  0  0  0  0  0
   35.4040   20.3130   32.8160 C   0  0  1  0  0  0  0  0  0  0  0  0
   34.2440   20.0100   31.9150 C   0  0  0  0  0  0  0  0  0  0  0  0
   35.3200   18.9990   32.1060 C   0  0  1  0  0  0  0  0  0  0  0  0
   36.3540   18.6940   31.2260 N   0  0  0  0  0  0  0  0  0  0  0  0
   37.0130   17.4820   31.4940 C   0  0  0  0  0  0  0  0  0  0  0  0
   36.8060   16.5030   30.3410 C   0  0  0  0  0  0  0  0  0  0  0  0
   37.3350   17.1310   29.0950 C   0  0  0  0  0  0  0  0  0  0  0  0
   36.6880   18.4580   28.7810 C   0  0  0  0  0  0  0  0  0  0  0  0
   36.4630   19.3080   29.9780 C   0  0  0  0  0  0  0  0  0  0  0  0
   40.5114   21.8830   33.9168 H   0  0  0  0  0  0  0  0  0  0  0  0
   36.6417   23.1551   36.2868 H   0  0  0  0  0  0  0  0  0  0  0  0
   40.8260   22.0556   36.3639 H   0  0  0  0  0  0  0  0  0  0  0  0
   38.9485   23.7472   39.8011 H   0  0  0  0  0  0  0  0  0  0  0  0
   35.5471   20.6045   33.8670 H   0  0  0  0  0  0  0  0  0  0  0  0
   34.1448   20.5321   30.9519 H   0  0  0  0  0  0  0  0  0  0  0  0
   33.1499   20.0119   32.0290 H   0  0  0  0  0  0  0  0  0  0  0  0
   35.2587   17.9250   32.3355 H   0  0  0  0  0  0  0  0  0  0  0  0
   38.0889   17.6734   31.6194 H   0  0  0  0  0  0  0  0  0  0  0  0
   36.5995   17.0447   32.4147 H   0  0  0  0  0  0  0  0  0  0  0  0
   37.3474   15.5675   30.5452 H   0  0  0  0  0  0  0  0  0  0  0  0
   35.7366   16.2726   30.2257 H   0  0  0  0  0  0  0  0  0  0  0  0
   38.4171   17.2885   29.2143 H   0  0  0  0  0  0  0  0  0  0  0  0
   37.1078   16.4496   28.2619 H   0  0  0  0  0  0  0  0  0  0  0  0
   37.3385   19.0055   28.0830 H   0  0  0  0  0  0  0  0  0  0  0  0
   35.6998   18.2409   28.3493 H   0  0  0  0  0  0  0  0  0  0  0  0
   37.3050   20.0133   30.0369 H   0  0  0  0  0  0  0  0  0  0  0  0
   35.4689   19.7479   29.8096 H   0  0  0  0  0  0  0  0  0  0  0  0
  1  7  1  0
  2  1  1  0
  3  4  1  0
  3  2  2  0
  4  5  2  0
  5  1  1  0
  6 11  2  0
  7  6  1  0
  7  8  2  0
  8  9  1  0
  9 10  2  0
 11 10  1  0
 12 13  1  0
 12  4  1  0
 14 15  1  0
 14 13  1  0
 15 13  1  0
 16 17  1  0
 16 15  1  0
 18 17  1  0
 19 18  1  0
 20 19  1  0
 20 21  1  0
 21 16  1  0
  2 22  1  0
  6 23  1  0
  8 24  1  0
 10 25  1  0
 13 26  1  1
 14 27  1  0
 14 28  1  0
 15 29  1  1
 17 30  1  0
 17 31  1  0
 18 32  1  0
 18 33  1  0
 19 34  1  0
 19 35  1  0
 20 36  1  0
 20 37  1  0
 21 38  1  0
 21 39  1  0
M  ISO  8  22  14  23  14  24  14  25  14  26  13  27  13  28  13  29  13
M  ISO  8  30  13  31  13  32  13  33  13  34  13  35  13  36  13  37  13
M  ISO  2  38  13  39  13
M  END
>  <minimizedAffinity>  (1) 
-4.68928623

>  <minimizedRMSD>  (1) 
1.04222679

$$$$
