
     RDKit          3D

 17 17  0  0  0  0  0  0  0  0999 V2000
   40.4880   22.5090   37.6420 C   0  0  0  0  0  0  0  0  0  0  0  0
   39.2250   23.1120   37.4180 C   0  0  0  0  0  0  0  0  0  0  0  0
   38.7620   23.1770   36.1210 C   0  0  0  0  0  0  0  0  0  0  0  0
   39.5340   22.6630   35.1230 N   0  0  0  0  0  0  0  0  0  0  0  0
   40.7390   22.0930   35.3800 C   0  0  0  0  0  0  0  0  0  0  0  0
   41.1900   22.0280   36.6230 N   0  0  0  0  0  0  0  0  0  0  0  0
   38.4030   23.6670   38.5270 C   0  0  0  0  0  0  0  0  0  0  0  0
   39.2390   23.8420   39.6250 F   0  0  0  0  0  0  0  0  0  0  0  0
   37.3860   22.8500   38.8840 F   0  0  0  0  0  0  0  0  0  0  0  0
   37.9830   24.9840   38.2190 F   0  0  0  0  0  0  0  0  0  0  0  0
   41.6460   21.4640   33.9680 S   0  0  0  0  0  0  0  0  0  0  0  0
   40.5130   21.0040   32.6530 C   0  0  0  0  0  0  0  0  0  0  0  0
   40.8882   22.4393   38.6643 H   0  0  0  0  0  0  0  0  0  0  0  0
   37.7876   23.6352   35.8962 H   0  0  0  0  0  0  0  0  0  0  0  0
   39.5780   20.6244   33.0907 H   0  0  0  0  0  0  0  0  0  0  0  0
   40.2956   21.8851   32.0314 H   0  0  0  0  0  0  0  0  0  0  0  0
   40.9714   20.2207   32.0314 H   0  0  0  0  0  0  0  0  0  0  0  0
  2  1  2  0
  2  7  1  0
  3  2  1  0
  4  5  1  0
  4  3  2  0
  5  6  2  0
  6  1  1  0
  7  9  1  0
  7  8  1  0
 10  7  1  0
 11  5  1  0
 12 11  1  0
  1 13  1  0
  3 14  1  0
 12 15  1  0
 12 16  1  0
 12 17  1  0
M  ISO  5  13  14  14  14  15   8  16   8  17   8
M  END
>  <minimizedAffinity>  (1) 
-3.72059655

>  <minimizedRMSD>  (1) 
0.252467513

$$$$
