
     RDKit          3D

 27 29  0  0  1  0  0  0  0  0999 V2000
   38.6600   22.0680   34.7680 N   0  0  0  0  0  0  0  0  0  0  0  0
   39.5660   21.8710   33.7850 C   0  0  0  0  0  0  0  0  0  0  0  0
   38.9510   21.4180   32.6720 N   0  0  0  0  0  0  0  0  0  0  0  0
   37.6070   21.3360   32.9980 C   0  0  0  0  0  0  0  0  0  0  0  0
   37.4600   21.7380   34.2780 N   0  0  0  0  0  0  0  0  0  0  0  0
   37.6040   23.0120   36.6900 C   0  0  0  0  0  0  0  0  0  0  0  0
   38.7490   22.5180   36.1170 C   0  0  0  0  0  0  0  0  0  0  0  0
   39.9450   22.4660   36.8500 C   0  0  0  0  0  0  0  0  0  0  0  0
   39.9420   22.9160   38.1360 N   0  0  0  0  0  0  0  0  0  0  0  0
   38.8080   23.3980   38.6780 C   0  0  0  0  0  0  0  0  0  0  0  0
   37.6710   23.4410   37.9610 N   0  0  0  0  0  0  0  0  0  0  0  0
   36.5700   20.9220   32.2040 O   0  0  0  0  0  0  0  0  0  0  0  0
   35.4700   20.3450   32.9260 C   0  0  1  0  0  0  0  0  0  0  0  0
   34.4270   19.7100   32.0620 C   0  0  0  0  0  0  0  0  0  0  0  0
   35.3540   18.8580   32.8910 C   0  0  1  0  0  0  0  0  0  0  0  0
   36.2620   17.9940   32.0740 C   0  0  0  0  0  0  0  0  0  0  0  0
   40.6468   22.0532   33.8781 H   0  0  0  0  0  0  0  0  0  0  0  0
   36.6607   23.0553   36.1259 H   0  0  0  0  0  0  0  0  0  0  0  0
   40.8653   22.0703   36.3957 H   0  0  0  0  0  0  0  0  0  0  0  0
   38.8113   23.7600   39.7167 H   0  0  0  0  0  0  0  0  0  0  0  0
   35.4769   21.0915   33.7339 H   0  0  0  0  0  0  0  0  0  0  0  0
   34.5301   19.7320   30.9671 H   0  0  0  0  0  0  0  0  0  0  0  0
   33.3358   19.8036   31.9594 H   0  0  0  0  0  0  0  0  0  0  0  0
   35.3014   18.1150   33.7005 H   0  0  0  0  0  0  0  0  0  0  0  0
   36.8948   17.3919   32.7426 H   0  0  0  0  0  0  0  0  0  0  0  0
   35.6603   17.3268   31.4394 H   0  0  0  0  0  0  0  0  0  0  0  0
   36.8985   18.6281   31.4394 H   0  0  0  0  0  0  0  0  0  0  0  0
  1  7  1  0
  2  1  1  0
  3  4  1  0
  3  2  2  0
  4  5  2  0
  5  1  1  0
  6 11  2  0
  7  6  1  0
  7  8  2  0
  8  9  1  0
  9 10  2  0
 11 10  1  0
 12 13  1  0
 12  4  1  0
 14 15  1  0
 14 13  1  0
 15 13  1  0
 16 15  1  0
  2 17  1  0
  6 18  1  0
  8 19  1  0
 10 20  1  0
 13 21  1  1
 14 22  1  0
 14 23  1  0
 15 24  1  1
 16 25  1  0
 16 26  1  0
 16 27  1  0
M  ISO  8  17  14  18  14  19  14  20  14  21  13  22  13  23  13  24  13
M  ISO  3  25   8  26   8  27   8
M  END
>  <minimizedAffinity>  (1) 
-4.39108801

>  <minimizedRMSD>  (1) 
0.0975124016

$$$$
