
     RDKit          3D

 31 34  0  0  1  0  0  0  0  0999 V2000
   38.7680   22.0690   34.7390 N   0  0  0  0  0  0  0  0  0  0  0  0
   39.6810   21.9090   33.7740 C   0  0  0  0  0  0  0  0  0  0  0  0
   39.0950   21.4210   32.6630 N   0  0  0  0  0  0  0  0  0  0  0  0
   37.7570   21.2770   32.9710 C   0  0  0  0  0  0  0  0  0  0  0  0
   37.5800   21.6800   34.2450 N   0  0  0  0  0  0  0  0  0  0  0  0
   37.6540   23.0310   36.6380 C   0  0  0  0  0  0  0  0  0  0  0  0
   38.8190   22.5310   36.0990 C   0  0  0  0  0  0  0  0  0  0  0  0
   39.9990   22.4670   36.8560 C   0  0  0  0  0  0  0  0  0  0  0  0
   39.9390   22.9210   38.1470 N   0  0  0  0  0  0  0  0  0  0  0  0
   38.7810   23.4090   38.6540 C   0  0  0  0  0  0  0  0  0  0  0  0
   37.6640   23.4580   37.9020 N   0  0  0  0  0  0  0  0  0  0  0  0
   36.7510   20.8100   32.1670 O   0  0  0  0  0  0  0  0  0  0  0  0
   35.5590   20.4240   32.8760 C   0  0  1  0  0  0  0  0  0  0  0  0
   34.4730   19.8860   31.9900 C   0  0  0  0  0  0  0  0  0  0  0  0
   35.2410   18.9600   32.8960 C   0  0  1  0  0  0  0  0  0  0  0  0
   36.0900   17.9830   32.2870 N   0  0  0  0  0  0  0  0  0  0  0  0
   35.5930   16.7160   32.3090 C   0  0  0  0  0  0  0  0  0  0  0  0
   36.5110   15.8700   31.6870 C   0  0  0  0  0  0  0  0  0  0  0  0
   37.5570   16.6460   31.2970 N   0  0  0  0  0  0  0  0  0  0  0  0
   37.2800   17.9040   31.6670 C   0  0  0  0  0  0  0  0  0  0  0  0
   40.7516   22.1414   33.8730 H   0  0  0  0  0  0  0  0  0  0  0  0
   36.7333   23.0773   36.0379 H   0  0  0  0  0  0  0  0  0  0  0  0
   40.9323   22.0692   36.4308 H   0  0  0  0  0  0  0  0  0  0  0  0
   38.7525   23.7698   39.6928 H   0  0  0  0  0  0  0  0  0  0  0  0
   35.6372   21.1991   33.6526 H   0  0  0  0  0  0  0  0  0  0  0  0
   33.4200   20.1195   32.2059 H   0  0  0  0  0  0  0  0  0  0  0  0
   34.2586   19.9204   30.9117 H   0  0  0  0  0  0  0  0  0  0  0  0
   35.0107   18.2524   33.7061 H   0  0  0  0  0  0  0  0  0  0  0  0
   34.6298   16.4108   32.7440 H   0  0  0  0  0  0  0  0  0  0  0  0
   36.4085   14.7847   31.5403 H   0  0  0  0  0  0  0  0  0  0  0  0
   37.9427   18.7632   31.4862 H   0  0  0  0  0  0  0  0  0  0  0  0
  1  7  1  0
  2  1  1  0
  3  4  1  0
  3  2  2  0
  4  5  2  0
  5  1  1  0
  6 11  2  0
  7  6  1  0
  7  8  2  0
  8  9  1  0
  9 10  2  0
 11 10  1  0
 12 13  1  0
 12  4  1  0
 13 15  1  0
 14 13  1  0
 14 15  1  0
 16 17  1  0
 16 15  1  0
 18 17  2  0
 19 20  2  0
 19 18  1  0
 20 16  1  0
  2 21  1  0
  6 22  1  0
  8 23  1  0
 10 24  1  0
 13 25  1  1
 14 26  1  0
 14 27  1  0
 15 28  1  1
 17 29  1  0
 18 30  1  0
 20 31  1  0
M  ISO  8  21  14  22  14  23  14  24  14  25  13  26  13  27  13  28  13
M  ISO  3  29  14  30  14  31  14
M  END
>  <minimizedAffinity>  (1) 
-4.4853363

>  <minimizedRMSD>  (1) 
0.454259604

$$$$
