
     RDKit          3D

 47 52  0  0  1  0  0  0  0  0999 V2000
   35.8290   20.3750   33.1010 C   0  0  1  0  0  0  0  0  0  0  0  0
   34.8960   20.5980   31.9710 C   0  0  0  0  0  0  0  0  0  0  0  0
   35.4720   19.2580   32.1590 C   0  0  1  0  0  0  0  0  0  0  0  0
   36.2740   18.6410   31.2300 N   0  0  0  0  0  0  0  0  0  0  0  0
   36.3250   19.2200   29.9690 C   0  0  0  0  0  0  0  0  0  0  0  0
   37.1430   18.4420   29.1660 C   0  0  0  0  0  0  0  0  0  0  0  0
   37.5750   17.4110   29.9510 N   0  0  0  0  0  0  0  0  0  0  0  0
   37.0340   17.5680   31.1810 C   0  0  0  0  0  0  0  0  0  0  0  0
   37.5770   16.4560   31.9120 C   0  0  0  0  0  0  0  0  0  0  0  0
   38.9300   16.1940   32.1790 C   0  0  0  0  0  0  0  0  0  0  0  0
   39.5260   15.1900   32.8860 C   0  0  0  0  0  0  0  0  0  0  0  0
   38.6080   14.3120   33.4020 C   0  0  0  0  0  0  0  0  0  0  0  0
   37.2510   14.4050   33.2470 C   0  0  0  0  0  0  0  0  0  0  0  0
   36.3890   13.4840   33.8020 C   0  0  0  0  0  0  0  0  0  0  0  0
   35.0260   13.5830   33.6480 C   0  0  0  0  0  0  0  0  0  0  0  0
   34.5190   14.6330   32.9180 C   0  0  0  0  0  0  0  0  0  0  0  0
   35.4010   15.5430   32.3710 C   0  0  0  0  0  0  0  0  0  0  0  0
   36.7720   15.4640   32.5120 C   0  0  0  0  0  0  0  0  0  0  0  0
   37.1570   20.7810   32.9920 O   0  0  0  0  0  0  0  0  0  0  0  0
   37.4760   24.2360   33.2430 N   0  0  0  0  0  0  0  0  0  0  0  0
   38.1850   23.8550   34.3230 C   0  0  0  0  0  0  0  0  0  0  0  0
   38.1830   22.5220   34.4010 N   0  0  0  0  0  0  0  0  0  0  0  0
   37.4440   22.0660   33.3310 C   0  0  0  0  0  0  0  0  0  0  0  0
   37.0190   23.1230   32.6310 N   0  0  0  0  0  0  0  0  0  0  0  0
   36.1790   25.5130   31.6720 C   0  0  0  0  0  0  0  0  0  0  0  0
   37.1320   25.5120   32.6530 C   0  0  0  0  0  0  0  0  0  0  0  0
   37.7550   26.6910   33.0800 C   0  0  0  0  0  0  0  0  0  0  0  0
   37.3600   27.8490   32.4650 N   0  0  0  0  0  0  0  0  0  0  0  0
   36.4180   27.8350   31.4990 C   0  0  0  0  0  0  0  0  0  0  0  0
   35.8400   26.6740   31.1150 N   0  0  0  0  0  0  0  0  0  0  0  0
   35.7655   20.5955   34.1768 H   0  0  0  0  0  0  0  0  0  0  0  0
   35.2111   21.2132   31.1153 H   0  0  0  0  0  0  0  0  0  0  0  0
   33.8725   20.9912   31.8831 H   0  0  0  0  0  0  0  0  0  0  0  0
   35.1061   18.2318   32.3105 H   0  0  0  0  0  0  0  0  0  0  0  0
   35.8050   20.1389   29.6605 H   0  0  0  0  0  0  0  0  0  0  0  0
   37.3939   18.6188   28.1097 H   0  0  0  0  0  0  0  0  0  0  0  0
   39.6298   16.9227   31.7439 H   0  0  0  0  0  0  0  0  0  0  0  0
   40.6131   15.0965   33.0252 H   0  0  0  0  0  0  0  0  0  0  0  0
   38.9930   13.4643   33.9879 H   0  0  0  0  0  0  0  0  0  0  0  0
   36.8024   12.6470   34.3839 H   0  0  0  0  0  0  0  0  0  0  0  0
   34.3547   12.8376   34.0994 H   0  0  0  0  0  0  0  0  0  0  0  0
   33.4343   14.7450   32.7733 H   0  0  0  0  0  0  0  0  0  0  0  0
   34.9874   16.3798   31.7889 H   0  0  0  0  0  0  0  0  0  0  0  0
   38.6860   24.5340   35.0286 H   0  0  0  0  0  0  0  0  0  0  0  0
   35.7029   24.5751   31.3501 H   0  0  0  0  0  0  0  0  0  0  0  0
   38.5219   26.6872   33.8685 H   0  0  0  0  0  0  0  0  0  0  0  0
   36.1170   28.7777   31.0187 H   0  0  0  0  0  0  0  0  0  0  0  0
  2  3  1  0
  2  1  1  0
  3  1  1  0
  4  3  1  0
  5  4  1  0
  6  7  1  0
  6  5  2  0
  7  8  2  0
  8  4  1  0
  8  9  1  0
  9 10  2  0
  9 18  1  0
 10 11  1  0
 11 12  2  0
 13 12  1  0
 13 14  2  0
 15 14  1  0
 16 15  2  0
 17 18  2  0
 17 16  1  0
 18 13  1  0
 19  1  1  0
 19 23  1  0
 20 21  1  0
 21 22  2  0
 23 22  1  0
 24 20  1  0
 24 23  2  0
 25 26  2  0
 26 27  1  0
 26 20  1  0
 28 27  2  0
 29 28  1  0
 30 29  2  0
 30 25  1  0
  1 31  1  1
  2 32  1  0
  2 33  1  0
  3 34  1  1
  5 35  1  0
  6 36  1  0
 10 37  1  0
 11 38  1  0
 12 39  1  0
 14 40  1  0
 15 41  1  0
 16 42  1  0
 17 43  1  0
 21 44  1  0
 25 45  1  0
 27 46  1  0
 29 47  1  0
M  ISO  8  31  13  32  13  33  13  34  13  35  14  36  14  37  14  38  14
M  ISO  8  39  14  40  14  41  14  42  14  43  14  44  14  45  14  46  14
M  ISO  1  47  14
M  END
>  <minimizedAffinity>  (1) 
-5.44688749

>  <minimizedRMSD>  (1) 
4.92053032

$$$$
