
     RDKit          3D

 44 49  0  0  1  0  0  0  0  0999 V2000
   35.8400   20.4190   32.6900 C   0  0  1  0  0  0  0  0  0  0  0  0
   34.7120   20.1970   31.7500 C   0  0  0  0  0  0  0  0  0  0  0  0
   35.2900   19.0360   32.4560 C   0  0  1  0  0  0  0  0  0  0  0  0
   35.9010   17.9910   31.7960 N   0  0  0  0  0  0  0  0  0  0  0  0
   35.7640   16.7350   32.3650 C   0  0  0  0  0  0  0  0  0  0  0  0
   36.4500   15.8270   31.5610 C   0  0  0  0  0  0  0  0  0  0  0  0
   36.9780   16.5410   30.5350 N   0  0  0  0  0  0  0  0  0  0  0  0
   36.6210   17.8360   30.7140 C   0  0  0  0  0  0  0  0  0  0  0  0
   37.1810   18.4450   29.5810 N   0  0  0  0  0  0  0  0  0  0  0  0
   38.1400   19.4350   29.6350 C   0  0  0  0  0  0  0  0  0  0  0  0
   38.4950   19.9020   28.4010 N   0  0  0  0  0  0  0  0  0  0  0  0
   37.7380   19.1850   27.5350 C   0  0  0  0  0  0  0  0  0  0  0  0
   37.5740   19.1230   26.1690 C   0  0  0  0  0  0  0  0  0  0  0  0
   36.7070   18.2690   25.5960 N   0  0  0  0  0  0  0  0  0  0  0  0
   35.9450   17.4220   26.3130 C   0  0  0  0  0  0  0  0  0  0  0  0
   36.0840   17.4620   27.6520 N   0  0  0  0  0  0  0  0  0  0  0  0
   36.9350   18.2940   28.2620 C   0  0  0  0  0  0  0  0  0  0  0  0
   38.3750   20.0130   25.4010 N   0  0  0  0  0  0  0  0  0  0  0  0
   37.1300   20.6020   32.1660 O   0  0  0  0  0  0  0  0  0  0  0  0
   38.8990   22.1280   34.7420 N   0  0  0  0  0  0  0  0  0  0  0  0
   39.8340   22.1180   33.7850 C   0  0  0  0  0  0  0  0  0  0  0  0
   39.3320   21.5590   32.6880 N   0  0  0  0  0  0  0  0  0  0  0  0
   38.0440   21.2080   32.9690 C   0  0  0  0  0  0  0  0  0  0  0  0
   37.7860   21.5670   34.2430 N   0  0  0  0  0  0  0  0  0  0  0  0
   37.6600   23.1400   36.5500 C   0  0  0  0  0  0  0  0  0  0  0  0
   38.8510   22.5960   36.1080 C   0  0  0  0  0  0  0  0  0  0  0  0
   39.9660   22.4980   36.9540 C   0  0  0  0  0  0  0  0  0  0  0  0
   39.8090   22.9660   38.2300 N   0  0  0  0  0  0  0  0  0  0  0  0
   38.6310   23.4960   38.6440 C   0  0  0  0  0  0  0  0  0  0  0  0
   37.5840   23.5750   37.8080 N   0  0  0  0  0  0  0  0  0  0  0  0
   35.9905   21.1033   33.5380 H   0  0  0  0  0  0  0  0  0  0  0  0
   34.8711   20.3135   30.6678 H   0  0  0  0  0  0  0  0  0  0  0  0
   33.6983   20.6123   31.6504 H   0  0  0  0  0  0  0  0  0  0  0  0
   34.9396   18.2404   33.1299 H   0  0  0  0  0  0  0  0  0  0  0  0
   35.2124   16.4973   33.2865 H   0  0  0  0  0  0  0  0  0  0  0  0
   36.5449   14.7436   31.7257 H   0  0  0  0  0  0  0  0  0  0  0  0
   38.5738   19.8096   30.5739 H   0  0  0  0  0  0  0  0  0  0  0  0
   35.2415   16.7294   25.8278 H   0  0  0  0  0  0  0  0  0  0  0  0
   38.3004   20.0168   24.3737 H   0  0  0  0  0  0  0  0  0  0  0  0
   39.0296   20.6536   25.8722 H   0  0  0  0  0  0  0  0  0  0  0  0
   40.8564   22.5102   33.8893 H   0  0  0  0  0  0  0  0  0  0  0  0
   36.7924   23.2126   35.8777 H   0  0  0  0  0  0  0  0  0  0  0  0
   40.9175   22.0670   36.6091 H   0  0  0  0  0  0  0  0  0  0  0  0
   38.5328   23.8649   39.6756 H   0  0  0  0  0  0  0  0  0  0  0  0
  2  3  1  0
  2  1  1  0
  3  1  1  0
  4  5  1  0
  4  3  1  0
  6  5  2  0
  7  8  2  0
  7  6  1  0
  8  4  1  0
  9 10  1  0
  9  8  1  0
 11 10  2  0
 12 17  2  0
 12 11  1  0
 13 12  1  0
 14 13  2  0
 14 15  1  0
 15 16  2  0
 16 17  1  0
 17  9  1  0
 18 13  1  0
 19  1  1  0
 19 23  1  0
 20 26  1  0
 21 20  1  0
 22 23  1  0
 22 21  2  0
 23 24  2  0
 24 20  1  0
 25 30  2  0
 26 25  1  0
 26 27  2  0
 27 28  1  0
 28 29  2  0
 30 29  1  0
  1 31  1  1
  2 32  1  0
  2 33  1  0
  3 34  1  1
  5 35  1  0
  6 36  1  0
 10 37  1  0
 15 38  1  0
 18 39  1  0
 18 40  1  0
 21 41  1  0
 25 42  1  0
 27 43  1  0
 29 44  1  0
M  ISO  8  31  13  32  13  33  13  34  13  35  14  36  14  37  14  38  14
M  ISO  4  41  14  42  14  43  14  44  14
M  END
>  <minimizedAffinity>  (1) 
-5.35717392

>  <minimizedRMSD>  (1) 
1.80797267

$$$$
