
     RDKit          3D

 45 50  0  0  1  0  0  0  0  0999 V2000
   35.7600   20.5580   32.6830 C   0  0  1  0  0  0  0  0  0  0  0  0
   34.6610   20.1180   31.7910 C   0  0  0  0  0  0  0  0  0  0  0  0
   35.3300   19.1210   32.6350 C   0  0  1  0  0  0  0  0  0  0  0  0
   36.0070   18.0510   32.1190 N   0  0  0  0  0  0  0  0  0  0  0  0
   35.5250   16.7790   32.4790 C   0  0  0  0  0  0  0  0  0  0  0  0
   36.3570   15.8220   31.9340 C   0  0  0  0  0  0  0  0  0  0  0  0
   37.3100   16.5270   31.2620 N   0  0  0  0  0  0  0  0  0  0  0  0
   37.0660   17.8570   31.3820 C   0  0  0  0  0  0  0  0  0  0  0  0
   38.0370   18.4770   30.5150 C   0  0  0  0  0  0  0  0  0  0  0  0
   39.3020   18.7880   30.7180 N   0  0  0  0  0  0  0  0  0  0  0  0
   40.3010   19.2210   30.0570 C   0  0  0  0  0  0  0  0  0  0  0  0
   40.0320   19.4350   28.7660 N   0  0  0  0  0  0  0  0  0  0  0  0
   38.8070   19.1890   28.3140 C   0  0  0  0  0  0  0  0  0  0  0  0
   38.4960   19.3640   26.9760 C   0  0  0  0  0  0  0  0  0  0  0  0
   37.2900   19.1110   26.4060 C   0  0  0  0  0  0  0  0  0  0  0  0
   36.2890   18.6380   27.2350 C   0  0  0  0  0  0  0  0  0  0  0  0
   36.5960   18.4590   28.5860 C   0  0  0  0  0  0  0  0  0  0  0  0
   37.8440   18.7240   29.1680 C   0  0  0  0  0  0  0  0  0  0  0  0
   37.0280   20.7650   32.1500 O   0  0  0  0  0  0  0  0  0  0  0  0
   38.8580   22.2020   34.7300 N   0  0  0  0  0  0  0  0  0  0  0  0
   39.7940   22.2020   33.7780 C   0  0  0  0  0  0  0  0  0  0  0  0
   39.2810   21.6750   32.6630 N   0  0  0  0  0  0  0  0  0  0  0  0
   37.9670   21.3390   32.9570 C   0  0  0  0  0  0  0  0  0  0  0  0
   37.7210   21.6670   34.2270 N   0  0  0  0  0  0  0  0  0  0  0  0
   37.6490   23.1720   36.5800 C   0  0  0  0  0  0  0  0  0  0  0  0
   38.8330   22.6360   36.1110 C   0  0  0  0  0  0  0  0  0  0  0  0
   39.9540   22.5110   36.9350 C   0  0  0  0  0  0  0  0  0  0  0  0
   39.8220   22.9450   38.2310 N   0  0  0  0  0  0  0  0  0  0  0  0
   38.6470   23.4690   38.6720 C   0  0  0  0  0  0  0  0  0  0  0  0
   37.5870   23.5740   37.8490 N   0  0  0  0  0  0  0  0  0  0  0  0
   35.8450   21.3652   33.4255 H   0  0  0  0  0  0  0  0  0  0  0  0
   34.8136   20.1032   30.7017 H   0  0  0  0  0  0  0  0  0  0  0  0
   33.6157   20.4278   31.6450 H   0  0  0  0  0  0  0  0  0  0  0  0
   35.0538   18.3967   33.4154 H   0  0  0  0  0  0  0  0  0  0  0  0
   34.6338   16.5804   33.0924 H   0  0  0  0  0  0  0  0  0  0  0  0
   36.2698   14.7291   32.0227 H   0  0  0  0  0  0  0  0  0  0  0  0
   41.2891   19.4012   30.5055 H   0  0  0  0  0  0  0  0  0  0  0  0
   39.2941   19.7400   26.3190 H   0  0  0  0  0  0  0  0  0  0  0  0
   37.1167   19.2750   25.3322 H   0  0  0  0  0  0  0  0  0  0  0  0
   35.2862   18.4107   26.8442 H   0  0  0  0  0  0  0  0  0  0  0  0
   35.7985   18.0816   29.2429 H   0  0  0  0  0  0  0  0  0  0  0  0
   40.8221   22.5758   33.8933 H   0  0  0  0  0  0  0  0  0  0  0  0
   36.7748   23.2651   35.9189 H   0  0  0  0  0  0  0  0  0  0  0  0
   40.8977   22.0851   36.5633 H   0  0  0  0  0  0  0  0  0  0  0  0
   38.5618   23.8112   39.7139 H   0  0  0  0  0  0  0  0  0  0  0  0
  2  3  1  0
  2  1  1  0
  3  1  1  0
  4  5  1  0
  4  3  1  0
  6  5  2  0
  7  8  2  0
  7  6  1  0
  8  4  1  0
  9 10  2  0
  9  8  1  0
 11 10  1  0
 12 11  2  0
 13 12  1  0
 13 18  2  0
 14 13  1  0
 15 14  2  0
 15 16  1  0
 16 17  2  0
 17 18  1  0
 18  9  1  0
 19  1  1  0
 19 23  1  0
 20 26  1  0
 21 20  1  0
 22 23  1  0
 22 21  2  0
 23 24  2  0
 24 20  1  0
 25 30  2  0
 26 25  1  0
 26 27  2  0
 27 28  1  0
 28 29  2  0
 30 29  1  0
  1 31  1  1
  2 32  1  0
  2 33  1  0
  3 34  1  1
  5 35  1  0
  6 36  1  0
 11 37  1  0
 14 38  1  0
 15 39  1  0
 16 40  1  0
 17 41  1  0
 21 42  1  0
 25 43  1  0
 27 44  1  0
 29 45  1  0
M  ISO  8  31  13  32  13  33  13  34  13  35  14  36  14  37  14  38  14
M  ISO  7  39  14  40  14  41  14  42  14  43  14  44  14  45  14
M  END
>  <minimizedAffinity>  (1) 
-5.26182604

>  <minimizedRMSD>  (1) 
1.49800539

$$$$
