
     RDKit          3D

 45 50  0  0  1  0  0  0  0  0999 V2000
   35.7690   20.5110   32.6870 C   0  0  1  0  0  0  0  0  0  0  0  0
   34.6560   20.1530   31.7760 C   0  0  0  0  0  0  0  0  0  0  0  0
   35.2770   19.0930   32.5840 C   0  0  1  0  0  0  0  0  0  0  0  0
   35.9200   18.0110   32.0340 N   0  0  0  0  0  0  0  0  0  0  0  0
   35.5330   16.7560   32.5060 C   0  0  0  0  0  0  0  0  0  0  0  0
   36.3110   15.8010   31.8820 C   0  0  0  0  0  0  0  0  0  0  0  0
   37.1480   16.4850   31.0480 N   0  0  0  0  0  0  0  0  0  0  0  0
   36.8780   17.8030   31.1640 C   0  0  0  0  0  0  0  0  0  0  0  0
   37.7610   18.4090   30.2050 C   0  0  0  0  0  0  0  0  0  0  0  0
   39.0830   18.8760   30.3200 C   0  0  0  0  0  0  0  0  0  0  0  0
   39.6470   19.3560   29.2140 N   0  0  0  0  0  0  0  0  0  0  0  0
   38.6910   19.2210   28.2910 C   0  0  0  0  0  0  0  0  0  0  0  0
   38.5830   19.5020   26.9500 C   0  0  0  0  0  0  0  0  0  0  0  0
   37.4840   19.2830   26.1460 C   0  0  0  0  0  0  0  0  0  0  0  0
   36.3730   18.7240   26.7370 C   0  0  0  0  0  0  0  0  0  0  0  0
   36.4140   18.4170   28.0810 C   0  0  0  0  0  0  0  0  0  0  0  0
   37.5560   18.6640   28.8360 C   0  0  0  0  0  0  0  0  0  0  0  0
   37.0520   20.6840   32.1700 O   0  0  0  0  0  0  0  0  0  0  0  0
   38.8650   22.1640   34.7390 N   0  0  0  0  0  0  0  0  0  0  0  0
   39.7980   22.1490   33.7790 C   0  0  0  0  0  0  0  0  0  0  0  0
   39.2840   21.6040   32.6740 N   0  0  0  0  0  0  0  0  0  0  0  0
   37.9810   21.2710   32.9710 C   0  0  0  0  0  0  0  0  0  0  0  0
   37.7340   21.6180   34.2420 N   0  0  0  0  0  0  0  0  0  0  0  0
   37.6490   23.1570   36.5680 C   0  0  0  0  0  0  0  0  0  0  0  0
   38.8290   22.6150   36.1120 C   0  0  0  0  0  0  0  0  0  0  0  0
   39.9550   22.5010   36.9400 C   0  0  0  0  0  0  0  0  0  0  0  0
   39.8210   22.9580   38.2250 N   0  0  0  0  0  0  0  0  0  0  0  0
   38.6510   23.4900   38.6600 C   0  0  0  0  0  0  0  0  0  0  0  0
   37.5830   23.5820   37.8280 N   0  0  0  0  0  0  0  0  0  0  0  0
   35.8843   21.2867   33.4583 H   0  0  0  0  0  0  0  0  0  0  0  0
   34.8128   20.1731   30.6874 H   0  0  0  0  0  0  0  0  0  0  0  0
   33.6259   20.5139   31.6394 H   0  0  0  0  0  0  0  0  0  0  0  0
   34.9609   18.3505   33.3314 H   0  0  0  0  0  0  0  0  0  0  0  0
   34.7441   16.5611   33.2474 H   0  0  0  0  0  0  0  0  0  0  0  0
   36.2657   14.7116   32.0272 H   0  0  0  0  0  0  0  0  0  0  0  0
   39.6242   18.8460   31.2772 H   0  0  0  0  0  0  0  0  0  0  0  0
   40.5955   19.7403   29.0976 H   0  0  0  0  0  0  0  0  0  0  0  0
   39.4652   19.9481   26.4676 H   0  0  0  0  0  0  0  0  0  0  0  0
   37.4946   19.5439   25.0775 H   0  0  0  0  0  0  0  0  0  0  0  0
   35.4666   18.5253   26.1462 H   0  0  0  0  0  0  0  0  0  0  0  0
   35.5315   17.9707   28.5626 H   0  0  0  0  0  0  0  0  0  0  0  0
   40.8259   22.5262   33.8841 H   0  0  0  0  0  0  0  0  0  0  0  0
   36.7762   23.2376   35.9034 H   0  0  0  0  0  0  0  0  0  0  0  0
   40.8980   22.0668   36.5765 H   0  0  0  0  0  0  0  0  0  0  0  0
   38.5675   23.8498   39.6961 H   0  0  0  0  0  0  0  0  0  0  0  0
  2  3  1  0
  2  1  1  0
  3  1  1  0
  4  5  1  0
  4  3  1  0
  6  5  2  0
  7  8  2  0
  7  6  1  0
  8  4  1  0
  9 10  2  0
  9  8  1  0
 11 10  1  0
 12 17  2  0
 12 11  1  0
 13 12  1  0
 14 15  1  0
 14 13  2  0
 15 16  2  0
 16 17  1  0
 17  9  1  0
 18  1  1  0
 18 22  1  0
 19 25  1  0
 20 19  1  0
 21 22  1  0
 21 20  2  0
 22 23  2  0
 23 19  1  0
 24 29  2  0
 25 24  1  0
 25 26  2  0
 26 27  1  0
 27 28  2  0
 29 28  1  0
  1 30  1  1
  2 31  1  0
  2 32  1  0
  3 33  1  1
  5 34  1  0
  6 35  1  0
 10 36  1  0
 11 37  1  0
 13 38  1  0
 14 39  1  0
 15 40  1  0
 16 41  1  0
 20 42  1  0
 24 43  1  0
 26 44  1  0
 28 45  1  0
M  ISO  8  30  13  31  13  32  13  33  13  34  14  35  14  36  14  37   9
M  ISO  8  38  14  39  14  40  14  41  14  42  14  43  14  44  14  45  14
M  END
>  <minimizedAffinity>  (1) 
-5.19245148

>  <minimizedRMSD>  (1) 
0.929086864

$$$$
