
     RDKit          3D

 44 48  0  0  1  0  0  0  0  0999 V2000
   35.5200   20.0960   33.1360 C   0  0  1  0  0  0  0  0  0  0  0  0
   34.4950   19.9620   32.0750 C   0  0  0  0  0  0  0  0  0  0  0  0
   35.1530   18.7410   32.5930 C   0  0  1  0  0  0  0  0  0  0  0  0
   35.9050   17.9010   31.8130 N   0  0  0  0  0  0  0  0  0  0  0  0
   36.1190   16.6260   32.2770 C   0  0  0  0  0  0  0  0  0  0  0  0
   36.9030   15.9510   31.3330 C   0  0  0  0  0  0  0  0  0  0  0  0
   37.1460   16.8360   30.3130 N   0  0  0  0  0  0  0  0  0  0  0  0
   36.5180   17.9870   30.6630 C   0  0  0  0  0  0  0  0  0  0  0  0
   36.8540   18.7550   29.5460 N   0  0  0  0  0  0  0  0  0  0  0  0
   36.8130   18.4220   28.1060 C   0  0  0  0  0  0  0  0  0  0  0  0
   38.2090   18.4880   27.5410 C   0  0  0  0  0  0  0  0  0  0  0  0
   38.9090   19.6260   27.8350 O   0  0  0  0  0  0  0  0  0  0  0  0
   38.9500   19.8170   29.2140 C   0  0  0  0  0  0  0  0  0  0  0  0
   37.4900   20.0970   29.6010 C   0  0  0  0  0  0  0  0  0  0  0  0
   36.8230   20.5000   32.7660 O   0  0  0  0  0  0  0  0  0  0  0  0
   38.0370   22.8810   35.0100 N   0  0  0  0  0  0  0  0  0  0  0  0
   38.0500   23.5800   33.8670 C   0  0  0  0  0  0  0  0  0  0  0  0
   37.6060   22.8200   32.8730 N   0  0  0  0  0  0  0  0  0  0  0  0
   37.3050   21.6000   33.4080 C   0  0  0  0  0  0  0  0  0  0  0  0
   37.5760   21.6520   34.7320 N   0  0  0  0  0  0  0  0  0  0  0  0
   37.5270   23.9650   37.0990 C   0  0  0  0  0  0  0  0  0  0  0  0
   38.3960   23.1680   36.3780 C   0  0  0  0  0  0  0  0  0  0  0  0
   39.5660   22.6580   36.9440 C   0  0  0  0  0  0  0  0  0  0  0  0
   39.8130   22.9830   38.2540 N   0  0  0  0  0  0  0  0  0  0  0  0
   38.9410   23.7710   38.9460 C   0  0  0  0  0  0  0  0  0  0  0  0
   37.8250   24.2460   38.3700 N   0  0  0  0  0  0  0  0  0  0  0  0
   35.5301   20.6084   34.1093 H   0  0  0  0  0  0  0  0  0  0  0  0
   34.7146   20.3109   31.0552 H   0  0  0  0  0  0  0  0  0  0  0  0
   33.4501   20.2882   31.9663 H   0  0  0  0  0  0  0  0  0  0  0  0
   34.8568   17.7941   33.0681 H   0  0  0  0  0  0  0  0  0  0  0  0
   35.7415   16.2091   33.2224 H   0  0  0  0  0  0  0  0  0  0  0  0
   37.2561   14.9112   31.3970 H   0  0  0  0  0  0  0  0  0  0  0  0
   36.4108   17.4066   27.9747 H   0  0  0  0  0  0  0  0  0  0  0  0
   36.1673   19.1401   27.5793 H   0  0  0  0  0  0  0  0  0  0  0  0
   38.1359   18.4081   26.4463 H   0  0  0  0  0  0  0  0  0  0  0  0
   38.7642   17.6618   28.0092 H   0  0  0  0  0  0  0  0  0  0  0  0
   39.3217   18.9147   29.7216 H   0  0  0  0  0  0  0  0  0  0  0  0
   39.6265   20.6339   29.5056 H   0  0  0  0  0  0  0  0  0  0  0  0
   37.0183   20.7855   28.8845 H   0  0  0  0  0  0  0  0  0  0  0  0
   37.3920   20.5779   30.5854 H   0  0  0  0  0  0  0  0  0  0  0  0
   38.3787   24.6250   33.7673 H   0  0  0  0  0  0  0  0  0  0  0  0
   36.6102   24.3591   36.6361 H   0  0  0  0  0  0  0  0  0  0  0  0
   40.2570   22.0257   36.3671 H   0  0  0  0  0  0  0  0  0  0  0  0
   39.1559   24.0220   39.9952 H   0  0  0  0  0  0  0  0  0  0  0  0
  2  3  1  0
  2  1  1  0
  3  1  1  0
  4  5  1  0
  4  3  1  0
  6  5  2  0
  7  8  2  0
  7  6  1  0
  8  4  1  0
  9 14  1  0
  9  8  1  0
 10  9  1  0
 11 12  1  0
 11 10  1  0
 12 13  1  0
 13 14  1  0
 15  1  1  0
 15 19  1  0
 16 22  1  0
 17 16  1  0
 18 19  1  0
 18 17  2  0
 19 20  2  0
 20 16  1  0
 21 26  2  0
 22 23  2  0
 22 21  1  0
 23 24  1  0
 24 25  2  0
 26 25  1  0
  1 27  1  1
  2 28  1  0
  2 29  1  0
  3 30  1  1
  5 31  1  0
  6 32  1  0
 10 33  1  0
 10 34  1  0
 11 35  1  0
 11 36  1  0
 13 37  1  0
 13 38  1  0
 14 39  1  0
 14 40  1  0
 17 41  1  0
 21 42  1  0
 23 43  1  0
 25 44  1  0
M  ISO  8  27  13  28  13  29  13  30  13  31  14  32  14  33  13  34  13
M  ISO  8  35  13  36  13  37  13  38  13  39  13  40  13  41  14  42  14
M  ISO  2  43  14  44  14
M  END
>  <minimizedAffinity>  (1) 
-5.13568687

>  <minimizedRMSD>  (1) 
1.73712099

$$$$
