
     RDKit          3D

 41 45  0  0  1  0  0  0  0  0999 V2000
   35.4490   20.3270   32.9630 C   0  0  1  0  0  0  0  0  0  0  0  0
   34.6430   20.1600   31.7310 C   0  0  0  0  0  0  0  0  0  0  0  0
   35.0490   18.9520   32.4880 C   0  0  1  0  0  0  0  0  0  0  0  0
   35.8620   17.9760   31.9520 N   0  0  0  0  0  0  0  0  0  0  0  0
   35.5950   16.6770   32.3220 C   0  0  0  0  0  0  0  0  0  0  0  0
   36.5300   15.8580   31.6870 C   0  0  0  0  0  0  0  0  0  0  0  0
   37.3350   16.6730   30.9480 N   0  0  0  0  0  0  0  0  0  0  0  0
   36.8970   17.9330   31.1370 C   0  0  0  0  0  0  0  0  0  0  0  0
   37.7880   18.6650   30.3310 N   0  0  0  0  0  0  0  0  0  0  0  0
   38.9910   19.2060   30.7170 C   0  0  0  0  0  0  0  0  0  0  0  0
   39.8320   19.9480   29.9480 C   0  0  0  0  0  0  0  0  0  0  0  0
   39.3640   20.1320   28.6700 C   0  0  0  0  0  0  0  0  0  0  0  0
   40.0650   20.8130   27.8490 O   0  0  0  0  0  0  0  0  0  0  0  0
   38.2160   19.6660   28.1600 N   0  0  0  0  0  0  0  0  0  0  0  0
   37.4680   18.9460   29.0150 C   0  0  0  0  0  0  0  0  0  0  0  0
   36.3680   18.4710   28.6070 O   0  0  0  0  0  0  0  0  0  0  0  0
   36.8240   20.5700   32.8530 O   0  0  0  0  0  0  0  0  0  0  0  0
   38.0300   22.9450   35.0940 N   0  0  0  0  0  0  0  0  0  0  0  0
   38.0390   23.6590   33.9520 C   0  0  0  0  0  0  0  0  0  0  0  0
   37.5940   22.8960   32.9520 N   0  0  0  0  0  0  0  0  0  0  0  0
   37.3030   21.6740   33.4890 C   0  0  0  0  0  0  0  0  0  0  0  0
   37.5750   21.7190   34.8060 N   0  0  0  0  0  0  0  0  0  0  0  0
   37.5360   24.0520   37.1670 C   0  0  0  0  0  0  0  0  0  0  0  0
   38.3890   23.2320   36.4650 C   0  0  0  0  0  0  0  0  0  0  0  0
   39.5420   22.6940   37.0450 C   0  0  0  0  0  0  0  0  0  0  0  0
   39.7820   23.0240   38.3490 N   0  0  0  0  0  0  0  0  0  0  0  0
   38.9310   23.8360   39.0300 C   0  0  0  0  0  0  0  0  0  0  0  0
   37.8330   24.3340   38.4400 N   0  0  0  0  0  0  0  0  0  0  0  0
   35.3225   20.9503   33.8605 H   0  0  0  0  0  0  0  0  0  0  0  0
   35.0948   20.3678   30.7498 H   0  0  0  0  0  0  0  0  0  0  0  0
   33.6815   20.5618   31.3787 H   0  0  0  0  0  0  0  0  0  0  0  0
   34.5613   18.0969   32.9789 H   0  0  0  0  0  0  0  0  0  0  0  0
   34.7911   16.3450   32.9955 H   0  0  0  0  0  0  0  0  0  0  0  0
   36.6033   14.7634   31.7675 H   0  0  0  0  0  0  0  0  0  0  0  0
   39.3058   19.0197   31.7544 H   0  0  0  0  0  0  0  0  0  0  0  0
   40.7862   20.3575   30.3111 H   0  0  0  0  0  0  0  0  0  0  0  0
   37.9283   19.8455   27.1874 H   0  0  0  0  0  0  0  0  0  0  0  0
   38.3623   24.7062   33.8585 H   0  0  0  0  0  0  0  0  0  0  0  0
   36.6331   24.4649   36.6934 H   0  0  0  0  0  0  0  0  0  0  0  0
   40.2212   22.0385   36.4802 H   0  0  0  0  0  0  0  0  0  0  0  0
   39.1450   24.0885   40.0790 H   0  0  0  0  0  0  0  0  0  0  0  0
  2  3  1  0
  2  1  1  0
  3  1  1  0
  4  5  1  0
  4  3  1  0
  6  5  2  0
  7  8  2  0
  7  6  1  0
  8  4  1  0
  9 10  1  0
  9  8  1  0
 11 10  2  0
 12 11  1  0
 13 12  2  0
 14 12  1  0
 14 15  1  0
 15  9  1  0
 16 15  2  0
 17  1  1  0
 17 21  1  0
 18 24  1  0
 19 18  1  0
 20 21  1  0
 20 19  2  0
 21 22  2  0
 22 18  1  0
 23 28  2  0
 24 25  2  0
 24 23  1  0
 25 26  1  0
 26 27  2  0
 28 27  1  0
  1 29  1  1
  2 30  1  0
  2 31  1  0
  3 32  1  1
  5 33  1  0
  6 34  1  0
 10 35  1  0
 11 36  1  0
 14 37  1  0
 19 38  1  0
 23 39  1  0
 25 40  1  0
 27 41  1  0
M  ISO  8  29  13  30  13  31  13  32  13  33  14  34  14  35  14  36  14
M  ISO  5  37   9  38  14  39  14  40  14  41  14
M  END
>  <minimizedAffinity>  (1) 
-5.11769629

>  <minimizedRMSD>  (1) 
1.11022854

$$$$
