
     RDKit          3D

 41 45  0  0  1  0  0  0  0  0999 V2000
   36.3670   21.9170   32.3350 C   0  0  1  0  0  0  0  0  0  0  0  0
   35.4970   21.9010   31.1380 C   0  0  0  0  0  0  0  0  0  0  0  0
   35.4460   20.7570   32.0650 C   0  0  1  0  0  0  0  0  0  0  0  0
   35.7780   19.4720   31.7070 N   0  0  0  0  0  0  0  0  0  0  0  0
   35.4370   18.4700   32.5920 C   0  0  0  0  0  0  0  0  0  0  0  0
   35.8710   17.2610   32.0490 C   0  0  0  0  0  0  0  0  0  0  0  0
   36.4610   17.5540   30.8510 N   0  0  0  0  0  0  0  0  0  0  0  0
   36.3800   18.8870   30.6920 C   0  0  0  0  0  0  0  0  0  0  0  0
   37.0120   19.0460   29.4090 C   0  0  0  0  0  0  0  0  0  0  0  0
   36.5160   18.4940   28.2180 C   0  0  0  0  0  0  0  0  0  0  0  0
   37.0850   18.5780   26.9740 C   0  0  0  0  0  0  0  0  0  0  0  0
   38.2440   19.2840   26.9720 C   0  0  0  0  0  0  0  0  0  0  0  0
   38.8750   19.8900   28.0330 C   0  0  0  0  0  0  0  0  0  0  0  0
   38.2300   19.7530   29.2450 C   0  0  0  0  0  0  0  0  0  0  0  0
   37.7210   21.5800   32.2090 O   0  0  0  0  0  0  0  0  0  0  0  0
   39.1440   22.5760   35.2250 N   0  0  0  0  0  0  0  0  0  0  0  0
   40.2330   22.1510   34.5730 C   0  0  0  0  0  0  0  0  0  0  0  0
   39.8810   21.7210   33.3610 N   0  0  0  0  0  0  0  0  0  0  0  0
   38.5250   21.8860   33.2630 C   0  0  0  0  0  0  0  0  0  0  0  0
   38.0810   22.4120   34.4110 N   0  0  0  0  0  0  0  0  0  0  0  0
   37.8560   24.0330   36.6540 C   0  0  0  0  0  0  0  0  0  0  0  0
   38.8930   23.1370   36.5340 C   0  0  0  0  0  0  0  0  0  0  0  0
   39.6810   22.7730   37.6370 C   0  0  0  0  0  0  0  0  0  0  0  0
   39.3660   23.3540   38.8370 N   0  0  0  0  0  0  0  0  0  0  0  0
   38.3360   24.2380   38.9310 C   0  0  0  0  0  0  0  0  0  0  0  0
   37.6060   24.5600   37.8560 N   0  0  0  0  0  0  0  0  0  0  0  0
   36.5376   22.6645   33.1237 H   0  0  0  0  0  0  0  0  0  0  0  0
   35.9428   21.7762   30.1402 H   0  0  0  0  0  0  0  0  0  0  0  0
   34.7464   22.5893   30.7223 H   0  0  0  0  0  0  0  0  0  0  0  0
   34.6897   20.2355   32.6700 H   0  0  0  0  0  0  0  0  0  0  0  0
   34.9168   18.6010   33.5523 H   0  0  0  0  0  0  0  0  0  0  0  0
   35.7599   16.2631   32.4984 H   0  0  0  0  0  0  0  0  0  0  0  0
   35.5713   17.9352   28.2905 H   0  0  0  0  0  0  0  0  0  0  0  0
   36.6487   18.1218   26.0732 H   0  0  0  0  0  0  0  0  0  0  0  0
   38.7426   19.3844   25.9967 H   0  0  0  0  0  0  0  0  0  0  0  0
   39.8206   20.4412   27.9239 H   0  0  0  0  0  0  0  0  0  0  0  0
   38.6854   20.2174   30.1321 H   0  0  0  0  0  0  0  0  0  0  0  0
   41.2573   22.1557   34.9740 H   0  0  0  0  0  0  0  0  0  0  0  0
   37.2469   24.3091   35.7807 H   0  0  0  0  0  0  0  0  0  0  0  0
   40.5104   22.0567   37.5426 H   0  0  0  0  0  0  0  0  0  0  0  0
   38.0999   24.6944   39.9036 H   0  0  0  0  0  0  0  0  0  0  0  0
  2  3  1  0
  2  1  1  0
  3  1  1  0
  4  3  1  0
  4  5  1  0
  6  5  2  0
  7  6  1  0
  8  7  2  0
  8  4  1  0
  9  8  1  0
 10  9  2  0
 11 10  1  0
 12 11  2  0
 12 13  1  0
 13 14  2  0
 14  9  1  0
 15  1  1  0
 15 19  1  0
 16 22  1  0
 17 16  1  0
 18 17  2  0
 19 18  1  0
 19 20  2  0
 20 16  1  0
 21 26  2  0
 22 21  1  0
 22 23  2  0
 23 24  1  0
 24 25  2  0
 26 25  1  0
  1 27  1  1
  2 28  1  0
  2 29  1  0
  3 30  1  1
  5 31  1  0
  6 32  1  0
 10 33  1  0
 11 34  1  0
 12 35  1  0
 13 36  1  0
 14 37  1  0
 17 38  1  0
 21 39  1  0
 23 40  1  0
 25 41  1  0
M  ISO  8  27  13  28  13  29  13  30  13  31  14  32  14  33  14  34  14
M  ISO  7  35  14  36  14  37  14  38  14  39  14  40  14  41  14
M  END
>  <minimizedAffinity>  (1) 
-5.05536413

>  <minimizedRMSD>  (1) 
1.9863714

$$$$
