
     RDKit          3D

 45 49  0  0  1  0  0  0  0  0999 V2000
   35.5260   20.0320   33.0760 C   0  0  1  0  0  0  0  0  0  0  0  0
   34.5440   19.8410   31.9860 C   0  0  0  0  0  0  0  0  0  0  0  0
   35.1820   18.6520   32.5800 C   0  0  1  0  0  0  0  0  0  0  0  0
   35.9810   17.7790   31.8760 N   0  0  0  0  0  0  0  0  0  0  0  0
   36.3330   16.6100   32.5000 C   0  0  0  0  0  0  0  0  0  0  0  0
   37.1350   15.8800   31.6390 C   0  0  0  0  0  0  0  0  0  0  0  0
   37.2580   16.6240   30.4890 N   0  0  0  0  0  0  0  0  0  0  0  0
   36.5490   17.7480   30.6870 C   0  0  0  0  0  0  0  0  0  0  0  0
   36.7840   18.4190   29.4670 N   0  0  0  0  0  0  0  0  0  0  0  0
   37.1990   19.8410   29.6000 C   0  0  0  0  0  0  0  0  0  0  0  0
   38.6930   19.8120   29.2070 C   0  0  0  0  0  0  0  0  0  0  0  0
   38.7750   19.2690   27.8840 N   0  0  0  0  0  0  0  0  0  0  0  0
   37.4970   19.0200   27.2660 C   0  0  0  0  0  0  0  0  0  0  0  0
   36.7740   17.9940   28.0790 C   0  0  0  0  0  0  0  0  0  0  0  0
   36.8370   20.4180   32.7560 O   0  0  0  0  0  0  0  0  0  0  0  0
   38.0280   22.8150   34.9890 N   0  0  0  0  0  0  0  0  0  0  0  0
   38.0280   23.5230   33.8360 C   0  0  0  0  0  0  0  0  0  0  0  0
   37.5850   22.7530   32.8410 N   0  0  0  0  0  0  0  0  0  0  0  0
   37.3060   21.5310   33.3880 C   0  0  0  0  0  0  0  0  0  0  0  0
   37.5820   21.5870   34.7070 N   0  0  0  0  0  0  0  0  0  0  0  0
   37.5200   23.9150   37.0610 C   0  0  0  0  0  0  0  0  0  0  0  0
   38.3870   23.1180   36.3450 C   0  0  0  0  0  0  0  0  0  0  0  0
   39.5660   22.6270   36.9150 C   0  0  0  0  0  0  0  0  0  0  0  0
   39.8110   22.9800   38.2220 N   0  0  0  0  0  0  0  0  0  0  0  0
   38.9390   23.7670   38.9040 C   0  0  0  0  0  0  0  0  0  0  0  0
   37.8090   24.2210   38.3140 N   0  0  0  0  0  0  0  0  0  0  0  0
   35.4954   20.5944   34.0208 H   0  0  0  0  0  0  0  0  0  0  0  0
   34.8008   20.1437   30.9601 H   0  0  0  0  0  0  0  0  0  0  0  0
   33.5026   20.1560   31.8239 H   0  0  0  0  0  0  0  0  0  0  0  0
   34.8619   17.7249   33.0780 H   0  0  0  0  0  0  0  0  0  0  0  0
   36.0299   16.3041   33.5122 H   0  0  0  0  0  0  0  0  0  0  0  0
   37.5860   14.8963   31.8365 H   0  0  0  0  0  0  0  0  0  0  0  0
   36.6243   20.4849   28.9180 H   0  0  0  0  0  0  0  0  0  0  0  0
   37.0261   20.2481   30.6072 H   0  0  0  0  0  0  0  0  0  0  0  0
   39.1060   20.8314   29.2218 H   0  0  0  0  0  0  0  0  0  0  0  0
   39.2703   19.1999   29.9156 H   0  0  0  0  0  0  0  0  0  0  0  0
   39.2948   19.9341   27.2938 H   0  0  0  0  0  0  0  0  0  0  0  0
   36.9112   19.9505   27.2352 H   0  0  0  0  0  0  0  0  0  0  0  0
   37.6379   18.6576   26.2370 H   0  0  0  0  0  0  0  0  0  0  0  0
   35.7362   17.9037   27.7256 H   0  0  0  0  0  0  0  0  0  0  0  0
   37.2680   17.0162   27.9796 H   0  0  0  0  0  0  0  0  0  0  0  0
   38.3445   24.5716   33.7348 H   0  0  0  0  0  0  0  0  0  0  0  0
   36.5978   24.2922   36.5949 H   0  0  0  0  0  0  0  0  0  0  0  0
   40.2616   21.9913   36.3475 H   0  0  0  0  0  0  0  0  0  0  0  0
   39.1539   24.0385   39.9481 H   0  0  0  0  0  0  0  0  0  0  0  0
  2  3  1  0
  2  1  1  0
  3  1  1  0
  4  5  1  0
  4  3  1  0
  6  5  2  0
  7  8  2  0
  7  6  1  0
  8  4  1  0
  9 10  1  0
  9  8  1  0
 11 10  1  0
 12 11  1  0
 13 12  1  0
 13 14  1  0
 14  9  1  0
 15  1  1  0
 15 19  1  0
 16 22  1  0
 17 16  1  0
 18 19  1  0
 18 17  2  0
 19 20  2  0
 20 16  1  0
 21 26  2  0
 22 23  2  0
 22 21  1  0
 23 24  1  0
 24 25  2  0
 26 25  1  0
  1 27  1  1
  2 28  1  0
  2 29  1  0
  3 30  1  1
  5 31  1  0
  6 32  1  0
 10 33  1  0
 10 34  1  0
 11 35  1  0
 11 36  1  0
 12 37  1  0
 13 38  1  0
 13 39  1  0
 14 40  1  0
 14 41  1  0
 17 42  1  0
 21 43  1  0
 23 44  1  0
 25 45  1  0
M  ISO  8  27  13  28  13  29  13  30  13  31  14  32  14  33  13  34  13
M  ISO  8  35  13  36  13  37   5  38  13  39  13  40  13  41  13  42  14
M  ISO  3  43  14  44  14  45  14
M  END
>  <minimizedAffinity>  (1) 
-5.05325842

>  <minimizedRMSD>  (1) 
1.87978828

$$$$
