
     RDKit          3D

 44 48  0  0  1  0  0  0  0  0999 V2000
   36.2990   21.8600   32.2570 C   0  0  1  0  0  0  0  0  0  0  0  0
   35.3830   21.8010   31.0930 C   0  0  0  0  0  0  0  0  0  0  0  0
   35.4100   20.6660   32.0340 C   0  0  1  0  0  0  0  0  0  0  0  0
   35.7710   19.3870   31.6790 N   0  0  0  0  0  0  0  0  0  0  0  0
   35.4350   18.3790   32.5520 C   0  0  0  0  0  0  0  0  0  0  0  0
   35.8960   17.1760   32.0170 C   0  0  0  0  0  0  0  0  0  0  0  0
   36.5020   17.4880   30.8270 N   0  0  0  0  0  0  0  0  0  0  0  0
   36.3980   18.8180   30.6720 C   0  0  0  0  0  0  0  0  0  0  0  0
   38.2620   19.3920   26.9620 C   0  0  0  0  0  0  0  0  0  0  0  0
   37.0980   18.6800   26.9540 C   0  0  0  0  0  0  0  0  0  0  0  0
   36.5050   18.4910   28.1930 C   0  0  0  0  0  0  0  0  0  0  0  0
   37.0490   18.9930   29.4010 C   0  0  0  0  0  0  0  0  0  0  0  0
   38.2480   19.6990   29.2180 C   0  0  0  0  0  0  0  0  0  0  0  0
   38.9080   19.9370   28.0410 C   0  0  0  0  0  0  0  0  0  0  0  0
   38.9880   19.6140   25.3770 S   0  0  0  0  0  0  0  0  0  0  0  0
   40.4610   19.8220   25.5060 O   0  0  0  0  0  0  0  0  0  0  0  0
   38.3650   20.7920   24.6840 O   0  0  0  0  0  0  0  0  0  0  0  0
   37.6560   21.5710   32.0710 O   0  0  0  0  0  0  0  0  0  0  0  0
   39.1390   22.4550   35.0910 N   0  0  0  0  0  0  0  0  0  0  0  0
   40.2180   22.0590   34.4000 C   0  0  0  0  0  0  0  0  0  0  0  0
   39.8400   21.6740   33.1800 N   0  0  0  0  0  0  0  0  0  0  0  0
   38.4810   21.8400   33.1220 C   0  0  0  0  0  0  0  0  0  0  0  0
   38.0550   22.3240   34.3050 N   0  0  0  0  0  0  0  0  0  0  0  0
   37.8060   23.7340   36.6360 C   0  0  0  0  0  0  0  0  0  0  0  0
   38.9360   22.9670   36.4280 C   0  0  0  0  0  0  0  0  0  0  0  0
   39.8280   22.6940   37.4650 C   0  0  0  0  0  0  0  0  0  0  0  0
   39.5290   23.2210   38.6910 N   0  0  0  0  0  0  0  0  0  0  0  0
   38.4140   23.9730   38.8740 C   0  0  0  0  0  0  0  0  0  0  0  0
   37.5710   24.2190   37.8490 N   0  0  0  0  0  0  0  0  0  0  0  0
   36.4734   22.6182   33.0347 H   0  0  0  0  0  0  0  0  0  0  0  0
   35.7938   21.6809   30.0797 H   0  0  0  0  0  0  0  0  0  0  0  0
   34.5929   22.4577   30.7000 H   0  0  0  0  0  0  0  0  0  0  0  0
   34.6967   20.1250   32.6732 H   0  0  0  0  0  0  0  0  0  0  0  0
   34.8976   18.5000   33.5041 H   0  0  0  0  0  0  0  0  0  0  0  0
   35.7937   16.1751   32.4617 H   0  0  0  0  0  0  0  0  0  0  0  0
   36.6595   18.2826   26.0268 H   0  0  0  0  0  0  0  0  0  0  0  0
   35.5645   17.9225   28.2404 H   0  0  0  0  0  0  0  0  0  0  0  0
   38.7127   20.1097   30.1265 H   0  0  0  0  0  0  0  0  0  0  0  0
   39.8495   20.5014   27.9701 H   0  0  0  0  0  0  0  0  0  0  0  0
   38.7637   18.4865   24.6318 H   0  0  0  0  0  0  0  0  0  0  0  0
   41.2506   22.0527   34.7790 H   0  0  0  0  0  0  0  0  0  0  0  0
   37.1111   23.9398   35.8085 H   0  0  0  0  0  0  0  0  0  0  0  0
   40.7291   22.0839   37.3043 H   0  0  0  0  0  0  0  0  0  0  0  0
   38.1948   24.3868   39.8693 H   0  0  0  0  0  0  0  0  0  0  0  0
  2  3  1  0
  2  1  1  0
  3  1  1  0
  4  3  1  0
  4  5  1  0
  6  5  2  0
  7  6  1  0
  8  7  2  0
  8  4  1  0
  9 14  2  0
 10  9  1  0
 10 11  2  0
 11 12  1  0
 12  8  1  0
 13 12  2  0
 14 13  1  0
 15 16  2  0
 15  9  1  0
 17 15  2  0
 18  1  1  0
 18 22  1  0
 19 25  1  0
 20 19  1  0
 21 20  2  0
 22 21  1  0
 22 23  2  0
 23 19  1  0
 24 29  2  0
 25 24  1  0
 25 26  2  0
 26 27  1  0
 27 28  2  0
 29 28  1  0
  1 30  1  1
  2 31  1  0
  2 32  1  0
  3 33  1  1
  5 34  1  0
  6 35  1  0
 10 36  1  0
 11 37  1  0
 13 38  1  0
 14 39  1  0
 15 40  1  0
 20 41  1  0
 24 42  1  0
 26 43  1  0
 28 44  1  0
M  ISO  8  30  13  31  13  32  13  33  13  34  14  35  14  36  14  37  14
M  ISO  7  38  14  39  14  40  11  41  14  42  14  43  14  44  14
M  END
>  <minimizedAffinity>  (1) 
-5.0354104

>  <minimizedRMSD>  (1) 
2.56179762

$$$$
