
     RDKit          3D

 44 48  0  0  1  0  0  0  0  0999 V2000
   35.3890   20.3270   32.9000 C   0  0  1  0  0  0  0  0  0  0  0  0
   34.4070   20.0810   31.8270 C   0  0  0  0  0  0  0  0  0  0  0  0
   35.0520   18.9430   32.4620 C   0  0  1  0  0  0  0  0  0  0  0  0
   35.7840   17.9780   31.8570 N   0  0  0  0  0  0  0  0  0  0  0  0
   35.8990   16.7590   32.5130 C   0  0  0  0  0  0  0  0  0  0  0  0
   36.7670   15.9650   31.7990 C   0  0  0  0  0  0  0  0  0  0  0  0
   37.1370   16.7480   30.7290 N   0  0  0  0  0  0  0  0  0  0  0  0
   36.5470   17.8990   30.7870 C   0  0  0  0  0  0  0  0  0  0  0  0
   36.9010   18.6700   29.6250 C   0  0  0  0  0  0  0  0  0  0  0  0
   36.7140   18.0640   28.2800 C   0  0  0  0  0  0  0  0  0  0  0  0
   37.3720   19.0650   27.3590 C   0  0  0  0  0  0  0  0  0  0  0  0
   38.4690   19.6610   28.2080 C   0  0  0  0  0  0  0  0  0  0  0  0
   38.4520   18.7100   29.3880 C   0  0  0  0  0  0  0  0  0  0  0  0
   36.7060   20.6360   32.6120 O   0  0  0  0  0  0  0  0  0  0  0  0
   38.0310   22.9150   34.8860 N   0  0  0  0  0  0  0  0  0  0  0  0
   38.0890   23.6380   33.7620 C   0  0  0  0  0  0  0  0  0  0  0  0
   37.6080   22.9160   32.7530 N   0  0  0  0  0  0  0  0  0  0  0  0
   37.2380   21.6920   33.2770 C   0  0  0  0  0  0  0  0  0  0  0  0
   37.5040   21.7100   34.5870 N   0  0  0  0  0  0  0  0  0  0  0  0
   37.5280   23.9500   37.0090 C   0  0  0  0  0  0  0  0  0  0  0  0
   38.3930   23.1590   36.2650 C   0  0  0  0  0  0  0  0  0  0  0  0
   39.5580   22.6210   36.8200 C   0  0  0  0  0  0  0  0  0  0  0  0
   39.8030   22.9140   38.1370 N   0  0  0  0  0  0  0  0  0  0  0  0
   38.9410   23.6920   38.8510 C   0  0  0  0  0  0  0  0  0  0  0  0
   37.8220   24.1960   38.2830 N   0  0  0  0  0  0  0  0  0  0  0  0
   35.3450   20.9629   33.7965 H   0  0  0  0  0  0  0  0  0  0  0  0
   34.6562   20.3409   30.7876 H   0  0  0  0  0  0  0  0  0  0  0  0
   33.3618   20.3780   31.6555 H   0  0  0  0  0  0  0  0  0  0  0  0
   34.7567   18.0306   33.0008 H   0  0  0  0  0  0  0  0  0  0  0  0
   35.3846   16.4768   33.4434 H   0  0  0  0  0  0  0  0  0  0  0  0
   37.0910   14.9395   32.0303 H   0  0  0  0  0  0  0  0  0  0  0  0
   36.3026   19.5611   29.8656 H   0  0  0  0  0  0  0  0  0  0  0  0
   37.2090   17.0837   28.2162 H   0  0  0  0  0  0  0  0  0  0  0  0
   35.6585   17.8773   28.0327 H   0  0  0  0  0  0  0  0  0  0  0  0
   36.6559   19.8380   27.0432 H   0  0  0  0  0  0  0  0  0  0  0  0
   37.7491   18.6091   26.4317 H   0  0  0  0  0  0  0  0  0  0  0  0
   39.4384   19.6461   27.6883 H   0  0  0  0  0  0  0  0  0  0  0  0
   38.3225   20.7193   28.4698 H   0  0  0  0  0  0  0  0  0  0  0  0
   38.8584   17.7209   29.1301 H   0  0  0  0  0  0  0  0  0  0  0  0
   39.0620   19.0084   30.2534 H   0  0  0  0  0  0  0  0  0  0  0  0
   38.4732   24.6658   33.6842 H   0  0  0  0  0  0  0  0  0  0  0  0
   36.6169   24.3654   36.5538 H   0  0  0  0  0  0  0  0  0  0  0  0
   40.2433   21.9945   36.2302 H   0  0  0  0  0  0  0  0  0  0  0  0
   39.1591   23.9134   39.9062 H   0  0  0  0  0  0  0  0  0  0  0  0
  2  3  1  0
  2  1  1  0
  3  1  1  0
  4  3  1  0
  4  5  1  0
  6  5  2  0
  7  8  2  0
  7  6  1  0
  8  4  1  0
  9  8  1  0
 10  9  1  0
 11 12  1  0
 11 10  1  0
 12 13  1  0
 13  9  1  0
 14  1  1  0
 14 18  1  0
 15 21  1  0
 16 15  1  0
 17 18  1  0
 17 16  2  0
 18 19  2  0
 19 15  1  0
 20 25  2  0
 21 22  2  0
 21 20  1  0
 22 23  1  0
 23 24  2  0
 25 24  1  0
  1 26  1  1
  2 27  1  0
  2 28  1  0
  3 29  1  1
  5 30  1  0
  6 31  1  0
  9 32  1  0
 10 33  1  0
 10 34  1  0
 11 35  1  0
 11 36  1  0
 12 37  1  0
 12 38  1  0
 13 39  1  0
 13 40  1  0
 16 41  1  0
 20 42  1  0
 22 43  1  0
 24 44  1  0
M  ISO  8  26  13  27  13  28  13  29  13  30  14  31  14  32  13  33  13
M  ISO  8  34  13  35  13  36  13  37  13  38  13  39  13  40  13  41  14
M  ISO  3  42  14  43  14  44  14
M  END
>  <minimizedAffinity>  (1) 
-5.00284338

>  <minimizedRMSD>  (1) 
1.54174626

$$$$
