
     RDKit          3D

 37 41  0  0  1  0  0  0  0  0999 V2000
   36.3270   21.8500   32.2340 C   0  0  1  0  0  0  0  0  0  0  0  0
   35.4380   21.7940   31.0470 C   0  0  0  0  0  0  0  0  0  0  0  0
   35.3960   20.6830   32.0240 C   0  0  1  0  0  0  0  0  0  0  0  0
   35.7420   19.3850   31.6880 N   0  0  0  0  0  0  0  0  0  0  0  0
   35.4140   18.4070   32.6040 C   0  0  0  0  0  0  0  0  0  0  0  0
   35.8500   17.1880   32.1020 C   0  0  0  0  0  0  0  0  0  0  0  0
   36.4230   17.4490   30.9090 N   0  0  0  0  0  0  0  0  0  0  0  0
   36.3430   18.7830   30.6820 C   0  0  0  0  0  0  0  0  0  0  0  0
   36.9250   18.9480   29.4100 N   0  0  0  0  0  0  0  0  0  0  0  0
   38.0970   19.6050   29.1120 C   0  0  0  0  0  0  0  0  0  0  0  0
   38.3120   19.4840   27.7690 N   0  0  0  0  0  0  0  0  0  0  0  0
   37.2980   18.7760   27.2820 C   0  0  0  0  0  0  0  0  0  0  0  0
   36.4620   18.4480   28.2460 N   0  0  0  0  0  0  0  0  0  0  0  0
   37.6810   21.5170   32.0790 O   0  0  0  0  0  0  0  0  0  0  0  0
   39.1560   22.4420   35.0900 N   0  0  0  0  0  0  0  0  0  0  0  0
   40.2360   22.0520   34.4070 C   0  0  0  0  0  0  0  0  0  0  0  0
   39.8650   21.6540   33.1900 N   0  0  0  0  0  0  0  0  0  0  0  0
   38.5090   21.8000   33.1190 C   0  0  0  0  0  0  0  0  0  0  0  0
   38.0750   22.2880   34.2950 N   0  0  0  0  0  0  0  0  0  0  0  0
   37.8000   23.7280   36.6200 C   0  0  0  0  0  0  0  0  0  0  0  0
   38.9270   22.9630   36.4210 C   0  0  0  0  0  0  0  0  0  0  0  0
   39.8180   22.6940   37.4620 C   0  0  0  0  0  0  0  0  0  0  0  0
   39.5180   23.2280   38.6910 N   0  0  0  0  0  0  0  0  0  0  0  0
   38.3950   23.9810   38.8580 C   0  0  0  0  0  0  0  0  0  0  0  0
   37.5650   24.2170   37.8370 N   0  0  0  0  0  0  0  0  0  0  0  0
   36.5108   22.6167   33.0010 H   0  0  0  0  0  0  0  0  0  0  0  0
   35.8688   21.6281   30.0485 H   0  0  0  0  0  0  0  0  0  0  0  0
   34.6852   22.4697   30.6150 H   0  0  0  0  0  0  0  0  0  0  0  0
   34.6469   20.1918   32.6624 H   0  0  0  0  0  0  0  0  0  0  0  0
   34.8982   18.5649   33.5627 H   0  0  0  0  0  0  0  0  0  0  0  0
   35.7482   16.2037   32.5824 H   0  0  0  0  0  0  0  0  0  0  0  0
   38.7445   20.1330   29.8275 H   0  0  0  0  0  0  0  0  0  0  0  0
   37.1743   18.5026   26.2237 H   0  0  0  0  0  0  0  0  0  0  0  0
   41.2677   22.0583   34.7884 H   0  0  0  0  0  0  0  0  0  0  0  0
   37.1069   23.9317   35.7905 H   0  0  0  0  0  0  0  0  0  0  0  0
   40.7187   22.0825   37.3048 H   0  0  0  0  0  0  0  0  0  0  0  0
   38.1676   24.4015   39.8487 H   0  0  0  0  0  0  0  0  0  0  0  0
  2  3  1  0
  2  1  1  0
  3  1  1  0
  4  3  1  0
  4  5  1  0
  6  5  2  0
  7  6  1  0
  8  7  2  0
  8  4  1  0
  9  8  1  0
 10  9  1  0
 11 10  2  0
 12 11  1  0
 12 13  2  0
 13  9  1  0
 14  1  1  0
 14 18  1  0
 15 21  1  0
 16 15  1  0
 17 16  2  0
 18 17  1  0
 18 19  2  0
 19 15  1  0
 20 25  2  0
 21 20  1  0
 21 22  2  0
 22 23  1  0
 23 24  2  0
 25 24  1  0
  1 26  1  1
  2 27  1  0
  2 28  1  0
  3 29  1  1
  5 30  1  0
  6 31  1  0
 10 32  1  0
 12 33  1  0
 16 34  1  0
 20 35  1  0
 22 36  1  0
 24 37  1  0
M  ISO  8  26  13  27  13  28  13  29  13  30  14  31  14  32  14  33  14
M  ISO  4  34  14  35  14  36  14  37  14
M  END
>  <minimizedAffinity>  (1) 
-4.98816633

>  <minimizedRMSD>  (1) 
1.75644004

$$$$
