
     RDKit          3D

 40 43  0  0  1  0  0  0  0  0999 V2000
   35.4850   20.4280   32.8520 C   0  0  1  0  0  0  0  0  0  0  0  0
   34.3080   19.9800   32.0900 C   0  0  0  0  0  0  0  0  0  0  0  0
   35.2960   18.9990   32.4760 C   0  0  1  0  0  0  0  0  0  0  0  0
   36.0020   18.1650   31.6710 N   0  0  0  0  0  0  0  0  0  0  0  0
   36.3450   16.9230   32.1850 C   0  0  0  0  0  0  0  0  0  0  0  0
   37.1410   16.2780   31.2730 C   0  0  0  0  0  0  0  0  0  0  0  0
   37.2410   17.1720   30.2320 N   0  0  0  0  0  0  0  0  0  0  0  0
   36.5670   18.2500   30.4830 C   0  0  0  0  0  0  0  0  0  0  0  0
   36.6730   19.1280   29.3360 C   0  0  0  0  0  0  0  0  0  0  0  0
   36.5830   18.5160   27.9740 C   0  0  0  0  0  0  0  0  0  0  0  0
   38.1110   19.7360   29.1980 C   0  0  0  0  0  0  0  0  0  0  0  0
   36.5950   20.9610   32.2330 O   0  0  0  0  0  0  0  0  0  0  0  0
   38.6970   22.0660   34.7690 N   0  0  0  0  0  0  0  0  0  0  0  0
   39.5900   21.8690   33.7910 C   0  0  0  0  0  0  0  0  0  0  0  0
   38.9620   21.4340   32.6980 N   0  0  0  0  0  0  0  0  0  0  0  0
   37.6220   21.3590   33.0200 C   0  0  0  0  0  0  0  0  0  0  0  0
   37.4780   21.7480   34.2870 N   0  0  0  0  0  0  0  0  0  0  0  0
   37.6130   23.0240   36.7000 C   0  0  0  0  0  0  0  0  0  0  0  0
   38.7770   22.5210   36.1370 C   0  0  0  0  0  0  0  0  0  0  0  0
   39.9750   22.4550   36.8530 C   0  0  0  0  0  0  0  0  0  0  0  0
   39.9460   22.9140   38.1470 N   0  0  0  0  0  0  0  0  0  0  0  0
   38.7900   23.4040   38.6810 C   0  0  0  0  0  0  0  0  0  0  0  0
   37.6590   23.4530   37.9670 N   0  0  0  0  0  0  0  0  0  0  0  0
   35.5734   21.0682   33.7421 H   0  0  0  0  0  0  0  0  0  0  0  0
   34.2028   20.2619   31.0320 H   0  0  0  0  0  0  0  0  0  0  0  0
   33.2207   20.0727   32.2287 H   0  0  0  0  0  0  0  0  0  0  0  0
   35.3300   18.0536   33.0373 H   0  0  0  0  0  0  0  0  0  0  0  0
   36.0313   16.5226   33.1603 H   0  0  0  0  0  0  0  0  0  0  0  0
   37.5938   15.2789   31.3548 H   0  0  0  0  0  0  0  0  0  0  0  0
   35.8317   19.8011   29.5577 H   0  0  0  0  0  0  0  0  0  0  0  0
   36.4236   17.4318   28.0690 H   0  0  0  0  0  0  0  0  0  0  0  0
   35.7410   18.9638   27.4257 H   0  0  0  0  0  0  0  0  0  0  0  0
   37.5182   18.7024   27.4257 H   0  0  0  0  0  0  0  0  0  0  0  0
   38.5315   19.9138   30.1988 H   0  0  0  0  0  0  0  0  0  0  0  0
   38.7551   19.0332   28.6492 H   0  0  0  0  0  0  0  0  0  0  0  0
   38.0556   20.6877   28.6492 H   0  0  0  0  0  0  0  0  0  0  0  0
   40.6734   22.0395   33.8759 H   0  0  0  0  0  0  0  0  0  0  0  0
   36.6786   23.0690   36.1214 H   0  0  0  0  0  0  0  0  0  0  0  0
   40.8955   22.0553   36.4026 H   0  0  0  0  0  0  0  0  0  0  0  0
   38.7875   23.7662   39.7197 H   0  0  0  0  0  0  0  0  0  0  0  0
  2  3  1  0
  2  1  1  0
  3  1  1  0
  4  5  1  0
  4  3  1  0
  6  5  2  0
  7  8  2  0
  7  6  1  0
  8  4  1  0
  9  8  1  0
 10  9  1  0
 11  9  1  0
 12  1  1  0
 12 16  1  0
 13 19  1  0
 14 13  1  0
 15 16  1  0
 15 14  2  0
 16 17  2  0
 17 13  1  0
 18 23  2  0
 19 18  1  0
 19 20  2  0
 20 21  1  0
 21 22  2  0
 23 22  1  0
  1 24  1  1
  2 25  1  0
  2 26  1  0
  3 27  1  1
  5 28  1  0
  6 29  1  0
  9 30  1  0
 10 31  1  0
 10 32  1  0
 10 33  1  0
 11 34  1  0
 11 35  1  0
 11 36  1  0
 14 37  1  0
 18 38  1  0
 20 39  1  0
 22 40  1  0
M  ISO  8  24  13  25  13  26  13  27  13  28  14  29  14  30   8  31   8
M  ISO  8  32   8  33   8  34   8  35   8  36   8  37  14  38  14  39  14
M  ISO  1  40  14
M  END
>  <minimizedAffinity>  (1) 
-4.91487455

>  <minimizedRMSD>  (1) 
1.11382556

$$$$
