
     RDKit          3D

 39 43  0  0  1  0  0  0  0  0999 V2000
   35.7880   21.9590   32.2240 C   0  0  1  0  0  0  0  0  0  0  0  0
   35.0450   21.7780   30.9550 C   0  0  0  0  0  0  0  0  0  0  0  0
   35.0480   20.6770   31.9400 C   0  0  1  0  0  0  0  0  0  0  0  0
   35.5770   19.4340   31.6750 N   0  0  0  0  0  0  0  0  0  0  0  0
   35.3370   18.4460   32.6050 C   0  0  0  0  0  0  0  0  0  0  0  0
   35.9590   17.2800   32.1610 C   0  0  0  0  0  0  0  0  0  0  0  0
   36.5610   17.5890   30.9720 N   0  0  0  0  0  0  0  0  0  0  0  0
   36.3040   18.8800   30.7260 C   0  0  0  0  0  0  0  0  0  0  0  0
   36.9650   19.0710   29.4650 C   0  0  0  0  0  0  0  0  0  0  0  0
   38.1890   19.7760   29.3620 C   0  0  0  0  0  0  0  0  0  0  0  0
   38.9090   19.9800   28.2050 C   0  0  0  0  0  0  0  0  0  0  0  0
   38.3300   19.4280   27.1320 N   0  0  0  0  0  0  0  0  0  0  0  0
   37.1750   18.7540   27.1810 C   0  0  0  0  0  0  0  0  0  0  0  0
   36.4770   18.5560   28.3020 N   0  0  0  0  0  0  0  0  0  0  0  0
   37.1820   21.7990   32.2250 O   0  0  0  0  0  0  0  0  0  0  0  0
   38.6400   23.4460   34.9240 N   0  0  0  0  0  0  0  0  0  0  0  0
   39.2170   24.0900   33.9040 C   0  0  0  0  0  0  0  0  0  0  0  0
   38.7710   23.5890   32.7520 N   0  0  0  0  0  0  0  0  0  0  0  0
   37.8840   22.5950   33.0760 C   0  0  0  0  0  0  0  0  0  0  0  0
   37.8050   22.5110   34.4150 N   0  0  0  0  0  0  0  0  0  0  0  0
   37.8000   24.3210   37.0120 C   0  0  0  0  0  0  0  0  0  0  0  0
   38.7190   23.5320   36.3650 C   0  0  0  0  0  0  0  0  0  0  0  0
   39.7010   22.8270   37.0740 C   0  0  0  0  0  0  0  0  0  0  0  0
   39.6970   22.9630   38.4380 N   0  0  0  0  0  0  0  0  0  0  0  0
   38.7740   23.7510   39.0510 C   0  0  0  0  0  0  0  0  0  0  0  0
   37.8470   24.4120   38.3380 N   0  0  0  0  0  0  0  0  0  0  0  0
   35.7872   22.7522   32.9861 H   0  0  0  0  0  0  0  0  0  0  0  0
   35.5966   21.6672   30.0098 H   0  0  0  0  0  0  0  0  0  0  0  0
   34.2583   22.3446   30.4353 H   0  0  0  0  0  0  0  0  0  0  0  0
   34.3097   20.0911   32.5072 H   0  0  0  0  0  0  0  0  0  0  0  0
   34.7574   18.5575   33.5332 H   0  0  0  0  0  0  0  0  0  0  0  0
   35.9646   16.3034   32.6672 H   0  0  0  0  0  0  0  0  0  0  0  0
   38.6023   20.1990   30.2895 H   0  0  0  0  0  0  0  0  0  0  0  0
   39.8572   20.5364   28.1673 H   0  0  0  0  0  0  0  0  0  0  0  0
   36.7774   18.3389   26.2431 H   0  0  0  0  0  0  0  0  0  0  0  0
   39.9471   24.9071   34.0006 H   0  0  0  0  0  0  0  0  0  0  0  0
   37.0360   24.8698   36.4418 H   0  0  0  0  0  0  0  0  0  0  0  0
   40.4399   22.1945   36.5603 H   0  0  0  0  0  0  0  0  0  0  0  0
   38.7865   23.8487   40.1466 H   0  0  0  0  0  0  0  0  0  0  0  0
  1 15  1  0
  2  3  1  0
  2  1  1  0
  3  1  1  0
  4  3  1  0
  4  5  1  0
  6  5  2  0
  7  6  1  0
  8  7  2  0
  8  4  1  0
  9  8  1  0
 10  9  2  0
 11 10  1  0
 12 13  1  0
 12 11  2  0
 13 14  2  0
 14  9  1  0
 15 19  1  0
 16 22  1  0
 17 16  1  0
 18 19  1  0
 18 17  2  0
 19 20  2  0
 20 16  1  0
 21 26  2  0
 22 21  1  0
 22 23  2  0
 23 24  1  0
 24 25  2  0
 26 25  1  0
  1 27  1  1
  2 28  1  0
  2 29  1  0
  3 30  1  1
  5 31  1  0
  6 32  1  0
 10 33  1  0
 11 34  1  0
 13 35  1  0
 17 36  1  0
 21 37  1  0
 23 38  1  0
 25 39  1  0
M  ISO  8  27  13  28  13  29  13  30  13  31  14  32  14  33  14  34  14
M  ISO  5  35  14  36  14  37  14  38  14  39  14
M  END
>  <minimizedAffinity>  (1) 
-4.88922119

>  <minimizedRMSD>  (1) 
2.06419063

$$$$
