
     RDKit          3D

 38 42  0  0  1  0  0  0  0  0999 V2000
   35.4940   20.1530   33.1120 C   0  0  1  0  0  0  0  0  0  0  0  0
   34.4920   20.0280   32.0280 C   0  0  0  0  0  0  0  0  0  0  0  0
   35.1470   18.8210   32.5200 C   0  0  1  0  0  0  0  0  0  0  0  0
   35.9050   17.9790   31.7550 N   0  0  0  0  0  0  0  0  0  0  0  0
   36.1360   16.7020   32.2560 C   0  0  0  0  0  0  0  0  0  0  0  0
   36.9680   16.0490   31.3710 C   0  0  0  0  0  0  0  0  0  0  0  0
   37.2230   16.9290   30.3550 N   0  0  0  0  0  0  0  0  0  0  0  0
   36.5740   18.0580   30.6150 C   0  0  0  0  0  0  0  0  0  0  0  0
   36.7430   19.0050   29.5250 C   0  0  0  0  0  0  0  0  0  0  0  0
   37.8830   20.0910   29.6820 C   0  0  0  0  0  0  0  0  0  0  0  0
   37.8770   19.1690   28.6060 C   0  0  0  0  0  0  0  0  0  0  0  0
   36.7940   20.5390   32.8140 O   0  0  0  0  0  0  0  0  0  0  0  0
   38.0230   22.9210   35.0210 N   0  0  0  0  0  0  0  0  0  0  0  0
   38.0420   23.6230   33.8880 C   0  0  0  0  0  0  0  0  0  0  0  0
   37.5920   22.8720   32.8840 N   0  0  0  0  0  0  0  0  0  0  0  0
   37.2810   21.6390   33.4370 C   0  0  0  0  0  0  0  0  0  0  0  0
   37.5490   21.6840   34.7470 N   0  0  0  0  0  0  0  0  0  0  0  0
   37.5330   24.0040   37.1260 C   0  0  0  0  0  0  0  0  0  0  0  0
   38.3850   23.1970   36.3920 C   0  0  0  0  0  0  0  0  0  0  0  0
   39.5530   22.6600   36.9550 C   0  0  0  0  0  0  0  0  0  0  0  0
   39.8050   22.9790   38.2700 N   0  0  0  0  0  0  0  0  0  0  0  0
   38.9500   23.7740   38.9650 C   0  0  0  0  0  0  0  0  0  0  0  0
   37.8360   24.2720   38.3910 N   0  0  0  0  0  0  0  0  0  0  0  0
   35.4734   20.6591   34.0884 H   0  0  0  0  0  0  0  0  0  0  0  0
   34.7259   20.4051   31.0215 H   0  0  0  0  0  0  0  0  0  0  0  0
   33.4445   20.3413   31.9075 H   0  0  0  0  0  0  0  0  0  0  0  0
   34.8517   17.8569   32.9596 H   0  0  0  0  0  0  0  0  0  0  0  0
   35.7284   16.2877   33.1899 H   0  0  0  0  0  0  0  0  0  0  0  0
   37.3514   15.0221   31.4638 H   0  0  0  0  0  0  0  0  0  0  0  0
   35.6632   18.8900   29.3498 H   0  0  0  0  0  0  0  0  0  0  0  0
   37.6647   21.1541   29.5026 H   0  0  0  0  0  0  0  0  0  0  0  0
   38.5951   20.3769   30.4701 H   0  0  0  0  0  0  0  0  0  0  0  0
   38.6503   18.3875   28.5718 H   0  0  0  0  0  0  0  0  0  0  0  0
   37.9292   19.3070   27.5159 H   0  0  0  0  0  0  0  0  0  0  0  0
   38.3788   24.6661   33.7959 H   0  0  0  0  0  0  0  0  0  0  0  0
   36.6210   24.4161   36.6696 H   0  0  0  0  0  0  0  0  0  0  0  0
   40.2320   22.0174   36.3753 H   0  0  0  0  0  0  0  0  0  0  0  0
   39.1706   24.0158   40.0152 H   0  0  0  0  0  0  0  0  0  0  0  0
  2  3  1  0
  2  1  1  0
  3  1  1  0
  4  5  1  0
  4  3  1  0
  6  5  2  0
  7  8  2  0
  7  6  1  0
  8  4  1  0
  9 10  1  0
  9  8  1  0
 11  9  1  0
 11 10  1  0
 12  1  1  0
 12 16  1  0
 13 19  1  0
 14 13  1  0
 15 16  1  0
 15 14  2  0
 16 17  2  0
 17 13  1  0
 18 23  2  0
 19 20  2  0
 19 18  1  0
 20 21  1  0
 21 22  2  0
 23 22  1  0
  1 24  1  1
  2 25  1  0
  2 26  1  0
  3 27  1  1
  5 28  1  0
  6 29  1  0
  9 30  1  0
 10 31  1  0
 10 32  1  0
 11 33  1  0
 11 34  1  0
 14 35  1  0
 18 36  1  0
 20 37  1  0
 22 38  1  0
M  ISO  8  24  13  25  13  26  13  27  13  28  14  29  14  30  13  31  13
M  ISO  7  32  13  33  13  34  13  35  14  36  14  37  14  38  14
M  END
>  <minimizedAffinity>  (1) 
-4.86324549

>  <minimizedRMSD>  (1) 
1.30116856

$$$$
