
     RDKit          3D

 38 42  0  0  1  0  0  0  0  0999 V2000
   35.5800   20.5350   32.8110 C   0  0  1  0  0  0  0  0  0  0  0  0
   34.4110   20.1920   31.9660 C   0  0  0  0  0  0  0  0  0  0  0  0
   35.1830   19.1060   32.5780 C   0  0  1  0  0  0  0  0  0  0  0  0
   35.8370   18.1540   31.8470 N   0  0  0  0  0  0  0  0  0  0  0  0
   35.6700   16.8250   32.2610 C   0  0  0  0  0  0  0  0  0  0  0  0
   36.4520   16.0090   31.4750 C   0  0  0  0  0  0  0  0  0  0  0  0
   37.0880   16.8490   30.5830 N   0  0  0  0  0  0  0  0  0  0  0  0
   36.6630   18.1140   30.8630 C   0  0  0  0  0  0  0  0  0  0  0  0
   37.3620   18.7820   29.8680 C   0  0  0  0  0  0  0  0  0  0  0  0
   36.6170   18.3710   28.6610 C   0  0  0  0  0  0  0  0  0  0  0  0
   37.1100   18.7320   27.4410 N   0  0  0  0  0  0  0  0  0  0  0  0
   38.2510   19.4270   27.7300 C   0  0  0  0  0  0  0  0  0  0  0  0
   38.1990   19.3360   29.0490 N   0  0  0  0  0  0  0  0  0  0  0  0
   36.7840   20.8720   32.2100 O   0  0  0  0  0  0  0  0  0  0  0  0
   38.7980   22.0880   34.7660 N   0  0  0  0  0  0  0  0  0  0  0  0
   39.7200   21.9150   33.8130 C   0  0  0  0  0  0  0  0  0  0  0  0
   39.1490   21.4370   32.6940 N   0  0  0  0  0  0  0  0  0  0  0  0
   37.8020   21.3160   32.9960 C   0  0  0  0  0  0  0  0  0  0  0  0
   37.6020   21.7140   34.2540 N   0  0  0  0  0  0  0  0  0  0  0  0
   37.6530   23.0570   36.6580 C   0  0  0  0  0  0  0  0  0  0  0  0
   38.8210   22.5520   36.1320 C   0  0  0  0  0  0  0  0  0  0  0  0
   40.0000   22.4780   36.8940 C   0  0  0  0  0  0  0  0  0  0  0  0
   39.9180   22.9350   38.1930 N   0  0  0  0  0  0  0  0  0  0  0  0
   38.7600   23.4200   38.6730 C   0  0  0  0  0  0  0  0  0  0  0  0
   37.6530   23.4800   37.9250 N   0  0  0  0  0  0  0  0  0  0  0  0
   35.7153   21.2230   33.6586 H   0  0  0  0  0  0  0  0  0  0  0  0
   34.4574   20.3502   30.8784 H   0  0  0  0  0  0  0  0  0  0  0  0
   33.3488   20.4781   31.9671 H   0  0  0  0  0  0  0  0  0  0  0  0
   34.9990   18.2592   33.2556 H   0  0  0  0  0  0  0  0  0  0  0  0
   35.0191   16.4886   33.0815 H   0  0  0  0  0  0  0  0  0  0  0  0
   36.5497   14.9155   31.5435 H   0  0  0  0  0  0  0  0  0  0  0  0
   35.6877   17.7883   28.7434 H   0  0  0  0  0  0  0  0  0  0  0  0
   38.9854   19.9120   27.0701 H   0  0  0  0  0  0  0  0  0  0  0  0
   38.9865   19.8017   29.5222 H   0  0  0  0  0  0  0  0  0  0  0  0
   40.7921   22.1327   33.9283 H   0  0  0  0  0  0  0  0  0  0  0  0
   36.7393   23.1109   36.0478 H   0  0  0  0  0  0  0  0  0  0  0  0
   40.9361   22.0778   36.4775 H   0  0  0  0  0  0  0  0  0  0  0  0
   38.7217   23.7783   39.7123 H   0  0  0  0  0  0  0  0  0  0  0  0
  2  3  1  0
  2  1  1  0
  3  1  1  0
  4  5  1  0
  4  3  1  0
  6  5  2  0
  7  8  2  0
  7  6  1  0
  8  4  1  0
  9  8  1  0
 10  9  2  0
 11 12  2  0
 11 10  1  0
 12 13  1  0
 13  9  1  0
 14  1  1  0
 14 18  1  0
 15 21  1  0
 16 15  1  0
 17 18  1  0
 17 16  2  0
 18 19  2  0
 19 15  1  0
 20 25  2  0
 21 20  1  0
 21 22  2  0
 22 23  1  0
 23 24  2  0
 25 24  1  0
  1 26  1  1
  2 27  1  0
  2 28  1  0
  3 29  1  1
  5 30  1  0
  6 31  1  0
 10 32  1  0
 12 33  1  0
 13 34  1  0
 16 35  1  0
 20 36  1  0
 22 37  1  0
 24 38  1  0
M  ISO  8  26  13  27  13  28  13  29  13  30  14  31  14  32  14  33  14
M  ISO  5  34   9  35  14  36  14  37  14  38  14
M  END
>  <minimizedAffinity>  (1) 
-4.85597515

>  <minimizedRMSD>  (1) 
1.09275258

$$$$
