
     RDKit          3D

 36 40  0  0  1  0  0  0  0  0999 V2000
   36.2860   21.8890   32.1860 C   0  0  1  0  0  0  0  0  0  0  0  0
   35.3530   21.7860   31.0370 C   0  0  0  0  0  0  0  0  0  0  0  0
   35.3650   20.7060   32.0410 C   0  0  1  0  0  0  0  0  0  0  0  0
   35.7150   19.4060   31.7340 N   0  0  0  0  0  0  0  0  0  0  0  0
   35.3720   18.4370   32.6590 C   0  0  0  0  0  0  0  0  0  0  0  0
   35.8120   17.2100   32.1870 C   0  0  0  0  0  0  0  0  0  0  0  0
   36.4020   17.4530   30.9990 N   0  0  0  0  0  0  0  0  0  0  0  0
   36.3290   18.7770   30.7490 C   0  0  0  0  0  0  0  0  0  0  0  0
   36.9400   18.9250   29.4460 C   0  0  0  0  0  0  0  0  0  0  0  0
   36.4540   18.5480   28.2320 N   0  0  0  0  0  0  0  0  0  0  0  0
   37.3580   18.9290   27.3600 O   0  0  0  0  0  0  0  0  0  0  0  0
   38.3700   19.5150   27.9410 C   0  0  0  0  0  0  0  0  0  0  0  0
   38.1290   19.5260   29.2590 N   0  0  0  0  0  0  0  0  0  0  0  0
   37.6380   21.5740   31.9880 O   0  0  0  0  0  0  0  0  0  0  0  0
   39.1680   22.3910   35.0080 N   0  0  0  0  0  0  0  0  0  0  0  0
   40.2350   22.0380   34.2820 C   0  0  0  0  0  0  0  0  0  0  0  0
   39.8510   21.6850   33.0560 N   0  0  0  0  0  0  0  0  0  0  0  0
   38.4840   21.8240   33.0250 C   0  0  0  0  0  0  0  0  0  0  0  0
   38.0800   22.2560   34.2200 N   0  0  0  0  0  0  0  0  0  0  0  0
   37.7550   23.4340   36.6530 C   0  0  0  0  0  0  0  0  0  0  0  0
   38.9650   22.8490   36.3570 C   0  0  0  0  0  0  0  0  0  0  0  0
   39.9670   22.6940   37.3330 C   0  0  0  0  0  0  0  0  0  0  0  0
   39.6740   23.1550   38.5860 N   0  0  0  0  0  0  0  0  0  0  0  0
   38.4760   23.7290   38.8570 C   0  0  0  0  0  0  0  0  0  0  0  0
   37.5450   23.8610   37.9080 N   0  0  0  0  0  0  0  0  0  0  0  0
   36.4878   22.6779   32.9255 H   0  0  0  0  0  0  0  0  0  0  0  0
   35.7477   21.5983   30.0275 H   0  0  0  0  0  0  0  0  0  0  0  0
   34.5737   22.4384   30.6163 H   0  0  0  0  0  0  0  0  0  0  0  0
   34.6458   20.2222   32.7183 H   0  0  0  0  0  0  0  0  0  0  0  0
   34.8411   18.6101   33.6067 H   0  0  0  0  0  0  0  0  0  0  0  0
   35.7019   16.2340   32.6822 H   0  0  0  0  0  0  0  0  0  0  0  0
   39.2590   19.9251   27.4395 H   0  0  0  0  0  0  0  0  0  0  0  0
   41.2740   22.0391   34.6433 H   0  0  0  0  0  0  0  0  0  0  0  0
   36.9799   23.5487   35.8809 H   0  0  0  0  0  0  0  0  0  0  0  0
   40.9350   22.2265   37.0998 H   0  0  0  0  0  0  0  0  0  0  0  0
   38.2673   24.0917   39.8743 H   0  0  0  0  0  0  0  0  0  0  0  0
  2  3  1  0
  2  1  1  0
  3  1  1  0
  4  3  1  0
  4  5  1  0
  6  5  2  0
  7  6  1  0
  8  7  2  0
  8  4  1  0
  9  8  1  0
 10  9  2  0
 11 12  1  0
 11 10  1  0
 12 13  2  0
 13  9  1  0
 14  1  1  0
 14 18  1  0
 15 21  1  0
 16 15  1  0
 17 16  2  0
 18 17  1  0
 18 19  2  0
 19 15  1  0
 20 25  2  0
 21 20  1  0
 21 22  2  0
 22 23  1  0
 23 24  2  0
 25 24  1  0
  1 26  1  1
  2 27  1  0
  2 28  1  0
  3 29  1  1
  5 30  1  0
  6 31  1  0
 12 32  1  0
 16 33  1  0
 20 34  1  0
 22 35  1  0
 24 36  1  0
M  ISO  8  26  13  27  13  28  13  29  13  30  14  31  14  32  14  33  14
M  ISO  3  34  14  35  14  36  14
M  END
>  <minimizedAffinity>  (1) 
-4.7961812

>  <minimizedRMSD>  (1) 
1.71482527

$$$$
