
     RDKit          3D

 34 37  0  0  1  0  0  0  0  0999 V2000
   36.7470   20.9500   32.2410 O   0  0  0  0  0  0  0  0  0  0  0  0
   35.5790   20.5120   32.8390 C   0  0  1  0  0  0  0  0  0  0  0  0
   34.4060   20.1780   31.9920 C   0  0  0  0  0  0  0  0  0  0  0  0
   35.2440   19.0950   32.4890 C   0  0  1  0  0  0  0  0  0  0  0  0
   35.9260   18.2150   31.6820 N   0  0  0  0  0  0  0  0  0  0  0  0
   36.1670   16.9460   32.2020 C   0  0  0  0  0  0  0  0  0  0  0  0
   36.9130   16.2410   31.2840 C   0  0  0  0  0  0  0  0  0  0  0  0
   37.1030   17.0990   30.2300 N   0  0  0  0  0  0  0  0  0  0  0  0
   36.5040   18.2430   30.4980 C   0  0  0  0  0  0  0  0  0  0  0  0
   36.6590   19.1290   29.3520 C   0  0  0  0  0  0  0  0  0  0  0  0
   38.7860   22.1050   34.7870 N   0  0  0  0  0  0  0  0  0  0  0  0
   39.6990   21.9340   33.8230 C   0  0  0  0  0  0  0  0  0  0  0  0
   39.1060   21.4810   32.7150 N   0  0  0  0  0  0  0  0  0  0  0  0
   37.7620   21.3680   33.0190 C   0  0  0  0  0  0  0  0  0  0  0  0
   37.5820   21.7530   34.2860 N   0  0  0  0  0  0  0  0  0  0  0  0
   37.6590   23.0580   36.6910 C   0  0  0  0  0  0  0  0  0  0  0  0
   38.8270   22.5550   36.1610 C   0  0  0  0  0  0  0  0  0  0  0  0
   40.0100   22.4770   36.9100 C   0  0  0  0  0  0  0  0  0  0  0  0
   39.9490   22.9270   38.2010 N   0  0  0  0  0  0  0  0  0  0  0  0
   38.7850   23.4220   38.7110 C   0  0  0  0  0  0  0  0  0  0  0  0
   37.6760   23.4810   37.9650 N   0  0  0  0  0  0  0  0  0  0  0  0
   35.7022   21.1335   33.7382 H   0  0  0  0  0  0  0  0  0  0  0  0
   34.4157   20.4294   30.9211 H   0  0  0  0  0  0  0  0  0  0  0  0
   33.3308   20.4049   32.0405 H   0  0  0  0  0  0  0  0  0  0  0  0
   35.1186   18.1835   33.0919 H   0  0  0  0  0  0  0  0  0  0  0  0
   35.8214   16.5716   33.1769 H   0  0  0  0  0  0  0  0  0  0  0  0
   37.2794   15.2079   31.3761 H   0  0  0  0  0  0  0  0  0  0  0  0
   36.8386   20.1556   29.7039 H   0  0  0  0  0  0  0  0  0  0  0  0
   37.5124   18.7954   28.7434 H   0  0  0  0  0  0  0  0  0  0  0  0
   35.7430   19.1050   28.7434 H   0  0  0  0  0  0  0  0  0  0  0  0
   40.7752   22.1360   33.9275 H   0  0  0  0  0  0  0  0  0  0  0  0
   36.7402   23.1114   36.0885 H   0  0  0  0  0  0  0  0  0  0  0  0
   40.9398   22.0745   36.4816 H   0  0  0  0  0  0  0  0  0  0  0  0
   38.7576   23.7781   39.7514 H   0  0  0  0  0  0  0  0  0  0  0  0
  1  2  1  0
  1 14  1  0
  3  4  1  0
  3  2  1  0
  4  2  1  0
  5  6  1  0
  5  4  1  0
  7  6  2  0
  8  9  2  0
  8  7  1  0
  9  5  1  0
 10  9  1  0
 11 17  1  0
 12 11  1  0
 13 14  1  0
 13 12  2  0
 14 15  2  0
 15 11  1  0
 16 21  2  0
 17 16  1  0
 17 18  2  0
 18 19  1  0
 19 20  2  0
 21 20  1  0
  2 22  1  1
  3 23  1  0
  3 24  1  0
  4 25  1  1
  6 26  1  0
  7 27  1  0
 10 28  1  0
 10 29  1  0
 10 30  1  0
 12 31  1  0
 16 32  1  0
 18 33  1  0
 20 34  1  0
M  ISO  8  22  13  23  13  24  13  25  13  26  14  27  14  28   8  29   8
M  ISO  5  30   8  31  14  32  14  33  14  34  14
M  END
>  <minimizedAffinity>  (1) 
-4.71472883

>  <minimizedRMSD>  (1) 
0.719018817

$$$$
