
     RDKit          3D

 30 32  0  0  0  0  0  0  0  0999 V2000
   37.7630   22.6630   34.7940 C   0  0  0  0  0  0  0  0  0  0  0  0
   37.0570   21.5040   34.5370 C   0  0  0  0  0  0  0  0  0  0  0  0
   36.5990   21.2300   33.2680 C   0  0  0  0  0  0  0  0  0  0  0  0
   36.8460   22.1190   32.2450 C   0  0  0  0  0  0  0  0  0  0  0  0
   37.5470   23.2590   32.5230 C   0  0  0  0  0  0  0  0  0  0  0  0
   38.0300   23.5820   33.7870 C   0  0  0  0  0  0  0  0  0  0  0  0
   39.9360   22.6820   37.7330 C   0  0  0  0  0  0  0  0  0  0  0  0
   39.1510   23.2790   38.7150 C   0  0  0  0  0  0  0  0  0  0  0  0
   37.8630   23.6790   38.3650 C   0  0  0  0  0  0  0  0  0  0  0  0
   37.4100   23.4820   37.1000 N   0  0  0  0  0  0  0  0  0  0  0  0
   38.2230   22.8910   36.1700 C   0  0  0  0  0  0  0  0  0  0  0  0
   39.4800   22.4920   36.4830 N   0  0  0  0  0  0  0  0  0  0  0  0
   38.7790   24.8000   34.0930 C   0  0  0  0  0  0  0  0  0  0  0  0
   40.1540   24.8210   33.8560 C   0  0  0  0  0  0  0  0  0  0  0  0
   40.9380   25.9040   34.1080 C   0  0  0  0  0  0  0  0  0  0  0  0
   40.3700   27.0420   34.6200 C   0  0  0  0  0  0  0  0  0  0  0  0
   39.0060   27.0370   34.8620 C   0  0  0  0  0  0  0  0  0  0  0  0
   38.2130   25.9390   34.6060 C   0  0  0  0  0  0  0  0  0  0  0  0
   36.8590   20.7938   35.3533 H   0  0  0  0  0  0  0  0  0  0  0  0
   36.0378   20.3045   33.0716 H   0  0  0  0  0  0  0  0  0  0  0  0
   36.4865   21.9156   31.2255 H   0  0  0  0  0  0  0  0  0  0  0  0
   37.7405   23.9619   31.6993 H   0  0  0  0  0  0  0  0  0  0  0  0
   40.9560   22.3573   37.9864 H   0  0  0  0  0  0  0  0  0  0  0  0
   39.5350   23.4302   39.7346 H   0  0  0  0  0  0  0  0  0  0  0  0
   37.2127   24.1547   39.1139 H   0  0  0  0  0  0  0  0  0  0  0  0
   40.6275   23.9171   33.4451 H   0  0  0  0  0  0  0  0  0  0  0  0
   42.0181   25.8669   33.9028 H   0  0  0  0  0  0  0  0  0  0  0  0
   40.9794   27.9328   34.8324 H   0  0  0  0  0  0  0  0  0  0  0  0
   38.5382   27.9433   35.2739 H   0  0  0  0  0  0  0  0  0  0  0  0
   37.1331   25.9761   34.8119 H   0  0  0  0  0  0  0  0  0  0  0  0
  1 11  1  0
  2  1  2  0
  3  2  1  0
  4  5  1  0
  4  3  2  0
  5  6  2  0
  6 13  1  0
  6  1  1  0
  7  8  2  0
  9  8  1  0
 10  9  2  0
 11 12  2  0
 11 10  1  0
 12  7  1  0
 13 18  1  0
 14 13  2  0
 14 15  1  0
 15 16  2  0
 16 17  1  0
 18 17  2  0
  2 19  1  0
  3 20  1  0
  4 21  1  0
  5 22  1  0
  7 23  1  0
  8 24  1  0
  9 25  1  0
 14 26  1  0
 15 27  1  0
 16 28  1  0
 17 29  1  0
 18 30  1  0
M  ISO  8  19  14  20  14  21  14  22  14  23  14  24  14  25  14  26  14
M  ISO  4  27  14  28  14  29  14  30  14
M  END
>  <minimizedAffinity>  (1) 
-4.8662405

>  <minimizedRMSD>  (1) 
1.66879094

$$$$
