
     RDKit          3D

 35 37  0  0  0  0  0  0  0  0999 V2000
   37.2340   22.0890   34.6660 C   0  0  0  0  0  0  0  0  0  0  0  0
   36.3980   20.9840   34.7880 C   0  0  0  0  0  0  0  0  0  0  0  0
   35.6650   20.5620   33.6960 C   0  0  0  0  0  0  0  0  0  0  0  0
   35.7690   21.2410   32.4910 C   0  0  0  0  0  0  0  0  0  0  0  0
   36.6000   22.3230   32.4070 C   0  0  0  0  0  0  0  0  0  0  0  0
   37.3560   22.7850   33.4780 C   0  0  0  0  0  0  0  0  0  0  0  0
   39.9470   22.3280   37.0990 C   0  0  0  0  0  0  0  0  0  0  0  0
   39.4420   23.1610   38.0950 C   0  0  0  0  0  0  0  0  0  0  0  0
   38.1560   23.6420   37.9230 C   0  0  0  0  0  0  0  0  0  0  0  0
   37.4540   23.2930   36.8180 N   0  0  0  0  0  0  0  0  0  0  0  0
   37.9810   22.4780   35.8700 C   0  0  0  0  0  0  0  0  0  0  0  0
   39.2380   21.9870   36.0060 N   0  0  0  0  0  0  0  0  0  0  0  0
   38.2310   23.9210   33.3910 N   0  0  0  0  0  0  0  0  0  0  0  0
   39.6510   23.8720   33.1500 C   0  0  0  0  0  0  0  0  0  0  0  0
   40.4570   24.7370   34.0900 C   0  0  0  0  0  0  0  0  0  0  0  0
   39.6130   25.3960   35.1440 C   0  0  0  0  0  0  0  0  0  0  0  0
   38.4450   26.1000   34.5310 C   0  0  0  0  0  0  0  0  0  0  0  0
   37.6760   25.2470   33.5550 C   0  0  0  0  0  0  0  0  0  0  0  0
   36.3212   20.4503   35.7468 H   0  0  0  0  0  0  0  0  0  0  0  0
   35.0004   19.6896   33.7818 H   0  0  0  0  0  0  0  0  0  0  0  0
   35.1905   20.9131   31.6147 H   0  0  0  0  0  0  0  0  0  0  0  0
   36.6740   22.8533   31.4461 H   0  0  0  0  0  0  0  0  0  0  0  0
   40.9674   21.9323   37.2100 H   0  0  0  0  0  0  0  0  0  0  0  0
   40.0397   23.4249   38.9799 H   0  0  0  0  0  0  0  0  0  0  0  0
   37.7066   24.3034   38.6784 H   0  0  0  0  0  0  0  0  0  0  0  0
   39.9866   22.8305   33.2628 H   0  0  0  0  0  0  0  0  0  0  0  0
   39.8180   24.2593   32.1341 H   0  0  0  0  0  0  0  0  0  0  0  0
   41.2113   24.1085   34.5861 H   0  0  0  0  0  0  0  0  0  0  0  0
   40.9202   25.5346   33.4906 H   0  0  0  0  0  0  0  0  0  0  0  0
   39.2453   24.6294   35.8420 H   0  0  0  0  0  0  0  0  0  0  0  0
   40.2295   26.1361   35.6751 H   0  0  0  0  0  0  0  0  0  0  0  0
   37.7627   26.4095   35.3364 H   0  0  0  0  0  0  0  0  0  0  0  0
   38.8419   26.9583   33.9691 H   0  0  0  0  0  0  0  0  0  0  0  0
   37.6772   25.7492   32.5763 H   0  0  0  0  0  0  0  0  0  0  0  0
   36.6598   25.1266   33.9586 H   0  0  0  0  0  0  0  0  0  0  0  0
  1  2  2  0
  1 11  1  0
  3  2  1  0
  4  3  2  0
  5  4  1  0
  5  6  2  0
  6  1  1  0
  7  8  2  0
  9  8  1  0
 10  9  2  0
 11 12  2  0
 11 10  1  0
 12  7  1  0
 13  6  1  0
 13 18  1  0
 14 13  1  0
 14 15  1  0
 15 16  1  0
 17 16  1  0
 18 17  1  0
  2 19  1  0
  3 20  1  0
  4 21  1  0
  5 22  1  0
  7 23  1  0
  8 24  1  0
  9 25  1  0
 14 26  1  0
 14 27  1  0
 15 28  1  0
 15 29  1  0
 16 30  1  0
 16 31  1  0
 17 32  1  0
 17 33  1  0
 18 34  1  0
 18 35  1  0
M  ISO  8  19  14  20  14  21  14  22  14  23  14  24  14  25  14  26  13
M  ISO  8  27  13  28  13  29  13  30  13  31  13  32  13  33  13  34  13
M  ISO  1  35  13
M  END
>  <minimizedAffinity>  (1) 
-4.58019161

>  <minimizedRMSD>  (1) 
0.65786618

$$$$
