
     RDKit          3D

 27 29  0  0  0  0  0  0  0  0999 V2000
   37.9070   22.9590   34.7130 C   0  0  0  0  0  0  0  0  0  0  0  0
   37.4000   21.7480   34.3000 C   0  0  0  0  0  0  0  0  0  0  0  0
   37.0140   21.5550   32.9870 C   0  0  0  0  0  0  0  0  0  0  0  0
   37.1440   22.6030   32.0890 C   0  0  0  0  0  0  0  0  0  0  0  0
   37.6530   23.7990   32.5290 C   0  0  0  0  0  0  0  0  0  0  0  0
   38.0520   24.0290   33.8450 C   0  0  0  0  0  0  0  0  0  0  0  0
   39.9240   22.7350   37.7560 C   0  0  0  0  0  0  0  0  0  0  0  0
   39.0960   23.2490   38.7520 C   0  0  0  0  0  0  0  0  0  0  0  0
   37.8230   23.6790   38.3680 C   0  0  0  0  0  0  0  0  0  0  0  0
   37.4490   23.5810   37.0600 N   0  0  0  0  0  0  0  0  0  0  0  0
   38.2950   23.0740   36.1380 C   0  0  0  0  0  0  0  0  0  0  0  0
   39.5280   22.6530   36.4820 N   0  0  0  0  0  0  0  0  0  0  0  0
   38.5910   25.2980   34.3090 C   0  0  0  0  0  0  0  0  0  0  0  0
   39.9160   25.6150   34.0160 C   0  0  0  0  0  0  0  0  0  0  0  0
   40.1820   26.8560   34.5600 C   0  0  0  0  0  0  0  0  0  0  0  0
   39.0030   27.2400   35.1610 C   0  0  0  0  0  0  0  0  0  0  0  0
   38.1030   26.2990   34.9890 O   0  0  0  0  0  0  0  0  0  0  0  0
   37.3009   20.9247   35.0228 H   0  0  0  0  0  0  0  0  0  0  0  0
   36.6102   20.5855   32.6599 H   0  0  0  0  0  0  0  0  0  0  0  0
   36.8433   22.4776   31.0383 H   0  0  0  0  0  0  0  0  0  0  0  0
   37.7515   24.6206   31.8043 H   0  0  0  0  0  0  0  0  0  0  0  0
   40.9320   22.3869   38.0258 H   0  0  0  0  0  0  0  0  0  0  0  0
   39.4308   23.3136   39.7978 H   0  0  0  0  0  0  0  0  0  0  0  0
   37.1287   24.0929   39.1141 H   0  0  0  0  0  0  0  0  0  0  0  0
   40.6233   24.9888   33.4524 H   0  0  0  0  0  0  0  0  0  0  0  0
   41.1282   27.4157   34.5219 H   0  0  0  0  0  0  0  0  0  0  0  0
   38.8411   28.1853   35.6997 H   0  0  0  0  0  0  0  0  0  0  0  0
  1 11  1  0
  2  1  2  0
  3  2  1  0
  4  5  1  0
  4  3  2  0
  5  6  2  0
  6 13  1  0
  6  1  1  0
  7  8  2  0
  9  8  1  0
 10  9  2  0
 11 12  2  0
 11 10  1  0
 12  7  1  0
 13 17  1  0
 14 13  2  0
 14 15  1  0
 15 16  2  0
 17 16  1  0
  2 18  1  0
  3 19  1  0
  4 20  1  0
  5 21  1  0
  7 22  1  0
  8 23  1  0
  9 24  1  0
 14 25  1  0
 15 26  1  0
 16 27  1  0
M  ISO  8  18  14  19  14  20  14  21  14  22  14  23  14  24  14  25  14
M  ISO  2  26  14  27  14
M  END
>  <minimizedAffinity>  (1) 
-4.56489134

>  <minimizedRMSD>  (1) 
1.98313367

$$$$
