
     RDKit          3D

 28 30  0  0  0  0  0  0  0  0999 V2000
   37.7650   22.6720   34.7630 C   0  0  0  0  0  0  0  0  0  0  0  0
   37.1430   21.4700   34.4880 C   0  0  0  0  0  0  0  0  0  0  0  0
   36.6900   21.1780   33.2160 C   0  0  0  0  0  0  0  0  0  0  0  0
   36.8720   22.1150   32.2140 C   0  0  0  0  0  0  0  0  0  0  0  0
   37.4890   23.2980   32.5050 C   0  0  0  0  0  0  0  0  0  0  0  0
   37.9550   23.6230   33.7720 C   0  0  0  0  0  0  0  0  0  0  0  0
   39.9190   22.6890   37.7150 C   0  0  0  0  0  0  0  0  0  0  0  0
   39.1270   23.2700   38.7030 C   0  0  0  0  0  0  0  0  0  0  0  0
   37.8370   23.6590   38.3460 C   0  0  0  0  0  0  0  0  0  0  0  0
   37.4120   23.4590   37.0700 N   0  0  0  0  0  0  0  0  0  0  0  0
   38.2120   22.8930   36.1450 C   0  0  0  0  0  0  0  0  0  0  0  0
   39.4710   22.5060   36.4640 N   0  0  0  0  0  0  0  0  0  0  0  0
   38.6190   24.8640   34.1390 C   0  0  0  0  0  0  0  0  0  0  0  0
   37.9220   25.9950   34.5670 C   0  0  0  0  0  0  0  0  0  0  0  0
   38.5370   27.1740   34.9180 C   0  0  0  0  0  0  0  0  0  0  0  0
   39.8900   27.2060   34.8310 N   0  0  0  0  0  0  0  0  0  0  0  0
   40.6000   26.1250   34.4180 C   0  0  0  0  0  0  0  0  0  0  0  0
   39.9590   25.0030   34.0900 N   0  0  0  0  0  0  0  0  0  0  0  0
   37.0062   20.7340   35.2940 H   0  0  0  0  0  0  0  0  0  0  0  0
   36.1942   20.2193   33.0037 H   0  0  0  0  0  0  0  0  0  0  0  0
   36.5226   21.9086   31.1916 H   0  0  0  0  0  0  0  0  0  0  0  0
   37.6236   24.0301   31.6951 H   0  0  0  0  0  0  0  0  0  0  0  0
   40.9412   22.3712   37.9681 H   0  0  0  0  0  0  0  0  0  0  0  0
   39.5052   23.4161   39.7256 H   0  0  0  0  0  0  0  0  0  0  0  0
   37.1704   24.1225   39.0881 H   0  0  0  0  0  0  0  0  0  0  0  0
   36.8250   25.9406   34.6266 H   0  0  0  0  0  0  0  0  0  0  0  0
   37.9597   28.0483   35.2529 H   0  0  0  0  0  0  0  0  0  0  0  0
   41.6970   26.1746   34.3544 H   0  0  0  0  0  0  0  0  0  0  0  0
  1 11  1  0
  2  1  2  0
  3  2  1  0
  4  5  1  0
  4  3  2  0
  5  6  2  0
  6 13  1  0
  6  1  1  0
  7  8  2  0
  9  8  1  0
 10  9  2  0
 11 12  2  0
 11 10  1  0
 12  7  1  0
 13 14  2  0
 14 15  1  0
 16 15  2  0
 17 16  1  0
 18 13  1  0
 18 17  2  0
  2 19  1  0
  3 20  1  0
  4 21  1  0
  5 22  1  0
  7 23  1  0
  8 24  1  0
  9 25  1  0
 14 26  1  0
 15 27  1  0
 17 28  1  0
M  ISO  8  19  14  20  14  21  14  22  14  23  14  24  14  25  14  26  14
M  ISO  2  27  14  28  14
M  END
>  <minimizedAffinity>  (1) 
-4.55470705

>  <minimizedRMSD>  (1) 
1.77387702

$$$$
