
     RDKit          3D

 27 29  0  0  0  0  0  0  0  0999 V2000
   37.2080   21.9790   34.9000 C   0  0  0  0  0  0  0  0  0  0  0  0
   36.2810   20.9560   35.0510 C   0  0  0  0  0  0  0  0  0  0  0  0
   35.5730   20.5060   33.9630 C   0  0  0  0  0  0  0  0  0  0  0  0
   35.7740   21.0610   32.7240 C   0  0  0  0  0  0  0  0  0  0  0  0
   36.6930   22.0640   32.6070 C   0  0  0  0  0  0  0  0  0  0  0  0
   37.4440   22.5660   33.6700 C   0  0  0  0  0  0  0  0  0  0  0  0
   39.9420   22.5620   37.2600 C   0  0  0  0  0  0  0  0  0  0  0  0
   39.3250   23.2320   38.3150 C   0  0  0  0  0  0  0  0  0  0  0  0
   37.9590   23.4890   38.2200 C   0  0  0  0  0  0  0  0  0  0  0  0
   37.2920   23.0800   37.1130 N   0  0  0  0  0  0  0  0  0  0  0  0
   37.9300   22.4240   36.0950 C   0  0  0  0  0  0  0  0  0  0  0  0
   39.2360   22.1800   36.1880 N   0  0  0  0  0  0  0  0  0  0  0  0
   38.3900   23.6280   33.4260 C   0  0  0  0  0  0  0  0  0  0  0  0
   37.7600   24.8480   33.1480 C   0  0  0  0  0  0  0  0  0  0  0  0
   38.7010   25.8070   32.9220 N   0  0  0  0  0  0  0  0  0  0  0  0
   39.8930   25.1660   33.0610 C   0  0  0  0  0  0  0  0  0  0  0  0
   39.7080   23.8580   33.3650 N   0  0  0  0  0  0  0  0  0  0  0  0
   36.1138   20.5064   36.0409 H   0  0  0  0  0  0  0  0  0  0  0  0
   34.8399   19.6952   34.0858 H   0  0  0  0  0  0  0  0  0  0  0  0
   35.2098   20.7072   31.8485 H   0  0  0  0  0  0  0  0  0  0  0  0
   36.8512   22.5041   31.6114 H   0  0  0  0  0  0  0  0  0  0  0  0
   41.0193   22.3449   37.3083 H   0  0  0  0  0  0  0  0  0  0  0  0
   39.9002   23.5488   39.1975 H   0  0  0  0  0  0  0  0  0  0  0  0
   37.4309   24.0147   39.0292 H   0  0  0  0  0  0  0  0  0  0  0  0
   36.6720   25.0073   33.1169 H   0  0  0  0  0  0  0  0  0  0  0  0
   40.8760   25.6453   32.9425 H   0  0  0  0  0  0  0  0  0  0  0  0
   40.4513   23.1624   33.5217 H   0  0  0  0  0  0  0  0  0  0  0  0
  1  2  2  0
  1 11  1  0
  3  2  1  0
  4  3  2  0
  5  4  1  0
  5  6  2  0
  6  1  1  0
  7  8  2  0
  9  8  1  0
 10  9  2  0
 11 12  2  0
 11 10  1  0
 12  7  1  0
 13  6  1  0
 14 13  2  0
 15 16  2  0
 15 14  1  0
 16 17  1  0
 17 13  1  0
  2 18  1  0
  3 19  1  0
  4 20  1  0
  5 21  1  0
  7 22  1  0
  8 23  1  0
  9 24  1  0
 14 25  1  0
 16 26  1  0
 17 27  1  0
M  ISO  8  18  14  19  14  20  14  21  14  22  14  23  14  24  14  25  14
M  ISO  2  26  14  27   9
M  END
>  <minimizedAffinity>  (1) 
-4.49080229

>  <minimizedRMSD>  (1) 
0.381981075

$$$$
