
     RDKit          3D

 26 28  0  0  0  0  0  0  0  0999 V2000
   37.1790   21.9300   34.7230 C   0  0  0  0  0  0  0  0  0  0  0  0
   36.3070   20.8860   34.8780 C   0  0  0  0  0  0  0  0  0  0  0  0
   35.5460   20.4420   33.8130 C   0  0  0  0  0  0  0  0  0  0  0  0
   35.6710   21.0560   32.5900 C   0  0  0  0  0  0  0  0  0  0  0  0
   36.5460   22.0970   32.4500 C   0  0  0  0  0  0  0  0  0  0  0  0
   37.3270   22.5730   33.4910 C   0  0  0  0  0  0  0  0  0  0  0  0
   39.9860   22.3710   37.0220 C   0  0  0  0  0  0  0  0  0  0  0  0
   39.4440   23.1390   38.0550 C   0  0  0  0  0  0  0  0  0  0  0  0
   38.0950   23.5120   37.9630 C   0  0  0  0  0  0  0  0  0  0  0  0
   37.4110   23.1030   36.8780 N   0  0  0  0  0  0  0  0  0  0  0  0
   37.9590   22.3570   35.8880 C   0  0  0  0  0  0  0  0  0  0  0  0
   39.2500   21.9980   35.9730 N   0  0  0  0  0  0  0  0  0  0  0  0
   38.2730   23.7010   33.3300 C   0  0  0  0  0  0  0  0  0  0  0  0
   39.5750   23.5110   32.8090 C   0  0  0  0  0  0  0  0  0  0  0  0
   40.2930   25.1360   32.8180 S   0  0  0  0  0  0  0  0  0  0  0  0
   38.6810   25.8880   33.5530 C   0  0  0  0  0  0  0  0  0  0  0  0
   37.7760   24.8600   33.7160 N   0  0  0  0  0  0  0  0  0  0  0  0
   36.2112   20.3964   35.8584 H   0  0  0  0  0  0  0  0  0  0  0  0
   34.8458   19.6037   33.9434 H   0  0  0  0  0  0  0  0  0  0  0  0
   35.0732   20.7134   31.7325 H   0  0  0  0  0  0  0  0  0  0  0  0
   36.6342   22.5792   31.4652 H   0  0  0  0  0  0  0  0  0  0  0  0
   41.0419   22.0671   37.0741 H   0  0  0  0  0  0  0  0  0  0  0  0
   40.0575   23.4427   38.9161 H   0  0  0  0  0  0  0  0  0  0  0  0
   37.6145   24.1155   38.7472 H   0  0  0  0  0  0  0  0  0  0  0  0
   40.0375   22.5707   32.4744 H   0  0  0  0  0  0  0  0  0  0  0  0
   38.5119   26.9468   33.7988 H   0  0  0  0  0  0  0  0  0  0  0  0
  1  2  2  0
  1 11  1  0
  3  2  1  0
  4  3  2  0
  5  4  1  0
  5  6  2  0
  6  1  1  0
  7  8  2  0
  9  8  1  0
 10  9  2  0
 11 12  2  0
 11 10  1  0
 12  7  1  0
 13  6  1  0
 13 17  1  0
 14 15  1  0
 14 13  2  0
 15 16  1  0
 16 17  2  0
  2 18  1  0
  3 19  1  0
  4 20  1  0
  5 21  1  0
  7 22  1  0
  8 23  1  0
  9 24  1  0
 14 25  1  0
 16 26  1  0
M  ISO  8  18  14  19  14  20  14  21  14  22  14  23  14  24  14  25  14
M  ISO  1  26  14
M  END
>  <minimizedAffinity>  (1) 
-4.37983036

>  <minimizedRMSD>  (1) 
0.685762763

$$$$
