
     RDKit          3D

 27 29  0  0  0  0  0  0  0  0999 V2000
   37.1670   21.9260   34.7070 C   0  0  0  0  0  0  0  0  0  0  0  0
   36.2980   20.8800   34.8590 C   0  0  0  0  0  0  0  0  0  0  0  0
   35.5330   20.4230   33.8130 C   0  0  0  0  0  0  0  0  0  0  0  0
   35.6510   21.0420   32.5840 C   0  0  0  0  0  0  0  0  0  0  0  0
   36.5280   22.0950   32.4340 C   0  0  0  0  0  0  0  0  0  0  0  0
   37.3000   22.5600   33.4790 C   0  0  0  0  0  0  0  0  0  0  0  0
   40.0000   22.3820   36.9770 C   0  0  0  0  0  0  0  0  0  0  0  0
   39.4590   23.1260   38.0220 C   0  0  0  0  0  0  0  0  0  0  0  0
   38.1110   23.4770   37.9530 C   0  0  0  0  0  0  0  0  0  0  0  0
   37.3960   23.0780   36.8730 N   0  0  0  0  0  0  0  0  0  0  0  0
   37.9500   22.3550   35.8730 C   0  0  0  0  0  0  0  0  0  0  0  0
   39.2430   22.0180   35.9390 N   0  0  0  0  0  0  0  0  0  0  0  0
   38.2550   23.6890   33.3630 C   0  0  0  0  0  0  0  0  0  0  0  0
   38.1220   24.6440   32.2050 C   0  0  0  0  0  0  0  0  0  0  0  0
   37.8110   25.0720   33.5970 C   0  0  0  0  0  0  0  0  0  0  0  0
   36.2097   20.3935   35.8416 H   0  0  0  0  0  0  0  0  0  0  0  0
   34.8398   19.5802   33.9518 H   0  0  0  0  0  0  0  0  0  0  0  0
   35.0491   20.6970   31.7304 H   0  0  0  0  0  0  0  0  0  0  0  0
   36.6151   22.5798   31.4504 H   0  0  0  0  0  0  0  0  0  0  0  0
   41.0605   22.0914   37.0067 H   0  0  0  0  0  0  0  0  0  0  0  0
   40.0782   23.4289   38.8792 H   0  0  0  0  0  0  0  0  0  0  0  0
   37.6396   24.0633   38.7555 H   0  0  0  0  0  0  0  0  0  0  0  0
   39.0569   23.0587   33.7750 H   0  0  0  0  0  0  0  0  0  0  0  0
   39.0198   25.0254   31.6965 H   0  0  0  0  0  0  0  0  0  0  0  0
   37.5842   24.6437   31.2455 H   0  0  0  0  0  0  0  0  0  0  0  0
   36.7688   25.2697   33.8882 H   0  0  0  0  0  0  0  0  0  0  0  0
   38.1528   25.8919   34.2458 H   0  0  0  0  0  0  0  0  0  0  0  0
  1  2  2  0
  1 11  1  0
  3  2  1  0
  4  3  2  0
  5  4  1  0
  5  6  2  0
  6  1  1  0
  7  8  2  0
  9  8  1  0
 10  9  2  0
 11 12  2  0
 11 10  1  0
 12  7  1  0
 13  6  1  0
 13 15  1  0
 14 13  1  0
 14 15  1  0
  2 16  1  0
  3 17  1  0
  4 18  1  0
  5 19  1  0
  7 20  1  0
  8 21  1  0
  9 22  1  0
 13 23  1  0
 14 24  1  0
 14 25  1  0
 15 26  1  0
 15 27  1  0
M  ISO  8  16  14  17  14  18  14  19  14  20  14  21  14  22  14  23  13
M  ISO  4  24  13  25  13  26  13  27  13
M  END
>  <minimizedAffinity>  (1) 
-4.1696701

>  <minimizedRMSD>  (1) 
0.481735021

$$$$
