
     RDKit          3D

 23 24  0  0  0  0  0  0  0  0999 V2000
   37.2600   21.9710   35.0410 C   0  0  0  0  0  0  0  0  0  0  0  0
   36.3030   21.0020   35.2440 C   0  0  0  0  0  0  0  0  0  0  0  0
   35.5870   20.5050   34.1670 C   0  0  0  0  0  0  0  0  0  0  0  0
   35.8290   20.9750   32.8960 C   0  0  0  0  0  0  0  0  0  0  0  0
   36.7940   21.9470   32.7170 C   0  0  0  0  0  0  0  0  0  0  0  0
   37.5220   22.4600   33.7730 C   0  0  0  0  0  0  0  0  0  0  0  0
   39.9720   22.5450   37.4210 C   0  0  0  0  0  0  0  0  0  0  0  0
   39.3860   23.3710   38.3980 C   0  0  0  0  0  0  0  0  0  0  0  0
   38.0460   23.7230   38.2210 C   0  0  0  0  0  0  0  0  0  0  0  0
   37.3770   23.2670   37.1390 N   0  0  0  0  0  0  0  0  0  0  0  0
   37.9900   22.4650   36.2160 C   0  0  0  0  0  0  0  0  0  0  0  0
   39.2820   22.1090   36.3600 N   0  0  0  0  0  0  0  0  0  0  0  0
   38.5570   23.5070   33.5570 C   0  0  0  0  0  0  0  0  0  0  0  0
   36.1075   20.6236   36.2582 H   0  0  0  0  0  0  0  0  0  0  0  0
   34.8218   19.7314   34.3283 H   0  0  0  0  0  0  0  0  0  0  0  0
   35.2636   20.5832   32.0376 H   0  0  0  0  0  0  0  0  0  0  0  0
   36.9888   22.3242   31.7022 H   0  0  0  0  0  0  0  0  0  0  0  0
   41.0257   22.2496   37.5322 H   0  0  0  0  0  0  0  0  0  0  0  0
   39.9604   23.7254   39.2666 H   0  0  0  0  0  0  0  0  0  0  0  0
   37.5396   24.3659   38.9560 H   0  0  0  0  0  0  0  0  0  0  0  0
   38.9179   23.8721   34.5299 H   0  0  0  0  0  0  0  0  0  0  0  0
   39.3979   23.0801   32.9907 H   0  0  0  0  0  0  0  0  0  0  0  0
   38.1204   24.3429   32.9907 H   0  0  0  0  0  0  0  0  0  0  0  0
  1  2  2  0
  1 11  1  0
  3  2  1  0
  4  3  2  0
  5  4  1  0
  5  6  2  0
  6  1  1  0
  7  8  2  0
  9  8  1  0
 10  9  2  0
 11 12  2  0
 11 10  1  0
 12  7  1  0
 13  6  1  0
  2 14  1  0
  3 15  1  0
  4 16  1  0
  5 17  1  0
  7 18  1  0
  8 19  1  0
  9 20  1  0
 13 21  1  0
 13 22  1  0
 13 23  1  0
M  ISO  8  14  14  15  14  16  14  17  14  18  14  19  14  20  14  21   8
M  ISO  2  22   8  23   8
M  END
>  <minimizedAffinity>  (1) 
-4.06753254

>  <minimizedRMSD>  (1) 
0.214259565

$$$$
