
     RDKit          3D

 32 35  0  0  0  0  0  0  0  0999 V2000
   37.2290   22.0230   34.9060 C   0  0  0  0  0  0  0  0  0  0  0  0
   36.3580   20.9810   34.9700 C   0  0  0  0  0  0  0  0  0  0  0  0
   35.6410   20.5490   33.8850 C   0  0  0  0  0  0  0  0  0  0  0  0
   35.8120   21.1990   32.6840 C   0  0  0  0  0  0  0  0  0  0  0  0
   36.6880   22.2500   32.6110 C   0  0  0  0  0  0  0  0  0  0  0  0
   37.4150   22.6920   33.7010 C   0  0  0  0  0  0  0  0  0  0  0  0
   39.9390   22.5660   37.2800 C   0  0  0  0  0  0  0  0  0  0  0  0
   39.3160   23.2020   38.3690 C   0  0  0  0  0  0  0  0  0  0  0  0
   37.9590   23.4320   38.2600 C   0  0  0  0  0  0  0  0  0  0  0  0
   37.3060   23.0470   37.1410 N   0  0  0  0  0  0  0  0  0  0  0  0
   37.9590   22.4290   36.1010 C   0  0  0  0  0  0  0  0  0  0  0  0
   39.2670   22.1930   36.1790 N   0  0  0  0  0  0  0  0  0  0  0  0
   38.2930   23.7550   33.5980 O   0  0  0  0  0  0  0  0  0  0  0  0
   36.2320   27.6800   32.6270 N   0  0  0  0  0  0  0  0  0  0  0  0
   36.0770   26.7520   31.6720 C   0  0  0  0  0  0  0  0  0  0  0  0
   36.7060   25.6380   32.0280 N   0  0  0  0  0  0  0  0  0  0  0  0
   37.2980   25.7870   33.2300 C   0  0  0  0  0  0  0  0  0  0  0  0
   38.0740   25.0250   34.1130 C   0  0  0  0  0  0  0  0  0  0  0  0
   38.4980   25.5670   35.2860 N   0  0  0  0  0  0  0  0  0  0  0  0
   38.1450   26.8370   35.5530 C   0  0  0  0  0  0  0  0  0  0  0  0
   37.3980   27.6110   34.7340 N   0  0  0  0  0  0  0  0  0  0  0  0
   36.9700   27.1010   33.5730 C   0  0  0  0  0  0  0  0  0  0  0  0
   36.2234   20.4639   35.9315 H   0  0  0  0  0  0  0  0  0  0  0  0
   34.9446   19.7020   33.9720 H   0  0  0  0  0  0  0  0  0  0  0  0
   35.2520   20.8785   31.7931 H   0  0  0  0  0  0  0  0  0  0  0  0
   36.8182   22.7627   31.6466 H   0  0  0  0  0  0  0  0  0  0  0  0
   41.0195   22.3663   37.3324 H   0  0  0  0  0  0  0  0  0  0  0  0
   39.8821   23.5014   39.2634 H   0  0  0  0  0  0  0  0  0  0  0  0
   37.4132   23.9250   39.0780 H   0  0  0  0  0  0  0  0  0  0  0  0
   35.8586   28.6399   32.6289 H   0  0  0  0  0  0  0  0  0  0  0  0
   35.5149   26.8919   30.7368 H   0  0  0  0  0  0  0  0  0  0  0  0
   38.4872   27.2757   36.5019 H   0  0  0  0  0  0  0  0  0  0  0  0
  1  2  2  0
  1 11  1  0
  3  2  1  0
  4  3  2  0
  5  4  1  0
  5  6  2  0
  6  1  1  0
  7  8  2  0
  9  8  1  0
 10  9  2  0
 11 12  2  0
 11 10  1  0
 12  7  1  0
 13  6  1  0
 13 18  1  0
 14 22  1  0
 15 16  2  0
 15 14  1  0
 16 17  1  0
 17 22  2  0
 17 18  1  0
 18 19  2  0
 19 20  1  0
 21 20  2  0
 22 21  1  0
  2 23  1  0
  3 24  1  0
  4 25  1  0
  5 26  1  0
  7 27  1  0
  8 28  1  0
  9 29  1  0
 14 30  1  0
 15 31  1  0
 20 32  1  0
M  ISO  8  23  14  24  14  25  14  26  14  27  14  28  14  29  14  30   9
M  ISO  2  31  14  32  14
M  END
>  <minimizedAffinity>  (1) 
-5.62425709

>  <minimizedRMSD>  (1) 
0.70640409

$$$$
