
     RDKit          3D

 35 37  0  0  1  0  0  0  0  0999 V2000
   37.2700   22.0760   34.8860 C   0  0  0  0  0  0  0  0  0  0  0  0
   36.3690   21.0310   34.9630 C   0  0  0  0  0  0  0  0  0  0  0  0
   35.6790   20.5980   33.8670 C   0  0  0  0  0  0  0  0  0  0  0  0
   35.8890   21.2230   32.6560 C   0  0  0  0  0  0  0  0  0  0  0  0
   36.7840   22.2580   32.5910 C   0  0  0  0  0  0  0  0  0  0  0  0
   37.4990   22.7180   33.6890 C   0  0  0  0  0  0  0  0  0  0  0  0
   39.9540   22.5660   37.3100 C   0  0  0  0  0  0  0  0  0  0  0  0
   39.3120   23.2010   38.3920 C   0  0  0  0  0  0  0  0  0  0  0  0
   37.9600   23.4500   38.2670 C   0  0  0  0  0  0  0  0  0  0  0  0
   37.3160   23.0810   37.1330 N   0  0  0  0  0  0  0  0  0  0  0  0
   37.9690   22.4730   36.1150 C   0  0  0  0  0  0  0  0  0  0  0  0
   39.2940   22.2120   36.1980 N   0  0  0  0  0  0  0  0  0  0  0  0
   38.3840   23.7490   33.5950 O   0  0  0  0  0  0  0  0  0  0  0  0
   38.1480   25.1040   33.4260 C   0  0  1  0  0  0  0  0  0  0  0  0
   36.8650   25.3780   32.6380 C   0  0  0  0  0  0  0  0  0  0  0  0
   36.9030   26.8540   32.3240 C   0  0  0  0  0  0  0  0  0  0  0  0
   37.0370   27.7190   33.5350 C   0  0  0  0  0  0  0  0  0  0  0  0
   37.2390   27.0120   34.8210 C   0  0  0  0  0  0  0  0  0  0  0  0
   37.8510   25.6680   34.8080 C   0  0  0  0  0  0  0  0  0  0  0  0
   36.2035   20.5357   35.9311 H   0  0  0  0  0  0  0  0  0  0  0  0
   34.9668   19.7637   33.9490 H   0  0  0  0  0  0  0  0  0  0  0  0
   35.3466   20.8958   31.7567 H   0  0  0  0  0  0  0  0  0  0  0  0
   36.9444   22.7495   31.6201 H   0  0  0  0  0  0  0  0  0  0  0  0
   41.0311   22.3540   37.3801 H   0  0  0  0  0  0  0  0  0  0  0  0
   39.8654   23.4865   39.2988 H   0  0  0  0  0  0  0  0  0  0  0  0
   37.4097   23.9440   39.0813 H   0  0  0  0  0  0  0  0  0  0  0  0
   39.0170   25.5351   32.9074 H   0  0  0  0  0  0  0  0  0  0  0  0
   36.8477   24.7864   31.7108 H   0  0  0  0  0  0  0  0  0  0  0  0
   35.9652   25.1010   33.2069 H   0  0  0  0  0  0  0  0  0  0  0  0
   37.7601   27.0469   31.6620 H   0  0  0  0  0  0  0  0  0  0  0  0
   35.9434   27.1082   31.8501 H   0  0  0  0  0  0  0  0  0  0  0  0
   37.8983   28.3852   33.3787 H   0  0  0  0  0  0  0  0  0  0  0  0
   36.0742   28.2419   33.6330 H   0  0  0  0  0  0  0  0  0  0  0  0
   36.9382   27.4803   35.7698 H   0  0  0  0  0  0  0  0  0  0  0  0
   38.0761   25.1141   35.7313 H   0  0  0  0  0  0  0  0  0  0  0  0
  1  2  2  0
  1 11  1  0
  3  2  1  0
  4  3  2  0
  5  4  1  0
  5  6  2  0
  6  1  1  0
  7  8  2  0
  9  8  1  0
 10  9  2  0
 11 12  2  0
 11 10  1  0
 12  7  1  0
 13  6  1  0
 14 13  1  0
 14 19  1  0
 15 14  1  0
 16 15  1  0
 16 17  1  0
 17 18  1  0
 19 18  2  0
  2 20  1  0
  3 21  1  0
  4 22  1  0
  5 23  1  0
  7 24  1  0
  8 25  1  0
  9 26  1  0
 14 27  1  6
 15 28  1  0
 15 29  1  0
 16 30  1  0
 16 31  1  0
 17 32  1  0
 17 33  1  0
 18 34  1  0
 19 35  1  0
M  ISO  8  20  14  21  14  22  14  23  14  24  14  25  14  26  14  27  13
M  ISO  8  28  13  29  13  30  13  31  13  32  13  33  13  34  13  35  13
M  END
>  <minimizedAffinity>  (1) 
-5.12305117

>  <minimizedRMSD>  (1) 
2.75835013

$$$$
