
     RDKit          3D

 29 31  0  0  0  0  0  0  0  0999 V2000
   37.4510   22.2240   34.7980 C   0  0  0  0  0  0  0  0  0  0  0  0
   36.5870   21.1730   34.7780 C   0  0  0  0  0  0  0  0  0  0  0  0
   35.9150   20.8300   33.6300 C   0  0  0  0  0  0  0  0  0  0  0  0
   36.1190   21.5600   32.4820 C   0  0  0  0  0  0  0  0  0  0  0  0
   36.9980   22.6260   32.5080 C   0  0  0  0  0  0  0  0  0  0  0  0
   37.6940   22.9990   33.6580 C   0  0  0  0  0  0  0  0  0  0  0  0
   40.1090   22.4550   37.3060 C   0  0  0  0  0  0  0  0  0  0  0  0
   39.4930   23.1100   38.3710 C   0  0  0  0  0  0  0  0  0  0  0  0
   38.1490   23.4770   38.2290 C   0  0  0  0  0  0  0  0  0  0  0  0
   37.5060   23.1810   37.0660 N   0  0  0  0  0  0  0  0  0  0  0  0
   38.1500   22.5420   36.0580 C   0  0  0  0  0  0  0  0  0  0  0  0
   39.4470   22.1810   36.1790 N   0  0  0  0  0  0  0  0  0  0  0  0
   38.5530   24.0510   33.6540 O   0  0  0  0  0  0  0  0  0  0  0  0
   38.4610   25.2500   34.3050 C   0  0  0  0  0  0  0  0  0  0  0  0
   39.2770   25.9010   35.2070 C   0  0  0  0  0  0  0  0  0  0  0  0
   38.9080   27.1320   35.7020 C   0  0  0  0  0  0  0  0  0  0  0  0
   37.7740   27.7250   35.3340 N   0  0  0  0  0  0  0  0  0  0  0  0
   36.9720   27.1040   34.4600 C   0  0  0  0  0  0  0  0  0  0  0  0
   37.3060   25.8900   33.9530 N   0  0  0  0  0  0  0  0  0  0  0  0
   36.4240   20.5887   35.6957 H   0  0  0  0  0  0  0  0  0  0  0  0
   35.2191   19.9781   33.6287 H   0  0  0  0  0  0  0  0  0  0  0  0
   35.5888   21.2983   31.5544 H   0  0  0  0  0  0  0  0  0  0  0  0
   37.1551   23.2035   31.5850 H   0  0  0  0  0  0  0  0  0  0  0  0
   41.1641   22.1571   37.3958 H   0  0  0  0  0  0  0  0  0  0  0  0
   40.0461   23.3321   39.2955 H   0  0  0  0  0  0  0  0  0  0  0  0
   37.6218   23.9956   39.0433 H   0  0  0  0  0  0  0  0  0  0  0  0
   40.2208   25.4376   35.5303 H   0  0  0  0  0  0  0  0  0  0  0  0
   39.5681   27.6392   36.4210 H   0  0  0  0  0  0  0  0  0  0  0  0
   36.0318   27.5831   34.1493 H   0  0  0  0  0  0  0  0  0  0  0  0
  1 11  1  0
  2  1  2  0
  3  2  1  0
  4  5  1  0
  4  3  2  0
  5  6  2  0
  6  1  1  0
  7  8  2  0
  9  8  1  0
 10  9  2  0
 11 12  2  0
 11 10  1  0
 12  7  1  0
 13  6  1  0
 13 14  1  0
 14 15  2  0
 15 16  1  0
 17 16  2  0
 18 17  1  0
 19 14  1  0
 19 18  2  0
  2 20  1  0
  3 21  1  0
  4 22  1  0
  5 23  1  0
  7 24  1  0
  8 25  1  0
  9 26  1  0
 15 27  1  0
 16 28  1  0
 18 29  1  0
M  ISO  8  20  14  21  14  22  14  23  14  24  14  25  14  26  14  27  14
M  ISO  2  28  14  29  14
M  END
>  <minimizedAffinity>  (1) 
-5.06857347

>  <minimizedRMSD>  (1) 
0.736638844

$$$$
