
     RDKit          3D

 34 36  0  0  0  0  0  0  0  0999 V2000
   37.6820   22.5910   34.7960 C   0  0  0  0  0  0  0  0  0  0  0  0
   36.9900   21.4200   34.5670 C   0  0  0  0  0  0  0  0  0  0  0  0
   36.4840   21.1200   33.3380 C   0  0  0  0  0  0  0  0  0  0  0  0
   36.6600   21.9940   32.2920 C   0  0  0  0  0  0  0  0  0  0  0  0
   37.3470   23.1520   32.5290 C   0  0  0  0  0  0  0  0  0  0  0  0
   37.8740   23.4860   33.7670 C   0  0  0  0  0  0  0  0  0  0  0  0
   39.9360   22.7100   37.6540 C   0  0  0  0  0  0  0  0  0  0  0  0
   39.1740   23.3480   38.6510 C   0  0  0  0  0  0  0  0  0  0  0  0
   37.8740   23.7380   38.3280 C   0  0  0  0  0  0  0  0  0  0  0  0
   37.4250   23.4810   37.0810 N   0  0  0  0  0  0  0  0  0  0  0  0
   38.1990   22.8570   36.1400 C   0  0  0  0  0  0  0  0  0  0  0  0
   39.4410   22.4770   36.4300 N   0  0  0  0  0  0  0  0  0  0  0  0
   38.5590   24.6550   33.9640 O   0  0  0  0  0  0  0  0  0  0  0  0
   38.1510   25.9570   33.7310 C   0  0  0  0  0  0  0  0  0  0  0  0
   39.2790   26.9620   33.7660 C   0  0  0  0  0  0  0  0  0  0  0  0
   39.7110   26.9510   35.1990 C   0  0  0  0  0  0  0  0  0  0  0  0
   38.4070   26.8700   35.9470 C   0  0  0  0  0  0  0  0  0  0  0  0
   37.3640   26.3780   34.9800 C   0  0  0  0  0  0  0  0  0  0  0  0
   36.8432   20.7119   35.3959 H   0  0  0  0  0  0  0  0  0  0  0  0
   35.9352   20.1793   33.1831 H   0  0  0  0  0  0  0  0  0  0  0  0
   36.2595   21.7682   31.2927 H   0  0  0  0  0  0  0  0  0  0  0  0
   37.4889   23.8547   31.6947 H   0  0  0  0  0  0  0  0  0  0  0  0
   40.9641   22.3945   37.8852 H   0  0  0  0  0  0  0  0  0  0  0  0
   39.5901   23.5330   39.6523 H   0  0  0  0  0  0  0  0  0  0  0  0
   37.2335   24.2403   39.0679 H   0  0  0  0  0  0  0  0  0  0  0  0
   37.6390   25.9583   32.7574 H   0  0  0  0  0  0  0  0  0  0  0  0
   40.1019   26.6529   33.1047 H   0  0  0  0  0  0  0  0  0  0  0  0
   38.9751   27.9600   33.4173 H   0  0  0  0  0  0  0  0  0  0  0  0
   40.3446   26.0779   35.4139 H   0  0  0  0  0  0  0  0  0  0  0  0
   40.3149   27.8277   35.4757 H   0  0  0  0  0  0  0  0  0  0  0  0
   38.4995   26.1687   36.7893 H   0  0  0  0  0  0  0  0  0  0  0  0
   38.1288   27.8546   36.3509 H   0  0  0  0  0  0  0  0  0  0  0  0
   36.6524   27.1807   34.7367 H   0  0  0  0  0  0  0  0  0  0  0  0
   36.7721   25.5491   35.3955 H   0  0  0  0  0  0  0  0  0  0  0  0
  1 11  1  0
  2  1  2  0
  3  2  1  0
  4  5  1  0
  4  3  2  0
  5  6  2  0
  6 13  1  0
  6  1  1  0
  7  8  2  0
  9  8  1  0
 10  9  2  0
 11 12  2  0
 11 10  1  0
 12  7  1  0
 14 15  1  0
 14 13  1  0
 14 18  1  0
 15 16  1  0
 16 17  1  0
 18 17  1  0
  2 19  1  0
  3 20  1  0
  4 21  1  0
  5 22  1  0
  7 23  1  0
  8 24  1  0
  9 25  1  0
 14 26  1  0
 15 27  1  0
 15 28  1  0
 16 29  1  0
 16 30  1  0
 17 31  1  0
 17 32  1  0
 18 33  1  0
 18 34  1  0
M  ISO  8  19  14  20  14  21  14  22  14  23  14  24  14  25  14  26  13
M  ISO  8  27  13  28  13  29  13  30  13  31  13  32  13  33  13  34  13
M  END
>  <minimizedAffinity>  (1) 
-5.0592823

>  <minimizedRMSD>  (1) 
2.08372712

$$$$
