
     RDKit          3D

 28 30  0  0  0  0  0  0  0  0999 V2000
   37.3360   22.1290   34.7910 C   0  0  0  0  0  0  0  0  0  0  0  0
   36.4400   21.0970   34.8400 C   0  0  0  0  0  0  0  0  0  0  0  0
   35.7280   20.7430   33.7150 C   0  0  0  0  0  0  0  0  0  0  0  0
   35.9140   21.4230   32.5350 C   0  0  0  0  0  0  0  0  0  0  0  0
   36.8180   22.4580   32.5010 C   0  0  0  0  0  0  0  0  0  0  0  0
   37.5580   22.8500   33.6140 C   0  0  0  0  0  0  0  0  0  0  0  0
   40.0570   22.4180   37.2010 C   0  0  0  0  0  0  0  0  0  0  0  0
   39.4660   23.1080   38.2870 C   0  0  0  0  0  0  0  0  0  0  0  0
   38.1380   23.4620   38.1680 C   0  0  0  0  0  0  0  0  0  0  0  0
   37.4840   23.1330   37.0330 N   0  0  0  0  0  0  0  0  0  0  0  0
   38.0770   22.4710   36.0110 C   0  0  0  0  0  0  0  0  0  0  0  0
   39.3670   22.1200   36.1090 N   0  0  0  0  0  0  0  0  0  0  0  0
   38.4460   23.8770   33.5480 O   0  0  0  0  0  0  0  0  0  0  0  0
   38.3130   25.0530   34.1610 C   0  0  0  0  0  0  0  0  0  0  0  0
   37.2910   26.0060   34.3070 C   0  0  0  0  0  0  0  0  0  0  0  0
   37.5640   27.1290   35.0460 C   0  0  0  0  0  0  0  0  0  0  0  0
   38.7930   27.2980   35.6160 C   0  0  0  0  0  0  0  0  0  0  0  0
   39.6680   25.7890   35.1000 S   0  0  0  0  0  0  0  0  0  0  0  0
   36.2873   20.5478   35.7808 H   0  0  0  0  0  0  0  0  0  0  0  0
   35.0078   19.9129   33.7612 H   0  0  0  0  0  0  0  0  0  0  0  0
   35.3491   21.1437   31.6334 H   0  0  0  0  0  0  0  0  0  0  0  0
   36.9631   22.9996   31.5547 H   0  0  0  0  0  0  0  0  0  0  0  0
   41.1145   22.1220   37.2650 H   0  0  0  0  0  0  0  0  0  0  0  0
   40.0435   23.3524   39.1907 H   0  0  0  0  0  0  0  0  0  0  0  0
   37.6239   23.9995   38.9784 H   0  0  0  0  0  0  0  0  0  0  0  0
   36.3045   25.8565   33.8440 H   0  0  0  0  0  0  0  0  0  0  0  0
   36.7885   27.8975   35.1801 H   0  0  0  0  0  0  0  0  0  0  0  0
   39.1603   28.1333   36.2303 H   0  0  0  0  0  0  0  0  0  0  0  0
  1  2  2  0
  1 11  1  0
  3  2  1  0
  4  3  2  0
  5  4  1  0
  5  6  2  0
  6  1  1  0
  7  8  2  0
  9  8  1  0
 10  9  2  0
 11 12  2  0
 11 10  1  0
 12  7  1  0
 13  6  1  0
 13 14  1  0
 14 15  2  0
 14 18  1  0
 15 16  1  0
 16 17  2  0
 18 17  1  0
  2 19  1  0
  3 20  1  0
  4 21  1  0
  5 22  1  0
  7 23  1  0
  8 24  1  0
  9 25  1  0
 15 26  1  0
 16 27  1  0
 17 28  1  0
M  ISO  8  19  14  20  14  21  14  22  14  23  14  24  14  25  14  26  14
M  ISO  2  27  14  28  14
M  END
>  <minimizedAffinity>  (1) 
-4.85031557

>  <minimizedRMSD>  (1) 
0.580329299

$$$$
