
     RDKit          3D

 36 38  0  0  0  0  0  0  0  0999 V2000
   37.2300   21.8860   34.8850 C   0  0  0  0  0  0  0  0  0  0  0  0
   36.2140   20.9760   35.0990 C   0  0  0  0  0  0  0  0  0  0  0  0
   35.5040   20.4410   34.0550 C   0  0  0  0  0  0  0  0  0  0  0  0
   35.8100   20.8160   32.7680 C   0  0  0  0  0  0  0  0  0  0  0  0
   36.8270   21.7250   32.5690 C   0  0  0  0  0  0  0  0  0  0  0  0
   37.5600   22.2820   33.6060 C   0  0  0  0  0  0  0  0  0  0  0  0
   39.9400   22.5570   37.2340 C   0  0  0  0  0  0  0  0  0  0  0  0
   39.3360   23.3430   38.2310 C   0  0  0  0  0  0  0  0  0  0  0  0
   37.9910   23.6310   38.0750 C   0  0  0  0  0  0  0  0  0  0  0  0
   37.3150   23.1590   36.9930 N   0  0  0  0  0  0  0  0  0  0  0  0
   37.9350   22.4060   36.0560 C   0  0  0  0  0  0  0  0  0  0  0  0
   39.2490   22.1090   36.1840 N   0  0  0  0  0  0  0  0  0  0  0  0
   38.5590   23.1790   33.3790 O   0  0  0  0  0  0  0  0  0  0  0  0
   37.3660   26.1370   30.6820 N   0  0  0  0  0  0  0  0  0  0  0  0
   38.6470   25.4930   30.4840 C   0  0  0  0  0  0  0  0  0  0  0  0
   38.7190   24.1510   31.1740 C   0  0  0  0  0  0  0  0  0  0  0  0
   38.5350   24.3620   32.6590 C   0  0  0  0  0  0  0  0  0  0  0  0
   37.1360   24.9520   32.8240 C   0  0  0  0  0  0  0  0  0  0  0  0
   36.9700   26.2380   32.0530 C   0  0  0  0  0  0  0  0  0  0  0  0
   35.9691   20.6740   36.1280 H   0  0  0  0  0  0  0  0  0  0  0  0
   34.6969   19.7183   34.2454 H   0  0  0  0  0  0  0  0  0  0  0  0
   35.2547   20.3992   31.9148 H   0  0  0  0  0  0  0  0  0  0  0  0
   37.0687   22.0228   31.5380 H   0  0  0  0  0  0  0  0  0  0  0  0
   41.0073   22.3054   37.3215 H   0  0  0  0  0  0  0  0  0  0  0  0
   39.9064   23.7124   39.0959 H   0  0  0  0  0  0  0  0  0  0  0  0
   37.4687   24.2417   38.8262 H   0  0  0  0  0  0  0  0  0  0  0  0
   36.6499   25.5953   30.1773 H   0  0  0  0  0  0  0  0  0  0  0  0
   38.8080   25.3469   29.4057 H   0  0  0  0  0  0  0  0  0  0  0  0
   39.4232   26.1402   30.9184 H   0  0  0  0  0  0  0  0  0  0  0  0
   37.9235   23.4945   30.7916 H   0  0  0  0  0  0  0  0  0  0  0  0
   39.6939   23.6801   30.9793 H   0  0  0  0  0  0  0  0  0  0  0  0
   39.3504   24.9995   33.0314 H   0  0  0  0  0  0  0  0  0  0  0  0
   36.3977   24.2222   32.4603 H   0  0  0  0  0  0  0  0  0  0  0  0
   36.9846   25.1737   33.8907 H   0  0  0  0  0  0  0  0  0  0  0  0
   37.5815   27.0146   32.5356 H   0  0  0  0  0  0  0  0  0  0  0  0
   35.8981   26.4848   32.0626 H   0  0  0  0  0  0  0  0  0  0  0  0
  1  2  2  0
  1 11  1  0
  3  2  1  0
  4  3  2  0
  5  4  1  0
  5  6  2  0
  6  1  1  0
  7  8  2  0
  9  8  1  0
 10  9  2  0
 11 12  2  0
 11 10  1  0
 12  7  1  0
 13  6  1  0
 14 19  1  0
 15 14  1  0
 15 16  1  0
 16 17  1  0
 17 18  1  0
 17 13  1  0
 19 18  1  0
  2 20  1  0
  3 21  1  0
  4 22  1  0
  5 23  1  0
  7 24  1  0
  8 25  1  0
  9 26  1  0
 14 27  1  0
 15 28  1  0
 15 29  1  0
 16 30  1  0
 16 31  1  0
 17 32  1  0
 18 33  1  0
 18 34  1  0
 19 35  1  0
 19 36  1  0
M  ISO  8  20  14  21  14  22  14  23  14  24  14  25  14  26  14  27   5
M  ISO  8  28  13  29  13  30  13  31  13  32  13  33  13  34  13  35  13
M  ISO  1  36  13
M  END
>  <minimizedAffinity>  (1) 
-4.83112001

>  <minimizedRMSD>  (1) 
1.0981952

$$$$
