
     RDKit          3D

 33 35  0  0  1  0  0  0  0  0999 V2000
   37.2360   21.9770   34.8630 C   0  0  0  0  0  0  0  0  0  0  0  0
   36.2810   20.9940   34.9990 C   0  0  0  0  0  0  0  0  0  0  0  0
   35.5900   20.5210   33.9150 C   0  0  0  0  0  0  0  0  0  0  0  0
   35.8500   21.0340   32.6660 C   0  0  0  0  0  0  0  0  0  0  0  0
   36.8020   22.0130   32.5350 C   0  0  0  0  0  0  0  0  0  0  0  0
   37.5070   22.5000   33.6170 C   0  0  0  0  0  0  0  0  0  0  0  0
   39.9270   22.5410   37.2460 C   0  0  0  0  0  0  0  0  0  0  0  0
   39.3060   23.2740   38.2840 C   0  0  0  0  0  0  0  0  0  0  0  0
   37.9510   23.5680   38.1420 C   0  0  0  0  0  0  0  0  0  0  0  0
   37.3010   23.1410   37.0330 N   0  0  0  0  0  0  0  0  0  0  0  0
   37.9370   22.4380   36.0600 C   0  0  0  0  0  0  0  0  0  0  0  0
   39.2470   22.1390   36.1670 N   0  0  0  0  0  0  0  0  0  0  0  0
   38.4540   23.4770   33.4550 O   0  0  0  0  0  0  0  0  0  0  0  0
   37.0620   25.2980   32.8040 N   0  0  0  0  0  0  0  0  0  0  0  0
   36.9860   26.7040   33.1570 C   0  0  0  0  0  0  0  0  0  0  0  0
   38.1630   27.0050   34.0610 C   0  0  0  0  0  0  0  0  0  0  0  0
   38.5240   25.6240   34.5610 C   0  0  0  0  0  0  0  0  0  0  0  0
   38.3390   24.8250   33.2640 C   0  0  1  0  0  0  0  0  0  0  0  0
   36.0693   20.5812   35.9964 H   0  0  0  0  0  0  0  0  0  0  0  0
   34.8312   19.7350   34.0430 H   0  0  0  0  0  0  0  0  0  0  0  0
   35.3032   20.6652   31.7857 H   0  0  0  0  0  0  0  0  0  0  0  0
   37.0101   22.4230   31.5357 H   0  0  0  0  0  0  0  0  0  0  0  0
   40.9961   22.2954   37.3283 H   0  0  0  0  0  0  0  0  0  0  0  0
   39.8710   23.5997   39.1698 H   0  0  0  0  0  0  0  0  0  0  0  0
   37.4182   24.1374   38.9178 H   0  0  0  0  0  0  0  0  0  0  0  0
   36.3031   24.7750   33.2639 H   0  0  0  0  0  0  0  0  0  0  0  0
   37.0401   27.3235   32.2496 H   0  0  0  0  0  0  0  0  0  0  0  0
   36.0367   26.9272   33.6659 H   0  0  0  0  0  0  0  0  0  0  0  0
   38.9937   27.4588   33.5006 H   0  0  0  0  0  0  0  0  0  0  0  0
   37.9396   27.7262   34.8610 H   0  0  0  0  0  0  0  0  0  0  0  0
   39.5606   25.5784   34.9261 H   0  0  0  0  0  0  0  0  0  0  0  0
   37.9323   25.2679   35.4172 H   0  0  0  0  0  0  0  0  0  0  0  0
   39.1196   24.9812   32.5048 H   0  0  0  0  0  0  0  0  0  0  0  0
  1  2  2  0
  1 11  1  0
  3  2  1  0
  4  3  2  0
  5  4  1  0
  5  6  2  0
  6  1  1  0
  7  8  2  0
  9  8  1  0
 10  9  2  0
 11 12  2  0
 11 10  1  0
 12  7  1  0
 13  6  1  0
 14 15  1  0
 14 18  1  0
 15 16  1  0
 16 17  1  0
 18 13  1  0
 18 17  1  0
  2 19  1  0
  3 20  1  0
  4 21  1  0
  5 22  1  0
  7 23  1  0
  8 24  1  0
  9 25  1  0
 14 26  1  0
 15 27  1  0
 15 28  1  0
 16 29  1  0
 16 30  1  0
 17 31  1  0
 17 32  1  0
 18 33  1  6
M  ISO  8  19  14  20  14  21  14  22  14  23  14  24  14  25  14  26   5
M  ISO  7  27  13  28  13  29  13  30  13  31  13  32  13  33  13
M  END
>  <minimizedAffinity>  (1) 
-4.75231981

>  <minimizedRMSD>  (1) 
2.10100818

$$$$
