
     RDKit          3D

 27 29  0  0  0  0  0  0  0  0999 V2000
   42.1170   21.9960   34.1510 S   0  0  0  0  0  0  0  0  0  0  0  0
   40.3110   22.3460   37.6930 C   0  0  0  0  0  0  0  0  0  0  0  0
   39.2860   23.2720   37.4530 C   0  0  0  0  0  0  0  0  0  0  0  0
   39.1830   23.7680   36.1800 C   0  0  0  0  0  0  0  0  0  0  0  0
   40.0540   23.3610   35.2100 N   0  0  0  0  0  0  0  0  0  0  0  0
   41.0340   22.4570   35.4950 C   0  0  0  0  0  0  0  0  0  0  0  0
   41.1410   21.9740   36.7200 N   0  0  0  0  0  0  0  0  0  0  0  0
   38.3330   23.7210   38.5020 C   0  0  0  0  0  0  0  0  0  0  0  0
   39.0760   23.9200   39.6700 F   0  0  0  0  0  0  0  0  0  0  0  0
   37.3480   22.8350   38.7560 F   0  0  0  0  0  0  0  0  0  0  0  0
   37.8590   25.0140   38.2110 F   0  0  0  0  0  0  0  0  0  0  0  0
   43.7730   22.6150   34.4760 C   0  0  0  0  0  0  0  0  0  0  0  0
   44.7420   22.4660   33.4710 C   0  0  0  0  0  0  0  0  0  0  0  0
   46.2630   23.2410   34.2550 S   0  0  0  0  0  0  0  0  0  0  0  0
   45.2750   23.6140   35.8010 C   0  0  0  0  0  0  0  0  0  0  0  0
   44.2880   23.2080   35.5180 N   0  0  0  0  0  0  0  0  0  0  0  0
   45.8010   24.2880   37.0220 C   0  0  0  0  0  0  0  0  0  0  0  0
   45.2250   25.1700   37.8730 C   0  0  0  0  0  0  0  0  0  0  0  0
   46.1790   25.4570   38.8270 C   0  0  0  0  0  0  0  0  0  0  0  0
   47.3110   24.7190   38.4990 C   0  0  0  0  0  0  0  0  0  0  0  0
   47.0250   24.0430   37.4170 O   0  0  0  0  0  0  0  0  0  0  0  0
   40.4315   21.9203   38.7001 H   0  0  0  0  0  0  0  0  0  0  0  0
   38.3955   24.4970   35.9382 H   0  0  0  0  0  0  0  0  0  0  0  0
   44.6370   22.0103   32.4754 H   0  0  0  0  0  0  0  0  0  0  0  0
   44.2040   25.5752   37.8152 H   0  0  0  0  0  0  0  0  0  0  0  0
   46.0660   26.1387   39.6829 H   0  0  0  0  0  0  0  0  0  0  0  0
   48.2654   24.7063   39.0458 H   0  0  0  0  0  0  0  0  0  0  0  0
  1 12  1  0
  1  6  1  0
  3  2  2  0
  3  8  1  0
  4  3  1  0
  5  6  1  0
  5  4  2  0
  6  7  2  0
  7  2  1  0
  8 10  1  0
  8  9  1  0
 11  8  1  0
 12 16  1  0
 13 14  1  0
 13 12  2  0
 14 15  1  0
 15 17  1  0
 16 15  2  0
 17 21  1  0
 17 18  2  0
 18 19  1  0
 20 19  2  0
 21 20  1  0
  2 22  1  0
  4 23  1  0
 13 24  1  0
 18 25  1  0
 19 26  1  0
 20 27  1  0
M  ISO  6  22  14  23  14  24  14  25  14  26  14  27  14
M  END
>  <minimizedAffinity>  (1) 
-5.06574059

>  <minimizedRMSD>  (1) 
3.58533716

$$$$
