
     RDKit          3D

 24 25  0  0  0  0  0  0  0  0999 V2000
   37.1840   21.9340   34.7210 C   0  0  0  0  0  0  0  0  0  0  0  0
   36.3040   20.9040   34.8560 C   0  0  0  0  0  0  0  0  0  0  0  0
   35.5500   20.4650   33.7940 C   0  0  0  0  0  0  0  0  0  0  0  0
   35.6910   21.0830   32.5640 C   0  0  0  0  0  0  0  0  0  0  0  0
   36.5770   22.1190   32.4380 C   0  0  0  0  0  0  0  0  0  0  0  0
   37.3480   22.5790   33.4930 C   0  0  0  0  0  0  0  0  0  0  0  0
   39.9810   22.4380   37.0050 C   0  0  0  0  0  0  0  0  0  0  0  0
   39.4170   23.1530   38.0800 C   0  0  0  0  0  0  0  0  0  0  0  0
   38.0700   23.4520   37.9980 C   0  0  0  0  0  0  0  0  0  0  0  0
   37.3670   23.0510   36.9090 N   0  0  0  0  0  0  0  0  0  0  0  0
   37.9580   22.3570   35.8860 C   0  0  0  0  0  0  0  0  0  0  0  0
   39.2620   22.0550   35.9410 N   0  0  0  0  0  0  0  0  0  0  0  0
   38.2270   23.6170   33.3410 O   0  0  0  0  0  0  0  0  0  0  0  0
   37.8930   24.9810   33.3340 C   0  0  0  0  0  0  0  0  0  0  0  0
   38.8760   25.7820   32.7710 F   0  0  0  0  0  0  0  0  0  0  0  0
   36.6500   25.2460   32.8120 F   0  0  0  0  0  0  0  0  0  0  0  0
   37.8210   25.3800   34.6750 F   0  0  0  0  0  0  0  0  0  0  0  0
   36.1943   20.4134   35.8344 H   0  0  0  0  0  0  0  0  0  0  0  0
   34.8427   19.6321   33.9204 H   0  0  0  0  0  0  0  0  0  0  0  0
   35.0996   20.7466   31.6997 H   0  0  0  0  0  0  0  0  0  0  0  0
   36.6811   22.6068   31.4576 H   0  0  0  0  0  0  0  0  0  0  0  0
   41.0509   22.1848   37.0404 H   0  0  0  0  0  0  0  0  0  0  0  0
   40.0218   23.4597   38.9461 H   0  0  0  0  0  0  0  0  0  0  0  0
   37.5736   24.0087   38.8065 H   0  0  0  0  0  0  0  0  0  0  0  0
  1  2  2  0
  1 11  1  0
  3  2  1  0
  4  3  2  0
  5  4  1  0
  5  6  2  0
  6  1  1  0
  7  8  2  0
  9  8  1  0
 10  9  2  0
 11 12  2  0
 11 10  1  0
 12  7  1  0
 13  6  1  0
 14 13  1  0
 14 17  1  0
 15 14  1  0
 16 14  1  0
  2 18  1  0
  3 19  1  0
  4 20  1  0
  5 21  1  0
  7 22  1  0
  8 23  1  0
  9 24  1  0
M  ISO  7  18  14  19  14  20  14  21  14  22  14  23  14  24  14
M  END
>  <minimizedAffinity>  (1) 
-4.37512779

>  <minimizedRMSD>  (1) 
1.44503868

$$$$
