
     RDKit          3D

 25 26  0  0  0  0  0  0  0  0999 V2000
   37.2070   21.9580   34.7340 C   0  0  0  0  0  0  0  0  0  0  0  0
   36.3030   20.9280   34.8840 C   0  0  0  0  0  0  0  0  0  0  0  0
   35.5630   20.4880   33.8130 C   0  0  0  0  0  0  0  0  0  0  0  0
   35.7330   21.0890   32.5800 C   0  0  0  0  0  0  0  0  0  0  0  0
   36.6470   22.1250   32.4430 C   0  0  0  0  0  0  0  0  0  0  0  0
   37.3970   22.5750   33.5150 C   0  0  0  0  0  0  0  0  0  0  0  0
   39.9990   22.4080   37.0400 C   0  0  0  0  0  0  0  0  0  0  0  0
   39.4340   23.1400   38.1100 C   0  0  0  0  0  0  0  0  0  0  0  0
   38.0950   23.4670   38.0170 C   0  0  0  0  0  0  0  0  0  0  0  0
   37.3940   23.0810   36.9260 N   0  0  0  0  0  0  0  0  0  0  0  0
   37.9670   22.3790   35.9190 C   0  0  0  0  0  0  0  0  0  0  0  0
   39.2740   22.0400   35.9720 N   0  0  0  0  0  0  0  0  0  0  0  0
   38.2890   23.5960   33.3530 O   0  0  0  0  0  0  0  0  0  0  0  0
   37.8160   24.8980   33.3930 C   0  0  0  0  0  0  0  0  0  0  0  0
   36.9150   25.8070   32.8130 N   0  0  0  0  0  0  0  0  0  0  0  0
   38.4860   25.4420   34.3320 O   0  0  0  0  0  0  0  0  0  0  0  0
   36.1731   20.4548   35.8685 H   0  0  0  0  0  0  0  0  0  0  0  0
   34.8426   19.6658   33.9357 H   0  0  0  0  0  0  0  0  0  0  0  0
   35.1479   20.7487   31.7129 H   0  0  0  0  0  0  0  0  0  0  0  0
   36.7779   22.5992   31.4591 H   0  0  0  0  0  0  0  0  0  0  0  0
   41.0630   22.1323   37.0842 H   0  0  0  0  0  0  0  0  0  0  0  0
   40.0364   23.4370   38.9812 H   0  0  0  0  0  0  0  0  0  0  0  0
   37.6041   24.0349   38.8211 H   0  0  0  0  0  0  0  0  0  0  0  0
   36.8633   26.7747   33.1621 H   0  0  0  0  0  0  0  0  0  0  0  0
   36.3062   25.5057   32.0387 H   0  0  0  0  0  0  0  0  0  0  0  0
  1  2  2  0
  1 11  1  0
  3  2  1  0
  4  3  2  0
  5  4  1  0
  5  6  2  0
  6  1  1  0
  7  8  2  0
  9  8  1  0
 10  9  2  0
 11 12  2  0
 11 10  1  0
 12  7  1  0
 13 14  1  0
 13  6  1  0
 14 16  2  0
 15 14  1  0
  2 17  1  0
  3 18  1  0
  4 19  1  0
  5 20  1  0
  7 21  1  0
  8 22  1  0
  9 23  1  0
 15 24  1  0
 15 25  1  0
M  ISO  7  17  14  18  14  19  14  20  14  21  14  22  14  23  14
M  END
>  <minimizedAffinity>  (1) 
-4.23048067

>  <minimizedRMSD>  (1) 
0.394244611

$$$$
