
     RDKit          3D

 29 31  0  0  0  0  0  0  0  0999 V2000
   41.8570   21.5440   34.1370 S   0  0  0  0  0  0  0  0  0  0  0  0
   40.3780   22.4000   37.7420 C   0  0  0  0  0  0  0  0  0  0  0  0
   39.2140   23.1400   37.4570 C   0  0  0  0  0  0  0  0  0  0  0  0
   38.9150   23.3580   36.1260 C   0  0  0  0  0  0  0  0  0  0  0  0
   39.7310   22.8630   35.1530 N   0  0  0  0  0  0  0  0  0  0  0  0
   40.8470   22.1510   35.4810 C   0  0  0  0  0  0  0  0  0  0  0  0
   41.1440   21.9370   36.7610 N   0  0  0  0  0  0  0  0  0  0  0  0
   38.3230   23.6810   38.5170 C   0  0  0  0  0  0  0  0  0  0  0  0
   39.1070   23.9080   39.6420 F   0  0  0  0  0  0  0  0  0  0  0  0
   37.3120   22.8440   38.8450 F   0  0  0  0  0  0  0  0  0  0  0  0
   37.8850   24.9750   38.1730 F   0  0  0  0  0  0  0  0  0  0  0  0
   43.5190   22.2150   34.2670 C   0  0  0  0  0  0  0  0  0  0  0  0
   44.4360   21.8640   33.2520 C   0  0  0  0  0  0  0  0  0  0  0  0
   45.9950   22.7800   33.8060 S   0  0  0  0  0  0  0  0  0  0  0  0
   45.0670   23.4390   35.2930 C   0  0  0  0  0  0  0  0  0  0  0  0
   44.0680   22.9900   35.1450 N   0  0  0  0  0  0  0  0  0  0  0  0
   45.7320   24.3210   36.2710 C   0  0  0  0  0  0  0  0  0  0  0  0
   45.1010   24.7620   37.3900 C   0  0  0  0  0  0  0  0  0  0  0  0
   45.7600   25.5870   38.2790 C   0  0  0  0  0  0  0  0  0  0  0  0
   47.0630   25.9940   38.0800 C   0  0  0  0  0  0  0  0  0  0  0  0
   47.6540   25.5160   36.9280 C   0  0  0  0  0  0  0  0  0  0  0  0
   47.0160   24.7120   36.0570 N   0  0  0  0  0  0  0  0  0  0  0  0
   40.6555   22.2035   38.7881 H   0  0  0  0  0  0  0  0  0  0  0  0
   38.0175   23.9316   35.8512 H   0  0  0  0  0  0  0  0  0  0  0  0
   44.2834   21.2249   32.3698 H   0  0  0  0  0  0  0  0  0  0  0  0
   44.0618   24.4608   37.5884 H   0  0  0  0  0  0  0  0  0  0  0  0
   45.2276   25.9320   39.1776 H   0  0  0  0  0  0  0  0  0  0  0  0
   47.5916   26.6506   38.7868 H   0  0  0  0  0  0  0  0  0  0  0  0
   48.6931   25.8050   36.7119 H   0  0  0  0  0  0  0  0  0  0  0  0
  1 12  1  0
  1  6  1  0
  3  2  2  0
  3  8  1  0
  4  3  1  0
  5  6  1  0
  5  4  2  0
  6  7  2  0
  7  2  1  0
  8 10  1  0
  8  9  1  0
 11  8  1  0
 12 16  1  0
 13 14  1  0
 13 12  2  0
 14 15  1  0
 15 17  1  0
 16 15  2  0
 17 18  2  0
 18 19  1  0
 20 19  2  0
 21 20  1  0
 22 17  1  0
 22 21  2  0
  2 23  1  0
  4 24  1  0
 13 25  1  0
 18 26  1  0
 19 27  1  0
 20 28  1  0
 21 29  1  0
M  ISO  7  23  14  24  14  25  14  26  14  27  14  28  14  29  14
M  END
>  <minimizedAffinity>  (1) 
-5.02752829

>  <minimizedRMSD>  (1) 
3.59522152

$$$$
