
     RDKit          3D

 44 48  0  0  0  0  0  0  0  0999 V2000
   37.1290   21.8680   34.5810 C   0  0  0  0  0  0  0  0  0  0  0  0
   36.2240   20.8400   34.7830 C   0  0  0  0  0  0  0  0  0  0  0  0
   35.4380   20.3910   33.7400 C   0  0  0  0  0  0  0  0  0  0  0  0
   35.5710   20.9890   32.4830 C   0  0  0  0  0  0  0  0  0  0  0  0
   36.4770   22.0050   32.3140 C   0  0  0  0  0  0  0  0  0  0  0  0
   37.2830   22.4760   33.3590 C   0  0  0  0  0  0  0  0  0  0  0  0
   40.0110   22.3350   36.7730 C   0  0  0  0  0  0  0  0  0  0  0  0
   39.4990   23.0760   37.8490 C   0  0  0  0  0  0  0  0  0  0  0  0
   38.1480   23.4120   37.8130 C   0  0  0  0  0  0  0  0  0  0  0  0
   37.4230   23.0070   36.7500 N   0  0  0  0  0  0  0  0  0  0  0  0
   37.9320   22.2980   35.7270 C   0  0  0  0  0  0  0  0  0  0  0  0
   39.2370   21.9650   35.7480 N   0  0  0  0  0  0  0  0  0  0  0  0
   38.1580   23.4830   33.1300 O   0  0  0  0  0  0  0  0  0  0  0  0
   37.2430   26.0660   30.9320 N   0  0  0  0  0  0  0  0  0  0  0  0
   37.6340   24.8430   31.0430 N   0  0  0  0  0  0  0  0  0  0  0  0
   37.7800   24.5690   32.3520 C   0  0  0  0  0  0  0  0  0  0  0  0
   37.4470   25.7150   33.0380 C   0  0  0  0  0  0  0  0  0  0  0  0
   37.0930   26.6960   32.0920 C   0  0  0  0  0  0  0  0  0  0  0  0
   36.6240   28.0020   32.5000 C   0  0  0  0  0  0  0  0  0  0  0  0
   36.1270   28.1300   33.8030 C   0  0  0  0  0  0  0  0  0  0  0  0
   35.6350   29.2930   34.3330 C   0  0  0  0  0  0  0  0  0  0  0  0
   35.6020   30.4380   33.5790 C   0  0  0  0  0  0  0  0  0  0  0  0
   36.0730   30.3810   32.2920 C   0  0  0  0  0  0  0  0  0  0  0  0
   36.0220   31.5130   31.5100 C   0  0  0  0  0  0  0  0  0  0  0  0
   36.4500   31.5140   30.1980 C   0  0  0  0  0  0  0  0  0  0  0  0
   36.9370   30.2960   29.7110 C   0  0  0  0  0  0  0  0  0  0  0  0
   36.9680   29.1990   30.5250 C   0  0  0  0  0  0  0  0  0  0  0  0
   36.5510   29.1830   31.8270 C   0  0  0  0  0  0  0  0  0  0  0  0
   36.1307   20.3793   35.7775 H   0  0  0  0  0  0  0  0  0  0  0  0
   34.7175   19.5745   33.8959 H   0  0  0  0  0  0  0  0  0  0  0  0
   34.9550   20.6480   31.6378 H   0  0  0  0  0  0  0  0  0  0  0  0
   36.5745   22.4674   31.3207 H   0  0  0  0  0  0  0  0  0  0  0  0
   41.0740   22.0521   36.7730 H   0  0  0  0  0  0  0  0  0  0  0  0
   40.1406   23.3800   38.6892 H   0  0  0  0  0  0  0  0  0  0  0  0
   37.6860   23.9902   38.6268 H   0  0  0  0  0  0  0  0  0  0  0  0
   37.0625   26.5158   30.0232 H   0  0  0  0  0  0  0  0  0  0  0  0
   37.4559   25.8418   34.1306 H   0  0  0  0  0  0  0  0  0  0  0  0
   36.1321   27.2361   34.4440 H   0  0  0  0  0  0  0  0  0  0  0  0
   35.2645   29.3088   35.3686 H   0  0  0  0  0  0  0  0  0  0  0  0
   35.2083   31.3771   33.9952 H   0  0  0  0  0  0  0  0  0  0  0  0
   35.6285   32.4441   31.9438 H   0  0  0  0  0  0  0  0  0  0  0  0
   36.4107   32.4181   29.5726 H   0  0  0  0  0  0  0  0  0  0  0  0
   37.2947   30.2217   28.6734 H   0  0  0  0  0  0  0  0  0  0  0  0
   37.3566   28.2608   30.1022 H   0  0  0  0  0  0  0  0  0  0  0  0
  1  2  2  0
  1 11  1  0
  3  2  1  0
  4  3  2  0
  5  4  1  0
  5  6  2  0
  6  1  1  0
  7  8  2  0
  9  8  1  0
 10  9  2  0
 11 12  2  0
 11 10  1  0
 12  7  1  0
 13  6  1  0
 14 15  1  0
 14 18  1  0
 15 16  2  0
 16 17  1  0
 16 13  1  0
 18 19  1  0
 18 17  2  0
 19 20  2  0
 20 21  1  0
 22 21  2  0
 23 22  1  0
 24 23  2  0
 25 24  1  0
 26 25  2  0
 26 27  1  0
 27 28  2  0
 28 23  1  0
 28 19  1  0
  2 29  1  0
  3 30  1  0
  4 31  1  0
  5 32  1  0
  7 33  1  0
  8 34  1  0
  9 35  1  0
 14 36  1  0
 17 37  1  0
 20 38  1  0
 21 39  1  0
 22 40  1  0
 24 41  1  0
 25 42  1  0
 26 43  1  0
 27 44  1  0
M  ISO  8  29  14  30  14  31  14  32  14  33  14  34  14  35  14  36   9
M  ISO  8  37  14  38  14  39  14  40  14  41  14  42  14  43  14  44  14
M  END
>  <minimizedAffinity>  (1) 
-6.77399302

>  <minimizedRMSD>  (1) 
2.50850654

$$$$
