
     RDKit          3D

 41 45  0  0  0  0  0  0  0  0999 V2000
   38.4400   23.3460   33.2860 O   0  0  0  0  0  0  0  0  0  0  0  0
   37.2160   21.8880   34.7470 C   0  0  0  0  0  0  0  0  0  0  0  0
   36.2460   20.9370   34.9510 C   0  0  0  0  0  0  0  0  0  0  0  0
   35.4980   20.4660   33.8950 C   0  0  0  0  0  0  0  0  0  0  0  0
   35.7430   20.9710   32.6150 C   0  0  0  0  0  0  0  0  0  0  0  0
   36.7180   21.9190   32.4390 C   0  0  0  0  0  0  0  0  0  0  0  0
   37.4790   22.4030   33.4940 C   0  0  0  0  0  0  0  0  0  0  0  0
   40.0190   22.4080   37.0410 C   0  0  0  0  0  0  0  0  0  0  0  0
   39.4450   23.1670   38.0800 C   0  0  0  0  0  0  0  0  0  0  0  0
   38.0970   23.4960   37.9880 C   0  0  0  0  0  0  0  0  0  0  0  0
   37.4110   23.0710   36.9060 N   0  0  0  0  0  0  0  0  0  0  0  0
   37.9750   22.3440   35.9190 C   0  0  0  0  0  0  0  0  0  0  0  0
   39.2910   22.0120   35.9890 N   0  0  0  0  0  0  0  0  0  0  0  0
   37.6450   26.3360   31.5910 N   0  0  0  0  0  0  0  0  0  0  0  0
   38.1450   25.1450   31.4880 N   0  0  0  0  0  0  0  0  0  0  0  0
   38.0960   24.5520   32.7040 C   0  0  0  0  0  0  0  0  0  0  0  0
   37.5220   25.4700   33.5910 C   0  0  0  0  0  0  0  0  0  0  0  0
   37.2440   26.6130   32.8350 C   0  0  0  0  0  0  0  0  0  0  0  0
   36.6670   27.8740   33.1470 N   0  0  0  0  0  0  0  0  0  0  0  0
   36.2690   28.2280   34.3630 C   0  0  0  0  0  0  0  0  0  0  0  0
   35.7680   29.4780   34.3420 N   0  0  0  0  0  0  0  0  0  0  0  0
   35.8460   29.9430   33.0770 C   0  0  0  0  0  0  0  0  0  0  0  0
   35.5130   31.1050   32.4190 C   0  0  0  0  0  0  0  0  0  0  0  0
   35.7290   31.2570   31.0980 N   0  0  0  0  0  0  0  0  0  0  0  0
   36.2830   30.2560   30.3840 C   0  0  0  0  0  0  0  0  0  0  0  0
   36.6210   29.0960   31.0120 N   0  0  0  0  0  0  0  0  0  0  0  0
   36.4200   28.9140   32.3230 C   0  0  0  0  0  0  0  0  0  0  0  0
   34.9370   32.1200   33.2060 N   0  0  0  0  0  0  0  0  0  0  0  0
   36.0655   20.5492   35.9644 H   0  0  0  0  0  0  0  0  0  0  0  0
   34.7204   19.7048   34.0563 H   0  0  0  0  0  0  0  0  0  0  0  0
   35.1584   20.6108   31.7557 H   0  0  0  0  0  0  0  0  0  0  0  0
   36.9033   22.3091   31.4273 H   0  0  0  0  0  0  0  0  0  0  0  0
   41.0835   22.1360   37.0948 H   0  0  0  0  0  0  0  0  0  0  0  0
   40.0474   23.4909   38.9415 H   0  0  0  0  0  0  0  0  0  0  0  0
   37.6038   24.0858   38.7746 H   0  0  0  0  0  0  0  0  0  0  0  0
   37.5657   26.9946   30.8031 H   0  0  0  0  0  0  0  0  0  0  0  0
   37.3290   25.3224   34.6638 H   0  0  0  0  0  0  0  0  0  0  0  0
   36.3384   27.5924   35.2581 H   0  0  0  0  0  0  0  0  0  0  0  0
   36.4601   30.3754   29.3049 H   0  0  0  0  0  0  0  0  0  0  0  0
   34.6650   33.0147   32.7742 H   0  0  0  0  0  0  0  0  0  0  0  0
   34.7876   31.9681   34.2137 H   0  0  0  0  0  0  0  0  0  0  0  0
  1  7  1  0
  2  3  2  0
  2 12  1  0
  4  3  1  0
  5  4  2  0
  6  5  1  0
  6  7  2  0
  7  2  1  0
  8  9  2  0
 10  9  1  0
 11 10  2  0
 12 13  2  0
 12 11  1  0
 13  8  1  0
 14 18  1  0
 15 14  1  0
 15 16  2  0
 16  1  1  0
 16 17  1  0
 18 19  1  0
 18 17  2  0
 19 20  1  0
 21 20  2  0
 22 21  1  0
 23 22  2  0
 23 28  1  0
 24 23  1  0
 25 26  1  0
 25 24  2  0
 26 27  2  0
 27 22  1  0
 27 19  1  0
  3 29  1  0
  4 30  1  0
  5 31  1  0
  6 32  1  0
  8 33  1  0
  9 34  1  0
 10 35  1  0
 14 36  1  0
 17 37  1  0
 20 38  1  0
 25 39  1  0
 28 40  1  0
 28 41  1  0
M  ISO  8  29  14  30  14  31  14  32  14  33  14  34  14  35  14  36   9
M  ISO  3  37  14  38  14  39  14
M  END
>  <minimizedAffinity>  (1) 
-6.08179474

>  <minimizedRMSD>  (1) 
1.88661635

$$$$
