
     RDKit          3D

 33 35  0  0  0  0  0  0  0  0999 V2000
   40.4400   22.3990   37.7590 C   0  0  0  0  0  0  0  0  0  0  0  0
   39.3960   23.3070   37.5040 C   0  0  0  0  0  0  0  0  0  0  0  0
   39.3110   23.8240   36.2230 C   0  0  0  0  0  0  0  0  0  0  0  0
   40.2200   23.4440   35.2790 N   0  0  0  0  0  0  0  0  0  0  0  0
   41.2110   22.5650   35.5730 C   0  0  0  0  0  0  0  0  0  0  0  0
   41.2920   22.0710   36.7950 N   0  0  0  0  0  0  0  0  0  0  0  0
   38.4060   23.7180   38.5380 C   0  0  0  0  0  0  0  0  0  0  0  0
   39.1120   23.9210   39.7080 F   0  0  0  0  0  0  0  0  0  0  0  0
   37.4390   22.7910   38.7520 F   0  0  0  0  0  0  0  0  0  0  0  0
   37.8790   24.9920   38.2210 F   0  0  0  0  0  0  0  0  0  0  0  0
   42.3530   22.1270   34.2780 S   0  0  0  0  0  0  0  0  0  0  0  0
   43.8470   23.1160   34.4210 C   0  0  0  0  0  0  0  0  0  0  0  0
   44.9260   22.7940   33.5810 C   0  0  0  0  0  0  0  0  0  0  0  0
   46.2240   24.0610   34.0780 S   0  0  0  0  0  0  0  0  0  0  0  0
   45.0120   24.7760   35.3460 C   0  0  0  0  0  0  0  0  0  0  0  0
   44.1390   24.1180   35.1890 N   0  0  0  0  0  0  0  0  0  0  0  0
   45.3230   25.9590   36.2680 C   0  0  0  0  0  0  0  0  0  0  0  0
   46.8100   26.2060   36.2920 C   0  0  0  0  0  0  0  0  0  0  0  0
   47.2410   25.9260   37.6990 C   0  0  0  0  0  0  0  0  0  0  0  0
   46.1810   25.0030   38.2390 C   0  0  0  0  0  0  0  0  0  0  0  0
   44.9160   25.6090   37.6800 C   0  0  0  0  0  0  0  0  0  0  0  0
   40.5508   21.9591   38.7611 H   0  0  0  0  0  0  0  0  0  0  0  0
   38.5143   24.5380   35.9671 H   0  0  0  0  0  0  0  0  0  0  0  0
   44.9945   22.0000   32.8228 H   0  0  0  0  0  0  0  0  0  0  0  0
   44.7820   26.8436   35.9008 H   0  0  0  0  0  0  0  0  0  0  0  0
   47.3230   25.5307   35.5915 H   0  0  0  0  0  0  0  0  0  0  0  0
   47.0574   27.2335   35.9868 H   0  0  0  0  0  0  0  0  0  0  0  0
   48.2267   25.4379   37.7143 H   0  0  0  0  0  0  0  0  0  0  0  0
   47.3419   26.8437   38.2970 H   0  0  0  0  0  0  0  0  0  0  0  0
   46.3249   23.9746   37.8760 H   0  0  0  0  0  0  0  0  0  0  0  0
   46.1841   24.9207   39.3359 H   0  0  0  0  0  0  0  0  0  0  0  0
   44.6214   26.5065   38.2437 H   0  0  0  0  0  0  0  0  0  0  0  0
   44.0454   24.9388   37.7340 H   0  0  0  0  0  0  0  0  0  0  0  0
  2  1  2  0
  2  7  1  0
  3  2  1  0
  4  5  1  0
  4  3  2  0
  5  6  2  0
  6  1  1  0
  7  9  1  0
  7  8  1  0
 10  7  1  0
 11 12  1  0
 11  5  1  0
 12 16  1  0
 13 14  1  0
 13 12  2  0
 14 15  1  0
 15 17  1  0
 16 15  2  0
 17 18  1  0
 17 21  1  0
 18 19  1  0
 19 20  1  0
 21 20  1  0
  1 22  1  0
  3 23  1  0
 13 24  1  0
 17 25  1  0
 18 26  1  0
 18 27  1  0
 19 28  1  0
 19 29  1  0
 20 30  1  0
 20 31  1  0
 21 32  1  0
 21 33  1  0
M  ISO  8  22  14  23  14  24  14  25  13  26  13  27  13  28  13  29  13
M  ISO  4  30  13  31  13  32  13  33  13
M  END
>  <minimizedAffinity>  (1) 
-5.02246141

>  <minimizedRMSD>  (1) 
3.04992795

$$$$
