
     RDKit          3D

 38 41  0  0  0  0  0  0  0  0999 V2000
   37.3020   21.8960   35.0470 C   0  0  0  0  0  0  0  0  0  0  0  0
   36.2640   21.0210   35.2420 C   0  0  0  0  0  0  0  0  0  0  0  0
   35.5950   20.4850   34.1690 C   0  0  0  0  0  0  0  0  0  0  0  0
   35.9840   20.8400   32.8790 C   0  0  0  0  0  0  0  0  0  0  0  0
   37.0230   21.7160   32.7100 C   0  0  0  0  0  0  0  0  0  0  0  0
   37.7140   22.2710   33.7810 C   0  0  0  0  0  0  0  0  0  0  0  0
   39.9230   22.6190   37.4880 C   0  0  0  0  0  0  0  0  0  0  0  0
   39.2820   23.4140   38.4520 C   0  0  0  0  0  0  0  0  0  0  0  0
   37.9320   23.7020   38.2540 C   0  0  0  0  0  0  0  0  0  0  0  0
   37.3310   23.2000   37.1550 N   0  0  0  0  0  0  0  0  0  0  0  0
   37.9720   22.4310   36.2330 C   0  0  0  0  0  0  0  0  0  0  0  0
   39.2770   22.1450   36.4120 N   0  0  0  0  0  0  0  0  0  0  0  0
   38.7450   23.1410   33.5810 O   0  0  0  0  0  0  0  0  0  0  0  0
   38.2850   26.2450   31.9770 N   0  0  0  0  0  0  0  0  0  0  0  0
   38.9300   25.1220   31.9710 N   0  0  0  0  0  0  0  0  0  0  0  0
   38.4930   24.3850   33.0210 C   0  0  0  0  0  0  0  0  0  0  0  0
   37.5230   25.1320   33.6860 C   0  0  0  0  0  0  0  0  0  0  0  0
   37.4130   26.3310   32.9830 C   0  0  0  0  0  0  0  0  0  0  0  0
   36.6040   27.4880   33.1650 N   0  0  0  0  0  0  0  0  0  0  0  0
   36.5760   28.1460   34.3290 C   0  0  0  0  0  0  0  0  0  0  0  0
   35.7670   29.2800   34.4630 C   0  0  0  0  0  0  0  0  0  0  0  0
   35.0320   29.6480   33.3480 C   0  0  0  0  0  0  0  0  0  0  0  0
   34.2890   30.6810   33.4580 O   0  0  0  0  0  0  0  0  0  0  0  0
   35.0760   28.9640   32.1730 N   0  0  0  0  0  0  0  0  0  0  0  0
   35.8810   27.8650   32.0940 C   0  0  0  0  0  0  0  0  0  0  0  0
   35.8590   27.2970   30.9770 O   0  0  0  0  0  0  0  0  0  0  0  0
   35.9654   20.7467   36.2645 H   0  0  0  0  0  0  0  0  0  0  0  0
   34.7621   19.7839   34.3261 H   0  0  0  0  0  0  0  0  0  0  0  0
   35.4622   20.4212   32.0059 H   0  0  0  0  0  0  0  0  0  0  0  0
   37.3222   21.9910   31.6878 H   0  0  0  0  0  0  0  0  0  0  0  0
   40.9881   22.3774   37.6193 H   0  0  0  0  0  0  0  0  0  0  0  0
   39.8242   23.7951   39.3299 H   0  0  0  0  0  0  0  0  0  0  0  0
   37.3735   24.3201   38.9724 H   0  0  0  0  0  0  0  0  0  0  0  0
   38.4295   26.9904   31.2810 H   0  0  0  0  0  0  0  0  0  0  0  0
   36.9589   24.8361   34.5828 H   0  0  0  0  0  0  0  0  0  0  0  0
   37.1853   27.7979   35.1761 H   0  0  0  0  0  0  0  0  0  0  0  0
   35.7174   29.8486   35.4033 H   0  0  0  0  0  0  0  0  0  0  0  0
   34.5160   29.2678   31.3637 H   0  0  0  0  0  0  0  0  0  0  0  0
  1  2  2  0
  1 11  1  0
  3  2  1  0
  4  3  2  0
  5  4  1  0
  5  6  2  0
  6  1  1  0
  7  8  2  0
  9  8  1  0
 10  9  2  0
 11 12  2  0
 11 10  1  0
 12  7  1  0
 13  6  1  0
 14 18  1  0
 15 14  1  0
 15 16  2  0
 16 13  1  0
 16 17  1  0
 18 19  1  0
 18 17  2  0
 19 20  1  0
 20 21  2  0
 22 23  2  0
 22 21  1  0
 24 22  1  0
 25 24  1  0
 25 19  1  0
 26 25  2  0
  2 27  1  0
  3 28  1  0
  4 29  1  0
  5 30  1  0
  7 31  1  0
  8 32  1  0
  9 33  1  0
 14 34  1  0
 17 35  1  0
 20 36  1  0
 21 37  1  0
 24 38  1  0
M  ISO  8  27  14  28  14  29  14  30  14  31  14  32  14  33  14  34   9
M  ISO  4  35  14  36  14  37  14  38   9
M  END
>  <minimizedAffinity>  (1) 
-5.99456406

>  <minimizedRMSD>  (1) 
2.08400083

$$$$
