
     RDKit          3D

 37 40  0  0  0  0  0  0  0  0999 V2000
   37.2320   21.9600   34.7180 C   0  0  0  0  0  0  0  0  0  0  0  0
   36.2760   20.9800   34.8930 C   0  0  0  0  0  0  0  0  0  0  0  0
   35.5340   20.5390   33.8120 C   0  0  0  0  0  0  0  0  0  0  0  0
   35.7720   21.1020   32.5500 C   0  0  0  0  0  0  0  0  0  0  0  0
   36.7280   22.0710   32.4120 C   0  0  0  0  0  0  0  0  0  0  0  0
   37.4880   22.5320   33.4840 C   0  0  0  0  0  0  0  0  0  0  0  0
   40.0050   22.4070   37.0420 C   0  0  0  0  0  0  0  0  0  0  0  0
   39.4410   23.1530   38.1030 C   0  0  0  0  0  0  0  0  0  0  0  0
   38.1000   23.4940   38.0020 C   0  0  0  0  0  0  0  0  0  0  0  0
   37.4280   23.0910   36.8980 N   0  0  0  0  0  0  0  0  0  0  0  0
   37.9810   22.3820   35.8970 C   0  0  0  0  0  0  0  0  0  0  0  0
   39.2810   22.0460   35.9860 N   0  0  0  0  0  0  0  0  0  0  0  0
   38.4280   23.4970   33.3090 O   0  0  0  0  0  0  0  0  0  0  0  0
   37.6500   26.3670   31.4010 N   0  0  0  0  0  0  0  0  0  0  0  0
   38.1500   25.1680   31.3860 N   0  0  0  0  0  0  0  0  0  0  0  0
   38.0860   24.6690   32.6390 C   0  0  0  0  0  0  0  0  0  0  0  0
   37.5060   25.6470   33.4520 C   0  0  0  0  0  0  0  0  0  0  0  0
   37.2390   26.7250   32.6190 C   0  0  0  0  0  0  0  0  0  0  0  0
   36.6350   28.0140   32.9400 C   0  0  0  0  0  0  0  0  0  0  0  0
   36.2580   28.3490   34.2260 C   0  0  0  0  0  0  0  0  0  0  0  0
   35.6820   29.6000   34.4800 C   0  0  0  0  0  0  0  0  0  0  0  0
   35.5010   30.4920   33.4170 C   0  0  0  0  0  0  0  0  0  0  0  0
   35.9010   30.1020   32.1360 C   0  0  0  0  0  0  0  0  0  0  0  0
   36.4490   28.8860   31.9520 N   0  0  0  0  0  0  0  0  0  0  0  0
   36.1043   20.5501   35.8909 H   0  0  0  0  0  0  0  0  0  0  0  0
   34.7692   19.7589   33.9404 H   0  0  0  0  0  0  0  0  0  0  0  0
   35.1937   20.7667   31.6764 H   0  0  0  0  0  0  0  0  0  0  0  0
   36.9031   22.5027   31.4155 H   0  0  0  0  0  0  0  0  0  0  0  0
   41.0655   22.1190   37.0911 H   0  0  0  0  0  0  0  0  0  0  0  0
   40.0423   23.4513   38.9745 H   0  0  0  0  0  0  0  0  0  0  0  0
   37.5995   24.0725   38.7925 H   0  0  0  0  0  0  0  0  0  0  0  0
   37.5791   26.9709   30.5696 H   0  0  0  0  0  0  0  0  0  0  0  0
   37.3028   25.5768   34.5308 H   0  0  0  0  0  0  0  0  0  0  0  0
   36.4099   27.6348   35.0487 H   0  0  0  0  0  0  0  0  0  0  0  0
   35.3765   29.8773   35.4997 H   0  0  0  0  0  0  0  0  0  0  0  0
   35.0522   31.4818   33.5866 H   0  0  0  0  0  0  0  0  0  0  0  0
   35.7690   30.7843   31.2833 H   0  0  0  0  0  0  0  0  0  0  0  0
  1  2  2  0
  1 11  1  0
  3  2  1  0
  4  3  2  0
  5  4  1  0
  5  6  2  0
  6  1  1  0
  7  8  2  0
  9  8  1  0
 10  9  2  0
 11 12  2  0
 11 10  1  0
 12  7  1  0
 13  6  1  0
 14 18  1  0
 15 14  1  0
 15 16  2  0
 16 13  1  0
 16 17  1  0
 18 19  1  0
 18 17  2  0
 19 20  2  0
 20 21  1  0
 22 21  2  0
 23 22  1  0
 24 23  2  0
 24 19  1  0
  2 25  1  0
  3 26  1  0
  4 27  1  0
  5 28  1  0
  7 29  1  0
  8 30  1  0
  9 31  1  0
 14 32  1  0
 17 33  1  0
 20 34  1  0
 21 35  1  0
 22 36  1  0
 23 37  1  0
M  ISO  8  25  14  26  14  27  14  28  14  29  14  30  14  31  14  32   9
M  ISO  5  33  14  34  14  35  14  36  14  37  14
M  END
>  <minimizedAffinity>  (1) 
-5.8563199

>  <minimizedRMSD>  (1) 
1.64730835

$$$$
