
     RDKit          3D

 42 45  0  0  0  0  0  0  0  0999 V2000
   37.1580   21.9290   34.7150 C   0  0  0  0  0  0  0  0  0  0  0  0
   36.2880   20.8620   34.8880 C   0  0  0  0  0  0  0  0  0  0  0  0
   35.5400   20.4060   33.8220 C   0  0  0  0  0  0  0  0  0  0  0  0
   35.6680   21.0250   32.5860 C   0  0  0  0  0  0  0  0  0  0  0  0
   36.5400   22.0820   32.4450 C   0  0  0  0  0  0  0  0  0  0  0  0
   37.3060   22.5620   33.5050 C   0  0  0  0  0  0  0  0  0  0  0  0
   39.9870   22.4240   36.9720 C   0  0  0  0  0  0  0  0  0  0  0  0
   39.4320   23.1490   38.0410 C   0  0  0  0  0  0  0  0  0  0  0  0
   38.0650   23.4660   37.9750 C   0  0  0  0  0  0  0  0  0  0  0  0
   37.3780   23.0560   36.8950 N   0  0  0  0  0  0  0  0  0  0  0  0
   37.9210   22.3660   35.8810 C   0  0  0  0  0  0  0  0  0  0  0  0
   39.2430   22.0470   35.9240 N   0  0  0  0  0  0  0  0  0  0  0  0
   38.1480   23.6060   33.3110 O   0  0  0  0  0  0  0  0  0  0  0  0
   37.0900   26.8690   34.0900 N   0  0  0  0  0  0  0  0  0  0  0  0
   37.6030   25.7710   34.5360 N   0  0  0  0  0  0  0  0  0  0  0  0
   37.7040   24.9020   33.5160 C   0  0  0  0  0  0  0  0  0  0  0  0
   37.2080   25.5490   32.3750 C   0  0  0  0  0  0  0  0  0  0  0  0
   36.8160   26.8250   32.7760 C   0  0  0  0  0  0  0  0  0  0  0  0
   36.2480   27.8540   31.9660 N   0  0  0  0  0  0  0  0  0  0  0  0
   35.3480   28.8550   32.5010 C   0  0  0  0  0  0  0  0  0  0  0  0
   35.4530   30.1780   31.8050 C   0  0  0  0  0  0  0  0  0  0  0  0
   35.6180   30.0600   30.3760 N   0  0  0  0  0  0  0  0  0  0  0  0
   36.8450   29.3200   30.1340 C   0  0  0  0  0  0  0  0  0  0  0  0
   36.5870   27.8920   30.5710 C   0  0  0  0  0  0  0  0  0  0  0  0
   36.1948   20.3808   35.8727 H   0  0  0  0  0  0  0  0  0  0  0  0
   34.8488   19.5600   33.9503 H   0  0  0  0  0  0  0  0  0  0  0  0
   35.0780   20.6743   31.7264 H   0  0  0  0  0  0  0  0  0  0  0  0
   36.6348   22.5640   31.4608 H   0  0  0  0  0  0  0  0  0  0  0  0
   41.0548   22.1608   36.9968 H   0  0  0  0  0  0  0  0  0  0  0  0
   40.0468   23.4574   38.8994 H   0  0  0  0  0  0  0  0  0  0  0  0
   37.5732   24.0310   38.7805 H   0  0  0  0  0  0  0  0  0  0  0  0
   36.9097   27.6932   34.6809 H   0  0  0  0  0  0  0  0  0  0  0  0
   37.1412   25.1305   31.3599 H   0  0  0  0  0  0  0  0  0  0  0  0
   34.3163   28.4875   32.3988 H   0  0  0  0  0  0  0  0  0  0  0  0
   35.6278   29.0165   33.5525 H   0  0  0  0  0  0  0  0  0  0  0  0
   34.5355   30.7511   32.0043 H   0  0  0  0  0  0  0  0  0  0  0  0
   36.3495   30.6815   32.1959 H   0  0  0  0  0  0  0  0  0  0  0  0
   34.8174   29.5544   29.9707 H   0  0  0  0  0  0  0  0  0  0  0  0
   37.1001   29.3487   29.0644 H   0  0  0  0  0  0  0  0  0  0  0  0
   37.6868   29.7577   30.6906 H   0  0  0  0  0  0  0  0  0  0  0  0
   35.7549   27.4769   29.9834 H   0  0  0  0  0  0  0  0  0  0  0  0
   37.4969   27.2962   30.4063 H   0  0  0  0  0  0  0  0  0  0  0  0
  1  2  2  0
  1 11  1  0
  3  2  1  0
  4  3  2  0
  5  4  1  0
  5  6  2  0
  6  1  1  0
  7  8  2  0
  9  8  1  0
 10  9  2  0
 11 12  2  0
 11 10  1  0
 12  7  1  0
 13  6  1  0
 13 16  1  0
 14 15  1  0
 16 15  2  0
 17 18  2  0
 17 16  1  0
 18 14  1  0
 19 20  1  0
 19 18  1  0
 21 20  1  0
 22 21  1  0
 23 22  1  0
 23 24  1  0
 24 19  1  0
  2 25  1  0
  3 26  1  0
  4 27  1  0
  5 28  1  0
  7 29  1  0
  8 30  1  0
  9 31  1  0
 14 32  1  0
 17 33  1  0
 20 34  1  0
 20 35  1  0
 21 36  1  0
 21 37  1  0
 22 38  1  0
 23 39  1  0
 23 40  1  0
 24 41  1  0
 24 42  1  0
M  ISO  8  25  14  26  14  27  14  28  14  29  14  30  14  31  14  32   9
M  ISO  8  33  14  34  13  35  13  36  13  37  13  38   5  39  13  40  13
M  ISO  2  41  13  42  13
M  END
>  <minimizedAffinity>  (1) 
-5.79967833

>  <minimizedRMSD>  (1) 
2.84107804

$$$$
