
     RDKit          3D

 43 46  0  0  0  0  0  0  0  0999 V2000
   37.0980   21.8070   34.5030 C   0  0  0  0  0  0  0  0  0  0  0  0
   36.1600   20.8150   34.7280 C   0  0  0  0  0  0  0  0  0  0  0  0
   35.3790   20.3450   33.7020 C   0  0  0  0  0  0  0  0  0  0  0  0
   35.5450   20.8850   32.4230 C   0  0  0  0  0  0  0  0  0  0  0  0
   36.4800   21.8690   32.2170 C   0  0  0  0  0  0  0  0  0  0  0  0
   37.2800   22.3550   33.2480 C   0  0  0  0  0  0  0  0  0  0  0  0
   39.9830   22.3380   36.6850 C   0  0  0  0  0  0  0  0  0  0  0  0
   39.4620   23.0830   37.7520 C   0  0  0  0  0  0  0  0  0  0  0  0
   38.0940   23.4050   37.7170 C   0  0  0  0  0  0  0  0  0  0  0  0
   37.3730   22.9770   36.6600 N   0  0  0  0  0  0  0  0  0  0  0  0
   37.8970   22.2550   35.6350 C   0  0  0  0  0  0  0  0  0  0  0  0
   39.2150   21.9420   35.6610 N   0  0  0  0  0  0  0  0  0  0  0  0
   38.1910   23.3270   33.0040 O   0  0  0  0  0  0  0  0  0  0  0  0
   37.3120   26.0310   30.9020 N   0  0  0  0  0  0  0  0  0  0  0  0
   37.6980   24.7960   30.9580 N   0  0  0  0  0  0  0  0  0  0  0  0
   37.8270   24.4490   32.2570 C   0  0  0  0  0  0  0  0  0  0  0  0
   37.4900   25.5640   33.0280 C   0  0  0  0  0  0  0  0  0  0  0  0
   37.1580   26.5860   32.1160 C   0  0  0  0  0  0  0  0  0  0  0  0
   36.7620   27.9000   32.5650 N   0  0  0  0  0  0  0  0  0  0  0  0
   36.3520   28.2390   33.9100 C   0  0  0  0  0  0  0  0  0  0  0  0
   35.5240   29.5160   33.8680 C   0  0  0  0  0  0  0  0  0  0  0  0
   34.6380   29.4070   32.6330 C   0  0  0  0  0  0  0  0  0  0  0  0
   35.5190   29.7220   31.4410 C   0  0  0  0  0  0  0  0  0  0  0  0
   36.7970   28.9630   31.5740 C   0  0  0  0  0  0  0  0  0  0  0  0
   36.0391   20.3990   35.7391 H   0  0  0  0  0  0  0  0  0  0  0  0
   34.6342   19.5560   33.8830 H   0  0  0  0  0  0  0  0  0  0  0  0
   34.9296   20.5233   31.5861 H   0  0  0  0  0  0  0  0  0  0  0  0
   36.6009   22.2863   31.2064 H   0  0  0  0  0  0  0  0  0  0  0  0
   41.0502   22.0715   36.6885 H   0  0  0  0  0  0  0  0  0  0  0  0
   40.1012   23.4044   38.5875 H   0  0  0  0  0  0  0  0  0  0  0  0
   37.6267   23.9869   38.5251 H   0  0  0  0  0  0  0  0  0  0  0  0
   37.1411   26.5346   30.0199 H   0  0  0  0  0  0  0  0  0  0  0  0
   37.4848   25.6309   34.1259 H   0  0  0  0  0  0  0  0  0  0  0  0
   35.7474   27.4209   34.3286 H   0  0  0  0  0  0  0  0  0  0  0  0
   37.2393   28.3917   34.5420 H   0  0  0  0  0  0  0  0  0  0  0  0
   34.9063   29.6001   34.7743 H   0  0  0  0  0  0  0  0  0  0  0  0
   36.1653   30.4086   33.8240 H   0  0  0  0  0  0  0  0  0  0  0  0
   34.2312   28.3887   32.5461 H   0  0  0  0  0  0  0  0  0  0  0  0
   33.7866   30.1010   32.6923 H   0  0  0  0  0  0  0  0  0  0  0  0
   35.7310   30.8010   31.4128 H   0  0  0  0  0  0  0  0  0  0  0  0
   35.0074   29.4327   30.5112 H   0  0  0  0  0  0  0  0  0  0  0  0
   37.0351   28.5158   30.5976 H   0  0  0  0  0  0  0  0  0  0  0  0
   37.5569   29.6831   31.9117 H   0  0  0  0  0  0  0  0  0  0  0  0
  1  2  2  0
  1 11  1  0
  3  2  1  0
  4  3  2  0
  5  4  1  0
  5  6  2  0
  6  1  1  0
  7  8  2  0
  9  8  1  0
 10  9  2  0
 11 12  2  0
 11 10  1  0
 12  7  1  0
 13  6  1  0
 14 15  1  0
 14 18  1  0
 15 16  2  0
 16 13  1  0
 16 17  1  0
 18 19  1  0
 18 17  2  0
 19 20  1  0
 21 20  1  0
 22 21  1  0
 23 24  1  0
 23 22  1  0
 24 19  1  0
  2 25  1  0
  3 26  1  0
  4 27  1  0
  5 28  1  0
  7 29  1  0
  8 30  1  0
  9 31  1  0
 14 32  1  0
 17 33  1  0
 20 34  1  0
 20 35  1  0
 21 36  1  0
 21 37  1  0
 22 38  1  0
 22 39  1  0
 23 40  1  0
 23 41  1  0
 24 42  1  0
 24 43  1  0
M  ISO  8  25  14  26  14  27  14  28  14  29  14  30  14  31  14  32   9
M  ISO  8  33  14  34  13  35  13  36  13  37  13  38  13  39  13  40  13
M  ISO  3  41  13  42  13  43  13
M  END
>  <minimizedAffinity>  (1) 
-5.76341915

>  <minimizedRMSD>  (1) 
1.99053371

$$$$
