
     RDKit          3D

 35 38  0  0  0  0  0  0  0  0999 V2000
   37.1010   21.8860   34.7170 C   0  0  0  0  0  0  0  0  0  0  0  0
   36.2300   20.8360   34.9250 C   0  0  0  0  0  0  0  0  0  0  0  0
   35.4610   20.3610   33.8830 C   0  0  0  0  0  0  0  0  0  0  0  0
   35.5820   20.9580   32.6280 C   0  0  0  0  0  0  0  0  0  0  0  0
   36.4570   21.9980   32.4570 C   0  0  0  0  0  0  0  0  0  0  0  0
   37.2410   22.4960   33.4830 C   0  0  0  0  0  0  0  0  0  0  0  0
   39.9720   22.4270   36.9200 C   0  0  0  0  0  0  0  0  0  0  0  0
   39.4190   23.1710   37.9960 C   0  0  0  0  0  0  0  0  0  0  0  0
   38.0520   23.4800   37.9500 C   0  0  0  0  0  0  0  0  0  0  0  0
   37.3550   23.0440   36.8770 N   0  0  0  0  0  0  0  0  0  0  0  0
   37.8880   22.3410   35.8640 C   0  0  0  0  0  0  0  0  0  0  0  0
   39.2040   22.0390   35.8990 N   0  0  0  0  0  0  0  0  0  0  0  0
   38.0960   23.5260   33.2810 O   0  0  0  0  0  0  0  0  0  0  0  0
   37.6060   25.6270   30.4820 N   0  0  0  0  0  0  0  0  0  0  0  0
   38.0690   24.4780   30.9060 N   0  0  0  0  0  0  0  0  0  0  0  0
   37.8640   24.4140   32.2350 C   0  0  0  0  0  0  0  0  0  0  0  0
   37.2350   25.6040   32.6300 C   0  0  0  0  0  0  0  0  0  0  0  0
   37.0880   26.3560   31.4710 C   0  0  0  0  0  0  0  0  0  0  0  0
   36.4920   27.6810   31.3170 C   0  0  0  0  0  0  0  0  0  0  0  0
   35.7520   28.3950   32.2380 C   0  0  0  0  0  0  0  0  0  0  0  0
   35.4320   29.5750   31.5990 C   0  0  0  0  0  0  0  0  0  0  0  0
   35.9620   29.5640   30.3450 N   0  0  0  0  0  0  0  0  0  0  0  0
   36.6090   28.3990   30.1870 N   0  0  0  0  0  0  0  0  0  0  0  0
   36.1490   20.3778   35.9217 H   0  0  0  0  0  0  0  0  0  0  0  0
   34.7635   19.5249   34.0392 H   0  0  0  0  0  0  0  0  0  0  0  0
   34.9792   20.5963   31.7819 H   0  0  0  0  0  0  0  0  0  0  0  0
   36.5401   22.4573   31.4609 H   0  0  0  0  0  0  0  0  0  0  0  0
   41.0412   22.1684   36.9278 H   0  0  0  0  0  0  0  0  0  0  0  0
   40.0447   23.4953   38.8406 H   0  0  0  0  0  0  0  0  0  0  0  0
   37.5670   24.0534   38.7537 H   0  0  0  0  0  0  0  0  0  0  0  0
   37.6382   25.9322   29.4988 H   0  0  0  0  0  0  0  0  0  0  0  0
   36.9227   25.8839   33.6469 H   0  0  0  0  0  0  0  0  0  0  0  0
   35.4775   28.0897   33.2585 H   0  0  0  0  0  0  0  0  0  0  0  0
   34.8419   30.3951   32.0339 H   0  0  0  0  0  0  0  0  0  0  0  0
   35.8810   30.3144   29.6441 H   0  0  0  0  0  0  0  0  0  0  0  0
  1  2  2  0
  1 11  1  0
  3  2  1  0
  4  3  2  0
  5  4  1  0
  5  6  2  0
  6  1  1  0
  7  8  2  0
  9  8  1  0
 10  9  2  0
 11 12  2  0
 11 10  1  0
 12  7  1  0
 13  6  1  0
 14 15  1  0
 14 18  1  0
 15 16  2  0
 16 17  1  0
 16 13  1  0
 18 17  2  0
 19 18  1  0
 19 20  1  0
 21 20  2  0
 22 21  1  0
 23 22  1  0
 23 19  2  0
  2 24  1  0
  3 25  1  0
  4 26  1  0
  5 27  1  0
  7 28  1  0
  8 29  1  0
  9 30  1  0
 14 31  1  0
 17 32  1  0
 20 33  1  0
 21 34  1  0
 22 35  1  0
M  ISO  8  24  14  25  14  26  14  27  14  28  14  29  14  30  14  31   9
M  ISO  4  32  14  33  14  34  14  35   9
M  END
>  <minimizedAffinity>  (1) 
-5.6972723

>  <minimizedRMSD>  (1) 
2.56967854

$$$$
