
     RDKit          3D

 31 33  0  0  0  0  0  0  0  0999 V2000
   43.0300   22.5190   33.6600 C   0  0  0  0  0  0  0  0  0  0  0  0
   43.3460   22.7200   32.2930 C   0  0  0  0  0  0  0  0  0  0  0  0
   44.8510   23.8650   32.3920 S   0  0  0  0  0  0  0  0  0  0  0  0
   44.7260   23.8260   34.2710 C   0  0  0  0  0  0  0  0  0  0  0  0
   43.8530   23.1680   34.4340 N   0  0  0  0  0  0  0  0  0  0  0  0
   45.6350   24.5410   35.1470 N   0  0  0  0  0  0  0  0  0  0  0  0
   45.8180   24.0140   36.3480 C   0  0  0  0  0  0  0  0  0  0  0  0
   46.6740   24.6540   37.2240 C   0  0  0  0  0  0  0  0  0  0  0  0
   47.2760   25.8100   36.7650 C   0  0  0  0  0  0  0  0  0  0  0  0
   48.1880   26.6400   37.4770 N   0  0  0  0  0  0  0  0  0  0  0  0
   47.0500   26.3040   35.5260 N   0  0  0  0  0  0  0  0  0  0  0  0
   46.2010   25.6550   34.6760 C   0  0  0  0  0  0  0  0  0  0  0  0
   45.9650   26.0840   33.5170 O   0  0  0  0  0  0  0  0  0  0  0  0
   41.6320   21.4700   34.0200 S   0  0  0  0  0  0  0  0  0  0  0  0
   40.4670   22.5210   37.6810 C   0  0  0  0  0  0  0  0  0  0  0  0
   39.2130   23.1150   37.4650 C   0  0  0  0  0  0  0  0  0  0  0  0
   38.7470   23.1780   36.1610 C   0  0  0  0  0  0  0  0  0  0  0  0
   39.5140   22.6660   35.1520 N   0  0  0  0  0  0  0  0  0  0  0  0
   40.7200   22.1030   35.4080 C   0  0  0  0  0  0  0  0  0  0  0  0
   41.1690   22.0420   36.6600 N   0  0  0  0  0  0  0  0  0  0  0  0
   38.3810   23.6700   38.5720 C   0  0  0  0  0  0  0  0  0  0  0  0
   39.2300   23.8600   39.6530 F   0  0  0  0  0  0  0  0  0  0  0  0
   37.3580   22.8610   38.9390 F   0  0  0  0  0  0  0  0  0  0  0  0
   37.9590   24.9810   38.2470 F   0  0  0  0  0  0  0  0  0  0  0  0
   42.8448   22.3143   31.4018 H   0  0  0  0  0  0  0  0  0  0  0  0
   45.3008   23.0886   36.6414 H   0  0  0  0  0  0  0  0  0  0  0  0
   46.8662   24.2635   38.2342 H   0  0  0  0  0  0  0  0  0  0  0  0
   48.5747   27.4829   37.0289 H   0  0  0  0  0  0  0  0  0  0  0  0
   48.4609   26.3974   38.4401 H   0  0  0  0  0  0  0  0  0  0  0  0
   40.8705   22.4519   38.7020 H   0  0  0  0  0  0  0  0  0  0  0  0
   37.7709   23.6349   35.9407 H   0  0  0  0  0  0  0  0  0  0  0  0
  1 14  1  0
  1  5  1  0
  2  3  1  0
  2  1  2  0
  3  4  1  0
  4  5  2  0
  4  6  1  0
  6  7  1  0
  7  8  2  0
  9  8  1  0
  9 10  1  0
 11  9  2  0
 12  6  1  0
 12 11  1  0
 13 12  2  0
 14 19  1  0
 16 15  2  0
 16 21  1  0
 17 16  1  0
 18 19  1  0
 18 17  2  0
 19 20  2  0
 20 15  1  0
 21 23  1  0
 21 22  1  0
 24 21  1  0
  2 25  1  0
  7 26  1  0
  8 27  1  0
 10 28  1  0
 10 29  1  0
 15 30  1  0
 17 31  1  0
M  ISO  5  25  14  26  14  27  14  30  14  31  14
M  END
>  <minimizedAffinity>  (1) 
-5.0171833

>  <minimizedRMSD>  (1) 
3.41407156

$$$$
