
     RDKit          3D

 40 43  0  0  0  0  0  0  0  0999 V2000
   37.1510   21.8920   34.7220 C   0  0  0  0  0  0  0  0  0  0  0  0
   36.2400   20.8740   34.9220 C   0  0  0  0  0  0  0  0  0  0  0  0
   35.4820   20.4010   33.8750 C   0  0  0  0  0  0  0  0  0  0  0  0
   35.6490   20.9640   32.6170 C   0  0  0  0  0  0  0  0  0  0  0  0
   36.5610   21.9740   32.4470 C   0  0  0  0  0  0  0  0  0  0  0  0
   37.3380   22.4680   33.4900 C   0  0  0  0  0  0  0  0  0  0  0  0
   39.9890   22.4240   36.9570 C   0  0  0  0  0  0  0  0  0  0  0  0
   39.4310   23.1750   38.0290 C   0  0  0  0  0  0  0  0  0  0  0  0
   38.0700   23.4860   37.9550 C   0  0  0  0  0  0  0  0  0  0  0  0
   37.3910   23.0570   36.8870 N   0  0  0  0  0  0  0  0  0  0  0  0
   37.9250   22.3470   35.8790 C   0  0  0  0  0  0  0  0  0  0  0  0
   39.2360   22.0350   35.9280 N   0  0  0  0  0  0  0  0  0  0  0  0
   38.2270   23.4670   33.2680 O   0  0  0  0  0  0  0  0  0  0  0  0
   37.8520   25.5200   30.4360 N   0  0  0  0  0  0  0  0  0  0  0  0
   38.3440   24.4130   30.8890 N   0  0  0  0  0  0  0  0  0  0  0  0
   38.0270   24.3420   32.2060 C   0  0  0  0  0  0  0  0  0  0  0  0
   37.3010   25.4970   32.5310 C   0  0  0  0  0  0  0  0  0  0  0  0
   37.2070   26.2350   31.3590 C   0  0  0  0  0  0  0  0  0  0  0  0
   36.5720   27.4900   31.1380 N   0  0  0  0  0  0  0  0  0  0  0  0
   35.5670   28.0320   32.0360 C   0  0  0  0  0  0  0  0  0  0  0  0
   35.7390   29.5130   31.8540 C   0  0  0  0  0  0  0  0  0  0  0  0
   36.8480   29.7300   30.8460 C   0  0  0  0  0  0  0  0  0  0  0  0
   36.7820   28.4230   30.0440 C   0  0  0  0  0  0  0  0  0  0  0  0
   36.1192   20.4381   35.9247 H   0  0  0  0  0  0  0  0  0  0  0  0
   34.7557   19.5900   34.0325 H   0  0  0  0  0  0  0  0  0  0  0  0
   35.0551   20.6032   31.7643 H   0  0  0  0  0  0  0  0  0  0  0  0
   36.6832   22.4114   31.4451 H   0  0  0  0  0  0  0  0  0  0  0  0
   41.0568   22.1607   36.9776 H   0  0  0  0  0  0  0  0  0  0  0  0
   40.0459   23.4980   38.8819 H   0  0  0  0  0  0  0  0  0  0  0  0
   37.5749   24.0642   38.7490 H   0  0  0  0  0  0  0  0  0  0  0  0
   37.9490   25.8209   29.4557 H   0  0  0  0  0  0  0  0  0  0  0  0
   36.8893   25.7641   33.5155 H   0  0  0  0  0  0  0  0  0  0  0  0
   34.5567   27.7096   31.7440 H   0  0  0  0  0  0  0  0  0  0  0  0
   35.6833   27.7003   33.0783 H   0  0  0  0  0  0  0  0  0  0  0  0
   34.8032   29.9554   31.4818 H   0  0  0  0  0  0  0  0  0  0  0  0
   35.9917   29.9910   32.8120 H   0  0  0  0  0  0  0  0  0  0  0  0
   36.6484   30.6043   30.2090 H   0  0  0  0  0  0  0  0  0  0  0  0
   37.8314   29.9356   31.2940 H   0  0  0  0  0  0  0  0  0  0  0  0
   35.9432   28.4186   29.3324 H   0  0  0  0  0  0  0  0  0  0  0  0
   37.6556   28.2153   29.4086 H   0  0  0  0  0  0  0  0  0  0  0  0
  1  2  2  0
  1 11  1  0
  3  2  1  0
  4  3  2  0
  5  4  1  0
  5  6  2  0
  6  1  1  0
  7  8  2  0
  9  8  1  0
 10  9  2  0
 11 12  2  0
 11 10  1  0
 12  7  1  0
 13  6  1  0
 14 15  1  0
 14 18  1  0
 15 16  2  0
 16 17  1  0
 16 13  1  0
 18 17  2  0
 19 18  1  0
 19 20  1  0
 21 20  1  0
 22 21  1  0
 23 22  1  0
 23 19  1  0
  2 24  1  0
  3 25  1  0
  4 26  1  0
  5 27  1  0
  7 28  1  0
  8 29  1  0
  9 30  1  0
 14 31  1  0
 17 32  1  0
 20 33  1  0
 20 34  1  0
 21 35  1  0
 21 36  1  0
 22 37  1  0
 22 38  1  0
 23 39  1  0
 23 40  1  0
M  ISO  8  24  14  25  14  26  14  27  14  28  14  29  14  30  14  31   9
M  ISO  8  32  14  33  13  34  13  35  13  36  13  37  13  38  13  39  13
M  ISO  1  40  13
M  END
>  <minimizedAffinity>  (1) 
-5.59257317

>  <minimizedRMSD>  (1) 
2.65138292

$$$$
