
     RDKit          3D

 30 32  0  0  0  0  0  0  0  0999 V2000
   43.7680   23.2020   34.3090 C   0  0  0  0  0  0  0  0  0  0  0  0
   43.8800   24.1300   33.2440 C   0  0  0  0  0  0  0  0  0  0  0  0
   45.4770   25.0460   33.6750 S   0  0  0  0  0  0  0  0  0  0  0  0
   45.6510   23.9760   35.2060 C   0  0  0  0  0  0  0  0  0  0  0  0
   44.7570   23.3300   35.1330 N   0  0  0  0  0  0  0  0  0  0  0  0
   46.7570   24.1210   36.1230 N   0  0  0  0  0  0  0  0  0  0  0  0
   47.3670   23.0090   36.6160 C   0  0  0  0  0  0  0  0  0  0  0  0
   48.4230   23.2470   37.4950 C   0  0  0  0  0  0  0  0  0  0  0  0
   48.8220   24.5170   37.8400 C   0  0  0  0  0  0  0  0  0  0  0  0
   49.7790   24.7210   38.6350 O   0  0  0  0  0  0  0  0  0  0  0  0
   48.1790   25.5870   37.3190 N   0  0  0  0  0  0  0  0  0  0  0  0
   47.1430   25.3780   36.4580 C   0  0  0  0  0  0  0  0  0  0  0  0
   46.5090   26.3570   35.9440 O   0  0  0  0  0  0  0  0  0  0  0  0
   42.3570   22.1070   34.2860 S   0  0  0  0  0  0  0  0  0  0  0  0
   40.4410   22.3760   37.7650 C   0  0  0  0  0  0  0  0  0  0  0  0
   39.3950   23.2910   37.4940 C   0  0  0  0  0  0  0  0  0  0  0  0
   39.3080   23.8150   36.2100 C   0  0  0  0  0  0  0  0  0  0  0  0
   40.2180   23.4370   35.2660 N   0  0  0  0  0  0  0  0  0  0  0  0
   41.2130   22.5460   35.5770 C   0  0  0  0  0  0  0  0  0  0  0  0
   41.2980   22.0430   36.8090 N   0  0  0  0  0  0  0  0  0  0  0  0
   38.3970   23.7100   38.5200 C   0  0  0  0  0  0  0  0  0  0  0  0
   39.1100   23.9210   39.6990 F   0  0  0  0  0  0  0  0  0  0  0  0
   37.4380   22.7830   38.7540 F   0  0  0  0  0  0  0  0  0  0  0  0
   37.8730   24.9780   38.2110 F   0  0  0  0  0  0  0  0  0  0  0  0
   43.2089   24.2794   32.3853 H   0  0  0  0  0  0  0  0  0  0  0  0
   47.0491   21.9927   36.3402 H   0  0  0  0  0  0  0  0  0  0  0  0
   48.9561   22.3878   37.9281 H   0  0  0  0  0  0  0  0  0  0  0  0
   48.4674   26.5438   37.5687 H   0  0  0  0  0  0  0  0  0  0  0  0
   40.5431   21.9406   38.7700 H   0  0  0  0  0  0  0  0  0  0  0  0
   38.5111   24.5296   35.9563 H   0  0  0  0  0  0  0  0  0  0  0  0
  1  5  1  0
  2  3  1  0
  2  1  2  0
  3  4  1  0
  4  6  1  0
  5  4  2  0
  6 12  1  0
  6  7  1  0
  7  8  2  0
  8  9  1  0
  9 10  2  0
 11  9  1  0
 12 11  1  0
 13 12  2  0
 14  1  1  0
 14 19  1  0
 16 15  2  0
 16 21  1  0
 17 16  1  0
 18 19  1  0
 18 17  2  0
 19 20  2  0
 20 15  1  0
 21 23  1  0
 21 22  1  0
 24 21  1  0
  2 25  1  0
  7 26  1  0
  8 27  1  0
 11 28  1  0
 15 29  1  0
 17 30  1  0
M  ISO  6  25  14  26  14  27  14  28   9  29  14  30  14
M  END
>  <minimizedAffinity>  (1) 
-4.92651415

>  <minimizedRMSD>  (1) 
3.59093404

$$$$
