
     RDKit          3D

 31 33  0  0  0  0  0  0  0  0999 V2000
   37.1130   21.8620   34.7380 C   0  0  0  0  0  0  0  0  0  0  0  0
   36.2230   20.8270   34.9660 C   0  0  0  0  0  0  0  0  0  0  0  0
   35.4500   20.3390   33.9330 C   0  0  0  0  0  0  0  0  0  0  0  0
   35.5860   20.9080   32.6640 C   0  0  0  0  0  0  0  0  0  0  0  0
   36.4820   21.9380   32.4670 C   0  0  0  0  0  0  0  0  0  0  0  0
   37.2660   22.4410   33.4910 C   0  0  0  0  0  0  0  0  0  0  0  0
   39.9630   22.4460   36.9440 C   0  0  0  0  0  0  0  0  0  0  0  0
   39.4240   23.1900   38.0050 C   0  0  0  0  0  0  0  0  0  0  0  0
   38.0710   23.4870   37.9500 C   0  0  0  0  0  0  0  0  0  0  0  0
   37.3500   23.0500   36.8920 N   0  0  0  0  0  0  0  0  0  0  0  0
   37.9040   22.3320   35.8820 C   0  0  0  0  0  0  0  0  0  0  0  0
   39.2100   22.0350   35.9180 N   0  0  0  0  0  0  0  0  0  0  0  0
   38.1440   23.4620   33.2670 O   0  0  0  0  0  0  0  0  0  0  0  0
   37.5510   25.6430   30.5640 N   0  0  0  0  0  0  0  0  0  0  0  0
   38.0700   24.5180   30.9340 N   0  0  0  0  0  0  0  0  0  0  0  0
   37.8610   24.3890   32.2640 C   0  0  0  0  0  0  0  0  0  0  0  0
   37.1700   25.5220   32.7010 C   0  0  0  0  0  0  0  0  0  0  0  0
   36.9830   26.3150   31.5770 C   0  0  0  0  0  0  0  0  0  0  0  0
   36.3010   27.6370   31.4810 C   0  0  0  0  0  0  0  0  0  0  0  0
   37.0160   28.6020   32.2050 F   0  0  0  0  0  0  0  0  0  0  0  0
   35.0300   27.6410   31.9730 F   0  0  0  0  0  0  0  0  0  0  0  0
   36.2990   28.1100   30.1820 F   0  0  0  0  0  0  0  0  0  0  0  0
   36.1319   20.3928   35.9726 H   0  0  0  0  0  0  0  0  0  0  0  0
   34.7396   19.5170   34.1050 H   0  0  0  0  0  0  0  0  0  0  0  0
   34.9803   20.5356   31.8247 H   0  0  0  0  0  0  0  0  0  0  0  0
   36.5768   22.3746   31.4618 H   0  0  0  0  0  0  0  0  0  0  0  0
   41.0337   22.1941   36.9567 H   0  0  0  0  0  0  0  0  0  0  0  0
   40.0496   23.5238   38.8459 H   0  0  0  0  0  0  0  0  0  0  0  0
   37.5922   24.0676   38.7523 H   0  0  0  0  0  0  0  0  0  0  0  0
   37.5714   25.9872   29.5934 H   0  0  0  0  0  0  0  0  0  0  0  0
   36.8409   25.7412   33.7275 H   0  0  0  0  0  0  0  0  0  0  0  0
  1  2  2  0
  1 11  1  0
  3  2  1  0
  4  3  2  0
  5  4  1  0
  5  6  2  0
  6  1  1  0
  7  8  2  0
  9  8  1  0
 10  9  2  0
 11 12  2  0
 11 10  1  0
 12  7  1  0
 13  6  1  0
 14 15  1  0
 14 18  1  0
 15 16  2  0
 16 17  1  0
 16 13  1  0
 18 17  2  0
 19 18  1  0
 19 21  1  0
 19 20  1  0
 22 19  1  0
  2 23  1  0
  3 24  1  0
  4 25  1  0
  5 26  1  0
  7 27  1  0
  8 28  1  0
  9 29  1  0
 14 30  1  0
 17 31  1  0
M  ISO  8  23  14  24  14  25  14  26  14  27  14  28  14  29  14  30   9
M  ISO  1  31  14
M  END
>  <minimizedAffinity>  (1) 
-5.39049053

>  <minimizedRMSD>  (1) 
2.09836841

$$$$
