
     RDKit          3D

 34 36  0  0  0  0  0  0  0  0999 V2000
   36.9850   21.6810   34.3140 C   0  0  0  0  0  0  0  0  0  0  0  0
   36.1110   20.6340   34.5570 C   0  0  0  0  0  0  0  0  0  0  0  0
   35.3350   20.1370   33.5420 C   0  0  0  0  0  0  0  0  0  0  0  0
   35.4340   20.6940   32.2710 C   0  0  0  0  0  0  0  0  0  0  0  0
   36.3060   21.7300   32.0560 C   0  0  0  0  0  0  0  0  0  0  0  0
   37.1050   22.2510   33.0760 C   0  0  0  0  0  0  0  0  0  0  0  0
   39.8950   22.3960   36.3990 C   0  0  0  0  0  0  0  0  0  0  0  0
   39.3440   23.0500   37.5200 C   0  0  0  0  0  0  0  0  0  0  0  0
   37.9630   23.2380   37.5450 C   0  0  0  0  0  0  0  0  0  0  0  0
   37.2440   22.7870   36.5010 N   0  0  0  0  0  0  0  0  0  0  0  0
   37.7840   22.1650   35.4380 C   0  0  0  0  0  0  0  0  0  0  0  0
   39.1280   21.9670   35.3860 N   0  0  0  0  0  0  0  0  0  0  0  0
   37.9660   23.2900   32.8180 O   0  0  0  0  0  0  0  0  0  0  0  0
   36.6220   26.5470   32.6050 N   0  0  0  0  0  0  0  0  0  0  0  0
   36.7600   25.3990   32.0130 N   0  0  0  0  0  0  0  0  0  0  0  0
   37.4740   24.5940   32.8240 C   0  0  0  0  0  0  0  0  0  0  0  0
   37.7830   25.3080   33.9750 C   0  0  0  0  0  0  0  0  0  0  0  0
   37.2140   26.5750   33.8010 C   0  0  0  0  0  0  0  0  0  0  0  0
   37.1900   27.7850   34.6640 C   0  0  0  0  0  0  0  0  0  0  0  0
   38.1590   27.6680   35.7930 C   0  0  0  0  0  0  0  0  0  0  0  0
   36.0396   20.2009   35.5656 H   0  0  0  0  0  0  0  0  0  0  0  0
   34.6403   19.3053   33.7308 H   0  0  0  0  0  0  0  0  0  0  0  0
   34.8182   20.3067   31.4459 H   0  0  0  0  0  0  0  0  0  0  0  0
   36.3785   22.1646   31.0481 H   0  0  0  0  0  0  0  0  0  0  0  0
   40.9820   22.2335   36.3542 H   0  0  0  0  0  0  0  0  0  0  0  0
   39.9813   23.3995   38.3456 H   0  0  0  0  0  0  0  0  0  0  0  0
   37.4753   23.7404   38.3934 H   0  0  0  0  0  0  0  0  0  0  0  0
   36.1136   27.3449   32.1978 H   0  0  0  0  0  0  0  0  0  0  0  0
   38.3562   24.9514   34.8435 H   0  0  0  0  0  0  0  0  0  0  0  0
   37.4530   28.6633   34.0562 H   0  0  0  0  0  0  0  0  0  0  0  0
   36.1791   27.8900   35.0849 H   0  0  0  0  0  0  0  0  0  0  0  0
   37.6182   27.7333   36.7486 H   0  0  0  0  0  0  0  0  0  0  0  0
   38.6789   26.7006   35.7313 H   0  0  0  0  0  0  0  0  0  0  0  0
   38.8942   28.4839   35.7313 H   0  0  0  0  0  0  0  0  0  0  0  0
  1  2  2  0
  1 11  1  0
  3  2  1  0
  4  3  2  0
  5  4  1  0
  5  6  2  0
  6  1  1  0
  7  8  2  0
  8  9  1  0
 10  9  2  0
 11 10  1  0
 12 11  2  0
 12  7  1  0
 13 16  1  0
 13  6  1  0
 14 18  1  0
 15 14  1  0
 15 16  2  0
 16 17  1  0
 18 17  2  0
 18 19  1  0
 19 20  1  0
  2 21  1  0
  3 22  1  0
  4 23  1  0
  5 24  1  0
  7 25  1  0
  8 26  1  0
  9 27  1  0
 14 28  1  0
 17 29  1  0
 19 30  1  0
 19 31  1  0
 20 32  1  0
 20 33  1  0
 20 34  1  0
M  ISO  8  21  14  22  14  23  14  24  14  25  14  26  14  27  14  28   9
M  ISO  6  29  14  30   8  31   8  32   8  33   8  34   8
M  END
>  <minimizedAffinity>  (1) 
-5.10043573

>  <minimizedRMSD>  (1) 
0.633404076

$$$$
