
     RDKit          3D

 29 31  0  0  0  0  0  0  0  0999 V2000
   37.2230   21.9710   34.7090 C   0  0  0  0  0  0  0  0  0  0  0  0
   36.3100   20.9440   34.8670 C   0  0  0  0  0  0  0  0  0  0  0  0
   35.5730   20.5040   33.8040 C   0  0  0  0  0  0  0  0  0  0  0  0
   35.7540   21.1040   32.5530 C   0  0  0  0  0  0  0  0  0  0  0  0
   36.6710   22.1230   32.4310 C   0  0  0  0  0  0  0  0  0  0  0  0
   37.4350   22.5900   33.5000 C   0  0  0  0  0  0  0  0  0  0  0  0
   40.0080   22.4100   37.0320 C   0  0  0  0  0  0  0  0  0  0  0  0
   39.4410   23.1510   38.0960 C   0  0  0  0  0  0  0  0  0  0  0  0
   38.0840   23.4960   38.0000 C   0  0  0  0  0  0  0  0  0  0  0  0
   37.4150   23.1000   36.9030 N   0  0  0  0  0  0  0  0  0  0  0  0
   37.9770   22.3890   35.8910 C   0  0  0  0  0  0  0  0  0  0  0  0
   39.2830   22.0470   35.9660 N   0  0  0  0  0  0  0  0  0  0  0  0
   38.3240   23.5960   33.3270 O   0  0  0  0  0  0  0  0  0  0  0  0
   37.2070   26.7280   32.1490 N   0  0  0  0  0  0  0  0  0  0  0  0
   37.6840   25.5720   31.8210 N   0  0  0  0  0  0  0  0  0  0  0  0
   37.8670   24.8540   32.9560 C   0  0  0  0  0  0  0  0  0  0  0  0
   37.4650   25.6540   34.0160 C   0  0  0  0  0  0  0  0  0  0  0  0
   37.0370   26.8740   33.4690 C   0  0  0  0  0  0  0  0  0  0  0  0
   36.4030   28.3100   34.3530 S   0  0  0  0  0  0  0  0  0  0  0  0
   36.1765   20.4786   35.8547 H   0  0  0  0  0  0  0  0  0  0  0  0
   34.8462   19.6880   33.9301 H   0  0  0  0  0  0  0  0  0  0  0  0
   35.1732   20.7670   31.6818 H   0  0  0  0  0  0  0  0  0  0  0  0
   36.8076   22.5906   31.4448 H   0  0  0  0  0  0  0  0  0  0  0  0
   41.0694   22.1254   37.0817 H   0  0  0  0  0  0  0  0  0  0  0  0
   40.0430   23.4463   38.9680 H   0  0  0  0  0  0  0  0  0  0  0  0
   37.5851   24.0703   38.7945 H   0  0  0  0  0  0  0  0  0  0  0  0
   36.9805   27.4628   31.4637 H   0  0  0  0  0  0  0  0  0  0  0  0
   37.4790   25.3837   35.0822 H   0  0  0  0  0  0  0  0  0  0  0  0
   36.4983   28.0942   35.7025 H   0  0  0  0  0  0  0  0  0  0  0  0
  1  2  2  0
  1 11  1  0
  3  2  1  0
  4  3  2  0
  5  4  1  0
  5  6  2  0
  6  1  1  0
  7  8  2  0
  9  8  1  0
 10  9  2  0
 11 12  2  0
 11 10  1  0
 12  7  1  0
 13  6  1  0
 14 18  1  0
 15 14  1  0
 15 16  2  0
 16 13  1  0
 16 17  1  0
 18 17  2  0
 18 19  1  0
  2 20  1  0
  3 21  1  0
  4 22  1  0
  5 23  1  0
  7 24  1  0
  8 25  1  0
  9 26  1  0
 14 27  1  0
 17 28  1  0
 19 29  1  0
M  ISO  8  20  14  21  14  22  14  23  14  24  14  25  14  26  14  27   9
M  ISO  2  28  14  29  11
M  END
>  <minimizedAffinity>  (1) 
-4.80156994

>  <minimizedRMSD>  (1) 
0.507750154

$$$$
