
     RDKit          3D

 28 30  0  0  0  0  0  0  0  0999 V2000
   41.8750   22.1130   33.9890 S   0  0  0  0  0  0  0  0  0  0  0  0
   40.2670   22.3810   37.6330 C   0  0  0  0  0  0  0  0  0  0  0  0
   39.2080   23.2760   37.4640 C   0  0  0  0  0  0  0  0  0  0  0  0
   39.0160   23.7820   36.1990 C   0  0  0  0  0  0  0  0  0  0  0  0
   39.8360   23.4100   35.1770 N   0  0  0  0  0  0  0  0  0  0  0  0
   40.8640   22.5270   35.3970 C   0  0  0  0  0  0  0  0  0  0  0  0
   41.0460   22.0430   36.6120 N   0  0  0  0  0  0  0  0  0  0  0  0
   38.3080   23.6870   38.5720 C   0  0  0  0  0  0  0  0  0  0  0  0
   39.1130   23.8950   39.6990 F   0  0  0  0  0  0  0  0  0  0  0  0
   37.3590   22.7750   38.8690 F   0  0  0  0  0  0  0  0  0  0  0  0
   37.7780   24.9810   38.3160 F   0  0  0  0  0  0  0  0  0  0  0  0
   43.5630   22.6640   34.2710 C   0  0  0  0  0  0  0  0  0  0  0  0
   44.4440   22.6460   33.1730 C   0  0  0  0  0  0  0  0  0  0  0  0
   46.0380   23.2890   33.9370 S   0  0  0  0  0  0  0  0  0  0  0  0
   45.1790   23.4480   35.5930 C   0  0  0  0  0  0  0  0  0  0  0  0
   44.1660   23.0950   35.3310 N   0  0  0  0  0  0  0  0  0  0  0  0
   45.9830   23.9560   36.7310 C   0  0  0  0  0  0  0  0  0  0  0  0
   47.2990   23.6020   36.9060 C   0  0  0  0  0  0  0  0  0  0  0  0
   47.8980   24.1650   38.0160 C   0  0  0  0  0  0  0  0  0  0  0  0
   47.2200   24.9900   38.8410 N   0  0  0  0  0  0  0  0  0  0  0  0
   45.9230   25.2940   38.6020 C   0  0  0  0  0  0  0  0  0  0  0  0
   45.2920   24.7610   37.5200 N   0  0  0  0  0  0  0  0  0  0  0  0
   40.4586   21.9497   38.6266 H   0  0  0  0  0  0  0  0  0  0  0  0
   38.1958   24.4908   36.0120 H   0  0  0  0  0  0  0  0  0  0  0  0
   44.2501   22.3358   32.1356 H   0  0  0  0  0  0  0  0  0  0  0  0
   47.8310   22.9268   36.2196 H   0  0  0  0  0  0  0  0  0  0  0  0
   48.9518   23.9356   38.2324 H   0  0  0  0  0  0  0  0  0  0  0  0
   45.3806   25.9695   39.2798 H   0  0  0  0  0  0  0  0  0  0  0  0
  1 12  1  0
  1  6  1  0
  3  2  2  0
  3  8  1  0
  4  3  1  0
  5  6  1  0
  5  4  2  0
  6  7  2  0
  7  2  1  0
  8 10  1  0
  8  9  1  0
 11  8  1  0
 12 16  1  0
 13 14  1  0
 13 12  2  0
 14 15  1  0
 15 17  1  0
 16 15  2  0
 17 18  2  0
 17 22  1  0
 18 19  1  0
 19 20  2  0
 21 20  1  0
 22 21  2  0
  2 23  1  0
  4 24  1  0
 13 25  1  0
 18 26  1  0
 19 27  1  0
 21 28  1  0
M  ISO  6  23  14  24  14  25  14  26  14  27  14  28  14
M  END
>  <minimizedAffinity>  (1) 
-4.81966162

>  <minimizedRMSD>  (1) 
3.64826965

$$$$
