
     RDKit          3D

 45 49  0  0  0  0  0  0  0  0999 V2000
   37.6850   26.3840   30.6530 N   0  0  0  0  0  0  0  0  0  0  0  0
   38.2220   25.2430   30.4010 N   0  0  0  0  0  0  0  0  0  0  0  0
   38.0020   24.4360   31.4630 C   0  0  0  0  0  0  0  0  0  0  0  0
   37.2840   25.1780   32.3960 C   0  0  0  0  0  0  0  0  0  0  0  0
   37.0870   26.4310   31.8570 C   0  0  0  0  0  0  0  0  0  0  0  0
   36.4000   27.5740   32.4150 C   0  0  0  0  0  0  0  0  0  0  0  0
   35.6240   28.3590   31.6000 C   0  0  0  0  0  0  0  0  0  0  0  0
   34.9520   29.4610   32.0710 C   0  0  0  0  0  0  0  0  0  0  0  0
   35.0880   29.7580   33.4210 C   0  0  0  0  0  0  0  0  0  0  0  0
   35.8710   28.9700   34.2540 C   0  0  0  0  0  0  0  0  0  0  0  0
   36.5370   27.8600   33.7440 C   0  0  0  0  0  0  0  0  0  0  0  0
   37.2350   27.2300   34.8360 C   0  0  0  0  0  0  0  0  0  0  0  0
   37.4250   25.9700   35.4260 C   0  0  0  0  0  0  0  0  0  0  0  0
   38.3300   26.2200   36.4450 C   0  0  0  0  0  0  0  0  0  0  0  0
   38.6760   27.5210   36.4860 N   0  0  0  0  0  0  0  0  0  0  0  0
   38.0070   28.1450   35.5020 N   0  0  0  0  0  0  0  0  0  0  0  0
   38.2940   23.1160   31.8430 O   0  0  0  0  0  0  0  0  0  0  0  0
   37.0850   21.7350   33.4110 C   0  0  0  0  0  0  0  0  0  0  0  0
   36.0270   20.8950   33.7130 C   0  0  0  0  0  0  0  0  0  0  0  0
   35.0980   20.5810   32.7540 C   0  0  0  0  0  0  0  0  0  0  0  0
   35.2450   21.1290   31.4690 C   0  0  0  0  0  0  0  0  0  0  0  0
   36.3080   21.9610   31.1970 C   0  0  0  0  0  0  0  0  0  0  0  0
   37.2620   22.2910   32.1590 C   0  0  0  0  0  0  0  0  0  0  0  0
   40.2440   22.2020   35.1740 C   0  0  0  0  0  0  0  0  0  0  0  0
   39.8350   22.5680   36.4850 C   0  0  0  0  0  0  0  0  0  0  0  0
   38.4770   22.6480   36.7310 C   0  0  0  0  0  0  0  0  0  0  0  0
   37.6300   22.3780   35.7310 N   0  0  0  0  0  0  0  0  0  0  0  0
   38.0460   22.0300   34.4850 C   0  0  0  0  0  0  0  0  0  0  0  0
   39.3630   21.9410   34.2030 N   0  0  0  0  0  0  0  0  0  0  0  0
   37.7102   27.1801   30.0000 H   0  0  0  0  0  0  0  0  0  0  0  0
   36.9381   24.8294   33.3803 H   0  0  0  0  0  0  0  0  0  0  0  0
   35.5371   28.0976   30.5350 H   0  0  0  0  0  0  0  0  0  0  0  0
   34.3325   30.0818   31.4070 H   0  0  0  0  0  0  0  0  0  0  0  0
   34.5665   30.6324   33.8373 H   0  0  0  0  0  0  0  0  0  0  0  0
   35.9650   29.2240   35.3201 H   0  0  0  0  0  0  0  0  0  0  0  0
   36.9643   25.0113   35.1456 H   0  0  0  0  0  0  0  0  0  0  0  0
   38.7166   25.4536   37.1328 H   0  0  0  0  0  0  0  0  0  0  0  0
   39.3323   27.9571   37.1493 H   0  0  0  0  0  0  0  0  0  0  0  0
   35.9309   20.4776   34.7262 H   0  0  0  0  0  0  0  0  0  0  0  0
   34.2550   19.9136   32.9864 H   0  0  0  0  0  0  0  0  0  0  0  0
   34.5130   20.8942   30.6822 H   0  0  0  0  0  0  0  0  0  0  0  0
   36.4081   22.3802   30.1849 H   0  0  0  0  0  0  0  0  0  0  0  0
   41.3189   22.1313   34.9514 H   0  0  0  0  0  0  0  0  0  0  0  0
   40.5714   22.7797   37.2743 H   0  0  0  0  0  0  0  0  0  0  0  0
   38.1012   22.9273   37.7264 H   0  0  0  0  0  0  0  0  0  0  0  0
  1  5  1  0
  2  1  1  0
  2  3  2  0
  3 17  1  0
  3  4  1  0
  5  4  2  0
  5  6  1  0
  6 11  2  0
  7  8  2  0
  7  6  1  0
  8  9  1  0
  9 10  2  0
 11 10  1  0
 11 12  1  0
 12 13  1  0
 12 16  2  0
 13 14  2  0
 14 15  1  0
 16 15  1  0
 17 23  1  0
 18 19  2  0
 18 28  1  0
 20 19  1  0
 21 20  2  0
 22 21  1  0
 22 23  2  0
 23 18  1  0
 24 25  2  0
 25 26  1  0
 27 26  2  0
 28 27  1  0
 29 28  2  0
 29 24  1  0
  1 30  1  0
  4 31  1  0
  7 32  1  0
  8 33  1  0
  9 34  1  0
 10 35  1  0
 13 36  1  0
 14 37  1  0
 15 38  1  0
 19 39  1  0
 20 40  1  0
 21 41  1  0
 22 42  1  0
 24 43  1  0
 25 44  1  0
 26 45  1  0
M  ISO  8  30   9  31  14  32  14  33  14  34  14  35  14  36  14  37  14
M  ISO  8  38   9  39  14  40  14  41  14  42  14  43  14  44  14  45  14
M  END
>  <minimizedAffinity>  (1) 
-6.56224918

>  <minimizedRMSD>  (1) 
1.31568623

$$$$
