
     RDKit          3D

 27 28  0  0  1  0  0  0  0  0999 V2000
   39.0130   25.4910   34.8040 C   0  0  2  0  0  0  0  0  0  0  0  0
   39.6590   22.9180   37.3330 C   0  0  0  0  0  0  0  0  0  0  0  0
   38.7680   23.2520   38.3870 C   0  0  0  0  0  0  0  0  0  0  0  0
   37.9510   24.3680   38.2120 C   0  0  0  0  0  0  0  0  0  0  0  0
   38.0710   25.0560   37.0340 N   0  0  0  0  0  0  0  0  0  0  0  0
   38.9290   24.7090   36.0550 C   0  0  0  0  0  0  0  0  0  0  0  0
   39.7180   23.6500   36.1980 N   0  0  0  0  0  0  0  0  0  0  0  0
   40.0560   26.5710   34.9770 C   0  0  0  0  0  0  0  0  0  0  0  0
   37.7130   26.1640   34.4280 C   0  0  0  0  0  0  0  0  0  0  0  0
   37.1490   25.6100   33.1670 C   0  0  0  0  0  0  0  0  0  0  0  0
   37.4510   24.2950   32.8270 C   0  0  0  0  0  0  0  0  0  0  0  0
   36.9430   23.7530   31.6620 C   0  0  0  0  0  0  0  0  0  0  0  0
   36.1500   24.4470   30.8150 N   0  0  0  0  0  0  0  0  0  0  0  0
   35.8790   25.7280   31.1830 C   0  0  0  0  0  0  0  0  0  0  0  0
   36.3500   26.3050   32.3080 N   0  0  0  0  0  0  0  0  0  0  0  0
   39.2682   24.7817   34.0029 H   0  0  0  0  0  0  0  0  0  0  0  0
   40.3167   22.0431   37.4426 H   0  0  0  0  0  0  0  0  0  0  0  0
   38.7240   22.6521   39.3080 H   0  0  0  0  0  0  0  0  0  0  0  0
   37.2387   24.6832   38.9888 H   0  0  0  0  0  0  0  0  0  0  0  0
   40.2266   26.7476   36.0492 H   0  0  0  0  0  0  0  0  0  0  0  0
   40.9963   26.2518   34.5038 H   0  0  0  0  0  0  0  0  0  0  0  0
   39.7042   27.4996   34.5038 H   0  0  0  0  0  0  0  0  0  0  0  0
   36.9861   26.0132   35.2397 H   0  0  0  0  0  0  0  0  0  0  0  0
   37.9144   27.2341   34.2717 H   0  0  0  0  0  0  0  0  0  0  0  0
   38.0922   23.6887   33.4837 H   0  0  0  0  0  0  0  0  0  0  0  0
   37.1947   22.7116   31.4128 H   0  0  0  0  0  0  0  0  0  0  0  0
   35.2369   26.3302   30.5234 H   0  0  0  0  0  0  0  0  0  0  0  0
  1  8  1  0
  1  6  1  0
  2  3  2  0
  4  3  1  0
  5  4  2  0
  6  7  2  0
  6  5  1  0
  7  2  1  0
  9  1  1  0
 10  9  1  0
 11 10  2  0
 12 11  1  0
 13 14  1  0
 13 12  2  0
 14 15  2  0
 15 10  1  0
  1 16  1  6
  2 17  1  0
  3 18  1  0
  4 19  1  0
  8 20  1  0
  8 21  1  0
  8 22  1  0
  9 23  1  0
  9 24  1  0
 11 25  1  0
 12 26  1  0
 14 27  1  0
M  ISO  8  16   8  17  14  18  14  19  14  20   8  21   8  22   8  23   8
M  ISO  4  24   8  25  14  26  14  27  14
M  END
>  <minimizedAffinity>  (1) 
-4.1120472

>  <minimizedRMSD>  (1) 
1.72155762

$$$$
