
     RDKit          3D

 27 29  0  0  0  0  0  0  0  0999 V2000
   40.4490   22.4560   37.5270 C   0  0  0  0  0  0  0  0  0  0  0  0
   39.4930   23.2360   36.8770 C   0  0  0  0  0  0  0  0  0  0  0  0
   39.9240   23.9770   35.8010 C   0  0  0  0  0  0  0  0  0  0  0  0
   41.2350   23.9270   35.4170 N   0  0  0  0  0  0  0  0  0  0  0  0
   42.1290   23.1450   36.0910 C   0  0  0  0  0  0  0  0  0  0  0  0
   41.7130   22.4330   37.1230 N   0  0  0  0  0  0  0  0  0  0  0  0
   38.0660   23.2950   37.2890 C   0  0  0  0  0  0  0  0  0  0  0  0
   38.0300   23.0300   38.6650 F   0  0  0  0  0  0  0  0  0  0  0  0
   37.2770   22.4090   36.6540 F   0  0  0  0  0  0  0  0  0  0  0  0
   37.5960   24.6280   37.2270 F   0  0  0  0  0  0  0  0  0  0  0  0
   43.8130   23.1610   35.5020 S   0  0  0  0  0  0  0  0  0  0  0  0
   44.8460   24.0860   36.6470 C   0  0  0  0  0  0  0  0  0  0  0  0
   44.2320   25.0870   37.4170 C   0  0  0  0  0  0  0  0  0  0  0  0
   45.6700   25.7470   38.4280 S   0  0  0  0  0  0  0  0  0  0  0  0
   46.8170   24.5220   37.5950 C   0  0  0  0  0  0  0  0  0  0  0  0
   46.1120   24.0050   36.9190 N   0  0  0  0  0  0  0  0  0  0  0  0
   48.2230   24.5240   37.9840 C   0  0  0  0  0  0  0  0  0  0  0  0
   48.7680   23.9350   39.0700 C   0  0  0  0  0  0  0  0  0  0  0  0
   50.1200   24.0620   39.2450 C   0  0  0  0  0  0  0  0  0  0  0  0
   50.8740   24.7880   38.3050 C   0  0  0  0  0  0  0  0  0  0  0  0
   49.5700   25.3140   37.1070 S   0  0  0  0  0  0  0  0  0  0  0  0
   40.1492   21.8471   38.3926 H   0  0  0  0  0  0  0  0  0  0  0  0
   39.2133   24.6100   35.2494 H   0  0  0  0  0  0  0  0  0  0  0  0
   43.1785   25.4034   37.4257 H   0  0  0  0  0  0  0  0  0  0  0  0
   48.1495   23.3747   39.7866 H   0  0  0  0  0  0  0  0  0  0  0  0
   50.6126   23.6002   40.1134 H   0  0  0  0  0  0  0  0  0  0  0  0
   51.9553   24.9894   38.2879 H   0  0  0  0  0  0  0  0  0  0  0  0
  2  7  1  0
  2  1  2  0
  3  2  1  0
  4  3  2  0
  4  5  1  0
  5  6  2  0
  6  1  1  0
  7  8  1  0
  9  7  1  0
 10  7  1  0
 11  5  1  0
 11 12  1  0
 12 16  1  0
 12 13  2  0
 13 14  1  0
 15 17  1  0
 15 14  1  0
 16 15  2  0
 17 18  2  0
 18 19  1  0
 20 19  2  0
 21 17  1  0
 21 20  1  0
  1 22  1  0
  3 23  1  0
 13 24  1  0
 18 25  1  0
 19 26  1  0
 20 27  1  0
M  ISO  6  22  14  23  14  24  14  25  14  26  14  27  14
M  END
>  <minimizedAffinity>  (1) 
-4.77013254

>  <minimizedRMSD>  (1) 
4.32118797

$$$$
