
     RDKit          3D

 41 44  0  0  0  0  0  0  0  0999 V2000
   38.7850   22.9580   33.4740 O   0  0  0  0  0  0  0  0  0  0  0  0
   37.2990   21.8320   34.9880 C   0  0  0  0  0  0  0  0  0  0  0  0
   36.2220   20.9990   35.2130 C   0  0  0  0  0  0  0  0  0  0  0  0
   35.5430   20.4510   34.1510 C   0  0  0  0  0  0  0  0  0  0  0  0
   35.9660   20.7530   32.8330 C   0  0  0  0  0  0  0  0  0  0  0  0
   37.0450   21.5890   32.6540 C   0  0  0  0  0  0  0  0  0  0  0  0
   37.7330   22.1460   33.7120 C   0  0  0  0  0  0  0  0  0  0  0  0
   39.9160   22.5910   37.4020 C   0  0  0  0  0  0  0  0  0  0  0  0
   39.2690   23.4030   38.3560 C   0  0  0  0  0  0  0  0  0  0  0  0
   37.9240   23.6780   38.1500 C   0  0  0  0  0  0  0  0  0  0  0  0
   37.3320   23.1570   37.0640 N   0  0  0  0  0  0  0  0  0  0  0  0
   37.9760   22.3770   36.1600 C   0  0  0  0  0  0  0  0  0  0  0  0
   39.2870   22.0940   36.3360 N   0  0  0  0  0  0  0  0  0  0  0  0
   38.4380   26.0520   31.8110 N   0  0  0  0  0  0  0  0  0  0  0  0
   39.0280   24.8960   31.8270 N   0  0  0  0  0  0  0  0  0  0  0  0
   38.5760   24.2130   32.8830 C   0  0  0  0  0  0  0  0  0  0  0  0
   37.6560   25.0240   33.5260 C   0  0  0  0  0  0  0  0  0  0  0  0
   37.5740   26.2060   32.8320 C   0  0  0  0  0  0  0  0  0  0  0  0
   36.7610   27.3720   33.0970 C   0  0  0  0  0  0  0  0  0  0  0  0
   35.8640   27.8000   32.1180 C   0  0  0  0  0  0  0  0  0  0  0  0
   35.0210   28.8660   32.3210 C   0  0  0  0  0  0  0  0  0  0  0  0
   35.1060   29.4970   33.5510 C   0  0  0  0  0  0  0  0  0  0  0  0
   35.9960   29.0780   34.5250 C   0  0  0  0  0  0  0  0  0  0  0  0
   36.8400   28.0030   34.3030 C   0  0  0  0  0  0  0  0  0  0  0  0
   37.7360   27.7430   35.4410 C   0  0  0  0  0  0  0  0  0  0  0  0
   35.9069   20.7735   36.2425 H   0  0  0  0  0  0  0  0  0  0  0  0
   34.6829   19.7870   34.3221 H   0  0  0  0  0  0  0  0  0  0  0  0
   35.4404   20.3261   31.9661 H   0  0  0  0  0  0  0  0  0  0  0  0
   37.3706   21.8215   31.6293 H   0  0  0  0  0  0  0  0  0  0  0  0
   40.9819   22.3582   37.5425 H   0  0  0  0  0  0  0  0  0  0  0  0
   39.8080   23.8022   39.2278 H   0  0  0  0  0  0  0  0  0  0  0  0
   37.3598   24.3047   38.8563 H   0  0  0  0  0  0  0  0  0  0  0  0
   38.6117   26.7725   31.0957 H   0  0  0  0  0  0  0  0  0  0  0  0
   37.0902   24.7665   34.4335 H   0  0  0  0  0  0  0  0  0  0  0  0
   35.8306   27.2686   31.1554 H   0  0  0  0  0  0  0  0  0  0  0  0
   34.3151   29.2009   31.5466 H   0  0  0  0  0  0  0  0  0  0  0  0
   34.4487   30.3540   33.7595 H   0  0  0  0  0  0  0  0  0  0  0  0
   36.0332   29.6066   35.4890 H   0  0  0  0  0  0  0  0  0  0  0  0
   37.1890   27.9017   36.3821 H   0  0  0  0  0  0  0  0  0  0  0  0
   38.0941   26.7039   35.3958 H   0  0  0  0  0  0  0  0  0  0  0  0
   38.5947   28.4290   35.3958 H   0  0  0  0  0  0  0  0  0  0  0  0
  1  7  1  0
  2  3  2  0
  2 12  1  0
  4  3  1  0
  5  4  2  0
  6  5  1  0
  6  7  2  0
  7  2  1  0
  8  9  2  0
 10  9  1  0
 11 10  2  0
 12 13  2  0
 12 11  1  0
 13  8  1  0
 14 15  1  0
 14 18  1  0
 15 16  2  0
 16  1  1  0
 16 17  1  0
 18 19  1  0
 18 17  2  0
 19 24  2  0
 20 21  2  0
 20 19  1  0
 21 22  1  0
 22 23  2  0
 24 23  1  0
 24 25  1  0
  3 26  1  0
  4 27  1  0
  5 28  1  0
  6 29  1  0
  8 30  1  0
  9 31  1  0
 10 32  1  0
 14 33  1  0
 17 34  1  0
 20 35  1  0
 21 36  1  0
 22 37  1  0
 23 38  1  0
 25 39  1  0
 25 40  1  0
 25 41  1  0
M  ISO  8  26  14  27  14  28  14  29  14  30  14  31  14  32  14  33   9
M  ISO  8  34  14  35  14  36  14  37  14  38  14  39   8  40   8  41   8
M  END
>  <minimizedAffinity>  (1) 
-6.25294971

>  <minimizedRMSD>  (1) 
0.702290952

$$$$
