
     RDKit          3D

 51 55  0  0  0  0  0  0  0  0999 V2000
   38.3740   25.2880   29.7660 N   0  0  0  0  0  0  0  0  0  0  0  0
   38.7330   24.0500   29.6280 N   0  0  0  0  0  0  0  0  0  0  0  0
   38.3300   23.3840   30.7200 C   0  0  0  0  0  0  0  0  0  0  0  0
   37.6870   24.3000   31.5610 C   0  0  0  0  0  0  0  0  0  0  0  0
   37.7300   25.5180   30.9220 C   0  0  0  0  0  0  0  0  0  0  0  0
   37.2280   26.7970   31.3700 C   0  0  0  0  0  0  0  0  0  0  0  0
   36.6350   27.6540   30.4740 C   0  0  0  0  0  0  0  0  0  0  0  0
   36.1280   28.8670   30.8480 C   0  0  0  0  0  0  0  0  0  0  0  0
   36.2260   29.2240   32.1890 C   0  0  0  0  0  0  0  0  0  0  0  0
   36.8280   28.3600   33.1100 C   0  0  0  0  0  0  0  0  0  0  0  0
   37.3380   27.1250   32.6950 C   0  0  0  0  0  0  0  0  0  0  0  0
   37.9450   26.5240   33.8160 N   0  0  0  0  0  0  0  0  0  0  0  0
   39.3310   26.0170   33.9610 C   0  0  0  0  0  0  0  0  0  0  0  0
   40.0320   26.9540   34.9210 C   0  0  0  0  0  0  0  0  0  0  0  0
   39.1880   27.3540   35.9230 O   0  0  0  0  0  0  0  0  0  0  0  0
   38.1420   26.5200   36.2140 C   0  0  0  0  0  0  0  0  0  0  0  0
   37.1710   26.3580   35.0640 C   0  0  0  0  0  0  0  0  0  0  0  0
   38.3900   22.0680   31.2030 O   0  0  0  0  0  0  0  0  0  0  0  0
   37.1220   21.3890   33.1240 C   0  0  0  0  0  0  0  0  0  0  0  0
   35.9910   20.8220   33.6790 C   0  0  0  0  0  0  0  0  0  0  0  0
   34.9800   20.3590   32.8730 C   0  0  0  0  0  0  0  0  0  0  0  0
   35.1290   20.4790   31.4710 C   0  0  0  0  0  0  0  0  0  0  0  0
   36.2590   21.0450   30.9420 C   0  0  0  0  0  0  0  0  0  0  0  0
   37.2840   21.5130   31.7530 C   0  0  0  0  0  0  0  0  0  0  0  0
   40.3960   22.0640   34.5690 C   0  0  0  0  0  0  0  0  0  0  0  0
   40.0960   22.7360   35.7770 C   0  0  0  0  0  0  0  0  0  0  0  0
   38.7640   22.9490   36.0770 C   0  0  0  0  0  0  0  0  0  0  0  0
   37.8330   22.5060   35.2080 N   0  0  0  0  0  0  0  0  0  0  0  0
   38.1520   21.8580   34.0460 C   0  0  0  0  0  0  0  0  0  0  0  0
   39.4420   21.6380   33.7310 N   0  0  0  0  0  0  0  0  0  0  0  0
   38.5626   26.0176   29.0639 H   0  0  0  0  0  0  0  0  0  0  0  0
   37.2355   24.0876   32.5413 H   0  0  0  0  0  0  0  0  0  0  0  0
   36.5659   27.3530   29.4182 H   0  0  0  0  0  0  0  0  0  0  0  0
   35.6585   29.5380   30.1137 H   0  0  0  0  0  0  0  0  0  0  0  0
   35.8276   30.1919   32.5273 H   0  0  0  0  0  0  0  0  0  0  0  0
   36.9009   28.6536   34.1676 H   0  0  0  0  0  0  0  0  0  0  0  0
   39.3213   24.9945   34.3666 H   0  0  0  0  0  0  0  0  0  0  0  0
   39.8463   25.9833   32.9898 H   0  0  0  0  0  0  0  0  0  0  0  0
   40.8951   26.4353   35.3637 H   0  0  0  0  0  0  0  0  0  0  0  0
   40.3604   27.8440   34.3641 H   0  0  0  0  0  0  0  0  0  0  0  0
   38.5457   25.5300   36.4729 H   0  0  0  0  0  0  0  0  0  0  0  0
   37.5868   26.9711   37.0496 H   0  0  0  0  0  0  0  0  0  0  0  0
   36.3834   27.1235   35.1243 H   0  0  0  0  0  0  0  0  0  0  0  0
   36.6866   25.3709   35.0963 H   0  0  0  0  0  0  0  0  0  0  0  0
   35.8998   20.7410   34.7722 H   0  0  0  0  0  0  0  0  0  0  0  0
   34.0764   19.9059   33.3068 H   0  0  0  0  0  0  0  0  0  0  0  0
   34.3340   20.1162   30.8028 H   0  0  0  0  0  0  0  0  0  0  0  0
   36.3563   21.1306   29.8497 H   0  0  0  0  0  0  0  0  0  0  0  0
   41.4497   21.8850   34.3087 H   0  0  0  0  0  0  0  0  0  0  0  0
   40.8940   23.0767   36.4531 H   0  0  0  0  0  0  0  0  0  0  0  0
   38.4705   23.4671   37.0019 H   0  0  0  0  0  0  0  0  0  0  0  0
  1  5  1  0
  2  1  1  0
  2  3  2  0
  3 18  1  0
  3  4  1  0
  5  6  1  0
  5  4  2  0
  6 11  2  0
  7  8  2  0
  7  6  1  0
  8  9  1  0
  9 10  2  0
 11 10  1  0
 11 12  1  0
 12 13  1  0
 12 17  1  0
 13 14  1  0
 14 15  1  0
 15 16  1  0
 17 16  1  0
 18 24  1  0
 19 20  2  0
 19 29  1  0
 21 20  1  0
 22 21  2  0
 23 22  1  0
 23 24  2  0
 24 19  1  0
 25 26  2  0
 26 27  1  0
 28 27  2  0
 29 28  1  0
 30 29  2  0
 30 25  1  0
  1 31  1  0
  4 32  1  0
  7 33  1  0
  8 34  1  0
  9 35  1  0
 10 36  1  0
 13 37  1  0
 13 38  1  0
 14 39  1  0
 14 40  1  0
 16 41  1  0
 16 42  1  0
 17 43  1  0
 17 44  1  0
 20 45  1  0
 21 46  1  0
 22 47  1  0
 23 48  1  0
 25 49  1  0
 26 50  1  0
 27 51  1  0
M  ISO  8  31   9  32  14  33  14  34  14  35  14  36  14  37  13  38  13
M  ISO  8  39  13  40  13  41  13  42  13  43  13  44  13  45  14  46  14
M  ISO  5  47  14  48  14  49  14  50  14  51  14
M  END
>  <minimizedAffinity>  (1) 
-6.08576775

>  <minimizedRMSD>  (1) 
2.14790392

$$$$
