
     RDKit          3D

 46 50  0  0  0  0  0  0  0  0999 V2000
   38.3290   25.5950   29.8740 N   0  0  0  0  0  0  0  0  0  0  0  0
   38.7310   24.3680   29.8330 N   0  0  0  0  0  0  0  0  0  0  0  0
   38.4210   23.7990   31.0290 C   0  0  0  0  0  0  0  0  0  0  0  0
   37.7990   24.7790   31.8070 C   0  0  0  0  0  0  0  0  0  0  0  0
   37.7470   25.9280   31.0460 C   0  0  0  0  0  0  0  0  0  0  0  0
   37.1920   27.2210   31.3530 C   0  0  0  0  0  0  0  0  0  0  0  0
   36.6030   27.9510   30.3550 C   0  0  0  0  0  0  0  0  0  0  0  0
   36.0690   29.2090   30.6060 C   0  0  0  0  0  0  0  0  0  0  0  0
   36.1550   29.7020   31.9080 C   0  0  0  0  0  0  0  0  0  0  0  0
   36.7610   28.9450   32.9250 C   0  0  0  0  0  0  0  0  0  0  0  0
   37.2840   27.6830   32.6300 C   0  0  0  0  0  0  0  0  0  0  0  0
   37.8060   27.1740   33.8460 C   0  0  0  0  0  0  0  0  0  0  0  0
   37.1270   26.6000   34.9370 C   0  0  0  0  0  0  0  0  0  0  0  0
   37.9370   26.1490   35.9530 C   0  0  0  0  0  0  0  0  0  0  0  0
   39.2740   26.2290   35.9460 N   0  0  0  0  0  0  0  0  0  0  0  0
   39.8960   26.7810   34.8950 C   0  0  0  0  0  0  0  0  0  0  0  0
   39.1740   27.2560   33.8390 N   0  0  0  0  0  0  0  0  0  0  0  0
   38.5620   22.5450   31.6340 O   0  0  0  0  0  0  0  0  0  0  0  0
   37.2010   21.5970   33.3790 C   0  0  0  0  0  0  0  0  0  0  0  0
   36.0480   20.9380   33.7890 C   0  0  0  0  0  0  0  0  0  0  0  0
   35.0920   20.5670   32.8770 C   0  0  0  0  0  0  0  0  0  0  0  0
   35.3130   20.8720   31.5130 C   0  0  0  0  0  0  0  0  0  0  0  0
   36.4590   21.5220   31.1350 C   0  0  0  0  0  0  0  0  0  0  0  0
   37.4400   21.9050   32.0540 C   0  0  0  0  0  0  0  0  0  0  0  0
   40.3690   22.2110   35.0660 C   0  0  0  0  0  0  0  0  0  0  0  0
   39.9750   22.6560   36.3500 C   0  0  0  0  0  0  0  0  0  0  0  0
   38.6250   22.7370   36.6180 C   0  0  0  0  0  0  0  0  0  0  0  0
   37.7610   22.3900   35.6440 N   0  0  0  0  0  0  0  0  0  0  0  0
   38.1650   21.9640   34.4140 C   0  0  0  0  0  0  0  0  0  0  0  0
   39.4780   21.8740   34.1230 N   0  0  0  0  0  0  0  0  0  0  0  0
   38.4413   26.2540   29.0904 H   0  0  0  0  0  0  0  0  0  0  0  0
   37.4219   24.6570   32.8331 H   0  0  0  0  0  0  0  0  0  0  0  0
   36.5519   27.5346   29.3381 H   0  0  0  0  0  0  0  0  0  0  0  0
   35.5948   29.7959   29.8056 H   0  0  0  0  0  0  0  0  0  0  0  0
   35.7436   30.6951   32.1414 H   0  0  0  0  0  0  0  0  0  0  0  0
   36.8234   29.3438   33.9483 H   0  0  0  0  0  0  0  0  0  0  0  0
   36.0307   26.5182   34.9743 H   0  0  0  0  0  0  0  0  0  0  0  0
   37.4546   25.6922   36.8297 H   0  0  0  0  0  0  0  0  0  0  0  0
   40.9937   26.8515   34.8836 H   0  0  0  0  0  0  0  0  0  0  0  0
   35.9003   20.7115   34.8553 H   0  0  0  0  0  0  0  0  0  0  0  0
   34.1778   20.0461   33.1979 H   0  0  0  0  0  0  0  0  0  0  0  0
   34.5661   20.5878   30.7571 H   0  0  0  0  0  0  0  0  0  0  0  0
   36.6122   21.7505   30.0699 H   0  0  0  0  0  0  0  0  0  0  0  0
   41.4419   22.1392   34.8340 H   0  0  0  0  0  0  0  0  0  0  0  0
   40.7219   22.9286   37.1101 H   0  0  0  0  0  0  0  0  0  0  0  0
   38.2632   23.0756   37.6000 H   0  0  0  0  0  0  0  0  0  0  0  0
  1  5  1  0
  2  1  1  0
  2  3  2  0
  3 18  1  0
  3  4  1  0
  5  6  1  0
  5  4  2  0
  6 11  2  0
  7  8  2  0
  7  6  1  0
  8  9  1  0
  9 10  2  0
 11 10  1  0
 11 12  1  0
 12 13  2  0
 13 14  1  0
 15 14  2  0
 16 15  1  0
 17 12  1  0
 17 16  2  0
 18 24  1  0
 19 20  2  0
 19 29  1  0
 21 20  1  0
 22 21  2  0
 23 22  1  0
 23 24  2  0
 24 19  1  0
 25 26  2  0
 26 27  1  0
 28 27  2  0
 29 28  1  0
 30 29  2  0
 30 25  1  0
  1 31  1  0
  4 32  1  0
  7 33  1  0
  8 34  1  0
  9 35  1  0
 10 36  1  0
 13 37  1  0
 14 38  1  0
 16 39  1  0
 20 40  1  0
 21 41  1  0
 22 42  1  0
 23 43  1  0
 25 44  1  0
 26 45  1  0
 27 46  1  0
M  ISO  8  31   9  32  14  33  14  34  14  35  14  36  14  37  14  38  14
M  ISO  8  39  14  40  14  41  14  42  14  43  14  44  14  45  14  46  14
M  END
>  <minimizedAffinity>  (1) 
-6.01685762

>  <minimizedRMSD>  (1) 
2.07206464

$$$$
