
     RDKit          3D

 39 42  0  0  0  0  0  0  0  0999 V2000
   38.4050   23.2230   33.0640 O   0  0  0  0  0  0  0  0  0  0  0  0
   37.1500   21.8200   34.5600 C   0  0  0  0  0  0  0  0  0  0  0  0
   36.1650   20.8820   34.7960 C   0  0  0  0  0  0  0  0  0  0  0  0
   35.4240   20.3930   33.7480 C   0  0  0  0  0  0  0  0  0  0  0  0
   35.6980   20.8700   32.4510 C   0  0  0  0  0  0  0  0  0  0  0  0
   36.6860   21.8030   32.2540 C   0  0  0  0  0  0  0  0  0  0  0  0
   37.4390   22.3040   33.2960 C   0  0  0  0  0  0  0  0  0  0  0  0
   39.9080   22.4310   36.8670 C   0  0  0  0  0  0  0  0  0  0  0  0
   39.3190   23.1800   37.9080 C   0  0  0  0  0  0  0  0  0  0  0  0
   37.9670   23.4690   37.8010 C   0  0  0  0  0  0  0  0  0  0  0  0
   37.3110   23.0170   36.7200 N   0  0  0  0  0  0  0  0  0  0  0  0
   37.8990   22.2970   35.7280 C   0  0  0  0  0  0  0  0  0  0  0  0
   39.2110   22.0050   35.8110 N   0  0  0  0  0  0  0  0  0  0  0  0
   37.8520   25.7380   30.6570 N   0  0  0  0  0  0  0  0  0  0  0  0
   38.3000   24.5460   30.8860 N   0  0  0  0  0  0  0  0  0  0  0  0
   38.1430   24.2840   32.1880 C   0  0  0  0  0  0  0  0  0  0  0  0
   37.5590   25.4040   32.7640 C   0  0  0  0  0  0  0  0  0  0  0  0
   37.3780   26.3350   31.7630 C   0  0  0  0  0  0  0  0  0  0  0  0
   36.8140   27.6630   31.8470 C   0  0  0  0  0  0  0  0  0  0  0  0
   36.5400   28.3440   30.6830 C   0  0  0  0  0  0  0  0  0  0  0  0
   36.0000   29.6200   30.6980 C   0  0  0  0  0  0  0  0  0  0  0  0
   35.7430   30.1890   31.9400 C   0  0  0  0  0  0  0  0  0  0  0  0
   36.0240   29.4930   33.1270 C   0  0  0  0  0  0  0  0  0  0  0  0
   36.5630   28.2200   33.0710 C   0  0  0  0  0  0  0  0  0  0  0  0
   36.8360   27.5650   34.6890 S   0  0  0  0  0  0  0  0  0  0  0  0
   35.9743   20.5275   35.8197 H   0  0  0  0  0  0  0  0  0  0  0  0
   34.6346   19.6459   33.9175 H   0  0  0  0  0  0  0  0  0  0  0  0
   35.1192   20.4942   31.5944 H   0  0  0  0  0  0  0  0  0  0  0  0
   36.8834   22.1623   31.2333 H   0  0  0  0  0  0  0  0  0  0  0  0
   40.9795   22.1896   36.9278 H   0  0  0  0  0  0  0  0  0  0  0  0
   39.9096   23.5214   38.7710 H   0  0  0  0  0  0  0  0  0  0  0  0
   37.4481   24.0504   38.5774 H   0  0  0  0  0  0  0  0  0  0  0  0
   37.8582   26.1812   29.7272 H   0  0  0  0  0  0  0  0  0  0  0  0
   37.2902   25.5263   33.8236 H   0  0  0  0  0  0  0  0  0  0  0  0
   36.7549   27.8636   29.7170 H   0  0  0  0  0  0  0  0  0  0  0  0
   35.7835   30.1608   29.7649 H   0  0  0  0  0  0  0  0  0  0  0  0
   35.3129   31.2000   31.9939 H   0  0  0  0  0  0  0  0  0  0  0  0
   35.8156   29.9598   34.1010 H   0  0  0  0  0  0  0  0  0  0  0  0
   36.4515   28.4875   35.6260 H   0  0  0  0  0  0  0  0  0  0  0  0
  1  7  1  0
  2  3  2  0
  2 12  1  0
  4  3  1  0
  5  4  2  0
  6  5  1  0
  6  7  2  0
  7  2  1  0
  8  9  2  0
 10  9  1  0
 11 10  2  0
 12 13  2  0
 12 11  1  0
 13  8  1  0
 14 15  1  0
 14 18  1  0
 15 16  2  0
 16 17  1  0
 16  1  1  0
 18 19  1  0
 18 17  2  0
 19 24  2  0
 20 21  2  0
 20 19  1  0
 21 22  1  0
 22 23  2  0
 24 23  1  0
 24 25  1  0
  3 26  1  0
  4 27  1  0
  5 28  1  0
  6 29  1  0
  8 30  1  0
  9 31  1  0
 10 32  1  0
 14 33  1  0
 17 34  1  0
 20 35  1  0
 21 36  1  0
 22 37  1  0
 23 38  1  0
 25 39  1  0
M  ISO  8  26  14  27  14  28  14  29  14  30  14  31  14  32  14  33   9
M  ISO  6  34  14  35  14  36  14  37  14  38  14  39  11
M  END
>  <minimizedAffinity>  (1) 
-5.95001602

>  <minimizedRMSD>  (1) 
0.853229702

$$$$
