
     RDKit          3D

 45 49  0  0  0  0  0  0  0  0999 V2000
   37.5410   26.1570   30.5550 N   0  0  0  0  0  0  0  0  0  0  0  0
   38.0370   24.9920   30.2900 N   0  0  0  0  0  0  0  0  0  0  0  0
   37.8850   24.2270   31.3940 C   0  0  0  0  0  0  0  0  0  0  0  0
   37.2580   25.0080   32.3550 C   0  0  0  0  0  0  0  0  0  0  0  0
   37.0410   26.2520   31.8030 C   0  0  0  0  0  0  0  0  0  0  0  0
   36.4260   27.4190   32.3890 C   0  0  0  0  0  0  0  0  0  0  0  0
   35.5610   28.1780   31.6450 C   0  0  0  0  0  0  0  0  0  0  0  0
   34.9540   29.3030   32.1310 C   0  0  0  0  0  0  0  0  0  0  0  0
   35.2510   29.6620   33.4400 C   0  0  0  0  0  0  0  0  0  0  0  0
   36.1310   28.9000   34.2150 C   0  0  0  0  0  0  0  0  0  0  0  0
   36.7300   27.7550   33.6770 C   0  0  0  0  0  0  0  0  0  0  0  0
   37.5570   27.1990   34.6710 N   0  0  0  0  0  0  0  0  0  0  0  0
   37.2480   26.3720   35.6870 N   0  0  0  0  0  0  0  0  0  0  0  0
   38.3740   26.0680   36.3590 C   0  0  0  0  0  0  0  0  0  0  0  0
   39.4440   26.7300   35.7430 C   0  0  0  0  0  0  0  0  0  0  0  0
   38.9070   27.4470   34.6690 C   0  0  0  0  0  0  0  0  0  0  0  0
   38.1860   22.9150   31.7820 O   0  0  0  0  0  0  0  0  0  0  0  0
   37.0190   21.6020   33.4300 C   0  0  0  0  0  0  0  0  0  0  0  0
   35.9710   20.7640   33.7840 C   0  0  0  0  0  0  0  0  0  0  0  0
   35.0300   20.3940   32.8530 C   0  0  0  0  0  0  0  0  0  0  0  0
   35.1570   20.8850   31.5340 C   0  0  0  0  0  0  0  0  0  0  0  0
   36.2000   21.7080   31.2120 C   0  0  0  0  0  0  0  0  0  0  0  0
   37.1660   22.0950   32.1470 C   0  0  0  0  0  0  0  0  0  0  0  0
   40.1750   22.2010   35.1360 C   0  0  0  0  0  0  0  0  0  0  0  0
   39.7790   22.6100   36.4340 C   0  0  0  0  0  0  0  0  0  0  0  0
   38.4250   22.6720   36.6980 C   0  0  0  0  0  0  0  0  0  0  0  0
   37.5750   22.3430   35.7150 N   0  0  0  0  0  0  0  0  0  0  0  0
   37.9750   21.9520   34.4720 C   0  0  0  0  0  0  0  0  0  0  0  0
   39.2910   21.8840   34.1920 N   0  0  0  0  0  0  0  0  0  0  0  0
   37.5293   26.9345   29.8796 H   0  0  0  0  0  0  0  0  0  0  0  0
   36.9841   24.6915   33.3723 H   0  0  0  0  0  0  0  0  0  0  0  0
   35.3454   27.8688   30.6116 H   0  0  0  0  0  0  0  0  0  0  0  0
   34.2627   29.8961   31.5143 H   0  0  0  0  0  0  0  0  0  0  0  0
   34.7865   30.5599   33.8736 H   0  0  0  0  0  0  0  0  0  0  0  0
   36.3529   29.2010   35.2495 H   0  0  0  0  0  0  0  0  0  0  0  0
   38.4422   25.4128   37.2399 H   0  0  0  0  0  0  0  0  0  0  0  0
   40.5010   26.6930   36.0453 H   0  0  0  0  0  0  0  0  0  0  0  0
   39.4581   28.0843   33.9618 H   0  0  0  0  0  0  0  0  0  0  0  0
   35.8929   20.3934   34.8167 H   0  0  0  0  0  0  0  0  0  0  0  0
   34.1969   19.7307   33.1284 H   0  0  0  0  0  0  0  0  0  0  0  0
   34.4184   20.6056   30.7682 H   0  0  0  0  0  0  0  0  0  0  0  0
   36.2827   22.0795   30.1800 H   0  0  0  0  0  0  0  0  0  0  0  0
   41.2480   22.1436   34.9007 H   0  0  0  0  0  0  0  0  0  0  0  0
   40.5225   22.8684   37.2024 H   0  0  0  0  0  0  0  0  0  0  0  0
   38.0547   22.9823   37.6862 H   0  0  0  0  0  0  0  0  0  0  0  0
  1  5  1  0
  2  1  1  0
  2  3  2  0
  3 17  1  0
  3  4  1  0
  5  4  2  0
  5  6  1  0
  6 11  2  0
  7  8  2  0
  7  6  1  0
  8  9  1  0
  9 10  2  0
 11 10  1  0
 11 12  1  0
 12 13  1  0
 13 14  2  0
 15 14  1  0
 16 12  1  0
 16 15  2  0
 17 23  1  0
 18 19  2  0
 18 28  1  0
 20 19  1  0
 21 20  2  0
 22 21  1  0
 22 23  2  0
 23 18  1  0
 24 25  2  0
 25 26  1  0
 27 26  2  0
 28 27  1  0
 29 28  2  0
 29 24  1  0
  1 30  1  0
  4 31  1  0
  7 32  1  0
  8 33  1  0
  9 34  1  0
 10 35  1  0
 14 36  1  0
 15 37  1  0
 16 38  1  0
 19 39  1  0
 20 40  1  0
 21 41  1  0
 22 42  1  0
 24 43  1  0
 25 44  1  0
 26 45  1  0
M  ISO  8  30   9  31  14  32  14  33  14  34  14  35  14  36  14  37  14
M  ISO  8  38  14  39  14  40  14  41  14  42  14  43  14  44  14  45  14
M  END
>  <minimizedAffinity>  (1) 
-5.91338158

>  <minimizedRMSD>  (1) 
1.48625898

$$$$
