
     RDKit          3D

 43 47  0  0  0  0  0  0  0  0999 V2000
   37.0450   26.0290   30.6170 N   0  0  0  0  0  0  0  0  0  0  0  0
   37.5180   24.8650   30.3220 N   0  0  0  0  0  0  0  0  0  0  0  0
   37.6070   24.1570   31.4650 C   0  0  0  0  0  0  0  0  0  0  0  0
   37.1590   24.9790   32.4870 C   0  0  0  0  0  0  0  0  0  0  0  0
   36.7930   26.1830   31.9300 C   0  0  0  0  0  0  0  0  0  0  0  0
   36.2340   27.3700   32.5640 C   0  0  0  0  0  0  0  0  0  0  0  0
   35.2180   28.0270   31.9130 C   0  0  0  0  0  0  0  0  0  0  0  0
   34.6880   29.1900   32.4140 C   0  0  0  0  0  0  0  0  0  0  0  0
   35.2150   29.6780   33.6010 C   0  0  0  0  0  0  0  0  0  0  0  0
   36.2480   28.9960   34.2530 C   0  0  0  0  0  0  0  0  0  0  0  0
   36.7700   27.8170   33.7330 C   0  0  0  0  0  0  0  0  0  0  0  0
   37.7710   27.3240   34.6680 C   0  0  0  0  0  0  0  0  0  0  0  0
   37.4330   26.5700   35.7250 N   0  0  0  0  0  0  0  0  0  0  0  0
   38.4980   26.1770   36.3260 O   0  0  0  0  0  0  0  0  0  0  0  0
   39.5890   26.5980   35.7700 C   0  0  0  0  0  0  0  0  0  0  0  0
   39.1070   27.2950   34.7610 N   0  0  0  0  0  0  0  0  0  0  0  0
   38.0080   22.8710   31.8690 O   0  0  0  0  0  0  0  0  0  0  0  0
   36.9470   21.5190   33.5600 C   0  0  0  0  0  0  0  0  0  0  0  0
   35.9660   20.6240   33.9540 C   0  0  0  0  0  0  0  0  0  0  0  0
   35.0330   20.1700   33.0420 C   0  0  0  0  0  0  0  0  0  0  0  0
   35.1060   20.6400   31.7170 C   0  0  0  0  0  0  0  0  0  0  0  0
   36.0890   21.5240   31.3590 C   0  0  0  0  0  0  0  0  0  0  0  0
   37.0420   21.9930   32.2670 C   0  0  0  0  0  0  0  0  0  0  0  0
   40.0890   22.2640   35.2320 C   0  0  0  0  0  0  0  0  0  0  0  0
   39.6890   22.7810   36.4870 C   0  0  0  0  0  0  0  0  0  0  0  0
   38.3320   22.8700   36.7460 C   0  0  0  0  0  0  0  0  0  0  0  0
   37.4820   22.4580   35.7860 N   0  0  0  0  0  0  0  0  0  0  0  0
   37.8910   21.9610   34.5810 C   0  0  0  0  0  0  0  0  0  0  0  0
   39.2120   21.8670   34.3100 N   0  0  0  0  0  0  0  0  0  0  0  0
   36.8772   26.7663   29.9176 H   0  0  0  0  0  0  0  0  0  0  0  0
   37.1055   24.7158   33.5537 H   0  0  0  0  0  0  0  0  0  0  0  0
   34.8222   27.6137   30.9736 H   0  0  0  0  0  0  0  0  0  0  0  0
   33.8746   29.7162   31.8930 H   0  0  0  0  0  0  0  0  0  0  0  0
   34.8176   30.6084   34.0328 H   0  0  0  0  0  0  0  0  0  0  0  0
   36.6539   29.3992   35.1925 H   0  0  0  0  0  0  0  0  0  0  0  0
   40.6350   26.4216   36.0612 H   0  0  0  0  0  0  0  0  0  0  0  0
   35.9298   20.2737   34.9961 H   0  0  0  0  0  0  0  0  0  0  0  0
   34.2511   19.4577   33.3441 H   0  0  0  0  0  0  0  0  0  0  0  0
   34.3745   20.2977   30.9702 H   0  0  0  0  0  0  0  0  0  0  0  0
   36.1298   21.8778   30.3183 H   0  0  0  0  0  0  0  0  0  0  0  0
   41.1634   22.1869   35.0090 H   0  0  0  0  0  0  0  0  0  0  0  0
   40.4318   23.1016   37.2322 H   0  0  0  0  0  0  0  0  0  0  0  0
   37.9605   23.2639   37.7035 H   0  0  0  0  0  0  0  0  0  0  0  0
  1  5  1  0
  2  1  1  0
  2  3  2  0
  3 17  1  0
  3  4  1  0
  5  4  2  0
  5  6  1  0
  6 11  2  0
  7  8  2  0
  7  6  1  0
  8  9  1  0
  9 10  2  0
 11 10  1  0
 11 12  1  0
 12 16  1  0
 12 13  2  0
 13 14  1  0
 15 14  1  0
 16 15  2  0
 17 23  1  0
 18 19  2  0
 18 28  1  0
 20 19  1  0
 21 20  2  0
 22 21  1  0
 22 23  2  0
 23 18  1  0
 24 25  2  0
 25 26  1  0
 27 26  2  0
 28 27  1  0
 29 28  2  0
 29 24  1  0
  1 30  1  0
  4 31  1  0
  7 32  1  0
  8 33  1  0
  9 34  1  0
 10 35  1  0
 15 36  1  0
 19 37  1  0
 20 38  1  0
 21 39  1  0
 22 40  1  0
 24 41  1  0
 25 42  1  0
 26 43  1  0
M  ISO  8  30   9  31  14  32  14  33  14  34  14  35  14  36  14  37  14
M  ISO  6  38  14  39  14  40  14  41  14  42  14  43  14
M  END
>  <minimizedAffinity>  (1) 
-5.87075901

>  <minimizedRMSD>  (1) 
1.60844815

$$$$
