
     RDKit          3D

 52 56  0  0  0  0  0  0  0  0999 V2000
   37.9560   26.2620   30.4700 N   0  0  0  0  0  0  0  0  0  0  0  0
   38.4440   25.1170   30.1390 N   0  0  0  0  0  0  0  0  0  0  0  0
   38.1400   24.2400   31.1160 C   0  0  0  0  0  0  0  0  0  0  0  0
   37.4300   24.9360   32.0740 C   0  0  0  0  0  0  0  0  0  0  0  0
   37.3130   26.2420   31.6510 C   0  0  0  0  0  0  0  0  0  0  0  0
   36.6510   27.3620   32.2810 C   0  0  0  0  0  0  0  0  0  0  0  0
   35.7160   28.0680   31.5700 C   0  0  0  0  0  0  0  0  0  0  0  0
   35.0650   29.1620   32.1190 C   0  0  0  0  0  0  0  0  0  0  0  0
   35.3980   29.5120   33.4230 C   0  0  0  0  0  0  0  0  0  0  0  0
   36.3580   28.7870   34.1580 C   0  0  0  0  0  0  0  0  0  0  0  0
   36.9820   27.7000   33.5630 C   0  0  0  0  0  0  0  0  0  0  0  0
   37.8210   27.1330   34.5400 N   0  0  0  0  0  0  0  0  0  0  0  0
   39.2340   27.3850   34.1930 C   0  0  0  0  0  0  0  0  0  0  0  0
   40.1360   26.5450   35.0700 C   0  0  0  0  0  0  0  0  0  0  0  0
   39.5000   25.2650   35.2790 N   0  0  0  0  0  0  0  0  0  0  0  0
   38.3660   25.3720   36.1590 C   0  0  0  0  0  0  0  0  0  0  0  0
   37.3350   26.3800   35.7110 C   0  0  0  0  0  0  0  0  0  0  0  0
   38.3520   22.8790   31.3820 O   0  0  0  0  0  0  0  0  0  0  0  0
   37.4300   21.6010   33.2040 C   0  0  0  0  0  0  0  0  0  0  0  0
   36.3900   20.8720   33.7660 C   0  0  0  0  0  0  0  0  0  0  0  0
   35.2150   20.6860   33.0660 C   0  0  0  0  0  0  0  0  0  0  0  0
   35.0970   21.2500   31.7790 C   0  0  0  0  0  0  0  0  0  0  0  0
   36.1510   21.9660   31.2600 C   0  0  0  0  0  0  0  0  0  0  0  0
   37.3380   22.1630   31.9450 C   0  0  0  0  0  0  0  0  0  0  0  0
   40.9480   21.8520   34.0970 C   0  0  0  0  0  0  0  0  0  0  0  0
   40.9210   22.0540   35.5000 C   0  0  0  0  0  0  0  0  0  0  0  0
   39.6800   22.1010   36.1200 C   0  0  0  0  0  0  0  0  0  0  0  0
   38.6020   21.9510   35.3460 N   0  0  0  0  0  0  0  0  0  0  0  0
   38.6390   21.7580   34.0040 C   0  0  0  0  0  0  0  0  0  0  0  0
   39.8310   21.7090   33.3760 N   0  0  0  0  0  0  0  0  0  0  0  0
   38.0488   27.1074   29.8890 H   0  0  0  0  0  0  0  0  0  0  0  0
   37.0284   24.5209   33.0102 H   0  0  0  0  0  0  0  0  0  0  0  0
   35.4769   27.7600   30.5414 H   0  0  0  0  0  0  0  0  0  0  0  0
   34.3162   29.7295   31.5469 H   0  0  0  0  0  0  0  0  0  0  0  0
   34.9010   30.3742   33.8917 H   0  0  0  0  0  0  0  0  0  0  0  0
   36.6087   29.0789   35.1885 H   0  0  0  0  0  0  0  0  0  0  0  0
   39.4032   27.1226   33.1382 H   0  0  0  0  0  0  0  0  0  0  0  0
   39.4622   28.4492   34.3521 H   0  0  0  0  0  0  0  0  0  0  0  0
   41.1077   26.4013   34.5748 H   0  0  0  0  0  0  0  0  0  0  0  0
   40.3029   27.0476   36.0341 H   0  0  0  0  0  0  0  0  0  0  0  0
   39.1840   24.8968   34.3704 H   0  0  0  0  0  0  0  0  0  0  0  0
   37.8820   24.3862   36.2211 H   0  0  0  0  0  0  0  0  0  0  0  0
   38.7483   25.7177   37.1308 H   0  0  0  0  0  0  0  0  0  0  0  0
   37.1337   27.0816   36.5340 H   0  0  0  0  0  0  0  0  0  0  0  0
   36.4143   25.8463   35.4326 H   0  0  0  0  0  0  0  0  0  0  0  0
   36.5030   20.4416   34.7720 H   0  0  0  0  0  0  0  0  0  0  0  0
   34.3869   20.1091   33.5035 H   0  0  0  0  0  0  0  0  0  0  0  0
   34.1730   21.1190   31.1967 H   0  0  0  0  0  0  0  0  0  0  0  0
   36.0459   22.4016   30.2554 H   0  0  0  0  0  0  0  0  0  0  0  0
   41.9204   21.8116   33.5844 H   0  0  0  0  0  0  0  0  0  0  0  0
   41.8505   22.1694   36.0768 H   0  0  0  0  0  0  0  0  0  0  0  0
   39.5881   22.2556   37.2052 H   0  0  0  0  0  0  0  0  0  0  0  0
  1  5  1  0
  2  1  1  0
  2  3  2  0
  3 18  1  0
  3  4  1  0
  5  4  2  0
  5  6  1  0
  6 11  2  0
  7  8  2  0
  7  6  1  0
  8  9  1  0
  9 10  2  0
 11 10  1  0
 11 12  1  0
 12 17  1  0
 13 12  1  0
 13 14  1  0
 14 15  1  0
 15 16  1  0
 17 16  1  0
 18 24  1  0
 19 20  2  0
 19 29  1  0
 21 20  1  0
 22 21  2  0
 23 22  1  0
 23 24  2  0
 24 19  1  0
 25 26  2  0
 26 27  1  0
 28 27  2  0
 29 28  1  0
 30 29  2  0
 30 25  1  0
  1 31  1  0
  4 32  1  0
  7 33  1  0
  8 34  1  0
  9 35  1  0
 10 36  1  0
 13 37  1  0
 13 38  1  0
 14 39  1  0
 14 40  1  0
 15 41  1  0
 16 42  1  0
 16 43  1  0
 17 44  1  0
 17 45  1  0
 20 46  1  0
 21 47  1  0
 22 48  1  0
 23 49  1  0
 25 50  1  0
 26 51  1  0
 27 52  1  0
M  ISO  8  31   9  32  14  33  14  34  14  35  14  36  14  37  13  38  13
M  ISO  8  39  13  40  13  41   5  42  13  43  13  44  13  45  13  46  14
M  ISO  6  47  14  48  14  49  14  50  14  51  14  52  14
M  END
>  <minimizedAffinity>  (1) 
-5.59409046

>  <minimizedRMSD>  (1) 
1.94790947

$$$$
