
     RDKit          3D

 27 28  0  0  0  0  0  0  0  0999 V2000
   44.0060   22.7480   34.6260 C   0  0  0  0  0  0  0  0  0  0  0  0
   44.3760   23.6580   33.6220 C   0  0  0  0  0  0  0  0  0  0  0  0
   46.0090   24.3290   34.2710 S   0  0  0  0  0  0  0  0  0  0  0  0
   45.8460   23.2290   35.7750 C   0  0  0  0  0  0  0  0  0  0  0  0
   44.8880   22.7170   35.5730 N   0  0  0  0  0  0  0  0  0  0  0  0
   46.9380   23.3050   36.7730 N   0  0  0  0  0  0  0  0  0  0  0  0
   47.0570   24.3950   37.6460 C   0  0  0  0  0  0  0  0  0  0  0  0
   46.0240   25.1330   37.8790 N   0  0  0  0  0  0  0  0  0  0  0  0
   48.3760   24.5710   38.2070 N   0  0  0  0  0  0  0  0  0  0  0  0
   46.1540   25.9350   38.5360 H   0  0  0  0  0  0  0  0  0  0  0  0
   42.4640   21.8510   34.4130 S   0  0  0  0  0  0  0  0  0  0  0  0
   40.4390   22.3370   37.8140 C   0  0  0  0  0  0  0  0  0  0  0  0
   39.4180   23.2280   37.4640 C   0  0  0  0  0  0  0  0  0  0  0  0
   39.3780   23.6660   36.1660 C   0  0  0  0  0  0  0  0  0  0  0  0
   40.3100   23.2350   35.2640 N   0  0  0  0  0  0  0  0  0  0  0  0
   41.2910   22.3620   35.6500 C   0  0  0  0  0  0  0  0  0  0  0  0
   41.3300   21.9410   36.9010 N   0  0  0  0  0  0  0  0  0  0  0  0
   38.3930   23.7080   38.4390 C   0  0  0  0  0  0  0  0  0  0  0  0
   39.0560   23.9490   39.6410 F   0  0  0  0  0  0  0  0  0  0  0  0
   37.3960   22.8150   38.6510 F   0  0  0  0  0  0  0  0  0  0  0  0
   37.9360   24.9910   38.0720 F   0  0  0  0  0  0  0  0  0  0  0  0
   43.8457   23.9133   32.6927 H   0  0  0  0  0  0  0  0  0  0  0  0
   47.6252   22.5397   36.8266 H   0  0  0  0  0  0  0  0  0  0  0  0
   48.5587   25.3465   38.8598 H   0  0  0  0  0  0  0  0  0  0  0  0
   49.1340   23.9210   37.9543 H   0  0  0  0  0  0  0  0  0  0  0  0
   40.5080   21.9612   38.8455 H   0  0  0  0  0  0  0  0  0  0  0  0
   38.5924   24.3675   35.8488 H   0  0  0  0  0  0  0  0  0  0  0  0
  1  5  1  0
  2  3  1  0
  2  1  2  0
  3  4  1  0
  4  6  1  0
  5  4  2  0
  6  7  1  0
  7  8  2  0
  7  9  1  0
  8 10  1  0
 11  1  1  0
 11 16  1  0
 13 12  2  0
 13 18  1  0
 14 13  1  0
 15 16  1  0
 15 14  2  0
 16 17  2  0
 17 12  1  0
 18 20  1  0
 18 19  1  0
 21 18  1  0
  2 22  1  0
  6 23  1  0
  9 24  1  0
  9 25  1  0
 12 26  1  0
 14 27  1  0
M  ISO  3  22  14  26  14  27  14
M  END
>  <minimizedAffinity>  (1) 
-4.50302458

>  <minimizedRMSD>  (1) 
2.57950521

$$$$
