
     RDKit          3D

 26 28  0  0  0  0  0  0  0  0999 V2000
   42.0590   22.5810   34.0050 S   0  0  0  0  0  0  0  0  0  0  0  0
   40.4400   22.5440   37.6630 C   0  0  0  0  0  0  0  0  0  0  0  0
   39.3240   23.3750   37.5210 C   0  0  0  0  0  0  0  0  0  0  0  0
   39.1000   23.9320   36.2820 C   0  0  0  0  0  0  0  0  0  0  0  0
   39.9520   23.6610   35.2580 N   0  0  0  0  0  0  0  0  0  0  0  0
   41.0390   22.8370   35.4430 C   0  0  0  0  0  0  0  0  0  0  0  0
   41.2480   22.3070   36.6330 N   0  0  0  0  0  0  0  0  0  0  0  0
   38.3910   23.6730   38.6360 C   0  0  0  0  0  0  0  0  0  0  0  0
   39.1650   23.8830   39.7760 F   0  0  0  0  0  0  0  0  0  0  0  0
   37.4900   22.7130   38.8760 F   0  0  0  0  0  0  0  0  0  0  0  0
   37.7970   24.9500   38.4430 F   0  0  0  0  0  0  0  0  0  0  0  0
   43.5300   23.6030   34.1050 C   0  0  0  0  0  0  0  0  0  0  0  0
   43.8790   24.3550   32.9500 C   0  0  0  0  0  0  0  0  0  0  0  0
   45.4390   25.2450   33.5010 S   0  0  0  0  0  0  0  0  0  0  0  0
   45.2950   24.4180   35.1720 C   0  0  0  0  0  0  0  0  0  0  0  0
   44.3830   23.8090   35.0570 N   0  0  0  0  0  0  0  0  0  0  0  0
   46.3520   24.7210   36.2430 C   0  0  0  0  0  0  0  0  0  0  0  0
   46.9040   23.6380   36.8650 C   0  0  0  0  0  0  0  0  0  0  0  0
   48.1070   24.4380   38.0610 S   0  0  0  0  0  0  0  0  0  0  0  0
   47.5900   26.1430   37.4460 C   0  0  0  0  0  0  0  0  0  0  0  0
   46.7530   25.9230   36.5960 N   0  0  0  0  0  0  0  0  0  0  0  0
   40.6522   22.0809   38.6379 H   0  0  0  0  0  0  0  0  0  0  0  0
   38.2357   24.5932   36.1215 H   0  0  0  0  0  0  0  0  0  0  0  0
   43.3651   24.4035   31.9786 H   0  0  0  0  0  0  0  0  0  0  0  0
   46.6963   22.5696   36.7054 H   0  0  0  0  0  0  0  0  0  0  0  0
   47.9643   27.1209   37.7832 H   0  0  0  0  0  0  0  0  0  0  0  0
  1 12  1  0
  1  6  1  0
  3  2  2  0
  3  8  1  0
  4  3  1  0
  5  6  1  0
  5  4  2  0
  6  7  2  0
  7  2  1  0
  8 10  1  0
  8  9  1  0
 11  8  1  0
 12 16  1  0
 13 14  1  0
 13 12  2  0
 14 15  1  0
 15 17  1  0
 16 15  2  0
 17 21  1  0
 17 18  2  0
 18 19  1  0
 20 19  1  0
 21 20  2  0
  2 22  1  0
  4 23  1  0
 13 24  1  0
 18 25  1  0
 20 26  1  0
M  ISO  5  22  14  23  14  24  14  25  14  26  14
M  END
>  <minimizedAffinity>  (1) 
-4.45584631

>  <minimizedRMSD>  (1) 
3.08122182

$$$$
