
     RDKit          3D

 39 42  0  0  1  0  0  0  0  0999 V2000
   39.4870   24.1820   34.0930 C   0  0  1  0  0  0  0  0  0  0  0  0
   40.8520   24.4720   34.7720 C   0  0  0  0  0  0  0  0  0  0  0  0
   41.5400   23.1520   34.8190 C   0  0  0  0  0  0  0  0  0  0  0  0
   40.4600   22.1130   34.6860 C   0  0  0  0  0  0  0  0  0  0  0  0
   39.1960   22.9060   34.6820 C   0  0  2  0  0  0  0  0  0  0  0  0
   37.9480   22.1850   34.6500 C   0  0  0  0  0  0  0  0  0  0  0  0
   37.1970   21.7380   35.7600 C   0  0  0  0  0  0  0  0  0  0  0  0
   36.0460   21.0360   35.7860 C   0  0  0  0  0  0  0  0  0  0  0  0
   35.5080   20.6990   34.5640 C   0  0  0  0  0  0  0  0  0  0  0  0
   36.1330   21.0690   33.3930 C   0  0  0  0  0  0  0  0  0  0  0  0
   35.5630   20.7200   32.1870 C   0  0  0  0  0  0  0  0  0  0  0  0
   36.1550   21.0810   30.9960 C   0  0  0  0  0  0  0  0  0  0  0  0
   37.3420   21.8050   31.0130 C   0  0  0  0  0  0  0  0  0  0  0  0
   37.8480   22.1160   32.2450 C   0  0  0  0  0  0  0  0  0  0  0  0
   37.3070   21.7850   33.4690 C   0  0  0  0  0  0  0  0  0  0  0  0
   37.7130   25.6920   33.2960 C   0  0  0  0  0  0  0  0  0  0  0  0
   38.5970   25.2990   34.2960 C   0  0  0  0  0  0  0  0  0  0  0  0
   38.6050   26.0380   35.5000 C   0  0  0  0  0  0  0  0  0  0  0  0
   37.7570   27.0820   35.6140 N   0  0  0  0  0  0  0  0  0  0  0  0
   36.9110   27.4400   34.6270 C   0  0  0  0  0  0  0  0  0  0  0  0
   36.8930   26.7390   33.4650 N   0  0  0  0  0  0  0  0  0  0  0  0
   39.4207   24.1021   32.9979 H   0  0  0  0  0  0  0  0  0  0  0  0
   41.4348   25.1921   34.1789 H   0  0  0  0  0  0  0  0  0  0  0  0
   40.7332   24.9148   35.7719 H   0  0  0  0  0  0  0  0  0  0  0  0
   42.2570   23.0656   33.9893 H   0  0  0  0  0  0  0  0  0  0  0  0
   42.1049   23.0266   35.7545 H   0  0  0  0  0  0  0  0  0  0  0  0
   40.5718   21.5505   33.7473 H   0  0  0  0  0  0  0  0  0  0  0  0
   40.4890   21.3660   35.4929 H   0  0  0  0  0  0  0  0  0  0  0  0
   38.7816   23.2266   35.6492 H   0  0  0  0  0  0  0  0  0  0  0  0
   37.6108   22.0004   36.7449 H   0  0  0  0  0  0  0  0  0  0  0  0
   35.5632   20.7483   36.7316 H   0  0  0  0  0  0  0  0  0  0  0  0
   34.5687   20.1280   34.5222 H   0  0  0  0  0  0  0  0  0  0  0  0
   34.6244   20.1465   32.1754 H   0  0  0  0  0  0  0  0  0  0  0  0
   35.6919   20.7985   30.0390 H   0  0  0  0  0  0  0  0  0  0  0  0
   37.8471   22.1113   30.0851 H   0  0  0  0  0  0  0  0  0  0  0  0
   38.7856   22.6910   32.2609 H   0  0  0  0  0  0  0  0  0  0  0  0
   37.6865   25.1331   32.3489 H   0  0  0  0  0  0  0  0  0  0  0  0
   39.2842   25.7698   36.3227 H   0  0  0  0  0  0  0  0  0  0  0  0
   36.2368   28.2984   34.7633 H   0  0  0  0  0  0  0  0  0  0  0  0
  1 17  1  0
  1  5  1  0
  1  2  1  0
  2  3  1  0
  4  3  1  0
  5  4  1  0
  6  5  1  0
  6  7  2  0
  7  8  1  0
  9  8  2  0
 10 15  2  0
 10  9  1  0
 11 10  1  0
 12 13  1  0
 12 11  2  0
 13 14  2  0
 14 15  1  0
 15  6  1  0
 16 21  2  0
 16 17  1  0
 17 18  2  0
 18 19  1  0
 20 19  2  0
 21 20  1  0
  1 22  1  6
  2 23  1  0
  2 24  1  0
  3 25  1  0
  3 26  1  0
  4 27  1  0
  4 28  1  0
  5 29  1  1
  7 30  1  0
  8 31  1  0
  9 32  1  0
 11 33  1  0
 12 34  1  0
 13 35  1  0
 14 36  1  0
 16 37  1  0
 18 38  1  0
 20 39  1  0
M  ISO  8  22  13  23  13  24  13  25  13  26  13  27  13  28  13  29  13
M  ISO  8  30  14  31  14  32  14  33  14  34  14  35  14  36  14  37  14
M  ISO  2  38  14  39  14
M  END
>  <minimizedAffinity>  (1) 
-5.20074797

>  <minimizedRMSD>  (1) 
3.87755036

$$$$
