
     RDKit          3D

 33 35  0  0  1  0  0  0  0  0999 V2000
   38.6680   24.0060   33.9620 C   0  0  1  0  0  0  0  0  0  0  0  0
   38.1610   25.3520   33.5470 C   0  0  0  0  0  0  0  0  0  0  0  0
   38.9380   26.3420   34.3750 C   0  0  0  0  0  0  0  0  0  0  0  0
   39.6900   25.5520   35.4000 C   0  0  0  0  0  0  0  0  0  0  0  0
   38.9430   24.2290   35.4350 C   0  0  2  0  0  0  0  0  0  0  0  0
   37.3380   22.0280   34.6960 C   0  0  0  0  0  0  0  0  0  0  0  0
   37.6840   22.9350   33.6870 C   0  0  0  0  0  0  0  0  0  0  0  0
   37.0920   22.8070   32.3980 C   0  0  0  0  0  0  0  0  0  0  0  0
   36.2170   21.8020   32.2190 N   0  0  0  0  0  0  0  0  0  0  0  0
   35.8920   20.9290   33.2110 C   0  0  0  0  0  0  0  0  0  0  0  0
   36.4580   21.0510   34.4460 N   0  0  0  0  0  0  0  0  0  0  0  0
   39.8520   23.2820   36.0260 N   0  0  0  0  0  0  0  0  0  0  0  0
   40.9490   22.8650   35.3250 C   0  0  0  0  0  0  0  0  0  0  0  0
   41.8050   21.9500   35.9420 C   0  0  0  0  0  0  0  0  0  0  0  0
   41.5180   21.5010   37.2310 C   0  0  0  0  0  0  0  0  0  0  0  0
   42.2840   20.6660   37.8150 O   0  0  0  0  0  0  0  0  0  0  0  0
   40.4150   21.9400   37.8970 N   0  0  0  0  0  0  0  0  0  0  0  0
   39.5890   22.8280   37.2900 C   0  0  0  0  0  0  0  0  0  0  0  0
   38.5840   23.2100   37.9330 O   0  0  0  0  0  0  0  0  0  0  0  0
   39.5549   23.6577   33.4124 H   0  0  0  0  0  0  0  0  0  0  0  0
   38.3436   25.5188   32.4752 H   0  0  0  0  0  0  0  0  0  0  0  0
   37.0765   25.4480   33.7038 H   0  0  0  0  0  0  0  0  0  0  0  0
   39.6394   26.9007   33.7379 H   0  0  0  0  0  0  0  0  0  0  0  0
   38.2663   27.0705   34.8527 H   0  0  0  0  0  0  0  0  0  0  0  0
   40.7369   25.4060   35.0955 H   0  0  0  0  0  0  0  0  0  0  0  0
   39.7341   26.0487   36.3805 H   0  0  0  0  0  0  0  0  0  0  0  0
   38.0102   24.1641   36.0144 H   0  0  0  0  0  0  0  0  0  0  0  0
   37.7897   22.1185   35.6949 H   0  0  0  0  0  0  0  0  0  0  0  0
   37.3405   23.5019   31.5823 H   0  0  0  0  0  0  0  0  0  0  0  0
   35.1703   20.1221   33.0162 H   0  0  0  0  0  0  0  0  0  0  0  0
   41.1506   23.2373   34.3098 H   0  0  0  0  0  0  0  0  0  0  0  0
   42.6993   21.5860   35.4150 H   0  0  0  0  0  0  0  0  0  0  0  0
   40.2106   21.6026   38.8484 H   0  0  0  0  0  0  0  0  0  0  0  0
  1  5  1  0
  2  1  1  0
  2  3  1  0
  3  4  1  0
  4  5  1  0
  5 12  1  0
  7  1  1  0
  7  6  2  0
  8  7  1  0
  9  8  2  0
  9 10  1  0
 10 11  2  0
 11  6  1  0
 12 18  1  0
 13 14  2  0
 13 12  1  0
 14 15  1  0
 15 16  2  0
 15 17  1  0
 18 17  1  0
 18 19  2  0
  1 20  1  6
  2 21  1  0
  2 22  1  0
  3 23  1  0
  3 24  1  0
  4 25  1  0
  4 26  1  0
  5 27  1  1
  6 28  1  0
  8 29  1  0
 10 30  1  0
 13 31  1  0
 14 32  1  0
 17 33  1  0
M  ISO  8  20  13  21  13  22  13  23  13  24  13  25  13  26  13  27  13
M  ISO  6  28  14  29  14  30  14  31  14  32  14  33   9
M  END
>  <minimizedAffinity>  (1) 
-4.87332058

>  <minimizedRMSD>  (1) 
4.63045883

$$$$
