
     RDKit          3D

 36 38  0  0  1  0  0  0  0  0999 V2000
   39.7560   24.3430   35.4570 C   0  0  1  0  0  0  0  0  0  0  0  0
   39.9000   23.2410   36.4680 C   0  0  0  0  0  0  0  0  0  0  0  0
   38.5960   23.2180   37.2400 C   0  0  0  0  0  0  0  0  0  0  0  0
   37.7380   24.2760   36.6190 C   0  0  0  0  0  0  0  0  0  0  0  0
   38.7820   25.2740   36.1170 C   0  0  2  0  0  0  0  0  0  0  0  0
   41.1160   26.1700   34.4380 C   0  0  0  0  0  0  0  0  0  0  0  0
   41.0540   24.9480   35.0990 C   0  0  0  0  0  0  0  0  0  0  0  0
   42.2450   24.2820   35.4190 C   0  0  0  0  0  0  0  0  0  0  0  0
   43.4120   24.8690   35.0640 N   0  0  0  0  0  0  0  0  0  0  0  0
   43.4620   26.0650   34.4180 C   0  0  0  0  0  0  0  0  0  0  0  0
   42.3050   26.7120   34.1070 N   0  0  0  0  0  0  0  0  0  0  0  0
   36.6560   27.8600   33.4060 C   0  0  0  0  0  0  0  0  0  0  0  0
   37.0510   28.3250   34.6300 C   0  0  0  0  0  0  0  0  0  0  0  0
   37.7280   27.5060   35.5020 C   0  0  0  0  0  0  0  0  0  0  0  0
   38.0520   26.1760   35.2120 C   0  0  0  0  0  0  0  0  0  0  0  0
   37.6180   25.7650   33.9420 C   0  0  0  0  0  0  0  0  0  0  0  0
   36.9360   26.5590   33.0410 C   0  0  0  0  0  0  0  0  0  0  0  0
   35.7980   28.8410   32.2560 S   0  0  0  0  0  0  0  0  0  0  0  0
   36.0090   28.2070   30.8990 O   0  0  0  0  0  0  0  0  0  0  0  0
   34.3320   28.7490   32.5430 O   0  0  0  0  0  0  0  0  0  0  0  0
   39.3885   24.0083   34.4757 H   0  0  0  0  0  0  0  0  0  0  0  0
   40.0640   22.2772   35.9638 H   0  0  0  0  0  0  0  0  0  0  0  0
   40.7611   23.4094   37.1315 H   0  0  0  0  0  0  0  0  0  0  0  0
   38.1149   22.2329   37.1506 H   0  0  0  0  0  0  0  0  0  0  0  0
   38.7561   23.4033   38.3124 H   0  0  0  0  0  0  0  0  0  0  0  0
   37.1405   23.8706   35.7891 H   0  0  0  0  0  0  0  0  0  0  0  0
   37.0013   24.7128   37.3093 H   0  0  0  0  0  0  0  0  0  0  0  0
   39.3043   25.9251   36.8335 H   0  0  0  0  0  0  0  0  0  0  0  0
   40.1860   26.6992   34.1829 H   0  0  0  0  0  0  0  0  0  0  0  0
   42.2319   23.3141   35.9415 H   0  0  0  0  0  0  0  0  0  0  0  0
   44.4323   26.5073   34.1482 H   0  0  0  0  0  0  0  0  0  0  0  0
   36.8253   29.3621   34.9188 H   0  0  0  0  0  0  0  0  0  0  0  0
   38.0302   27.9167   36.4767 H   0  0  0  0  0  0  0  0  0  0  0  0
   37.8382   24.7302   33.6410 H   0  0  0  0  0  0  0  0  0  0  0  0
   36.6253   26.1661   32.0617 H   0  0  0  0  0  0  0  0  0  0  0  0
   36.2287   30.1404   32.3104 H   0  0  0  0  0  0  0  0  0  0  0  0
  1  5  1  0
  1  2  1  0
  2  3  1  0
  4  3  1  0
  5  4  1  0
  6  7  2  0
  7  8  1  0
  7  1  1  0
  9  8  2  0
 10  9  1  0
 11 10  2  0
 11  6  1  0
 12 13  2  0
 13 14  1  0
 15 14  2  0
 15  5  1  0
 16 15  1  0
 17 12  1  0
 17 16  2  0
 18 20  2  0
 18 12  1  0
 19 18  2  0
  1 21  1  6
  2 22  1  0
  2 23  1  0
  3 24  1  0
  3 25  1  0
  4 26  1  0
  4 27  1  0
  5 28  1  1
  6 29  1  0
  8 30  1  0
 10 31  1  0
 13 32  1  0
 14 33  1  0
 16 34  1  0
 17 35  1  0
 18 36  1  0
M  ISO  8  21  13  22  13  23  13  24  13  25  13  26  13  27  13  28  13
M  ISO  8  29  14  30  14  31  14  32  14  33  14  34  14  35  14  36  11
M  END
>  <minimizedAffinity>  (1) 
-4.74637461

>  <minimizedRMSD>  (1) 
6.05366373

$$$$
