
     RDKit          3D

 33 35  0  0  0  0  0  0  0  0999 V2000
   43.5400   21.9150   34.3510 C   0  0  0  0  0  0  0  0  0  0  0  0
   44.0310   23.1790   33.9710 C   0  0  0  0  0  0  0  0  0  0  0  0
   45.8520   23.0750   34.4380 S   0  0  0  0  0  0  0  0  0  0  0  0
   45.5710   21.3130   35.0640 C   0  0  0  0  0  0  0  0  0  0  0  0
   44.4920   21.1960   34.8570 N   0  0  0  0  0  0  0  0  0  0  0  0
   46.5450   20.3850   35.6560 N   0  0  0  0  0  0  0  0  0  0  0  0
   47.8550   20.5380   35.3140 C   0  0  0  0  0  0  0  0  0  0  0  0
   48.8100   19.7010   35.8360 C   0  0  0  0  0  0  0  0  0  0  0  0
   50.2370   19.8720   35.4590 C   0  0  0  0  0  0  0  0  0  0  0  0
   48.3840   18.7190   36.7050 C   0  0  0  0  0  0  0  0  0  0  0  0
   49.2710   17.9400   37.1910 O   0  0  0  0  0  0  0  0  0  0  0  0
   47.0780   18.6000   37.0190 N   0  0  0  0  0  0  0  0  0  0  0  0
   46.1340   19.4230   36.5070 C   0  0  0  0  0  0  0  0  0  0  0  0
   44.9170   19.3030   36.8080 O   0  0  0  0  0  0  0  0  0  0  0  0
   41.7960   21.5850   34.0730 S   0  0  0  0  0  0  0  0  0  0  0  0
   40.4490   22.4460   37.7290 C   0  0  0  0  0  0  0  0  0  0  0  0
   39.2600   23.1430   37.4780 C   0  0  0  0  0  0  0  0  0  0  0  0
   38.9000   23.3320   36.1570 C   0  0  0  0  0  0  0  0  0  0  0  0
   39.6920   22.8460   35.1540 N   0  0  0  0  0  0  0  0  0  0  0  0
   40.8360   22.1760   35.4520 C   0  0  0  0  0  0  0  0  0  0  0  0
   41.1880   21.9920   36.7200 N   0  0  0  0  0  0  0  0  0  0  0  0
   38.3760   23.6830   38.5480 C   0  0  0  0  0  0  0  0  0  0  0  0
   39.1890   23.8830   39.6680 F   0  0  0  0  0  0  0  0  0  0  0  0
   37.3610   22.8610   38.8790 F   0  0  0  0  0  0  0  0  0  0  0  0
   37.9520   24.9960   38.2210 F   0  0  0  0  0  0  0  0  0  0  0  0
   43.4860   24.0185   33.5147 H   0  0  0  0  0  0  0  0  0  0  0  0
   48.1489   21.3360   34.6163 H   0  0  0  0  0  0  0  0  0  0  0  0
   50.8504   19.9455   36.3691 H   0  0  0  0  0  0  0  0  0  0  0  0
   50.5654   19.0068   34.8644 H   0  0  0  0  0  0  0  0  0  0  0  0
   50.3517   20.7903   34.8644 H   0  0  0  0  0  0  0  0  0  0  0  0
   46.7891   17.8569   37.6711 H   0  0  0  0  0  0  0  0  0  0  0  0
   40.7734   22.2731   38.7658 H   0  0  0  0  0  0  0  0  0  0  0  0
   37.9748   23.8743   35.9122 H   0  0  0  0  0  0  0  0  0  0  0  0
  1  5  1  0
  2  1  2  0
  2  3  1  0
  3  4  1  0
  4  6  1  0
  5  4  2  0
  6 13  1  0
  7  6  1  0
  7  8  2  0
  8 10  1  0
  9  8  1  0
 10 12  1  0
 10 11  2  0
 13 14  2  0
 13 12  1  0
 15  1  1  0
 15 20  1  0
 17 16  2  0
 17 22  1  0
 18 17  1  0
 19 20  1  0
 19 18  2  0
 20 21  2  0
 21 16  1  0
 22 24  1  0
 22 23  1  0
 25 22  1  0
  2 26  1  0
  7 27  1  0
  9 28  1  0
  9 29  1  0
  9 30  1  0
 12 31  1  0
 16 32  1  0
 18 33  1  0
M  ISO  8  26  14  27  14  28   8  29   8  30   8  31   9  32  14  33  14
M  END
>  <minimizedAffinity>  (1) 
-4.35337114

>  <minimizedRMSD>  (1) 
3.79268456

$$$$
