
     RDKit          3D

 33 35  0  0  1  0  0  0  0  0999 V2000
   41.4840   23.5730   34.8480 C   0  0  1  0  0  0  0  0  0  0  0  0
   42.6630   23.9590   35.6610 C   0  0  0  0  0  0  0  0  0  0  0  0
   42.9840   22.7600   36.5340 C   0  0  0  0  0  0  0  0  0  0  0  0
   41.9990   21.6970   36.1920 C   0  0  0  0  0  0  0  0  0  0  0  0
   40.8620   22.4540   35.5860 C   0  0  1  0  0  0  0  0  0  0  0  0
   39.6370   24.5910   33.4700 C   0  0  0  0  0  0  0  0  0  0  0  0
   40.5950   24.6690   34.4820 C   0  0  0  0  0  0  0  0  0  0  0  0
   40.7100   25.8840   35.1850 C   0  0  0  0  0  0  0  0  0  0  0  0
   39.8900   26.8960   34.8370 N   0  0  0  0  0  0  0  0  0  0  0  0
   38.9770   26.7980   33.8610 C   0  0  0  0  0  0  0  0  0  0  0  0
   38.8640   25.6420   33.1890 N   0  0  0  0  0  0  0  0  0  0  0  0
   39.7930   22.7700   36.5360 C   0  0  0  0  0  0  0  0  0  0  0  0
   38.4400   22.7810   36.1640 C   0  0  0  0  0  0  0  0  0  0  0  0
   37.3710   23.0580   36.9540 C   0  0  0  0  0  0  0  0  0  0  0  0
   37.6430   23.3660   38.2810 C   0  0  0  0  0  0  0  0  0  0  0  0
   38.9460   23.3780   38.7280 C   0  0  0  0  0  0  0  0  0  0  0  0
   39.9870   23.0860   37.8700 C   0  0  0  0  0  0  0  0  0  0  0  0
   41.7825   23.2505   33.8396 H   0  0  0  0  0  0  0  0  0  0  0  0
   43.5162   24.1949   35.0080 H   0  0  0  0  0  0  0  0  0  0  0  0
   42.4573   24.8535   36.2672 H   0  0  0  0  0  0  0  0  0  0  0  0
   44.0060   22.4076   36.3310 H   0  0  0  0  0  0  0  0  0  0  0  0
   42.9236   23.0231   37.6004 H   0  0  0  0  0  0  0  0  0  0  0  0
   42.4250   20.9840   35.4708 H   0  0  0  0  0  0  0  0  0  0  0  0
   41.6973   21.0973   37.0634 H   0  0  0  0  0  0  0  0  0  0  0  0
   40.2800   21.8533   34.8715 H   0  0  0  0  0  0  0  0  0  0  0  0
   39.5184   23.6574   32.9005 H   0  0  0  0  0  0  0  0  0  0  0  0
   41.4464   26.0036   35.9933 H   0  0  0  0  0  0  0  0  0  0  0  0
   38.3298   27.6525   33.6143 H   0  0  0  0  0  0  0  0  0  0  0  0
   38.2207   22.5378   35.1139 H   0  0  0  0  0  0  0  0  0  0  0  0
   36.3428   23.0395   36.5635 H   0  0  0  0  0  0  0  0  0  0  0  0
   36.8203   23.5996   38.9728 H   0  0  0  0  0  0  0  0  0  0  0  0
   39.1589   23.6227   39.7791 H   0  0  0  0  0  0  0  0  0  0  0  0
   41.0143   23.1052   38.2627 H   0  0  0  0  0  0  0  0  0  0  0  0
  1  5  1  0
  1  2  1  0
  2  3  1  0
  4  3  1  0
  5  4  1  0
  5 12  1  0
  6  7  2  0
  7  1  1  0
  7  8  1  0
  9  8  2  0
 10  9  1  0
 11  6  1  0
 11 10  2  0
 12 17  1  0
 13 12  2  0
 13 14  1  0
 14 15  2  0
 15 16  1  0
 17 16  2  0
  1 18  1  6
  2 19  1  0
  2 20  1  0
  3 21  1  0
  3 22  1  0
  4 23  1  0
  4 24  1  0
  5 25  1  6
  6 26  1  0
  8 27  1  0
 10 28  1  0
 13 29  1  0
 14 30  1  0
 15 31  1  0
 16 32  1  0
 17 33  1  0
M  ISO  8  18  13  19  13  20  13  21  13  22  13  23  13  24  13  25  13
M  ISO  8  26  14  27  14  28  14  29  14  30  14  31  14  32  14  33  14
M  END
>  <minimizedAffinity>  (1) 
-4.42702341

>  <minimizedRMSD>  (1) 
2.28128624

$$$$
