
     RDKit          3D

 36 38  0  0  1  0  0  0  0  0999 V2000
   38.3560   24.9290   33.3940 C   0  0  1  0  0  0  0  0  0  0  0  0
   38.3250   26.2900   32.7580 C   0  0  0  0  0  0  0  0  0  0  0  0
   38.7080   27.2660   33.8440 C   0  0  0  0  0  0  0  0  0  0  0  0
   38.8740   26.4650   35.1020 C   0  0  0  0  0  0  0  0  0  0  0  0
   38.0020   25.2670   34.8230 C   0  0  2  0  0  0  0  0  0  0  0  0
   37.5490   22.5990   32.9270 C   0  0  0  0  0  0  0  0  0  0  0  0
   37.4370   23.9790   32.7640 C   0  0  0  0  0  0  0  0  0  0  0  0
   36.3890   24.4680   31.9390 C   0  0  0  0  0  0  0  0  0  0  0  0
   35.5530   23.5840   31.3540 N   0  0  0  0  0  0  0  0  0  0  0  0
   35.6910   22.2430   31.5350 C   0  0  0  0  0  0  0  0  0  0  0  0
   36.6840   21.7700   32.3170 N   0  0  0  0  0  0  0  0  0  0  0  0
   38.2750   24.2100   35.7310 N   0  0  0  0  0  0  0  0  0  0  0  0
   39.6330   23.9270   36.0290 C   0  0  0  0  0  0  0  0  0  0  0  0
   39.6210   22.6320   36.8590 C   0  0  0  0  0  0  0  0  0  0  0  0
   39.0690   22.8150   38.1050 O   0  0  0  0  0  0  0  0  0  0  0  0
   38.3280   23.9830   38.1740 C   0  0  0  0  0  0  0  0  0  0  0  0
   37.4990   24.2380   36.9270 C   0  0  0  0  0  0  0  0  0  0  0  0
   39.3179   24.4051   33.2932 H   0  0  0  0  0  0  0  0  0  0  0  0
   39.0448   26.3403   31.9278 H   0  0  0  0  0  0  0  0  0  0  0  0
   37.3321   26.5182   32.3433 H   0  0  0  0  0  0  0  0  0  0  0  0
   39.6521   27.7686   33.5868 H   0  0  0  0  0  0  0  0  0  0  0  0
   37.9396   28.0434   33.9675 H   0  0  0  0  0  0  0  0  0  0  0  0
   39.9229   26.1702   35.2535 H   0  0  0  0  0  0  0  0  0  0  0  0
   38.6007   27.0112   36.0169 H   0  0  0  0  0  0  0  0  0  0  0  0
   36.9257   25.4530   34.9532 H   0  0  0  0  0  0  0  0  0  0  0  0
   38.3496   22.1861   33.5583 H   0  0  0  0  0  0  0  0  0  0  0  0
   36.2608   25.5488   31.7795 H   0  0  0  0  0  0  0  0  0  0  0  0
   34.9951   21.5459   31.0453 H   0  0  0  0  0  0  0  0  0  0  0  0
   40.2061   23.7817   35.1014 H   0  0  0  0  0  0  0  0  0  0  0  0
   40.1071   24.7542   36.5776 H   0  0  0  0  0  0  0  0  0  0  0  0
   39.0350   21.8725   36.3207 H   0  0  0  0  0  0  0  0  0  0  0  0
   40.6642   22.3116   36.9972 H   0  0  0  0  0  0  0  0  0  0  0  0
   37.6499   23.9167   39.0376 H   0  0  0  0  0  0  0  0  0  0  0  0
   39.0388   24.8168   38.2711 H   0  0  0  0  0  0  0  0  0  0  0  0
   37.0261   25.2272   37.0158 H   0  0  0  0  0  0  0  0  0  0  0  0
   36.7526   23.4331   36.8558 H   0  0  0  0  0  0  0  0  0  0  0  0
  1  5  1  0
  2  1  1  0
  2  3  1  0
  3  4  1  0
  5  4  1  0
  5 12  1  0
  7  6  2  0
  7  1  1  0
  8  7  1  0
  9 10  1  0
  9  8  2  0
 10 11  2  0
 11  6  1  0
 12 13  1  0
 12 17  1  0
 13 14  1  0
 14 15  1  0
 15 16  1  0
 17 16  1  0
  1 18  1  1
  2 19  1  0
  2 20  1  0
  3 21  1  0
  3 22  1  0
  4 23  1  0
  4 24  1  0
  5 25  1  6
  6 26  1  0
  8 27  1  0
 10 28  1  0
 13 29  1  0
 13 30  1  0
 14 31  1  0
 14 32  1  0
 16 33  1  0
 16 34  1  0
 17 35  1  0
 17 36  1  0
M  ISO  8  18  13  19  13  20  13  21  13  22  13  23  13  24  13  25  13
M  ISO  8  26  14  27  14  28  14  29  13  30  13  31  13  32  13  33  13
M  ISO  3  34  13  35  13  36  13
M  END
>  <minimizedAffinity>  (1) 
-4.30212784

>  <minimizedRMSD>  (1) 
4.58943558

$$$$
