
     RDKit          3D

 28 30  0  0  1  0  0  0  0  0999 V2000
   38.9080   26.6650   33.4360 C   0  0  1  0  0  0  0  0  0  0  0  0
   40.0750   27.2460   32.7170 C   0  0  0  0  0  0  0  0  0  0  0  0
   41.2560   27.1380   33.6650 C   0  0  0  0  0  0  0  0  0  0  0  0
   40.7490   26.4100   34.8610 C   0  0  0  0  0  0  0  0  0  0  0  0
   39.2670   26.7700   34.8770 C   0  0  2  0  0  0  0  0  0  0  0  0
   36.9090   28.0730   33.9530 C   0  0  0  0  0  0  0  0  0  0  0  0
   37.6250   27.2740   33.0640 C   0  0  0  0  0  0  0  0  0  0  0  0
   37.0820   27.0510   31.7940 C   0  0  0  0  0  0  0  0  0  0  0  0
   35.8950   27.6140   31.4780 N   0  0  0  0  0  0  0  0  0  0  0  0
   35.2130   28.3910   32.3630 C   0  0  0  0  0  0  0  0  0  0  0  0
   35.7290   28.6110   33.5900 N   0  0  0  0  0  0  0  0  0  0  0  0
   38.6330   25.6170   35.5800 C   0  0  0  0  0  0  0  0  0  0  0  0
   38.5360   24.4000   34.9720 N   0  0  0  0  0  0  0  0  0  0  0  0
   37.9730   23.5610   35.7520 O   0  0  0  0  0  0  0  0  0  0  0  0
   37.6960   24.1980   36.8650 C   0  0  0  0  0  0  0  0  0  0  0  0
   38.0940   25.4830   36.7940 N   0  0  0  0  0  0  0  0  0  0  0  0
   38.7270   25.6161   33.1586 H   0  0  0  0  0  0  0  0  0  0  0  0
   40.2740   26.6808   31.7946 H   0  0  0  0  0  0  0  0  0  0  0  0
   39.8876   28.2910   32.4290 H   0  0  0  0  0  0  0  0  0  0  0  0
   42.0759   26.5764   33.1935 H   0  0  0  0  0  0  0  0  0  0  0  0
   41.6539   28.1283   33.9316 H   0  0  0  0  0  0  0  0  0  0  0  0
   40.8913   25.3246   34.7532 H   0  0  0  0  0  0  0  0  0  0  0  0
   41.2721   26.6829   35.7894 H   0  0  0  0  0  0  0  0  0  0  0  0
   38.9940   27.7344   35.3301 H   0  0  0  0  0  0  0  0  0  0  0  0
   37.3105   28.2658   34.9588 H   0  0  0  0  0  0  0  0  0  0  0  0
   37.6144   26.4255   31.0623 H   0  0  0  0  0  0  0  0  0  0  0  0
   34.2479   28.8365   32.0799 H   0  0  0  0  0  0  0  0  0  0  0  0
   37.2050   23.7440   37.7384 H   0  0  0  0  0  0  0  0  0  0  0  0
  1  5  1  0
  2  1  1  0
  2  3  1  0
  3  4  1  0
  4  5  1  0
  5 12  1  0
  7  1  1  0
  7  6  2  0
  8  7  1  0
  9  8  2  0
  9 10  1  0
 10 11  2  0
 11  6  1  0
 12 16  1  0
 13 12  2  0
 13 14  1  0
 14 15  1  0
 16 15  2  0
  1 17  1  6
  2 18  1  0
  2 19  1  0
  3 20  1  0
  3 21  1  0
  4 22  1  0
  4 23  1  0
  5 24  1  1
  6 25  1  0
  8 26  1  0
 10 27  1  0
 15 28  1  0
M  ISO  8  17  13  18  13  19  13  20  13  21  13  22  13  23  13  24  13
M  ISO  4  25  14  26  14  27  14  28  14
M  END
>  <minimizedAffinity>  (1) 
-4.25515747

>  <minimizedRMSD>  (1) 
4.37503767

$$$$
