
     RDKit          3D

 26 27  0  0  1  0  0  0  0  0999 V2000
   40.0360   23.5680   35.2320 C   0  0  1  0  0  0  0  0  0  0  0  0
   41.3100   23.8900   35.9520 C   0  0  0  0  0  0  0  0  0  0  0  0
   41.5620   22.7110   36.8660 C   0  0  0  0  0  0  0  0  0  0  0  0
   40.3820   21.7870   36.7170 C   0  0  0  0  0  0  0  0  0  0  0  0
   39.3040   22.7460   36.2790 C   0  0  1  0  0  0  0  0  0  0  0  0
   38.0370   24.6700   34.1890 C   0  0  0  0  0  0  0  0  0  0  0  0
   39.2920   24.7660   34.7910 C   0  0  0  0  0  0  0  0  0  0  0  0
   39.8760   26.0510   34.9800 C   0  0  0  0  0  0  0  0  0  0  0  0
   39.1720   27.1270   34.5590 N   0  0  0  0  0  0  0  0  0  0  0  0
   37.9500   26.9870   33.9780 C   0  0  0  0  0  0  0  0  0  0  0  0
   37.3900   25.7590   33.7950 N   0  0  0  0  0  0  0  0  0  0  0  0
   38.7580   23.5420   37.4150 C   0  0  0  0  0  0  0  0  0  0  0  0
   37.4470   23.0680   37.5970 F   0  0  0  0  0  0  0  0  0  0  0  0
   38.6120   24.8720   37.1030 F   0  0  0  0  0  0  0  0  0  0  0  0
   39.3800   23.3630   38.6160 F   0  0  0  0  0  0  0  0  0  0  0  0
   40.1838   23.0382   34.2794 H   0  0  0  0  0  0  0  0  0  0  0  0
   42.1376   24.0067   35.2369 H   0  0  0  0  0  0  0  0  0  0  0  0
   41.2370   24.8341   36.5117 H   0  0  0  0  0  0  0  0  0  0  0  0
   42.4874   22.1943   36.5717 H   0  0  0  0  0  0  0  0  0  0  0  0
   41.6789   23.0378   37.9098 H   0  0  0  0  0  0  0  0  0  0  0  0
   40.5686   21.0164   35.9545 H   0  0  0  0  0  0  0  0  0  0  0  0
   40.1367   21.2216   37.6281 H   0  0  0  0  0  0  0  0  0  0  0  0
   38.3970   22.2665   35.8822 H   0  0  0  0  0  0  0  0  0  0  0  0
   37.5793   23.6810   34.0395 H   0  0  0  0  0  0  0  0  0  0  0  0
   40.8635   26.1646   35.4511 H   0  0  0  0  0  0  0  0  0  0  0  0
   37.4033   27.8832   33.6495 H   0  0  0  0  0  0  0  0  0  0  0  0
  1  2  1  0
  1  5  1  0
  2  3  1  0
  4  3  1  0
  5  4  1  0
  5 12  1  0
  6  7  2  0
  7  8  1  0
  7  1  1  0
  9  8  2  0
 10  9  1  0
 11 10  2  0
 11  6  1  0
 12 13  1  0
 12 15  1  0
 14 12  1  0
  1 16  1  6
  2 17  1  0
  2 18  1  0
  3 19  1  0
  3 20  1  0
  4 21  1  0
  4 22  1  0
  5 23  1  6
  6 24  1  0
  8 25  1  0
 10 26  1  0
M  ISO  8  16  13  17  13  18  13  19  13  20  13  21  13  22  13  23  13
M  ISO  3  24  14  25  14  26  14
M  END
>  <minimizedAffinity>  (1) 
-4.05700016

>  <minimizedRMSD>  (1) 
1.61106598

$$$$
