
     RDKit          3D

 30 32  0  0  1  0  0  0  0  0999 V2000
   41.1440   23.3920   34.9870 C   0  0  1  0  0  0  0  0  0  0  0  0
   42.2910   23.8220   35.8150 C   0  0  0  0  0  0  0  0  0  0  0  0
   42.6930   22.5610   36.5560 C   0  0  0  0  0  0  0  0  0  0  0  0
   41.5950   21.5700   36.4080 C   0  0  0  0  0  0  0  0  0  0  0  0
   40.4780   22.3200   35.7700 C   0  0  1  0  0  0  0  0  0  0  0  0
   39.4040   24.3110   33.4460 C   0  0  0  0  0  0  0  0  0  0  0  0
   40.2750   24.4710   34.5260 C   0  0  0  0  0  0  0  0  0  0  0  0
   40.3340   25.7250   35.1910 C   0  0  0  0  0  0  0  0  0  0  0  0
   39.5330   26.7250   34.7450 N   0  0  0  0  0  0  0  0  0  0  0  0
   38.6930   26.5390   33.6900 C   0  0  0  0  0  0  0  0  0  0  0  0
   38.6310   25.3390   33.0490 N   0  0  0  0  0  0  0  0  0  0  0  0
   39.4220   22.7290   36.6440 N   0  0  0  0  0  0  0  0  0  0  0  0
   39.4720   23.1410   37.9050 C   0  0  0  0  0  0  0  0  0  0  0  0
   38.2210   23.4430   38.3870 C   0  0  0  0  0  0  0  0  0  0  0  0
   37.3830   23.2000   37.3650 N   0  0  0  0  0  0  0  0  0  0  0  0
   38.0950   22.7750   36.3260 C   0  0  0  0  0  0  0  0  0  0  0  0
   41.4815   23.0038   34.0147 H   0  0  0  0  0  0  0  0  0  0  0  0
   43.1154   24.1859   35.1842 H   0  0  0  0  0  0  0  0  0  0  0  0
   42.0405   24.6523   36.4917 H   0  0  0  0  0  0  0  0  0  0  0  0
   43.6214   22.1561   36.1269 H   0  0  0  0  0  0  0  0  0  0  0  0
   42.8666   22.7822   37.6194 H   0  0  0  0  0  0  0  0  0  0  0  0
   41.9134   20.7337   35.7684 H   0  0  0  0  0  0  0  0  0  0  0  0
   41.3000   21.1348   37.3742 H   0  0  0  0  0  0  0  0  0  0  0  0
   39.8846   21.6704   35.1098 H   0  0  0  0  0  0  0  0  0  0  0  0
   39.3498   23.3462   32.9205 H   0  0  0  0  0  0  0  0  0  0  0  0
   41.0106   25.8809   36.0442 H   0  0  0  0  0  0  0  0  0  0  0  0
   38.0558   27.3690   33.3507 H   0  0  0  0  0  0  0  0  0  0  0  0
   40.3988   23.2296   38.4908 H   0  0  0  0  0  0  0  0  0  0  0  0
   37.9615   23.8055   39.3926 H   0  0  0  0  0  0  0  0  0  0  0  0
   37.6743   22.4992   35.3478 H   0  0  0  0  0  0  0  0  0  0  0  0
  1  5  1  0
  1  2  1  0
  2  3  1  0
  4  3  1  0
  5  4  1  0
  5 12  1  0
  6  7  2  0
  7  1  1  0
  7  8  1  0
  9  8  2  0
 10  9  1  0
 11  6  1  0
 11 10  2  0
 12 13  1  0
 13 14  2  0
 15 14  1  0
 16 12  1  0
 16 15  2  0
  1 17  1  6
  2 18  1  0
  2 19  1  0
  3 20  1  0
  3 21  1  0
  4 22  1  0
  4 23  1  0
  5 24  1  6
  6 25  1  0
  8 26  1  0
 10 27  1  0
 13 28  1  0
 14 29  1  0
 16 30  1  0
M  ISO  8  17  13  18  13  19  13  20  13  21  13  22  13  23  13  24  13
M  ISO  6  25  14  26  14  27  14  28  14  29  14  30  14
M  END
>  <minimizedAffinity>  (1) 
-3.84336925

>  <minimizedRMSD>  (1) 
2.18597198

$$$$
