
     RDKit          3D

 35 37  0  0  1  0  0  0  0  0999 V2000
   39.7420   23.4970   36.1270 C   0  0  1  0  0  0  0  0  0  0  0  0
   39.3460   23.0210   37.4940 C   0  0  0  0  0  0  0  0  0  0  0  0
   38.0280   23.7130   37.8060 C   0  0  0  0  0  0  0  0  0  0  0  0
   37.7190   24.5850   36.6200 C   0  0  0  0  0  0  0  0  0  0  0  0
   39.0850   24.8500   36.0470 C   0  0  2  0  0  0  0  0  0  0  0  0
   41.7640   24.1530   34.8260 C   0  0  0  0  0  0  0  0  0  0  0  0
   41.1840   23.4960   35.9080 C   0  0  0  0  0  0  0  0  0  0  0  0
   42.0300   22.8120   36.7900 C   0  0  0  0  0  0  0  0  0  0  0  0
   43.3650   22.8160   36.5610 N   0  0  0  0  0  0  0  0  0  0  0  0
   43.9070   23.4650   35.4970 C   0  0  0  0  0  0  0  0  0  0  0  0
   43.0950   24.1330   34.6320 N   0  0  0  0  0  0  0  0  0  0  0  0
   39.0340   25.3850   34.7320 N   0  0  0  0  0  0  0  0  0  0  0  0
   37.8980   25.0480   33.9480 C   0  0  0  0  0  0  0  0  0  0  0  0
   38.1390   25.8970   32.6900 C   0  0  0  0  0  0  0  0  0  0  0  0
   38.9390   27.0730   33.1650 C   0  0  0  0  0  0  0  0  0  0  0  0
   39.0950   26.8060   34.6540 C   0  0  0  0  0  0  0  0  0  0  0  0
   39.4112   22.8317   35.3159 H   0  0  0  0  0  0  0  0  0  0  0  0
   39.2156   21.9288   37.4968 H   0  0  0  0  0  0  0  0  0  0  0  0
   40.1153   23.2565   38.2441 H   0  0  0  0  0  0  0  0  0  0  0  0
   37.2312   22.9683   37.9493 H   0  0  0  0  0  0  0  0  0  0  0  0
   38.0957   24.3046   38.7309 H   0  0  0  0  0  0  0  0  0  0  0  0
   37.0791   24.0594   35.8959 H   0  0  0  0  0  0  0  0  0  0  0  0
   37.1671   25.5003   36.8802 H   0  0  0  0  0  0  0  0  0  0  0  0
   39.6471   25.6229   36.5917 H   0  0  0  0  0  0  0  0  0  0  0  0
   41.1227   24.6978   34.1176 H   0  0  0  0  0  0  0  0  0  0  0  0
   41.6155   22.2782   37.6579 H   0  0  0  0  0  0  0  0  0  0  0  0
   44.9950   23.4507   35.3357 H   0  0  0  0  0  0  0  0  0  0  0  0
   37.8762   23.9740   33.7111 H   0  0  0  0  0  0  0  0  0  0  0  0
   36.9350   25.2399   34.4438 H   0  0  0  0  0  0  0  0  0  0  0  0
   37.1832   26.2283   32.2579 H   0  0  0  0  0  0  0  0  0  0  0  0
   38.6605   25.3323   31.9032 H   0  0  0  0  0  0  0  0  0  0  0  0
   39.9186   27.1115   32.6661 H   0  0  0  0  0  0  0  0  0  0  0  0
   38.4591   28.0385   32.9470 H   0  0  0  0  0  0  0  0  0  0  0  0
   40.0605   27.1813   35.0241 H   0  0  0  0  0  0  0  0  0  0  0  0
   38.3315   27.3073   35.2670 H   0  0  0  0  0  0  0  0  0  0  0  0
  1  2  1  0
  2  3  1  0
  4  3  1  0
  5  1  1  0
  5  4  1  0
  6  7  2  0
  7  1  1  0
  7  8  1  0
  9  8  2  0
 10  9  1  0
 11  6  1  0
 11 10  2  0
 12 13  1  0
 12  5  1  0
 14 15  1  0
 14 13  1  0
 15 16  1  0
 16 12  1  0
  1 17  1  6
  2 18  1  0
  2 19  1  0
  3 20  1  0
  3 21  1  0
  4 22  1  0
  4 23  1  0
  5 24  1  1
  6 25  1  0
  8 26  1  0
 10 27  1  0
 13 28  1  0
 13 29  1  0
 14 30  1  0
 14 31  1  0
 15 32  1  0
 15 33  1  0
 16 34  1  0
 16 35  1  0
M  ISO  8  17  13  18  13  19  13  20  13  21  13  22  13  23  13  24  13
M  ISO  8  25  14  26  14  27  14  28  13  29  13  30  13  31  13  32  13
M  ISO  3  33  13  34  13  35  13
M  END
>  <minimizedAffinity>  (1) 
-3.83190727

>  <minimizedRMSD>  (1) 
4.89873171

$$$$
