
     RDKit          3D

 25 26  0  0  1  0  0  0  0  0999 V2000
   37.9750   25.3400   34.7390 C   0  0  1  0  0  0  0  0  0  0  0  0
   37.1160   26.5190   35.0370 C   0  0  0  0  0  0  0  0  0  0  0  0
   37.3650   27.4870   33.8890 C   0  0  0  0  0  0  0  0  0  0  0  0
   38.3390   26.7970   32.9660 C   0  0  0  0  0  0  0  0  0  0  0  0
   39.1260   25.9580   33.9650 C   0  0  1  0  0  0  0  0  0  0  0  0
   39.2690   23.5100   35.8250 C   0  0  0  0  0  0  0  0  0  0  0  0
   38.3690   24.5720   35.9180 C   0  0  0  0  0  0  0  0  0  0  0  0
   37.8140   24.8940   37.1680 C   0  0  0  0  0  0  0  0  0  0  0  0
   38.1850   24.1460   38.2400 N   0  0  0  0  0  0  0  0  0  0  0  0
   39.0660   23.1120   38.1310 C   0  0  0  0  0  0  0  0  0  0  0  0
   39.6050   22.8000   36.9190 N   0  0  0  0  0  0  0  0  0  0  0  0
   39.9650   26.8460   34.7780 C   0  0  0  0  0  0  0  0  0  0  0  0
   41.1360   26.5650   34.8610 O   0  0  0  0  0  0  0  0  0  0  0  0
   37.4535   24.5610   34.1636 H   0  0  0  0  0  0  0  0  0  0  0  0
   36.0563   26.2262   35.0731 H   0  0  0  0  0  0  0  0  0  0  0  0
   37.3522   26.9664   36.0138 H   0  0  0  0  0  0  0  0  0  0  0  0
   36.4248   27.7026   33.3603 H   0  0  0  0  0  0  0  0  0  0  0  0
   37.7636   28.4464   34.2506 H   0  0  0  0  0  0  0  0  0  0  0  0
   37.8213   26.1679   32.2269 H   0  0  0  0  0  0  0  0  0  0  0  0
   38.9522   27.4774   32.3569 H   0  0  0  0  0  0  0  0  0  0  0  0
   39.8256   25.2126   33.5588 H   0  0  0  0  0  0  0  0  0  0  0  0
   39.7077   23.2505   34.8502 H   0  0  0  0  0  0  0  0  0  0  0  0
   37.1017   25.7253   37.2754 H   0  0  0  0  0  0  0  0  0  0  0  0
   39.3422   22.5289   39.0219 H   0  0  0  0  0  0  0  0  0  0  0  0
   39.5465   27.7263   35.2878 H   0  0  0  0  0  0  0  0  0  0  0  0
  1  2  1  0
  1  7  1  0
  3  2  1  0
  4  3  1  0
  4  5  1  0
  5  1  1  0
  5 12  1  0
  6  7  2  0
  6 11  1  0
  7  8  1  0
  8  9  2  0
 10  9  1  0
 11 10  2  0
 12 13  2  0
  1 14  1  6
  2 15  1  0
  2 16  1  0
  3 17  1  0
  3 18  1  0
  4 19  1  0
  4 20  1  0
  5 21  1  6
  6 22  1  0
  8 23  1  0
 10 24  1  0
 12 25  1  0
M  ISO  8  14  13  15  13  16  13  17  13  18  13  19  13  20  13  21  13
M  ISO  4  22  14  23  14  24  14  25   6
M  END
>  <minimizedAffinity>  (1) 
-3.68463469

>  <minimizedRMSD>  (1) 
4.86913824

$$$$
