
     RDKit          3D

 29 30  0  0  1  0  0  0  0  0999 V2000
   40.0540   23.5480   35.5980 C   0  0  1  0  0  0  0  0  0  0  0  0
   41.5220   23.6990   35.8160 C   0  0  0  0  0  0  0  0  0  0  0  0
   41.9430   22.4290   36.5240 C   0  0  0  0  0  0  0  0  0  0  0  0
   40.6910   21.6830   36.8900 C   0  0  0  0  0  0  0  0  0  0  0  0
   39.6190   22.7240   36.7840 C   0  0  1  0  0  0  0  0  0  0  0  0
   37.9540   24.8690   35.3440 C   0  0  0  0  0  0  0  0  0  0  0  0
   39.3450   24.8220   35.4400 C   0  0  0  0  0  0  0  0  0  0  0  0
   40.0920   26.0300   35.3630 C   0  0  0  0  0  0  0  0  0  0  0  0
   39.3990   27.1840   35.1930 N   0  0  0  0  0  0  0  0  0  0  0  0
   38.0420   27.2050   35.1010 C   0  0  0  0  0  0  0  0  0  0  0  0
   37.3260   26.0470   35.1770 N   0  0  0  0  0  0  0  0  0  0  0  0
   39.4160   23.5080   38.0450 C   0  0  0  0  0  0  0  0  0  0  0  0
   37.9980   23.3060   38.5940 C   0  0  0  0  0  0  0  0  0  0  0  0
   39.8086   23.0581   34.6442 H   0  0  0  0  0  0  0  0  0  0  0  0
   42.0478   23.7989   34.8550 H   0  0  0  0  0  0  0  0  0  0  0  0
   41.7635   24.5988   36.4008 H   0  0  0  0  0  0  0  0  0  0  0  0
   42.5652   21.8148   35.8564 H   0  0  0  0  0  0  0  0  0  0  0  0
   42.5330   22.6623   37.4226 H   0  0  0  0  0  0  0  0  0  0  0  0
   40.5068   20.8562   36.1882 H   0  0  0  0  0  0  0  0  0  0  0  0
   40.7433   21.2224   37.8875 H   0  0  0  0  0  0  0  0  0  0  0  0
   38.6177   22.2922   36.6389 H   0  0  0  0  0  0  0  0  0  0  0  0
   37.3687   23.9397   35.4051 H   0  0  0  0  0  0  0  0  0  0  0  0
   41.1894   26.0287   35.4384 H   0  0  0  0  0  0  0  0  0  0  0  0
   37.5186   28.1628   34.9643 H   0  0  0  0  0  0  0  0  0  0  0  0
   40.1446   23.1734   38.7981 H   0  0  0  0  0  0  0  0  0  0  0  0
   39.5569   24.5757   37.8211 H   0  0  0  0  0  0  0  0  0  0  0  0
   38.0265   23.3101   39.6936 H   0  0  0  0  0  0  0  0  0  0  0  0
   37.3486   24.1207   38.2410 H   0  0  0  0  0  0  0  0  0  0  0  0
   37.6020   22.3424   38.2410 H   0  0  0  0  0  0  0  0  0  0  0  0
  1  2  1  0
  1  5  1  0
  2  3  1  0
  3  4  1  0
  5  4  1  0
  5 12  1  0
  6  7  2  0
  7  1  1  0
  8  7  1  0
  9  8  2  0
 10 11  2  0
 10  9  1  0
 11  6  1  0
 12 13  1  0
  1 14  1  6
  2 15  1  0
  2 16  1  0
  3 17  1  0
  3 18  1  0
  4 19  1  0
  4 20  1  0
  5 21  1  6
  6 22  1  0
  8 23  1  0
 10 24  1  0
 12 25  1  0
 12 26  1  0
 13 27  1  0
 13 28  1  0
 13 29  1  0
M  ISO  8  14  13  15  13  16  13  17  13  18  13  19  13  20  13  21  13
M  ISO  8  22  14  23  14  24  14  25   8  26   8  27   8  28   8  29   8
M  END
>  <minimizedAffinity>  (1) 
-3.55739713

>  <minimizedRMSD>  (1) 
0.782260597

$$$$
