
     RDKit          3D

 26 27  0  0  1  0  0  0  0  0999 V2000
   40.2420   23.4870   35.6070 C   0  0  1  0  0  0  0  0  0  0  0  0
   41.6800   23.7040   35.9650 C   0  0  0  0  0  0  0  0  0  0  0  0
   42.1400   22.4320   36.6480 C   0  0  0  0  0  0  0  0  0  0  0  0
   40.9180   21.5410   36.7260 C   0  0  0  0  0  0  0  0  0  0  0  0
   39.7990   22.5660   36.7420 C   0  0  1  0  0  0  0  0  0  0  0  0
   38.0840   24.7240   35.5800 C   0  0  0  0  0  0  0  0  0  0  0  0
   39.4750   24.7180   35.5090 C   0  0  0  0  0  0  0  0  0  0  0  0
   40.1470   25.9360   35.3040 C   0  0  0  0  0  0  0  0  0  0  0  0
   39.4010   27.0720   35.1850 N   0  0  0  0  0  0  0  0  0  0  0  0
   38.0420   27.0500   35.2590 C   0  0  0  0  0  0  0  0  0  0  0  0
   37.3860   25.8730   35.4560 N   0  0  0  0  0  0  0  0  0  0  0  0
   39.7850   23.3440   38.0270 C   0  0  0  0  0  0  0  0  0  0  0  0
   40.0859   23.0612   34.6048 H   0  0  0  0  0  0  0  0  0  0  0  0
   42.2755   23.8873   35.0585 H   0  0  0  0  0  0  0  0  0  0  0  0
   41.8032   24.5789   36.6202 H   0  0  0  0  0  0  0  0  0  0  0  0
   42.9317   21.9458   36.0592 H   0  0  0  0  0  0  0  0  0  0  0  0
   42.5570   22.6358   37.6453 H   0  0  0  0  0  0  0  0  0  0  0  0
   40.8455   20.8802   35.8496 H   0  0  0  0  0  0  0  0  0  0  0  0
   40.9142   20.8583   37.5885 H   0  0  0  0  0  0  0  0  0  0  0  0
   38.7955   22.1269   36.6417 H   0  0  0  0  0  0  0  0  0  0  0  0
   37.5458   23.7780   35.7396 H   0  0  0  0  0  0  0  0  0  0  0  0
   41.2446   25.9719   35.2413 H   0  0  0  0  0  0  0  0  0  0  0  0
   37.4721   27.9856   35.1594 H   0  0  0  0  0  0  0  0  0  0  0  0
   39.7975   22.6469   38.8778 H   0  0  0  0  0  0  0  0  0  0  0  0
   40.6716   23.9935   38.0720 H   0  0  0  0  0  0  0  0  0  0  0  0
   38.8756   23.9612   38.0720 H   0  0  0  0  0  0  0  0  0  0  0  0
  1  2  1  0
  1  5  1  0
  2  3  1  0
  3  4  1  0
  4  5  1  0
  5 12  1  0
  7  6  2  0
  7  1  1  0
  8  7  1  0
  9 10  1  0
  9  8  2  0
 10 11  2  0
 11  6  1  0
  1 13  1  6
  2 14  1  0
  2 15  1  0
  3 16  1  0
  3 17  1  0
  4 18  1  0
  4 19  1  0
  5 20  1  6
  6 21  1  0
  8 22  1  0
 10 23  1  0
 12 24  1  0
 12 25  1  0
 12 26  1  0
M  ISO  8  13  13  14  13  15  13  16  13  17  13  18  13  19  13  20  13
M  ISO  6  21  14  22  14  23  14  24   8  25   8  26   8
M  END
>  <minimizedAffinity>  (1) 
-3.23268342

>  <minimizedRMSD>  (1) 
0.585157871

$$$$
