
     RDKit          3D

 29 31  0  0  1  0  0  0  0  0999 V2000
   39.3810   22.8420   37.2060 C   0  0  1  0  0  0  0  0  0  0  0  0
   39.2360   23.4360   38.5870 C   0  0  0  0  0  0  0  0  0  0  0  0
   37.9790   24.2740   38.5300 C   0  0  0  0  0  0  0  0  0  0  0  0
   37.4470   24.1330   37.1350 C   0  0  0  0  0  0  0  0  0  0  0  0
   38.7330   23.8800   36.3420 C   0  0  2  0  0  0  0  0  0  0  0  0
   41.5310   23.4420   36.1090 C   0  0  0  0  0  0  0  0  0  0  0  0
   40.7940   22.5470   36.8810 C   0  0  0  0  0  0  0  0  0  0  0  0
   41.4040   21.3600   37.3390 C   0  0  0  0  0  0  0  0  0  0  0  0
   42.6900   21.1540   36.9980 N   0  0  0  0  0  0  0  0  0  0  0  0
   43.4050   22.0270   36.2460 C   0  0  0  0  0  0  0  0  0  0  0  0
   42.8160   23.1730   35.8030 N   0  0  0  0  0  0  0  0  0  0  0  0
   38.2720   23.2510   35.0800 C   0  0  0  0  0  0  0  0  0  0  0  0
   37.6450   21.9830   35.1210 C   0  0  0  0  0  0  0  0  0  0  0  0
   37.2800   21.7040   33.3750 S   0  0  0  0  0  0  0  0  0  0  0  0
   38.0390   23.3620   32.8520 C   0  0  0  0  0  0  0  0  0  0  0  0
   38.4520   23.9110   33.9300 N   0  0  0  0  0  0  0  0  0  0  0  0
   38.9078   21.8577   37.0751 H   0  0  0  0  0  0  0  0  0  0  0  0
   39.1351   22.6406   39.3401 H   0  0  0  0  0  0  0  0  0  0  0  0
   40.1149   24.0333   38.8712 H   0  0  0  0  0  0  0  0  0  0  0  0
   37.2417   23.9060   39.2586 H   0  0  0  0  0  0  0  0  0  0  0  0
   38.1862   25.3259   38.7763 H   0  0  0  0  0  0  0  0  0  0  0  0
   36.7515   23.2847   37.0540 H   0  0  0  0  0  0  0  0  0  0  0  0
   36.8681   25.0008   36.7859 H   0  0  0  0  0  0  0  0  0  0  0  0
   39.3818   24.7405   36.1216 H   0  0  0  0  0  0  0  0  0  0  0  0
   41.0635   24.3701   35.7483 H   0  0  0  0  0  0  0  0  0  0  0  0
   40.8508   20.6319   37.9504 H   0  0  0  0  0  0  0  0  0  0  0  0
   44.4541   21.8113   35.9952 H   0  0  0  0  0  0  0  0  0  0  0  0
   37.4355   21.3382   35.9872 H   0  0  0  0  0  0  0  0  0  0  0  0
   38.1092   23.7673   31.8318 H   0  0  0  0  0  0  0  0  0  0  0  0
  1  2  1  0
  3  2  1  0
  4  3  1  0
  5  4  1  0
  5  1  1  0
  6  7  2  0
  7  1  1  0
  7  8  1  0
  9  8  2  0
 10  9  1  0
 11  6  1  0
 11 10  2  0
 12 13  2  0
 12  5  1  0
 14 13  1  0
 15 14  1  0
 15 16  2  0
 16 12  1  0
  1 17  1  1
  2 18  1  0
  2 19  1  0
  3 20  1  0
  3 21  1  0
  4 22  1  0
  4 23  1  0
  5 24  1  6
  6 25  1  0
  8 26  1  0
 10 27  1  0
 13 28  1  0
 15 29  1  0
M  ISO  8  17  13  18  13  19  13  20  13  21  13  22  13  23  13  24  13
M  ISO  5  25  14  26  14  27  14  28  14  29  14
M  END
>  <minimizedAffinity>  (1) 
-4.4503355

>  <minimizedRMSD>  (1) 
4.6112113

$$$$
