
     RDKit          3D

 43 47  0  0  1  0  0  0  0  0999 V2000
   39.3800   22.9700   37.0420 C   0  0  1  0  0  0  0  0  0  0  0  0
   39.1870   23.2260   38.5310 C   0  0  0  0  0  0  0  0  0  0  0  0
   37.9700   24.1030   38.6330 C   0  0  0  0  0  0  0  0  0  0  0  0
   37.4900   24.3150   37.2350 C   0  0  0  0  0  0  0  0  0  0  0  0
   38.7950   24.1900   36.4450 C   0  0  2  0  0  0  0  0  0  0  0  0
   41.4880   23.5720   35.8970 C   0  0  0  0  0  0  0  0  0  0  0  0
   40.7840   22.6710   36.7100 C   0  0  0  0  0  0  0  0  0  0  0  0
   41.4180   21.5220   37.1970 C   0  0  0  0  0  0  0  0  0  0  0  0
   42.7100   21.3370   36.8460 N   0  0  0  0  0  0  0  0  0  0  0  0
   43.3960   22.2130   36.0530 C   0  0  0  0  0  0  0  0  0  0  0  0
   42.7730   23.3400   35.5760 N   0  0  0  0  0  0  0  0  0  0  0  0
   38.3850   23.9550   35.0500 C   0  0  0  0  0  0  0  0  0  0  0  0
   37.9660   22.6630   34.6910 C   0  0  0  0  0  0  0  0  0  0  0  0
   37.5850   22.8880   32.9350 S   0  0  0  0  0  0  0  0  0  0  0  0
   38.0570   24.7120   32.9690 C   0  0  0  0  0  0  0  0  0  0  0  0
   38.4080   24.9230   34.1590 N   0  0  0  0  0  0  0  0  0  0  0  0
   37.9980   25.6480   31.7800 C   0  0  0  0  0  0  0  0  0  0  0  0
   38.6270   25.3960   30.6010 C   0  0  0  0  0  0  0  0  0  0  0  0
   38.3200   26.4460   29.8550 N   0  0  0  0  0  0  0  0  0  0  0  0
   37.5470   27.3350   30.4780 C   0  0  0  0  0  0  0  0  0  0  0  0
   36.9910   28.5510   30.1080 C   0  0  0  0  0  0  0  0  0  0  0  0
   36.2230   29.2410   31.0010 C   0  0  0  0  0  0  0  0  0  0  0  0
   35.9710   28.7660   32.2930 C   0  0  0  0  0  0  0  0  0  0  0  0
   36.5560   27.5460   32.6020 C   0  0  0  0  0  0  0  0  0  0  0  0
   37.3250   26.8230   31.7490 C   0  0  0  0  0  0  0  0  0  0  0  0
   38.8891   22.0694   36.6447 H   0  0  0  0  0  0  0  0  0  0  0  0
   39.0243   22.2788   39.0661 H   0  0  0  0  0  0  0  0  0  0  0  0
   40.0711   23.7006   38.9816 H   0  0  0  0  0  0  0  0  0  0  0  0
   37.1920   23.6072   39.2321 H   0  0  0  0  0  0  0  0  0  0  0  0
   38.2049   25.0584   39.1251 H   0  0  0  0  0  0  0  0  0  0  0  0
   36.7642   23.5438   36.9376 H   0  0  0  0  0  0  0  0  0  0  0  0
   36.9607   25.2669   37.0809 H   0  0  0  0  0  0  0  0  0  0  0  0
   39.4895   25.0426   36.4708 H   0  0  0  0  0  0  0  0  0  0  0  0
   40.9852   24.4746   35.5195 H   0  0  0  0  0  0  0  0  0  0  0  0
   40.8880   20.8014   37.8372 H   0  0  0  0  0  0  0  0  0  0  0  0
   44.4473   22.0155   35.7967 H   0  0  0  0  0  0  0  0  0  0  0  0
   37.8898   21.7573   35.3106 H   0  0  0  0  0  0  0  0  0  0  0  0
   39.2442   24.5264   30.3311 H   0  0  0  0  0  0  0  0  0  0  0  0
   38.6474   26.5644   28.8856 H   0  0  0  0  0  0  0  0  0  0  0  0
   37.1680   28.9567   29.1010 H   0  0  0  0  0  0  0  0  0  0  0  0
   35.7873   30.2034   30.6945 H   0  0  0  0  0  0  0  0  0  0  0  0
   35.3523   29.3210   33.0135 H   0  0  0  0  0  0  0  0  0  0  0  0
   36.3844   27.1365   33.6084 H   0  0  0  0  0  0  0  0  0  0  0  0
  1  2  1  0
  2  3  1  0
  4  3  1  0
  5  1  1  0
  5  4  1  0
  6  7  2  0
  7  1  1  0
  7  8  1  0
  9  8  2  0
 10  9  1  0
 11  6  1  0
 11 10  2  0
 12  5  1  0
 13 12  2  0
 14 15  1  0
 14 13  1  0
 15 16  2  0
 16 12  1  0
 17 15  1  0
 18 17  2  0
 19 20  1  0
 19 18  1  0
 20 25  2  0
 21 20  1  0
 21 22  2  0
 22 23  1  0
 23 24  2  0
 25 17  1  0
 25 24  1  0
  1 26  1  6
  2 27  1  0
  2 28  1  0
  3 29  1  0
  3 30  1  0
  4 31  1  0
  4 32  1  0
  5 33  1  6
  6 34  1  0
  8 35  1  0
 10 36  1  0
 13 37  1  0
 18 38  1  0
 19 39  1  0
 21 40  1  0
 22 41  1  0
 23 42  1  0
 24 43  1  0
M  ISO  8  26  13  27  13  28  13  29  13  30  13  31  13  32  13  33  13
M  ISO  8  34  14  35  14  36  14  37  14  38  14  39   9  40  14  41  14
M  ISO  2  42  14  43  14
M  END
>  <minimizedAffinity>  (1) 
-6.22953701

>  <minimizedRMSD>  (1) 
1.47086704

$$$$
