
     RDKit          3D

 40 43  0  0  1  0  0  0  0  0999 V2000
   39.4080   22.9670   37.0940 C   0  0  1  0  0  0  0  0  0  0  0  0
   39.1900   23.2000   38.5860 C   0  0  0  0  0  0  0  0  0  0  0  0
   37.9540   24.0480   38.6780 C   0  0  0  0  0  0  0  0  0  0  0  0
   37.5050   24.2930   37.2780 C   0  0  0  0  0  0  0  0  0  0  0  0
   38.8380   24.2000   36.5120 C   0  0  2  0  0  0  0  0  0  0  0  0
   38.4530   23.9930   35.1130 C   0  0  0  0  0  0  0  0  0  0  0  0
   38.2980   22.6790   34.6370 C   0  0  0  0  0  0  0  0  0  0  0  0
   37.8320   22.9650   32.9150 S   0  0  0  0  0  0  0  0  0  0  0  0
   37.9160   24.8390   33.0910 C   0  0  0  0  0  0  0  0  0  0  0  0
   38.2490   25.0080   34.2970 N   0  0  0  0  0  0  0  0  0  0  0  0
   37.6600   25.8200   32.0870 N   0  0  0  0  0  0  0  0  0  0  0  0
   38.6340   26.6870   31.7720 C   0  0  0  0  0  0  0  0  0  0  0  0
   38.3870   27.6290   30.8050 C   0  0  0  0  0  0  0  0  0  0  0  0
   37.1440   27.6030   30.2350 C   0  0  0  0  0  0  0  0  0  0  0  0
   36.8850   28.5910   29.2220 N   0  0  0  0  0  0  0  0  0  0  0  0
   36.1830   26.7070   30.5810 N   0  0  0  0  0  0  0  0  0  0  0  0
   36.4540   25.7830   31.5430 C   0  0  0  0  0  0  0  0  0  0  0  0
   35.5450   24.9660   31.8430 O   0  0  0  0  0  0  0  0  0  0  0  0
   41.5650   23.6320   36.0880 C   0  0  0  0  0  0  0  0  0  0  0  0
   40.8160   22.6710   36.7810 C   0  0  0  0  0  0  0  0  0  0  0  0
   41.4110   21.4660   37.1700 C   0  0  0  0  0  0  0  0  0  0  0  0
   42.7150   21.2980   36.8420 N   0  0  0  0  0  0  0  0  0  0  0  0
   43.4420   22.2240   36.1720 C   0  0  0  0  0  0  0  0  0  0  0  0
   42.8590   23.4070   35.7910 N   0  0  0  0  0  0  0  0  0  0  0  0
   38.9225   22.0746   36.6722 H   0  0  0  0  0  0  0  0  0  0  0  0
   39.0405   22.2432   39.1076 H   0  0  0  0  0  0  0  0  0  0  0  0
   40.0572   23.6866   39.0562 H   0  0  0  0  0  0  0  0  0  0  0  0
   37.1711   23.5191   39.2413 H   0  0  0  0  0  0  0  0  0  0  0  0
   38.1578   24.9934   39.2021 H   0  0  0  0  0  0  0  0  0  0  0  0
   36.7937   23.5237   36.9429 H   0  0  0  0  0  0  0  0  0  0  0  0
   36.9700   25.2437   37.1367 H   0  0  0  0  0  0  0  0  0  0  0  0
   39.5300   25.0530   36.5710 H   0  0  0  0  0  0  0  0  0  0  0  0
   38.4267   21.7268   35.1725 H   0  0  0  0  0  0  0  0  0  0  0  0
   39.6098   26.6438   32.2780 H   0  0  0  0  0  0  0  0  0  0  0  0
   39.1474   28.3649   30.5047 H   0  0  0  0  0  0  0  0  0  0  0  0
   37.6171   29.2678   28.9636 H   0  0  0  0  0  0  0  0  0  0  0  0
   35.9674   28.6216   28.7551 H   0  0  0  0  0  0  0  0  0  0  0  0
   41.0919   24.5775   35.7843 H   0  0  0  0  0  0  0  0  0  0  0  0
   40.8484   20.6936   37.7149 H   0  0  0  0  0  0  0  0  0  0  0  0
   44.4979   22.0283   35.9336 H   0  0  0  0  0  0  0  0  0  0  0  0
  1  2  1  0
  2  3  1  0
  4  3  1  0
  5  1  1  0
  5  4  1  0
  6  5  1  0
  7  6  2  0
  8  9  1  0
  8  7  1  0
  9 10  2  0
 10  6  1  0
 11  9  1  0
 12 11  1  0
 13 12  2  0
 14 16  2  0
 14 13  1  0
 15 14  1  0
 16 17  1  0
 17 18  2  0
 17 11  1  0
 19 20  2  0
 20  1  1  0
 20 21  1  0
 22 21  2  0
 23 22  1  0
 24 19  1  0
 24 23  2  0
  1 25  1  6
  2 26  1  0
  2 27  1  0
  3 28  1  0
  3 29  1  0
  4 30  1  0
  4 31  1  0
  5 32  1  6
  7 33  1  0
 12 34  1  0
 13 35  1  0
 15 36  1  0
 15 37  1  0
 19 38  1  0
 21 39  1  0
 23 40  1  0
M  ISO  8  25  13  26  13  27  13  28  13  29  13  30  13  31  13  32  13
M  ISO  6  33  14  34  14  35  14  38  14  39  14  40  14
M  END
>  <minimizedAffinity>  (1) 
-6.08249855

>  <minimizedRMSD>  (1) 
1.66609657

$$$$
