
     RDKit          3D

 42 45  0  0  1  0  0  0  0  0999 V2000
   39.3690   22.8870   37.2960 C   0  0  1  0  0  0  0  0  0  0  0  0
   39.2520   23.4900   38.6920 C   0  0  0  0  0  0  0  0  0  0  0  0
   37.9980   24.3160   38.6670 C   0  0  0  0  0  0  0  0  0  0  0  0
   37.4340   24.1820   37.2930 C   0  0  0  0  0  0  0  0  0  0  0  0
   38.6980   23.9100   36.4690 C   0  0  2  0  0  0  0  0  0  0  0  0
   41.4980   23.4670   36.1870 C   0  0  0  0  0  0  0  0  0  0  0  0
   40.7600   22.5560   36.9530 C   0  0  0  0  0  0  0  0  0  0  0  0
   41.3570   21.3660   37.3830 C   0  0  0  0  0  0  0  0  0  0  0  0
   42.6450   21.1590   37.0230 N   0  0  0  0  0  0  0  0  0  0  0  0
   43.3600   22.0480   36.2760 C   0  0  0  0  0  0  0  0  0  0  0  0
   42.7770   23.2170   35.8530 N   0  0  0  0  0  0  0  0  0  0  0  0
   38.2210   23.3440   35.2050 C   0  0  0  0  0  0  0  0  0  0  0  0
   37.7620   22.0180   35.1950 C   0  0  0  0  0  0  0  0  0  0  0  0
   37.2980   21.7870   33.4680 S   0  0  0  0  0  0  0  0  0  0  0  0
   37.8020   23.5560   33.0030 C   0  0  0  0  0  0  0  0  0  0  0  0
   38.2110   24.0400   34.0900 N   0  0  0  0  0  0  0  0  0  0  0  0
   37.7000   24.1550   31.6240 C   0  0  0  0  0  0  0  0  0  0  0  0
   36.4730   23.6450   30.9080 C   0  0  0  0  0  0  0  0  0  0  0  0
   35.4020   24.5910   31.3630 C   0  0  0  0  0  0  0  0  0  0  0  0
   36.0370   25.9290   31.6400 C   0  0  0  0  0  0  0  0  0  0  0  0
   37.5200   25.6510   31.7090 C   0  0  0  0  0  0  0  0  0  0  0  0
   38.8962   21.9036   37.1570 H   0  0  0  0  0  0  0  0  0  0  0  0
   39.1743   22.6956   39.4489 H   0  0  0  0  0  0  0  0  0  0  0  0
   40.1340   24.0939   38.9515 H   0  0  0  0  0  0  0  0  0  0  0  0
   37.2802   23.9408   39.4113 H   0  0  0  0  0  0  0  0  0  0  0  0
   38.2079   25.3677   38.9115 H   0  0  0  0  0  0  0  0  0  0  0  0
   36.7249   23.3435   37.2297 H   0  0  0  0  0  0  0  0  0  0  0  0
   36.8592   25.0575   36.9568 H   0  0  0  0  0  0  0  0  0  0  0  0
   39.3561   24.7630   36.2471 H   0  0  0  0  0  0  0  0  0  0  0  0
   41.0243   24.4019   35.8531 H   0  0  0  0  0  0  0  0  0  0  0  0
   40.8041   20.6314   37.9868 H   0  0  0  0  0  0  0  0  0  0  0  0
   44.4050   21.8284   36.0120 H   0  0  0  0  0  0  0  0  0  0  0  0
   37.7009   21.3022   36.0280 H   0  0  0  0  0  0  0  0  0  0  0  0
   38.6237   23.8816   31.0929 H   0  0  0  0  0  0  0  0  0  0  0  0
   36.2414   22.6119   31.2065 H   0  0  0  0  0  0  0  0  0  0  0  0
   36.5895   23.6142   29.8146 H   0  0  0  0  0  0  0  0  0  0  0  0
   34.6406   24.6967   30.5761 H   0  0  0  0  0  0  0  0  0  0  0  0
   34.9187   24.2059   32.2730 H   0  0  0  0  0  0  0  0  0  0  0  0
   35.8139   26.6381   30.8292 H   0  0  0  0  0  0  0  0  0  0  0  0
   35.6579   26.3821   32.5679 H   0  0  0  0  0  0  0  0  0  0  0  0
   37.9296   26.0262   32.6584 H   0  0  0  0  0  0  0  0  0  0  0  0
   38.0495   26.1545   30.8868 H   0  0  0  0  0  0  0  0  0  0  0  0
  1  2  1  0
  3  2  1  0
  4  3  1  0
  5  4  1  0
  5  1  1  0
  6  7  2  0
  7  1  1  0
  7  8  1  0
  9  8  2  0
 10  9  1  0
 11  6  1  0
 11 10  2  0
 12  5  1  0
 13 12  2  0
 14 13  1  0
 15 14  1  0
 15 16  2  0
 16 12  1  0
 17 21  1  0
 17 15  1  0
 18 19  1  0
 18 17  1  0
 19 20  1  0
 20 21  1  0
  1 22  1  1
  2 23  1  0
  2 24  1  0
  3 25  1  0
  3 26  1  0
  4 27  1  0
  4 28  1  0
  5 29  1  6
  6 30  1  0
  8 31  1  0
 10 32  1  0
 13 33  1  0
 17 34  1  0
 18 35  1  0
 18 36  1  0
 19 37  1  0
 19 38  1  0
 20 39  1  0
 20 40  1  0
 21 41  1  0
 21 42  1  0
M  ISO  8  22  13  23  13  24  13  25  13  26  13  27  13  28  13  29  13
M  ISO  8  30  14  31  14  32  14  33  14  34  13  35  13  36  13  37  13
M  ISO  5  38  13  39  13  40  13  41  13  42  13
M  END
>  <minimizedAffinity>  (1) 
-5.47968674

>  <minimizedRMSD>  (1) 
0.574751437

$$$$
