
     RDKit          3D

 44 47  0  0  1  0  0  0  0  0999 V2000
   39.4180   22.9880   37.0160 C   0  0  1  0  0  0  0  0  0  0  0  0
   39.1620   23.2210   38.4980 C   0  0  0  0  0  0  0  0  0  0  0  0
   37.9510   24.1090   38.5690 C   0  0  0  0  0  0  0  0  0  0  0  0
   37.5350   24.3600   37.1380 C   0  0  0  0  0  0  0  0  0  0  0  0
   38.8880   24.2230   36.4100 C   0  0  2  0  0  0  0  0  0  0  0  0
   38.5320   24.0130   34.9940 C   0  0  0  0  0  0  0  0  0  0  0  0
   38.0200   22.7660   34.6070 C   0  0  0  0  0  0  0  0  0  0  0  0
   37.7420   23.0090   32.8410 S   0  0  0  0  0  0  0  0  0  0  0  0
   38.3750   24.8020   32.9000 C   0  0  0  0  0  0  0  0  0  0  0  0
   38.6840   24.9780   34.1070 N   0  0  0  0  0  0  0  0  0  0  0  0
   38.4810   25.8070   31.8340 N   0  0  0  0  0  0  0  0  0  0  0  0
   39.7510   26.4070   31.4800 C   0  0  0  0  0  0  0  0  0  0  0  0
   39.6430   27.6640   30.6850 C   0  0  0  0  0  0  0  0  0  0  0  0
   38.3670   27.8280   29.9110 C   0  0  0  0  0  0  0  0  0  0  0  0
   37.2000   27.6060   30.8610 C   0  0  0  0  0  0  0  0  0  0  0  0
   37.2210   26.1240   31.1890 C   0  0  0  0  0  0  0  0  0  0  0  0
   41.5990   23.5800   36.0210 C   0  0  0  0  0  0  0  0  0  0  0  0
   40.8270   22.6620   36.7430 C   0  0  0  0  0  0  0  0  0  0  0  0
   41.4060   21.4720   37.1900 C   0  0  0  0  0  0  0  0  0  0  0  0
   42.7120   21.2690   36.8940 N   0  0  0  0  0  0  0  0  0  0  0  0
   43.4590   22.1510   36.1990 C   0  0  0  0  0  0  0  0  0  0  0  0
   42.8930   23.3190   35.7580 N   0  0  0  0  0  0  0  0  0  0  0  0
   38.9249   22.1051   36.5831 H   0  0  0  0  0  0  0  0  0  0  0  0
   38.9673   22.2660   39.0080 H   0  0  0  0  0  0  0  0  0  0  0  0
   40.0309   23.6804   38.9919 H   0  0  0  0  0  0  0  0  0  0  0  0
   37.1415   23.6082   39.1203 H   0  0  0  0  0  0  0  0  0  0  0  0
   38.1708   25.0493   39.0958 H   0  0  0  0  0  0  0  0  0  0  0  0
   36.8111   23.6085   36.7900 H   0  0  0  0  0  0  0  0  0  0  0  0
   37.0279   25.3225   36.9753 H   0  0  0  0  0  0  0  0  0  0  0  0
   39.5996   25.0587   36.4821 H   0  0  0  0  0  0  0  0  0  0  0  0
   37.8358   21.8720   35.2208 H   0  0  0  0  0  0  0  0  0  0  0  0
   40.2941   26.6342   32.4092 H   0  0  0  0  0  0  0  0  0  0  0  0
   40.2733   25.6785   30.8424 H   0  0  0  0  0  0  0  0  0  0  0  0
   39.7308   28.5131   31.3788 H   0  0  0  0  0  0  0  0  0  0  0  0
   40.4482   27.6199   29.9368 H   0  0  0  0  0  0  0  0  0  0  0  0
   38.3155   28.8427   29.4894 H   0  0  0  0  0  0  0  0  0  0  0  0
   38.3279   27.1010   29.0864 H   0  0  0  0  0  0  0  0  0  0  0  0
   37.3292   28.2040   31.7752 H   0  0  0  0  0  0  0  0  0  0  0  0
   36.2436   27.9111   30.4112 H   0  0  0  0  0  0  0  0  0  0  0  0
   36.3880   25.8831   31.8659 H   0  0  0  0  0  0  0  0  0  0  0  0
   37.1143   25.5349   30.2662 H   0  0  0  0  0  0  0  0  0  0  0  0
   41.1464   24.5181   35.6673 H   0  0  0  0  0  0  0  0  0  0  0  0
   40.8255   20.7307   37.7587 H   0  0  0  0  0  0  0  0  0  0  0  0
   44.5165   21.9343   35.9872 H   0  0  0  0  0  0  0  0  0  0  0  0
  1  2  1  0
  2  3  1  0
  4  3  1  0
  5  1  1  0
  5  4  1  0
  6  5  1  0
  7  6  2  0
  8  9  1  0
  8  7  1  0
  9 10  2  0
 10  6  1  0
 11  9  1  0
 12 11  1  0
 13 12  1  0
 14 13  1  0
 14 15  1  0
 15 16  1  0
 16 11  1  0
 17 18  2  0
 18  1  1  0
 18 19  1  0
 20 19  2  0
 21 20  1  0
 22 17  1  0
 22 21  2  0
  1 23  1  6
  2 24  1  0
  2 25  1  0
  3 26  1  0
  3 27  1  0
  4 28  1  0
  4 29  1  0
  5 30  1  6
  7 31  1  0
 12 32  1  0
 12 33  1  0
 13 34  1  0
 13 35  1  0
 14 36  1  0
 14 37  1  0
 15 38  1  0
 15 39  1  0
 16 40  1  0
 16 41  1  0
 17 42  1  0
 19 43  1  0
 21 44  1  0
M  ISO  8  23  13  24  13  25  13  26  13  27  13  28  13  29  13  30  13
M  ISO  8  31  14  32  13  33  13  34  13  35  13  36  13  37  13  38  13
M  ISO  6  39  13  40  13  41  13  42  14  43  14  44  14
M  END
>  <minimizedAffinity>  (1) 
-5.43496084

>  <minimizedRMSD>  (1) 
1.32231605

$$$$
