
     RDKit          3D

 30 32  0  0  0  0  0  0  0  0999 V2000
   43.6670   21.3240   34.7140 C   0  0  0  0  0  0  0  0  0  0  0  0
   44.3090   22.5610   34.9990 C   0  0  0  0  0  0  0  0  0  0  0  0
   46.0490   22.0020   35.4980 S   0  0  0  0  0  0  0  0  0  0  0  0
   45.5320   20.2250   35.2160 C   0  0  0  0  0  0  0  0  0  0  0  0
   44.4790   20.3350   34.8980 N   0  0  0  0  0  0  0  0  0  0  0  0
   46.4860   19.1120   35.4340 C   0  0  0  0  0  0  0  0  0  0  0  0
   47.1400   18.4800   34.3970 C   0  0  0  0  0  0  0  0  0  0  0  0
   48.0100   17.4520   34.6970 C   0  0  0  0  0  0  0  0  0  0  0  0
   48.2410   17.0460   35.9900 C   0  0  0  0  0  0  0  0  0  0  0  0
   47.6050   17.6570   37.0500 C   0  0  0  0  0  0  0  0  0  0  0  0
   46.7440   18.6750   36.7380 C   0  0  0  0  0  0  0  0  0  0  0  0
   41.9640   21.4030   34.1900 S   0  0  0  0  0  0  0  0  0  0  0  0
   40.4720   22.3870   37.7490 C   0  0  0  0  0  0  0  0  0  0  0  0
   39.3040   23.1080   37.4270 C   0  0  0  0  0  0  0  0  0  0  0  0
   38.9970   23.2790   36.0850 C   0  0  0  0  0  0  0  0  0  0  0  0
   39.8290   22.7480   35.1420 N   0  0  0  0  0  0  0  0  0  0  0  0
   40.9450   22.0590   35.4910 C   0  0  0  0  0  0  0  0  0  0  0  0
   41.2410   21.8950   36.7840 N   0  0  0  0  0  0  0  0  0  0  0  0
   38.4030   23.6830   38.4670 C   0  0  0  0  0  0  0  0  0  0  0  0
   39.1710   23.8710   39.6060 F   0  0  0  0  0  0  0  0  0  0  0  0
   37.3490   22.8860   38.7710 F   0  0  0  0  0  0  0  0  0  0  0  0
   38.0100   24.9850   38.1040 F   0  0  0  0  0  0  0  0  0  0  0  0
   43.9000   23.5807   34.9438 H   0  0  0  0  0  0  0  0  0  0  0  0
   46.9718   18.7885   33.3546 H   0  0  0  0  0  0  0  0  0  0  0  0
   48.5350   16.9415   33.8762 H   0  0  0  0  0  0  0  0  0  0  0  0
   48.9435   16.2216   36.1818 H   0  0  0  0  0  0  0  0  0  0  0  0
   47.7798   17.3436   38.0898 H   0  0  0  0  0  0  0  0  0  0  0  0
   46.2226   19.1808   37.5640 H   0  0  0  0  0  0  0  0  0  0  0  0
   40.7474   22.2314   38.8026 H   0  0  0  0  0  0  0  0  0  0  0  0
   38.0961   23.8345   35.7851 H   0  0  0  0  0  0  0  0  0  0  0  0
  1  5  1  0
  1  2  2  0
  2  3  1  0
  4  6  1  0
  4  3  1  0
  5  4  2  0
  6 11  2  0
  7  8  2  0
  7  6  1  0
  8  9  1  0
  9 10  2  0
 11 10  1  0
 12  1  1  0
 12 17  1  0
 14 13  2  0
 14 19  1  0
 15 14  1  0
 16 17  1  0
 16 15  2  0
 17 18  2  0
 18 13  1  0
 19 21  1  0
 19 20  1  0
 22 19  1  0
  2 23  1  0
  7 24  1  0
  8 25  1  0
  9 26  1  0
 10 27  1  0
 11 28  1  0
 13 29  1  0
 15 30  1  0
M  ISO  8  23  14  24  14  25  14  26  14  27  14  28  14  29  14  30  14
M  END
>  <minimizedAffinity>  (1) 
-3.94713831

>  <minimizedRMSD>  (1) 
3.74500418

$$$$
