
     RDKit          3D

 41 44  0  0  1  0  0  0  0  0999 V2000
   39.4900   22.8620   37.0640 C   0  0  1  0  0  0  0  0  0  0  0  0
   39.2490   23.2580   38.5170 C   0  0  0  0  0  0  0  0  0  0  0  0
   38.0000   24.1020   38.4790 C   0  0  0  0  0  0  0  0  0  0  0  0
   37.5870   24.2040   37.0460 C   0  0  0  0  0  0  0  0  0  0  0  0
   38.9140   24.0020   36.3190 C   0  0  2  0  0  0  0  0  0  0  0  0
   38.5520   23.6040   34.9500 C   0  0  0  0  0  0  0  0  0  0  0  0
   37.7830   22.4360   34.7760 C   0  0  0  0  0  0  0  0  0  0  0  0
   37.6090   22.3690   32.9810 S   0  0  0  0  0  0  0  0  0  0  0  0
   38.6230   23.9660   32.7310 C   0  0  0  0  0  0  0  0  0  0  0  0
   38.9240   24.2980   33.9000 N   0  0  0  0  0  0  0  0  0  0  0  0
   38.7750   24.3570   31.3840 N   0  0  0  0  0  0  0  0  0  0  0  0
   38.1280   23.6000   30.3050 C   0  0  0  0  0  0  0  0  0  0  0  0
   39.1290   23.8040   29.1780 C   0  0  0  0  0  0  0  0  0  0  0  0
   39.4490   25.2830   29.3180 C   0  0  0  0  0  0  0  0  0  0  0  0
   39.5070   25.4680   30.8090 C   0  0  0  0  0  0  0  0  0  0  0  0
   41.7050   23.5020   36.1580 C   0  0  0  0  0  0  0  0  0  0  0  0
   40.9220   22.5680   36.8060 C   0  0  0  0  0  0  0  0  0  0  0  0
   41.4890   21.3460   37.2190 C   0  0  0  0  0  0  0  0  0  0  0  0
   42.7920   21.1530   36.9530 N   0  0  0  0  0  0  0  0  0  0  0  0
   43.5570   22.0670   36.3180 C   0  0  0  0  0  0  0  0  0  0  0  0
   43.0010   23.2540   35.9180 N   0  0  0  0  0  0  0  0  0  0  0  0
   39.0175   21.9188   36.7524 H   0  0  0  0  0  0  0  0  0  0  0  0
   39.0961   22.3661   39.1423 H   0  0  0  0  0  0  0  0  0  0  0  0
   40.1043   23.7978   38.9496 H   0  0  0  0  0  0  0  0  0  0  0  0
   37.2034   23.6252   39.0690 H   0  0  0  0  0  0  0  0  0  0  0  0
   38.1854   25.0983   38.9067 H   0  0  0  0  0  0  0  0  0  0  0  0
   36.8629   23.4193   36.7818 H   0  0  0  0  0  0  0  0  0  0  0  0
   37.0831   25.1492   36.7955 H   0  0  0  0  0  0  0  0  0  0  0  0
   39.5997   24.8609   36.2724 H   0  0  0  0  0  0  0  0  0  0  0  0
   37.3908   21.7448   35.5365 H   0  0  0  0  0  0  0  0  0  0  0  0
   38.0205   22.5364   30.5641 H   0  0  0  0  0  0  0  0  0  0  0  0
   37.1036   23.9247   30.0701 H   0  0  0  0  0  0  0  0  0  0  0  0
   38.6814   23.5811   28.1982 H   0  0  0  0  0  0  0  0  0  0  0  0
   40.0099   23.1478   29.2374 H   0  0  0  0  0  0  0  0  0  0  0  0
   40.4144   25.5261   28.8501 H   0  0  0  0  0  0  0  0  0  0  0  0
   38.7151   25.9373   28.8248 H   0  0  0  0  0  0  0  0  0  0  0  0
   40.5513   25.4559   31.1542 H   0  0  0  0  0  0  0  0  0  0  0  0
   39.0724   26.4326   31.1100 H   0  0  0  0  0  0  0  0  0  0  0  0
   41.2629   24.4565   35.8362 H   0  0  0  0  0  0  0  0  0  0  0  0
   40.8904   20.5823   37.7372 H   0  0  0  0  0  0  0  0  0  0  0  0
   44.6196   21.8600   36.1231 H   0  0  0  0  0  0  0  0  0  0  0  0
  1  2  1  0
  3  2  1  0
  4  3  1  0
  5  4  1  0
  5  1  1  0
  6  5  1  0
  7  6  2  0
  8  7  1  0
  9  8  1  0
  9 10  2  0
 10  6  1  0
 11  9  1  0
 12 11  1  0
 13 14  1  0
 13 12  1  0
 14 15  1  0
 15 11  1  0
 16 17  2  0
 17  1  1  0
 17 18  1  0
 19 18  2  0
 20 19  1  0
 21 16  1  0
 21 20  2  0
  1 22  1  6
  2 23  1  0
  2 24  1  0
  3 25  1  0
  3 26  1  0
  4 27  1  0
  4 28  1  0
  5 29  1  6
  7 30  1  0
 12 31  1  0
 12 32  1  0
 13 33  1  0
 13 34  1  0
 14 35  1  0
 14 36  1  0
 15 37  1  0
 15 38  1  0
 16 39  1  0
 18 40  1  0
 20 41  1  0
M  ISO  8  22  13  23  13  24  13  25  13  26  13  27  13  28  13  29  13
M  ISO  8  30  14  31  13  32  13  33  13  34  13  35  13  36  13  37  13
M  ISO  4  38  13  39  14  40  14  41  14
M  END
>  <minimizedAffinity>  (1) 
-5.12751007

>  <minimizedRMSD>  (1) 
0.719104767

$$$$
