
     RDKit          3D

 35 38  0  0  1  0  0  0  0  0999 V2000
   39.4500   22.8120   37.2160 C   0  0  1  0  0  0  0  0  0  0  0  0
   39.2710   23.4170   38.6050 C   0  0  0  0  0  0  0  0  0  0  0  0
   37.9780   24.1770   38.5390 C   0  0  0  0  0  0  0  0  0  0  0  0
   37.4800   24.0570   37.1290 C   0  0  0  0  0  0  0  0  0  0  0  0
   38.7790   23.8070   36.3630 C   0  0  2  0  0  0  0  0  0  0  0  0
   38.3700   23.2240   35.0830 C   0  0  0  0  0  0  0  0  0  0  0  0
   37.5990   22.0520   35.1040 C   0  0  0  0  0  0  0  0  0  0  0  0
   37.3480   21.7350   33.3420 S   0  0  0  0  0  0  0  0  0  0  0  0
   38.3460   23.2690   32.8270 C   0  0  0  0  0  0  0  0  0  0  0  0
   38.6990   23.7630   33.9320 N   0  0  0  0  0  0  0  0  0  0  0  0
   38.6410   23.7650   31.5040 N   0  0  0  0  0  0  0  0  0  0  0  0
   38.5200   23.1060   30.3360 C   0  0  0  0  0  0  0  0  0  0  0  0
   38.8900   23.8910   29.3100 N   0  0  0  0  0  0  0  0  0  0  0  0
   39.2490   25.0670   29.8550 C   0  0  0  0  0  0  0  0  0  0  0  0
   39.0970   24.9830   31.1830 N   0  0  0  0  0  0  0  0  0  0  0  0
   41.6270   23.5000   36.2420 C   0  0  0  0  0  0  0  0  0  0  0  0
   40.8710   22.5310   36.9200 C   0  0  0  0  0  0  0  0  0  0  0  0
   41.4570   21.3130   37.3160 C   0  0  0  0  0  0  0  0  0  0  0  0
   42.7640   21.1470   37.0060 N   0  0  0  0  0  0  0  0  0  0  0  0
   43.4980   22.0840   36.3500 C   0  0  0  0  0  0  0  0  0  0  0  0
   42.9240   23.2690   35.9650 N   0  0  0  0  0  0  0  0  0  0  0  0
   39.0111   21.8143   37.0679 H   0  0  0  0  0  0  0  0  0  0  0  0
   39.2147   22.6251   39.3664 H   0  0  0  0  0  0  0  0  0  0  0  0
   40.1152   24.0649   38.8834 H   0  0  0  0  0  0  0  0  0  0  0  0
   37.2472   23.7435   39.2375 H   0  0  0  0  0  0  0  0  0  0  0  0
   38.1232   25.2307   38.8194 H   0  0  0  0  0  0  0  0  0  0  0  0
   36.7817   23.2140   37.0205 H   0  0  0  0  0  0  0  0  0  0  0  0
   36.9158   24.9337   36.7781 H   0  0  0  0  0  0  0  0  0  0  0  0
   39.4225   24.6770   36.1655 H   0  0  0  0  0  0  0  0  0  0  0  0
   37.2400   21.4751   35.9691 H   0  0  0  0  0  0  0  0  0  0  0  0
   38.1672   22.0689   30.2356 H   0  0  0  0  0  0  0  0  0  0  0  0
   39.6069   25.9488   29.3033 H   0  0  0  0  0  0  0  0  0  0  0  0
   41.1598   24.4480   35.9370 H   0  0  0  0  0  0  0  0  0  0  0  0
   40.8840   20.5392   37.8479 H   0  0  0  0  0  0  0  0  0  0  0  0
   44.5577   21.8912   36.1266 H   0  0  0  0  0  0  0  0  0  0  0  0
  1  2  1  0
  3  2  1  0
  4  3  1  0
  5  4  1  0
  5  1  1  0
  6  7  2  0
  6  5  1  0
  8  7  1  0
  9  8  1  0
  9 10  2  0
 10  6  1  0
 11  9  1  0
 12 11  1  0
 13 14  1  0
 13 12  2  0
 14 15  2  0
 15 11  1  0
 16 17  2  0
 17  1  1  0
 17 18  1  0
 19 18  2  0
 20 19  1  0
 21 16  1  0
 21 20  2  0
  1 22  1  1
  2 23  1  0
  2 24  1  0
  3 25  1  0
  3 26  1  0
  4 27  1  0
  4 28  1  0
  5 29  1  6
  7 30  1  0
 12 31  1  0
 14 32  1  0
 16 33  1  0
 18 34  1  0
 20 35  1  0
M  ISO  8  22  13  23  13  24  13  25  13  26  13  27  13  28  13  29  13
M  ISO  6  30  14  31  14  32  14  33  14  34  14  35  14
M  END
>  <minimizedAffinity>  (1) 
-5.08752632

>  <minimizedRMSD>  (1) 
0.348571837

$$$$
