
     RDKit          3D

 36 39  0  0  1  0  0  0  0  0999 V2000
   39.4250   22.9900   36.9540 C   0  0  1  0  0  0  0  0  0  0  0  0
   39.1400   23.1970   38.4390 C   0  0  0  0  0  0  0  0  0  0  0  0
   37.9410   24.1020   38.4950 C   0  0  0  0  0  0  0  0  0  0  0  0
   37.5570   24.3750   37.0770 C   0  0  0  0  0  0  0  0  0  0  0  0
   38.9170   24.2500   36.3730 C   0  0  2  0  0  0  0  0  0  0  0  0
   41.6310   23.5870   36.0060 C   0  0  0  0  0  0  0  0  0  0  0  0
   40.8430   22.6640   36.7090 C   0  0  0  0  0  0  0  0  0  0  0  0
   41.3980   21.4650   37.1700 C   0  0  0  0  0  0  0  0  0  0  0  0
   42.7050   21.2570   36.9050 N   0  0  0  0  0  0  0  0  0  0  0  0
   43.4780   22.1510   36.2220 C   0  0  0  0  0  0  0  0  0  0  0  0
   42.9310   23.3260   35.7700 N   0  0  0  0  0  0  0  0  0  0  0  0
   38.5990   24.0790   34.9470 C   0  0  0  0  0  0  0  0  0  0  0  0
   38.0280   22.8640   34.5300 C   0  0  0  0  0  0  0  0  0  0  0  0
   37.8320   23.1650   32.7500 S   0  0  0  0  0  0  0  0  0  0  0  0
   38.5570   24.9000   32.8540 C   0  0  0  0  0  0  0  0  0  0  0  0
   38.8320   25.0350   34.0740 N   0  0  0  0  0  0  0  0  0  0  0  0
   38.6420   25.6530   31.6150 C   0  0  0  0  0  0  0  0  0  0  0  0
   38.7170   27.0140   31.4140 C   0  0  0  0  0  0  0  0  0  0  0  0
   38.7780   27.1370   30.0210 C   0  0  0  0  0  0  0  0  0  0  0  0
   38.7400   25.9020   29.4440 N   0  0  0  0  0  0  0  0  0  0  0  0
   38.6570   25.0100   30.4370 N   0  0  0  0  0  0  0  0  0  0  0  0
   38.9380   22.1218   36.4859 H   0  0  0  0  0  0  0  0  0  0  0  0
   38.9192   22.2356   38.9258 H   0  0  0  0  0  0  0  0  0  0  0  0
   40.0039   23.6308   38.9639 H   0  0  0  0  0  0  0  0  0  0  0  0
   37.1142   23.6068   39.0252 H   0  0  0  0  0  0  0  0  0  0  0  0
   38.1671   25.0333   39.0350 H   0  0  0  0  0  0  0  0  0  0  0  0
   36.8390   23.6304   36.7029 H   0  0  0  0  0  0  0  0  0  0  0  0
   37.0545   25.3412   36.9223 H   0  0  0  0  0  0  0  0  0  0  0  0
   39.6274   25.0825   36.4837 H   0  0  0  0  0  0  0  0  0  0  0  0
   41.1861   24.5266   35.6464 H   0  0  0  0  0  0  0  0  0  0  0  0
   40.7976   20.7270   37.7222 H   0  0  0  0  0  0  0  0  0  0  0  0
   44.5390   21.9299   36.0339 H   0  0  0  0  0  0  0  0  0  0  0  0
   37.7700   21.9730   35.1213 H   0  0  0  0  0  0  0  0  0  0  0  0
   38.7266   27.8140   32.1690 H   0  0  0  0  0  0  0  0  0  0  0  0
   38.8464   28.0884   29.4732 H   0  0  0  0  0  0  0  0  0  0  0  0
   38.7696   25.6955   28.4354 H   0  0  0  0  0  0  0  0  0  0  0  0
  1  2  1  0
  2  3  1  0
  4  3  1  0
  5  1  1  0
  5  4  1  0
  6  7  2  0
  7  1  1  0
  7  8  1  0
  9  8  2  0
 10  9  1  0
 11  6  1  0
 11 10  2  0
 12  5  1  0
 13 12  2  0
 14 15  1  0
 14 13  1  0
 15 16  2  0
 16 12  1  0
 17 15  1  0
 18 17  1  0
 19 18  2  0
 20 19  1  0
 20 21  1  0
 21 17  2  0
  1 22  1  6
  2 23  1  0
  2 24  1  0
  3 25  1  0
  3 26  1  0
  4 27  1  0
  4 28  1  0
  5 29  1  6
  6 30  1  0
  8 31  1  0
 10 32  1  0
 13 33  1  0
 18 34  1  0
 19 35  1  0
 20 36  1  0
M  ISO  8  22  13  23  13  24  13  25  13  26  13  27  13  28  13  29  13
M  ISO  7  30  14  31  14  32  14  33  14  34  14  35  14  36   9
M  END
>  <minimizedAffinity>  (1) 
-5.06096697

>  <minimizedRMSD>  (1) 
1.43936574

$$$$
