
     RDKit          3D

 38 40  0  0  1  0  0  0  0  0999 V2000
   39.3680   22.8920   37.1190 C   0  0  1  0  0  0  0  0  0  0  0  0
   39.2510   23.4460   38.5340 C   0  0  0  0  0  0  0  0  0  0  0  0
   37.9820   24.2490   38.5420 C   0  0  0  0  0  0  0  0  0  0  0  0
   37.4000   24.1380   37.1670 C   0  0  0  0  0  0  0  0  0  0  0  0
   38.6650   23.9220   36.3300 C   0  0  2  0  0  0  0  0  0  0  0  0
   41.4460   23.5280   35.9250 C   0  0  0  0  0  0  0  0  0  0  0  0
   40.7720   22.6160   36.7520 C   0  0  0  0  0  0  0  0  0  0  0  0
   41.4310   21.4710   37.2230 C   0  0  0  0  0  0  0  0  0  0  0  0
   42.7170   21.3060   36.8410 N   0  0  0  0  0  0  0  0  0  0  0  0
   43.3700   22.1950   36.0370 C   0  0  0  0  0  0  0  0  0  0  0  0
   42.7280   23.3170   35.5750 N   0  0  0  0  0  0  0  0  0  0  0  0
   38.1960   23.3810   35.0530 C   0  0  0  0  0  0  0  0  0  0  0  0
   37.9350   22.0060   34.9660 C   0  0  0  0  0  0  0  0  0  0  0  0
   37.3940   21.8230   33.2550 S   0  0  0  0  0  0  0  0  0  0  0  0
   37.6020   23.6760   32.8950 C   0  0  0  0  0  0  0  0  0  0  0  0
   38.0090   24.1400   33.9940 N   0  0  0  0  0  0  0  0  0  0  0  0
   37.3450   24.4040   31.6160 C   0  0  0  0  0  0  0  0  0  0  0  0
   38.0090   23.7500   30.4460 C   0  0  0  0  0  0  0  0  0  0  0  0
   35.8340   24.4630   31.4590 C   0  0  0  0  0  0  0  0  0  0  0  0
   38.9182   21.9017   36.9545 H   0  0  0  0  0  0  0  0  0  0  0  0
   39.1927   22.6262   39.2651 H   0  0  0  0  0  0  0  0  0  0  0  0
   40.1240   24.0563   38.8088 H   0  0  0  0  0  0  0  0  0  0  0  0
   37.2802   23.8433   39.2856 H   0  0  0  0  0  0  0  0  0  0  0  0
   38.1770   25.2984   38.8079 H   0  0  0  0  0  0  0  0  0  0  0  0
   36.7122   23.2833   37.0874 H   0  0  0  0  0  0  0  0  0  0  0  0
   36.7955   25.0040   36.8595 H   0  0  0  0  0  0  0  0  0  0  0  0
   39.2988   24.7990   36.1324 H   0  0  0  0  0  0  0  0  0  0  0  0
   40.9215   24.4233   35.5597 H   0  0  0  0  0  0  0  0  0  0  0  0
   40.9251   20.7416   37.8727 H   0  0  0  0  0  0  0  0  0  0  0  0
   44.4178   22.0111   35.7574 H   0  0  0  0  0  0  0  0  0  0  0  0
   38.0348   21.2346   35.7438 H   0  0  0  0  0  0  0  0  0  0  0  0
   37.7765   25.4153   31.6495 H   0  0  0  0  0  0  0  0  0  0  0  0
   38.7497   23.0205   30.8054 H   0  0  0  0  0  0  0  0  0  0  0  0
   37.2526   23.2344   29.8361 H   0  0  0  0  0  0  0  0  0  0  0  0
   38.5130   24.5142   29.8361 H   0  0  0  0  0  0  0  0  0  0  0  0
   35.3626   24.4814   32.4527 H   0  0  0  0  0  0  0  0  0  0  0  0
   35.5581   25.3726   30.9054 H   0  0  0  0  0  0  0  0  0  0  0  0
   35.4880   23.5777   30.9054 H   0  0  0  0  0  0  0  0  0  0  0  0
  1  2  1  0
  2  3  1  0
  4  3  1  0
  5  1  1  0
  5  4  1  0
  6  7  2  0
  7  1  1  0
  7  8  1  0
  9  8  2  0
 10  9  1  0
 11  6  1  0
 11 10  2  0
 12  5  1  0
 13 12  2  0
 14 13  1  0
 15 14  1  0
 15 16  2  0
 16 12  1  0
 17 15  1  0
 18 17  1  0
 19 17  1  0
  1 20  1  1
  2 21  1  0
  2 22  1  0
  3 23  1  0
  3 24  1  0
  4 25  1  0
  4 26  1  0
  5 27  1  6
  6 28  1  0
  8 29  1  0
 10 30  1  0
 13 31  1  0
 17 32  1  0
 18 33  1  0
 18 34  1  0
 18 35  1  0
 19 36  1  0
 19 37  1  0
 19 38  1  0
M  ISO  8  20  13  21  13  22  13  23  13  24  13  25  13  26  13  27  13
M  ISO  8  28  14  29  14  30  14  31  14  32   8  33   8  34   8  35   8
M  ISO  3  36   8  37   8  38   8
M  END
>  <minimizedAffinity>  (1) 
-5.01959229

>  <minimizedRMSD>  (1) 
0.599451959

$$$$
