
     RDKit          3D

 36 39  0  0  1  0  0  0  0  0999 V2000
   39.3790   22.8950   37.2940 C   0  0  1  0  0  0  0  0  0  0  0  0
   39.2850   23.5050   38.6840 C   0  0  0  0  0  0  0  0  0  0  0  0
   38.0180   24.3070   38.6780 C   0  0  0  0  0  0  0  0  0  0  0  0
   37.4560   24.2080   37.3020 C   0  0  0  0  0  0  0  0  0  0  0  0
   38.6990   23.9090   36.4640 C   0  0  2  0  0  0  0  0  0  0  0  0
   41.4920   23.4510   36.1310 C   0  0  0  0  0  0  0  0  0  0  0  0
   40.7700   22.5570   36.9330 C   0  0  0  0  0  0  0  0  0  0  0  0
   41.3670   21.3730   37.3830 C   0  0  0  0  0  0  0  0  0  0  0  0
   42.6460   21.1530   37.0050 N   0  0  0  0  0  0  0  0  0  0  0  0
   43.3490   22.0240   36.2230 C   0  0  0  0  0  0  0  0  0  0  0  0
   42.7640   23.1850   35.7830 N   0  0  0  0  0  0  0  0  0  0  0  0
   38.2010   23.3300   35.2110 C   0  0  0  0  0  0  0  0  0  0  0  0
   37.8900   21.9610   35.1950 C   0  0  0  0  0  0  0  0  0  0  0  0
   37.3460   21.7430   33.4780 S   0  0  0  0  0  0  0  0  0  0  0  0
   37.6260   23.5440   33.0560 C   0  0  0  0  0  0  0  0  0  0  0  0
   38.0500   24.0570   34.1260 N   0  0  0  0  0  0  0  0  0  0  0  0
   37.3220   24.0050   31.6500 C   0  0  0  0  0  0  0  0  0  0  0  0
   35.9980   23.7170   31.0710 C   0  0  0  0  0  0  0  0  0  0  0  0
   36.3440   25.0860   31.6070 C   0  0  0  0  0  0  0  0  0  0  0  0
   38.8990   21.9129   37.1714 H   0  0  0  0  0  0  0  0  0  0  0  0
   39.2381   22.7159   39.4489 H   0  0  0  0  0  0  0  0  0  0  0  0
   40.1623   24.1250   38.9205 H   0  0  0  0  0  0  0  0  0  0  0  0
   37.3058   23.8964   39.4089 H   0  0  0  0  0  0  0  0  0  0  0  0
   38.2112   25.3546   38.9523 H   0  0  0  0  0  0  0  0  0  0  0  0
   36.7210   23.3929   37.2295 H   0  0  0  0  0  0  0  0  0  0  0  0
   36.9146   25.1102   36.9811 H   0  0  0  0  0  0  0  0  0  0  0  0
   39.3592   24.7542   36.2193 H   0  0  0  0  0  0  0  0  0  0  0  0
   41.0143   24.3787   35.7828 H   0  0  0  0  0  0  0  0  0  0  0  0
   40.8212   20.6561   38.0140 H   0  0  0  0  0  0  0  0  0  0  0  0
   44.3881   21.7943   35.9446 H   0  0  0  0  0  0  0  0  0  0  0  0
   37.9579   21.2201   36.0052 H   0  0  0  0  0  0  0  0  0  0  0  0
   38.3394   23.8261   31.2719 H   0  0  0  0  0  0  0  0  0  0  0  0
   35.2855   23.0749   31.6096 H   0  0  0  0  0  0  0  0  0  0  0  0
   35.6275   23.3170   30.1156 H   0  0  0  0  0  0  0  0  0  0  0  0
   36.4846   25.9296   30.9153 H   0  0  0  0  0  0  0  0  0  0  0  0
   35.9023   25.7692   32.3473 H   0  0  0  0  0  0  0  0  0  0  0  0
  1  2  1  0
  3  2  1  0
  4  3  1  0
  5  1  1  0
  5  4  1  0
  6  7  2  0
  7  1  1  0
  7  8  1  0
  9  8  2  0
 10  9  1  0
 11  6  1  0
 11 10  2  0
 12  5  1  0
 13 12  2  0
 14 13  1  0
 15 14  1  0
 15 16  2  0
 16 12  1  0
 17 15  1  0
 18 19  1  0
 18 17  1  0
 19 17  1  0
  1 20  1  1
  2 21  1  0
  2 22  1  0
  3 23  1  0
  3 24  1  0
  4 25  1  0
  4 26  1  0
  5 27  1  6
  6 28  1  0
  8 29  1  0
 10 30  1  0
 13 31  1  0
 17 32  1  0
 18 33  1  0
 18 34  1  0
 19 35  1  0
 19 36  1  0
M  ISO  8  20  13  21  13  22  13  23  13  24  13  25  13  26  13  27  13
M  ISO  8  28  14  29  14  30  14  31  14  32  13  33  13  34  13  35  13
M  ISO  1  36  13
M  END
>  <minimizedAffinity>  (1) 
-5.00067282

>  <minimizedRMSD>  (1) 
0.525649488

$$$$
