
     RDKit          3D

 32 33  0  0  0  0  0  0  0  0999 V2000
   40.4020   22.3830   37.8200 C   0  0  0  0  0  0  0  0  0  0  0  0
   39.4280   23.1170   37.1250 C   0  0  0  0  0  0  0  0  0  0  0  0
   39.7100   23.4820   35.8250 C   0  0  0  0  0  0  0  0  0  0  0  0
   40.9050   23.1210   35.2720 N   0  0  0  0  0  0  0  0  0  0  0  0
   41.8200   22.4090   35.9820 C   0  0  0  0  0  0  0  0  0  0  0  0
   41.5440   22.0610   37.2320 N   0  0  0  0  0  0  0  0  0  0  0  0
   38.1250   23.5060   37.7370 C   0  0  0  0  0  0  0  0  0  0  0  0
   38.3140   23.5400   39.1170 F   0  0  0  0  0  0  0  0  0  0  0  0
   37.1160   22.6540   37.4510 F   0  0  0  0  0  0  0  0  0  0  0  0
   37.8220   24.8570   37.4120 F   0  0  0  0  0  0  0  0  0  0  0  0
   43.3500   21.9880   35.1740 S   0  0  0  0  0  0  0  0  0  0  0  0
   44.6990   22.9310   35.8700 C   0  0  0  0  0  0  0  0  0  0  0  0
   44.3820   24.1760   36.4600 C   0  0  0  0  0  0  0  0  0  0  0  0
   46.0650   24.7900   37.0400 S   0  0  0  0  0  0  0  0  0  0  0  0
   46.8580   23.2150   36.3550 C   0  0  0  0  0  0  0  0  0  0  0  0
   45.9690   22.7020   35.9510 N   0  0  0  0  0  0  0  0  0  0  0  0
   48.3300   22.9300   36.4390 C   0  0  0  0  0  0  0  0  0  0  0  0
   48.8450   22.8780   35.0410 C   0  0  0  0  0  0  0  0  0  0  0  0
   48.4560   21.5570   37.0690 C   0  0  0  0  0  0  0  0  0  0  0  0
   49.0350   23.9710   37.2750 C   0  0  0  0  0  0  0  0  0  0  0  0
   40.2156   22.0735   38.8590 H   0  0  0  0  0  0  0  0  0  0  0  0
   38.9789   24.0586   35.2393 H   0  0  0  0  0  0  0  0  0  0  0  0
   43.4003   24.6630   36.5560 H   0  0  0  0  0  0  0  0  0  0  0  0
   49.9393   22.7675   35.0572 H   0  0  0  0  0  0  0  0  0  0  0  0
   48.3976   22.0205   34.5171 H   0  0  0  0  0  0  0  0  0  0  0  0
   48.5781   23.8077   34.5171 H   0  0  0  0  0  0  0  0  0  0  0  0
   48.4471   21.6541   38.1647 H   0  0  0  0  0  0  0  0  0  0  0  0
   47.6118   20.9282   36.7497 H   0  0  0  0  0  0  0  0  0  0  0  0
   49.4006   21.0924   36.7497 H   0  0  0  0  0  0  0  0  0  0  0  0
   48.8842   23.7483   38.3416 H   0  0  0  0  0  0  0  0  0  0  0  0
   50.1109   23.9579   37.0462 H   0  0  0  0  0  0  0  0  0  0  0  0
   48.6236   24.9652   37.0462 H   0  0  0  0  0  0  0  0  0  0  0  0
  2  7  1  0
  2  1  2  0
  3  2  1  0
  4  3  2  0
  4  5  1  0
  5  6  2  0
  6  1  1  0
  7  8  1  0
  9  7  1  0
 10  7  1  0
 11 12  1  0
 11  5  1  0
 12 16  1  0
 12 13  2  0
 13 14  1  0
 15 17  1  0
 15 14  1  0
 16 15  2  0
 17 19  1  0
 17 20  1  0
 18 17  1  0
  1 21  1  0
  3 22  1  0
 13 23  1  0
 18 24  1  0
 18 25  1  0
 18 26  1  0
 19 27  1  0
 19 28  1  0
 19 29  1  0
 20 30  1  0
 20 31  1  0
 20 32  1  0
M  ISO  8  21  14  22  14  23  14  24   8  25   8  26   8  27   8  28   8
M  ISO  4  29   8  30   8  31   8  32   8
M  END
>  <minimizedAffinity>  (1) 
-3.85434747

>  <minimizedRMSD>  (1) 
2.80178261

$$$$
