
     RDKit          3D

 37 40  0  0  1  0  0  0  0  0999 V2000
   39.4640   22.9570   36.9310 C   0  0  1  0  0  0  0  0  0  0  0  0
   39.1570   23.1720   38.4100 C   0  0  0  0  0  0  0  0  0  0  0  0
   37.9280   24.0350   38.4380 C   0  0  0  0  0  0  0  0  0  0  0  0
   37.5810   24.3200   37.0180 C   0  0  0  0  0  0  0  0  0  0  0  0
   38.9550   24.2080   36.3350 C   0  0  2  0  0  0  0  0  0  0  0  0
   41.6820   23.5630   36.0280 C   0  0  0  0  0  0  0  0  0  0  0  0
   40.8810   22.6340   36.7030 C   0  0  0  0  0  0  0  0  0  0  0  0
   41.4360   21.4310   37.1530 C   0  0  0  0  0  0  0  0  0  0  0  0
   42.7510   21.2290   36.9030 N   0  0  0  0  0  0  0  0  0  0  0  0
   43.5280   22.1330   36.2460 C   0  0  0  0  0  0  0  0  0  0  0  0
   42.9850   23.3140   35.8040 N   0  0  0  0  0  0  0  0  0  0  0  0
   38.6510   24.0240   34.9030 C   0  0  0  0  0  0  0  0  0  0  0  0
   38.0030   22.8460   34.4980 C   0  0  0  0  0  0  0  0  0  0  0  0
   37.8680   23.1110   32.7110 S   0  0  0  0  0  0  0  0  0  0  0  0
   38.7180   24.7920   32.7940 C   0  0  0  0  0  0  0  0  0  0  0  0
   38.9760   24.9400   34.0190 N   0  0  0  0  0  0  0  0  0  0  0  0
   38.8970   25.5280   31.5410 C   0  0  0  0  0  0  0  0  0  0  0  0
   39.5950   25.0080   30.4740 C   0  0  0  0  0  0  0  0  0  0  0  0
   39.6650   25.8490   29.3600 C   0  0  0  0  0  0  0  0  0  0  0  0
   39.0720   27.0400   29.4220 N   0  0  0  0  0  0  0  0  0  0  0  0
   38.4020   27.5090   30.4820 C   0  0  0  0  0  0  0  0  0  0  0  0
   38.3010   26.7300   31.5970 N   0  0  0  0  0  0  0  0  0  0  0  0
   38.9891   22.0818   36.4635 H   0  0  0  0  0  0  0  0  0  0  0  0
   38.9638   22.2100   38.9073 H   0  0  0  0  0  0  0  0  0  0  0  0
   39.9994   23.6405   38.9399 H   0  0  0  0  0  0  0  0  0  0  0  0
   37.1013   23.5036   38.9322 H   0  0  0  0  0  0  0  0  0  0  0  0
   38.1064   24.9643   38.9989 H   0  0  0  0  0  0  0  0  0  0  0  0
   36.8736   23.5771   36.6208 H   0  0  0  0  0  0  0  0  0  0  0  0
   37.0829   25.2888   36.8649 H   0  0  0  0  0  0  0  0  0  0  0  0
   39.6581   25.0462   36.4495 H   0  0  0  0  0  0  0  0  0  0  0  0
   41.2408   24.5074   35.6767 H   0  0  0  0  0  0  0  0  0  0  0  0
   40.8309   20.6829   37.6861 H   0  0  0  0  0  0  0  0  0  0  0  0
   44.5920   21.9172   36.0690 H   0  0  0  0  0  0  0  0  0  0  0  0
   37.6673   21.9913   35.1036 H   0  0  0  0  0  0  0  0  0  0  0  0
   40.0599   24.0113   30.4966 H   0  0  0  0  0  0  0  0  0  0  0  0
   40.1986   25.5340   28.4511 H   0  0  0  0  0  0  0  0  0  0  0  0
   37.9402   28.5070   30.4541 H   0  0  0  0  0  0  0  0  0  0  0  0
  1  2  1  0
  2  3  1  0
  4  3  1  0
  5  1  1  0
  5  4  1  0
  6  7  2  0
  7  1  1  0
  7  8  1  0
  9  8  2  0
 10  9  1  0
 11  6  1  0
 11 10  2  0
 12  5  1  0
 13 12  2  0
 14 15  1  0
 14 13  1  0
 15 16  2  0
 16 12  1  0
 17 22  1  0
 17 15  1  0
 18 17  2  0
 19 20  2  0
 19 18  1  0
 20 21  1  0
 21 22  2  0
  1 23  1  6
  2 24  1  0
  2 25  1  0
  3 26  1  0
  3 27  1  0
  4 28  1  0
  4 29  1  0
  5 30  1  6
  6 31  1  0
  8 32  1  0
 10 33  1  0
 13 34  1  0
 18 35  1  0
 19 36  1  0
 21 37  1  0
M  ISO  8  23  13  24  13  25  13  26  13  27  13  28  13  29  13  30  13
M  ISO  7  31  14  32  14  33  14  34  14  35  14  36  14  37  14
M  END
>  <minimizedAffinity>  (1) 
-4.92506599

>  <minimizedRMSD>  (1) 
1.45442653

$$$$
