
     RDKit          3D

 34 37  0  0  1  0  0  0  0  0999 V2000
   39.4470   22.9030   37.0360 C   0  0  1  0  0  0  0  0  0  0  0  0
   39.2140   23.2620   38.5000 C   0  0  0  0  0  0  0  0  0  0  0  0
   37.9620   24.0910   38.5140 C   0  0  0  0  0  0  0  0  0  0  0  0
   37.5360   24.2380   37.0870 C   0  0  0  0  0  0  0  0  0  0  0  0
   38.8650   24.0710   36.3440 C   0  0  2  0  0  0  0  0  0  0  0  0
   41.6220   23.5310   36.0440 C   0  0  0  0  0  0  0  0  0  0  0  0
   40.8580   22.5990   36.7610 C   0  0  0  0  0  0  0  0  0  0  0  0
   41.4490   21.4100   37.2070 C   0  0  0  0  0  0  0  0  0  0  0  0
   42.7550   21.2240   36.9120 N   0  0  0  0  0  0  0  0  0  0  0  0
   43.4970   22.1290   36.2160 C   0  0  0  0  0  0  0  0  0  0  0  0
   42.9200   23.2940   35.7780 N   0  0  0  0  0  0  0  0  0  0  0  0
   38.4960   23.7390   34.9640 C   0  0  0  0  0  0  0  0  0  0  0  0
   37.9000   22.4940   34.7110 C   0  0  0  0  0  0  0  0  0  0  0  0
   37.6330   22.5530   32.9270 S   0  0  0  0  0  0  0  0  0  0  0  0
   38.3860   24.3000   32.7800 C   0  0  0  0  0  0  0  0  0  0  0  0
   38.7040   24.5740   33.9680 N   0  0  0  0  0  0  0  0  0  0  0  0
   38.5870   25.1910   31.5960 C   0  0  0  0  0  0  0  0  0  0  0  0
   39.2640   24.8420   30.4890 N   0  0  0  0  0  0  0  0  0  0  0  0
   39.2060   25.8930   29.7040 O   0  0  0  0  0  0  0  0  0  0  0  0
   38.5380   26.8590   30.2610 C   0  0  0  0  0  0  0  0  0  0  0  0
   38.1090   26.4660   31.4920 N   0  0  0  0  0  0  0  0  0  0  0  0
   38.9765   21.9709   36.6899 H   0  0  0  0  0  0  0  0  0  0  0  0
   39.0793   22.3516   39.1026 H   0  0  0  0  0  0  0  0  0  0  0  0
   40.0689   23.8056   38.9285 H   0  0  0  0  0  0  0  0  0  0  0  0
   37.1771   23.5847   39.0950 H   0  0  0  0  0  0  0  0  0  0  0  0
   38.1384   25.0715   38.9803 H   0  0  0  0  0  0  0  0  0  0  0  0
   36.8166   23.4565   36.8013 H   0  0  0  0  0  0  0  0  0  0  0  0
   37.0213   25.1859   36.8713 H   0  0  0  0  0  0  0  0  0  0  0  0
   39.5514   24.9305   36.3321 H   0  0  0  0  0  0  0  0  0  0  0  0
   41.1561   24.4646   35.6957 H   0  0  0  0  0  0  0  0  0  0  0  0
   40.8756   20.6606   37.7724 H   0  0  0  0  0  0  0  0  0  0  0  0
   44.5574   21.9263   36.0053 H   0  0  0  0  0  0  0  0  0  0  0  0
   37.6575   21.6880   35.4192 H   0  0  0  0  0  0  0  0  0  0  0  0
   38.3484   27.8430   29.8074 H   0  0  0  0  0  0  0  0  0  0  0  0
  1  2  1  0
  2  3  1  0
  4  3  1  0
  5  1  1  0
  5  4  1  0
  6  7  2  0
  7  1  1  0
  7  8  1  0
  9  8  2  0
 10  9  1  0
 11  6  1  0
 11 10  2  0
 12  5  1  0
 13 12  2  0
 14 13  1  0
 15 14  1  0
 15 16  2  0
 16 12  1  0
 17 15  1  0
 18 17  2  0
 19 20  1  0
 19 18  1  0
 20 21  2  0
 21 17  1  0
  1 22  1  6
  2 23  1  0
  2 24  1  0
  3 25  1  0
  3 26  1  0
  4 27  1  0
  4 28  1  0
  5 29  1  6
  6 30  1  0
  8 31  1  0
 10 32  1  0
 13 33  1  0
 20 34  1  0
M  ISO  8  22  13  23  13  24  13  25  13  26  13  27  13  28  13  29  13
M  ISO  5  30  14  31  14  32  14  33  14  34  14
M  END
>  <minimizedAffinity>  (1) 
-4.8717618

>  <minimizedRMSD>  (1) 
0.8430897

$$$$
