
     RDKit          3D

 35 38  0  0  1  0  0  0  0  0999 V2000
   39.4680   22.9760   36.9270 C   0  0  1  0  0  0  0  0  0  0  0  0
   39.1470   23.1680   38.4030 C   0  0  0  0  0  0  0  0  0  0  0  0
   37.9530   24.0800   38.4450 C   0  0  0  0  0  0  0  0  0  0  0  0
   37.6060   24.3750   37.0210 C   0  0  0  0  0  0  0  0  0  0  0  0
   38.9750   24.2380   36.3390 C   0  0  2  0  0  0  0  0  0  0  0  0
   41.6970   23.5770   36.0440 C   0  0  0  0  0  0  0  0  0  0  0  0
   40.8860   22.6440   36.7060 C   0  0  0  0  0  0  0  0  0  0  0  0
   41.4250   21.4310   37.1480 C   0  0  0  0  0  0  0  0  0  0  0  0
   42.7370   21.2190   36.9060 N   0  0  0  0  0  0  0  0  0  0  0  0
   43.5310   22.1240   36.2620 C   0  0  0  0  0  0  0  0  0  0  0  0
   42.9990   23.3140   35.8290 N   0  0  0  0  0  0  0  0  0  0  0  0
   38.6840   24.0830   34.9060 C   0  0  0  0  0  0  0  0  0  0  0  0
   38.0170   22.9190   34.4900 C   0  0  0  0  0  0  0  0  0  0  0  0
   37.9060   23.2060   32.6990 S   0  0  0  0  0  0  0  0  0  0  0  0
   38.7860   24.8640   32.8140 C   0  0  0  0  0  0  0  0  0  0  0  0
   39.0350   25.0020   34.0360 N   0  0  0  0  0  0  0  0  0  0  0  0
   38.9930   25.6230   31.5180 C   0  0  0  0  0  0  0  0  0  0  0  0
   39.9260   25.3400   30.6180 C   0  0  0  0  0  0  0  0  0  0  0  0
   39.5610   26.6810   29.3290 S   0  0  0  0  0  0  0  0  0  0  0  0
   38.1400   27.3490   30.3840 C   0  0  0  0  0  0  0  0  0  0  0  0
   38.1530   26.6170   31.3440 N   0  0  0  0  0  0  0  0  0  0  0  0
   38.9892   22.1111   36.4446 H   0  0  0  0  0  0  0  0  0  0  0  0
   38.9084   22.2022   38.8723 H   0  0  0  0  0  0  0  0  0  0  0  0
   40.0008   23.5918   38.9521 H   0  0  0  0  0  0  0  0  0  0  0  0
   37.1105   23.5829   38.9481 H   0  0  0  0  0  0  0  0  0  0  0  0
   38.1709   25.0016   39.0046 H   0  0  0  0  0  0  0  0  0  0  0  0
   36.8842   23.6461   36.6238 H   0  0  0  0  0  0  0  0  0  0  0  0
   37.1246   25.3524   36.8694 H   0  0  0  0  0  0  0  0  0  0  0  0
   39.6913   25.0633   36.4644 H   0  0  0  0  0  0  0  0  0  0  0  0
   41.2666   24.5286   35.6987 H   0  0  0  0  0  0  0  0  0  0  0  0
   40.8084   20.6838   37.6690 H   0  0  0  0  0  0  0  0  0  0  0  0
   44.5943   21.9006   36.0903 H   0  0  0  0  0  0  0  0  0  0  0  0
   37.6594   22.0663   35.0858 H   0  0  0  0  0  0  0  0  0  0  0  0
   40.6930   24.5515   30.6195 H   0  0  0  0  0  0  0  0  0  0  0  0
   37.4684   28.1947   30.1747 H   0  0  0  0  0  0  0  0  0  0  0  0
  1  2  1  0
  2  3  1  0
  4  3  1  0
  5  1  1  0
  5  4  1  0
  6  7  2  0
  7  1  1  0
  7  8  1  0
  9  8  2  0
 10  9  1  0
 11  6  1  0
 11 10  2  0
 12  5  1  0
 13 12  2  0
 14 15  1  0
 14 13  1  0
 15 16  2  0
 16 12  1  0
 17 15  1  0
 18 17  2  0
 19 20  1  0
 19 18  1  0
 20 21  2  0
 21 17  1  0
  1 22  1  6
  2 23  1  0
  2 24  1  0
  3 25  1  0
  3 26  1  0
  4 27  1  0
  4 28  1  0
  5 29  1  6
  6 30  1  0
  8 31  1  0
 10 32  1  0
 13 33  1  0
 18 34  1  0
 20 35  1  0
M  ISO  8  22  13  23  13  24  13  25  13  26  13  27  13  28  13  29  13
M  ISO  6  30  14  31  14  32  14  33  14  34  14  35  14
M  END
>  <minimizedAffinity>  (1) 
-4.76080704

>  <minimizedRMSD>  (1) 
1.49055243

$$$$
