
     RDKit          3D

 30 32  0  0  1  0  0  0  0  0999 V2000
   39.4060   22.8370   37.1820 C   0  0  1  0  0  0  0  0  0  0  0  0
   39.2530   23.4310   38.5790 C   0  0  0  0  0  0  0  0  0  0  0  0
   37.9830   24.2330   38.5400 C   0  0  0  0  0  0  0  0  0  0  0  0
   37.4180   24.0620   37.1590 C   0  0  0  0  0  0  0  0  0  0  0  0
   38.6970   23.8280   36.3510 C   0  0  2  0  0  0  0  0  0  0  0  0
   41.5240   23.5170   36.1070 C   0  0  0  0  0  0  0  0  0  0  0  0
   40.8130   22.5640   36.8510 C   0  0  0  0  0  0  0  0  0  0  0  0
   41.4470   21.3880   37.2660 C   0  0  0  0  0  0  0  0  0  0  0  0
   42.7440   21.2340   36.9190 N   0  0  0  0  0  0  0  0  0  0  0  0
   43.4370   22.1550   36.1980 C   0  0  0  0  0  0  0  0  0  0  0  0
   42.8160   23.3090   35.7880 N   0  0  0  0  0  0  0  0  0  0  0  0
   38.2560   23.2420   35.0850 C   0  0  0  0  0  0  0  0  0  0  0  0
   37.6720   21.9670   35.1080 C   0  0  0  0  0  0  0  0  0  0  0  0
   37.2960   21.6710   33.3720 S   0  0  0  0  0  0  0  0  0  0  0  0
   38.0000   23.3570   32.8460 C   0  0  0  0  0  0  0  0  0  0  0  0
   38.3840   23.8660   33.9340 N   0  0  0  0  0  0  0  0  0  0  0  0
   38.0950   24.0630   31.1880 S   0  0  0  0  0  0  0  0  0  0  0  0
   38.9763   21.8349   37.0365 H   0  0  0  0  0  0  0  0  0  0  0  0
   39.1791   22.6311   39.3304 H   0  0  0  0  0  0  0  0  0  0  0  0
   40.1183   24.0519   38.8544 H   0  0  0  0  0  0  0  0  0  0  0  0
   37.2725   23.8578   39.2912 H   0  0  0  0  0  0  0  0  0  0  0  0
   38.1726   25.2928   38.7657 H   0  0  0  0  0  0  0  0  0  0  0  0
   36.7404   23.1973   37.1033 H   0  0  0  0  0  0  0  0  0  0  0  0
   36.8075   24.9076   36.8094 H   0  0  0  0  0  0  0  0  0  0  0  0
   39.3235   24.7060   36.1353 H   0  0  0  0  0  0  0  0  0  0  0  0
   41.0230   24.4407   35.7818 H   0  0  0  0  0  0  0  0  0  0  0  0
   40.9135   20.6227   37.8488 H   0  0  0  0  0  0  0  0  0  0  0  0
   44.4922   21.9762   35.9438 H   0  0  0  0  0  0  0  0  0  0  0  0
   37.4891   21.3109   35.9718 H   0  0  0  0  0  0  0  0  0  0  0  0
   38.2773   25.4178   31.2783 H   0  0  0  0  0  0  0  0  0  0  0  0
  1  2  1  0
  3  2  1  0
  4  3  1  0
  5  4  1  0
  5  1  1  0
  6  7  2  0
  7  1  1  0
  7  8  1  0
  9  8  2  0
 10  9  1  0
 11  6  1  0
 11 10  2  0
 12 13  2  0
 12  5  1  0
 14 13  1  0
 15 14  1  0
 15 16  2  0
 16 12  1  0
 17 15  1  0
  1 18  1  1
  2 19  1  0
  2 20  1  0
  3 21  1  0
  3 22  1  0
  4 23  1  0
  4 24  1  0
  5 25  1  6
  6 26  1  0
  8 27  1  0
 10 28  1  0
 13 29  1  0
 17 30  1  0
M  ISO  8  18  13  19  13  20  13  21  13  22  13  23  13  24  13  25  13
M  ISO  5  26  14  27  14  28  14  29  14  30  11
M  END
>  <minimizedAffinity>  (1) 
-4.5654788

>  <minimizedRMSD>  (1) 
0.0742807314

$$$$
