
     RDKit          3D

 39 42  0  0  1  0  0  0  0  0999 V2000
   39.5460   23.0200   36.8530 C   0  0  1  0  0  0  0  0  0  0  0  0
   39.2380   23.2680   38.3410 C   0  0  0  0  0  0  0  0  0  0  0  0
   38.0090   24.1140   38.3320 C   0  0  0  0  0  0  0  0  0  0  0  0
   37.7660   24.5300   36.9290 C   0  0  0  0  0  0  0  0  0  0  0  0
   39.1150   24.2590   36.2700 C   0  0  2  0  0  0  0  0  0  0  0  0
   41.8260   23.5100   36.0570 C   0  0  0  0  0  0  0  0  0  0  0  0
   40.9620   22.6210   36.6600 C   0  0  0  0  0  0  0  0  0  0  0  0
   41.3910   21.3510   37.1000 C   0  0  0  0  0  0  0  0  0  0  0  0
   42.6880   21.0540   36.9000 N   0  0  0  0  0  0  0  0  0  0  0  0
   43.5530   21.9270   36.3050 C   0  0  0  0  0  0  0  0  0  0  0  0
   43.1150   23.1640   35.8810 N   0  0  0  0  0  0  0  0  0  0  0  0
   38.8770   24.2110   34.8300 C   0  0  0  0  0  0  0  0  0  0  0  0
   38.0990   23.2150   34.3710 C   0  0  0  0  0  0  0  0  0  0  0  0
   38.1360   23.5590   32.5780 S   0  0  0  0  0  0  0  0  0  0  0  0
   39.2490   25.0740   32.7750 C   0  0  0  0  0  0  0  0  0  0  0  0
   39.4080   25.0850   34.0010 N   0  0  0  0  0  0  0  0  0  0  0  0
   37.1720   22.1560   34.7050 C   0  0  0  0  0  0  0  0  0  0  0  0
   36.4810   21.3480   33.7870 C   0  0  0  0  0  0  0  0  0  0  0  0
   35.6820   20.4290   34.4170 C   0  0  0  0  0  0  0  0  0  0  0  0
   35.9220   20.7190   35.7320 C   0  0  0  0  0  0  0  0  0  0  0  0
   36.7540   21.6840   35.8540 O   0  0  0  0  0  0  0  0  0  0  0  0
   39.7070   25.9450   31.6460 C   0  0  0  0  0  0  0  0  0  0  0  0
   38.7050   26.0080   30.6660 F   0  0  0  0  0  0  0  0  0  0  0  0
   39.8440   27.2600   32.0770 F   0  0  0  0  0  0  0  0  0  0  0  0
   40.8520   25.4820   31.0970 F   0  0  0  0  0  0  0  0  0  0  0  0
   39.0367   22.1728   36.3704 H   0  0  0  0  0  0  0  0  0  0  0  0
   39.0522   22.3179   38.8632 H   0  0  0  0  0  0  0  0  0  0  0  0
   40.0748   23.7514   38.8665 H   0  0  0  0  0  0  0  0  0  0  0  0
   37.1517   23.5353   38.7063 H   0  0  0  0  0  0  0  0  0  0  0  0
   38.1383   24.9930   38.9805 H   0  0  0  0  0  0  0  0  0  0  0  0
   36.9693   23.9280   36.4675 H   0  0  0  0  0  0  0  0  0  0  0  0
   37.4301   25.5729   36.8312 H   0  0  0  0  0  0  0  0  0  0  0  0
   39.8999   25.0138   36.4255 H   0  0  0  0  0  0  0  0  0  0  0  0
   41.4652   24.4938   35.7225 H   0  0  0  0  0  0  0  0  0  0  0  0
   40.7018   20.6413   37.5810 H   0  0  0  0  0  0  0  0  0  0  0  0
   44.6059   21.6418   36.1630 H   0  0  0  0  0  0  0  0  0  0  0  0
   36.5701   21.4413   32.6946 H   0  0  0  0  0  0  0  0  0  0  0  0
   35.0237   19.6630   33.9813 H   0  0  0  0  0  0  0  0  0  0  0  0
   35.4586   20.1898   36.5777 H   0  0  0  0  0  0  0  0  0  0  0  0
  1  2  1  0
  3  2  1  0
  4  3  1  0
  5  1  1  0
  5  4  1  0
  6  7  2  0
  7  1  1  0
  7  8  1  0
  9  8  2  0
 10  9  1  0
 11  6  1  0
 11 10  2  0
 12  5  1  0
 13 17  1  0
 13 12  2  0
 14 15  1  0
 14 13  1  0
 15 16  2  0
 16 12  1  0
 17 21  1  0
 18 19  1  0
 18 17  2  0
 19 20  2  0
 20 21  1  0
 22 24  1  0
 22 15  1  0
 23 22  1  0
 25 22  1  0
  1 26  1  6
  2 27  1  0
  2 28  1  0
  3 29  1  0
  3 30  1  0
  4 31  1  0
  4 32  1  0
  5 33  1  6
  6 34  1  0
  8 35  1  0
 10 36  1  0
 18 37  1  0
 19 38  1  0
 20 39  1  0
M  ISO  8  26  13  27  13  28  13  29  13  30  13  31  13  32  13  33  13
M  ISO  6  34  14  35  14  36  14  37  14  38  14  39  14
M  END
>  <minimizedAffinity>  (1) 
-5.39877033

>  <minimizedRMSD>  (1) 
1.96888733

$$$$
