
     RDKit          3D

 39 42  0  0  1  0  0  0  0  0999 V2000
   39.3380   22.8790   37.1110 C   0  0  1  0  0  0  0  0  0  0  0  0
   39.1880   23.4550   38.5310 C   0  0  0  0  0  0  0  0  0  0  0  0
   37.8780   24.1630   38.5080 C   0  0  0  0  0  0  0  0  0  0  0  0
   37.4490   24.2520   37.0970 C   0  0  0  0  0  0  0  0  0  0  0  0
   38.6920   23.8910   36.3240 C   0  0  2  0  0  0  0  0  0  0  0  0
   41.4750   23.4400   36.0220 C   0  0  0  0  0  0  0  0  0  0  0  0
   40.7320   22.5420   36.8070 C   0  0  0  0  0  0  0  0  0  0  0  0
   41.3160   21.3670   37.2970 C   0  0  0  0  0  0  0  0  0  0  0  0
   42.6110   21.1530   36.9750 N   0  0  0  0  0  0  0  0  0  0  0  0
   43.3460   22.0210   36.2110 C   0  0  0  0  0  0  0  0  0  0  0  0
   42.7670   23.1630   35.7390 N   0  0  0  0  0  0  0  0  0  0  0  0
   38.2900   23.4840   34.9870 C   0  0  0  0  0  0  0  0  0  0  0  0
   37.6030   22.3110   34.8960 C   0  0  0  0  0  0  0  0  0  0  0  0
   37.3530   22.2180   33.1050 S   0  0  0  0  0  0  0  0  0  0  0  0
   38.2530   23.8560   32.7680 C   0  0  0  0  0  0  0  0  0  0  0  0
   38.5710   24.1850   33.9190 N   0  0  0  0  0  0  0  0  0  0  0  0
   38.4320   24.4770   31.4140 C   0  0  0  0  0  0  0  0  0  0  0  0
   37.2960   24.2030   30.6260 F   0  0  0  0  0  0  0  0  0  0  0  0
   38.4440   25.8490   31.5120 F   0  0  0  0  0  0  0  0  0  0  0  0
   39.5240   23.9850   30.7900 F   0  0  0  0  0  0  0  0  0  0  0  0
   37.0560   21.1640   35.5550 C   0  0  0  0  0  0  0  0  0  0  0  0
   35.7460   21.2010   36.3740 C   0  0  0  0  0  0  0  0  0  0  0  0
   35.6450   20.8040   34.9870 C   0  0  0  0  0  0  0  0  0  0  0  0
   38.8732   21.9007   36.9190 H   0  0  0  0  0  0  0  0  0  0  0  0
   39.1814   22.6487   39.2792 H   0  0  0  0  0  0  0  0  0  0  0  0
   40.0198   24.1216   38.8027 H   0  0  0  0  0  0  0  0  0  0  0  0
   37.1356   23.5992   39.0919 H   0  0  0  0  0  0  0  0  0  0  0  0
   37.9706   25.1660   38.9499 H   0  0  0  0  0  0  0  0  0  0  0  0
   36.6364   23.5406   36.8881 H   0  0  0  0  0  0  0  0  0  0  0  0
   37.0547   25.2442   36.8324 H   0  0  0  0  0  0  0  0  0  0  0  0
   39.4083   24.7112   36.1682 H   0  0  0  0  0  0  0  0  0  0  0  0
   41.0088   24.3607   35.6411 H   0  0  0  0  0  0  0  0  0  0  0  0
   40.7488   20.6539   37.9132 H   0  0  0  0  0  0  0  0  0  0  0  0
   44.3980   21.7983   35.9792 H   0  0  0  0  0  0  0  0  0  0  0  0
   38.0458   20.7337   35.7675 H   0  0  0  0  0  0  0  0  0  0  0  0
   35.5801   20.4545   37.1647 H   0  0  0  0  0  0  0  0  0  0  0  0
   35.2509   21.9725   36.9821 H   0  0  0  0  0  0  0  0  0  0  0  0
   35.1617   21.4749   34.2615 H   0  0  0  0  0  0  0  0  0  0  0  0
   35.2267   19.9296   34.4670 H   0  0  0  0  0  0  0  0  0  0  0  0
  1  2  1  0
  3  2  1  0
  4  3  1  0
  5  4  1  0
  5  1  1  0
  6  7  2  0
  7  1  1  0
  7  8  1  0
  9  8  2  0
 10  9  1  0
 11  6  1  0
 11 10  2  0
 12  5  1  0
 13 12  2  0
 13 21  1  0
 14 13  1  0
 15 14  1  0
 15 16  2  0
 16 12  1  0
 17 19  1  0
 17 15  1  0
 18 17  1  0
 20 17  1  0
 21 22  1  0
 23 21  1  0
 23 22  1  0
  1 24  1  1
  2 25  1  0
  2 26  1  0
  3 27  1  0
  3 28  1  0
  4 29  1  0
  4 30  1  0
  5 31  1  6
  6 32  1  0
  8 33  1  0
 10 34  1  0
 21 35  1  0
 22 36  1  0
 22 37  1  0
 23 38  1  0
 23 39  1  0
M  ISO  8  24  13  25  13  26  13  27  13  28  13  29  13  30  13  31  13
M  ISO  8  32  14  33  14  34  14  35  13  36  13  37  13  38  13  39  13
M  END
>  <minimizedAffinity>  (1) 
-5.17442417

>  <minimizedRMSD>  (1) 
0.690513432

$$$$
