
     RDKit          3D

 39 42  0  0  1  0  0  0  0  0999 V2000
   39.4870   22.9760   36.9370 C   0  0  1  0  0  0  0  0  0  0  0  0
   39.2030   23.3310   38.4100 C   0  0  0  0  0  0  0  0  0  0  0  0
   37.9720   24.1700   38.3610 C   0  0  0  0  0  0  0  0  0  0  0  0
   37.7040   24.4830   36.9370 C   0  0  0  0  0  0  0  0  0  0  0  0
   39.0420   24.1680   36.2780 C   0  0  2  0  0  0  0  0  0  0  0  0
   41.7740   23.4410   36.1380 C   0  0  0  0  0  0  0  0  0  0  0  0
   40.9010   22.5660   36.7470 C   0  0  0  0  0  0  0  0  0  0  0  0
   41.3160   21.2980   37.2030 C   0  0  0  0  0  0  0  0  0  0  0  0
   42.6110   20.9880   37.0110 N   0  0  0  0  0  0  0  0  0  0  0  0
   43.4870   21.8460   36.4080 C   0  0  0  0  0  0  0  0  0  0  0  0
   43.0600   23.0830   35.9690 N   0  0  0  0  0  0  0  0  0  0  0  0
   38.7940   24.0400   34.8500 C   0  0  0  0  0  0  0  0  0  0  0  0
   37.9150   23.1030   34.4670 C   0  0  0  0  0  0  0  0  0  0  0  0
   37.9710   23.3060   32.6550 S   0  0  0  0  0  0  0  0  0  0  0  0
   39.2390   24.7100   32.7370 C   0  0  0  0  0  0  0  0  0  0  0  0
   39.4050   24.7920   33.9580 N   0  0  0  0  0  0  0  0  0  0  0  0
   36.9660   22.0960   34.8400 C   0  0  0  0  0  0  0  0  0  0  0  0
   36.5570   21.7980   36.1280 C   0  0  0  0  0  0  0  0  0  0  0  0
   35.7000   20.7230   36.1650 C   0  0  0  0  0  0  0  0  0  0  0  0
   35.5700   20.3460   34.8970 N   0  0  0  0  0  0  0  0  0  0  0  0
   36.2940   21.1400   34.1930 N   0  0  0  0  0  0  0  0  0  0  0  0
   39.7710   25.4400   31.5450 C   0  0  0  0  0  0  0  0  0  0  0  0
   38.9020   25.2690   30.4590 F   0  0  0  0  0  0  0  0  0  0  0  0
   39.7570   26.8100   31.7750 F   0  0  0  0  0  0  0  0  0  0  0  0
   41.0050   25.0050   31.2100 F   0  0  0  0  0  0  0  0  0  0  0  0
   38.9737   22.0947   36.5248 H   0  0  0  0  0  0  0  0  0  0  0  0
   39.0298   22.4208   39.0029 H   0  0  0  0  0  0  0  0  0  0  0  0
   40.0467   23.8535   38.8845 H   0  0  0  0  0  0  0  0  0  0  0  0
   37.1233   23.6175   38.7905 H   0  0  0  0  0  0  0  0  0  0  0  0
   38.1088   25.0939   38.9422 H   0  0  0  0  0  0  0  0  0  0  0  0
   36.9018   23.8476   36.5336 H   0  0  0  0  0  0  0  0  0  0  0  0
   37.3626   25.5152   36.7695 H   0  0  0  0  0  0  0  0  0  0  0  0
   39.8298   24.9298   36.3733 H   0  0  0  0  0  0  0  0  0  0  0  0
   41.4224   24.4244   35.7927 H   0  0  0  0  0  0  0  0  0  0  0  0
   40.6187   20.6000   37.6894 H   0  0  0  0  0  0  0  0  0  0  0  0
   44.5375   21.5495   36.2718 H   0  0  0  0  0  0  0  0  0  0  0  0
   36.8800   22.3563   37.0191 H   0  0  0  0  0  0  0  0  0  0  0  0
   35.2260   20.2736   37.0501 H   0  0  0  0  0  0  0  0  0  0  0  0
   34.9974   19.5653   34.5456 H   0  0  0  0  0  0  0  0  0  0  0  0
  1  2  1  0
  3  2  1  0
  4  3  1  0
  5  1  1  0
  5  4  1  0
  6  7  2  0
  7  1  1  0
  7  8  1  0
  9  8  2  0
 10  9  1  0
 11  6  1  0
 11 10  2  0
 12  5  1  0
 13 17  1  0
 13 12  2  0
 14 15  1  0
 14 13  1  0
 15 16  2  0
 16 12  1  0
 17 18  1  0
 18 19  2  0
 20 19  1  0
 21 17  2  0
 21 20  1  0
 22 24  1  0
 22 15  1  0
 23 22  1  0
 25 22  1  0
  1 26  1  6
  2 27  1  0
  2 28  1  0
  3 29  1  0
  3 30  1  0
  4 31  1  0
  4 32  1  0
  5 33  1  6
  6 34  1  0
  8 35  1  0
 10 36  1  0
 18 37  1  0
 19 38  1  0
 20 39  1  0
M  ISO  8  26  13  27  13  28  13  29  13  30  13  31  13  32  13  33  13
M  ISO  6  34  14  35  14  36  14  37  14  38  14  39   9
M  END
>  <minimizedAffinity>  (1) 
-5.17220354

>  <minimizedRMSD>  (1) 
1.81717026

$$$$
