
     RDKit          3D

 45 48  0  0  1  0  0  0  0  0999 V2000
   38.5750   23.6670   36.0660 C   0  0  1  0  0  0  0  0  0  0  0  0
   37.6410   23.1860   37.1860 C   0  0  0  0  0  0  0  0  0  0  0  0
   38.4940   23.1950   38.4190 C   0  0  0  0  0  0  0  0  0  0  0  0
   39.8890   23.4240   37.9780 C   0  0  0  0  0  0  0  0  0  0  0  0
   39.8350   23.1470   36.4910 C   0  0  2  0  0  0  0  0  0  0  0  0
   37.7530   21.9500   34.5120 C   0  0  0  0  0  0  0  0  0  0  0  0
   38.0680   23.2780   34.7340 C   0  0  0  0  0  0  0  0  0  0  0  0
   37.9000   24.2330   33.7200 C   0  0  0  0  0  0  0  0  0  0  0  0
   37.4280   23.8040   32.5440 N   0  0  0  0  0  0  0  0  0  0  0  0
   37.1140   22.4980   32.3110 C   0  0  0  0  0  0  0  0  0  0  0  0
   37.2800   21.5730   33.3060 N   0  0  0  0  0  0  0  0  0  0  0  0
   41.0100   23.7620   35.8870 C   0  0  0  0  0  0  0  0  0  0  0  0
   42.1910   23.1100   36.0640 C   0  0  0  0  0  0  0  0  0  0  0  0
   43.3130   24.2470   35.2000 S   0  0  0  0  0  0  0  0  0  0  0  0
   41.9290   25.4540   34.7190 C   0  0  0  0  0  0  0  0  0  0  0  0
   40.9430   24.8970   35.2220 N   0  0  0  0  0  0  0  0  0  0  0  0
   42.9160   22.0140   36.5770 C   0  0  0  0  0  0  0  0  0  0  0  0
   43.7380   21.3630   35.4880 C   0  0  0  0  0  0  0  0  0  0  0  0
   44.4010   20.2590   36.2850 C   0  0  0  0  0  0  0  0  0  0  0  0
   43.2150   19.7090   37.0790 C   0  0  0  0  0  0  0  0  0  0  0  0
   42.0860   20.7300   36.9010 C   0  0  0  0  0  0  0  0  0  0  0  0
   42.1230   26.7030   33.9100 C   0  0  0  0  0  0  0  0  0  0  0  0
   42.0570   26.3790   32.5400 F   0  0  0  0  0  0  0  0  0  0  0  0
   41.0590   27.5660   34.0970 F   0  0  0  0  0  0  0  0  0  0  0  0
   43.3130   27.2810   34.1810 F   0  0  0  0  0  0  0  0  0  0  0  0
   38.6547   24.7545   35.9210 H   0  0  0  0  0  0  0  0  0  0  0  0
   36.7867   23.8696   37.2997 H   0  0  0  0  0  0  0  0  0  0  0  0
   37.2178   22.1921   36.9785 H   0  0  0  0  0  0  0  0  0  0  0  0
   38.1738   24.0023   39.0941 H   0  0  0  0  0  0  0  0  0  0  0  0
   38.4056   22.2440   38.9647 H   0  0  0  0  0  0  0  0  0  0  0  0
   40.1990   24.4610   38.1745 H   0  0  0  0  0  0  0  0  0  0  0  0
   40.6167   22.7913   38.5072 H   0  0  0  0  0  0  0  0  0  0  0  0
   39.8792   22.0883   36.1957 H   0  0  0  0  0  0  0  0  0  0  0  0
   37.8870   21.2071   35.3121 H   0  0  0  0  0  0  0  0  0  0  0  0
   38.1465   25.2922   33.8853 H   0  0  0  0  0  0  0  0  0  0  0  0
   36.7290   22.1891   31.3279 H   0  0  0  0  0  0  0  0  0  0  0  0
   43.4100   22.4824   37.4410 H   0  0  0  0  0  0  0  0  0  0  0  0
   44.4758   22.0588   35.0620 H   0  0  0  0  0  0  0  0  0  0  0  0
   43.1634   21.0230   34.6138 H   0  0  0  0  0  0  0  0  0  0  0  0
   44.8353   19.4921   35.6267 H   0  0  0  0  0  0  0  0  0  0  0  0
   45.2427   20.5961   36.9078 H   0  0  0  0  0  0  0  0  0  0  0  0
   42.9109   18.7285   36.6840 H   0  0  0  0  0  0  0  0  0  0  0  0
   43.4686   19.5657   38.1397 H   0  0  0  0  0  0  0  0  0  0  0  0
   41.4962   20.8487   37.8219 H   0  0  0  0  0  0  0  0  0  0  0  0
   41.3392   20.4612   36.1394 H   0  0  0  0  0  0  0  0  0  0  0  0
  1  5  1  0
  1  2  1  0
  2  3  1  0
  4  3  1  0
  5  4  1  0
  6  7  2  0
  7  1  1  0
  8  7  1  0
  9  8  2  0
 10  9  1  0
 10 11  2  0
 11  6  1  0
 12 13  2  0
 12  5  1  0
 13 17  1  0
 14 13  1  0
 15 14  1  0
 15 16  2  0
 16 12  1  0
 17 21  1  0
 18 19  1  0
 18 17  1  0
 19 20  1  0
 21 20  1  0
 22 24  1  0
 22 25  1  0
 22 15  1  0
 23 22  1  0
  1 26  1  6
  2 27  1  0
  2 28  1  0
  3 29  1  0
  3 30  1  0
  4 31  1  0
  4 32  1  0
  5 33  1  1
  6 34  1  0
  8 35  1  0
 10 36  1  0
 17 37  1  0
 18 38  1  0
 18 39  1  0
 19 40  1  0
 19 41  1  0
 20 42  1  0
 20 43  1  0
 21 44  1  0
 21 45  1  0
M  ISO  8  26  13  27  13  28  13  29  13  30  13  31  13  32  13  33  13
M  ISO  8  34  14  35  14  36  14  37  13  38  13  39  13  40  13  41  13
M  ISO  4  42  13  43  13  44  13  45  13
M  END
>  <minimizedAffinity>  (1) 
-5.02245617

>  <minimizedRMSD>  (1) 
5.36252117

$$$$
