
     RDKit          3D

 34 36  0  0  1  0  0  0  0  0999 V2000
   39.3910   22.8870   37.2390 C   0  0  1  0  0  0  0  0  0  0  0  0
   39.2700   23.5440   38.6240 C   0  0  0  0  0  0  0  0  0  0  0  0
   37.9730   24.2960   38.5850 C   0  0  0  0  0  0  0  0  0  0  0  0
   37.4510   24.1760   37.2050 C   0  0  0  0  0  0  0  0  0  0  0  0
   38.7180   23.8480   36.4000 C   0  0  2  0  0  0  0  0  0  0  0  0
   41.5280   23.4510   36.1660 C   0  0  0  0  0  0  0  0  0  0  0  0
   40.7850   22.5410   36.9200 C   0  0  0  0  0  0  0  0  0  0  0  0
   41.3510   21.3390   37.3710 C   0  0  0  0  0  0  0  0  0  0  0  0
   42.6380   21.1110   37.0400 N   0  0  0  0  0  0  0  0  0  0  0  0
   43.3760   22.0030   36.2950 C   0  0  0  0  0  0  0  0  0  0  0  0
   42.8100   23.1860   35.8560 N   0  0  0  0  0  0  0  0  0  0  0  0
   38.2720   23.3180   35.1230 C   0  0  0  0  0  0  0  0  0  0  0  0
   37.5070   22.1720   35.1560 C   0  0  0  0  0  0  0  0  0  0  0  0
   37.1860   21.8810   33.4030 S   0  0  0  0  0  0  0  0  0  0  0  0
   38.1830   23.4330   32.8750 C   0  0  0  0  0  0  0  0  0  0  0  0
   38.5580   23.8720   33.9770 N   0  0  0  0  0  0  0  0  0  0  0  0
   38.3750   23.8900   31.4620 C   0  0  0  0  0  0  0  0  0  0  0  0
   37.1600   23.7550   30.7630 F   0  0  0  0  0  0  0  0  0  0  0  0
   38.6350   25.2430   31.4260 F   0  0  0  0  0  0  0  0  0  0  0  0
   39.3270   23.1650   30.8280 F   0  0  0  0  0  0  0  0  0  0  0  0
   36.9280   21.2260   35.9690 N   0  0  0  0  0  0  0  0  0  0  0  0
   38.9270   21.8967   37.1211 H   0  0  0  0  0  0  0  0  0  0  0  0
   39.2498   22.7791   39.4143 H   0  0  0  0  0  0  0  0  0  0  0  0
   40.1229   24.2026   38.8448 H   0  0  0  0  0  0  0  0  0  0  0  0
   37.2598   23.8585   39.2991 H   0  0  0  0  0  0  0  0  0  0  0  0
   38.1195   25.3506   38.8615 H   0  0  0  0  0  0  0  0  0  0  0  0
   36.7104   23.3663   37.1287 H   0  0  0  0  0  0  0  0  0  0  0  0
   36.9280   25.0775   36.8531 H   0  0  0  0  0  0  0  0  0  0  0  0
   39.3966   24.6823   36.1688 H   0  0  0  0  0  0  0  0  0  0  0  0
   41.0637   24.3878   35.8242 H   0  0  0  0  0  0  0  0  0  0  0  0
   40.7724   20.6172   37.9662 H   0  0  0  0  0  0  0  0  0  0  0  0
   44.4228   21.7732   36.0473 H   0  0  0  0  0  0  0  0  0  0  0  0
   36.3842   20.4550   35.5557 H   0  0  0  0  0  0  0  0  0  0  0  0
   37.0381   21.2885   36.9912 H   0  0  0  0  0  0  0  0  0  0  0  0
  1  2  1  0
  3  2  1  0
  4  3  1  0
  5  4  1  0
  5  1  1  0
  6  7  2  0
  7  1  1  0
  7  8  1  0
  9  8  2  0
 10  9  1  0
 11  6  1  0
 11 10  2  0
 12 13  2  0
 12  5  1  0
 13 21  1  0
 14 13  1  0
 15 14  1  0
 15 16  2  0
 16 12  1  0
 17 15  1  0
 18 17  1  0
 19 17  1  0
 20 17  1  0
  1 22  1  1
  2 23  1  0
  2 24  1  0
  3 25  1  0
  3 26  1  0
  4 27  1  0
  4 28  1  0
  5 29  1  6
  6 30  1  0
  8 31  1  0
 10 32  1  0
 21 33  1  0
 21 34  1  0
M  ISO  8  22  13  23  13  24  13  25  13  26  13  27  13  28  13  29  13
M  ISO  3  30  14  31  14  32  14
M  END
>  <minimizedAffinity>  (1) 
-4.9390502

>  <minimizedRMSD>  (1) 
0.539373577

$$$$
