
     RDKit          3D

 34 36  0  0  1  0  0  0  0  0999 V2000
   39.4100   23.0180   37.0360 C   0  0  1  0  0  0  0  0  0  0  0  0
   39.1910   23.3450   38.5230 C   0  0  0  0  0  0  0  0  0  0  0  0
   37.9530   24.1730   38.5490 C   0  0  0  0  0  0  0  0  0  0  0  0
   37.5870   24.4780   37.1470 C   0  0  0  0  0  0  0  0  0  0  0  0
   38.8970   24.2110   36.4040 C   0  0  2  0  0  0  0  0  0  0  0  0
   41.5930   23.5110   36.0120 C   0  0  0  0  0  0  0  0  0  0  0  0
   40.8100   22.6430   36.7610 C   0  0  0  0  0  0  0  0  0  0  0  0
   41.3280   21.4310   37.2620 C   0  0  0  0  0  0  0  0  0  0  0  0
   42.6210   21.1690   36.9710 N   0  0  0  0  0  0  0  0  0  0  0  0
   43.3990   22.0180   36.2350 C   0  0  0  0  0  0  0  0  0  0  0  0
   42.8760   23.2040   35.7510 N   0  0  0  0  0  0  0  0  0  0  0  0
   38.5560   24.0540   35.0050 C   0  0  0  0  0  0  0  0  0  0  0  0
   37.9080   22.9080   34.6510 C   0  0  0  0  0  0  0  0  0  0  0  0
   37.6900   23.1040   32.8690 S   0  0  0  0  0  0  0  0  0  0  0  0
   38.5520   24.7980   32.8750 C   0  0  0  0  0  0  0  0  0  0  0  0
   38.8250   24.9120   34.0720 N   0  0  0  0  0  0  0  0  0  0  0  0
   38.7620   25.6690   31.6660 C   0  0  0  0  0  0  0  0  0  0  0  0
   37.6910   25.4700   30.7710 F   0  0  0  0  0  0  0  0  0  0  0  0
   38.6690   27.0010   32.0090 F   0  0  0  0  0  0  0  0  0  0  0  0
   39.9260   25.3820   31.0420 F   0  0  0  0  0  0  0  0  0  0  0  0
   37.3310   21.6880   35.0680 C   0  0  0  0  0  0  0  0  0  0  0  0
   36.4740   21.3190   35.8910 O   0  0  0  0  0  0  0  0  0  0  0  0
   38.8969   22.1264   36.6465 H   0  0  0  0  0  0  0  0  0  0  0  0
   39.0535   22.4230   39.1069 H   0  0  0  0  0  0  0  0  0  0  0  0
   40.0514   23.8683   38.9655 H   0  0  0  0  0  0  0  0  0  0  0  0
   37.1394   23.6155   39.0360 H   0  0  0  0  0  0  0  0  0  0  0  0
   38.1218   25.1014   39.1142 H   0  0  0  0  0  0  0  0  0  0  0  0
   36.7847   23.8149   36.7912 H   0  0  0  0  0  0  0  0  0  0  0  0
   37.1990   25.4974   37.0043 H   0  0  0  0  0  0  0  0  0  0  0  0
   39.6621   25.0001   36.4481 H   0  0  0  0  0  0  0  0  0  0  0  0
   41.1639   24.4499   35.6320 H   0  0  0  0  0  0  0  0  0  0  0  0
   40.7141   20.7381   37.8561 H   0  0  0  0  0  0  0  0  0  0  0  0
   44.4470   21.7570   36.0262 H   0  0  0  0  0  0  0  0  0  0  0  0
   37.7528   20.8346   34.5168 H   0  0  0  0  0  0  0  0  0  0  0  0
  1  2  1  0
  2  3  1  0
  4  3  1  0
  5  1  1  0
  5  4  1  0
  6  7  2  0
  7  1  1  0
  7  8  1  0
  9  8  2  0
 10  9  1  0
 11  6  1  0
 11 10  2  0
 12  5  1  0
 13 12  2  0
 13 21  1  0
 14 15  1  0
 14 13  1  0
 15 16  2  0
 16 12  1  0
 17 19  1  0
 17 15  1  0
 18 17  1  0
 20 17  1  0
 21 22  2  0
  1 23  1  6
  2 24  1  0
  2 25  1  0
  3 26  1  0
  3 27  1  0
  4 28  1  0
  4 29  1  0
  5 30  1  6
  6 31  1  0
  8 32  1  0
 10 33  1  0
 21 34  1  0
M  ISO  8  23  13  24  13  25  13  26  13  27  13  28  13  29  13  30  13
M  ISO  4  31  14  32  14  33  14  34   6
M  END
>  <minimizedAffinity>  (1) 
-4.88268232

>  <minimizedRMSD>  (1) 
1.3033272

$$$$
