
     RDKit          3D

 44 46  0  0  1  0  0  0  0  0999 V2000
   39.5720   23.2140   36.4740 C   0  0  1  0  0  0  0  0  0  0  0  0
   39.0930   23.1450   37.9270 C   0  0  0  0  0  0  0  0  0  0  0  0
   37.8690   23.9920   37.9630 C   0  0  0  0  0  0  0  0  0  0  0  0
   37.7970   24.7310   36.6790 C   0  0  0  0  0  0  0  0  0  0  0  0
   39.1220   24.4920   36.0490 C   0  0  2  0  0  0  0  0  0  0  0  0
   41.8620   23.8420   35.8810 C   0  0  0  0  0  0  0  0  0  0  0  0
   41.0030   22.8640   36.3330 C   0  0  0  0  0  0  0  0  0  0  0  0
   41.4760   21.5920   36.6560 C   0  0  0  0  0  0  0  0  0  0  0  0
   42.7900   21.3610   36.5090 N   0  0  0  0  0  0  0  0  0  0  0  0
   43.6480   22.3100   36.0670 C   0  0  0  0  0  0  0  0  0  0  0  0
   43.1790   23.5490   35.7540 N   0  0  0  0  0  0  0  0  0  0  0  0
   39.0070   24.7140   34.6300 C   0  0  0  0  0  0  0  0  0  0  0  0
   38.3710   23.6980   33.9230 C   0  0  0  0  0  0  0  0  0  0  0  0
   38.6070   24.3840   32.2550 S   0  0  0  0  0  0  0  0  0  0  0  0
   39.5060   25.9470   32.7950 C   0  0  0  0  0  0  0  0  0  0  0  0
   39.5110   25.7450   34.0010 N   0  0  0  0  0  0  0  0  0  0  0  0
   39.9200   27.0390   31.8660 C   0  0  0  0  0  0  0  0  0  0  0  0
   40.2030   26.5040   30.5940 F   0  0  0  0  0  0  0  0  0  0  0  0
   38.8450   27.8860   31.6330 F   0  0  0  0  0  0  0  0  0  0  0  0
   40.9950   27.6770   32.3540 F   0  0  0  0  0  0  0  0  0  0  0  0
   37.6880   22.4520   33.9140 C   0  0  0  0  0  0  0  0  0  0  0  0
   36.7250   22.2050   32.7200 C   0  0  0  0  0  0  0  0  0  0  0  0
   37.1860   21.6020   34.9460 C   0  0  0  0  0  0  0  0  0  0  0  0
   38.8140   21.4320   33.3860 C   0  0  0  0  0  0  0  0  0  0  0  0
   39.1581   22.4550   35.7939 H   0  0  0  0  0  0  0  0  0  0  0  0
   38.8556   22.1084   38.2082 H   0  0  0  0  0  0  0  0  0  0  0  0
   39.8601   23.4925   38.6347 H   0  0  0  0  0  0  0  0  0  0  0  0
   36.9777   23.3583   38.0815 H   0  0  0  0  0  0  0  0  0  0  0  0
   37.9088   24.6925   38.8102 H   0  0  0  0  0  0  0  0  0  0  0  0
   36.9873   24.3377   36.0468 H   0  0  0  0  0  0  0  0  0  0  0  0
   37.5825   25.8008   36.8188 H   0  0  0  0  0  0  0  0  0  0  0  0
   39.9077   25.1947   36.3633 H   0  0  0  0  0  0  0  0  0  0  0  0
   41.4850   24.8438   35.6275 H   0  0  0  0  0  0  0  0  0  0  0  0
   40.7965   20.8065   37.0182 H   0  0  0  0  0  0  0  0  0  0  0  0
   44.7187   22.0812   35.9613 H   0  0  0  0  0  0  0  0  0  0  0  0
   35.7257   21.9487   33.1018 H   0  0  0  0  0  0  0  0  0  0  0  0
   36.6606   23.1157   32.1064 H   0  0  0  0  0  0  0  0  0  0  0  0
   37.1069   21.3757   32.1064 H   0  0  0  0  0  0  0  0  0  0  0  0
   37.4382   22.0291   35.9278 H   0  0  0  0  0  0  0  0  0  0  0  0
   36.0932   21.5178   34.8525 H   0  0  0  0  0  0  0  0  0  0  0  0
   37.6399   20.6044   34.8525 H   0  0  0  0  0  0  0  0  0  0  0  0
   39.3230   20.9709   34.2453 H   0  0  0  0  0  0  0  0  0  0  0  0
   38.3416   20.6481   32.7758 H   0  0  0  0  0  0  0  0  0  0  0  0
   39.5475   21.9794   32.7758 H   0  0  0  0  0  0  0  0  0  0  0  0
  1  2  1  0
  2  3  1  0
  4  3  1  0
  5  1  1  0
  5  4  1  0
  6  7  2  0
  7  1  1  0
  7  8  1  0
  9  8  2  0
 10  9  1  0
 11  6  1  0
 11 10  2  0
 12  5  1  0
 13 12  2  0
 14 15  1  0
 14 13  1  0
 15 16  2  0
 16 12  1  0
 17 20  1  0
 17 15  1  0
 18 17  1  0
 19 17  1  0
 21 13  1  0
 21 23  1  0
 22 21  1  0
 24 21  1  0
  1 25  1  6
  2 26  1  0
  2 27  1  0
  3 28  1  0
  3 29  1  0
  4 30  1  0
  4 31  1  0
  5 32  1  1
  6 33  1  0
  8 34  1  0
 10 35  1  0
 22 36  1  0
 22 37  1  0
 22 38  1  0
 23 39  1  0
 23 40  1  0
 23 41  1  0
 24 42  1  0
 24 43  1  0
 24 44  1  0
M  ISO  8  25  13  26  13  27  13  28  13  29  13  30  13  31  13  32  13
M  ISO  8  33  14  34  14  35  14  36   8  37   8  38   8  39   8  40   8
M  ISO  4  41   8  42   8  43   8  44   8
M  END
>  <minimizedAffinity>  (1) 
-4.78359938

>  <minimizedRMSD>  (1) 
2.50489879

$$$$
