
     RDKit          3D

 33 35  0  0  1  0  0  0  0  0999 V2000
   39.4720   22.9630   36.9800 C   0  0  1  0  0  0  0  0  0  0  0  0
   39.2250   23.3200   38.4560 C   0  0  0  0  0  0  0  0  0  0  0  0
   37.9700   24.1330   38.4550 C   0  0  0  0  0  0  0  0  0  0  0  0
   37.5950   24.3530   37.0380 C   0  0  0  0  0  0  0  0  0  0  0  0
   38.9120   24.1090   36.3040 C   0  0  2  0  0  0  0  0  0  0  0  0
   41.6720   23.5600   36.0580 C   0  0  0  0  0  0  0  0  0  0  0  0
   40.8840   22.6300   36.7250 C   0  0  0  0  0  0  0  0  0  0  0  0
   41.4120   21.3980   37.1610 C   0  0  0  0  0  0  0  0  0  0  0  0
   42.7180   21.1810   36.8900 N   0  0  0  0  0  0  0  0  0  0  0  0
   43.5030   22.0900   36.2340 C   0  0  0  0  0  0  0  0  0  0  0  0
   42.9690   23.2950   35.8130 N   0  0  0  0  0  0  0  0  0  0  0  0
   38.5910   23.8960   34.9080 C   0  0  0  0  0  0  0  0  0  0  0  0
   37.8200   22.7970   34.6220 C   0  0  0  0  0  0  0  0  0  0  0  0
   37.6440   22.8840   32.8310 S   0  0  0  0  0  0  0  0  0  0  0  0
   38.6990   24.4850   32.7400 C   0  0  0  0  0  0  0  0  0  0  0  0
   38.9780   24.6690   33.9380 N   0  0  0  0  0  0  0  0  0  0  0  0
   39.0270   25.2360   31.4810 C   0  0  0  0  0  0  0  0  0  0  0  0
   37.9600   25.0900   30.5720 F   0  0  0  0  0  0  0  0  0  0  0  0
   39.0770   26.5960   31.7260 F   0  0  0  0  0  0  0  0  0  0  0  0
   40.1590   24.7750   30.9060 F   0  0  0  0  0  0  0  0  0  0  0  0
   36.9540   21.3940   35.2890 S   0  0  0  0  0  0  0  0  0  0  0  0
   38.9988   22.0402   36.6132 H   0  0  0  0  0  0  0  0  0  0  0  0
   39.0941   22.4082   39.0572 H   0  0  0  0  0  0  0  0  0  0  0  0
   40.0714   23.8688   38.8947 H   0  0  0  0  0  0  0  0  0  0  0  0
   37.1684   23.5905   38.9777 H   0  0  0  0  0  0  0  0  0  0  0  0
   38.1236   25.0912   38.9729 H   0  0  0  0  0  0  0  0  0  0  0  0
   36.8226   23.6390   36.7160 H   0  0  0  0  0  0  0  0  0  0  0  0
   37.1657   25.3478   36.8481 H   0  0  0  0  0  0  0  0  0  0  0  0
   39.6437   24.9302   36.3199 H   0  0  0  0  0  0  0  0  0  0  0  0
   41.2352   24.5146   35.7295 H   0  0  0  0  0  0  0  0  0  0  0  0
   40.7967   20.6562   37.6911 H   0  0  0  0  0  0  0  0  0  0  0  0
   44.5616   21.8620   36.0408 H   0  0  0  0  0  0  0  0  0  0  0  0
   36.9861   21.4460   36.6576 H   0  0  0  0  0  0  0  0  0  0  0  0
  1  2  1  0
  3  2  1  0
  4  3  1  0
  5  1  1  0
  5  4  1  0
  6  7  2  0
  7  1  1  0
  7  8  1  0
  9  8  2  0
 10  9  1  0
 11  6  1  0
 11 10  2  0
 12  5  1  0
 13 12  2  0
 13 21  1  0
 14 13  1  0
 15 14  1  0
 15 16  2  0
 16 12  1  0
 17 19  1  0
 17 15  1  0
 18 17  1  0
 20 17  1  0
  1 22  1  6
  2 23  1  0
  2 24  1  0
  3 25  1  0
  3 26  1  0
  4 27  1  0
  4 28  1  0
  5 29  1  6
  6 30  1  0
  8 31  1  0
 10 32  1  0
 21 33  1  0
M  ISO  8  22  13  23  13  24  13  25  13  26  13  27  13  28  13  29  13
M  ISO  4  30  14  31  14  32  14  33  11
M  END
>  <minimizedAffinity>  (1) 
-4.57409573

>  <minimizedRMSD>  (1) 
1.17410827

$$$$
