
     RDKit          3D

 21 23  0  0  0  0  0  0  0  0999 V2000
   38.6490   24.5210   36.6090 N   0  0  0  0  0  0  0  0  0  0  0  0
   38.1330   24.1790   37.8030 C   0  0  0  0  0  0  0  0  0  0  0  0
   38.8100   23.1640   38.3680 N   0  0  0  0  0  0  0  0  0  0  0  0
   39.7920   22.8460   37.5090 C   0  0  0  0  0  0  0  0  0  0  0  0
   40.7990   21.9100   37.5130 C   0  0  0  0  0  0  0  0  0  0  0  0
   41.6940   21.7640   36.5190 N   0  0  0  0  0  0  0  0  0  0  0  0
   41.5520   22.6160   35.4690 C   0  0  0  0  0  0  0  0  0  0  0  0
   40.5750   23.5230   35.4670 N   0  0  0  0  0  0  0  0  0  0  0  0
   39.6760   23.6960   36.4240 C   0  0  0  0  0  0  0  0  0  0  0  0
   37.6420   25.2160   34.5130 C   0  0  0  0  0  0  0  0  0  0  0  0
   38.1790   25.5330   35.7680 C   0  0  0  0  0  0  0  0  0  0  0  0
   38.2300   26.8700   36.1430 C   0  0  0  0  0  0  0  0  0  0  0  0
   37.7610   27.8160   35.2880 N   0  0  0  0  0  0  0  0  0  0  0  0
   37.2430   27.4770   34.0760 C   0  0  0  0  0  0  0  0  0  0  0  0
   37.1860   26.1930   33.6960 N   0  0  0  0  0  0  0  0  0  0  0  0
   37.2623   24.6703   38.2619 H   0  0  0  0  0  0  0  0  0  0  0  0
   40.8778   21.2397   38.3816 H   0  0  0  0  0  0  0  0  0  0  0  0
   42.2461   22.5567   34.6177 H   0  0  0  0  0  0  0  0  0  0  0  0
   37.5909   24.1657   34.1901 H   0  0  0  0  0  0  0  0  0  0  0  0
   38.6449   27.1589   37.1199 H   0  0  0  0  0  0  0  0  0  0  0  0
   36.8684   28.2626   33.4033 H   0  0  0  0  0  0  0  0  0  0  0  0
  1  2  1  0
  2  3  2  0
  4  5  2  0
  4  3  1  0
  6  5  1  0
  7  6  2  0
  8  7  1  0
  8  9  2  0
  9  1  1  0
  9  4  1  0
 10 11  2  0
 11 12  1  0
 11  1  1  0
 13 12  2  0
 14 13  1  0
 15 14  2  0
 15 10  1  0
  2 16  1  0
  5 17  1  0
  7 18  1  0
 10 19  1  0
 12 20  1  0
 14 21  1  0
M  ISO  6  16  14  17  14  18  14  19  14  20  14  21  14
M  END
>  <minimizedAffinity>  (1) 
-4.17376852

>  <minimizedRMSD>  (1) 
4.62313318

$$$$
