
     RDKit          3D

 35 39  0  0  0  0  0  0  0  0999 V2000
   37.6510   25.0080   34.5220 C   0  0  0  0  0  0  0  0  0  0  0  0
   38.2440   25.3210   35.7400 C   0  0  0  0  0  0  0  0  0  0  0  0
   38.2310   26.6420   36.1530 C   0  0  0  0  0  0  0  0  0  0  0  0
   37.6450   27.5700   35.3580 N   0  0  0  0  0  0  0  0  0  0  0  0
   37.0740   27.2420   34.1770 C   0  0  0  0  0  0  0  0  0  0  0  0
   37.0770   25.9680   33.7610 N   0  0  0  0  0  0  0  0  0  0  0  0
   36.5180   28.3680   33.5050 N   0  0  0  0  0  0  0  0  0  0  0  0
   35.8400   29.3190   34.2010 C   0  0  0  0  0  0  0  0  0  0  0  0
   35.3990   30.2940   33.3760 N   0  0  0  0  0  0  0  0  0  0  0  0
   35.8020   29.9630   32.1230 C   0  0  0  0  0  0  0  0  0  0  0  0
   35.7060   30.4780   30.8620 C   0  0  0  0  0  0  0  0  0  0  0  0
   35.0780   31.5780   30.7190 O   0  0  0  0  0  0  0  0  0  0  0  0
   36.2610   29.8410   29.7900 N   0  0  0  0  0  0  0  0  0  0  0  0
   36.9270   28.6800   29.9180 C   0  0  0  0  0  0  0  0  0  0  0  0
   37.4410   28.1490   28.7150 N   0  0  0  0  0  0  0  0  0  0  0  0
   37.0430   28.1350   31.1650 N   0  0  0  0  0  0  0  0  0  0  0  0
   36.4890   28.7750   32.2260 C   0  0  0  0  0  0  0  0  0  0  0  0
   38.8350   24.3180   36.5160 N   0  0  0  0  0  0  0  0  0  0  0  0
   38.4320   23.9390   37.7540 C   0  0  0  0  0  0  0  0  0  0  0  0
   39.2050   22.9430   38.2420 N   0  0  0  0  0  0  0  0  0  0  0  0
   40.1240   22.6810   37.2860 C   0  0  0  0  0  0  0  0  0  0  0  0
   41.1610   21.7960   37.1900 C   0  0  0  0  0  0  0  0  0  0  0  0
   41.9640   21.7060   36.1260 N   0  0  0  0  0  0  0  0  0  0  0  0
   41.7030   22.5620   35.0950 C   0  0  0  0  0  0  0  0  0  0  0  0
   40.6860   23.4280   35.1930 N   0  0  0  0  0  0  0  0  0  0  0  0
   39.8720   23.5440   36.2320 C   0  0  0  0  0  0  0  0  0  0  0  0
   37.6485   23.9651   34.1722 H   0  0  0  0  0  0  0  0  0  0  0  0
   38.6884   26.9336   37.1100 H   0  0  0  0  0  0  0  0  0  0  0  0
   35.6731   29.2976   35.2881 H   0  0  0  0  0  0  0  0  0  0  0  0
   36.1668   30.2624   28.8549 H   0  0  0  0  0  0  0  0  0  0  0  0
   37.9643   27.2619   28.7257 H   0  0  0  0  0  0  0  0  0  0  0  0
   37.2927   28.6487   27.8266 H   0  0  0  0  0  0  0  0  0  0  0  0
   37.5834   24.3855   38.2931 H   0  0  0  0  0  0  0  0  0  0  0  0
   41.3451   21.1190   38.0373 H   0  0  0  0  0  0  0  0  0  0  0  0
   42.3251   22.5406   34.1880 H   0  0  0  0  0  0  0  0  0  0  0  0
  1  2  2  0
  2  3  1  0
  2 18  1  0
  4  3  2  0
  5  4  1  0
  6  5  2  0
  6  1  1  0
  7  5  1  0
  7  8  1  0
  9  8  2  0
 10 17  2  0
 10  9  1  0
 11 10  1  0
 12 11  2  0
 13 14  1  0
 13 11  1  0
 14 16  2  0
 15 14  1  0
 16 17  1  0
 17  7  1  0
 18 19  1  0
 19 20  2  0
 21 20  1  0
 22 21  2  0
 23 22  1  0
 24 25  1  0
 24 23  2  0
 25 26  2  0
 26 18  1  0
 26 21  1  0
  1 27  1  0
  3 28  1  0
  8 29  1  0
 13 30  1  0
 15 31  1  0
 15 32  1  0
 19 33  1  0
 22 34  1  0
 24 35  1  0
M  ISO  7  27  14  28  14  29  14  30   9  33  14  34  14  35  14
M  END
>  <minimizedAffinity>  (1) 
-6.78153229

>  <minimizedRMSD>  (1) 
0.463115633

$$$$
