
     RDKit          3D

 32 36  0  0  0  0  0  0  0  0999 V2000
   37.7050   25.0240   34.4620 C   0  0  0  0  0  0  0  0  0  0  0  0
   38.2110   25.3880   35.7080 C   0  0  0  0  0  0  0  0  0  0  0  0
   38.1970   26.7360   36.0610 C   0  0  0  0  0  0  0  0  0  0  0  0
   37.6960   27.6350   35.1820 N   0  0  0  0  0  0  0  0  0  0  0  0
   37.2090   27.2650   33.9770 C   0  0  0  0  0  0  0  0  0  0  0  0
   37.2140   25.9650   33.6180 N   0  0  0  0  0  0  0  0  0  0  0  0
   36.6950   28.2740   33.1050 N   0  0  0  0  0  0  0  0  0  0  0  0
   35.7220   29.1520   33.4070 C   0  0  0  0  0  0  0  0  0  0  0  0
   35.5130   29.9500   32.3190 N   0  0  0  0  0  0  0  0  0  0  0  0
   36.3760   29.5270   31.3820 C   0  0  0  0  0  0  0  0  0  0  0  0
   36.5690   30.0050   30.0900 C   0  0  0  0  0  0  0  0  0  0  0  0
   37.5100   29.3940   29.3470 N   0  0  0  0  0  0  0  0  0  0  0  0
   38.2560   28.3540   29.8120 C   0  0  0  0  0  0  0  0  0  0  0  0
   38.0780   27.8800   31.0640 N   0  0  0  0  0  0  0  0  0  0  0  0
   37.1490   28.4570   31.8470 C   0  0  0  0  0  0  0  0  0  0  0  0
   38.7120   24.4130   36.5650 N   0  0  0  0  0  0  0  0  0  0  0  0
   38.2130   24.0970   37.7830 C   0  0  0  0  0  0  0  0  0  0  0  0
   38.9050   23.1150   38.3800 N   0  0  0  0  0  0  0  0  0  0  0  0
   39.8880   22.7850   37.5140 C   0  0  0  0  0  0  0  0  0  0  0  0
   40.9060   21.8690   37.5420 C   0  0  0  0  0  0  0  0  0  0  0  0
   41.7950   21.7110   36.5360 N   0  0  0  0  0  0  0  0  0  0  0  0
   41.6260   22.5290   35.4600 C   0  0  0  0  0  0  0  0  0  0  0  0
   40.6310   23.4170   35.4420 N   0  0  0  0  0  0  0  0  0  0  0  0
   39.7410   23.6000   36.4120 C   0  0  0  0  0  0  0  0  0  0  0  0
   37.7038   23.9660   34.1608 H   0  0  0  0  0  0  0  0  0  0  0  0
   38.5861   27.0635   37.0364 H   0  0  0  0  0  0  0  0  0  0  0  0
   35.1866   29.2162   34.3658 H   0  0  0  0  0  0  0  0  0  0  0  0
   35.9791   30.8445   29.6936 H   0  0  0  0  0  0  0  0  0  0  0  0
   39.0131   27.8942   29.1597 H   0  0  0  0  0  0  0  0  0  0  0  0
   37.3385   24.5900   38.2326 H   0  0  0  0  0  0  0  0  0  0  0  0
   41.0054   21.2279   38.4303 H   0  0  0  0  0  0  0  0  0  0  0  0
   42.3122   22.4570   34.6033 H   0  0  0  0  0  0  0  0  0  0  0  0
  1  2  2  0
  2  3  1  0
  2 16  1  0
  4  3  2  0
  5  4  1  0
  6  5  2  0
  6  1  1  0
  7  8  1  0
  7  5  1  0
  9  8  2  0
 10 15  2  0
 10  9  1  0
 11 10  1  0
 12 13  1  0
 12 11  2  0
 13 14  2  0
 14 15  1  0
 15  7  1  0
 16 17  1  0
 17 18  2  0
 19 20  2  0
 19 18  1  0
 21 20  1  0
 22 21  2  0
 23 22  1  0
 23 24  2  0
 24 16  1  0
 24 19  1  0
  1 25  1  0
  3 26  1  0
  8 27  1  0
 11 28  1  0
 13 29  1  0
 17 30  1  0
 20 31  1  0
 22 32  1  0
M  ISO  8  25  14  26  14  27  14  28  14  29  14  30  14  31  14  32  14
M  END
>  <minimizedAffinity>  (1) 
-6.07940054

>  <minimizedRMSD>  (1) 
0.233989328

$$$$
