
     RDKit          3D

 22 23  0  0  0  0  0  0  0  0999 V2000
   40.4580   22.3920   37.7200 C   0  0  0  0  0  0  0  0  0  0  0  0
   39.2880   23.1290   37.4370 C   0  0  0  0  0  0  0  0  0  0  0  0
   38.9690   23.3400   36.1070 C   0  0  0  0  0  0  0  0  0  0  0  0
   39.7750   22.8420   35.1250 N   0  0  0  0  0  0  0  0  0  0  0  0
   40.8950   22.1360   35.4430 C   0  0  0  0  0  0  0  0  0  0  0  0
   41.2090   21.9290   36.7290 N   0  0  0  0  0  0  0  0  0  0  0  0
   38.4080   23.6730   38.5060 C   0  0  0  0  0  0  0  0  0  0  0  0
   39.2080   23.8650   39.6300 F   0  0  0  0  0  0  0  0  0  0  0  0
   37.3790   22.8610   38.8290 F   0  0  0  0  0  0  0  0  0  0  0  0
   37.9920   24.9840   38.1660 F   0  0  0  0  0  0  0  0  0  0  0  0
   41.8770   21.5320   34.0950 S   0  0  0  0  0  0  0  0  0  0  0  0
   43.2770   22.5960   33.8050 C   0  0  0  0  0  0  0  0  0  0  0  0
   43.2120   23.9000   34.3680 C   0  0  0  0  0  0  0  0  0  0  0  0
   44.8560   24.6610   33.8290 S   0  0  0  0  0  0  0  0  0  0  0  0
   45.2830   23.0390   32.9510 C   0  0  0  0  0  0  0  0  0  0  0  0
   44.3930   22.4190   33.1580 N   0  0  0  0  0  0  0  0  0  0  0  0
   46.5130   22.7800   32.2120 N   0  0  0  0  0  0  0  0  0  0  0  0
   40.7477   22.2012   38.7639 H   0  0  0  0  0  0  0  0  0  0  0  0
   38.0659   23.9091   35.8415 H   0  0  0  0  0  0  0  0  0  0  0  0
   42.4075   24.3521   34.9666 H   0  0  0  0  0  0  0  0  0  0  0  0
   47.2333   23.5125   32.1381 H   0  0  0  0  0  0  0  0  0  0  0  0
   46.6615   21.8646   31.7639 H   0  0  0  0  0  0  0  0  0  0  0  0
  2  1  2  0
  2  7  1  0
  3  2  1  0
  4  5  1  0
  4  3  2  0
  5  6  2  0
  6  1  1  0
  7  9  1  0
  7  8  1  0
 10  7  1  0
 11  5  1  0
 12 11  1  0
 12 13  2  0
 14 13  1  0
 15 16  2  0
 15 14  1  0
 16 12  1  0
 17 15  1  0
  1 18  1  0
  3 19  1  0
 13 20  1  0
 17 21  1  0
 17 22  1  0
M  ISO  3  18  14  19  14  20  14
M  END
>  <minimizedAffinity>  (1) 
-3.78228569

>  <minimizedRMSD>  (1) 
0.0181653257

$$$$
