
     RDKit          3D

 31 34  0  0  0  0  0  0  0  0999 V2000
   37.6330   25.1480   34.5430 C   0  0  0  0  0  0  0  0  0  0  0  0
   38.1910   25.4720   35.7890 C   0  0  0  0  0  0  0  0  0  0  0  0
   38.2190   26.8030   36.1520 C   0  0  0  0  0  0  0  0  0  0  0  0
   37.7210   27.7470   35.3200 N   0  0  0  0  0  0  0  0  0  0  0  0
   37.1850   27.3990   34.1150 C   0  0  0  0  0  0  0  0  0  0  0  0
   37.1450   26.1200   33.7380 N   0  0  0  0  0  0  0  0  0  0  0  0
   36.6400   28.3300   33.1850 N   0  0  0  0  0  0  0  0  0  0  0  0
   35.6560   29.1170   33.6620 C   0  0  0  0  0  0  0  0  0  0  0  0
   35.0360   30.0670   32.8660 C   0  0  0  0  0  0  0  0  0  0  0  0
   35.4750   30.1760   31.5480 C   0  0  0  0  0  0  0  0  0  0  0  0
   34.9730   31.0130   30.7360 O   0  0  0  0  0  0  0  0  0  0  0  0
   36.4630   29.3720   31.1020 N   0  0  0  0  0  0  0  0  0  0  0  0
   37.0500   28.4540   31.8980 C   0  0  0  0  0  0  0  0  0  0  0  0
   37.9720   27.6810   31.5410 O   0  0  0  0  0  0  0  0  0  0  0  0
   38.6920   24.4730   36.6120 N   0  0  0  0  0  0  0  0  0  0  0  0
   38.2110   24.1330   37.8290 C   0  0  0  0  0  0  0  0  0  0  0  0
   38.9100   23.1230   38.3870 N   0  0  0  0  0  0  0  0  0  0  0  0
   39.8680   22.8030   37.5050 C   0  0  0  0  0  0  0  0  0  0  0  0
   40.8760   21.8790   37.4850 C   0  0  0  0  0  0  0  0  0  0  0  0
   41.7400   21.7330   36.4680 N   0  0  0  0  0  0  0  0  0  0  0  0
   41.5670   22.5760   35.4170 C   0  0  0  0  0  0  0  0  0  0  0  0
   40.5890   23.4770   35.4270 N   0  0  0  0  0  0  0  0  0  0  0  0
   39.7150   23.6520   36.4130 C   0  0  0  0  0  0  0  0  0  0  0  0
   37.5920   24.0977   34.2187 H   0  0  0  0  0  0  0  0  0  0  0  0
   38.6477   27.0978   37.1212 H   0  0  0  0  0  0  0  0  0  0  0  0
   35.3370   29.0027   34.7085 H   0  0  0  0  0  0  0  0  0  0  0  0
   34.2320   30.7074   33.2577 H   0  0  0  0  0  0  0  0  0  0  0  0
   36.7782   29.4617   30.1255 H   0  0  0  0  0  0  0  0  0  0  0  0
   37.3504   24.6226   38.3081 H   0  0  0  0  0  0  0  0  0  0  0  0
   40.9855   21.2150   38.3552 H   0  0  0  0  0  0  0  0  0  0  0  0
   42.2415   22.5128   34.5504 H   0  0  0  0  0  0  0  0  0  0  0  0
  1  2  2  0
  2  3  1  0
  2 15  1  0
  4  3  2  0
  5  4  1  0
  6  5  2  0
  6  1  1  0
  7  8  1  0
  7  5  1  0
  9  8  2  0
 10  9  1  0
 11 10  2  0
 12 10  1  0
 12 13  1  0
 13  7  1  0
 14 13  2  0
 15 16  1  0
 16 17  2  0
 18 17  1  0
 19 18  2  0
 20 19  1  0
 21 22  1  0
 21 20  2  0
 22 23  2  0
 23 15  1  0
 23 18  1  0
  1 24  1  0
  3 25  1  0
  8 26  1  0
  9 27  1  0
 12 28  1  0
 16 29  1  0
 19 30  1  0
 21 31  1  0
M  ISO  8  24  14  25  14  26  14  27  14  28   9  29  14  30  14  31  14
M  END
>  <minimizedAffinity>  (1) 
-5.88133287

>  <minimizedRMSD>  (1) 
0.117484406

$$$$
