
     RDKit          3D

 31 34  0  0  0  0  0  0  0  0999 V2000
   37.6710   25.0120   34.3980 C   0  0  0  0  0  0  0  0  0  0  0  0
   38.1450   25.3920   35.6580 C   0  0  0  0  0  0  0  0  0  0  0  0
   38.0990   26.7440   35.9980 C   0  0  0  0  0  0  0  0  0  0  0  0
   37.6000   27.6290   35.1020 N   0  0  0  0  0  0  0  0  0  0  0  0
   37.1470   27.2410   33.8890 C   0  0  0  0  0  0  0  0  0  0  0  0
   37.1840   25.9470   33.5480 N   0  0  0  0  0  0  0  0  0  0  0  0
   38.6470   24.4360   36.5380 N   0  0  0  0  0  0  0  0  0  0  0  0
   38.1500   24.1420   37.7560 C   0  0  0  0  0  0  0  0  0  0  0  0
   38.8580   23.1690   38.3610 N   0  0  0  0  0  0  0  0  0  0  0  0
   39.8310   22.8360   37.5050 C   0  0  0  0  0  0  0  0  0  0  0  0
   40.8700   21.9220   37.5290 C   0  0  0  0  0  0  0  0  0  0  0  0
   41.7500   21.7490   36.5380 N   0  0  0  0  0  0  0  0  0  0  0  0
   41.5770   22.5440   35.4520 C   0  0  0  0  0  0  0  0  0  0  0  0
   40.5740   23.4270   35.4270 N   0  0  0  0  0  0  0  0  0  0  0  0
   39.6860   23.6260   36.3870 C   0  0  0  0  0  0  0  0  0  0  0  0
   36.6270   28.2740   32.9920 C   0  0  0  0  0  0  0  0  0  0  0  0
   35.7610   29.2400   33.4660 C   0  0  0  0  0  0  0  0  0  0  0  0
   35.3070   30.1910   32.5500 C   0  0  0  0  0  0  0  0  0  0  0  0
   35.7060   30.1720   31.2250 C   0  0  0  0  0  0  0  0  0  0  0  0
   36.5720   29.2010   30.7670 C   0  0  0  0  0  0  0  0  0  0  0  0
   37.0380   28.2360   31.6700 C   0  0  0  0  0  0  0  0  0  0  0  0
   37.6938   23.9540   34.0977 H   0  0  0  0  0  0  0  0  0  0  0  0
   38.4622   27.0862   36.9783 H   0  0  0  0  0  0  0  0  0  0  0  0
   37.2738   24.6361   38.2012 H   0  0  0  0  0  0  0  0  0  0  0  0
   40.9791   21.2945   38.4258 H   0  0  0  0  0  0  0  0  0  0  0  0
   42.2607   22.4619   34.5942 H   0  0  0  0  0  0  0  0  0  0  0  0
   35.4430   29.2593   34.5188 H   0  0  0  0  0  0  0  0  0  0  0  0
   34.6146   30.9752   32.8902 H   0  0  0  0  0  0  0  0  0  0  0  0
   35.3293   30.9379   30.5311 H   0  0  0  0  0  0  0  0  0  0  0  0
   36.8904   29.1845   29.7142 H   0  0  0  0  0  0  0  0  0  0  0  0
   37.7285   27.4503   31.3296 H   0  0  0  0  0  0  0  0  0  0  0  0
  1  2  2  0
  2  3  1  0
  2  7  1  0
  4  3  2  0
  5  4  1  0
  6  5  2  0
  6  1  1  0
  7  8  1  0
  8  9  2  0
 10 11  2  0
 10  9  1  0
 12 11  1  0
 13 12  2  0
 14 13  1  0
 14 15  2  0
 15  7  1  0
 15 10  1  0
 16 17  2  0
 16  5  1  0
 18 17  1  0
 19 18  2  0
 20 19  1  0
 20 21  2  0
 21 16  1  0
  1 22  1  0
  3 23  1  0
  8 24  1  0
 11 25  1  0
 13 26  1  0
 17 27  1  0
 18 28  1  0
 19 29  1  0
 20 30  1  0
 21 31  1  0
M  ISO  8  22  14  23  14  24  14  25  14  26  14  27  14  28  14  29  14
M  ISO  2  30  14  31  14
M  END
>  <minimizedAffinity>  (1) 
-5.65103102

>  <minimizedRMSD>  (1) 
0.387795508

$$$$
