
     RDKit          3D

 33 36  0  0  0  0  0  0  0  0999 V2000
   37.7550   24.9610   33.8350 C   0  0  0  0  0  0  0  0  0  0  0  0
   37.9270   25.4010   35.1580 C   0  0  0  0  0  0  0  0  0  0  0  0
   37.6880   26.7260   35.4530 C   0  0  0  0  0  0  0  0  0  0  0  0
   37.2960   27.5660   34.4640 N   0  0  0  0  0  0  0  0  0  0  0  0
   37.1340   27.1260   33.1850 C   0  0  0  0  0  0  0  0  0  0  0  0
   37.3640   25.8320   32.8780 N   0  0  0  0  0  0  0  0  0  0  0  0
   36.7260   27.9520   32.1060 N   0  0  0  0  0  0  0  0  0  0  0  0
   36.7800   27.7320   30.6820 C   0  0  0  0  0  0  0  0  0  0  0  0
   36.8300   29.0810   30.0390 C   0  0  0  0  0  0  0  0  0  0  0  0
   36.1000   29.9720   31.0090 C   0  0  0  0  0  0  0  0  0  0  0  0
   36.1440   29.2540   32.3170 C   0  0  0  0  0  0  0  0  0  0  0  0
   38.3330   24.4910   36.1390 N   0  0  0  0  0  0  0  0  0  0  0  0
   37.6160   24.0970   37.2050 C   0  0  0  0  0  0  0  0  0  0  0  0
   38.2840   23.2120   37.9650 N   0  0  0  0  0  0  0  0  0  0  0  0
   39.4760   23.0290   37.3660 C   0  0  0  0  0  0  0  0  0  0  0  0
   40.5890   22.2640   37.6400 C   0  0  0  0  0  0  0  0  0  0  0  0
   41.6960   22.2380   36.8850 N   0  0  0  0  0  0  0  0  0  0  0  0
   41.6740   23.0330   35.7870 C   0  0  0  0  0  0  0  0  0  0  0  0
   40.6020   23.7780   35.5130 N   0  0  0  0  0  0  0  0  0  0  0  0
   39.4840   23.8320   36.2370 C   0  0  0  0  0  0  0  0  0  0  0  0
   37.9385   23.9074   33.5777 H   0  0  0  0  0  0  0  0  0  0  0  0
   37.8141   27.0980   36.4805 H   0  0  0  0  0  0  0  0  0  0  0  0
   37.6794   27.1547   30.4217 H   0  0  0  0  0  0  0  0  0  0  0  0
   35.9048   27.1620   30.3368 H   0  0  0  0  0  0  0  0  0  0  0  0
   37.8702   29.4140   29.9085 H   0  0  0  0  0  0  0  0  0  0  0  0
   36.3808   29.0892   29.0349 H   0  0  0  0  0  0  0  0  0  0  0  0
   36.6021   30.9475   31.0884 H   0  0  0  0  0  0  0  0  0  0  0  0
   35.0674   30.1697   30.6854 H   0  0  0  0  0  0  0  0  0  0  0  0
   35.1242   29.1444   32.7144 H   0  0  0  0  0  0  0  0  0  0  0  0
   36.7476   29.8236   33.0390 H   0  0  0  0  0  0  0  0  0  0  0  0
   36.6010   24.4567   37.4295 H   0  0  0  0  0  0  0  0  0  0  0  0
   40.5673   21.6316   38.5398 H   0  0  0  0  0  0  0  0  0  0  0  0
   42.5462   23.0639   35.1175 H   0  0  0  0  0  0  0  0  0  0  0  0
  1  2  2  0
  2  3  1  0
  2 12  1  0
  4  3  2  0
  5  4  1  0
  6  5  2  0
  6  1  1  0
  7 11  1  0
  7  5  1  0
  8  7  1  0
  9  8  1  0
  9 10  1  0
 10 11  1  0
 12 20  1  0
 12 13  1  0
 13 14  2  0
 15 16  2  0
 15 14  1  0
 17 16  1  0
 18 17  2  0
 19 18  1  0
 19 20  2  0
 20 15  1  0
  1 21  1  0
  3 22  1  0
  8 23  1  0
  8 24  1  0
  9 25  1  0
  9 26  1  0
 10 27  1  0
 10 28  1  0
 11 29  1  0
 11 30  1  0
 13 31  1  0
 16 32  1  0
 18 33  1  0
M  ISO  8  21  14  22  14  23  13  24  13  25  13  26  13  27  13  28  13
M  ISO  5  29  13  30  13  31  14  32  14  33  14
M  END
>  <minimizedAffinity>  (1) 
-5.42930365

>  <minimizedRMSD>  (1) 
0.868865907

$$$$
