
     RDKit          3D

 30 33  0  0  0  0  0  0  0  0999 V2000
   37.7030   25.0140   34.3640 C   0  0  0  0  0  0  0  0  0  0  0  0
   38.1650   25.3950   35.6250 C   0  0  0  0  0  0  0  0  0  0  0  0
   38.1060   26.7360   35.9510 C   0  0  0  0  0  0  0  0  0  0  0  0
   37.6110   27.6270   35.0560 N   0  0  0  0  0  0  0  0  0  0  0  0
   37.1680   27.2300   33.8390 C   0  0  0  0  0  0  0  0  0  0  0  0
   37.2160   25.9430   33.5050 N   0  0  0  0  0  0  0  0  0  0  0  0
   38.6660   24.4380   36.5080 N   0  0  0  0  0  0  0  0  0  0  0  0
   38.1560   24.1580   37.7290 C   0  0  0  0  0  0  0  0  0  0  0  0
   38.8620   23.1810   38.3460 N   0  0  0  0  0  0  0  0  0  0  0  0
   39.8350   22.8410   37.4960 C   0  0  0  0  0  0  0  0  0  0  0  0
   40.8640   21.9200   37.5470 C   0  0  0  0  0  0  0  0  0  0  0  0
   41.7550   21.7400   36.5460 N   0  0  0  0  0  0  0  0  0  0  0  0
   41.5880   22.5320   35.4530 C   0  0  0  0  0  0  0  0  0  0  0  0
   40.5940   23.4160   35.4130 N   0  0  0  0  0  0  0  0  0  0  0  0
   39.7020   23.6230   36.3680 C   0  0  0  0  0  0  0  0  0  0  0  0
   36.6410   28.2190   32.9040 C   0  0  0  0  0  0  0  0  0  0  0  0
   35.7980   29.2240   33.3630 C   0  0  0  0  0  0  0  0  0  0  0  0
   35.2440   30.2080   32.5690 C   0  0  0  0  0  0  0  0  0  0  0  0
   35.5650   30.1730   31.2260 C   0  0  0  0  0  0  0  0  0  0  0  0
   36.4050   29.1760   30.7560 C   0  0  0  0  0  0  0  0  0  0  0  0
   36.9150   28.2390   31.5900 N   0  0  0  0  0  0  0  0  0  0  0  0
   37.7342   23.9556   34.0661 H   0  0  0  0  0  0  0  0  0  0  0  0
   38.4596   27.0805   36.9340 H   0  0  0  0  0  0  0  0  0  0  0  0
   37.2797   24.6598   38.1651 H   0  0  0  0  0  0  0  0  0  0  0  0
   40.9636   21.3002   38.4503 H   0  0  0  0  0  0  0  0  0  0  0  0
   42.2764   22.4416   34.5998 H   0  0  0  0  0  0  0  0  0  0  0  0
   35.5548   29.2363   34.4357 H   0  0  0  0  0  0  0  0  0  0  0  0
   34.5806   30.9807   32.9847 H   0  0  0  0  0  0  0  0  0  0  0  0
   35.1584   30.9281   30.5372 H   0  0  0  0  0  0  0  0  0  0  0  0
   36.6619   29.1453   29.6869 H   0  0  0  0  0  0  0  0  0  0  0  0
  1  2  2  0
  2  3  1  0
  2  7  1  0
  4  3  2  0
  5  4  1  0
  6  5  2  0
  6  1  1  0
  7  8  1  0
  8  9  2  0
 10 11  2  0
 10  9  1  0
 12 11  1  0
 13 12  2  0
 14 13  1  0
 14 15  2  0
 15  7  1  0
 15 10  1  0
 16 17  2  0
 16  5  1  0
 18 17  1  0
 19 18  2  0
 20 19  1  0
 20 21  2  0
 21 16  1  0
  1 22  1  0
  3 23  1  0
  8 24  1  0
 11 25  1  0
 13 26  1  0
 17 27  1  0
 18 28  1  0
 19 29  1  0
 20 30  1  0
M  ISO  8  22  14  23  14  24  14  25  14  26  14  27  14  28  14  29  14
M  ISO  1  30  14
M  END
>  <minimizedAffinity>  (1) 
-5.42019081

>  <minimizedRMSD>  (1) 
0.358078867

$$$$
