
     RDKit          3D

 27 29  0  0  0  0  0  0  0  0999 V2000
   41.8390   21.5190   34.0860 S   0  0  0  0  0  0  0  0  0  0  0  0
   40.4470   22.3980   37.7130 C   0  0  0  0  0  0  0  0  0  0  0  0
   39.2740   23.1290   37.4400 C   0  0  0  0  0  0  0  0  0  0  0  0
   38.9510   23.3260   36.1240 C   0  0  0  0  0  0  0  0  0  0  0  0
   39.7510   22.8240   35.1420 N   0  0  0  0  0  0  0  0  0  0  0  0
   40.8880   22.1160   35.4590 C   0  0  0  0  0  0  0  0  0  0  0  0
   41.2030   21.9240   36.7330 N   0  0  0  0  0  0  0  0  0  0  0  0
   38.3910   23.6830   38.4980 C   0  0  0  0  0  0  0  0  0  0  0  0
   39.1980   23.8790   39.6260 F   0  0  0  0  0  0  0  0  0  0  0  0
   37.3700   22.8790   38.8310 F   0  0  0  0  0  0  0  0  0  0  0  0
   38.0010   25.0000   38.1760 F   0  0  0  0  0  0  0  0  0  0  0  0
   43.5810   21.8210   34.3420 C   0  0  0  0  0  0  0  0  0  0  0  0
   43.9600   23.1820   34.5250 C   0  0  0  0  0  0  0  0  0  0  0  0
   45.8340   23.0340   34.7530 S   0  0  0  0  0  0  0  0  0  0  0  0
   45.6960   21.1770   34.5530 C   0  0  0  0  0  0  0  0  0  0  0  0
   44.6100   21.0410   34.3990 N   0  0  0  0  0  0  0  0  0  0  0  0
   46.9660   20.3810   34.6390 C   0  0  0  0  0  0  0  0  0  0  0  0
   47.1320   19.0390   34.7540 C   0  0  0  0  0  0  0  0  0  0  0  0
   48.4790   18.9220   34.7840 N   0  0  0  0  0  0  0  0  0  0  0  0
   49.0670   20.1360   34.6910 C   0  0  0  0  0  0  0  0  0  0  0  0
   48.0960   21.0900   34.5960 N   0  0  0  0  0  0  0  0  0  0  0  0
   40.7405   22.2175   38.7576 H   0  0  0  0  0  0  0  0  0  0  0  0
   38.0446   23.8902   35.8593 H   0  0  0  0  0  0  0  0  0  0  0  0
   43.3291   24.0831   34.5320 H   0  0  0  0  0  0  0  0  0  0  0  0
   46.3678   18.2497   34.8087 H   0  0  0  0  0  0  0  0  0  0  0  0
   50.1508   20.3239   34.6918 H   0  0  0  0  0  0  0  0  0  0  0  0
   48.2080   22.1104   34.5115 H   0  0  0  0  0  0  0  0  0  0  0  0
  1 12  1  0
  1  6  1  0
  3  2  2  0
  3  8  1  0
  4  3  1  0
  5  6  1  0
  5  4  2  0
  6  7  2  0
  7  2  1  0
  8 10  1  0
  8  9  1  0
 11  8  1  0
 12 16  1  0
 12 13  2  0
 13 14  1  0
 15 17  1  0
 15 14  1  0
 16 15  2  0
 17 18  2  0
 18 19  1  0
 20 19  2  0
 21 17  1  0
 21 20  1  0
  2 22  1  0
  4 23  1  0
 13 24  1  0
 18 25  1  0
 20 26  1  0
 21 27  1  0
M  ISO  6  22  14  23  14  24  14  25  14  26  14  27   9
M  END
>  <minimizedAffinity>  (1) 
-3.7318356

>  <minimizedRMSD>  (1) 
2.31966877

$$$$
