
     RDKit          3D

 27 30  0  0  0  0  0  0  0  0999 V2000
   37.6590   24.9810   34.3260 C   0  0  0  0  0  0  0  0  0  0  0  0
   38.1200   25.3760   35.5790 C   0  0  0  0  0  0  0  0  0  0  0  0
   38.0810   26.7350   35.8850 C   0  0  0  0  0  0  0  0  0  0  0  0
   37.6080   27.6210   34.9790 N   0  0  0  0  0  0  0  0  0  0  0  0
   37.1660   27.1860   33.7560 C   0  0  0  0  0  0  0  0  0  0  0  0
   37.1930   25.8940   33.4400 N   0  0  0  0  0  0  0  0  0  0  0  0
   36.6540   28.0460   32.7430 N   0  0  0  0  0  0  0  0  0  0  0  0
   35.5220   28.6960   32.4790 C   0  0  0  0  0  0  0  0  0  0  0  0
   35.6310   29.3710   31.3350 N   0  0  0  0  0  0  0  0  0  0  0  0
   36.8680   29.1430   30.8610 C   0  0  0  0  0  0  0  0  0  0  0  0
   37.5020   28.3170   31.7410 N   0  0  0  0  0  0  0  0  0  0  0  0
   38.6000   24.4460   36.4920 N   0  0  0  0  0  0  0  0  0  0  0  0
   38.1040   24.1680   37.7020 C   0  0  0  0  0  0  0  0  0  0  0  0
   38.7970   23.2190   38.3390 N   0  0  0  0  0  0  0  0  0  0  0  0
   39.7910   22.8640   37.5010 C   0  0  0  0  0  0  0  0  0  0  0  0
   40.8230   21.9550   37.5720 C   0  0  0  0  0  0  0  0  0  0  0  0
   41.7210   21.7630   36.5900 N   0  0  0  0  0  0  0  0  0  0  0  0
   41.5590   22.5340   35.4860 C   0  0  0  0  0  0  0  0  0  0  0  0
   40.5630   23.4130   35.4140 N   0  0  0  0  0  0  0  0  0  0  0  0
   39.6560   23.6350   36.3560 C   0  0  0  0  0  0  0  0  0  0  0  0
   37.6733   23.9157   34.0523 H   0  0  0  0  0  0  0  0  0  0  0  0
   38.4354   27.0877   36.8648 H   0  0  0  0  0  0  0  0  0  0  0  0
   34.6245   28.6783   33.1148 H   0  0  0  0  0  0  0  0  0  0  0  0
   37.2921   29.5495   29.9310 H   0  0  0  0  0  0  0  0  0  0  0  0
   37.2206   24.6666   38.1275 H   0  0  0  0  0  0  0  0  0  0  0  0
   40.9182   21.3504   38.4860 H   0  0  0  0  0  0  0  0  0  0  0  0
   42.2575   22.4316   34.6425 H   0  0  0  0  0  0  0  0  0  0  0  0
  1  2  2  0
  2  3  1  0
  2 12  1  0
  4  3  2  0
  5  4  1  0
  6  5  2  0
  6  1  1  0
  7  5  1  0
  8  7  1  0
  9  8  2  0
 10  9  1  0
 10 11  2  0
 11  7  1  0
 12 13  1  0
 13 14  2  0
 15 16  2  0
 15 14  1  0
 17 16  1  0
 18 17  2  0
 19 18  1  0
 19 20  2  0
 20 12  1  0
 20 15  1  0
  1 21  1  0
  3 22  1  0
  8 23  1  0
 10 24  1  0
 13 25  1  0
 16 26  1  0
 18 27  1  0
M  ISO  7  21  14  22  14  23  14  24  14  25  14  26  14  27  14
M  END
>  <minimizedAffinity>  (1) 
-5.34257746

>  <minimizedRMSD>  (1) 
0.367122144

$$$$
