
     RDKit          3D

 28 31  0  0  0  0  0  0  0  0999 V2000
   37.6630   25.0510   34.3460 C   0  0  0  0  0  0  0  0  0  0  0  0
   38.1430   25.4440   35.6000 C   0  0  0  0  0  0  0  0  0  0  0  0
   38.1310   26.7930   35.9170 C   0  0  0  0  0  0  0  0  0  0  0  0
   37.6590   27.6890   35.0160 N   0  0  0  0  0  0  0  0  0  0  0  0
   37.1980   27.2740   33.8020 C   0  0  0  0  0  0  0  0  0  0  0  0
   37.2030   25.9830   33.4790 N   0  0  0  0  0  0  0  0  0  0  0  0
   36.6880   28.1470   32.8000 N   0  0  0  0  0  0  0  0  0  0  0  0
   37.2040   28.4920   31.6070 C   0  0  0  0  0  0  0  0  0  0  0  0
   36.3280   29.3720   30.9960 C   0  0  0  0  0  0  0  0  0  0  0  0
   35.2760   29.5470   31.8480 N   0  0  0  0  0  0  0  0  0  0  0  0
   35.4980   28.7960   32.9540 C   0  0  0  0  0  0  0  0  0  0  0  0
   38.6210   24.4830   36.5020 N   0  0  0  0  0  0  0  0  0  0  0  0
   38.0930   24.2070   37.7110 C   0  0  0  0  0  0  0  0  0  0  0  0
   38.7710   23.2360   38.3440 N   0  0  0  0  0  0  0  0  0  0  0  0
   39.7610   22.8820   37.5120 C   0  0  0  0  0  0  0  0  0  0  0  0
   40.7840   21.9580   37.5730 C   0  0  0  0  0  0  0  0  0  0  0  0
   41.6900   21.7660   36.5940 N   0  0  0  0  0  0  0  0  0  0  0  0
   41.5470   22.5530   35.4990 C   0  0  0  0  0  0  0  0  0  0  0  0
   40.5570   23.4500   35.4370 N   0  0  0  0  0  0  0  0  0  0  0  0
   39.6500   23.6660   36.3760 C   0  0  0  0  0  0  0  0  0  0  0  0
   37.6595   23.9874   34.0654 H   0  0  0  0  0  0  0  0  0  0  0  0
   38.5024   27.1348   36.8944 H   0  0  0  0  0  0  0  0  0  0  0  0
   38.1574   28.1363   31.1892 H   0  0  0  0  0  0  0  0  0  0  0  0
   36.4554   29.8419   30.0096 H   0  0  0  0  0  0  0  0  0  0  0  0
   34.8324   28.7223   33.8267 H   0  0  0  0  0  0  0  0  0  0  0  0
   37.2121   24.7162   38.1291 H   0  0  0  0  0  0  0  0  0  0  0  0
   40.8652   21.3386   38.4784 H   0  0  0  0  0  0  0  0  0  0  0  0
   42.2486   22.4531   34.6577 H   0  0  0  0  0  0  0  0  0  0  0  0
  1  2  2  0
  2  3  1  0
  2 12  1  0
  4  3  2  0
  5  4  1  0
  6  5  2  0
  6  1  1  0
  7 11  1  0
  7  5  1  0
  8  7  1  0
  9  8  2  0
  9 10  1  0
 10 11  2  0
 12 13  1  0
 13 14  2  0
 15 16  2  0
 15 14  1  0
 17 16  1  0
 18 17  2  0
 19 18  1  0
 19 20  2  0
 20 12  1  0
 20 15  1  0
  1 21  1  0
  3 22  1  0
  8 23  1  0
  9 24  1  0
 11 25  1  0
 13 26  1  0
 16 27  1  0
 18 28  1  0
M  ISO  8  21  14  22  14  23  14  24  14  25  14  26  14  27  14  28  14
M  END
>  <minimizedAffinity>  (1) 
-5.32790518

>  <minimizedRMSD>  (1) 
0.297525257

$$$$
