
     RDKit          3D

 26 27  0  0  1  0  0  0  0  0999 V2000
   38.6640   25.9810   34.9770 C   0  0  2  0  0  0  0  0  0  0  0  0
   39.5850   23.0530   36.9820 C   0  0  0  0  0  0  0  0  0  0  0  0
   38.8110   23.2040   38.1740 C   0  0  0  0  0  0  0  0  0  0  0  0
   37.9710   24.3270   38.2750 C   0  0  0  0  0  0  0  0  0  0  0  0
   37.9720   25.1890   37.2040 N   0  0  0  0  0  0  0  0  0  0  0  0
   38.7090   25.0180   36.1030 C   0  0  0  0  0  0  0  0  0  0  0  0
   39.5110   23.9520   35.9980 N   0  0  0  0  0  0  0  0  0  0  0  0
   39.9820   26.7180   34.9310 C   0  0  0  0  0  0  0  0  0  0  0  0
   37.5750   27.0160   35.1320 C   0  0  0  0  0  0  0  0  0  0  0  0
   36.8850   27.2020   33.8160 C   0  0  0  0  0  0  0  0  0  0  0  0
   36.2130   28.4060   33.6940 C   0  0  0  0  0  0  0  0  0  0  0  0
   35.6300   28.4380   32.4390 C   0  0  0  0  0  0  0  0  0  0  0  0
   35.9750   27.2540   31.8580 N   0  0  0  0  0  0  0  0  0  0  0  0
   36.7090   26.5190   32.6500 N   0  0  0  0  0  0  0  0  0  0  0  0
   38.4640   25.4049   34.0615 H   0  0  0  0  0  0  0  0  0  0  0  0
   40.2508   22.1841   36.8740 H   0  0  0  0  0  0  0  0  0  0  0  0
   38.8706   22.4650   38.9867 H   0  0  0  0  0  0  0  0  0  0  0  0
   37.3468   24.5062   39.1629 H   0  0  0  0  0  0  0  0  0  0  0  0
   40.3294   26.9123   35.9564 H   0  0  0  0  0  0  0  0  0  0  0  0
   40.7265   26.1053   34.4015 H   0  0  0  0  0  0  0  0  0  0  0  0
   39.8498   27.6731   34.4015 H   0  0  0  0  0  0  0  0  0  0  0  0
   36.8480   26.6760   35.8843 H   0  0  0  0  0  0  0  0  0  0  0  0
   38.0143   27.9702   35.4583 H   0  0  0  0  0  0  0  0  0  0  0  0
   36.1530   29.1957   34.4574 H   0  0  0  0  0  0  0  0  0  0  0  0
   35.0204   29.2441   32.0046 H   0  0  0  0  0  0  0  0  0  0  0  0
   35.6910   26.9728   30.9087 H   0  0  0  0  0  0  0  0  0  0  0  0
  1  9  1  0
  1  6  1  0
  2  3  2  0
  3  4  1  0
  5  4  2  0
  6  5  1  0
  7  6  2  0
  7  2  1  0
  8  1  1  0
 10  9  1  0
 11 10  1  0
 12 11  2  0
 13 12  1  0
 13 14  1  0
 14 10  2  0
  1 15  1  6
  2 16  1  0
  3 17  1  0
  4 18  1  0
  8 19  1  0
  8 20  1  0
  8 21  1  0
  9 22  1  0
  9 23  1  0
 11 24  1  0
 12 25  1  0
 13 26  1  0
M  ISO  8  15   8  16  14  17  14  18  14  19   8  20   8  21   8  22   8
M  ISO  4  23   8  24  14  25  14  26   9
M  END
>  <minimizedAffinity>  (1) 
-4.10211229

>  <minimizedRMSD>  (1) 
1.27209961

$$$$
