
     RDKit          3D

 29 30  0  0  0  0  0  0  0  0999 V2000
   40.4600   22.4140   37.7130 C   0  0  0  0  0  0  0  0  0  0  0  0
   39.2880   23.1450   37.4440 C   0  0  0  0  0  0  0  0  0  0  0  0
   38.9770   23.3680   36.1180 C   0  0  0  0  0  0  0  0  0  0  0  0
   39.7930   22.8880   35.1320 N   0  0  0  0  0  0  0  0  0  0  0  0
   40.9170   22.1860   35.4410 C   0  0  0  0  0  0  0  0  0  0  0  0
   41.2220   21.9670   36.7220 N   0  0  0  0  0  0  0  0  0  0  0  0
   38.4080   23.6630   38.5190 C   0  0  0  0  0  0  0  0  0  0  0  0
   39.2010   23.8640   39.6420 F   0  0  0  0  0  0  0  0  0  0  0  0
   37.3910   22.8320   38.8340 F   0  0  0  0  0  0  0  0  0  0  0  0
   37.9660   24.9720   38.1900 F   0  0  0  0  0  0  0  0  0  0  0  0
   41.9250   21.5950   34.0980 S   0  0  0  0  0  0  0  0  0  0  0  0
   43.3220   22.6940   33.8490 C   0  0  0  0  0  0  0  0  0  0  0  0
   43.0380   24.0500   33.6260 C   0  0  0  0  0  0  0  0  0  0  0  0
   44.7640   24.7970   33.4240 S   0  0  0  0  0  0  0  0  0  0  0  0
   45.5070   23.0780   33.6910 C   0  0  0  0  0  0  0  0  0  0  0  0
   44.5960   22.4690   33.8350 N   0  0  0  0  0  0  0  0  0  0  0  0
   47.0120   22.8480   33.6680 C   0  0  0  0  0  0  0  0  0  0  0  0
   47.2390   21.3660   33.8400 C   0  0  0  0  0  0  0  0  0  0  0  0
   47.6660   23.6220   34.7890 C   0  0  0  0  0  0  0  0  0  0  0  0
   40.7477   22.2109   38.7551 H   0  0  0  0  0  0  0  0  0  0  0  0
   38.0708   23.9330   35.8541 H   0  0  0  0  0  0  0  0  0  0  0  0
   42.0599   24.5513   33.5803 H   0  0  0  0  0  0  0  0  0  0  0  0
   47.4524   23.1945   32.7214 H   0  0  0  0  0  0  0  0  0  0  0  0
   47.2763   21.1228   34.9121 H   0  0  0  0  0  0  0  0  0  0  0  0
   46.4153   20.8115   33.3666 H   0  0  0  0  0  0  0  0  0  0  0  0
   48.1909   21.0835   33.3666 H   0  0  0  0  0  0  0  0  0  0  0  0
   47.3281   23.2221   35.7565 H   0  0  0  0  0  0  0  0  0  0  0  0
   48.7590   23.5240   34.7133 H   0  0  0  0  0  0  0  0  0  0  0  0
   47.3869   24.6833   34.7133 H   0  0  0  0  0  0  0  0  0  0  0  0
  2  1  2  0
  2  7  1  0
  3  2  1  0
  4  5  1  0
  4  3  2  0
  5  6  2  0
  6  1  1  0
  7  9  1  0
  7  8  1  0
 10  7  1  0
 11  5  1  0
 12 11  1  0
 13 12  2  0
 14 13  1  0
 14 15  1  0
 15 16  2  0
 16 12  1  0
 17 15  1  0
 17 18  1  0
 17 19  1  0
  1 20  1  0
  3 21  1  0
 13 22  1  0
 17 23  1  0
 18 24  1  0
 18 25  1  0
 18 26  1  0
 19 27  1  0
 19 28  1  0
 19 29  1  0
M  ISO  8  20  14  21  14  22  14  23   8  24   8  25   8  26   8  27   8
M  ISO  2  28   8  29   8
M  END
>  <minimizedAffinity>  (1) 
-3.69109941

>  <minimizedRMSD>  (1) 
0.858122706

$$$$
