
     RDKit          3D

 24 26  0  0  0  0  0  0  0  0999 V2000
   38.6140   24.4550   36.5110 N   0  0  0  0  0  0  0  0  0  0  0  0
   38.1220   24.1710   37.7250 C   0  0  0  0  0  0  0  0  0  0  0  0
   38.8270   23.2040   38.3450 N   0  0  0  0  0  0  0  0  0  0  0  0
   39.8110   22.8590   37.4860 C   0  0  0  0  0  0  0  0  0  0  0  0
   40.8370   21.9490   37.5350 C   0  0  0  0  0  0  0  0  0  0  0  0
   41.7270   21.7650   36.5370 N   0  0  0  0  0  0  0  0  0  0  0  0
   41.5550   22.5480   35.4470 C   0  0  0  0  0  0  0  0  0  0  0  0
   40.5520   23.4290   35.4120 N   0  0  0  0  0  0  0  0  0  0  0  0
   39.6620   23.6420   36.3610 C   0  0  0  0  0  0  0  0  0  0  0  0
   37.6540   25.0070   34.3460 C   0  0  0  0  0  0  0  0  0  0  0  0
   38.1170   25.4020   35.6170 C   0  0  0  0  0  0  0  0  0  0  0  0
   38.0590   26.7440   35.9350 C   0  0  0  0  0  0  0  0  0  0  0  0
   37.5640   27.6300   35.0250 N   0  0  0  0  0  0  0  0  0  0  0  0
   37.1290   27.2120   33.8150 C   0  0  0  0  0  0  0  0  0  0  0  0
   37.1720   25.9130   33.4730 N   0  0  0  0  0  0  0  0  0  0  0  0
   36.5930   28.2140   32.8430 C   0  0  0  0  0  0  0  0  0  0  0  0
   35.5100   27.6590   32.2110 F   0  0  0  0  0  0  0  0  0  0  0  0
   36.1890   29.3580   33.5410 F   0  0  0  0  0  0  0  0  0  0  0  0
   37.5540   28.5980   31.9570 F   0  0  0  0  0  0  0  0  0  0  0  0
   37.2450   24.6691   38.1641 H   0  0  0  0  0  0  0  0  0  0  0  0
   40.9402   21.3334   38.4407 H   0  0  0  0  0  0  0  0  0  0  0  0
   42.2402   22.4590   34.5911 H   0  0  0  0  0  0  0  0  0  0  0  0
   37.6865   23.9446   34.0628 H   0  0  0  0  0  0  0  0  0  0  0  0
   38.4099   27.0961   36.9163 H   0  0  0  0  0  0  0  0  0  0  0  0
  1  2  1  0
  2  3  2  0
  4  5  2  0
  4  3  1  0
  6  5  1  0
  7  6  2  0
  8  7  1  0
  8  9  2  0
  9  1  1  0
  9  4  1  0
 10 11  2  0
 11 12  1  0
 11  1  1  0
 13 12  2  0
 14 13  1  0
 15 14  2  0
 15 10  1  0
 16 18  1  0
 16 14  1  0
 17 16  1  0
 19 16  1  0
  2 20  1  0
  5 21  1  0
  7 22  1  0
 10 23  1  0
 12 24  1  0
M  ISO  5  20  14  21  14  22  14  23  14  24  14
M  END
>  <minimizedAffinity>  (1) 
-4.96542311

>  <minimizedRMSD>  (1) 
0.358206958

$$$$
