
     RDKit          3D

 27 29  0  0  0  0  0  0  0  0999 V2000
   38.6450   24.4470   36.5420 N   0  0  0  0  0  0  0  0  0  0  0  0
   38.1550   24.1430   37.7660 C   0  0  0  0  0  0  0  0  0  0  0  0
   38.8640   23.1700   38.3570 N   0  0  0  0  0  0  0  0  0  0  0  0
   39.8370   22.8360   37.4900 C   0  0  0  0  0  0  0  0  0  0  0  0
   40.8690   21.9210   37.5130 C   0  0  0  0  0  0  0  0  0  0  0  0
   41.7430   21.7590   36.5040 N   0  0  0  0  0  0  0  0  0  0  0  0
   41.5640   22.5650   35.4190 C   0  0  0  0  0  0  0  0  0  0  0  0
   40.5690   23.4450   35.4010 N   0  0  0  0  0  0  0  0  0  0  0  0
   39.6830   23.6370   36.3790 C   0  0  0  0  0  0  0  0  0  0  0  0
   37.6430   25.0320   34.4120 C   0  0  0  0  0  0  0  0  0  0  0  0
   38.1340   25.4130   35.6750 C   0  0  0  0  0  0  0  0  0  0  0  0
   38.0940   26.7570   36.0270 C   0  0  0  0  0  0  0  0  0  0  0  0
   37.5840   27.6470   35.1390 N   0  0  0  0  0  0  0  0  0  0  0  0
   37.1160   27.2520   33.9240 C   0  0  0  0  0  0  0  0  0  0  0  0
   37.1460   25.9690   33.5670 N   0  0  0  0  0  0  0  0  0  0  0  0
   36.5900   28.3570   33.0680 C   0  0  0  0  0  0  0  0  0  0  0  0
   35.7210   29.2090   33.9890 C   0  0  0  0  0  0  0  0  0  0  0  0
   37.2819   24.6339   38.2207 H   0  0  0  0  0  0  0  0  0  0  0  0
   40.9833   21.2890   38.4060 H   0  0  0  0  0  0  0  0  0  0  0  0
   42.2440   22.4865   34.5579 H   0  0  0  0  0  0  0  0  0  0  0  0
   37.6624   23.9743   34.1105 H   0  0  0  0  0  0  0  0  0  0  0  0
   38.4682   27.0922   37.0056 H   0  0  0  0  0  0  0  0  0  0  0  0
   37.4184   28.9547   32.6600 H   0  0  0  0  0  0  0  0  0  0  0  0
   36.0193   27.9719   32.2101 H   0  0  0  0  0  0  0  0  0  0  0  0
   35.9591   28.9755   35.0372 H   0  0  0  0  0  0  0  0  0  0  0  0
   35.9176   30.2741   33.7968 H   0  0  0  0  0  0  0  0  0  0  0  0
   34.6600   28.9914   33.7968 H   0  0  0  0  0  0  0  0  0  0  0  0
  1  2  1  0
  2  3  2  0
  4  5  2  0
  4  3  1  0
  6  5  1  0
  7  6  2  0
  8  7  1  0
  8  9  2  0
  9  1  1  0
  9  4  1  0
 10 11  2  0
 11 12  1  0
 11  1  1  0
 13 12  2  0
 14 13  1  0
 15 14  2  0
 15 10  1  0
 16 14  1  0
 16 17  1  0
  2 18  1  0
  5 19  1  0
  7 20  1  0
 10 21  1  0
 12 22  1  0
 16 23  1  0
 16 24  1  0
 17 25  1  0
 17 26  1  0
 17 27  1  0
M  ISO  8  18  14  19  14  20  14  21  14  22  14  23   8  24   8  25   8
M  ISO  2  26   8  27   8
M  END
>  <minimizedAffinity>  (1) 
-4.57763863

>  <minimizedRMSD>  (1) 
0.464049667

$$$$
