
     RDKit          3D

 24 26  0  0  0  0  0  0  0  0999 V2000
   38.6290   24.4580   36.5440 N   0  0  0  0  0  0  0  0  0  0  0  0
   38.1340   24.1570   37.7490 C   0  0  0  0  0  0  0  0  0  0  0  0
   38.8310   23.1850   38.3510 N   0  0  0  0  0  0  0  0  0  0  0  0
   39.8100   22.8480   37.5020 C   0  0  0  0  0  0  0  0  0  0  0  0
   40.8460   21.9310   37.5260 C   0  0  0  0  0  0  0  0  0  0  0  0
   41.7300   21.7610   36.5360 N   0  0  0  0  0  0  0  0  0  0  0  0
   41.5650   22.5620   35.4520 C   0  0  0  0  0  0  0  0  0  0  0  0
   40.5680   23.4490   35.4220 N   0  0  0  0  0  0  0  0  0  0  0  0
   39.6730   23.6430   36.3880 C   0  0  0  0  0  0  0  0  0  0  0  0
   37.6520   25.0390   34.3960 C   0  0  0  0  0  0  0  0  0  0  0  0
   38.1360   25.4200   35.6660 C   0  0  0  0  0  0  0  0  0  0  0  0
   38.1040   26.7650   35.9990 C   0  0  0  0  0  0  0  0  0  0  0  0
   37.6160   27.6730   35.1150 N   0  0  0  0  0  0  0  0  0  0  0  0
   37.1550   27.2710   33.8970 C   0  0  0  0  0  0  0  0  0  0  0  0
   37.1740   25.9840   33.5490 N   0  0  0  0  0  0  0  0  0  0  0  0
   36.6210   28.2840   32.9350 C   0  0  0  0  0  0  0  0  0  0  0  0
   37.2570   24.6500   38.1937 H   0  0  0  0  0  0  0  0  0  0  0  0
   40.9499   21.2986   38.4200 H   0  0  0  0  0  0  0  0  0  0  0  0
   42.2534   22.4798   34.5980 H   0  0  0  0  0  0  0  0  0  0  0  0
   37.6625   23.9811   34.0949 H   0  0  0  0  0  0  0  0  0  0  0  0
   38.4742   27.0972   36.9801 H   0  0  0  0  0  0  0  0  0  0  0  0
   36.1790   29.1225   33.4932 H   0  0  0  0  0  0  0  0  0  0  0  0
   37.4401   28.6561   32.3021 H   0  0  0  0  0  0  0  0  0  0  0  0
   35.8511   27.8185   32.3021 H   0  0  0  0  0  0  0  0  0  0  0  0
  1  2  1  0
  2  3  2  0
  4  5  2  0
  4  3  1  0
  6  5  1  0
  7  6  2  0
  8  7  1  0
  8  9  2  0
  9  1  1  0
  9  4  1  0
 10 11  2  0
 11 12  1  0
 11  1  1  0
 13 12  2  0
 14 13  1  0
 15 14  2  0
 15 10  1  0
 16 14  1  0
  2 17  1  0
  5 18  1  0
  7 19  1  0
 10 20  1  0
 12 21  1  0
 16 22  1  0
 16 23  1  0
 16 24  1  0
M  ISO  8  17  14  18  14  19  14  20  14  21  14  22   8  23   8  24   8
M  END
>  <minimizedAffinity>  (1) 
-4.4784627

>  <minimizedRMSD>  (1) 
0.175280273

$$$$
