
     RDKit          3D

 22 24  0  0  0  0  0  0  0  0999 V2000
   38.6410   24.5150   36.6120 N   0  0  0  0  0  0  0  0  0  0  0  0
   38.1380   24.1820   37.8070 C   0  0  0  0  0  0  0  0  0  0  0  0
   38.8200   23.1710   38.3780 N   0  0  0  0  0  0  0  0  0  0  0  0
   39.8020   22.8480   37.5050 C   0  0  0  0  0  0  0  0  0  0  0  0
   40.8120   21.9090   37.5160 C   0  0  0  0  0  0  0  0  0  0  0  0
   41.6980   21.7590   36.5150 N   0  0  0  0  0  0  0  0  0  0  0  0
   41.5480   22.6060   35.4570 C   0  0  0  0  0  0  0  0  0  0  0  0
   40.5690   23.5110   35.4540 N   0  0  0  0  0  0  0  0  0  0  0  0
   39.6750   23.6890   36.4200 C   0  0  0  0  0  0  0  0  0  0  0  0
   37.6270   25.1840   34.5070 C   0  0  0  0  0  0  0  0  0  0  0  0
   38.1670   25.5200   35.7630 C   0  0  0  0  0  0  0  0  0  0  0  0
   38.2180   26.8630   36.1290 C   0  0  0  0  0  0  0  0  0  0  0  0
   37.7470   27.7950   35.2700 N   0  0  0  0  0  0  0  0  0  0  0  0
   37.2290   27.4490   34.0660 C   0  0  0  0  0  0  0  0  0  0  0  0
   37.1700   26.1560   33.6870 N   0  0  0  0  0  0  0  0  0  0  0  0
   36.7280   28.3460   33.1340 O   0  0  0  0  0  0  0  0  0  0  0  0
   37.2700   24.6759   38.2681 H   0  0  0  0  0  0  0  0  0  0  0  0
   40.8977   21.2471   38.3904 H   0  0  0  0  0  0  0  0  0  0  0  0
   42.2376   22.5423   34.6024 H   0  0  0  0  0  0  0  0  0  0  0  0
   37.5771   24.1309   34.1933 H   0  0  0  0  0  0  0  0  0  0  0  0
   38.6352   27.1609   37.1022 H   0  0  0  0  0  0  0  0  0  0  0  0
   36.3652   28.0155   32.2742 H   0  0  0  0  0  0  0  0  0  0  0  0
  1  2  1  0
  2  3  2  0
  4  5  2  0
  4  3  1  0
  6  5  1  0
  7  6  2  0
  8  7  1  0
  8  9  2  0
  9  1  1  0
  9  4  1  0
 10 11  2  0
 11 12  1  0
 11  1  1  0
 13 12  2  0
 14 13  1  0
 15 14  2  0
 15 10  1  0
 16 14  1  0
  2 17  1  0
  5 18  1  0
  7 19  1  0
 10 20  1  0
 12 21  1  0
 16 22  1  0
M  ISO  6  17  14  18  14  19  14  20  14  21  14  22   3
M  END
>  <minimizedAffinity>  (1) 
-4.39955091

>  <minimizedRMSD>  (1) 
0.0238371976

$$$$
