
     RDKit          3D

 23 25  0  0  0  0  0  0  0  0999 V2000
   38.6340   24.4630   36.5230 N   0  0  0  0  0  0  0  0  0  0  0  0
   38.1220   24.1740   37.7420 C   0  0  0  0  0  0  0  0  0  0  0  0
   38.8380   23.1910   38.3380 N   0  0  0  0  0  0  0  0  0  0  0  0
   39.8080   22.8570   37.4880 C   0  0  0  0  0  0  0  0  0  0  0  0
   40.8250   21.9400   37.5380 C   0  0  0  0  0  0  0  0  0  0  0  0
   41.7230   21.7620   36.5360 N   0  0  0  0  0  0  0  0  0  0  0  0
   41.5580   22.5620   35.4490 C   0  0  0  0  0  0  0  0  0  0  0  0
   40.5630   23.4510   35.4160 N   0  0  0  0  0  0  0  0  0  0  0  0
   39.6710   23.6500   36.3740 C   0  0  0  0  0  0  0  0  0  0  0  0
   37.6570   25.0620   34.3860 C   0  0  0  0  0  0  0  0  0  0  0  0
   38.1380   25.4300   35.6380 C   0  0  0  0  0  0  0  0  0  0  0  0
   38.1130   26.7790   35.9900 C   0  0  0  0  0  0  0  0  0  0  0  0
   37.6180   27.6670   35.0850 N   0  0  0  0  0  0  0  0  0  0  0  0
   37.1580   27.2830   33.8740 C   0  0  0  0  0  0  0  0  0  0  0  0
   37.1790   25.9790   33.5290 N   0  0  0  0  0  0  0  0  0  0  0  0
   36.6630   28.3170   33.0160 N   0  0  0  0  0  0  0  0  0  0  0  0
   37.2460   24.6688   38.1869 H   0  0  0  0  0  0  0  0  0  0  0  0
   40.9186   21.3148   38.4382 H   0  0  0  0  0  0  0  0  0  0  0  0
   42.2460   22.4763   34.5950 H   0  0  0  0  0  0  0  0  0  0  0  0
   37.6683   24.0019   34.0927 H   0  0  0  0  0  0  0  0  0  0  0  0
   38.4823   27.1155   36.9700 H   0  0  0  0  0  0  0  0  0  0  0  0
   36.3002   28.0809   32.0814 H   0  0  0  0  0  0  0  0  0  0  0  0
   36.6698   29.2968   33.3335 H   0  0  0  0  0  0  0  0  0  0  0  0
  1  2  1  0
  2  3  2  0
  4  5  2  0
  4  3  1  0
  6  5  1  0
  7  6  2  0
  8  7  1  0
  8  9  2  0
  9  1  1  0
  9  4  1  0
 10 11  2  0
 11 12  1  0
 11  1  1  0
 13 12  2  0
 14 13  1  0
 15 14  2  0
 15 10  1  0
 16 14  1  0
  2 17  1  0
  5 18  1  0
  7 19  1  0
 10 20  1  0
 12 21  1  0
 16 22  1  0
 16 23  1  0
M  ISO  5  17  14  18  14  19  14  20  14  21  14
M  END
>  <minimizedAffinity>  (1) 
-4.39233351

>  <minimizedRMSD>  (1) 
0.181043133

$$$$
