
     RDKit          3D

 22 24  0  0  0  0  0  0  0  0999 V2000
   38.6510   24.4590   36.5050 N   0  0  0  0  0  0  0  0  0  0  0  0
   38.1430   24.1620   37.7260 C   0  0  0  0  0  0  0  0  0  0  0  0
   38.8360   23.1890   38.3400 N   0  0  0  0  0  0  0  0  0  0  0  0
   39.8210   22.8530   37.4800 C   0  0  0  0  0  0  0  0  0  0  0  0
   40.8410   21.9290   37.5400 C   0  0  0  0  0  0  0  0  0  0  0  0
   41.7340   21.7570   36.5400 N   0  0  0  0  0  0  0  0  0  0  0  0
   41.5730   22.5540   35.4550 C   0  0  0  0  0  0  0  0  0  0  0  0
   40.5820   23.4450   35.4070 N   0  0  0  0  0  0  0  0  0  0  0  0
   39.6910   23.6410   36.3620 C   0  0  0  0  0  0  0  0  0  0  0  0
   37.6800   25.0400   34.3670 C   0  0  0  0  0  0  0  0  0  0  0  0
   38.1560   25.4180   35.6310 C   0  0  0  0  0  0  0  0  0  0  0  0
   38.1120   26.7590   35.9610 C   0  0  0  0  0  0  0  0  0  0  0  0
   37.6200   27.6570   35.0740 N   0  0  0  0  0  0  0  0  0  0  0  0
   37.1670   27.2590   33.8590 C   0  0  0  0  0  0  0  0  0  0  0  0
   37.1950   25.9590   33.5040 N   0  0  0  0  0  0  0  0  0  0  0  0
   36.5020   28.3660   32.6250 S   0  0  0  0  0  0  0  0  0  0  0  0
   37.2651   24.6600   38.1633 H   0  0  0  0  0  0  0  0  0  0  0  0
   40.9327   21.3042   38.4406 H   0  0  0  0  0  0  0  0  0  0  0  0
   42.2667   22.4647   34.6060 H   0  0  0  0  0  0  0  0  0  0  0  0
   37.7020   23.9799   34.0742 H   0  0  0  0  0  0  0  0  0  0  0  0
   38.4759   27.0969   36.9425 H   0  0  0  0  0  0  0  0  0  0  0  0
   35.8725   29.4140   33.2434 H   0  0  0  0  0  0  0  0  0  0  0  0
  1  2  1  0
  2  3  2  0
  4  5  2  0
  4  3  1  0
  6  5  1  0
  7  6  2  0
  8  7  1  0
  8  9  2  0
  9  1  1  0
  9  4  1  0
 10 11  2  0
 11 12  1  0
 11  1  1  0
 13 12  2  0
 14 13  1  0
 15 14  2  0
 15 10  1  0
 16 14  1  0
  2 17  1  0
  5 18  1  0
  7 19  1  0
 10 20  1  0
 12 21  1  0
 16 22  1  0
M  ISO  6  17  14  18  14  19  14  20  14  21  14  22  11
M  END
>  <minimizedAffinity>  (1) 
-4.41742182

>  <minimizedRMSD>  (1) 
0.201973602

$$$$
