
     RDKit          3D

 36 40  0  0  0  0  0  0  0  0999 V2000
   37.6290   25.0950   34.5080 C   0  0  0  0  0  0  0  0  0  0  0  0
   38.1800   25.4230   35.7440 C   0  0  0  0  0  0  0  0  0  0  0  0
   38.2030   26.7670   36.1000 C   0  0  0  0  0  0  0  0  0  0  0  0
   37.7040   27.7080   35.2640 N   0  0  0  0  0  0  0  0  0  0  0  0
   37.1730   27.3490   34.0650 C   0  0  0  0  0  0  0  0  0  0  0  0
   37.1350   26.0530   33.6900 N   0  0  0  0  0  0  0  0  0  0  0  0
   38.6880   24.4440   36.5850 N   0  0  0  0  0  0  0  0  0  0  0  0
   38.2220   24.1180   37.8070 C   0  0  0  0  0  0  0  0  0  0  0  0
   38.9360   23.1240   38.3680 N   0  0  0  0  0  0  0  0  0  0  0  0
   39.8820   22.8110   37.4720 C   0  0  0  0  0  0  0  0  0  0  0  0
   40.8980   21.8820   37.4780 C   0  0  0  0  0  0  0  0  0  0  0  0
   41.7640   21.7320   36.4380 N   0  0  0  0  0  0  0  0  0  0  0  0
   41.5710   22.5570   35.3790 C   0  0  0  0  0  0  0  0  0  0  0  0
   40.5860   23.4520   35.3830 N   0  0  0  0  0  0  0  0  0  0  0  0
   39.7270   23.6280   36.3730 C   0  0  0  0  0  0  0  0  0  0  0  0
   36.4890   28.4800   32.8770 S   0  0  0  0  0  0  0  0  0  0  0  0
   35.0900   29.3780   33.4730 C   0  0  0  0  0  0  0  0  0  0  0  0
   33.8390   29.2260   32.9100 C   0  0  0  0  0  0  0  0  0  0  0  0
   32.9900   30.0260   33.5640 N   0  0  0  0  0  0  0  0  0  0  0  0
   33.5990   30.7160   34.5440 C   0  0  0  0  0  0  0  0  0  0  0  0
   33.2970   31.6450   35.5170 C   0  0  0  0  0  0  0  0  0  0  0  0
   34.2480   32.1390   36.3800 C   0  0  0  0  0  0  0  0  0  0  0  0
   35.5660   31.7240   36.3120 C   0  0  0  0  0  0  0  0  0  0  0  0
   35.8660   30.7960   35.3410 C   0  0  0  0  0  0  0  0  0  0  0  0
   34.9120   30.3010   34.4770 C   0  0  0  0  0  0  0  0  0  0  0  0
   37.5948   24.0419   34.1920 H   0  0  0  0  0  0  0  0  0  0  0  0
   38.6298   27.0680   37.0681 H   0  0  0  0  0  0  0  0  0  0  0  0
   37.3614   24.6057   38.2883 H   0  0  0  0  0  0  0  0  0  0  0  0
   41.0150   21.2342   38.3593 H   0  0  0  0  0  0  0  0  0  0  0  0
   42.2366   22.4855   34.5062 H   0  0  0  0  0  0  0  0  0  0  0  0
   33.5847   28.5627   32.0701 H   0  0  0  0  0  0  0  0  0  0  0  0
   31.9871   30.1043   33.3428 H   0  0  0  0  0  0  0  0  0  0  0  0
   32.2608   32.0033   35.6064 H   0  0  0  0  0  0  0  0  0  0  0  0
   33.9544   32.8788   37.1393 H   0  0  0  0  0  0  0  0  0  0  0  0
   36.3328   32.1147   36.9971 H   0  0  0  0  0  0  0  0  0  0  0  0
   36.9019   30.4370   35.2510 H   0  0  0  0  0  0  0  0  0  0  0  0
  1  2  2  0
  2  3  1  0
  2  7  1  0
  4  3  2  0
  5  4  1  0
  6  5  2  0
  6  1  1  0
  7  8  1  0
  8  9  2  0
 10 11  2  0
 10  9  1  0
 12 11  1  0
 13 14  1  0
 13 12  2  0
 14 15  2  0
 15  7  1  0
 15 10  1  0
 16 17  1  0
 16  5  1  0
 17 25  1  0
 18 17  2  0
 18 19  1  0
 19 20  1  0
 20 21  2  0
 21 22  1  0
 23 22  2  0
 24 23  1  0
 25 20  1  0
 25 24  2  0
  1 26  1  0
  3 27  1  0
  8 28  1  0
 11 29  1  0
 13 30  1  0
 18 31  1  0
 19 32  1  0
 21 33  1  0
 22 34  1  0
 23 35  1  0
 24 36  1  0
M  ISO  8  26  14  27  14  28  14  29  14  30  14  31  14  32   9  33  14
M  ISO  3  34  14  35  14  36  14
M  END
>  <minimizedAffinity>  (1) 
-6.26362038

>  <minimizedRMSD>  (1) 
1.39833951

$$$$
