
     RDKit          3D

 38 42  0  0  0  0  0  0  0  0999 V2000
   37.9410   23.8890   33.8310 C   0  0  0  0  0  0  0  0  0  0  0  0
   38.1620   24.5210   35.0550 C   0  0  0  0  0  0  0  0  0  0  0  0
   37.7560   25.8400   35.1810 C   0  0  0  0  0  0  0  0  0  0  0  0
   37.1670   26.4620   34.1310 N   0  0  0  0  0  0  0  0  0  0  0  0
   36.9710   25.8110   32.9570 C   0  0  0  0  0  0  0  0  0  0  0  0
   37.3510   24.5360   32.8030 N   0  0  0  0  0  0  0  0  0  0  0  0
   38.7710   23.8490   36.1130 N   0  0  0  0  0  0  0  0  0  0  0  0
   38.3750   23.8690   37.4000 C   0  0  0  0  0  0  0  0  0  0  0  0
   39.1660   23.1190   38.1860 N   0  0  0  0  0  0  0  0  0  0  0  0
   40.1000   22.6030   37.3610 C   0  0  0  0  0  0  0  0  0  0  0  0
   41.1640   21.7680   37.5820 C   0  0  0  0  0  0  0  0  0  0  0  0
   41.9930   21.3650   36.5830 N   0  0  0  0  0  0  0  0  0  0  0  0
   41.7040   21.8390   35.3480 C   0  0  0  0  0  0  0  0  0  0  0  0
   40.6680   22.6490   35.1450 N   0  0  0  0  0  0  0  0  0  0  0  0
   39.8420   23.0590   36.0960 C   0  0  0  0  0  0  0  0  0  0  0  0
   36.2010   26.5590   31.5240 S   0  0  0  0  0  0  0  0  0  0  0  0
   36.1510   28.3470   31.6910 C   0  0  0  0  0  0  0  0  0  0  0  0
   35.6070   28.9710   32.8020 C   0  0  0  0  0  0  0  0  0  0  0  0
   35.5590   30.3420   32.9490 C   0  0  0  0  0  0  0  0  0  0  0  0
   36.0900   31.0930   31.9160 C   0  0  0  0  0  0  0  0  0  0  0  0
   36.6410   30.5150   30.7920 C   0  0  0  0  0  0  0  0  0  0  0  0
   37.1590   31.3320   29.7870 C   0  0  0  0  0  0  0  0  0  0  0  0
   37.7100   30.7360   28.6610 C   0  0  0  0  0  0  0  0  0  0  0  0
   37.7370   29.3480   28.5550 C   0  0  0  0  0  0  0  0  0  0  0  0
   37.2220   28.5450   29.5550 C   0  0  0  0  0  0  0  0  0  0  0  0
   36.6690   29.1450   30.6860 C   0  0  0  0  0  0  0  0  0  0  0  0
   38.2537   22.8425   33.7007 H   0  0  0  0  0  0  0  0  0  0  0  0
   37.9109   26.3787   36.1275 H   0  0  0  0  0  0  0  0  0  0  0  0
   37.5048   24.4339   37.7656 H   0  0  0  0  0  0  0  0  0  0  0  0
   41.3540   21.4110   38.6049 H   0  0  0  0  0  0  0  0  0  0  0  0
   42.3374   21.5491   34.4967 H   0  0  0  0  0  0  0  0  0  0  0  0
   35.1936   28.3434   33.6052 H   0  0  0  0  0  0  0  0  0  0  0  0
   35.1212   30.8133   33.8413 H   0  0  0  0  0  0  0  0  0  0  0  0
   36.0721   32.1901   31.9939 H   0  0  0  0  0  0  0  0  0  0  0  0
   37.1314   32.4273   29.8849 H   0  0  0  0  0  0  0  0  0  0  0  0
   38.1243   31.3587   27.8544 H   0  0  0  0  0  0  0  0  0  0  0  0
   38.1757   28.8826   27.6601 H   0  0  0  0  0  0  0  0  0  0  0  0
   37.2479   27.4494   29.4603 H   0  0  0  0  0  0  0  0  0  0  0  0
  1  2  2  0
  2  3  1  0
  2  7  1  0
  4  3  2  0
  5  4  1  0
  6  5  2  0
  6  1  1  0
  7  8  1  0
  8  9  2  0
 10 11  2  0
 10  9  1  0
 12 11  1  0
 13 12  2  0
 14 13  1  0
 14 15  2  0
 15  7  1  0
 15 10  1  0
 16 17  1  0
 16  5  1  0
 17 18  2  0
 18 19  1  0
 20 19  2  0
 21 20  1  0
 22 21  2  0
 23 22  1  0
 24 23  2  0
 24 25  1  0
 25 26  2  0
 26 21  1  0
 26 17  1  0
  1 27  1  0
  3 28  1  0
  8 29  1  0
 11 30  1  0
 13 31  1  0
 18 32  1  0
 19 33  1  0
 20 34  1  0
 22 35  1  0
 23 36  1  0
 24 37  1  0
 25 38  1  0
M  ISO  8  27  14  28  14  29  14  30  14  31  14  32  14  33  14  34  14
M  ISO  4  35  14  36  14  37  14  38  14
M  END
>  <minimizedAffinity>  (1) 
-6.18260384

>  <minimizedRMSD>  (1) 
2.48489642

$$$$
