
     RDKit          3D

 30 33  0  0  0  0  0  0  0  0999 V2000
   37.6170   25.0440   34.4050 C   0  0  0  0  0  0  0  0  0  0  0  0
   38.1540   25.4240   35.6490 C   0  0  0  0  0  0  0  0  0  0  0  0
   38.1560   26.7650   35.9550 C   0  0  0  0  0  0  0  0  0  0  0  0
   37.6510   27.6650   35.0720 N   0  0  0  0  0  0  0  0  0  0  0  0
   37.1390   27.2560   33.8750 C   0  0  0  0  0  0  0  0  0  0  0  0
   37.1260   25.9570   33.5520 N   0  0  0  0  0  0  0  0  0  0  0  0
   38.6540   24.4640   36.5110 N   0  0  0  0  0  0  0  0  0  0  0  0
   38.1560   24.1600   37.7400 C   0  0  0  0  0  0  0  0  0  0  0  0
   38.8470   23.1890   38.3450 N   0  0  0  0  0  0  0  0  0  0  0  0
   39.8240   22.8520   37.4810 C   0  0  0  0  0  0  0  0  0  0  0  0
   40.8470   21.9260   37.5260 C   0  0  0  0  0  0  0  0  0  0  0  0
   41.7340   21.7610   36.5080 N   0  0  0  0  0  0  0  0  0  0  0  0
   41.5610   22.5600   35.4340 C   0  0  0  0  0  0  0  0  0  0  0  0
   40.5700   23.4510   35.4000 N   0  0  0  0  0  0  0  0  0  0  0  0
   39.6840   23.6450   36.3690 C   0  0  0  0  0  0  0  0  0  0  0  0
   36.4680   28.4060   32.6870 S   0  0  0  0  0  0  0  0  0  0  0  0
   37.3810   28.3760   31.1500 C   0  0  0  0  0  0  0  0  0  0  0  0
   36.8900   28.8740   29.9420 C   0  0  0  0  0  0  0  0  0  0  0  0
   37.7210   28.7800   28.8260 C   0  0  0  0  0  0  0  0  0  0  0  0
   38.9450   28.2320   28.9090 N   0  0  0  0  0  0  0  0  0  0  0  0
   39.4120   27.7530   30.0820 C   0  0  0  0  0  0  0  0  0  0  0  0
   38.6160   27.8350   31.1860 N   0  0  0  0  0  0  0  0  0  0  0  0
   37.5992   23.9800   34.1266 H   0  0  0  0  0  0  0  0  0  0  0  0
   38.5669   27.1088   36.9157 H   0  0  0  0  0  0  0  0  0  0  0  0
   37.2823   24.6577   38.1859 H   0  0  0  0  0  0  0  0  0  0  0  0
   40.9490   21.2958   38.4218 H   0  0  0  0  0  0  0  0  0  0  0  0
   42.2455   22.4750   34.5771 H   0  0  0  0  0  0  0  0  0  0  0  0
   35.8880   29.3225   29.8731 H   0  0  0  0  0  0  0  0  0  0  0  0
   37.3669   29.1626   27.8573 H   0  0  0  0  0  0  0  0  0  0  0  0
   40.4148   27.3055   30.1456 H   0  0  0  0  0  0  0  0  0  0  0  0
  1  2  2  0
  2  3  1  0
  2  7  1  0
  4  3  2  0
  5  4  1  0
  6  5  2  0
  6  1  1  0
  7  8  1  0
  8  9  2  0
 10 11  2  0
 10  9  1  0
 12 11  1  0
 13 12  2  0
 14 13  1  0
 14 15  2  0
 15  7  1  0
 15 10  1  0
 16  5  1  0
 17 22  1  0
 17 16  1  0
 18 17  2  0
 19 20  2  0
 19 18  1  0
 20 21  1  0
 21 22  2  0
  1 23  1  0
  3 24  1  0
  8 25  1  0
 11 26  1  0
 13 27  1  0
 18 28  1  0
 19 29  1  0
 21 30  1  0
M  ISO  8  23  14  24  14  25  14  26  14  27  14  28  14  29  14  30  14
M  END
>  <minimizedAffinity>  (1) 
-5.14725256

>  <minimizedRMSD>  (1) 
1.7018702

$$$$
