
     RDKit          3D

 26 27  0  0  0  0  0  0  0  0999 V2000
   40.4520   22.3930   37.6950 C   0  0  0  0  0  0  0  0  0  0  0  0
   39.2910   23.1270   37.4340 C   0  0  0  0  0  0  0  0  0  0  0  0
   38.9620   23.3330   36.1120 C   0  0  0  0  0  0  0  0  0  0  0  0
   39.7580   22.8300   35.1200 N   0  0  0  0  0  0  0  0  0  0  0  0
   40.8890   22.1150   35.4340 C   0  0  0  0  0  0  0  0  0  0  0  0
   41.2030   21.9180   36.7020 N   0  0  0  0  0  0  0  0  0  0  0  0
   38.4180   23.6780   38.5060 C   0  0  0  0  0  0  0  0  0  0  0  0
   39.2150   23.8670   39.6260 F   0  0  0  0  0  0  0  0  0  0  0  0
   37.3790   22.8660   38.8270 F   0  0  0  0  0  0  0  0  0  0  0  0
   38.0020   24.9880   38.1640 F   0  0  0  0  0  0  0  0  0  0  0  0
   41.8530   21.5040   34.0660 S   0  0  0  0  0  0  0  0  0  0  0  0
   43.4750   22.2590   34.0910 C   0  0  0  0  0  0  0  0  0  0  0  0
   43.5550   23.6480   34.2610 C   0  0  0  0  0  0  0  0  0  0  0  0
   45.4070   23.9620   34.2220 S   0  0  0  0  0  0  0  0  0  0  0  0
   45.7070   22.1290   33.9820 C   0  0  0  0  0  0  0  0  0  0  0  0
   44.6670   21.7420   33.9780 N   0  0  0  0  0  0  0  0  0  0  0  0
   47.1200   21.5690   33.8530 C   0  0  0  0  0  0  0  0  0  0  0  0
   47.1380   20.1430   34.3680 C   0  0  0  0  0  0  0  0  0  0  0  0
   40.7503   22.2046   38.7369 H   0  0  0  0  0  0  0  0  0  0  0  0
   38.0574   23.9031   35.8539 H   0  0  0  0  0  0  0  0  0  0  0  0
   42.7375   24.3733   34.3860 H   0  0  0  0  0  0  0  0  0  0  0  0
   47.4266   21.5830   32.7967 H   0  0  0  0  0  0  0  0  0  0  0  0
   47.8172   22.1840   34.4410 H   0  0  0  0  0  0  0  0  0  0  0  0
   47.1379   20.1504   35.4680 H   0  0  0  0  0  0  0  0  0  0  0  0
   46.2465   19.6107   34.0048 H   0  0  0  0  0  0  0  0  0  0  0  0
   48.0426   19.6334   34.0048 H   0  0  0  0  0  0  0  0  0  0  0  0
  2  1  2  0
  2  7  1  0
  3  2  1  0
  4  5  1  0
  4  3  2  0
  5  6  2  0
  6  1  1  0
  7  9  1  0
  7  8  1  0
 10  7  1  0
 11 12  1  0
 11  5  1  0
 12 13  2  0
 14 13  1  0
 15 14  1  0
 16 15  2  0
 16 12  1  0
 17 15  1  0
 17 18  1  0
  1 19  1  0
  3 20  1  0
 13 21  1  0
 17 22  1  0
 17 23  1  0
 18 24  1  0
 18 25  1  0
 18 26  1  0
M  ISO  8  19  14  20  14  21  14  22   8  23   8  24   8  25   8  26   8
M  END
>  <minimizedAffinity>  (1) 
-3.65057707

>  <minimizedRMSD>  (1) 
0.928605139

$$$$
