
     RDKit          3D

 29 32  0  0  0  0  0  0  0  0999 V2000
   37.6380   25.0760   34.4570 C   0  0  0  0  0  0  0  0  0  0  0  0
   38.1680   25.4180   35.6980 C   0  0  0  0  0  0  0  0  0  0  0  0
   38.1650   26.7520   36.0080 C   0  0  0  0  0  0  0  0  0  0  0  0
   37.6740   27.6820   35.1570 N   0  0  0  0  0  0  0  0  0  0  0  0
   37.1660   27.2870   33.9510 C   0  0  0  0  0  0  0  0  0  0  0  0
   37.1460   26.0040   33.6040 N   0  0  0  0  0  0  0  0  0  0  0  0
   38.6630   24.4520   36.5510 N   0  0  0  0  0  0  0  0  0  0  0  0
   38.1630   24.1400   37.7660 C   0  0  0  0  0  0  0  0  0  0  0  0
   38.8590   23.1540   38.3610 N   0  0  0  0  0  0  0  0  0  0  0  0
   39.8390   22.8260   37.4930 C   0  0  0  0  0  0  0  0  0  0  0  0
   40.8650   21.9040   37.5130 C   0  0  0  0  0  0  0  0  0  0  0  0
   41.7470   21.7430   36.5120 N   0  0  0  0  0  0  0  0  0  0  0  0
   41.5790   22.5570   35.4430 C   0  0  0  0  0  0  0  0  0  0  0  0
   40.5900   23.4510   35.4130 N   0  0  0  0  0  0  0  0  0  0  0  0
   39.7100   23.6310   36.3790 C   0  0  0  0  0  0  0  0  0  0  0  0
   36.5050   28.4210   32.7480 S   0  0  0  0  0  0  0  0  0  0  0  0
   35.2070   29.4130   33.5990 C   0  0  0  0  0  0  0  0  0  0  0  0
   35.5560   30.3450   34.6720 C   0  0  0  0  0  0  0  0  0  0  0  0
   34.4580   30.9780   35.1670 C   0  0  0  0  0  0  0  0  0  0  0  0
   33.1190   30.7860   34.7260 C   0  0  0  0  0  0  0  0  0  0  0  0
   33.4170   29.5180   33.4020 S   0  0  0  0  0  0  0  0  0  0  0  0
   37.6186   24.0170   34.1602 H   0  0  0  0  0  0  0  0  0  0  0  0
   38.5734   27.0765   36.9765 H   0  0  0  0  0  0  0  0  0  0  0  0
   37.2894   24.6339   38.2164 H   0  0  0  0  0  0  0  0  0  0  0  0
   40.9672   21.2627   38.4008 H   0  0  0  0  0  0  0  0  0  0  0  0
   42.2672   22.4798   34.5883 H   0  0  0  0  0  0  0  0  0  0  0  0
   36.5810   30.5133   35.0341 H   0  0  0  0  0  0  0  0  0  0  0  0
   34.6198   31.7017   35.9794 H   0  0  0  0  0  0  0  0  0  0  0  0
   32.1830   31.2514   35.0684 H   0  0  0  0  0  0  0  0  0  0  0  0
  1  2  2  0
  2  3  1  0
  2  7  1  0
  4  3  2  0
  5  4  1  0
  6  5  2  0
  6  1  1  0
  7  8  1  0
  8  9  2  0
 10 11  2  0
 10  9  1  0
 12 11  1  0
 13 12  2  0
 14 13  1  0
 14 15  2  0
 15  7  1  0
 15 10  1  0
 16 17  1  0
 16  5  1  0
 17 18  2  0
 18 19  1  0
 20 19  2  0
 21 17  1  0
 21 20  1  0
  1 22  1  0
  3 23  1  0
  8 24  1  0
 11 25  1  0
 13 26  1  0
 18 27  1  0
 19 28  1  0
 20 29  1  0
M  ISO  8  22  14  23  14  24  14  25  14  26  14  27  14  28  14  29  14
M  END
>  <minimizedAffinity>  (1) 
-5.12851667

>  <minimizedRMSD>  (1) 
1.46578419

$$$$
