
     RDKit          3D

 27 30  0  0  0  0  0  0  0  0999 V2000
   37.6600   25.0370   34.3750 C   0  0  0  0  0  0  0  0  0  0  0  0
   38.1630   25.4320   35.6340 C   0  0  0  0  0  0  0  0  0  0  0  0
   38.1520   26.7800   35.9730 C   0  0  0  0  0  0  0  0  0  0  0  0
   37.6530   27.6690   35.0690 N   0  0  0  0  0  0  0  0  0  0  0  0
   37.1780   27.2660   33.8710 C   0  0  0  0  0  0  0  0  0  0  0  0
   37.1790   25.9730   33.5250 N   0  0  0  0  0  0  0  0  0  0  0  0
   38.6560   24.4650   36.5030 N   0  0  0  0  0  0  0  0  0  0  0  0
   38.1440   24.1580   37.7240 C   0  0  0  0  0  0  0  0  0  0  0  0
   38.8300   23.1830   38.3350 N   0  0  0  0  0  0  0  0  0  0  0  0
   39.8130   22.8510   37.4830 C   0  0  0  0  0  0  0  0  0  0  0  0
   40.8350   21.9290   37.5340 C   0  0  0  0  0  0  0  0  0  0  0  0
   41.7280   21.7620   36.5430 N   0  0  0  0  0  0  0  0  0  0  0  0
   41.5760   22.5610   35.4620 C   0  0  0  0  0  0  0  0  0  0  0  0
   40.5880   23.4540   35.4130 N   0  0  0  0  0  0  0  0  0  0  0  0
   39.6880   23.6460   36.3720 C   0  0  0  0  0  0  0  0  0  0  0  0
   36.5100   28.3880   32.6440 S   0  0  0  0  0  0  0  0  0  0  0  0
   35.0300   29.1290   33.3600 C   0  0  0  0  0  0  0  0  0  0  0  0
   34.9340   29.7850   34.5450 N   0  0  0  0  0  0  0  0  0  0  0  0
   33.7050   30.1750   34.7170 O   0  0  0  0  0  0  0  0  0  0  0  0
   32.9570   29.8150   33.7010 C   0  0  0  0  0  0  0  0  0  0  0  0
   33.7690   29.1570   32.8380 N   0  0  0  0  0  0  0  0  0  0  0  0
   37.6593   23.9753   34.0874 H   0  0  0  0  0  0  0  0  0  0  0  0
   38.5362   27.1203   36.9459 H   0  0  0  0  0  0  0  0  0  0  0  0
   37.2651   24.6543   38.1613 H   0  0  0  0  0  0  0  0  0  0  0  0
   40.9250   21.2978   38.4304 H   0  0  0  0  0  0  0  0  0  0  0  0
   42.2738   22.4728   34.6163 H   0  0  0  0  0  0  0  0  0  0  0  0
   31.8817   30.0091   33.5744 H   0  0  0  0  0  0  0  0  0  0  0  0
  1  2  2  0
  2  3  1  0
  2  7  1  0
  4  3  2  0
  5  4  1  0
  6  5  2  0
  6  1  1  0
  7  8  1  0
  8  9  2  0
 10 11  2  0
 10  9  1  0
 12 11  1  0
 13 12  2  0
 14 13  1  0
 14 15  2  0
 15  7  1  0
 15 10  1  0
 16 17  1  0
 16  5  1  0
 17 18  2  0
 18 19  1  0
 20 19  1  0
 21 17  1  0
 21 20  2  0
  1 22  1  0
  3 23  1  0
  8 24  1  0
 11 25  1  0
 13 26  1  0
 20 27  1  0
M  ISO  6  22  14  23  14  24  14  25  14  26  14  27  14
M  END
>  <minimizedAffinity>  (1) 
-4.95804501

>  <minimizedRMSD>  (1) 
0.75246352

$$$$
