
     RDKit          3D

 34 36  0  0  0  0  0  0  0  0999 V2000
   37.6060   25.1170   34.3120 C   0  0  0  0  0  0  0  0  0  0  0  0
   38.1340   25.4850   35.5490 C   0  0  0  0  0  0  0  0  0  0  0  0
   38.1950   26.8370   35.8280 C   0  0  0  0  0  0  0  0  0  0  0  0
   37.7530   27.7370   34.9150 N   0  0  0  0  0  0  0  0  0  0  0  0
   37.2510   27.3380   33.7320 C   0  0  0  0  0  0  0  0  0  0  0  0
   37.1760   26.0350   33.4260 N   0  0  0  0  0  0  0  0  0  0  0  0
   38.5750   24.5180   36.4500 N   0  0  0  0  0  0  0  0  0  0  0  0
   37.9890   24.2340   37.6390 C   0  0  0  0  0  0  0  0  0  0  0  0
   38.6390   23.2560   38.2880 N   0  0  0  0  0  0  0  0  0  0  0  0
   39.6750   22.9070   37.4840 C   0  0  0  0  0  0  0  0  0  0  0  0
   40.6830   21.9770   37.6020 C   0  0  0  0  0  0  0  0  0  0  0  0
   41.6290   21.7980   36.6530 N   0  0  0  0  0  0  0  0  0  0  0  0
   41.5350   22.5970   35.5550 C   0  0  0  0  0  0  0  0  0  0  0  0
   40.5530   23.4950   35.4530 N   0  0  0  0  0  0  0  0  0  0  0  0
   39.6100   23.6950   36.3670 C   0  0  0  0  0  0  0  0  0  0  0  0
   36.6380   28.4340   32.4620 S   0  0  0  0  0  0  0  0  0  0  0  0
   35.4160   29.5870   33.0870 C   0  0  0  0  0  0  0  0  0  0  0  0
   35.5530   29.8690   34.5660 C   0  0  0  0  0  0  0  0  0  0  0  0
   33.9980   29.1350   32.8260 C   0  0  0  0  0  0  0  0  0  0  0  0
   35.6560   30.9120   32.3550 C   0  0  0  0  0  0  0  0  0  0  0  0
   37.5391   24.0499   34.0536 H   0  0  0  0  0  0  0  0  0  0  0  0
   38.6017   27.1829   36.7898 H   0  0  0  0  0  0  0  0  0  0  0  0
   37.0924   24.7420   38.0237 H   0  0  0  0  0  0  0  0  0  0  0  0
   40.7203   21.3529   38.5070 H   0  0  0  0  0  0  0  0  0  0  0  0
   42.2739   22.5018   34.7457 H   0  0  0  0  0  0  0  0  0  0  0  0
   35.1429   29.0248   35.1398 H   0  0  0  0  0  0  0  0  0  0  0  0
   36.6158   30.0012   34.8172 H   0  0  0  0  0  0  0  0  0  0  0  0
   35.0000   30.7861   34.8172 H   0  0  0  0  0  0  0  0  0  0  0  0
   33.4832   28.9709   33.7842 H   0  0  0  0  0  0  0  0  0  0  0  0
   33.4665   29.9082   32.2519 H   0  0  0  0  0  0  0  0  0  0  0  0
   34.0120   28.1968   32.2519 H   0  0  0  0  0  0  0  0  0  0  0  0
   35.8017   31.7164   33.0910 H   0  0  0  0  0  0  0  0  0  0  0  0
   36.5530   30.8252   31.7243 H   0  0  0  0  0  0  0  0  0  0  0  0
   34.7855   31.1454   31.7243 H   0  0  0  0  0  0  0  0  0  0  0  0
  1  2  2  0
  2  3  1  0
  2  7  1  0
  4  3  2  0
  5  4  1  0
  6  5  2  0
  6  1  1  0
  7  8  1  0
  8  9  2  0
 10 11  2  0
 10  9  1  0
 12 11  1  0
 13 12  2  0
 14 13  1  0
 14 15  2  0
 15  7  1  0
 15 10  1  0
 16 17  1  0
 16  5  1  0
 17 18  1  0
 19 17  1  0
 20 17  1  0
  1 21  1  0
  3 22  1  0
  8 23  1  0
 11 24  1  0
 13 25  1  0
 18 26  1  0
 18 27  1  0
 18 28  1  0
 19 29  1  0
 19 30  1  0
 19 31  1  0
 20 32  1  0
 20 33  1  0
 20 34  1  0
M  ISO  8  21  14  22  14  23  14  24  14  25  14  26   8  27   8  28   8
M  ISO  6  29   8  30   8  31   8  32   8  33   8  34   8
M  END
>  <minimizedAffinity>  (1) 
-4.84595108

>  <minimizedRMSD>  (1) 
0.725943267

$$$$
