
     RDKit          3D

 25 27  0  0  0  0  0  0  0  0999 V2000
   37.6630   25.0280   34.3880 C   0  0  0  0  0  0  0  0  0  0  0  0
   38.1750   25.4240   35.6440 C   0  0  0  0  0  0  0  0  0  0  0  0
   38.1630   26.7570   35.9590 C   0  0  0  0  0  0  0  0  0  0  0  0
   37.6690   27.6650   35.0810 N   0  0  0  0  0  0  0  0  0  0  0  0
   37.1820   27.2520   33.8760 C   0  0  0  0  0  0  0  0  0  0  0  0
   37.1780   25.9600   33.5350 N   0  0  0  0  0  0  0  0  0  0  0  0
   38.6700   24.4590   36.5130 N   0  0  0  0  0  0  0  0  0  0  0  0
   38.1580   24.1530   37.7390 C   0  0  0  0  0  0  0  0  0  0  0  0
   38.8430   23.1790   38.3460 N   0  0  0  0  0  0  0  0  0  0  0  0
   39.8320   22.8410   37.4830 C   0  0  0  0  0  0  0  0  0  0  0  0
   40.8470   21.9190   37.5370 C   0  0  0  0  0  0  0  0  0  0  0  0
   41.7450   21.7510   36.5320 N   0  0  0  0  0  0  0  0  0  0  0  0
   41.5850   22.5540   35.4580 C   0  0  0  0  0  0  0  0  0  0  0  0
   40.5940   23.4510   35.4150 N   0  0  0  0  0  0  0  0  0  0  0  0
   39.7110   23.6340   36.3700 C   0  0  0  0  0  0  0  0  0  0  0  0
   36.5120   28.3640   32.6410 S   0  0  0  0  0  0  0  0  0  0  0  0
   35.2800   29.4290   33.4480 C   0  0  0  0  0  0  0  0  0  0  0  0
   34.2530   29.6250   32.5130 F   0  0  0  0  0  0  0  0  0  0  0  0
   34.8030   28.9250   34.6160 F   0  0  0  0  0  0  0  0  0  0  0  0
   35.8990   30.6500   33.7200 F   0  0  0  0  0  0  0  0  0  0  0  0
   37.6586   23.9652   34.1044 H   0  0  0  0  0  0  0  0  0  0  0  0
   38.5563   27.0930   36.9298 H   0  0  0  0  0  0  0  0  0  0  0  0
   37.2811   24.6510   38.1785 H   0  0  0  0  0  0  0  0  0  0  0  0
   40.9373   21.2883   38.4337 H   0  0  0  0  0  0  0  0  0  0  0  0
   42.2783   22.4692   34.6082 H   0  0  0  0  0  0  0  0  0  0  0  0
  1  2  2  0
  2  3  1  0
  2  7  1  0
  4  3  2  0
  5  4  1  0
  6  5  2  0
  6  1  1  0
  7  8  1  0
  8  9  2  0
 10 11  2  0
 10  9  1  0
 12 11  1  0
 13 12  2  0
 14 13  1  0
 14 15  2  0
 15  7  1  0
 15 10  1  0
 16 17  1  0
 16  5  1  0
 17 20  1  0
 17 19  1  0
 18 17  1  0
  1 21  1  0
  3 22  1  0
  8 23  1  0
 11 24  1  0
 13 25  1  0
M  ISO  5  21  14  22  14  23  14  24  14  25  14
M  END
>  <minimizedAffinity>  (1) 
-4.82456636

>  <minimizedRMSD>  (1) 
0.832683027

$$$$
