
     RDKit          3D

 29 32  0  0  0  0  0  0  0  0999 V2000
   38.5570   24.5780   36.5440 N   0  0  0  0  0  0  0  0  0  0  0  0
   38.0160   24.2780   37.7410 C   0  0  0  0  0  0  0  0  0  0  0  0
   38.6630   23.2860   38.3560 N   0  0  0  0  0  0  0  0  0  0  0  0
   39.6720   22.9250   37.5160 C   0  0  0  0  0  0  0  0  0  0  0  0
   40.6670   21.9860   37.5720 C   0  0  0  0  0  0  0  0  0  0  0  0
   41.5740   21.8090   36.5970 N   0  0  0  0  0  0  0  0  0  0  0  0
   41.4580   22.6240   35.5240 C   0  0  0  0  0  0  0  0  0  0  0  0
   40.4840   23.5400   35.4740 N   0  0  0  0  0  0  0  0  0  0  0  0
   39.5790   23.7380   36.4130 C   0  0  0  0  0  0  0  0  0  0  0  0
   37.5510   25.1940   34.4300 C   0  0  0  0  0  0  0  0  0  0  0  0
   38.1050   25.5580   35.6690 C   0  0  0  0  0  0  0  0  0  0  0  0
   38.1650   26.8960   35.9520 C   0  0  0  0  0  0  0  0  0  0  0  0
   37.7090   27.8200   35.0770 N   0  0  0  0  0  0  0  0  0  0  0  0
   37.1770   27.4230   33.8850 C   0  0  0  0  0  0  0  0  0  0  0  0
   37.0960   26.1190   33.5570 N   0  0  0  0  0  0  0  0  0  0  0  0
   36.5450   28.5650   32.6670 S   0  0  0  0  0  0  0  0  0  0  0  0
   35.4180   29.7800   33.3340 C   0  0  0  0  0  0  0  0  0  0  0  0
   35.5970   30.3170   34.7010 C   0  0  0  0  0  0  0  0  0  0  0  0
   34.4990   29.3340   34.4100 C   0  0  0  0  0  0  0  0  0  0  0  0
   37.1403   24.7925   38.1634 H   0  0  0  0  0  0  0  0  0  0  0  0
   40.7268   21.3427   38.4623 H   0  0  0  0  0  0  0  0  0  0  0  0
   42.1677   22.5334   34.6885 H   0  0  0  0  0  0  0  0  0  0  0  0
   37.4862   24.1286   34.1642 H   0  0  0  0  0  0  0  0  0  0  0  0
   38.5927   27.2258   36.9103 H   0  0  0  0  0  0  0  0  0  0  0  0
   35.3157   30.2573   32.3483 H   0  0  0  0  0  0  0  0  0  0  0  0
   36.4648   30.0111   35.3038 H   0  0  0  0  0  0  0  0  0  0  0  0
   35.6459   31.3229   35.1434 H   0  0  0  0  0  0  0  0  0  0  0  0
   33.4494   29.6632   34.4106 H   0  0  0  0  0  0  0  0  0  0  0  0
   34.1918   28.3613   34.8217 H   0  0  0  0  0  0  0  0  0  0  0  0
  1  2  1  0
  2  3  2  0
  4  5  2  0
  4  3  1  0
  6  5  1  0
  7  6  2  0
  8  7  1  0
  8  9  2  0
  9  1  1  0
  9  4  1  0
 10 11  2  0
 11 12  1  0
 11  1  1  0
 13 12  2  0
 14 13  1  0
 15 14  2  0
 15 10  1  0
 16 17  1  0
 16 14  1  0
 17 19  1  0
 17 18  1  0
 19 18  1  0
  2 20  1  0
  5 21  1  0
  7 22  1  0
 10 23  1  0
 12 24  1  0
 17 25  1  0
 18 26  1  0
 18 27  1  0
 19 28  1  0
 19 29  1  0
M  ISO  8  20  14  21  14  22  14  23  14  24  14  25  13  26  13  27  13
M  ISO  2  28  13  29  13
M  END
>  <minimizedAffinity>  (1) 
-4.65629482

>  <minimizedRMSD>  (1) 
0.738330185

$$$$
