
     RDKit          3D

 31 33  0  0  0  0  0  0  0  0999 V2000
   38.6730   24.4490   36.5140 N   0  0  0  0  0  0  0  0  0  0  0  0
   38.1570   24.1560   37.7340 C   0  0  0  0  0  0  0  0  0  0  0  0
   38.8450   23.1820   38.3500 N   0  0  0  0  0  0  0  0  0  0  0  0
   39.8360   22.8380   37.4950 C   0  0  0  0  0  0  0  0  0  0  0  0
   40.8460   21.9190   37.5600 C   0  0  0  0  0  0  0  0  0  0  0  0
   41.7410   21.7500   36.5560 N   0  0  0  0  0  0  0  0  0  0  0  0
   41.5840   22.5470   35.4710 C   0  0  0  0  0  0  0  0  0  0  0  0
   40.5930   23.4400   35.4220 N   0  0  0  0  0  0  0  0  0  0  0  0
   39.7100   23.6310   36.3730 C   0  0  0  0  0  0  0  0  0  0  0  0
   37.6430   25.0150   34.3970 C   0  0  0  0  0  0  0  0  0  0  0  0
   38.1750   25.4130   35.6410 C   0  0  0  0  0  0  0  0  0  0  0  0
   38.1750   26.7530   35.9440 C   0  0  0  0  0  0  0  0  0  0  0  0
   37.6690   27.6420   35.0520 N   0  0  0  0  0  0  0  0  0  0  0  0
   37.1600   27.2170   33.8550 C   0  0  0  0  0  0  0  0  0  0  0  0
   37.1480   25.9180   33.5290 N   0  0  0  0  0  0  0  0  0  0  0  0
   36.4730   28.3440   32.6510 S   0  0  0  0  0  0  0  0  0  0  0  0
   37.1470   27.9610   31.0270 C   0  0  0  0  0  0  0  0  0  0  0  0
   36.7700   29.1180   30.0940 C   0  0  0  0  0  0  0  0  0  0  0  0
   38.6500   27.8150   31.0700 C   0  0  0  0  0  0  0  0  0  0  0  0
   37.2788   24.6573   38.1670 H   0  0  0  0  0  0  0  0  0  0  0  0
   40.9358   21.2935   38.4604 H   0  0  0  0  0  0  0  0  0  0  0  0
   42.2793   22.4572   34.6234 H   0  0  0  0  0  0  0  0  0  0  0  0
   37.6322   23.9477   34.1308 H   0  0  0  0  0  0  0  0  0  0  0  0
   38.5826   27.1033   36.9038 H   0  0  0  0  0  0  0  0  0  0  0  0
   36.7355   27.0043   30.6727 H   0  0  0  0  0  0  0  0  0  0  0  0
   36.4844   29.9946   30.6939 H   0  0  0  0  0  0  0  0  0  0  0  0
   37.6316   29.3729   29.4594 H   0  0  0  0  0  0  0  0  0  0  0  0
   35.9236   28.8164   29.4594 H   0  0  0  0  0  0  0  0  0  0  0  0
   38.9854   27.7824   32.1171 H   0  0  0  0  0  0  0  0  0  0  0  0
   38.9427   26.8842   30.5621 H   0  0  0  0  0  0  0  0  0  0  0  0
   39.1163   28.6721   30.5621 H   0  0  0  0  0  0  0  0  0  0  0  0
  1  2  1  0
  2  3  2  0
  4  5  2  0
  4  3  1  0
  6  5  1  0
  7  6  2  0
  8  7  1  0
  8  9  2  0
  9  1  1  0
  9  4  1  0
 10 11  2  0
 11 12  1  0
 11  1  1  0
 13 12  2  0
 14 13  1  0
 15 14  2  0
 15 10  1  0
 16 14  1  0
 17 19  1  0
 17 16  1  0
 18 17  1  0
  2 20  1  0
  5 21  1  0
  7 22  1  0
 10 23  1  0
 12 24  1  0
 17 25  1  0
 18 26  1  0
 18 27  1  0
 18 28  1  0
 19 29  1  0
 19 30  1  0
 19 31  1  0
M  ISO  8  20  14  21  14  22  14  23  14  24  14  25   8  26   8  27   8
M  ISO  4  28   8  29   8  30   8  31   8
M  END
>  <minimizedAffinity>  (1) 
-4.6298461

>  <minimizedRMSD>  (1) 
0.663007617

$$$$
