
     RDKit          3D

 38 41  0  0  1  0  0  0  0  0999 V2000
   37.5770   25.0830   34.4560 C   0  0  0  0  0  0  0  0  0  0  0  0
   38.1510   25.4600   35.6920 C   0  0  0  0  0  0  0  0  0  0  0  0
   38.1850   26.7880   36.0160 C   0  0  0  0  0  0  0  0  0  0  0  0
   37.6670   27.6990   35.1450 N   0  0  0  0  0  0  0  0  0  0  0  0
   37.1240   27.3010   33.9650 C   0  0  0  0  0  0  0  0  0  0  0  0
   37.0770   26.0150   33.6210 N   0  0  0  0  0  0  0  0  0  0  0  0
   38.6620   24.4740   36.5380 N   0  0  0  0  0  0  0  0  0  0  0  0
   38.1520   24.1640   37.7670 C   0  0  0  0  0  0  0  0  0  0  0  0
   38.8540   23.1710   38.3490 N   0  0  0  0  0  0  0  0  0  0  0  0
   39.8270   22.8440   37.4750 C   0  0  0  0  0  0  0  0  0  0  0  0
   40.8340   21.9190   37.5120 C   0  0  0  0  0  0  0  0  0  0  0  0
   41.7120   21.7670   36.4950 N   0  0  0  0  0  0  0  0  0  0  0  0
   41.5440   22.5830   35.4280 C   0  0  0  0  0  0  0  0  0  0  0  0
   40.5600   23.4780   35.4070 N   0  0  0  0  0  0  0  0  0  0  0  0
   39.6910   23.6560   36.3700 C   0  0  0  0  0  0  0  0  0  0  0  0
   36.4370   28.4720   32.7980 S   0  0  0  0  0  0  0  0  0  0  0  0
   36.9550   28.0180   31.1260 C   0  0  1  0  0  0  0  0  0  0  0  0
   36.6600   29.2140   30.2250 C   0  0  0  0  0  0  0  0  0  0  0  0
   38.4230   27.6970   31.0940 C   0  0  0  0  0  0  0  0  0  0  0  0
   38.7280   26.4580   30.3440 C   0  0  0  0  0  0  0  0  0  0  0  0
   39.6870   26.5570   29.3300 C   0  0  0  0  0  0  0  0  0  0  0  0
   39.7980   25.2840   28.7810 C   0  0  0  0  0  0  0  0  0  0  0  0
   38.9570   24.4820   29.4300 N   0  0  0  0  0  0  0  0  0  0  0  0
   38.3140   25.1600   30.3610 N   0  0  0  0  0  0  0  0  0  0  0  0
   37.5383   24.0205   34.1738 H   0  0  0  0  0  0  0  0  0  0  0  0
   38.6254   27.1171   36.9687 H   0  0  0  0  0  0  0  0  0  0  0  0
   37.2821   24.6599   38.2223 H   0  0  0  0  0  0  0  0  0  0  0  0
   40.9329   21.2768   38.3996 H   0  0  0  0  0  0  0  0  0  0  0  0
   42.2279   22.5052   34.5699 H   0  0  0  0  0  0  0  0  0  0  0  0
   36.4135   27.1233   30.7850 H   0  0  0  0  0  0  0  0  0  0  0  0
   36.4425   30.0958   30.8456 H   0  0  0  0  0  0  0  0  0  0  0  0
   37.5344   29.4192   29.5900 H   0  0  0  0  0  0  0  0  0  0  0  0
   35.7904   28.9890   29.5900 H   0  0  0  0  0  0  0  0  0  0  0  0
   38.9546   28.5344   30.6185 H   0  0  0  0  0  0  0  0  0  0  0  0
   38.7484   27.5410   32.1331 H   0  0  0  0  0  0  0  0  0  0  0  0
   40.2406   27.4584   29.0284 H   0  0  0  0  0  0  0  0  0  0  0  0
   40.4637   24.9914   27.9556 H   0  0  0  0  0  0  0  0  0  0  0  0
   38.8273   23.4792   29.2340 H   0  0  0  0  0  0  0  0  0  0  0  0
  1  2  2  0
  2  3  1  0
  2  7  1  0
  4  3  2  0
  5  4  1  0
  6  5  2  0
  6  1  1  0
  7  8  1  0
  8  9  2  0
 10 11  2  0
 10  9  1  0
 12 11  1  0
 13 12  2  0
 14 13  1  0
 14 15  2  0
 15  7  1  0
 15 10  1  0
 16  5  1  0
 17 16  1  0
 18 17  1  0
 19 17  1  0
 20 24  2  0
 20 19  1  0
 21 20  1  0
 22 21  2  0
 22 23  1  0
 23 24  1  0
  1 25  1  0
  3 26  1  0
  8 27  1  0
 11 28  1  0
 13 29  1  0
 17 30  1  6
 18 31  1  0
 18 32  1  0
 18 33  1  0
 19 34  1  0
 19 35  1  0
 21 36  1  0
 22 37  1  0
 23 38  1  0
M  ISO  8  25  14  26  14  27  14  28  14  29  14  30   8  31   8  32   8
M  ISO  6  33   8  34   8  35   8  36  14  37  14  38   9
M  END
>  <minimizedAffinity>  (1) 
-4.97466803

>  <minimizedRMSD>  (1) 
1.05936122

$$$$
