
     RDKit          3D

 37 40  0  0  1  0  0  0  0  0999 V2000
   37.6190   25.0140   34.4210 C   0  0  0  0  0  0  0  0  0  0  0  0
   38.1780   25.4250   35.6590 C   0  0  0  0  0  0  0  0  0  0  0  0
   38.1950   26.7580   35.9470 C   0  0  0  0  0  0  0  0  0  0  0  0
   37.6810   27.6380   35.0510 N   0  0  0  0  0  0  0  0  0  0  0  0
   37.1470   27.2030   33.8600 C   0  0  0  0  0  0  0  0  0  0  0  0
   37.1170   25.9100   33.5500 N   0  0  0  0  0  0  0  0  0  0  0  0
   38.6830   24.4530   36.5220 N   0  0  0  0  0  0  0  0  0  0  0  0
   38.1660   24.1630   37.7430 C   0  0  0  0  0  0  0  0  0  0  0  0
   38.8470   23.1860   38.3620 N   0  0  0  0  0  0  0  0  0  0  0  0
   39.8320   22.8430   37.5040 C   0  0  0  0  0  0  0  0  0  0  0  0
   40.8450   21.9170   37.5590 C   0  0  0  0  0  0  0  0  0  0  0  0
   41.7320   21.7460   36.5600 N   0  0  0  0  0  0  0  0  0  0  0  0
   41.5750   22.5460   35.4770 C   0  0  0  0  0  0  0  0  0  0  0  0
   40.5860   23.4450   35.4280 N   0  0  0  0  0  0  0  0  0  0  0  0
   39.7110   23.6350   36.3800 C   0  0  0  0  0  0  0  0  0  0  0  0
   36.4630   28.3480   32.6590 S   0  0  0  0  0  0  0  0  0  0  0  0
   37.1130   27.9400   31.0270 C   0  0  1  0  0  0  0  0  0  0  0  0
   36.7780   29.1030   30.1000 C   0  0  0  0  0  0  0  0  0  0  0  0
   38.6250   27.7960   31.0860 C   0  0  0  0  0  0  0  0  0  0  0  0
   38.9850   26.6310   30.3020 N   0  0  0  0  0  0  0  0  0  0  0  0
   38.6770   25.3310   30.4530 C   0  0  0  0  0  0  0  0  0  0  0  0
   39.2550   24.6250   29.4590 N   0  0  0  0  0  0  0  0  0  0  0  0
   39.9260   25.4940   28.6860 C   0  0  0  0  0  0  0  0  0  0  0  0
   39.7530   26.7200   29.2130 N   0  0  0  0  0  0  0  0  0  0  0  0
   37.5953   23.9437   34.1682 H   0  0  0  0  0  0  0  0  0  0  0  0
   38.6210   27.1161   36.8958 H   0  0  0  0  0  0  0  0  0  0  0  0
   37.2905   24.6698   38.1751 H   0  0  0  0  0  0  0  0  0  0  0  0
   40.9357   21.2884   38.4571 H   0  0  0  0  0  0  0  0  0  0  0  0
   42.2691   22.4547   34.6286 H   0  0  0  0  0  0  0  0  0  0  0  0
   36.6751   26.9953   30.6724 H   0  0  0  0  0  0  0  0  0  0  0  0
   36.5229   29.9887   30.7004 H   0  0  0  0  0  0  0  0  0  0  0  0
   37.6478   29.3283   29.4654 H   0  0  0  0  0  0  0  0  0  0  0  0
   35.9216   28.8311   29.4654 H   0  0  0  0  0  0  0  0  0  0  0  0
   39.1039   28.6931   30.6666 H   0  0  0  0  0  0  0  0  0  0  0  0
   38.9619   27.6805   32.1268 H   0  0  0  0  0  0  0  0  0  0  0  0
   38.0545   24.9110   31.2568 H   0  0  0  0  0  0  0  0  0  0  0  0
   40.5101   25.2487   27.7867 H   0  0  0  0  0  0  0  0  0  0  0  0
  1  2  2  0
  2  3  1  0
  2  7  1  0
  4  3  2  0
  5  4  1  0
  6  5  2  0
  6  1  1  0
  7  8  1  0
  8  9  2  0
 10 11  2  0
 10  9  1  0
 12 11  1  0
 13 12  2  0
 14 13  1  0
 14 15  2  0
 15  7  1  0
 15 10  1  0
 16  5  1  0
 17 19  1  0
 17 16  1  0
 18 17  1  0
 20 21  1  0
 20 19  1  0
 22 21  2  0
 23 24  2  0
 23 22  1  0
 24 20  1  0
  1 25  1  0
  3 26  1  0
  8 27  1  0
 11 28  1  0
 13 29  1  0
 17 30  1  6
 18 31  1  0
 18 32  1  0
 18 33  1  0
 19 34  1  0
 19 35  1  0
 21 36  1  0
 23 37  1  0
M  ISO  8  25  14  26  14  27  14  28  14  29  14  30   8  31   8  32   8
M  ISO  5  33   8  34   8  35   8  36  14  37  14
M  END
>  <minimizedAffinity>  (1) 
-4.79318857

>  <minimizedRMSD>  (1) 
0.906354606

$$$$
