
     RDKit          3D

 38 41  0  0  1  0  0  0  0  0999 V2000
   37.6260   25.0040   34.4030 C   0  0  0  0  0  0  0  0  0  0  0  0
   38.1750   25.4040   35.6390 C   0  0  0  0  0  0  0  0  0  0  0  0
   38.1890   26.7420   35.9180 C   0  0  0  0  0  0  0  0  0  0  0  0
   37.6900   27.6330   35.0280 N   0  0  0  0  0  0  0  0  0  0  0  0
   37.1630   27.2040   33.8340 C   0  0  0  0  0  0  0  0  0  0  0  0
   37.1330   25.9040   33.5290 N   0  0  0  0  0  0  0  0  0  0  0  0
   38.6730   24.4500   36.5130 N   0  0  0  0  0  0  0  0  0  0  0  0
   38.1540   24.1700   37.7450 C   0  0  0  0  0  0  0  0  0  0  0  0
   38.8450   23.1990   38.3630 N   0  0  0  0  0  0  0  0  0  0  0  0
   39.8330   22.8450   37.5060 C   0  0  0  0  0  0  0  0  0  0  0  0
   40.8290   21.9250   37.5890 C   0  0  0  0  0  0  0  0  0  0  0  0
   41.7280   21.7410   36.5760 N   0  0  0  0  0  0  0  0  0  0  0  0
   41.5670   22.5280   35.4890 C   0  0  0  0  0  0  0  0  0  0  0  0
   40.5880   23.4210   35.4250 N   0  0  0  0  0  0  0  0  0  0  0  0
   39.7010   23.6290   36.3800 C   0  0  0  0  0  0  0  0  0  0  0  0
   36.4970   28.3460   32.6380 S   0  0  0  0  0  0  0  0  0  0  0  0
   37.1780   27.9670   31.0210 C   0  0  1  0  0  0  0  0  0  0  0  0
   36.7790   29.1100   30.0830 C   0  0  0  0  0  0  0  0  0  0  0  0
   38.6680   27.7980   31.0530 C   0  0  0  0  0  0  0  0  0  0  0  0
   39.0390   26.6440   30.2580 N   0  0  0  0  0  0  0  0  0  0  0  0
   38.6280   25.4170   30.5250 N   0  0  0  0  0  0  0  0  0  0  0  0
   39.1080   24.5290   29.6450 C   0  0  0  0  0  0  0  0  0  0  0  0
   39.8660   25.3290   28.7930 C   0  0  0  0  0  0  0  0  0  0  0  0
   39.8320   26.6600   29.1650 C   0  0  0  0  0  0  0  0  0  0  0  0
   37.5996   23.9346   34.1467 H   0  0  0  0  0  0  0  0  0  0  0  0
   38.6080   27.0974   36.8710 H   0  0  0  0  0  0  0  0  0  0  0  0
   37.2787   24.6771   38.1771 H   0  0  0  0  0  0  0  0  0  0  0  0
   40.9145   21.3106   38.4974 H   0  0  0  0  0  0  0  0  0  0  0  0
   42.2608   22.4261   34.6415 H   0  0  0  0  0  0  0  0  0  0  0  0
   36.7758   27.0057   30.6686 H   0  0  0  0  0  0  0  0  0  0  0  0
   36.4741   29.9833   30.6782 H   0  0  0  0  0  0  0  0  0  0  0  0
   37.6361   29.3798   29.4485 H   0  0  0  0  0  0  0  0  0  0  0  0
   35.9402   28.7878   29.4485 H   0  0  0  0  0  0  0  0  0  0  0  0
   39.1483   28.6975   30.6405 H   0  0  0  0  0  0  0  0  0  0  0  0
   38.9987   27.6503   32.0916 H   0  0  0  0  0  0  0  0  0  0  0  0
   38.9448   23.4419   29.6050 H   0  0  0  0  0  0  0  0  0  0  0  0
   40.4256   24.9468   27.9265 H   0  0  0  0  0  0  0  0  0  0  0  0
   40.3278   27.5188   28.6889 H   0  0  0  0  0  0  0  0  0  0  0  0
  1  2  2  0
  2  3  1  0
  2  7  1  0
  4  3  2  0
  5  4  1  0
  6  5  2  0
  6  1  1  0
  7  8  1  0
  8  9  2  0
 10 11  2  0
 10  9  1  0
 12 11  1  0
 13 12  2  0
 14 13  1  0
 14 15  2  0
 15  7  1  0
 15 10  1  0
 16  5  1  0
 17 19  1  0
 17 16  1  0
 18 17  1  0
 20 21  1  0
 20 19  1  0
 22 21  2  0
 23 24  2  0
 23 22  1  0
 24 20  1  0
  1 25  1  0
  3 26  1  0
  8 27  1  0
 11 28  1  0
 13 29  1  0
 17 30  1  6
 18 31  1  0
 18 32  1  0
 18 33  1  0
 19 34  1  0
 19 35  1  0
 22 36  1  0
 23 37  1  0
 24 38  1  0
M  ISO  8  25  14  26  14  27  14  28  14  29  14  30   8  31   8  32   8
M  ISO  6  33   8  34   8  35   8  36  14  37  14  38  14
M  END
>  <minimizedAffinity>  (1) 
-4.79257154

>  <minimizedRMSD>  (1) 
0.938708782

$$$$
