
     RDKit          3D

 38 41  0  0  1  0  0  0  0  0999 V2000
   37.6060   25.0440   34.4340 C   0  0  0  0  0  0  0  0  0  0  0  0
   38.1610   25.4310   35.6720 C   0  0  0  0  0  0  0  0  0  0  0  0
   38.1660   26.7630   35.9780 C   0  0  0  0  0  0  0  0  0  0  0  0
   37.6490   27.6660   35.1050 N   0  0  0  0  0  0  0  0  0  0  0  0
   37.1220   27.2580   33.9220 C   0  0  0  0  0  0  0  0  0  0  0  0
   37.1010   25.9700   33.5920 N   0  0  0  0  0  0  0  0  0  0  0  0
   38.6760   24.4550   36.5230 N   0  0  0  0  0  0  0  0  0  0  0  0
   38.1720   24.1540   37.7490 C   0  0  0  0  0  0  0  0  0  0  0  0
   38.8720   23.1710   38.3440 N   0  0  0  0  0  0  0  0  0  0  0  0
   39.8470   22.8330   37.4810 C   0  0  0  0  0  0  0  0  0  0  0  0
   40.8490   21.9180   37.5250 C   0  0  0  0  0  0  0  0  0  0  0  0
   41.7370   21.7550   36.5030 N   0  0  0  0  0  0  0  0  0  0  0  0
   41.5620   22.5630   35.4300 C   0  0  0  0  0  0  0  0  0  0  0  0
   40.5780   23.4550   35.3980 N   0  0  0  0  0  0  0  0  0  0  0  0
   39.7110   23.6350   36.3640 C   0  0  0  0  0  0  0  0  0  0  0  0
   36.4210   28.3730   32.7170 S   0  0  0  0  0  0  0  0  0  0  0  0
   37.0760   28.0020   31.0860 C   0  0  1  0  0  0  0  0  0  0  0  0
   36.6960   29.1470   30.1540 C   0  0  0  0  0  0  0  0  0  0  0  0
   38.5580   27.8070   31.1350 C   0  0  0  0  0  0  0  0  0  0  0  0
   39.2660   28.0150   29.8240 C   0  0  0  0  0  0  0  0  0  0  0  0
   40.7940   28.1370   30.0000 C   0  0  0  0  0  0  0  0  0  0  0  0
   40.1710   27.0350   29.2260 C   0  0  0  0  0  0  0  0  0  0  0  0
   37.5847   23.9807   34.1532 H   0  0  0  0  0  0  0  0  0  0  0  0
   38.5898   27.1047   36.9338 H   0  0  0  0  0  0  0  0  0  0  0  0
   37.3004   24.6521   38.1987 H   0  0  0  0  0  0  0  0  0  0  0  0
   40.9483   21.2843   38.4186 H   0  0  0  0  0  0  0  0  0  0  0  0
   42.2452   22.4793   34.5719 H   0  0  0  0  0  0  0  0  0  0  0  0
   36.6471   27.0609   30.7113 H   0  0  0  0  0  0  0  0  0  0  0  0
   36.4049   30.0241   30.7505 H   0  0  0  0  0  0  0  0  0  0  0  0
   37.5569   29.4044   29.5195 H   0  0  0  0  0  0  0  0  0  0  0  0
   35.8520   28.8386   29.5195 H   0  0  0  0  0  0  0  0  0  0  0  0
   38.9727   28.5184   31.8644 H   0  0  0  0  0  0  0  0  0  0  0  0
   38.7227   26.7553   31.4121 H   0  0  0  0  0  0  0  0  0  0  0  0
   38.4139   28.5609   29.3927 H   0  0  0  0  0  0  0  0  0  0  0  0
   41.3515   28.9329   29.4844 H   0  0  0  0  0  0  0  0  0  0  0  0
   41.4888   28.2126   30.8494 H   0  0  0  0  0  0  0  0  0  0  0  0
   40.1991   26.0104   29.6251 H   0  0  0  0  0  0  0  0  0  0  0  0
   40.3083   26.6542   28.2032 H   0  0  0  0  0  0  0  0  0  0  0  0
  1  2  2  0
  2  3  1  0
  2  7  1  0
  4  3  2  0
  5  4  1  0
  6  5  2  0
  6  1  1  0
  7  8  1  0
  8  9  2  0
 10 11  2  0
 10  9  1  0
 12 11  1  0
 13 12  2  0
 14 13  1  0
 14 15  2  0
 15  7  1  0
 15 10  1  0
 16  5  1  0
 17 19  1  0
 17 16  1  0
 18 17  1  0
 20 21  1  0
 20 19  1  0
 22 20  1  0
 22 21  1  0
  1 23  1  0
  3 24  1  0
  8 25  1  0
 11 26  1  0
 13 27  1  0
 17 28  1  6
 18 29  1  0
 18 30  1  0
 18 31  1  0
 19 32  1  0
 19 33  1  0
 20 34  1  0
 21 35  1  0
 21 36  1  0
 22 37  1  0
 22 38  1  0
M  ISO  8  23  14  24  14  25  14  26  14  27  14  28   8  29   8  30   8
M  ISO  8  31   8  32   8  33   8  34  13  35  13  36  13  37  13  38  13
M  END
>  <minimizedAffinity>  (1) 
-4.64117622

>  <minimizedRMSD>  (1) 
0.46689111

$$$$
