
     RDKit          3D

 26 27  0  0  1  0  0  0  0  0999 V2000
   39.1400   25.3160   34.8120 C   0  0  2  0  0  0  0  0  0  0  0  0
   39.6330   22.8610   37.4780 C   0  0  0  0  0  0  0  0  0  0  0  0
   38.7150   23.2620   38.4690 C   0  0  0  0  0  0  0  0  0  0  0  0
   37.9290   24.3920   38.2180 C   0  0  0  0  0  0  0  0  0  0  0  0
   38.1150   25.0230   37.0160 N   0  0  0  0  0  0  0  0  0  0  0  0
   38.9830   24.6290   36.0940 C   0  0  0  0  0  0  0  0  0  0  0  0
   39.7390   23.5450   36.3370 N   0  0  0  0  0  0  0  0  0  0  0  0
   39.4970   26.7610   35.0740 C   0  0  0  0  0  0  0  0  0  0  0  0
   37.9120   25.3080   33.9670 C   0  0  0  0  0  0  0  0  0  0  0  0
   37.2100   26.6080   34.0370 C   0  0  0  0  0  0  0  0  0  0  0  0
   37.0730   27.2140   32.7830 C   0  0  0  0  0  0  0  0  0  0  0  0
   36.4050   28.4240   32.9480 C   0  0  0  0  0  0  0  0  0  0  0  0
   36.1750   28.4820   34.2990 C   0  0  0  0  0  0  0  0  0  0  0  0
   36.6520   27.4230   34.8830 O   0  0  0  0  0  0  0  0  0  0  0  0
   39.9253   24.7723   34.2664 H   0  0  0  0  0  0  0  0  0  0  0  0
   40.2668   21.9778   37.6461 H   0  0  0  0  0  0  0  0  0  0  0  0
   38.6192   22.7034   39.4117 H   0  0  0  0  0  0  0  0  0  0  0  0
   37.1954   24.7571   38.9519 H   0  0  0  0  0  0  0  0  0  0  0  0
   39.5405   26.9370   36.1590 H   0  0  0  0  0  0  0  0  0  0  0  0
   40.4771   26.9834   34.6269 H   0  0  0  0  0  0  0  0  0  0  0  0
   38.7332   27.4143   34.6269 H   0  0  0  0  0  0  0  0  0  0  0  0
   37.2368   24.5154   34.3217 H   0  0  0  0  0  0  0  0  0  0  0  0
   38.2069   25.1256   32.9231 H   0  0  0  0  0  0  0  0  0  0  0  0
   37.4326   26.8034   31.8280 H   0  0  0  0  0  0  0  0  0  0  0  0
   36.1275   29.1590   32.1780 H   0  0  0  0  0  0  0  0  0  0  0  0
   35.6606   29.3065   34.8144 H   0  0  0  0  0  0  0  0  0  0  0  0
  1  8  1  0
  1  6  1  0
  2  3  2  0
  4  3  1  0
  5  4  2  0
  6  7  2  0
  6  5  1  0
  7  2  1  0
  9 10  1  0
  9  1  1  0
 10 14  1  0
 11 12  1  0
 11 10  2  0
 12 13  2  0
 13 14  1  0
  1 15  1  6
  2 16  1  0
  3 17  1  0
  4 18  1  0
  8 19  1  0
  8 20  1  0
  8 21  1  0
  9 22  1  0
  9 23  1  0
 11 24  1  0
 12 25  1  0
 13 26  1  0
M  ISO  8  15   8  16  14  17  14  18  14  19   8  20   8  21   8  22   8
M  ISO  4  23   8  24  14  25  14  26  14
M  END
>  <minimizedAffinity>  (1) 
-4.10131741

>  <minimizedRMSD>  (1) 
1.45288098

$$$$
