
     RDKit          3D

 27 29  0  0  0  0  0  0  0  0999 V2000
   37.7400   24.5430   33.4300 C   0  0  0  0  0  0  0  0  0  0  0  0
   38.0480   25.0530   34.6960 C   0  0  0  0  0  0  0  0  0  0  0  0
   38.1200   26.4350   34.8780 C   0  0  0  0  0  0  0  0  0  0  0  0
   37.8830   27.2280   33.8020 N   0  0  0  0  0  0  0  0  0  0  0  0
   37.5860   26.7040   32.5840 C   0  0  0  0  0  0  0  0  0  0  0  0
   37.5190   25.3780   32.4130 N   0  0  0  0  0  0  0  0  0  0  0  0
   38.3020   24.1890   35.8540 C   0  0  0  0  0  0  0  0  0  0  0  0
   37.5670   23.7060   36.9220 C   0  0  0  0  0  0  0  0  0  0  0  0
   38.3590   22.9350   37.6840 N   0  0  0  0  0  0  0  0  0  0  0  0
   39.6040   22.8950   37.1460 C   0  0  0  0  0  0  0  0  0  0  0  0
   40.7330   22.2230   37.6000 C   0  0  0  0  0  0  0  0  0  0  0  0
   41.9080   22.3260   36.8850 C   0  0  0  0  0  0  0  0  0  0  0  0
   41.9230   23.0950   35.7400 C   0  0  0  0  0  0  0  0  0  0  0  0
   40.7920   23.7440   35.3180 C   0  0  0  0  0  0  0  0  0  0  0  0
   39.5820   23.6730   36.0050 C   0  0  0  0  0  0  0  0  0  0  0  0
   38.4460   27.0260   36.2140 C   0  0  0  0  0  0  0  0  0  0  0  0
   37.6802   23.4558   33.2734 H   0  0  0  0  0  0  0  0  0  0  0  0
   37.3992   27.3744   31.7321 H   0  0  0  0  0  0  0  0  0  0  0  0
   36.5054   23.9192   37.1155 H   0  0  0  0  0  0  0  0  0  0  0  0
   38.0668   22.4491   38.5439 H   0  0  0  0  0  0  0  0  0  0  0  0
   40.6899   21.6172   38.5172 H   0  0  0  0  0  0  0  0  0  0  0  0
   42.8162   21.8046   37.2216 H   0  0  0  0  0  0  0  0  0  0  0  0
   42.8526   23.1884   35.1594 H   0  0  0  0  0  0  0  0  0  0  0  0
   40.8417   24.3460   34.3987 H   0  0  0  0  0  0  0  0  0  0  0  0
   38.0788   26.3602   37.0089 H   0  0  0  0  0  0  0  0  0  0  0  0
   39.5358   27.1422   36.3074 H   0  0  0  0  0  0  0  0  0  0  0  0
   37.9630   28.0098   36.3074 H   0  0  0  0  0  0  0  0  0  0  0  0
  1  2  2  0
  2  3  1  0
  2  7  1  0
  3 16  1  0
  4  3  2  0
  5  4  1  0
  6  5  2  0
  6  1  1  0
  7 15  1  0
  7  8  2  0
  8  9  1  0
 10 11  2  0
 10  9  1  0
 12 11  1  0
 13 12  2  0
 14 13  1  0
 14 15  2  0
 15 10  1  0
  1 17  1  0
  5 18  1  0
  8 19  1  0
  9 20  1  0
 11 21  1  0
 12 22  1  0
 13 23  1  0
 14 24  1  0
 16 25  1  0
 16 26  1  0
 16 27  1  0
M  ISO  8  17  14  18  14  19  14  20   9  21  14  22  14  23  14  24  14
M  ISO  3  25   8  26   8  27   8
M  END
>  <minimizedAffinity>  (1) 
-4.98980999

>  <minimizedRMSD>  (1) 
4.67817926

$$$$
