
     RDKit          3D

 16 16  0  0  0  0  0  0  0  0999 V2000
   40.4200   22.2310   37.5570 C   0  0  0  0  0  0  0  0  0  0  0  0
   39.3660   23.1650   37.5030 C   0  0  0  0  0  0  0  0  0  0  0  0
   39.0640   23.7570   36.2730 C   0  0  0  0  0  0  0  0  0  0  0  0
   39.8070   23.4000   35.1870 N   0  0  0  0  0  0  0  0  0  0  0  0
   40.8120   22.4990   35.2810 C   0  0  0  0  0  0  0  0  0  0  0  0
   41.1170   21.9220   36.4470 N   0  0  0  0  0  0  0  0  0  0  0  0
   37.9590   24.7490   36.1620 C   0  0  0  0  0  0  0  0  0  0  0  0
   38.6160   23.4930   38.7210 C   0  0  0  0  0  0  0  0  0  0  0  0
   40.6753   21.7508   38.5131 H   0  0  0  0  0  0  0  0  0  0  0  0
   41.3883   22.2368   34.3815 H   0  0  0  0  0  0  0  0  0  0  0  0
   37.6294   25.0449   37.1689 H   0  0  0  0  0  0  0  0  0  0  0  0
   38.3157   25.6358   35.6176 H   0  0  0  0  0  0  0  0  0  0  0  0
   37.1157   24.2991   35.6176 H   0  0  0  0  0  0  0  0  0  0  0  0
   39.2172   23.2301   39.6038 H   0  0  0  0  0  0  0  0  0  0  0  0
   38.3942   24.5703   38.7361 H   0  0  0  0  0  0  0  0  0  0  0  0
   37.6744   22.9245   38.7361 H   0  0  0  0  0  0  0  0  0  0  0  0
  2  1  2  0
  2  8  1  0
  3  2  1  0
  4  5  1  0
  4  3  2  0
  5  6  2  0
  6  1  1  0
  7  3  1  0
  1  9  1  0
  5 10  1  0
  7 11  1  0
  7 12  1  0
  7 13  1  0
  8 14  1  0
  8 15  1  0
  8 16  1  0
M  ISO  8   9  14  10  14  11   8  12   8  13   8  14   8  15   8  16   8
M  END
>  <minimizedAffinity>  (1) 
-2.81825781

>  <minimizedRMSD>  (1) 
1.71022367

$$$$
