
     RDKit          3D

 19 19  0  0  0  0  0  0  0  0999 V2000
   38.0810   23.8080   36.1060 C   0  0  0  0  0  0  0  0  0  0  0  0
   39.2430   23.0310   36.1450 C   0  0  0  0  0  0  0  0  0  0  0  0
   39.7770   22.7340   37.4000 C   0  0  0  0  0  0  0  0  0  0  0  0
   39.1460   23.2110   38.5000 N   0  0  0  0  0  0  0  0  0  0  0  0
   38.0300   23.9540   38.4330 C   0  0  0  0  0  0  0  0  0  0  0  0
   37.4960   24.2540   37.2370 N   0  0  0  0  0  0  0  0  0  0  0  0
   41.0260   21.9010   37.4970 C   0  0  0  0  0  0  0  0  0  0  0  0
   39.9130   22.5060   34.9450 C   0  0  0  0  0  0  0  0  0  0  0  0
   40.4890   23.4810   34.0080 C   0  0  0  0  0  0  0  0  0  0  0  0
   37.6346   24.0608   35.1330 H   0  0  0  0  0  0  0  0  0  0  0  0
   37.5534   24.3167   39.3557 H   0  0  0  0  0  0  0  0  0  0  0  0
   41.2748   21.7351   38.5556 H   0  0  0  0  0  0  0  0  0  0  0  0
   40.8599   20.9322   37.0032 H   0  0  0  0  0  0  0  0  0  0  0  0
   41.8566   22.4266   37.0032 H   0  0  0  0  0  0  0  0  0  0  0  0
   40.7301   21.8519   35.2834 H   0  0  0  0  0  0  0  0  0  0  0  0
   39.1158   22.0066   34.3748 H   0  0  0  0  0  0  0  0  0  0  0  0
   40.9690   24.2935   34.5733 H   0  0  0  0  0  0  0  0  0  0  0  0
   41.2378   22.9828   33.3747 H   0  0  0  0  0  0  0  0  0  0  0  0
   39.6913   23.8964   33.3747 H   0  0  0  0  0  0  0  0  0  0  0  0
  1  2  2  0
  1  6  1  0
  2  3  1  0
  3  7  1  0
  3  4  2  0
  5  4  1  0
  6  5  2  0
  8  2  1  0
  9  8  1  0
  1 10  1  0
  5 11  1  0
  7 12  1  0
  7 13  1  0
  7 14  1  0
  8 15  1  0
  8 16  1  0
  9 17  1  0
  9 18  1  0
  9 19  1  0
M  ISO  8  10  14  11  14  12   8  13   8  14   8  15   8  16   8  17   8
M  ISO  2  18   8  19   8
M  END
>  <minimizedAffinity>  (1) 
-3.02651763

>  <minimizedRMSD>  (1) 
3.63384867

$$$$
