
     RDKit          3D

 35 37  0  0  0  0  0  0  0  0999 V2000
   41.8510   23.5180   35.3250 C   0  0  0  0  0  0  0  0  0  0  0  0
   39.5790   24.5650   35.4950 C   0  0  0  0  0  0  0  0  0  0  0  0
   40.5300   23.6560   35.9300 C   0  0  0  0  0  0  0  0  0  0  0  0
   40.1550   22.8340   37.0070 C   0  0  0  0  0  0  0  0  0  0  0  0
   38.9290   22.9700   37.5410 N   0  0  0  0  0  0  0  0  0  0  0  0
   38.0350   23.8530   37.1020 C   0  0  0  0  0  0  0  0  0  0  0  0
   38.3510   24.6680   36.0670 N   0  0  0  0  0  0  0  0  0  0  0  0
   41.1550   21.8220   37.5210 C   0  0  0  0  0  0  0  0  0  0  0  0
   42.7910   24.6380   35.4920 C   0  0  0  0  0  0  0  0  0  0  0  0
   44.1390   24.1140   35.8210 C   0  0  0  0  0  0  0  0  0  0  0  0
   44.6700   23.1420   34.9820 C   0  0  0  0  0  0  0  0  0  0  0  0
   45.9360   22.6720   35.2620 C   0  0  0  0  0  0  0  0  0  0  0  0
   46.6990   23.1040   36.3130 C   0  0  0  0  0  0  0  0  0  0  0  0
   46.1160   24.0600   37.0990 C   0  0  0  0  0  0  0  0  0  0  0  0
   46.8220   24.5440   38.1920 C   0  0  0  0  0  0  0  0  0  0  0  0
   46.3230   25.5120   39.0640 C   0  0  0  0  0  0  0  0  0  0  0  0
   45.0670   26.0070   38.8240 C   0  0  0  0  0  0  0  0  0  0  0  0
   44.3210   25.5620   37.7530 C   0  0  0  0  0  0  0  0  0  0  0  0
   44.8470   24.6060   36.9110 C   0  0  0  0  0  0  0  0  0  0  0  0
   41.7056   23.3671   34.2451 H   0  0  0  0  0  0  0  0  0  0  0  0
   42.3182   22.6760   35.8567 H   0  0  0  0  0  0  0  0  0  0  0  0
   39.8279   25.2289   34.6540 H   0  0  0  0  0  0  0  0  0  0  0  0
   37.0451   23.9206   37.5769 H   0  0  0  0  0  0  0  0  0  0  0  0
   41.1497   21.8274   38.6210 H   0  0  0  0  0  0  0  0  0  0  0  0
   40.8824   20.8201   37.1579 H   0  0  0  0  0  0  0  0  0  0  0  0
   42.1601   22.0827   37.1579 H   0  0  0  0  0  0  0  0  0  0  0  0
   42.8413   25.2157   34.5573 H   0  0  0  0  0  0  0  0  0  0  0  0
   42.4430   25.2872   36.3090 H   0  0  0  0  0  0  0  0  0  0  0  0
   44.0994   22.7599   34.1227 H   0  0  0  0  0  0  0  0  0  0  0  0
   46.3588   21.9022   34.5996 H   0  0  0  0  0  0  0  0  0  0  0  0
   47.7072   22.7112   36.5112 H   0  0  0  0  0  0  0  0  0  0  0  0
   47.8287   24.1428   38.3806 H   0  0  0  0  0  0  0  0  0  0  0  0
   46.9188   25.8672   39.9177 H   0  0  0  0  0  0  0  0  0  0  0  0
   44.6482   26.7706   39.4959 H   0  0  0  0  0  0  0  0  0  0  0  0
   43.3143   25.9667   37.5722 H   0  0  0  0  0  0  0  0  0  0  0  0
  1  9  1  0
  1  3  1  0
  2  3  2  0
  2  7  1  0
  3  4  1  0
  4  8  1  0
  4  5  2  0
  6  5  1  0
  7  6  2  0
  9 10  1  0
 10 19  2  0
 11 12  2  0
 11 10  1  0
 12 13  1  0
 13 14  2  0
 14 15  1  0
 15 16  2  0
 17 16  1  0
 18 17  2  0
 19 14  1  0
 19 18  1  0
  1 20  1  0
  1 21  1  0
  2 22  1  0
  6 23  1  0
  8 24  1  0
  8 25  1  0
  8 26  1  0
  9 27  1  0
  9 28  1  0
 11 29  1  0
 12 30  1  0
 13 31  1  0
 15 32  1  0
 16 33  1  0
 17 34  1  0
 18 35  1  0
M  ISO  8  20   8  21   8  22  14  23  14  24   8  25   8  26   8  27   8
M  ISO  8  28   8  29  14  30  14  31  14  32  14  33  14  34  14  35  14
M  END
>  <minimizedAffinity>  (1) 
-5.25712729

>  <minimizedRMSD>  (1) 
4.73804855

$$$$
