
     RDKit          3D

 40 43  0  0  0  0  0  0  0  0999 V2000
   41.0240   24.3990   32.4540 C   0  0  0  0  0  0  0  0  0  0  0  0
   41.8510   25.2740   33.1900 C   0  0  0  0  0  0  0  0  0  0  0  0
   41.9700   26.7580   32.0570 S   0  0  0  0  0  0  0  0  0  0  0  0
   40.8650   25.8900   30.7980 C   0  0  0  0  0  0  0  0  0  0  0  0
   40.6750   24.9270   31.3240 N   0  0  0  0  0  0  0  0  0  0  0  0
   40.4230   26.3970   29.5130 N   0  0  0  0  0  0  0  0  0  0  0  0
   41.1810   26.0240   28.4770 C   0  0  0  0  0  0  0  0  0  0  0  0
   40.6540   26.5660   27.3340 C   0  0  0  0  0  0  0  0  0  0  0  0
   39.5670   27.2650   27.7380 N   0  0  0  0  0  0  0  0  0  0  0  0
   39.4210   27.1650   29.0730 C   0  0  0  0  0  0  0  0  0  0  0  0
   38.4870   27.6760   30.0070 N   0  0  0  0  0  0  0  0  0  0  0  0
   38.6720   27.2650   31.2950 C   0  0  0  0  0  0  0  0  0  0  0  0
   37.8250   27.6950   32.2980 C   0  0  0  0  0  0  0  0  0  0  0  0
   38.0860   27.2020   33.6970 C   0  0  0  0  0  0  0  0  0  0  0  0
   36.7760   28.5520   32.0130 C   0  0  0  0  0  0  0  0  0  0  0  0
   36.0070   28.9400   32.9390 O   0  0  0  0  0  0  0  0  0  0  0  0
   36.6340   28.9300   30.7300 N   0  0  0  0  0  0  0  0  0  0  0  0
   37.4610   28.5090   29.7550 C   0  0  0  0  0  0  0  0  0  0  0  0
   37.3250   28.8650   28.5530 O   0  0  0  0  0  0  0  0  0  0  0  0
   40.6290   22.7980   33.1790 S   0  0  0  0  0  0  0  0  0  0  0  0
   39.9770   22.6170   37.1080 C   0  0  0  0  0  0  0  0  0  0  0  0
   38.8720   23.4680   37.3030 C   0  0  0  0  0  0  0  0  0  0  0  0
   38.3460   24.0880   36.1900 C   0  0  0  0  0  0  0  0  0  0  0  0
   38.8980   23.8680   34.9510 N   0  0  0  0  0  0  0  0  0  0  0  0
   39.9720   23.0300   34.8190 C   0  0  0  0  0  0  0  0  0  0  0  0
   40.4890   22.4260   35.8910 N   0  0  0  0  0  0  0  0  0  0  0  0
   38.2600   23.7180   38.6380 C   0  0  0  0  0  0  0  0  0  0  0  0
   39.2870   23.7170   39.5580 F   0  0  0  0  0  0  0  0  0  0  0  0
   37.3430   22.7870   38.9870 F   0  0  0  0  0  0  0  0  0  0  0  0
   37.7620   25.0430   38.6960 F   0  0  0  0  0  0  0  0  0  0  0  0
   42.3092   25.1222   34.1785 H   0  0  0  0  0  0  0  0  0  0  0  0
   42.0773   25.3887   28.5326 H   0  0  0  0  0  0  0  0  0  0  0  0
   41.0332   26.4565   26.3072 H   0  0  0  0  0  0  0  0  0  0  0  0
   39.5026   26.5855   31.5366 H   0  0  0  0  0  0  0  0  0  0  0  0
   37.6988   27.9334   34.4217 H   0  0  0  0  0  0  0  0  0  0  0  0
   37.5811   26.2361   33.8455 H   0  0  0  0  0  0  0  0  0  0  0  0
   39.1687   27.0765   33.8455 H   0  0  0  0  0  0  0  0  0  0  0  0
   35.8624   29.5664   30.4840 H   0  0  0  0  0  0  0  0  0  0  0  0
   40.4242   22.1025   37.9713 H   0  0  0  0  0  0  0  0  0  0  0  0
   37.4819   24.7608   36.2939 H   0  0  0  0  0  0  0  0  0  0  0  0
  1 20  1  0
  1  2  2  0
  3  2  1  0
  4  5  2  0
  4  3  1  0
  5  1  1  0
  6  4  1  0
  7  6  1  0
  8  9  1  0
  8  7  2  0
  9 10  2  0
 10  6  1  0
 10 11  1  0
 11 12  1  0
 12 13  2  0
 13 14  1  0
 15 13  1  0
 15 16  2  0
 17 15  1  0
 18 11  1  0
 18 17  1  0
 19 18  2  0
 20 25  1  0
 21 22  2  0
 22 27  1  0
 23 22  1  0
 24 23  2  0
 25 24  1  0
 25 26  2  0
 26 21  1  0
 27 30  1  0
 27 29  1  0
 27 28  1  0
  2 31  1  0
  7 32  1  0
  8 33  1  0
 12 34  1  0
 14 35  1  0
 14 36  1  0
 14 37  1  0
 17 38  1  0
 21 39  1  0
 23 40  1  0
M  ISO  8  31  14  32  14  33  14  34  14  35   8  36   8  37   8  38   9
M  ISO  2  39  14  40  14
M  END
>  <minimizedAffinity>  (1) 
-6.24674845

>  <minimizedRMSD>  (1) 
6.69545031

$$$$
