
     RDKit          3D

 33 35  0  0  0  0  0  0  0  0999 V2000
   41.8780   23.5100   35.3450 C   0  0  0  0  0  0  0  0  0  0  0  0
   39.6010   24.5840   35.4830 C   0  0  0  0  0  0  0  0  0  0  0  0
   40.5430   23.6620   35.9320 C   0  0  0  0  0  0  0  0  0  0  0  0
   40.1840   22.8420   36.9900 C   0  0  0  0  0  0  0  0  0  0  0  0
   38.9350   22.9810   37.5310 N   0  0  0  0  0  0  0  0  0  0  0  0
   38.0500   23.8720   37.0830 C   0  0  0  0  0  0  0  0  0  0  0  0
   38.3720   24.6790   36.0590 N   0  0  0  0  0  0  0  0  0  0  0  0
   41.1540   21.8340   37.5150 C   0  0  0  0  0  0  0  0  0  0  0  0
   42.7820   24.6760   35.4170 C   0  0  0  0  0  0  0  0  0  0  0  0
   44.1450   24.2290   35.7250 C   0  0  0  0  0  0  0  0  0  0  0  0
   44.7850   23.3340   34.9190 N   0  0  0  0  0  0  0  0  0  0  0  0
   46.0170   22.8890   35.1920 C   0  0  0  0  0  0  0  0  0  0  0  0
   46.7440   23.2620   36.2630 N   0  0  0  0  0  0  0  0  0  0  0  0
   46.1720   24.1440   37.1000 C   0  0  0  0  0  0  0  0  0  0  0  0
   46.8630   24.5760   38.2090 C   0  0  0  0  0  0  0  0  0  0  0  0
   46.2660   25.4940   39.0610 C   0  0  0  0  0  0  0  0  0  0  0  0
   45.0020   25.9700   38.8060 C   0  0  0  0  0  0  0  0  0  0  0  0
   44.3280   25.5220   37.6850 C   0  0  0  0  0  0  0  0  0  0  0  0
   44.8950   24.6060   36.8160 C   0  0  0  0  0  0  0  0  0  0  0  0
   41.7459   23.2584   34.2823 H   0  0  0  0  0  0  0  0  0  0  0  0
   42.3678   22.7327   35.9499 H   0  0  0  0  0  0  0  0  0  0  0  0
   39.8558   25.2495   34.6450 H   0  0  0  0  0  0  0  0  0  0  0  0
   37.0575   23.9460   37.5515 H   0  0  0  0  0  0  0  0  0  0  0  0
   41.1394   21.8492   38.6148 H   0  0  0  0  0  0  0  0  0  0  0  0
   40.8712   20.8326   37.1584 H   0  0  0  0  0  0  0  0  0  0  0  0
   42.1655   22.0781   37.1584 H   0  0  0  0  0  0  0  0  0  0  0  0
   42.7793   25.2006   34.4501 H   0  0  0  0  0  0  0  0  0  0  0  0
   42.4351   25.3566   36.2085 H   0  0  0  0  0  0  0  0  0  0  0  0
   46.4675   22.1686   34.4934 H   0  0  0  0  0  0  0  0  0  0  0  0
   47.8750   24.1986   38.4171 H   0  0  0  0  0  0  0  0  0  0  0  0
   46.8102   25.8447   39.9503 H   0  0  0  0  0  0  0  0  0  0  0  0
   44.5330   26.6976   39.4847 H   0  0  0  0  0  0  0  0  0  0  0  0
   43.3168   25.9027   37.4788 H   0  0  0  0  0  0  0  0  0  0  0  0
  1  9  1  0
  1  3  1  0
  2  3  2  0
  2  7  1  0
  3  4  1  0
  4  8  1  0
  4  5  2  0
  6  5  1  0
  7  6  2  0
  9 10  1  0
 10 19  2  0
 11 12  2  0
 11 10  1  0
 12 13  1  0
 13 14  2  0
 14 15  1  0
 15 16  2  0
 17 16  1  0
 18 17  2  0
 19 14  1  0
 19 18  1  0
  1 20  1  0
  1 21  1  0
  2 22  1  0
  6 23  1  0
  8 24  1  0
  8 25  1  0
  8 26  1  0
  9 27  1  0
  9 28  1  0
 12 29  1  0
 15 30  1  0
 16 31  1  0
 17 32  1  0
 18 33  1  0
M  ISO  8  20   8  21   8  22  14  23  14  24   8  25   8  26   8  27   8
M  ISO  6  28   8  29  14  30  14  31  14  32  14  33  14
M  END
>  <minimizedAffinity>  (1) 
-5.08776188

>  <minimizedRMSD>  (1) 
4.70201159

$$$$
