
     RDKit          3D

 30 32  0  0  0  0  0  0  0  0999 V2000
   38.7410   22.2130   34.5860 C   0  0  0  0  0  0  0  0  0  0  0  0
   37.5640   23.1930   36.5920 C   0  0  0  0  0  0  0  0  0  0  0  0
   38.6800   22.6480   35.9770 C   0  0  0  0  0  0  0  0  0  0  0  0
   39.8170   22.5160   36.7760 C   0  0  0  0  0  0  0  0  0  0  0  0
   39.7900   22.9080   38.0720 N   0  0  0  0  0  0  0  0  0  0  0  0
   38.6800   23.4320   38.6260 C   0  0  0  0  0  0  0  0  0  0  0  0
   37.5730   23.5740   37.8920 N   0  0  0  0  0  0  0  0  0  0  0  0
   41.0780   21.9280   36.1730 C   0  0  0  0  0  0  0  0  0  0  0  0
   38.8390   23.2610   33.5560 C   0  0  0  0  0  0  0  0  0  0  0  0
   37.6180   23.3240   32.7780 N   0  0  0  0  0  0  0  0  0  0  0  0
   36.8690   22.2540   32.3880 C   0  0  0  0  0  0  0  0  0  0  0  0
   35.7970   22.6510   31.6770 N   0  0  0  0  0  0  0  0  0  0  0  0
   35.8300   23.9890   31.5940 C   0  0  0  0  0  0  0  0  0  0  0  0
   35.0110   24.9540   31.0000 C   0  0  0  0  0  0  0  0  0  0  0  0
   35.3610   26.2480   31.1210 N   0  0  0  0  0  0  0  0  0  0  0  0
   36.4670   26.5960   31.7940 C   0  0  0  0  0  0  0  0  0  0  0  0
   37.2760   25.6780   32.3770 N   0  0  0  0  0  0  0  0  0  0  0  0
   36.9620   24.3880   32.2800 C   0  0  0  0  0  0  0  0  0  0  0  0
   39.6220   21.5627   34.4811 H   0  0  0  0  0  0  0  0  0  0  0  0
   37.7741   21.7227   34.4000 H   0  0  0  0  0  0  0  0  0  0  0  0
   36.6418   23.3202   36.0061 H   0  0  0  0  0  0  0  0  0  0  0  0
   38.6849   23.7426   39.6812 H   0  0  0  0  0  0  0  0  0  0  0  0
   41.7567   21.6115   36.9788 H   0  0  0  0  0  0  0  0  0  0  0  0
   40.8165   21.0590   35.5514 H   0  0  0  0  0  0  0  0  0  0  0  0
   41.5756   22.6870   35.5514 H   0  0  0  0  0  0  0  0  0  0  0  0
   39.0083   24.2326   34.0432 H   0  0  0  0  0  0  0  0  0  0  0  0
   39.6768   23.0223   32.8843 H   0  0  0  0  0  0  0  0  0  0  0  0
   37.1084   21.2064   32.6228 H   0  0  0  0  0  0  0  0  0  0  0  0
   34.1047   24.6634   30.4485 H   0  0  0  0  0  0  0  0  0  0  0  0
   36.7265   27.6618   31.8758 H   0  0  0  0  0  0  0  0  0  0  0  0
  1  3  1  0
  2  7  2  0
  3  2  1  0
  3  4  2  0
  4  5  1  0
  5  6  2  0
  7  6  1  0
  8  4  1  0
  9  1  1  0
 10  9  1  0
 11 10  1  0
 12 11  2  0
 13 12  1  0
 13 18  2  0
 14 15  2  0
 14 13  1  0
 15 16  1  0
 16 17  2  0
 18 17  1  0
 18 10  1  0
  1 19  1  0
  1 20  1  0
  2 21  1  0
  6 22  1  0
  8 23  1  0
  8 24  1  0
  8 25  1  0
  9 26  1  0
  9 27  1  0
 11 28  1  0
 14 29  1  0
 16 30  1  0
M  ISO  8  19   8  20   8  21  14  22  14  23   8  24   8  25   8  26   8
M  ISO  4  27   8  28  14  29  14  30  14
M  END
>  <minimizedAffinity>  (1) 
-4.69960976

>  <minimizedRMSD>  (1) 
4.08131647

$$$$
