
     RDKit          3D

 35 36  0  0  0  0  0  0  0  0999 V2000
   37.5570   23.3400   36.5040 C   0  0  0  0  0  0  0  0  0  0  0  0
   38.6110   22.8630   35.7360 C   0  0  0  0  0  0  0  0  0  0  0  0
   39.8080   22.5710   36.3920 C   0  0  0  0  0  0  0  0  0  0  0  0
   39.8920   22.7600   37.7300 N   0  0  0  0  0  0  0  0  0  0  0  0
   38.8540   23.2210   38.4420 C   0  0  0  0  0  0  0  0  0  0  0  0
   37.6950   23.5120   37.8470 N   0  0  0  0  0  0  0  0  0  0  0  0
   40.9870   22.0480   35.5960 C   0  0  0  0  0  0  0  0  0  0  0  0
   38.5330   22.6500   34.2770 C   0  0  0  0  0  0  0  0  0  0  0  0
   37.7570   21.5030   33.8120 C   0  0  0  0  0  0  0  0  0  0  0  0
   36.3140   21.7440   33.5430 C   0  0  0  0  0  0  0  0  0  0  0  0
   35.5460   20.5830   34.1340 C   0  0  0  0  0  0  0  0  0  0  0  0
   35.6090   19.3670   33.2000 C   0  0  0  0  0  0  0  0  0  0  0  0
   34.8820   19.7880   31.9400 C   0  0  0  0  0  0  0  0  0  0  0  0
   35.7320   20.8460   31.2690 C   0  0  0  0  0  0  0  0  0  0  0  0
   35.9390   22.0490   32.1430 C   0  0  0  0  0  0  0  0  0  0  0  0
   36.5988   23.5818   36.0210 H   0  0  0  0  0  0  0  0  0  0  0  0
   38.9584   23.3610   39.5281 H   0  0  0  0  0  0  0  0  0  0  0  0
   41.7701   21.7006   36.2860 H   0  0  0  0  0  0  0  0  0  0  0  0
   40.6591   21.2109   34.9622 H   0  0  0  0  0  0  0  0  0  0  0  0
   41.3875   22.8529   34.9622 H   0  0  0  0  0  0  0  0  0  0  0  0
   38.0877   23.5529   33.8338 H   0  0  0  0  0  0  0  0  0  0  0  0
   39.5665   22.4395   33.9647 H   0  0  0  0  0  0  0  0  0  0  0  0
   38.2159   21.1451   32.8786 H   0  0  0  0  0  0  0  0  0  0  0  0
   37.7822   20.7791   34.6398 H   0  0  0  0  0  0  0  0  0  0  0  0
   36.0406   22.6908   34.0317 H   0  0  0  0  0  0  0  0  0  0  0  0
   35.9851   20.3158   35.1065 H   0  0  0  0  0  0  0  0  0  0  0  0
   34.4945   20.8797   34.2619 H   0  0  0  0  0  0  0  0  0  0  0  0
   36.6542   19.1099   32.9733 H   0  0  0  0  0  0  0  0  0  0  0  0
   35.1524   18.4767   33.6570 H   0  0  0  0  0  0  0  0  0  0  0  0
   34.7561   18.9244   31.2704 H   0  0  0  0  0  0  0  0  0  0  0  0
   33.8823   20.1808   32.1771 H   0  0  0  0  0  0  0  0  0  0  0  0
   36.7131   20.4110   31.0277 H   0  0  0  0  0  0  0  0  0  0  0  0
   35.2048   21.1758   30.3617 H   0  0  0  0  0  0  0  0  0  0  0  0
   36.7393   22.6599   31.7000 H   0  0  0  0  0  0  0  0  0  0  0  0
   34.9704   22.5683   32.1886 H   0  0  0  0  0  0  0  0  0  0  0  0
  1  6  2  0
  2  3  2  0
  2  1  1  0
  3  4  1  0
  4  5  2  0
  6  5  1  0
  7  3  1  0
  8  2  1  0
  9  8  1  0
 10  9  1  0
 10 11  1  0
 12 11  1  0
 13 12  1  0
 14 13  1  0
 14 15  1  0
 15 10  1  0
  1 16  1  0
  5 17  1  0
  7 18  1  0
  7 19  1  0
  7 20  1  0
  8 21  1  0
  8 22  1  0
  9 23  1  0
  9 24  1  0
 10 25  1  0
 11 26  1  0
 11 27  1  0
 12 28  1  0
 12 29  1  0
 13 30  1  0
 13 31  1  0
 14 32  1  0
 14 33  1  0
 15 34  1  0
 15 35  1  0
M  ISO  8  16  14  17  14  18   8  19   8  20   8  21   8  22   8  23   8
M  ISO  8  24   8  25  13  26  13  27  13  28  13  29  13  30  13  31  13
M  ISO  4  32  13  33  13  34  13  35  13
M  END
>  <minimizedAffinity>  (1) 
-4.35275316

>  <minimizedRMSD>  (1) 
3.76822543

$$$$
