
     RDKit          3D

 32 33  0  0  0  0  0  0  0  0999 V2000
   37.7050   23.2040   36.5290 C   0  0  0  0  0  0  0  0  0  0  0  0
   38.8830   22.6490   36.0270 C   0  0  0  0  0  0  0  0  0  0  0  0
   39.9470   22.5160   36.9220 C   0  0  0  0  0  0  0  0  0  0  0  0
   39.7710   22.9280   38.2120 N   0  0  0  0  0  0  0  0  0  0  0  0
   38.6340   23.4530   38.6610 C   0  0  0  0  0  0  0  0  0  0  0  0
   37.5890   23.5950   37.8190 N   0  0  0  0  0  0  0  0  0  0  0  0
   41.2540   21.9240   36.4460 C   0  0  0  0  0  0  0  0  0  0  0  0
   39.0480   22.2040   34.6510 C   0  0  0  0  0  0  0  0  0  0  0  0
   38.4510   23.0090   33.5920 C   0  0  0  0  0  0  0  0  0  0  0  0
   37.2200   22.5120   33.0680 N   0  0  0  0  0  0  0  0  0  0  0  0
   37.0660   21.0760   33.1510 C   0  0  0  0  0  0  0  0  0  0  0  0
   35.5570   20.8200   33.1110 C   0  0  0  0  0  0  0  0  0  0  0  0
   34.8980   21.7430   32.3350 O   0  0  0  0  0  0  0  0  0  0  0  0
   35.7170   22.1090   31.2780 C   0  0  0  0  0  0  0  0  0  0  0  0
   36.8350   23.0180   31.7840 C   0  0  0  0  0  0  0  0  0  0  0  0
   36.8444   23.3273   35.8551 H   0  0  0  0  0  0  0  0  0  0  0  0
   38.5463   23.7690   39.7110 H   0  0  0  0  0  0  0  0  0  0  0  0
   41.8685   21.6457   37.3149 H   0  0  0  0  0  0  0  0  0  0  0  0
   41.0517   21.0296   35.8384 H   0  0  0  0  0  0  0  0  0  0  0  0
   41.7929   22.6659   35.8384 H   0  0  0  0  0  0  0  0  0  0  0  0
   40.1286   22.1522   34.4520 H   0  0  0  0  0  0  0  0  0  0  0  0
   38.5060   21.2478   34.6061 H   0  0  0  0  0  0  0  0  0  0  0  0
   38.2672   24.0164   33.9936 H   0  0  0  0  0  0  0  0  0  0  0  0
   39.1663   22.9911   32.7565 H   0  0  0  0  0  0  0  0  0  0  0  0
   37.5610   20.5870   32.2990 H   0  0  0  0  0  0  0  0  0  0  0  0
   37.5233   20.6701   34.0654 H   0  0  0  0  0  0  0  0  0  0  0  0
   35.3780   19.8164   32.6979 H   0  0  0  0  0  0  0  0  0  0  0  0
   35.1714   20.9026   34.1379 H   0  0  0  0  0  0  0  0  0  0  0  0
   35.1227   22.6455   30.5237 H   0  0  0  0  0  0  0  0  0  0  0  0
   36.1567   21.2065   30.8283 H   0  0  0  0  0  0  0  0  0  0  0  0
   37.6900   22.9901   31.0924 H   0  0  0  0  0  0  0  0  0  0  0  0
   36.4982   24.0629   31.8525 H   0  0  0  0  0  0  0  0  0  0  0  0
  1  6  2  0
  2  1  1  0
  2  3  2  0
  3  4  1  0
  4  5  2  0
  6  5  1  0
  7  3  1  0
  8  2  1  0
  9  8  1  0
 10 11  1  0
 10  9  1  0
 12 11  1  0
 13 12  1  0
 14 15  1  0
 14 13  1  0
 15 10  1  0
  1 16  1  0
  5 17  1  0
  7 18  1  0
  7 19  1  0
  7 20  1  0
  8 21  1  0
  8 22  1  0
  9 23  1  0
  9 24  1  0
 11 25  1  0
 11 26  1  0
 12 27  1  0
 12 28  1  0
 14 29  1  0
 14 30  1  0
 15 31  1  0
 15 32  1  0
M  ISO  8  16  14  17  14  18   8  19   8  20   8  21   8  22   8  23   8
M  ISO  8  24   8  25  13  26  13  27  13  28  13  29  13  30  13  31  13
M  ISO  1  32  13
M  END
>  <minimizedAffinity>  (1) 
-3.92962623

>  <minimizedRMSD>  (1) 
3.78690577

$$$$
