
     RDKit          3D

 40 44  0  0  1  0  0  0  0  0999 V2000
   40.5690   24.7350   32.3050 C   0  0  0  0  0  0  0  0  0  0  0  0
   41.4340   25.5480   33.0620 C   0  0  0  0  0  0  0  0  0  0  0  0
   41.5510   27.1010   32.0110 S   0  0  0  0  0  0  0  0  0  0  0  0
   40.3770   26.3080   30.7350 C   0  0  2  0  0  0  0  0  0  0  0  0
   40.2040   25.3420   31.2230 N   0  0  0  0  0  0  0  0  0  0  0  0
   39.9070   26.9040   29.4960 N   0  0  0  0  0  0  0  0  0  0  0  0
   40.6330   26.5820   28.4150 C   0  0  0  0  0  0  0  0  0  0  0  0
   40.0450   27.2340   27.3370 C   0  0  0  0  0  0  0  0  0  0  0  0
   39.0030   27.9080   27.8270 N   0  0  0  0  0  0  0  0  0  0  0  0
   38.9020   27.7170   29.1580 C   0  0  0  0  0  0  0  0  0  0  0  0
   38.0320   28.1540   30.1980 N   0  0  0  0  0  0  0  0  0  0  0  0
   36.9680   28.8770   29.7870 C   0  0  0  0  0  0  0  0  0  0  0  0
   36.0820   29.3320   30.7460 C   0  0  0  0  0  0  0  0  0  0  0  0
   36.3520   29.0110   32.0760 C   0  0  0  0  0  0  0  0  0  0  0  0
   35.3920   29.5200   32.9950 N   0  0  0  0  0  0  0  0  0  0  0  0
   37.4310   28.2840   32.4360 N   0  0  0  0  0  0  0  0  0  0  0  0
   38.2870   27.8480   31.4820 C   0  0  0  0  0  0  0  0  0  0  0  0
   39.2890   27.1710   31.8240 O   0  0  0  0  0  0  0  0  0  0  0  0
   40.1740   23.1090   32.9610 S   0  0  0  0  0  0  0  0  0  0  0  0
   39.7710   22.6390   36.8910 C   0  0  0  0  0  0  0  0  0  0  0  0
   38.7360   23.5440   37.2230 C   0  0  0  0  0  0  0  0  0  0  0  0
   38.1870   24.2840   36.1950 C   0  0  0  0  0  0  0  0  0  0  0  0
   38.6300   24.1420   34.9150 N   0  0  0  0  0  0  0  0  0  0  0  0
   39.6450   23.2440   34.6480 C   0  0  0  0  0  0  0  0  0  0  0  0
   40.1880   22.5190   35.6290 N   0  0  0  0  0  0  0  0  0  0  0  0
   38.2300   23.7210   38.6070 C   0  0  0  0  0  0  0  0  0  0  0  0
   39.3290   23.6260   39.4500 F   0  0  0  0  0  0  0  0  0  0  0  0
   37.3070   22.7850   38.9590 F   0  0  0  0  0  0  0  0  0  0  0  0
   37.7800   25.0370   38.7920 F   0  0  0  0  0  0  0  0  0  0  0  0
   41.0081   25.7686   34.0519 H   0  0  0  0  0  0  0  0  0  0  0  0
   42.4089   25.0813   33.2666 H   0  0  0  0  0  0  0  0  0  0  0  0
   41.5189   25.9305   28.3870 H   0  0  0  0  0  0  0  0  0  0  0  0
   40.3738   27.2008   26.2878 H   0  0  0  0  0  0  0  0  0  0  0  0
   37.3570   29.7587   29.2567 H   0  0  0  0  0  0  0  0  0  0  0  0
   36.3779   28.1755   29.1791 H   0  0  0  0  0  0  0  0  0  0  0  0
   35.1974   29.9249   30.4703 H   0  0  0  0  0  0  0  0  0  0  0  0
   35.4982   29.3394   34.0035 H   0  0  0  0  0  0  0  0  0  0  0  0
   34.5910   30.0690   32.6517 H   0  0  0  0  0  0  0  0  0  0  0  0
   40.2360   22.0291   37.6795 H   0  0  0  0  0  0  0  0  0  0  0  0
   37.3799   24.9989   36.4129 H   0  0  0  0  0  0  0  0  0  0  0  0
  1 19  1  0
  1  2  1  0
  3  2  1  0
  4  5  1  0
  4 18  1  1
  4  3  1  0
  5  1  2  0
  6  4  1  0
  7  6  1  0
  8  9  1  0
  8  7  2  0
  9 10  2  0
 10  6  1  0
 10 11  1  0
 11 17  1  0
 12 11  1  0
 12 13  1  0
 13 14  2  0
 14 16  1  0
 14 15  1  0
 17 18  1  0
 17 16  2  0
 19 24  1  0
 20 21  2  0
 21 26  1  0
 22 21  1  0
 23 22  2  0
 24 23  1  0
 24 25  2  0
 25 20  1  0
 26 29  1  0
 26 28  1  0
 26 27  1  0
  2 30  1  0
  2 31  1  0
  7 32  1  0
  8 33  1  0
 12 34  1  0
 12 35  1  0
 13 36  1  0
 15 37  1  0
 15 38  1  0
 20 39  1  0
 22 40  1  0
M  ISO  8  30  13  31  13  32  14  33  14  34  13  35  13  36  13  39  14
M  ISO  1  40  14
M  END
>  <minimizedAffinity>  (1) 
-6.02760887

>  <minimizedRMSD>  (1) 
6.97704506

$$$$
