
     RDKit          3D

 26 27  0  0  0  0  0  0  0  0999 V2000
   38.7460   22.3010   34.5730 C   0  0  0  0  0  0  0  0  0  0  0  0
   37.6150   23.1920   36.6310 C   0  0  0  0  0  0  0  0  0  0  0  0
   38.7430   22.6750   35.9860 C   0  0  0  0  0  0  0  0  0  0  0  0
   39.8930   22.5260   36.7580 C   0  0  0  0  0  0  0  0  0  0  0  0
   39.8720   22.8770   38.0610 N   0  0  0  0  0  0  0  0  0  0  0  0
   38.7690   23.3720   38.6560 C   0  0  0  0  0  0  0  0  0  0  0  0
   37.6330   23.5320   37.9400 N   0  0  0  0  0  0  0  0  0  0  0  0
   41.1330   21.9710   36.0960 C   0  0  0  0  0  0  0  0  0  0  0  0
   38.5560   23.3590   33.5720 C   0  0  0  0  0  0  0  0  0  0  0  0
   37.3430   23.1710   32.7840 N   0  0  0  0  0  0  0  0  0  0  0  0
   36.7510   24.1550   32.1160 N   0  0  0  0  0  0  0  0  0  0  0  0
   35.6640   23.7520   31.4710 C   0  0  0  0  0  0  0  0  0  0  0  0
   35.5370   22.4090   31.7360 C   0  0  0  0  0  0  0  0  0  0  0  0
   36.5930   22.0530   32.5590 C   0  0  0  0  0  0  0  0  0  0  0  0
   39.7156   21.8254   34.3641 H   0  0  0  0  0  0  0  0  0  0  0  0
   37.8601   21.6587   34.4604 H   0  0  0  0  0  0  0  0  0  0  0  0
   36.6862   23.3260   36.0571 H   0  0  0  0  0  0  0  0  0  0  0  0
   38.7926   23.6452   39.7213 H   0  0  0  0  0  0  0  0  0  0  0  0
   41.8485   21.6508   36.8677 H   0  0  0  0  0  0  0  0  0  0  0  0
   40.8596   21.1094   35.4692 H   0  0  0  0  0  0  0  0  0  0  0  0
   41.5934   22.7489   35.4692 H   0  0  0  0  0  0  0  0  0  0  0  0
   38.4937   24.3275   34.0898 H   0  0  0  0  0  0  0  0  0  0  0  0
   39.4118   23.3237   32.8818 H   0  0  0  0  0  0  0  0  0  0  0  0
   34.9982   24.3685   30.8492 H   0  0  0  0  0  0  0  0  0  0  0  0
   34.7452   21.7420   31.3642 H   0  0  0  0  0  0  0  0  0  0  0  0
   36.7917   21.0481   32.9598 H   0  0  0  0  0  0  0  0  0  0  0  0
  1  3  1  0
  2  7  2  0
  3  2  1  0
  3  4  2  0
  4  5  1  0
  5  6  2  0
  7  6  1  0
  8  4  1  0
  9  1  1  0
 10  9  1  0
 11 10  1  0
 12 13  1  0
 12 11  2  0
 13 14  2  0
 14 10  1  0
  1 15  1  0
  1 16  1  0
  2 17  1  0
  6 18  1  0
  8 19  1  0
  8 20  1  0
  8 21  1  0
  9 22  1  0
  9 23  1  0
 12 24  1  0
 13 25  1  0
 14 26  1  0
M  ISO  8  15   8  16   8  17  14  18  14  19   8  20   8  21   8  22   8
M  ISO  4  23   8  24  14  25  14  26  14
M  END
>  <minimizedAffinity>  (1) 
-3.81736875

>  <minimizedRMSD>  (1) 
3.36956596

$$$$
