
     RDKit          3D

 26 27  0  0  0  0  0  0  0  0999 V2000
   37.5330   24.0260   36.8850 C   0  0  0  0  0  0  0  0  0  0  0  0
   38.4420   23.3760   36.0650 C   0  0  0  0  0  0  0  0  0  0  0  0
   39.5550   22.8120   36.6630 C   0  0  0  0  0  0  0  0  0  0  0  0
   39.7080   22.9170   38.0110 N   0  0  0  0  0  0  0  0  0  0  0  0
   38.8080   23.5560   38.7950 C   0  0  0  0  0  0  0  0  0  0  0  0
   37.7260   24.1070   38.2290 N   0  0  0  0  0  0  0  0  0  0  0  0
   40.5790   22.0930   35.8300 C   0  0  0  0  0  0  0  0  0  0  0  0
   38.2680   23.2640   34.6210 C   0  0  0  0  0  0  0  0  0  0  0  0
   38.2760   24.4830   33.8150 C   0  0  0  0  0  0  0  0  0  0  0  0
   37.2570   24.3770   32.7770 N   0  0  0  0  0  0  0  0  0  0  0  0
   36.5240   25.2590   32.1090 C   0  0  0  0  0  0  0  0  0  0  0  0
   35.7020   24.5640   31.2220 C   0  0  0  0  0  0  0  0  0  0  0  0
   35.9710   23.2520   31.3860 N   0  0  0  0  0  0  0  0  0  0  0  0
   36.9310   23.1380   32.3470 C   0  0  0  0  0  0  0  0  0  0  0  0
   36.6380   24.4854   36.4401 H   0  0  0  0  0  0  0  0  0  0  0  0
   38.9631   23.6219   39.8820 H   0  0  0  0  0  0  0  0  0  0  0  0
   41.2991   21.5874   36.4901 H   0  0  0  0  0  0  0  0  0  0  0  0
   40.0775   21.3477   35.1952 H   0  0  0  0  0  0  0  0  0  0  0  0
   41.1097   22.8178   35.1952 H   0  0  0  0  0  0  0  0  0  0  0  0
   39.0796   22.6231   34.2462 H   0  0  0  0  0  0  0  0  0  0  0  0
   37.2456   22.8749   34.5053 H   0  0  0  0  0  0  0  0  0  0  0  0
   38.0592   25.3499   34.4565 H   0  0  0  0  0  0  0  0  0  0  0  0
   39.2648   24.6133   33.3509 H   0  0  0  0  0  0  0  0  0  0  0  0
   36.5588   26.3514   32.2336 H   0  0  0  0  0  0  0  0  0  0  0  0
   34.9741   25.0015   30.5229 H   0  0  0  0  0  0  0  0  0  0  0  0
   37.3670   22.1960   32.7112 H   0  0  0  0  0  0  0  0  0  0  0  0
  1  6  2  0
  2  3  2  0
  2  1  1  0
  3  4  1  0
  4  5  2  0
  6  5  1  0
  7  3  1  0
  8  2  1  0
  9  8  1  0
 10  9  1  0
 11 10  1  0
 12 13  1  0
 12 11  2  0
 13 14  2  0
 14 10  1  0
  1 15  1  0
  5 16  1  0
  7 17  1  0
  7 18  1  0
  7 19  1  0
  8 20  1  0
  8 21  1  0
  9 22  1  0
  9 23  1  0
 11 24  1  0
 12 25  1  0
 14 26  1  0
M  ISO  8  15  14  16  14  17   8  18   8  19   8  20   8  21   8  22   8
M  ISO  4  23   8  24  14  25  14  26  14
M  END
>  <minimizedAffinity>  (1) 
-3.75114584

>  <minimizedRMSD>  (1) 
3.46899652

$$$$
