
     RDKit          3D

 26 27  0  0  0  0  0  0  0  0999 V2000
   38.1030   24.0830   36.1440 C   0  0  0  0  0  0  0  0  0  0  0  0
   39.3640   23.4610   36.1100 C   0  0  0  0  0  0  0  0  0  0  0  0
   39.8560   22.9380   37.3240 C   0  0  0  0  0  0  0  0  0  0  0  0
   39.0960   23.0610   38.4460 N   0  0  0  0  0  0  0  0  0  0  0  0
   37.9030   23.6630   38.4180 C   0  0  0  0  0  0  0  0  0  0  0  0
   37.4040   24.1700   37.2860 N   0  0  0  0  0  0  0  0  0  0  0  0
   41.1860   22.2680   37.3560 C   0  0  0  0  0  0  0  0  0  0  0  0
   40.1790   23.3210   34.9100 C   0  0  0  0  0  0  0  0  0  0  0  0
   40.4410   24.5210   34.1180 C   0  0  0  0  0  0  0  0  0  0  0  0
   41.0580   25.6780   34.8090 C   0  0  0  0  0  0  0  0  0  0  0  0
   40.1380   26.9180   34.8610 C   0  0  0  0  0  0  0  0  0  0  0  0
   41.3840   26.9470   34.0430 C   0  0  0  0  0  0  0  0  0  0  0  0
   37.6829   24.5051   35.2191 H   0  0  0  0  0  0  0  0  0  0  0  0
   37.3189   23.7431   39.3467 H   0  0  0  0  0  0  0  0  0  0  0  0
   41.4935   22.1131   38.4007 H   0  0  0  0  0  0  0  0  0  0  0  0
   41.1193   21.2959   36.8455 H   0  0  0  0  0  0  0  0  0  0  0  0
   41.9274   22.9002   36.8455 H   0  0  0  0  0  0  0  0  0  0  0  0
   41.1527   22.9145   35.2208 H   0  0  0  0  0  0  0  0  0  0  0  0
   39.5843   22.6764   34.2460 H   0  0  0  0  0  0  0  0  0  0  0  0
   39.4793   24.8591   33.7048 H   0  0  0  0  0  0  0  0  0  0  0  0
   41.1894   24.2076   33.3753 H   0  0  0  0  0  0  0  0  0  0  0  0
   41.6424   25.0487   35.4963 H   0  0  0  0  0  0  0  0  0  0  0  0
   39.1557   26.8953   34.3665 H   0  0  0  0  0  0  0  0  0  0  0  0
   39.7194   27.5431   35.6635 H   0  0  0  0  0  0  0  0  0  0  0  0
   42.2304   27.5734   34.3612 H   0  0  0  0  0  0  0  0  0  0  0  0
   41.6047   27.1716   32.9890 H   0  0  0  0  0  0  0  0  0  0  0  0
  1  6  2  0
  2  1  1  0
  2  3  2  0
  3  7  1  0
  3  4  1  0
  5  4  2  0
  6  5  1  0
  8  2  1  0
  9 10  1  0
  9  8  1  0
 10 11  1  0
 12 10  1  0
 12 11  1  0
  1 13  1  0
  5 14  1  0
  7 15  1  0
  7 16  1  0
  7 17  1  0
  8 18  1  0
  8 19  1  0
  9 20  1  0
  9 21  1  0
 10 22  1  0
 11 23  1  0
 11 24  1  0
 12 25  1  0
 12 26  1  0
M  ISO  8  13  14  14  14  15   8  16   8  17   8  18   8  19   8  20   8
M  ISO  6  21   8  22  13  23  13  24  13  25  13  26  13
M  END
>  <minimizedAffinity>  (1) 
-3.60534453

>  <minimizedRMSD>  (1) 
0.992028713

$$$$
