
     RDKit          3D

 37 40  0  0  0  0  0  0  0  0999 V2000
   41.2740   24.7690   32.6620 C   0  0  0  0  0  0  0  0  0  0  0  0
   42.0240   25.7240   33.3820 C   0  0  0  0  0  0  0  0  0  0  0  0
   41.9470   27.2170   32.2610 S   0  0  0  0  0  0  0  0  0  0  0  0
   40.8920   26.2230   31.0220 C   0  0  0  0  0  0  0  0  0  0  0  0
   40.8350   25.2650   31.5480 N   0  0  0  0  0  0  0  0  0  0  0  0
   40.3650   26.7090   29.7570 N   0  0  0  0  0  0  0  0  0  0  0  0
   41.1400   26.4510   28.6930 C   0  0  0  0  0  0  0  0  0  0  0  0
   40.4850   26.9810   27.5920 C   0  0  0  0  0  0  0  0  0  0  0  0
   39.3410   27.5350   28.0600 N   0  0  0  0  0  0  0  0  0  0  0  0
   39.2560   27.3760   29.3840 C   0  0  0  0  0  0  0  0  0  0  0  0
   38.3760   27.6920   30.4430 N   0  0  0  0  0  0  0  0  0  0  0  0
   38.8040   27.2770   31.6680 C   0  0  0  0  0  0  0  0  0  0  0  0
   38.0110   27.5400   32.7680 C   0  0  0  0  0  0  0  0  0  0  0  0
   36.8110   28.2140   32.6090 C   0  0  0  0  0  0  0  0  0  0  0  0
   36.0760   28.4600   33.6110 O   0  0  0  0  0  0  0  0  0  0  0  0
   36.4460   28.5970   31.3710 N   0  0  0  0  0  0  0  0  0  0  0  0
   37.2020   28.3520   30.2790 C   0  0  0  0  0  0  0  0  0  0  0  0
   36.9140   28.6830   29.1050 O   0  0  0  0  0  0  0  0  0  0  0  0
   41.0830   23.1430   33.3890 S   0  0  0  0  0  0  0  0  0  0  0  0
   40.0700   22.6460   37.2030 C   0  0  0  0  0  0  0  0  0  0  0  0
   38.9890   23.5260   37.3810 C   0  0  0  0  0  0  0  0  0  0  0  0
   38.5860   24.2790   36.2780 C   0  0  0  0  0  0  0  0  0  0  0  0
   39.2450   24.1340   35.0870 N   0  0  0  0  0  0  0  0  0  0  0  0
   40.2910   23.2640   34.9660 C   0  0  0  0  0  0  0  0  0  0  0  0
   40.6830   22.5370   36.0260 N   0  0  0  0  0  0  0  0  0  0  0  0
   38.2590   23.7010   38.6590 C   0  0  0  0  0  0  0  0  0  0  0  0
   39.2330   23.7640   39.6550 F   0  0  0  0  0  0  0  0  0  0  0  0
   37.3970   22.7020   38.9340 F   0  0  0  0  0  0  0  0  0  0  0  0
   37.6650   24.9870   38.7180 F   0  0  0  0  0  0  0  0  0  0  0  0
   42.5258   25.6166   34.3550 H   0  0  0  0  0  0  0  0  0  0  0  0
   42.1050   25.9230   28.6938 H   0  0  0  0  0  0  0  0  0  0  0  0
   40.8264   26.9565   26.5466 H   0  0  0  0  0  0  0  0  0  0  0  0
   39.7600   26.7442   31.7787 H   0  0  0  0  0  0  0  0  0  0  0  0
   38.3317   27.2148   33.7687 H   0  0  0  0  0  0  0  0  0  0  0  0
   35.5536   29.0974   31.2518 H   0  0  0  0  0  0  0  0  0  0  0  0
   40.4159   22.0365   38.0509 H   0  0  0  0  0  0  0  0  0  0  0  0
   37.7456   24.9835   36.3646 H   0  0  0  0  0  0  0  0  0  0  0  0
  1  2  2  0
  1 19  1  0
  3  2  1  0
  4  5  2  0
  4  3  1  0
  5  1  1  0
  6  4  1  0
  7  6  1  0
  8  9  1  0
  8  7  2  0
  9 10  2  0
 10  6  1  0
 10 11  1  0
 11 12  1  0
 12 13  2  0
 14 13  1  0
 14 15  2  0
 16 14  1  0
 17 11  1  0
 17 16  1  0
 18 17  2  0
 19 24  1  0
 20 21  2  0
 21 26  1  0
 22 21  1  0
 23 22  2  0
 24 23  1  0
 24 25  2  0
 25 20  1  0
 26 29  1  0
 26 28  1  0
 26 27  1  0
  2 30  1  0
  7 31  1  0
  8 32  1  0
 12 33  1  0
 13 34  1  0
 16 35  1  0
 20 36  1  0
 22 37  1  0
M  ISO  8  30  14  31  14  32  14  33  14  34  14  35   9  36  14  37  14
M  END
>  <minimizedAffinity>  (1) 
-5.96664476

>  <minimizedRMSD>  (1) 
6.71974421

$$$$
