
     RDKit          3D

 20 20  0  0  0  0  0  0  0  0999 V2000
   38.0910   23.9170   36.1320 C   0  0  0  0  0  0  0  0  0  0  0  0
   39.2440   23.1470   36.1530 C   0  0  0  0  0  0  0  0  0  0  0  0
   39.7360   22.7770   37.3950 C   0  0  0  0  0  0  0  0  0  0  0  0
   39.0650   23.1880   38.5110 N   0  0  0  0  0  0  0  0  0  0  0  0
   37.9510   23.9330   38.4590 C   0  0  0  0  0  0  0  0  0  0  0  0
   37.4580   24.3020   37.2510 N   0  0  0  0  0  0  0  0  0  0  0  0
   40.9860   21.9400   37.4950 C   0  0  0  0  0  0  0  0  0  0  0  0
   39.9560   22.7060   34.9590 C   0  0  0  0  0  0  0  0  0  0  0  0
   40.3730   23.7320   33.9870 C   0  0  0  0  0  0  0  0  0  0  0  0
   41.5840   24.8320   34.7590 S   0  0  0  0  0  0  0  0  0  0  0  0
   37.6788   24.2245   35.1596 H   0  0  0  0  0  0  0  0  0  0  0  0
   37.4435   24.2409   39.3851 H   0  0  0  0  0  0  0  0  0  0  0  0
   41.2328   21.7747   38.5541 H   0  0  0  0  0  0  0  0  0  0  0  0
   40.8189   20.9710   37.0019 H   0  0  0  0  0  0  0  0  0  0  0  0
   41.8183   22.4636   37.0019 H   0  0  0  0  0  0  0  0  0  0  0  0
   40.8642   22.1831   35.2934 H   0  0  0  0  0  0  0  0  0  0  0  0
   39.2257   22.0900   34.4139 H   0  0  0  0  0  0  0  0  0  0  0  0
   39.4961   24.3157   33.6703 H   0  0  0  0  0  0  0  0  0  0  0  0
   40.8244   23.2458   33.1096 H   0  0  0  0  0  0  0  0  0  0  0  0
   41.4817   24.7391   36.1220 H   0  0  0  0  0  0  0  0  0  0  0  0
  1  2  2  0
  1  6  1  0
  2  3  1  0
  3  7  1  0
  3  4  2  0
  5  4  1  0
  6  5  2  0
  8  2  1  0
  9 10  1  0
  9  8  1  0
  1 11  1  0
  5 12  1  0
  7 13  1  0
  7 14  1  0
  7 15  1  0
  8 16  1  0
  8 17  1  0
  9 18  1  0
  9 19  1  0
 10 20  1  0
M  ISO  8  11  14  12  14  13   8  14   8  15   8  16   8  17   8  18   8
M  ISO  2  19   8  20  11
M  END
>  <minimizedAffinity>  (1) 
-3.03341722

>  <minimizedRMSD>  (1) 
0.182168201

$$$$
