
     RDKit          3D

 21 21  0  0  0  0  0  0  0  0999 V2000
   38.1050   23.8380   36.1000 C   0  0  0  0  0  0  0  0  0  0  0  0
   39.2550   23.0670   36.1210 C   0  0  0  0  0  0  0  0  0  0  0  0
   39.7660   22.7480   37.3790 C   0  0  0  0  0  0  0  0  0  0  0  0
   39.1330   23.1930   38.5030 N   0  0  0  0  0  0  0  0  0  0  0  0
   38.0160   23.9400   38.4360 C   0  0  0  0  0  0  0  0  0  0  0  0
   37.5060   24.2600   37.2400 N   0  0  0  0  0  0  0  0  0  0  0  0
   41.0230   21.9110   37.4820 C   0  0  0  0  0  0  0  0  0  0  0  0
   39.9330   22.5680   34.9420 C   0  0  0  0  0  0  0  0  0  0  0  0
   40.6090   23.5310   34.0730 C   0  0  0  0  0  0  0  0  0  0  0  0
   39.8490   23.8020   32.8650 N   0  0  0  0  0  0  0  0  0  0  0  0
   37.6653   24.1158   35.1307 H   0  0  0  0  0  0  0  0  0  0  0  0
   37.5250   24.2856   39.3577 H   0  0  0  0  0  0  0  0  0  0  0  0
   41.2687   21.7474   38.5416 H   0  0  0  0  0  0  0  0  0  0  0  0
   40.8591   20.9411   36.9896 H   0  0  0  0  0  0  0  0  0  0  0  0
   41.8547   22.4363   36.9896 H   0  0  0  0  0  0  0  0  0  0  0  0
   40.6914   21.8477   35.2824 H   0  0  0  0  0  0  0  0  0  0  0  0
   39.1261   22.1573   34.3173 H   0  0  0  0  0  0  0  0  0  0  0  0
   40.7457   24.4725   34.6251 H   0  0  0  0  0  0  0  0  0  0  0  0
   41.5762   23.0995   33.7759 H   0  0  0  0  0  0  0  0  0  0  0  0
   38.9088   24.1373   33.1189 H   0  0  0  0  0  0  0  0  0  0  0  0
   40.3321   24.5226   32.3098 H   0  0  0  0  0  0  0  0  0  0  0  0
  1  2  2  0
  1  6  1  0
  2  3  1  0
  3  7  1  0
  3  4  2  0
  5  4  1  0
  6  5  2  0
  8  2  1  0
  9  8  1  0
 10  9  1  0
  1 11  1  0
  5 12  1  0
  7 13  1  0
  7 14  1  0
  7 15  1  0
  8 16  1  0
  8 17  1  0
  9 18  1  0
  9 19  1  0
 10 20  1  0
 10 21  1  0
M  ISO  8  11  14  12  14  13   8  14   8  15   8  16   8  17   8  18   8
M  ISO  3  19   8  20   5  21   5
M  END
>  <minimizedAffinity>  (1) 
-2.96757269

>  <minimizedRMSD>  (1) 
0.286620349

$$$$
