
     RDKit          3D

 24 25  0  0  0  0  0  0  0  0999 V2000
   38.9350   24.5400   35.9770 C   0  0  0  0  0  0  0  0  0  0  0  0
   39.9440   23.6020   36.1150 C   0  0  0  0  0  0  0  0  0  0  0  0
   39.9250   22.8570   37.2970 C   0  0  0  0  0  0  0  0  0  0  0  0
   38.9460   23.0920   38.2120 N   0  0  0  0  0  0  0  0  0  0  0  0
   37.9970   24.0100   38.0290 C   0  0  0  0  0  0  0  0  0  0  0  0
   37.9900   24.7370   36.9060 N   0  0  0  0  0  0  0  0  0  0  0  0
   40.9730   21.8080   37.5470 C   0  0  0  0  0  0  0  0  0  0  0  0
   40.9960   23.3320   35.1440 C   0  0  0  0  0  0  0  0  0  0  0  0
   41.9440   24.3960   34.8450 C   0  0  0  0  0  0  0  0  0  0  0  0
   43.1090   24.4820   35.7540 C   0  0  0  0  0  0  0  0  0  0  0  0
   43.7040   23.8370   36.7750 N   0  0  0  0  0  0  0  0  0  0  0  0
   44.7680   24.4720   37.1550 O   0  0  0  0  0  0  0  0  0  0  0  0
   44.9080   25.5270   36.4220 C   0  0  0  0  0  0  0  0  0  0  0  0
   43.9100   25.5650   35.5530 N   0  0  0  0  0  0  0  0  0  0  0  0
   38.9080   25.1513   35.0629 H   0  0  0  0  0  0  0  0  0  0  0  0
   37.2248   24.1687   38.7962 H   0  0  0  0  0  0  0  0  0  0  0  0
   41.1067   21.6742   38.6306 H   0  0  0  0  0  0  0  0  0  0  0  0
   40.6541   20.8564   37.0966 H   0  0  0  0  0  0  0  0  0  0  0  0
   41.9249   22.1260   37.0966 H   0  0  0  0  0  0  0  0  0  0  0  0
   41.5747   22.4752   35.5194 H   0  0  0  0  0  0  0  0  0  0  0  0
   40.4593   23.1703   34.1975 H   0  0  0  0  0  0  0  0  0  0  0  0
   42.3212   24.2375   33.8239 H   0  0  0  0  0  0  0  0  0  0  0  0
   41.3912   25.3387   34.9706 H   0  0  0  0  0  0  0  0  0  0  0  0
   45.7178   26.2668   36.5058 H   0  0  0  0  0  0  0  0  0  0  0  0
  1  2  2  0
  1  6  1  0
  2  3  1  0
  3  7  1  0
  3  4  2  0
  5  4  1  0
  6  5  2  0
  8  2  1  0
  9  8  1  0
  9 10  1  0
 10 11  2  0
 11 12  1  0
 13 12  1  0
 14 10  1  0
 14 13  2  0
  1 15  1  0
  5 16  1  0
  7 17  1  0
  7 18  1  0
  7 19  1  0
  8 20  1  0
  8 21  1  0
  9 22  1  0
  9 23  1  0
 13 24  1  0
M  ISO  8  15  14  16  14  17   8  18   8  19   8  20   8  21   8  22   8
M  ISO  2  23   8  24  14
M  END
>  <minimizedAffinity>  (1) 
-3.73543406

>  <minimizedRMSD>  (1) 
1.80832469

$$$$
