
     RDKit          3D

 40 43  0  0  0  0  0  0  0  0999 V2000
   41.8570   24.3900   34.8210 C   0  0  0  0  0  0  0  0  0  0  0  0
   43.0130   24.3930   35.7450 C   0  0  0  0  0  0  0  0  0  0  0  0
   43.4240   23.8860   36.9270 N   0  0  0  0  0  0  0  0  0  0  0  0
   44.5900   24.3080   37.2100 O   0  0  0  0  0  0  0  0  0  0  0  0
   45.0300   25.0840   36.2960 C   0  0  0  0  0  0  0  0  0  0  0  0
   44.0780   25.1470   35.3920 N   0  0  0  0  0  0  0  0  0  0  0  0
   46.2710   25.8670   36.0470 C   0  0  0  0  0  0  0  0  0  0  0  0
   46.3510   26.9320   35.1410 C   0  0  0  0  0  0  0  0  0  0  0  0
   47.4940   27.6310   34.9290 C   0  0  0  0  0  0  0  0  0  0  0  0
   48.6500   27.3220   35.6090 C   0  0  0  0  0  0  0  0  0  0  0  0
   48.6210   26.2810   36.5130 C   0  0  0  0  0  0  0  0  0  0  0  0
   49.7790   26.0060   37.1640 C   0  0  0  0  0  0  0  0  0  0  0  0
   49.8470   24.9830   38.0860 C   0  0  0  0  0  0  0  0  0  0  0  0
   48.6780   24.2580   38.3100 C   0  0  0  0  0  0  0  0  0  0  0  0
   47.5470   24.5840   37.6240 C   0  0  0  0  0  0  0  0  0  0  0  0
   47.4400   25.5960   36.6970 C   0  0  0  0  0  0  0  0  0  0  0  0
   40.8460   23.3860   35.0720 C   0  0  0  0  0  0  0  0  0  0  0  0
   38.8470   24.6070   35.9970 C   0  0  0  0  0  0  0  0  0  0  0  0
   39.8420   23.6360   36.1010 C   0  0  0  0  0  0  0  0  0  0  0  0
   39.8600   22.8730   37.2610 C   0  0  0  0  0  0  0  0  0  0  0  0
   38.9050   23.1310   38.2080 N   0  0  0  0  0  0  0  0  0  0  0  0
   37.9720   24.0610   38.0810 C   0  0  0  0  0  0  0  0  0  0  0  0
   37.9420   24.8080   36.9600 N   0  0  0  0  0  0  0  0  0  0  0  0
   40.8780   21.8090   37.4650 C   0  0  0  0  0  0  0  0  0  0  0  0
   42.2411   24.2333   33.8022 H   0  0  0  0  0  0  0  0  0  0  0  0
   41.3564   25.3581   34.9699 H   0  0  0  0  0  0  0  0  0  0  0  0
   45.4491   27.2134   34.5777 H   0  0  0  0  0  0  0  0  0  0  0  0
   47.4970   28.4572   34.2027 H   0  0  0  0  0  0  0  0  0  0  0  0
   49.5748   27.8917   35.4356 H   0  0  0  0  0  0  0  0  0  0  0  0
   50.6758   26.6072   36.9535 H   0  0  0  0  0  0  0  0  0  0  0  0
   50.7802   24.7500   38.6197 H   0  0  0  0  0  0  0  0  0  0  0  0
   48.6686   23.4300   39.0341 H   0  0  0  0  0  0  0  0  0  0  0  0
   46.6444   23.9892   37.8278 H   0  0  0  0  0  0  0  0  0  0  0  0
   40.3064   23.2282   34.1265 H   0  0  0  0  0  0  0  0  0  0  0  0
   41.4155   22.5291   35.4612 H   0  0  0  0  0  0  0  0  0  0  0  0
   38.8052   25.2294   35.0910 H   0  0  0  0  0  0  0  0  0  0  0  0
   37.2320   24.2218   38.8788 H   0  0  0  0  0  0  0  0  0  0  0  0
   41.0307   21.6494   38.5426 H   0  0  0  0  0  0  0  0  0  0  0  0
   40.5293   20.8743   37.0017 H   0  0  0  0  0  0  0  0  0  0  0  0
   41.8272   22.1161   37.0017 H   0  0  0  0  0  0  0  0  0  0  0  0
  1 17  1  0
  1  2  1  0
  2  3  2  0
  3  4  1  0
  5  4  1  0
  6  2  1  0
  6  5  2  0
  7  5  1  0
  7 16  1  0
  8  7  2  0
  9  8  1  0
  9 10  2  0
 10 11  1  0
 11 16  2  0
 11 12  1  0
 12 13  2  0
 13 14  1  0
 15 14  2  0
 16 15  1  0
 17 19  1  0
 18 19  2  0
 18 23  1  0
 19 20  1  0
 20 24  1  0
 20 21  2  0
 22 21  1  0
 23 22  2  0
  1 25  1  0
  1 26  1  0
  8 27  1  0
  9 28  1  0
 10 29  1  0
 12 30  1  0
 13 31  1  0
 14 32  1  0
 15 33  1  0
 17 34  1  0
 17 35  1  0
 18 36  1  0
 22 37  1  0
 24 38  1  0
 24 39  1  0
 24 40  1  0
M  ISO  8  25   8  26   8  27  14  28  14  29  14  30  14  31  14  32  14
M  ISO  8  33  14  34   8  35   8  36  14  37  14  38   8  39   8  40   8
M  END
>  <minimizedAffinity>  (1) 
-5.28776264

>  <minimizedRMSD>  (1) 
1.00273633

$$$$
