
     RDKit          3D

 32 34  0  0  0  0  0  0  0  0999 V2000
   40.6910   23.4060   35.1160 C   0  0  0  0  0  0  0  0  0  0  0  0
   38.6780   24.5090   36.1220 C   0  0  0  0  0  0  0  0  0  0  0  0
   39.7370   23.6090   36.1980 C   0  0  0  0  0  0  0  0  0  0  0  0
   39.8630   22.8930   37.3740 C   0  0  0  0  0  0  0  0  0  0  0  0
   38.9470   23.1230   38.3550 N   0  0  0  0  0  0  0  0  0  0  0  0
   37.9470   23.9810   38.2660 C   0  0  0  0  0  0  0  0  0  0  0  0
   37.8020   24.6920   37.1300 N   0  0  0  0  0  0  0  0  0  0  0  0
   40.9560   21.9050   37.5500 C   0  0  0  0  0  0  0  0  0  0  0  0
   41.0720   24.5510   34.3040 C   0  0  0  0  0  0  0  0  0  0  0  0
   42.3620   25.1840   34.6150 C   0  0  0  0  0  0  0  0  0  0  0  0
   43.2040   26.1140   34.1750 N   0  0  0  0  0  0  0  0  0  0  0  0
   44.2450   26.2260   34.9200 O   0  0  0  0  0  0  0  0  0  0  0  0
   44.1340   25.3660   35.8920 C   0  0  0  0  0  0  0  0  0  0  0  0
   42.9850   24.7180   35.7220 N   0  0  0  0  0  0  0  0  0  0  0  0
   45.1280   25.1740   36.9740 C   0  0  0  0  0  0  0  0  0  0  0  0
   44.8690   25.6960   38.2290 C   0  0  0  0  0  0  0  0  0  0  0  0
   45.8680   25.4610   39.1810 C   0  0  0  0  0  0  0  0  0  0  0  0
   46.9880   24.7900   38.9110 N   0  0  0  0  0  0  0  0  0  0  0  0
   47.2020   24.2990   37.6800 C   0  0  0  0  0  0  0  0  0  0  0  0
   46.2520   24.5130   36.7450 N   0  0  0  0  0  0  0  0  0  0  0  0
   41.6117   23.0056   35.5655 H   0  0  0  0  0  0  0  0  0  0  0  0
   40.1659   22.7408   34.4147 H   0  0  0  0  0  0  0  0  0  0  0  0
   38.5505   25.0958   35.2003 H   0  0  0  0  0  0  0  0  0  0  0  0
   37.2456   24.1130   39.1031 H   0  0  0  0  0  0  0  0  0  0  0  0
   41.1348   21.7433   38.6233 H   0  0  0  0  0  0  0  0  0  0  0  0
   40.6694   20.9533   37.0786 H   0  0  0  0  0  0  0  0  0  0  0  0
   41.8740   22.2859   37.0786 H   0  0  0  0  0  0  0  0  0  0  0  0
   40.2897   25.3157   34.4190 H   0  0  0  0  0  0  0  0  0  0  0  0
   41.1837   24.1559   33.2835 H   0  0  0  0  0  0  0  0  0  0  0  0
   43.9490   26.2527   38.4607 H   0  0  0  0  0  0  0  0  0  0  0  0
   45.7220   25.8483   40.2002 H   0  0  0  0  0  0  0  0  0  0  0  0
   48.1198   23.7415   37.4414 H   0  0  0  0  0  0  0  0  0  0  0  0
  1  3  1  0
  2  3  2  0
  2  7  1  0
  3  4  1  0
  4  8  1  0
  4  5  2  0
  6  5  1  0
  7  6  2  0
  9 10  1  0
  9  1  1  0
 10 14  1  0
 11 10  2  0
 11 12  1  0
 12 13  1  0
 13 15  1  0
 14 13  2  0
 15 16  2  0
 16 17  1  0
 18 17  2  0
 19 18  1  0
 20 15  1  0
 20 19  2  0
  1 21  1  0
  1 22  1  0
  2 23  1  0
  6 24  1  0
  8 25  1  0
  8 26  1  0
  8 27  1  0
  9 28  1  0
  9 29  1  0
 16 30  1  0
 17 31  1  0
 19 32  1  0
M  ISO  8  21   8  22   8  23  14  24  14  25   8  26   8  27   8  28   8
M  ISO  4  29   8  30  14  31  14  32  14
M  END
>  <minimizedAffinity>  (1) 
-5.14412689

>  <minimizedRMSD>  (1) 
2.21357203

$$$$
