
     RDKit          3D

 31 33  0  0  0  0  0  0  0  0999 V2000
   40.6720   23.3910   35.0960 C   0  0  0  0  0  0  0  0  0  0  0  0
   38.6620   24.5020   36.1350 C   0  0  0  0  0  0  0  0  0  0  0  0
   39.7290   23.6120   36.1730 C   0  0  0  0  0  0  0  0  0  0  0  0
   39.8620   22.8980   37.3710 C   0  0  0  0  0  0  0  0  0  0  0  0
   38.9630   23.1350   38.3550 N   0  0  0  0  0  0  0  0  0  0  0  0
   37.9580   23.9990   38.2730 C   0  0  0  0  0  0  0  0  0  0  0  0
   37.8090   24.6920   37.1400 N   0  0  0  0  0  0  0  0  0  0  0  0
   40.9550   21.9070   37.5410 C   0  0  0  0  0  0  0  0  0  0  0  0
   41.0260   24.5220   34.2610 C   0  0  0  0  0  0  0  0  0  0  0  0
   42.3150   25.1810   34.5740 C   0  0  0  0  0  0  0  0  0  0  0  0
   43.1490   26.1300   34.1150 N   0  0  0  0  0  0  0  0  0  0  0  0
   44.1810   26.2440   34.8880 O   0  0  0  0  0  0  0  0  0  0  0  0
   44.0640   25.4080   35.8410 C   0  0  0  0  0  0  0  0  0  0  0  0
   42.9480   24.7360   35.6990 N   0  0  0  0  0  0  0  0  0  0  0  0
   45.0210   25.2370   36.9070 C   0  0  0  0  0  0  0  0  0  0  0  0
   44.9030   25.7240   38.1380 C   0  0  0  0  0  0  0  0  0  0  0  0
   45.7770   25.5790   39.1440 C   0  0  0  0  0  0  0  0  0  0  0  0
   46.9810   24.7770   38.7700 C   0  0  0  0  0  0  0  0  0  0  0  0
   46.6320   24.3380   36.9200 S   0  0  0  0  0  0  0  0  0  0  0  0
   41.6015   23.0132   35.5469 H   0  0  0  0  0  0  0  0  0  0  0  0
   40.1561   22.6971   34.4160 H   0  0  0  0  0  0  0  0  0  0  0  0
   38.5125   25.0871   35.2156 H   0  0  0  0  0  0  0  0  0  0  0  0
   37.2658   24.1407   39.1161 H   0  0  0  0  0  0  0  0  0  0  0  0
   41.1369   21.7421   38.6132 H   0  0  0  0  0  0  0  0  0  0  0  0
   40.6655   20.9571   37.0678 H   0  0  0  0  0  0  0  0  0  0  0  0
   41.8721   22.2878   37.0678 H   0  0  0  0  0  0  0  0  0  0  0  0
   40.2303   25.2751   34.3592 H   0  0  0  0  0  0  0  0  0  0  0  0
   41.1388   24.1168   33.2446 H   0  0  0  0  0  0  0  0  0  0  0  0
   43.9947   26.3059   38.3535 H   0  0  0  0  0  0  0  0  0  0  0  0
   45.6232   26.0078   40.1452 H   0  0  0  0  0  0  0  0  0  0  0  0
   47.8474   24.5050   39.3908 H   0  0  0  0  0  0  0  0  0  0  0  0
  1  3  1  0
  2  3  2  0
  2  7  1  0
  3  4  1  0
  4  8  1  0
  4  5  2  0
  6  5  1  0
  7  6  2  0
  9 10  1  0
  9  1  1  0
 10 14  1  0
 11 10  2  0
 11 12  1  0
 12 13  1  0
 13 15  1  0
 14 13  2  0
 15 19  1  0
 15 16  2  0
 16 17  1  0
 18 17  2  0
 19 18  1  0
  1 20  1  0
  1 21  1  0
  2 22  1  0
  6 23  1  0
  8 24  1  0
  8 25  1  0
  8 26  1  0
  9 27  1  0
  9 28  1  0
 16 29  1  0
 17 30  1  0
 18 31  1  0
M  ISO  8  20   8  21   8  22  14  23  14  24   8  25   8  26   8  27   8
M  ISO  4  28   8  29  14  30  14  31  14
M  END
>  <minimizedAffinity>  (1) 
-5.09843779

>  <minimizedRMSD>  (1) 
2.02406573

$$$$
