
     RDKit          3D

 27 28  0  0  0  0  0  0  0  0999 V2000
   41.5130   23.3290   35.1680 C   0  0  0  0  0  0  0  0  0  0  0  0
   39.3470   24.4500   35.7920 C   0  0  0  0  0  0  0  0  0  0  0  0
   40.3550   23.5250   36.0390 C   0  0  0  0  0  0  0  0  0  0  0  0
   40.2340   22.7610   37.1870 C   0  0  0  0  0  0  0  0  0  0  0  0
   39.1450   22.9750   37.9750 N   0  0  0  0  0  0  0  0  0  0  0  0
   38.1960   23.8590   37.7240 C   0  0  0  0  0  0  0  0  0  0  0  0
   38.3020   24.6090   36.6100 N   0  0  0  0  0  0  0  0  0  0  0  0
   41.2510   21.7380   37.5410 C   0  0  0  0  0  0  0  0  0  0  0  0
   42.4890   24.4000   35.0780 C   0  0  0  0  0  0  0  0  0  0  0  0
   43.6870   24.2670   35.9220 C   0  0  0  0  0  0  0  0  0  0  0  0
   44.7530   23.4880   36.1130 N   0  0  0  0  0  0  0  0  0  0  0  0
   45.4990   23.9090   37.0680 O   0  0  0  0  0  0  0  0  0  0  0  0
   44.9600   24.9890   37.5550 C   0  0  0  0  0  0  0  0  0  0  0  0
   43.8570   25.2180   36.8660 N   0  0  0  0  0  0  0  0  0  0  0  0
   45.5200   25.8050   38.6960 C   0  0  0  0  0  0  0  0  0  0  0  0
   45.9120   24.9970   39.7310 F   0  0  0  0  0  0  0  0  0  0  0  0
   46.6920   26.4290   38.2450 F   0  0  0  0  0  0  0  0  0  0  0  0
   44.6750   26.7870   39.1050 F   0  0  0  0  0  0  0  0  0  0  0  0
   42.0426   22.4334   35.5250 H   0  0  0  0  0  0  0  0  0  0  0  0
   41.0866   23.2611   34.1563 H   0  0  0  0  0  0  0  0  0  0  0  0
   39.4119   25.0748   34.8890 H   0  0  0  0  0  0  0  0  0  0  0  0
   37.3418   23.9795   38.4066 H   0  0  0  0  0  0  0  0  0  0  0  0
   41.3278   21.6608   38.6356 H   0  0  0  0  0  0  0  0  0  0  0  0
   40.9522   20.7646   37.1248 H   0  0  0  0  0  0  0  0  0  0  0  0
   42.2261   22.0310   37.1248 H   0  0  0  0  0  0  0  0  0  0  0  0
   42.8222   24.4618   34.0315 H   0  0  0  0  0  0  0  0  0  0  0  0
   41.9713   25.2983   35.4455 H   0  0  0  0  0  0  0  0  0  0  0  0
  1  3  1  0
  2  3  2  0
  2  7  1  0
  3  4  1  0
  4  8  1  0
  4  5  2  0
  6  5  1  0
  7  6  2  0
  9  1  1  0
  9 10  1  0
 10 11  2  0
 10 14  1  0
 11 12  1  0
 12 13  1  0
 13 15  1  0
 14 13  2  0
 15 18  1  0
 15 16  1  0
 17 15  1  0
  1 19  1  0
  1 20  1  0
  2 21  1  0
  6 22  1  0
  8 23  1  0
  8 24  1  0
  8 25  1  0
  9 26  1  0
  9 27  1  0
M  ISO  8  19   8  20   8  21  14  22  14  23   8  24   8  25   8  26   8
M  ISO  1  27   8
M  END
>  <minimizedAffinity>  (1) 
-4.942307

>  <minimizedRMSD>  (1) 
1.42539489

$$$$
