
     RDKit          3D

 37 39  0  0  0  0  0  0  0  0999 V2000
   41.0240   23.5710   35.1840 C   0  0  0  0  0  0  0  0  0  0  0  0
   38.8740   24.6370   35.9480 C   0  0  0  0  0  0  0  0  0  0  0  0
   39.9150   23.7270   36.1050 C   0  0  0  0  0  0  0  0  0  0  0  0
   39.8620   22.9140   37.2430 C   0  0  0  0  0  0  0  0  0  0  0  0
   38.8020   23.0880   38.0870 N   0  0  0  0  0  0  0  0  0  0  0  0
   37.8340   23.9680   37.8960 C   0  0  0  0  0  0  0  0  0  0  0  0
   37.8610   24.7510   36.8230 N   0  0  0  0  0  0  0  0  0  0  0  0
   40.9160   21.9000   37.5130 C   0  0  0  0  0  0  0  0  0  0  0  0
   41.9650   24.6700   35.0550 C   0  0  0  0  0  0  0  0  0  0  0  0
   43.2280   24.5320   35.8260 C   0  0  0  0  0  0  0  0  0  0  0  0
   43.8290   23.7410   36.7400 N   0  0  0  0  0  0  0  0  0  0  0  0
   45.0030   24.1860   37.0200 O   0  0  0  0  0  0  0  0  0  0  0  0
   45.2300   25.2510   36.3340 C   0  0  0  0  0  0  0  0  0  0  0  0
   44.1680   25.4900   35.5940 N   0  0  0  0  0  0  0  0  0  0  0  0
   46.3740   26.1370   36.2620 N   0  0  0  0  0  0  0  0  0  0  0  0
   46.6670   27.0150   35.1190 C   0  0  0  0  0  0  0  0  0  0  0  0
   48.1720   27.1980   34.9870 C   0  0  0  0  0  0  0  0  0  0  0  0
   48.6010   27.7010   36.2050 O   0  0  0  0  0  0  0  0  0  0  0  0
   48.6020   26.6870   37.1290 C   0  0  0  0  0  0  0  0  0  0  0  0
   47.2500   26.0940   37.4230 C   0  0  0  0  0  0  0  0  0  0  0  0
   41.5951   22.6880   35.5067 H   0  0  0  0  0  0  0  0  0  0  0  0
   40.5499   23.4986   34.1940 H   0  0  0  0  0  0  0  0  0  0  0  0
   38.8809   25.2940   35.0658 H   0  0  0  0  0  0  0  0  0  0  0  0
   37.0111   24.0514   38.6212 H   0  0  0  0  0  0  0  0  0  0  0  0
   41.0402   21.7805   38.5994 H   0  0  0  0  0  0  0  0  0  0  0  0
   40.6210   20.9375   37.0696 H   0  0  0  0  0  0  0  0  0  0  0  0
   41.8664   22.2320   37.0696 H   0  0  0  0  0  0  0  0  0  0  0  0
   42.2275   24.7668   33.9912 H   0  0  0  0  0  0  0  0  0  0  0  0
   41.4550   25.5513   35.4711 H   0  0  0  0  0  0  0  0  0  0  0  0
   46.2714   26.5613   34.1983 H   0  0  0  0  0  0  0  0  0  0  0  0
   46.1932   27.9945   35.2805 H   0  0  0  0  0  0  0  0  0  0  0  0
   48.6580   26.2335   34.7786 H   0  0  0  0  0  0  0  0  0  0  0  0
   48.4257   27.8752   34.1581 H   0  0  0  0  0  0  0  0  0  0  0  0
   49.2528   25.8836   36.7535 H   0  0  0  0  0  0  0  0  0  0  0  0
   48.9554   27.1300   38.0718 H   0  0  0  0  0  0  0  0  0  0  0  0
   46.7833   26.6614   38.2417 H   0  0  0  0  0  0  0  0  0  0  0  0
   47.3938   25.0398   37.7024 H   0  0  0  0  0  0  0  0  0  0  0  0
  1  3  1  0
  2  3  2  0
  2  7  1  0
  3  4  1  0
  4  8  1  0
  4  5  2  0
  6  5  1  0
  7  6  2  0
  9  1  1  0
  9 10  1  0
 10 11  2  0
 11 12  1  0
 13 12  1  0
 14 10  1  0
 14 13  2  0
 15 13  1  0
 15 20  1  0
 16 15  1  0
 17 16  1  0
 17 18  1  0
 18 19  1  0
 19 20  1  0
  1 21  1  0
  1 22  1  0
  2 23  1  0
  6 24  1  0
  8 25  1  0
  8 26  1  0
  8 27  1  0
  9 28  1  0
  9 29  1  0
 16 30  1  0
 16 31  1  0
 17 32  1  0
 17 33  1  0
 19 34  1  0
 19 35  1  0
 20 36  1  0
 20 37  1  0
M  ISO  8  21   8  22   8  23  14  24  14  25   8  26   8  27   8  28   8
M  ISO  8  29   8  30  13  31  13  32  13  33  13  34  13  35  13  36  13
M  ISO  1  37  13
M  END
>  <minimizedAffinity>  (1) 
-4.77272224

>  <minimizedRMSD>  (1) 
0.537183702

$$$$
