
     RDKit          3D

 33 34  0  0  0  0  0  0  0  0999 V2000
   40.7830   23.2580   35.0670 C   0  0  0  0  0  0  0  0  0  0  0  0
   38.8140   24.4770   36.0250 C   0  0  0  0  0  0  0  0  0  0  0  0
   39.8330   23.5380   36.1300 C   0  0  0  0  0  0  0  0  0  0  0  0
   39.9210   22.8480   37.3270 C   0  0  0  0  0  0  0  0  0  0  0  0
   39.0040   23.1520   38.2980 N   0  0  0  0  0  0  0  0  0  0  0  0
   38.0490   24.0530   38.1610 C   0  0  0  0  0  0  0  0  0  0  0  0
   37.9450   24.7300   37.0110 N   0  0  0  0  0  0  0  0  0  0  0  0
   40.9690   21.8180   37.5460 C   0  0  0  0  0  0  0  0  0  0  0  0
   41.8550   24.2130   34.8270 C   0  0  0  0  0  0  0  0  0  0  0  0
   43.1030   24.0010   35.5710 C   0  0  0  0  0  0  0  0  0  0  0  0
   44.0060   23.0710   35.8630 N   0  0  0  0  0  0  0  0  0  0  0  0
   44.9480   23.5140   36.6160 O   0  0  0  0  0  0  0  0  0  0  0  0
   44.7070   24.7710   36.8570 C   0  0  0  0  0  0  0  0  0  0  0  0
   43.5810   25.0850   36.2250 N   0  0  0  0  0  0  0  0  0  0  0  0
   45.5750   25.6650   37.7050 C   0  0  0  0  0  0  0  0  0  0  0  0
   46.7660   24.8480   38.2110 C   0  0  0  0  0  0  0  0  0  0  0  0
   44.8530   26.2020   38.8970 C   0  0  0  0  0  0  0  0  0  0  0  0
   41.2544   22.2914   35.2984 H   0  0  0  0  0  0  0  0  0  0  0  0
   40.1789   23.2933   34.1484 H   0  0  0  0  0  0  0  0  0  0  0  0
   38.7168   25.0402   35.0851 H   0  0  0  0  0  0  0  0  0  0  0  0
   37.3453   24.2456   38.9842 H   0  0  0  0  0  0  0  0  0  0  0  0
   41.1186   21.6710   38.6258 H   0  0  0  0  0  0  0  0  0  0  0  0
   40.6526   20.8696   37.0872 H   0  0  0  0  0  0  0  0  0  0  0  0
   41.9117   22.1508   37.0872 H   0  0  0  0  0  0  0  0  0  0  0  0
   42.0964   24.1811   33.7543 H   0  0  0  0  0  0  0  0  0  0  0  0
   41.4670   25.1796   35.1808 H   0  0  0  0  0  0  0  0  0  0  0  0
   45.8860   26.5141   37.0786 H   0  0  0  0  0  0  0  0  0  0  0  0
   46.7686   24.8462   39.3110 H   0  0  0  0  0  0  0  0  0  0  0  0
   46.6847   23.8146   37.8429 H   0  0  0  0  0  0  0  0  0  0  0  0
   47.7008   25.2959   37.8429 H   0  0  0  0  0  0  0  0  0  0  0  0
   45.3399   25.8399   39.8145 H   0  0  0  0  0  0  0  0  0  0  0  0
   44.8797   27.3015   38.8772 H   0  0  0  0  0  0  0  0  0  0  0  0
   43.8076   25.8602   38.8772 H   0  0  0  0  0  0  0  0  0  0  0  0
  1  3  1  0
  2  3  2  0
  2  7  1  0
  3  4  1  0
  4  8  1  0
  4  5  2  0
  6  5  1  0
  7  6  2  0
  9  1  1  0
  9 10  1  0
 10 11  2  0
 10 14  1  0
 11 12  1  0
 12 13  1  0
 13 15  1  0
 14 13  2  0
 15 16  1  0
 15 17  1  0
  1 18  1  0
  1 19  1  0
  2 20  1  0
  6 21  1  0
  8 22  1  0
  8 23  1  0
  8 24  1  0
  9 25  1  0
  9 26  1  0
 15 27  1  0
 16 28  1  0
 16 29  1  0
 16 30  1  0
 17 31  1  0
 17 32  1  0
 17 33  1  0
M  ISO  8  18   8  19   8  20  14  21  14  22   8  23   8  24   8  25   8
M  ISO  8  26   8  27   8  28   8  29   8  30   8  31   8  32   8  33   8
M  END
>  <minimizedAffinity>  (1) 
-4.77147436

>  <minimizedRMSD>  (1) 
0.951565623

$$$$
