
     RDKit          3D

 34 36  0  0  0  0  0  0  0  0999 V2000
   41.9210   24.5050   34.9010 C   0  0  0  0  0  0  0  0  0  0  0  0
   43.1320   24.5020   35.7440 C   0  0  0  0  0  0  0  0  0  0  0  0
   43.6650   23.9140   36.8150 N   0  0  0  0  0  0  0  0  0  0  0  0
   44.8330   24.3740   37.0830 O   0  0  0  0  0  0  0  0  0  0  0  0
   45.1290   25.2880   36.2030 C   0  0  0  0  0  0  0  0  0  0  0  0
   44.0950   25.3780   35.3760 N   0  0  0  0  0  0  0  0  0  0  0  0
   46.3900   26.0390   36.1900 C   0  0  0  0  0  0  0  0  0  0  0  0
   47.2410   25.9090   37.2760 C   0  0  0  0  0  0  0  0  0  0  0  0
   48.4360   26.6000   37.2970 C   0  0  0  0  0  0  0  0  0  0  0  0
   48.7270   27.4010   36.2140 C   0  0  0  0  0  0  0  0  0  0  0  0
   47.9050   27.5580   35.1090 C   0  0  0  0  0  0  0  0  0  0  0  0
   46.7160   26.8540   35.1160 C   0  0  0  0  0  0  0  0  0  0  0  0
   40.9720   23.4320   35.1350 C   0  0  0  0  0  0  0  0  0  0  0  0
   38.9040   24.5730   36.0000 C   0  0  0  0  0  0  0  0  0  0  0  0
   39.9250   23.6360   36.1290 C   0  0  0  0  0  0  0  0  0  0  0  0
   39.9270   22.8610   37.2870 C   0  0  0  0  0  0  0  0  0  0  0  0
   38.9290   23.0950   38.1860 N   0  0  0  0  0  0  0  0  0  0  0  0
   37.9740   23.9940   38.0330 C   0  0  0  0  0  0  0  0  0  0  0  0
   37.9580   24.7430   36.9290 N   0  0  0  0  0  0  0  0  0  0  0  0
   40.9730   21.8310   37.5150 C   0  0  0  0  0  0  0  0  0  0  0  0
   42.2434   24.4443   33.8511 H   0  0  0  0  0  0  0  0  0  0  0  0
   41.3863   25.4310   35.1590 H   0  0  0  0  0  0  0  0  0  0  0  0
   46.9653   25.2575   38.1183 H   0  0  0  0  0  0  0  0  0  0  0  0
   49.1298   26.5144   38.1463 H   0  0  0  0  0  0  0  0  0  0  0  0
   49.6777   27.9542   36.2274 H   0  0  0  0  0  0  0  0  0  0  0  0
   48.1851   28.2103   34.2687 H   0  0  0  0  0  0  0  0  0  0  0  0
   46.0242   26.9404   34.2652 H   0  0  0  0  0  0  0  0  0  0  0  0
   40.4741   23.2236   34.1765 H   0  0  0  0  0  0  0  0  0  0  0  0
   41.5830   22.6167   35.5497 H   0  0  0  0  0  0  0  0  0  0  0  0
   38.8743   25.1995   35.0963 H   0  0  0  0  0  0  0  0  0  0  0  0
   37.2018   24.1237   38.8056 H   0  0  0  0  0  0  0  0  0  0  0  0
   41.1178   21.6885   38.5961 H   0  0  0  0  0  0  0  0  0  0  0  0
   40.6577   20.8810   37.0589 H   0  0  0  0  0  0  0  0  0  0  0  0
   41.9180   22.1609   37.0589 H   0  0  0  0  0  0  0  0  0  0  0  0
  1 13  1  0
  1  2  1  0
  2  3  2  0
  3  4  1  0
  5  4  1  0
  6  2  1  0
  6  5  2  0
  7  5  1  0
  7  8  2  0
  8  9  1  0
 10  9  2  0
 11 12  2  0
 11 10  1  0
 12  7  1  0
 13 15  1  0
 14 15  2  0
 14 19  1  0
 15 16  1  0
 16 20  1  0
 16 17  2  0
 18 17  1  0
 19 18  2  0
  1 21  1  0
  1 22  1  0
  8 23  1  0
  9 24  1  0
 10 25  1  0
 11 26  1  0
 12 27  1  0
 13 28  1  0
 13 29  1  0
 14 30  1  0
 18 31  1  0
 20 32  1  0
 20 33  1  0
 20 34  1  0
M  ISO  8  21   8  22   8  23  14  24  14  25  14  26  14  27  14  28   8
M  ISO  6  29   8  30  14  31  14  32   8  33   8  34   8
M  END
>  <minimizedAffinity>  (1) 
-4.73527861

>  <minimizedRMSD>  (1) 
0.695374548

$$$$
