
     RDKit          3D

 36 37  0  0  0  0  0  0  0  0999 V2000
   41.0670   23.5060   35.1840 C   0  0  0  0  0  0  0  0  0  0  0  0
   38.9500   24.5650   36.0000 C   0  0  0  0  0  0  0  0  0  0  0  0
   39.9880   23.6560   36.1470 C   0  0  0  0  0  0  0  0  0  0  0  0
   39.9600   22.8710   37.2880 C   0  0  0  0  0  0  0  0  0  0  0  0
   38.9250   23.0610   38.1530 N   0  0  0  0  0  0  0  0  0  0  0  0
   37.9520   23.9350   37.9820 C   0  0  0  0  0  0  0  0  0  0  0  0
   37.9610   24.6980   36.8930 N   0  0  0  0  0  0  0  0  0  0  0  0
   41.0240   21.8640   37.5380 C   0  0  0  0  0  0  0  0  0  0  0  0
   42.1190   24.5160   35.1530 C   0  0  0  0  0  0  0  0  0  0  0  0
   43.4090   24.1460   35.7530 C   0  0  0  0  0  0  0  0  0  0  0  0
   44.2470   23.1180   35.8810 N   0  0  0  0  0  0  0  0  0  0  0  0
   45.2910   23.4280   36.5690 O   0  0  0  0  0  0  0  0  0  0  0  0
   45.1760   24.6770   36.9210 C   0  0  0  0  0  0  0  0  0  0  0  0
   44.0420   25.1350   36.4380 N   0  0  0  0  0  0  0  0  0  0  0  0
   46.2760   25.2770   37.7380 C   0  0  0  0  0  0  0  0  0  0  0  0
   46.9160   26.3410   36.8820 C   0  0  0  0  0  0  0  0  0  0  0  0
   47.3080   24.2600   38.1430 C   0  0  0  0  0  0  0  0  0  0  0  0
   45.6390   25.9750   38.9190 C   0  0  0  0  0  0  0  0  0  0  0  0
   41.5511   22.5393   35.3870 H   0  0  0  0  0  0  0  0  0  0  0  0
   40.5710   23.6045   34.2071 H   0  0  0  0  0  0  0  0  0  0  0  0
   38.9390   25.2072   35.1070 H   0  0  0  0  0  0  0  0  0  0  0  0
   37.1480   24.0309   38.7265 H   0  0  0  0  0  0  0  0  0  0  0  0
   41.1598   21.7355   38.6220 H   0  0  0  0  0  0  0  0  0  0  0  0
   40.7325   20.9033   37.0885 H   0  0  0  0  0  0  0  0  0  0  0  0
   41.9672   22.2079   37.0885 H   0  0  0  0  0  0  0  0  0  0  0  0
   42.3032   24.7729   34.0994 H   0  0  0  0  0  0  0  0  0  0  0  0
   41.7413   25.3450   35.7695 H   0  0  0  0  0  0  0  0  0  0  0  0
   47.3750   27.1041   37.5277 H   0  0  0  0  0  0  0  0  0  0  0  0
   47.6895   25.8845   36.2470 H   0  0  0  0  0  0  0  0  0  0  0  0
   46.1503   26.8104   36.2470 H   0  0  0  0  0  0  0  0  0  0  0  0
   47.3607   24.2081   39.2405 H   0  0  0  0  0  0  0  0  0  0  0  0
   47.0285   23.2744   37.7423 H   0  0  0  0  0  0  0  0  0  0  0  0
   48.2894   24.5539   37.7423 H   0  0  0  0  0  0  0  0  0  0  0  0
   46.0304   25.5461   39.8532 H   0  0  0  0  0  0  0  0  0  0  0  0
   45.8751   27.0487   38.8813 H   0  0  0  0  0  0  0  0  0  0  0  0
   44.5482   25.8378   38.8813 H   0  0  0  0  0  0  0  0  0  0  0  0
  1  3  1  0
  2  3  2  0
  2  7  1  0
  3  4  1  0
  4  8  1  0
  4  5  2  0
  6  5  1  0
  7  6  2  0
  9  1  1  0
  9 10  1  0
 10 11  2  0
 10 14  1  0
 11 12  1  0
 12 13  1  0
 13 15  1  0
 14 13  2  0
 15 17  1  0
 15 18  1  0
 16 15  1  0
  1 19  1  0
  1 20  1  0
  2 21  1  0
  6 22  1  0
  8 23  1  0
  8 24  1  0
  8 25  1  0
  9 26  1  0
  9 27  1  0
 16 28  1  0
 16 29  1  0
 16 30  1  0
 17 31  1  0
 17 32  1  0
 17 33  1  0
 18 34  1  0
 18 35  1  0
 18 36  1  0
M  ISO  8  19   8  20   8  21  14  22  14  23   8  24   8  25   8  26   8
M  ISO  8  27   8  28   8  29   8  30   8  31   8  32   8  33   8  34   8
M  ISO  2  35   8  36   8
M  END
>  <minimizedAffinity>  (1) 
-4.65822506

>  <minimizedRMSD>  (1) 
1.00697029

$$$$
