
     RDKit          3D

 37 40  0  0  0  0  0  0  0  0999 V2000
   42.1050   22.8080   32.8730 C   0  0  0  0  0  0  0  0  0  0  0  0
   43.0870   23.7960   33.0800 C   0  0  0  0  0  0  0  0  0  0  0  0
   42.9080   24.8790   31.5660 S   0  0  0  0  0  0  0  0  0  0  0  0
   41.5040   23.7520   30.9340 C   0  0  0  0  0  0  0  0  0  0  0  0
   41.4660   23.0030   31.7580 N   0  0  0  0  0  0  0  0  0  0  0  0
   40.7550   23.8940   29.7080 N   0  0  0  0  0  0  0  0  0  0  0  0
   41.2260   23.1880   28.6790 C   0  0  0  0  0  0  0  0  0  0  0  0
   40.4170   23.4220   27.5880 C   0  0  0  0  0  0  0  0  0  0  0  0
   39.4760   24.2770   28.0300 N   0  0  0  0  0  0  0  0  0  0  0  0
   39.6750   24.5690   29.3180 C   0  0  0  0  0  0  0  0  0  0  0  0
   38.9150   25.4350   30.1930 C   0  0  0  0  0  0  0  0  0  0  0  0
   39.2980   26.7680   30.2050 C   0  0  0  0  0  0  0  0  0  0  0  0
   38.6790   27.7060   30.9770 C   0  0  0  0  0  0  0  0  0  0  0  0
   37.6200   27.3870   31.8060 C   0  0  0  0  0  0  0  0  0  0  0  0
   37.2350   26.0590   31.7970 C   0  0  0  0  0  0  0  0  0  0  0  0
   37.8840   25.1350   31.0030 C   0  0  0  0  0  0  0  0  0  0  0  0
   41.9210   21.5180   34.1140 S   0  0  0  0  0  0  0  0  0  0  0  0
   40.4620   22.3770   37.7350 C   0  0  0  0  0  0  0  0  0  0  0  0
   39.3120   23.1300   37.4530 C   0  0  0  0  0  0  0  0  0  0  0  0
   39.0090   23.3580   36.1250 C   0  0  0  0  0  0  0  0  0  0  0  0
   39.8190   22.8570   35.1330 N   0  0  0  0  0  0  0  0  0  0  0  0
   40.9280   22.1300   35.4620 C   0  0  0  0  0  0  0  0  0  0  0  0
   41.2190   21.9100   36.7440 N   0  0  0  0  0  0  0  0  0  0  0  0
   38.4130   23.6870   38.4990 C   0  0  0  0  0  0  0  0  0  0  0  0
   39.2000   23.8800   39.6260 F   0  0  0  0  0  0  0  0  0  0  0  0
   37.3730   22.8620   38.8060 F   0  0  0  0  0  0  0  0  0  0  0  0
   37.9880   24.9760   38.1490 F   0  0  0  0  0  0  0  0  0  0  0  0
   43.7857   23.9039   33.9228 H   0  0  0  0  0  0  0  0  0  0  0  0
   42.1086   22.5317   28.6979 H   0  0  0  0  0  0  0  0  0  0  0  0
   40.5182   23.0017   26.5765 H   0  0  0  0  0  0  0  0  0  0  0  0
   40.1360   27.0815   29.5651 H   0  0  0  0  0  0  0  0  0  0  0  0
   39.0327   28.7469   30.9390 H   0  0  0  0  0  0  0  0  0  0  0  0
   37.1170   28.1394   32.4312 H   0  0  0  0  0  0  0  0  0  0  0  0
   36.3983   25.7337   32.4327 H   0  0  0  0  0  0  0  0  0  0  0  0
   37.5375   24.0915   31.0346 H   0  0  0  0  0  0  0  0  0  0  0  0
   40.7394   22.1716   38.7794 H   0  0  0  0  0  0  0  0  0  0  0  0
   38.1159   23.9428   35.8596 H   0  0  0  0  0  0  0  0  0  0  0  0
  1  2  2  0
  1 17  1  0
  3  2  1  0
  4  3  1  0
  4  5  2  0
  5  1  1  0
  6  4  1  0
  7  6  1  0
  8  9  1  0
  8  7  2  0
  9 10  2  0
 10  6  1  0
 10 11  1  0
 11 12  2  0
 11 16  1  0
 12 13  1  0
 13 14  2  0
 15 14  1  0
 16 15  2  0
 17 22  1  0
 19 18  2  0
 19 24  1  0
 20 19  1  0
 21 22  1  0
 21 20  2  0
 22 23  2  0
 23 18  1  0
 24 26  1  0
 24 25  1  0
 27 24  1  0
  2 28  1  0
  7 29  1  0
  8 30  1  0
 12 31  1  0
 13 32  1  0
 14 33  1  0
 15 34  1  0
 16 35  1  0
 18 36  1  0
 20 37  1  0
M  ISO  8  28  14  29  14  30  14  31  14  32  14  33  14  34  14  35  14
M  ISO  2  36  14  37  14
M  END
>  <minimizedAffinity>  (1) 
-5.02733469

>  <minimizedRMSD>  (1) 
5.53271818

$$$$
