
     RDKit          3D

 31 33  0  0  0  0  0  0  0  0999 V2000
   40.5880   23.4050   35.0910 C   0  0  0  0  0  0  0  0  0  0  0  0
   38.6340   24.4970   36.2210 C   0  0  0  0  0  0  0  0  0  0  0  0
   39.6990   23.6080   36.2220 C   0  0  0  0  0  0  0  0  0  0  0  0
   39.8900   22.8920   37.4020 C   0  0  0  0  0  0  0  0  0  0  0  0
   39.0370   23.1230   38.4260 N   0  0  0  0  0  0  0  0  0  0  0  0
   38.0320   23.9800   38.3860 C   0  0  0  0  0  0  0  0  0  0  0  0
   37.8210   24.6770   37.2770 N   0  0  0  0  0  0  0  0  0  0  0  0
   40.9980   21.9080   37.5120 C   0  0  0  0  0  0  0  0  0  0  0  0
   41.2750   24.5550   34.5350 C   0  0  0  0  0  0  0  0  0  0  0  0
   42.5770   24.8930   35.1380 C   0  0  0  0  0  0  0  0  0  0  0  0
   43.3790   24.5610   36.1760 N   0  0  0  0  0  0  0  0  0  0  0  0
   44.4630   25.2710   36.1610 O   0  0  0  0  0  0  0  0  0  0  0  0
   44.4120   26.0650   35.1480 C   0  0  0  0  0  0  0  0  0  0  0  0
   43.2880   25.8750   34.4940 N   0  0  0  0  0  0  0  0  0  0  0  0
   45.4870   27.0280   34.8170 C   0  0  0  0  0  0  0  0  0  0  0  0
   46.8380   26.8420   34.8460 C   0  0  0  0  0  0  0  0  0  0  0  0
   47.4480   27.9900   34.4660 N   0  0  0  0  0  0  0  0  0  0  0  0
   46.4830   28.8860   34.2000 C   0  0  0  0  0  0  0  0  0  0  0  0
   45.2620   28.3110   34.4110 N   0  0  0  0  0  0  0  0  0  0  0  0
   41.3596   22.6885   35.4091 H   0  0  0  0  0  0  0  0  0  0  0  0
   39.9217   23.0723   34.2814 H   0  0  0  0  0  0  0  0  0  0  0  0
   38.4450   25.0844   35.3104 H   0  0  0  0  0  0  0  0  0  0  0  0
   37.3788   24.1138   39.2609 H   0  0  0  0  0  0  0  0  0  0  0  0
   41.2140   21.7162   38.5734 H   0  0  0  0  0  0  0  0  0  0  0  0
   40.7037   20.9682   37.0220 H   0  0  0  0  0  0  0  0  0  0  0  0
   41.8965   22.3112   37.0220 H   0  0  0  0  0  0  0  0  0  0  0  0
   41.4415   24.3608   33.4652 H   0  0  0  0  0  0  0  0  0  0  0  0
   40.6227   25.4156   34.7445 H   0  0  0  0  0  0  0  0  0  0  0  0
   47.3491   25.9108   35.1316 H   0  0  0  0  0  0  0  0  0  0  0  0
   46.6499   29.9203   33.8649 H   0  0  0  0  0  0  0  0  0  0  0  0
   44.3440   28.7614   34.2869 H   0  0  0  0  0  0  0  0  0  0  0  0
  1  3  1  0
  2  3  2  0
  2  7  1  0
  3  4  1  0
  4  8  1  0
  4  5  2  0
  6  5  1  0
  7  6  2  0
  9  1  1  0
  9 10  1  0
 10 11  2  0
 12 11  1  0
 13 12  1  0
 14 10  1  0
 14 13  2  0
 15 16  2  0
 15 13  1  0
 17 16  1  0
 18 19  1  0
 18 17  2  0
 19 15  1  0
  1 20  1  0
  1 21  1  0
  2 22  1  0
  6 23  1  0
  8 24  1  0
  8 25  1  0
  8 26  1  0
  9 27  1  0
  9 28  1  0
 16 29  1  0
 18 30  1  0
 19 31  1  0
M  ISO  8  20   8  21   8  22  14  23  14  24   8  25   8  26   8  27   8
M  ISO  4  28   8  29  14  30  14  31   9
M  END
>  <minimizedAffinity>  (1) 
-4.53202009

>  <minimizedRMSD>  (1) 
1.37411404

$$$$
