
     RDKit          3D

 31 33  0  0  0  0  0  0  0  0999 V2000
   41.1030   23.6030   35.1560 C   0  0  0  0  0  0  0  0  0  0  0  0
   38.9460   24.6570   35.8860 C   0  0  0  0  0  0  0  0  0  0  0  0
   39.9730   23.7350   36.0670 C   0  0  0  0  0  0  0  0  0  0  0  0
   39.8980   22.9090   37.1820 C   0  0  0  0  0  0  0  0  0  0  0  0
   38.8180   23.0780   38.0020 N   0  0  0  0  0  0  0  0  0  0  0  0
   37.8590   23.9620   37.8050 C   0  0  0  0  0  0  0  0  0  0  0  0
   37.9110   24.7610   36.7470 N   0  0  0  0  0  0  0  0  0  0  0  0
   40.9460   21.8920   37.4540 C   0  0  0  0  0  0  0  0  0  0  0  0
   42.0560   24.6980   35.0770 C   0  0  0  0  0  0  0  0  0  0  0  0
   43.2840   24.5520   35.8770 C   0  0  0  0  0  0  0  0  0  0  0  0
   43.8270   23.8120   36.8400 N   0  0  0  0  0  0  0  0  0  0  0  0
   45.0140   24.2010   37.1390 O   0  0  0  0  0  0  0  0  0  0  0  0
   45.3130   25.2210   36.3840 C   0  0  0  0  0  0  0  0  0  0  0  0
   44.2580   25.4480   35.6030 N   0  0  0  0  0  0  0  0  0  0  0  0
   46.5930   25.9680   36.4110 C   0  0  0  0  0  0  0  0  0  0  0  0
   47.4530   26.0010   37.4800 C   0  0  0  0  0  0  0  0  0  0  0  0
   48.4970   26.8190   37.0330 C   0  0  0  0  0  0  0  0  0  0  0  0
   48.2090   27.2260   35.7360 C   0  0  0  0  0  0  0  0  0  0  0  0
   47.0640   26.6850   35.4270 O   0  0  0  0  0  0  0  0  0  0  0  0
   41.6624   22.7056   35.4588 H   0  0  0  0  0  0  0  0  0  0  0  0
   40.6439   23.5700   34.1569 H   0  0  0  0  0  0  0  0  0  0  0  0
   38.9787   25.3237   35.0117 H   0  0  0  0  0  0  0  0  0  0  0  0
   37.0210   24.0363   38.5137 H   0  0  0  0  0  0  0  0  0  0  0  0
   41.0684   21.7732   38.5407 H   0  0  0  0  0  0  0  0  0  0  0  0
   40.6473   20.9303   37.0114 H   0  0  0  0  0  0  0  0  0  0  0  0
   41.8983   22.2194   37.0114 H   0  0  0  0  0  0  0  0  0  0  0  0
   42.3531   24.8086   34.0237 H   0  0  0  0  0  0  0  0  0  0  0  0
   41.5349   25.5717   35.4955 H   0  0  0  0  0  0  0  0  0  0  0  0
   47.3471   25.5034   38.4553 H   0  0  0  0  0  0  0  0  0  0  0  0
   49.3926   27.0929   37.6099 H   0  0  0  0  0  0  0  0  0  0  0  0
   48.8249   27.8757   35.0969 H   0  0  0  0  0  0  0  0  0  0  0  0
  1  3  1  0
  2  3  2  0
  2  7  1  0
  3  4  1  0
  4  8  1  0
  4  5  2  0
  6  5  1  0
  7  6  2  0
  9  1  1  0
  9 10  1  0
 10 11  2  0
 11 12  1  0
 13 15  1  0
 13 12  1  0
 14 10  1  0
 14 13  2  0
 15 16  2  0
 17 16  1  0
 18 17  2  0
 19 18  1  0
 19 15  1  0
  1 20  1  0
  1 21  1  0
  2 22  1  0
  6 23  1  0
  8 24  1  0
  8 25  1  0
  8 26  1  0
  9 27  1  0
  9 28  1  0
 16 29  1  0
 17 30  1  0
 18 31  1  0
M  ISO  8  20   8  21   8  22  14  23  14  24   8  25   8  26   8  27   8
M  ISO  4  28   8  29  14  30  14  31  14
M  END
>  <minimizedAffinity>  (1) 
-4.53103924

>  <minimizedRMSD>  (1) 
0.587862372

$$$$
