
     RDKit          3D

 29 31  0  0  0  0  0  0  0  0999 V2000
   41.0630   23.6050   35.1640 C   0  0  0  0  0  0  0  0  0  0  0  0
   38.9130   24.6490   35.9190 C   0  0  0  0  0  0  0  0  0  0  0  0
   39.9500   23.7390   36.0800 C   0  0  0  0  0  0  0  0  0  0  0  0
   39.8630   22.9210   37.2150 C   0  0  0  0  0  0  0  0  0  0  0  0
   38.7920   23.0920   38.0420 N   0  0  0  0  0  0  0  0  0  0  0  0
   37.8320   23.9740   37.8430 C   0  0  0  0  0  0  0  0  0  0  0  0
   37.8910   24.7610   36.7710 N   0  0  0  0  0  0  0  0  0  0  0  0
   40.9160   21.9090   37.4840 C   0  0  0  0  0  0  0  0  0  0  0  0
   42.0180   24.6980   35.0640 C   0  0  0  0  0  0  0  0  0  0  0  0
   43.2580   24.5580   35.8560 C   0  0  0  0  0  0  0  0  0  0  0  0
   43.8140   23.7970   36.8150 N   0  0  0  0  0  0  0  0  0  0  0  0
   44.9950   24.2110   37.1000 O   0  0  0  0  0  0  0  0  0  0  0  0
   45.2770   25.2450   36.3600 C   0  0  0  0  0  0  0  0  0  0  0  0
   44.2280   25.4690   35.5970 N   0  0  0  0  0  0  0  0  0  0  0  0
   46.5450   26.0040   36.3970 C   0  0  0  0  0  0  0  0  0  0  0  0
   47.0510   26.7970   35.4350 N   0  0  0  0  0  0  0  0  0  0  0  0
   48.1860   27.2900   35.8350 O   0  0  0  0  0  0  0  0  0  0  0  0
   48.4750   26.8600   37.0400 C   0  0  0  0  0  0  0  0  0  0  0  0
   47.4400   26.0450   37.4000 N   0  0  0  0  0  0  0  0  0  0  0  0
   41.6257   22.7094   35.4662 H   0  0  0  0  0  0  0  0  0  0  0  0
   40.5906   23.5699   34.1712 H   0  0  0  0  0  0  0  0  0  0  0  0
   38.9349   25.3132   35.0424 H   0  0  0  0  0  0  0  0  0  0  0  0
   36.9952   24.0581   38.5520 H   0  0  0  0  0  0  0  0  0  0  0  0
   41.0405   21.7893   38.5704 H   0  0  0  0  0  0  0  0  0  0  0  0
   40.6214   20.9465   37.0405 H   0  0  0  0  0  0  0  0  0  0  0  0
   41.8661   22.2416   37.0405 H   0  0  0  0  0  0  0  0  0  0  0  0
   42.3049   24.7968   34.0067 H   0  0  0  0  0  0  0  0  0  0  0  0
   41.5026   25.5769   35.4785 H   0  0  0  0  0  0  0  0  0  0  0  0
   49.3660   27.1050   37.6367 H   0  0  0  0  0  0  0  0  0  0  0  0
  1  3  1  0
  2  3  2  0
  2  7  1  0
  3  4  1  0
  4  8  1  0
  4  5  2  0
  6  5  1  0
  7  6  2  0
  9  1  1  0
  9 10  1  0
 10 11  2  0
 11 12  1  0
 13 15  1  0
 13 12  1  0
 14 10  1  0
 14 13  2  0
 15 19  1  0
 16 17  1  0
 16 15  2  0
 17 18  1  0
 18 19  2  0
  1 20  1  0
  1 21  1  0
  2 22  1  0
  6 23  1  0
  8 24  1  0
  8 25  1  0
  8 26  1  0
  9 27  1  0
  9 28  1  0
 18 29  1  0
M  ISO  8  20   8  21   8  22  14  23  14  24   8  25   8  26   8  27   8
M  ISO  2  28   8  29  14
M  END
>  <minimizedAffinity>  (1) 
-4.43183804

>  <minimizedRMSD>  (1) 
0.692904055

$$$$
