
     RDKit          3D

 26 27  0  0  0  0  0  0  0  0999 V2000
   40.9620   23.4290   35.1360 C   0  0  0  0  0  0  0  0  0  0  0  0
   38.8960   24.5660   36.0040 C   0  0  0  0  0  0  0  0  0  0  0  0
   39.9160   23.6310   36.1350 C   0  0  0  0  0  0  0  0  0  0  0  0
   39.9170   22.8610   37.2950 C   0  0  0  0  0  0  0  0  0  0  0  0
   38.9190   23.1000   38.1880 N   0  0  0  0  0  0  0  0  0  0  0  0
   37.9620   23.9960   38.0360 C   0  0  0  0  0  0  0  0  0  0  0  0
   37.9560   24.7320   36.9310 N   0  0  0  0  0  0  0  0  0  0  0  0
   40.9610   21.8310   37.5290 C   0  0  0  0  0  0  0  0  0  0  0  0
   41.9050   24.5050   34.8980 C   0  0  0  0  0  0  0  0  0  0  0  0
   43.1180   24.5120   35.7430 C   0  0  0  0  0  0  0  0  0  0  0  0
   43.6820   23.8790   36.7830 N   0  0  0  0  0  0  0  0  0  0  0  0
   44.8240   24.3880   37.0700 O   0  0  0  0  0  0  0  0  0  0  0  0
   45.0730   25.3690   36.2510 C   0  0  0  0  0  0  0  0  0  0  0  0
   44.0370   25.4580   35.4310 N   0  0  0  0  0  0  0  0  0  0  0  0
   46.2640   26.1880   36.2590 N   0  0  0  0  0  0  0  0  0  0  0  0
   41.5441   22.5493   35.4479 H   0  0  0  0  0  0  0  0  0  0  0  0
   40.4147   23.3339   34.1866 H   0  0  0  0  0  0  0  0  0  0  0  0
   38.8647   25.1922   35.1002 H   0  0  0  0  0  0  0  0  0  0  0  0
   37.1881   24.1298   38.8062 H   0  0  0  0  0  0  0  0  0  0  0  0
   41.1024   21.6915   38.6109 H   0  0  0  0  0  0  0  0  0  0  0  0
   40.6461   20.8800   37.0747 H   0  0  0  0  0  0  0  0  0  0  0  0
   41.9077   22.1587   37.0747 H   0  0  0  0  0  0  0  0  0  0  0  0
   42.2281   24.4414   33.8485 H   0  0  0  0  0  0  0  0  0  0  0  0
   41.3654   25.4293   35.1520 H   0  0  0  0  0  0  0  0  0  0  0  0
   46.3732   26.9448   35.5689 H   0  0  0  0  0  0  0  0  0  0  0  0
   47.0034   26.0148   36.9548 H   0  0  0  0  0  0  0  0  0  0  0  0
  1  3  1  0
  2  3  2  0
  2  7  1  0
  3  4  1  0
  4  8  1  0
  4  5  2  0
  6  5  1  0
  7  6  2  0
  9  1  1  0
  9 10  1  0
 10 11  2  0
 11 12  1  0
 13 15  1  0
 13 12  1  0
 14 10  1  0
 14 13  2  0
  1 16  1  0
  1 17  1  0
  2 18  1  0
  6 19  1  0
  8 20  1  0
  8 21  1  0
  8 22  1  0
  9 23  1  0
  9 24  1  0
 15 25  1  0
 15 26  1  0
M  ISO  8  16   8  17   8  18  14  19  14  20   8  21   8  22   8  23   8
M  ISO  1  24   8
M  END
>  <minimizedAffinity>  (1) 
-3.91247773

>  <minimizedRMSD>  (1) 
0.169705749

$$$$
