
     RDKit          3D

 36 38  0  0  0  0  0  0  0  0999 V2000
   40.6070   23.4290   35.1230 C   0  0  0  0  0  0  0  0  0  0  0  0
   38.6280   24.5730   36.1930 C   0  0  0  0  0  0  0  0  0  0  0  0
   39.6700   23.6500   36.2220 C   0  0  0  0  0  0  0  0  0  0  0  0
   39.8010   22.9100   37.3860 C   0  0  0  0  0  0  0  0  0  0  0  0
   38.9080   23.1470   38.3930 N   0  0  0  0  0  0  0  0  0  0  0  0
   37.9290   24.0350   38.3290 C   0  0  0  0  0  0  0  0  0  0  0  0
   37.7850   24.7590   37.2170 N   0  0  0  0  0  0  0  0  0  0  0  0
   40.8790   21.8820   37.5250 C   0  0  0  0  0  0  0  0  0  0  0  0
   41.7210   24.3480   34.9760 C   0  0  0  0  0  0  0  0  0  0  0  0
   43.0170   23.8530   35.5070 C   0  0  0  0  0  0  0  0  0  0  0  0
   43.8020   22.7700   35.5840 N   0  0  0  0  0  0  0  0  0  0  0  0
   44.8810   23.0060   36.2380 O   0  0  0  0  0  0  0  0  0  0  0  0
   44.8720   24.2330   36.6210 C   0  0  0  0  0  0  0  0  0  0  0  0
   43.7470   24.7800   36.1910 N   0  0  0  0  0  0  0  0  0  0  0  0
   45.7990   25.0230   37.3640 N   0  0  0  0  0  0  0  0  0  0  0  0
   45.9910   25.1230   38.8200 C   0  0  0  0  0  0  0  0  0  0  0  0
   47.4590   24.7570   39.0050 C   0  0  0  0  0  0  0  0  0  0  0  0
   48.0530   25.1470   37.6440 C   0  0  0  0  0  0  0  0  0  0  0  0
   46.8850   25.9780   37.0780 C   0  0  0  0  0  0  0  0  0  0  0  0
   41.0300   22.4219   35.2526 H   0  0  0  0  0  0  0  0  0  0  0  0
   40.0044   23.5838   34.2158 H   0  0  0  0  0  0  0  0  0  0  0  0
   38.4905   25.1788   35.2852 H   0  0  0  0  0  0  0  0  0  0  0  0
   37.2447   24.1743   39.1789 H   0  0  0  0  0  0  0  0  0  0  0  0
   41.0735   21.6966   38.5917 H   0  0  0  0  0  0  0  0  0  0  0  0
   40.5582   20.9468   37.0428 H   0  0  0  0  0  0  0  0  0  0  0  0
   41.7979   22.2468   37.0428 H   0  0  0  0  0  0  0  0  0  0  0  0
   41.8497   24.5596   33.9043 H   0  0  0  0  0  0  0  0  0  0  0  0
   41.4655   25.2384   35.5692 H   0  0  0  0  0  0  0  0  0  0  0  0
   45.7918   26.1450   39.1746 H   0  0  0  0  0  0  0  0  0  0  0  0
   45.3100   24.4739   39.3900 H   0  0  0  0  0  0  0  0  0  0  0  0
   47.9160   25.3346   39.8220 H   0  0  0  0  0  0  0  0  0  0  0  0
   47.6250   23.7046   39.2787 H   0  0  0  0  0  0  0  0  0  0  0  0
   48.9676   25.7482   37.7537 H   0  0  0  0  0  0  0  0  0  0  0  0
   48.3712   24.3023   37.0154 H   0  0  0  0  0  0  0  0  0  0  0  0
   46.9956   26.1734   36.0012 H   0  0  0  0  0  0  0  0  0  0  0  0
   46.7631   26.9882   37.4960 H   0  0  0  0  0  0  0  0  0  0  0  0
  1  3  1  0
  2  3  2  0
  2  7  1  0
  3  4  1  0
  4  8  1  0
  4  5  2  0
  6  5  1  0
  7  6  2  0
  9  1  1  0
  9 10  1  0
 10 11  2  0
 10 14  1  0
 11 12  1  0
 12 13  1  0
 13 15  1  0
 14 13  2  0
 15 16  1  0
 16 17  1  0
 18 17  1  0
 19 15  1  0
 19 18  1  0
  1 20  1  0
  1 21  1  0
  2 22  1  0
  6 23  1  0
  8 24  1  0
  8 25  1  0
  8 26  1  0
  9 27  1  0
  9 28  1  0
 16 29  1  0
 16 30  1  0
 17 31  1  0
 17 32  1  0
 18 33  1  0
 18 34  1  0
 19 35  1  0
 19 36  1  0
M  ISO  8  20   8  21   8  22  14  23  14  24   8  25   8  26   8  27   8
M  ISO  8  28   8  29  13  30  13  31  13  32  13  33  13  34  13  35  13
M  ISO  1  36  13
M  END
>  <minimizedAffinity>  (1) 
-4.81722403

>  <minimizedRMSD>  (1) 
1.41904187

$$$$
