
     RDKit          3D

 50 54  0  0  1  0  0  0  0  0999 V2000
   42.5210   23.5950   35.1660 C   0  0  0  0  0  0  0  0  0  0  0  0
   43.4680   22.6980   35.3370 N   0  0  0  0  0  0  0  0  0  0  0  0
   44.4420   23.1130   36.0760 O   0  0  0  0  0  0  0  0  0  0  0  0
   44.1770   24.3100   36.4280 C   0  0  0  0  0  0  0  0  0  0  0  0
   43.0230   24.6140   35.8870 N   0  0  0  0  0  0  0  0  0  0  0  0
   44.8570   25.2690   37.2260 N   0  0  0  0  0  0  0  0  0  0  0  0
   44.8760   25.4590   38.6780 C   0  0  0  0  0  0  0  0  0  0  0  0
   46.3620   25.3930   39.0120 C   0  0  0  0  0  0  0  0  0  0  0  0
   46.9990   25.8490   37.6970 C   0  0  0  0  0  0  0  0  0  0  0  0
   45.7710   26.4060   36.9770 C   0  0  1  0  0  0  0  0  0  0  0  0
   45.9730   26.5360   35.5200 C   0  0  0  0  0  0  0  0  0  0  0  0
   45.2060   27.3730   34.7970 N   0  0  0  0  0  0  0  0  0  0  0  0
   45.3320   27.5450   33.4680 C   0  0  0  0  0  0  0  0  0  0  0  0
   46.2730   26.8600   32.7550 N   0  0  0  0  0  0  0  0  0  0  0  0
   47.0590   26.0100   33.4520 C   0  0  0  0  0  0  0  0  0  0  0  0
   48.0160   25.3140   32.7200 C   0  0  0  0  0  0  0  0  0  0  0  0
   48.8090   24.4510   33.4530 C   0  0  0  0  0  0  0  0  0  0  0  0
   48.7310   24.2290   34.8180 C   0  0  0  0  0  0  0  0  0  0  0  0
   47.7540   24.9570   35.4820 C   0  0  0  0  0  0  0  0  0  0  0  0
   46.9260   25.8370   34.8170 C   0  0  0  0  0  0  0  0  0  0  0  0
   41.2340   23.7500   34.4820 C   0  0  0  0  0  0  0  0  0  0  0  0
   40.1370   22.9210   34.9630 C   0  0  0  0  0  0  0  0  0  0  0  0
   38.3720   24.3360   36.0900 C   0  0  0  0  0  0  0  0  0  0  0  0
   39.3940   23.3790   36.1410 C   0  0  0  0  0  0  0  0  0  0  0  0
   39.6960   22.8520   37.3810 C   0  0  0  0  0  0  0  0  0  0  0  0
   38.9750   23.3110   38.4440 N   0  0  0  0  0  0  0  0  0  0  0  0
   38.0140   24.2140   38.3770 C   0  0  0  0  0  0  0  0  0  0  0  0
   37.7050   24.7370   37.1850 N   0  0  0  0  0  0  0  0  0  0  0  0
   40.7760   21.8260   37.5300 C   0  0  0  0  0  0  0  0  0  0  0  0
   44.4514   26.4353   38.9547 H   0  0  0  0  0  0  0  0  0  0  0  0
   44.2757   24.7141   39.2210 H   0  0  0  0  0  0  0  0  0  0  0  0
   46.6175   26.0732   39.8379 H   0  0  0  0  0  0  0  0  0  0  0  0
   46.6990   24.4020   39.3501 H   0  0  0  0  0  0  0  0  0  0  0  0
   47.7610   26.6250   37.8616 H   0  0  0  0  0  0  0  0  0  0  0  0
   47.5364   25.0614   37.1484 H   0  0  0  0  0  0  0  0  0  0  0  0
   45.4617   27.4077   37.3101 H   0  0  0  0  0  0  0  0  0  0  0  0
   44.6658   28.2491   32.9480 H   0  0  0  0  0  0  0  0  0  0  0  0
   48.1334   25.4416   31.6337 H   0  0  0  0  0  0  0  0  0  0  0  0
   49.5745   23.8871   32.8998 H   0  0  0  0  0  0  0  0  0  0  0  0
   49.3967   23.5251   35.3390 H   0  0  0  0  0  0  0  0  0  0  0  0
   47.6367   24.8288   36.5682 H   0  0  0  0  0  0  0  0  0  0  0  0
   41.3901   23.5136   33.4191 H   0  0  0  0  0  0  0  0  0  0  0  0
   40.9231   24.7865   34.6793 H   0  0  0  0  0  0  0  0  0  0  0  0
   39.4153   22.8229   34.1387 H   0  0  0  0  0  0  0  0  0  0  0  0
   40.6198   21.9877   35.2882 H   0  0  0  0  0  0  0  0  0  0  0  0
   38.1059   24.7753   35.1173 H   0  0  0  0  0  0  0  0  0  0  0  0
   37.4777   24.5302   39.2839 H   0  0  0  0  0  0  0  0  0  0  0  0
   40.9657   21.6458   38.5984 H   0  0  0  0  0  0  0  0  0  0  0  0
   40.4593   20.8880   37.0505 H   0  0  0  0  0  0  0  0  0  0  0  0
   41.6965   22.1903   37.0505 H   0  0  0  0  0  0  0  0  0  0  0  0
  1  2  2  0
  1  5  1  0
  2  3  1  0
  3  4  1  0
  4  6  1  0
  5  4  2  0
  6  7  1  0
  7  8  1  0
  9  8  1  0
 10  6  1  0
 10  9  1  0
 11 10  1  0
 12 11  2  0
 13 12  1  0
 14 15  1  0
 14 13  2  0
 15 20  2  0
 16 15  1  0
 16 17  2  0
 17 18  1  0
 18 19  2  0
 20 19  1  0
 20 11  1  0
 21 22  1  0
 21  1  1  0
 22 24  1  0
 23 24  2  0
 23 28  1  0
 24 25  1  0
 25 29  1  0
 25 26  2  0
 27 26  1  0
 28 27  2  0
  7 30  1  0
  7 31  1  0
  8 32  1  0
  8 33  1  0
  9 34  1  0
  9 35  1  0
 10 36  1  1
 13 37  1  0
 16 38  1  0
 17 39  1  0
 18 40  1  0
 19 41  1  0
 21 42  1  0
 21 43  1  0
 22 44  1  0
 22 45  1  0
 23 46  1  0
 27 47  1  0
 29 48  1  0
 29 49  1  0
 29 50  1  0
M  ISO  8  30  13  31  13  32  13  33  13  34  13  35  13  36  13  37  14
M  ISO  8  38  14  39  14  40  14  41  14  42   8  43   8  44   8  45   8
M  ISO  5  46  14  47  14  48   8  49   8  50   8
M  END
>  <minimizedAffinity>  (1) 
-5.38872433

>  <minimizedRMSD>  (1) 
1.14745736

$$$$
