
     RDKit          3D

 49 53  0  0  1  0  0  0  0  0999 V2000
   42.9660   23.7660   35.5020 C   0  0  0  0  0  0  0  0  0  0  0  0
   43.6970   22.6940   35.7110 N   0  0  0  0  0  0  0  0  0  0  0  0
   44.7620   22.9200   36.4090 O   0  0  0  0  0  0  0  0  0  0  0  0
   44.7750   24.1630   36.6910 C   0  0  0  0  0  0  0  0  0  0  0  0
   43.7020   24.6860   36.1530 N   0  0  0  0  0  0  0  0  0  0  0  0
   45.6710   24.9920   37.4200 N   0  0  0  0  0  0  0  0  0  0  0  0
   45.7770   25.2660   38.8500 C   0  0  0  0  0  0  0  0  0  0  0  0
   47.2150   24.8820   39.1750 C   0  0  0  0  0  0  0  0  0  0  0  0
   47.9060   25.1280   37.8190 C   0  0  0  0  0  0  0  0  0  0  0  0
   46.8110   25.8780   37.0860 C   0  0  1  0  0  0  0  0  0  0  0  0
   46.9620   25.8980   35.6610 N   0  0  0  0  0  0  0  0  0  0  0  0
   47.8860   25.1430   35.0250 C   0  0  0  0  0  0  0  0  0  0  0  0
   47.8040   25.3610   33.7020 N   0  0  0  0  0  0  0  0  0  0  0  0
   46.8340   26.2570   33.4340 C   0  0  0  0  0  0  0  0  0  0  0  0
   46.3130   26.8470   32.3000 C   0  0  0  0  0  0  0  0  0  0  0  0
   45.2970   27.7410   32.4230 N   0  0  0  0  0  0  0  0  0  0  0  0
   44.8250   28.0260   33.6680 C   0  0  0  0  0  0  0  0  0  0  0  0
   45.3300   27.4540   34.7770 N   0  0  0  0  0  0  0  0  0  0  0  0
   46.3360   26.5650   34.6850 C   0  0  0  0  0  0  0  0  0  0  0  0
   46.8560   26.5000   31.0320 N   0  0  0  0  0  0  0  0  0  0  0  0
   41.7260   24.1670   34.8300 C   0  0  0  0  0  0  0  0  0  0  0  0
   40.5640   23.3160   35.0380 C   0  0  0  0  0  0  0  0  0  0  0  0
   38.6830   24.6020   36.1400 C   0  0  0  0  0  0  0  0  0  0  0  0
   39.6780   23.6150   36.1660 C   0  0  0  0  0  0  0  0  0  0  0  0
   39.7990   22.9020   37.3370 C   0  0  0  0  0  0  0  0  0  0  0  0
   38.9450   23.2220   38.3530 N   0  0  0  0  0  0  0  0  0  0  0  0
   38.0100   24.1600   38.3030 C   0  0  0  0  0  0  0  0  0  0  0  0
   37.8770   24.8660   37.1710 N   0  0  0  0  0  0  0  0  0  0  0  0
   40.8260   21.8310   37.4680 C   0  0  0  0  0  0  0  0  0  0  0  0
   45.5959   26.3301   39.0618 H   0  0  0  0  0  0  0  0  0  0  0  0
   45.0382   24.7143   39.4498 H   0  0  0  0  0  0  0  0  0  0  0  0
   47.6350   25.5238   39.9635 H   0  0  0  0  0  0  0  0  0  0  0  0
   47.3321   23.8589   39.5617 H   0  0  0  0  0  0  0  0  0  0  0  0
   48.8135   25.7397   37.9302 H   0  0  0  0  0  0  0  0  0  0  0  0
   48.2587   24.2181   37.3114 H   0  0  0  0  0  0  0  0  0  0  0  0
   46.7536   26.9399   37.3671 H   0  0  0  0  0  0  0  0  0  0  0  0
   48.5939   24.4577   35.5142 H   0  0  0  0  0  0  0  0  0  0  0  0
   44.0023   28.7489   33.7712 H   0  0  0  0  0  0  0  0  0  0  0  0
   47.6262   25.8189   30.9705 H   0  0  0  0  0  0  0  0  0  0  0  0
   46.4790   26.9299   30.1752 H   0  0  0  0  0  0  0  0  0  0  0  0
   41.9276   24.1971   33.7491 H   0  0  0  0  0  0  0  0  0  0  0  0
   41.4571   25.1364   35.2750 H   0  0  0  0  0  0  0  0  0  0  0  0
   39.9552   23.3665   34.1232 H   0  0  0  0  0  0  0  0  0  0  0  0
   40.9886   22.3305   35.2797 H   0  0  0  0  0  0  0  0  0  0  0  0
   38.5595   25.1914   35.2195 H   0  0  0  0  0  0  0  0  0  0  0  0
   37.3595   24.3544   39.1685 H   0  0  0  0  0  0  0  0  0  0  0  0
   41.0157   21.6332   38.5333 H   0  0  0  0  0  0  0  0  0  0  0  0
   40.4621   20.9128   36.9837 H   0  0  0  0  0  0  0  0  0  0  0  0
   41.7586   22.1561   36.9837 H   0  0  0  0  0  0  0  0  0  0  0  0
  1  2  2  0
  1  5  1  0
  2  3  1  0
  3  4  1  0
  4  6  1  0
  5  4  2  0
  6  7  1  0
  7  8  1  0
  9  8  1  0
 10  6  1  0
 10  9  1  0
 11 10  1  0
 12 11  1  0
 13 12  2  0
 14 13  1  0
 14 19  2  0
 15 16  2  0
 15 14  1  0
 16 17  1  0
 17 18  2  0
 19 18  1  0
 19 11  1  0
 20 15  1  0
 21 22  1  0
 21  1  1  0
 22 24  1  0
 23 24  2  0
 23 28  1  0
 24 25  1  0
 25 29  1  0
 25 26  2  0
 27 26  1  0
 28 27  2  0
  7 30  1  0
  7 31  1  0
  8 32  1  0
  8 33  1  0
  9 34  1  0
  9 35  1  0
 10 36  1  1
 12 37  1  0
 17 38  1  0
 20 39  1  0
 20 40  1  0
 21 41  1  0
 21 42  1  0
 22 43  1  0
 22 44  1  0
 23 45  1  0
 27 46  1  0
 29 47  1  0
 29 48  1  0
 29 49  1  0
M  ISO  8  30  13  31  13  32  13  33  13  34  13  35  13  36  13  37  14
M  ISO  8  38  14  41   8  42   8  43   8  44   8  45  14  46  14  47   8
M  ISO  2  48   8  49   8
M  END
>  <minimizedAffinity>  (1) 
-5.38122416

>  <minimizedRMSD>  (1) 
1.42794347

$$$$
