
     RDKit          3D

 49 52  0  0  1  0  0  0  0  0999 V2000
   42.6800   23.8140   35.1790 C   0  0  0  0  0  0  0  0  0  0  0  0
   43.5600   22.8380   35.1710 N   0  0  0  0  0  0  0  0  0  0  0  0
   44.6470   23.1130   35.8170 O   0  0  0  0  0  0  0  0  0  0  0  0
   44.5250   24.2910   36.2840 C   0  0  0  0  0  0  0  0  0  0  0  0
   43.3480   24.7270   35.9100 N   0  0  0  0  0  0  0  0  0  0  0  0
   45.3670   25.1300   37.0640 N   0  0  0  0  0  0  0  0  0  0  0  0
   45.5650   25.2120   38.5080 C   0  0  0  0  0  0  0  0  0  0  0  0
   47.0660   24.9820   38.6670 C   0  0  0  0  0  0  0  0  0  0  0  0
   47.5950   25.4980   37.3310 C   0  0  0  0  0  0  0  0  0  0  0  0
   46.3440   26.2110   36.7990 C   0  0  1  0  0  0  0  0  0  0  0  0
   46.5200   26.3220   35.3690 N   0  0  0  0  0  0  0  0  0  0  0  0
   47.8590   26.6370   34.9850 C   0  0  0  0  0  0  0  0  0  0  0  0
   48.1640   28.0530   35.3430 C   0  0  0  0  0  0  0  0  0  0  0  0
   47.4370   28.8980   34.5220 O   0  0  0  0  0  0  0  0  0  0  0  0
   46.3570   28.3030   33.9120 C   0  0  0  0  0  0  0  0  0  0  0  0
   45.6320   27.2960   34.7750 C   0  0  0  0  0  0  0  0  0  0  0  0
   41.3420   24.1280   34.6690 C   0  0  0  0  0  0  0  0  0  0  0  0
   40.2720   23.2130   35.0450 C   0  0  0  0  0  0  0  0  0  0  0  0
   38.4230   24.4550   36.2470 C   0  0  0  0  0  0  0  0  0  0  0  0
   39.4770   23.5310   36.2330 C   0  0  0  0  0  0  0  0  0  0  0  0
   39.7630   22.8910   37.4250 C   0  0  0  0  0  0  0  0  0  0  0  0
   38.9940   23.2150   38.5100 N   0  0  0  0  0  0  0  0  0  0  0  0
   37.9980   24.1000   38.4880 C   0  0  0  0  0  0  0  0  0  0  0  0
   37.7090   24.7270   37.3420 N   0  0  0  0  0  0  0  0  0  0  0  0
   40.8670   21.8910   37.5100 C   0  0  0  0  0  0  0  0  0  0  0  0
   45.2747   26.2017   38.8905 H   0  0  0  0  0  0  0  0  0  0  0  0
   44.9555   24.4884   39.0691 H   0  0  0  0  0  0  0  0  0  0  0  0
   47.4739   25.5583   39.5105 H   0  0  0  0  0  0  0  0  0  0  0  0
   47.3397   23.9393   38.8857 H   0  0  0  0  0  0  0  0  0  0  0  0
   48.4343   26.1958   37.4675 H   0  0  0  0  0  0  0  0  0  0  0  0
   48.0013   24.7221   36.6655 H   0  0  0  0  0  0  0  0  0  0  0  0
   46.0985   27.2013   37.2102 H   0  0  0  0  0  0  0  0  0  0  0  0
   47.9693   26.5024   33.8989 H   0  0  0  0  0  0  0  0  0  0  0  0
   48.5562   25.9693   35.5123 H   0  0  0  0  0  0  0  0  0  0  0  0
   47.8894   28.2342   36.3927 H   0  0  0  0  0  0  0  0  0  0  0  0
   49.2391   28.2440   35.2099 H   0  0  0  0  0  0  0  0  0  0  0  0
   45.6437   29.0912   33.6292 H   0  0  0  0  0  0  0  0  0  0  0  0
   46.7495   27.7506   33.0455 H   0  0  0  0  0  0  0  0  0  0  0  0
   45.1118   27.8343   35.5810 H   0  0  0  0  0  0  0  0  0  0  0  0
   44.9296   26.7509   34.1273 H   0  0  0  0  0  0  0  0  0  0  0  0
   41.3981   24.1434   33.5705 H   0  0  0  0  0  0  0  0  0  0  0  0
   41.0749   25.0922   35.1262 H   0  0  0  0  0  0  0  0  0  0  0  0
   39.5779   23.1550   34.1936 H   0  0  0  0  0  0  0  0  0  0  0  0
   40.7905   22.2785   35.3054 H   0  0  0  0  0  0  0  0  0  0  0  0
   38.1727   24.9799   35.3133 H   0  0  0  0  0  0  0  0  0  0  0  0
   37.4210   24.3123   39.4001 H   0  0  0  0  0  0  0  0  0  0  0  0
   41.0945   21.6849   38.5663 H   0  0  0  0  0  0  0  0  0  0  0  0
   40.5573   20.9597   37.0132 H   0  0  0  0  0  0  0  0  0  0  0  0
   41.7632   22.2911   37.0132 H   0  0  0  0  0  0  0  0  0  0  0  0
  1  5  1  0
  2  1  2  0
  2  3  1  0
  3  4  1  0
  4  6  1  0
  5  4  2  0
  6  7  1  0
  7  8  1  0
  9  8  1  0
 10  6  1  0
 10  9  1  0
 11 10  1  0
 12 13  1  0
 12 11  1  0
 14 13  1  0
 15 14  1  0
 15 16  1  0
 16 11  1  0
 17 18  1  0
 17  1  1  0
 18 20  1  0
 19 24  2  0
 20 19  1  0
 20 21  2  0
 21 25  1  0
 21 22  1  0
 23 22  2  0
 24 23  1  0
  7 26  1  0
  7 27  1  0
  8 28  1  0
  8 29  1  0
  9 30  1  0
  9 31  1  0
 10 32  1  1
 12 33  1  0
 12 34  1  0
 13 35  1  0
 13 36  1  0
 15 37  1  0
 15 38  1  0
 16 39  1  0
 16 40  1  0
 17 41  1  0
 17 42  1  0
 18 43  1  0
 18 44  1  0
 19 45  1  0
 23 46  1  0
 25 47  1  0
 25 48  1  0
 25 49  1  0
M  ISO  8  26  13  27  13  28  13  29  13  30  13  31  13  32  13  33  13
M  ISO  8  34  13  35  13  36  13  37  13  38  13  39  13  40  13  41   8
M  ISO  8  42   8  43   8  44   8  45  14  46  14  47   8  48   8  49   8
M  END
>  <minimizedAffinity>  (1) 
-5.35850334

>  <minimizedRMSD>  (1) 
1.22585642

$$$$
