
     RDKit          3D

 51 54  0  0  1  0  0  0  0  0999 V2000
   42.5400   23.5910   35.1400 C   0  0  0  0  0  0  0  0  0  0  0  0
   43.4910   22.6980   35.3020 N   0  0  0  0  0  0  0  0  0  0  0  0
   44.4770   23.1150   36.0260 O   0  0  0  0  0  0  0  0  0  0  0  0
   44.2160   24.3140   36.3740 C   0  0  0  0  0  0  0  0  0  0  0  0
   43.0540   24.6140   35.8500 N   0  0  0  0  0  0  0  0  0  0  0  0
   44.9010   25.2820   37.1580 N   0  0  0  0  0  0  0  0  0  0  0  0
   44.9410   25.4720   38.6150 C   0  0  0  0  0  0  0  0  0  0  0  0
   46.4310   25.3980   38.9320 C   0  0  0  0  0  0  0  0  0  0  0  0
   47.0470   25.8600   37.6150 C   0  0  0  0  0  0  0  0  0  0  0  0
   45.7970   26.4280   36.9160 C   0  0  1  0  0  0  0  0  0  0  0  0
   46.0650   26.4720   35.4960 N   0  0  0  0  0  0  0  0  0  0  0  0
   47.4650   26.6920   35.2110 C   0  0  0  0  0  0  0  0  0  0  0  0
   47.6490   26.4720   33.7120 C   0  0  0  0  0  0  0  0  0  0  0  0
   47.0500   27.6900   33.0430 C   0  0  0  0  0  0  0  0  0  0  0  0
   46.0950   28.4150   33.9660 C   0  0  0  0  0  0  0  0  0  0  0  0
   45.2880   27.4450   34.8040 C   0  0  0  0  0  0  0  0  0  0  0  0
   41.2450   23.7440   34.4740 C   0  0  0  0  0  0  0  0  0  0  0  0
   40.1580   22.9060   34.9650 C   0  0  0  0  0  0  0  0  0  0  0  0
   38.3850   24.3120   36.0850 C   0  0  0  0  0  0  0  0  0  0  0  0
   39.4130   23.3600   36.1430 C   0  0  0  0  0  0  0  0  0  0  0  0
   39.7160   22.8430   37.3810 C   0  0  0  0  0  0  0  0  0  0  0  0
   38.9920   23.2990   38.4390 N   0  0  0  0  0  0  0  0  0  0  0  0
   38.0250   24.1930   38.3750 C   0  0  0  0  0  0  0  0  0  0  0  0
   37.7160   24.7110   37.1730 N   0  0  0  0  0  0  0  0  0  0  0  0
   40.8020   21.8220   37.5330 C   0  0  0  0  0  0  0  0  0  0  0  0
   44.5252   26.4505   38.8973 H   0  0  0  0  0  0  0  0  0  0  0  0
   44.3443   24.7292   39.1647 H   0  0  0  0  0  0  0  0  0  0  0  0
   46.6995   26.0716   39.7591 H   0  0  0  0  0  0  0  0  0  0  0  0
   46.7701   24.4047   39.2610 H   0  0  0  0  0  0  0  0  0  0  0  0
   47.8130   26.6336   37.7724 H   0  0  0  0  0  0  0  0  0  0  0  0
   47.5754   25.0765   37.0520 H   0  0  0  0  0  0  0  0  0  0  0  0
   45.4508   27.4205   37.2403 H   0  0  0  0  0  0  0  0  0  0  0  0
   47.7495   27.7197   35.4808 H   0  0  0  0  0  0  0  0  0  0  0  0
   48.0989   26.0057   35.7917 H   0  0  0  0  0  0  0  0  0  0  0  0
   48.7175   26.3854   33.4653 H   0  0  0  0  0  0  0  0  0  0  0  0
   47.1639   25.5440   33.3752 H   0  0  0  0  0  0  0  0  0  0  0  0
   47.8609   28.3760   32.7569 H   0  0  0  0  0  0  0  0  0  0  0  0
   46.4888   27.3570   32.1575 H   0  0  0  0  0  0  0  0  0  0  0  0
   46.6725   29.0702   34.6347 H   0  0  0  0  0  0  0  0  0  0  0  0
   45.3976   29.0011   33.3494 H   0  0  0  0  0  0  0  0  0  0  0  0
   44.7206   28.0236   35.5479 H   0  0  0  0  0  0  0  0  0  0  0  0
   44.6432   26.8909   34.1060 H   0  0  0  0  0  0  0  0  0  0  0  0
   41.3884   23.5146   33.4078 H   0  0  0  0  0  0  0  0  0  0  0  0
   40.9317   24.7779   34.6808 H   0  0  0  0  0  0  0  0  0  0  0  0
   39.4345   22.7955   34.1438 H   0  0  0  0  0  0  0  0  0  0  0  0
   40.6537   21.9811   35.2950 H   0  0  0  0  0  0  0  0  0  0  0  0
   38.1190   24.7464   35.1100 H   0  0  0  0  0  0  0  0  0  0  0  0
   37.4853   24.5068   39.2807 H   0  0  0  0  0  0  0  0  0  0  0  0
   40.9911   21.6442   38.6019 H   0  0  0  0  0  0  0  0  0  0  0  0
   40.4909   20.8817   37.0543 H   0  0  0  0  0  0  0  0  0  0  0  0
   41.7213   22.1905   37.0543 H   0  0  0  0  0  0  0  0  0  0  0  0
  1  2  2  0
  1  5  1  0
  2  3  1  0
  3  4  1  0
  4  6  1  0
  5  4  2  0
  6  7  1  0
  7  8  1  0
  9  8  1  0
 10  6  1  0
 10  9  1  0
 11 10  1  0
 12 11  1  0
 13 12  1  0
 14 13  1  0
 14 15  1  0
 15 16  1  0
 16 11  1  0
 17 18  1  0
 17  1  1  0
 18 20  1  0
 19 20  2  0
 19 24  1  0
 20 21  1  0
 21 25  1  0
 21 22  2  0
 23 22  1  0
 24 23  2  0
  7 26  1  0
  7 27  1  0
  8 28  1  0
  8 29  1  0
  9 30  1  0
  9 31  1  0
 10 32  1  1
 12 33  1  0
 12 34  1  0
 13 35  1  0
 13 36  1  0
 14 37  1  0
 14 38  1  0
 15 39  1  0
 15 40  1  0
 16 41  1  0
 16 42  1  0
 17 43  1  0
 17 44  1  0
 18 45  1  0
 18 46  1  0
 19 47  1  0
 23 48  1  0
 25 49  1  0
 25 50  1  0
 25 51  1  0
M  ISO  8  26  13  27  13  28  13  29  13  30  13  31  13  32  13  33  13
M  ISO  8  34  13  35  13  36  13  37  13  38  13  39  13  40  13  41  13
M  ISO  8  42  13  43   8  44   8  45   8  46   8  47  14  48  14  49   8
M  ISO  2  50   8  51   8
M  END
>  <minimizedAffinity>  (1) 
-5.31599522

>  <minimizedRMSD>  (1) 
0.763506293

$$$$
