
     RDKit          3D

 49 52  0  0  1  0  0  0  0  0999 V2000
   42.4850   23.5520   35.2240 C   0  0  0  0  0  0  0  0  0  0  0  0
   43.3700   22.6260   35.5260 N   0  0  0  0  0  0  0  0  0  0  0  0
   44.3600   23.0650   36.2180 O   0  0  0  0  0  0  0  0  0  0  0  0
   44.1790   24.3140   36.4080 C   0  0  0  0  0  0  0  0  0  0  0  0
   43.0530   24.6220   35.8160 N   0  0  0  0  0  0  0  0  0  0  0  0
   44.9230   25.3200   37.0890 N   0  0  0  0  0  0  0  0  0  0  0  0
   44.9420   25.6960   38.5010 C   0  0  0  0  0  0  0  0  0  0  0  0
   46.4170   25.5500   38.8780 C   0  0  0  0  0  0  0  0  0  0  0  0
   47.0920   25.8150   37.5230 C   0  0  0  0  0  0  0  0  0  0  0  0
   45.9200   26.3460   36.7250 C   0  0  1  0  0  0  0  0  0  0  0  0
   46.1480   26.3400   35.2510 C   0  0  0  0  0  0  0  0  0  0  0  0
   45.3100   27.3940   34.5750 C   0  0  0  0  0  0  0  0  0  0  0  0
   46.2280   28.5620   34.2870 C   0  0  0  0  0  0  0  0  0  0  0  0
   47.5580   27.9110   34.0420 C   0  0  0  0  0  0  0  0  0  0  0  0
   47.5470   26.6160   34.8390 C   0  0  0  0  0  0  0  0  0  0  0  0
   41.2180   23.7270   34.5090 C   0  0  0  0  0  0  0  0  0  0  0  0
   40.0950   22.9100   34.9630 C   0  0  0  0  0  0  0  0  0  0  0  0
   38.3460   24.3420   36.0870 C   0  0  0  0  0  0  0  0  0  0  0  0
   39.3580   23.3860   36.1350 C   0  0  0  0  0  0  0  0  0  0  0  0
   39.6400   22.8850   37.3790 C   0  0  0  0  0  0  0  0  0  0  0  0
   38.9280   23.3430   38.4530 N   0  0  0  0  0  0  0  0  0  0  0  0
   37.9720   24.2540   38.3580 C   0  0  0  0  0  0  0  0  0  0  0  0
   37.6720   24.7680   37.1550 N   0  0  0  0  0  0  0  0  0  0  0  0
   40.7030   21.8660   37.5920 C   0  0  0  0  0  0  0  0  0  0  0  0
   44.5998   26.7323   38.6385 H   0  0  0  0  0  0  0  0  0  0  0  0
   44.2738   25.0810   39.1216 H   0  0  0  0  0  0  0  0  0  0  0  0
   46.7171   26.2932   39.6313 H   0  0  0  0  0  0  0  0  0  0  0  0
   46.6758   24.5824   39.3326 H   0  0  0  0  0  0  0  0  0  0  0  0
   47.8952   26.5616   37.6094 H   0  0  0  0  0  0  0  0  0  0  0  0
   47.5864   24.9380   37.0798 H   0  0  0  0  0  0  0  0  0  0  0  0
   45.6686   27.3952   36.9395 H   0  0  0  0  0  0  0  0  0  0  0  0
   45.8794   25.3168   34.9496 H   0  0  0  0  0  0  0  0  0  0  0  0
   44.8911   27.0010   33.6369 H   0  0  0  0  0  0  0  0  0  0  0  0
   44.4690   27.7005   35.2143 H   0  0  0  0  0  0  0  0  0  0  0  0
   45.8920   29.1162   33.3982 H   0  0  0  0  0  0  0  0  0  0  0  0
   46.2552   29.2970   35.1049 H   0  0  0  0  0  0  0  0  0  0  0  0
   47.6875   27.6987   32.9705 H   0  0  0  0  0  0  0  0  0  0  0  0
   48.3879   28.5646   34.3488 H   0  0  0  0  0  0  0  0  0  0  0  0
   47.9216   25.7911   34.2152 H   0  0  0  0  0  0  0  0  0  0  0  0
   48.1939   26.7077   35.7240 H   0  0  0  0  0  0  0  0  0  0  0  0
   41.3966   23.4905   33.4497 H   0  0  0  0  0  0  0  0  0  0  0  0
   40.9171   24.7676   34.7004 H   0  0  0  0  0  0  0  0  0  0  0  0
   39.3808   22.8352   34.1297 H   0  0  0  0  0  0  0  0  0  0  0  0
   40.5440   21.9558   35.2759 H   0  0  0  0  0  0  0  0  0  0  0  0
   38.0873   24.7715   35.1079 H   0  0  0  0  0  0  0  0  0  0  0  0
   37.4294   24.5861   39.2554 H   0  0  0  0  0  0  0  0  0  0  0  0
   40.8578   21.7176   38.6709 H   0  0  0  0  0  0  0  0  0  0  0  0
   40.3970   20.9151   37.1313 H   0  0  0  0  0  0  0  0  0  0  0  0
   41.6401   22.2119   37.1313 H   0  0  0  0  0  0  0  0  0  0  0  0
  1  2  2  0
  1  5  1  0
  2  3  1  0
  3  4  1  0
  4  6  1  0
  5  4  2  0
  6  7  1  0
  7  8  1  0
  9  8  1  0
 10  6  1  0
 10  9  1  0
 11 10  1  0
 12 11  1  0
 13 12  1  0
 14 13  1  0
 14 15  1  0
 15 11  1  0
 16 17  1  0
 16  1  1  0
 17 19  1  0
 18 19  2  0
 18 23  1  0
 19 20  1  0
 20 24  1  0
 20 21  2  0
 22 21  1  0
 23 22  2  0
  7 25  1  0
  7 26  1  0
  8 27  1  0
  8 28  1  0
  9 29  1  0
  9 30  1  0
 10 31  1  1
 11 32  1  0
 12 33  1  0
 12 34  1  0
 13 35  1  0
 13 36  1  0
 14 37  1  0
 14 38  1  0
 15 39  1  0
 15 40  1  0
 16 41  1  0
 16 42  1  0
 17 43  1  0
 17 44  1  0
 18 45  1  0
 22 46  1  0
 24 47  1  0
 24 48  1  0
 24 49  1  0
M  ISO  8  25  13  26  13  27  13  28  13  29  13  30  13  31  13  32  13
M  ISO  8  33  13  34  13  35  13  36  13  37  13  38  13  39  13  40  13
M  ISO  8  41   8  42   8  43   8  44   8  45  14  46  14  47   8  48   8
M  ISO  1  49   8
M  END
>  <minimizedAffinity>  (1) 
-5.30731821

>  <minimizedRMSD>  (1) 
0.975801289

$$$$
