
     RDKit          3D

 46 49  0  0  1  0  0  0  0  0999 V2000
   42.5540   23.6680   35.0980 C   0  0  0  0  0  0  0  0  0  0  0  0
   43.4910   22.7490   35.1620 N   0  0  0  0  0  0  0  0  0  0  0  0
   44.5280   23.1100   35.8510 O   0  0  0  0  0  0  0  0  0  0  0  0
   44.3110   24.2930   36.2700 C   0  0  0  0  0  0  0  0  0  0  0  0
   43.1290   24.6430   35.8270 N   0  0  0  0  0  0  0  0  0  0  0  0
   45.0620   25.2070   37.0610 N   0  0  0  0  0  0  0  0  0  0  0  0
   45.1910   25.3350   38.5120 C   0  0  0  0  0  0  0  0  0  0  0  0
   46.7010   25.1880   38.7360 C   0  0  0  0  0  0  0  0  0  0  0  0
   47.2440   25.7460   37.4050 C   0  0  0  0  0  0  0  0  0  0  0  0
   45.9760   26.3460   36.8120 C   0  0  1  0  0  0  0  0  0  0  0  0
   46.0630   26.5260   35.3780 N   0  0  0  0  0  0  0  0  0  0  0  0
   45.2870   27.4230   34.7720 C   0  0  0  0  0  0  0  0  0  0  0  0
   45.4040   27.5630   33.3970 C   0  0  0  0  0  0  0  0  0  0  0  0
   46.2960   26.8010   32.6480 C   0  0  0  0  0  0  0  0  0  0  0  0
   46.4070   26.9260   31.3920 O   0  0  0  0  0  0  0  0  0  0  0  0
   47.0490   25.9110   33.3450 N   0  0  0  0  0  0  0  0  0  0  0  0
   46.9480   25.7630   34.6760 C   0  0  0  0  0  0  0  0  0  0  0  0
   47.6670   24.9220   35.2830 O   0  0  0  0  0  0  0  0  0  0  0  0
   41.2270   23.8790   34.5130 C   0  0  0  0  0  0  0  0  0  0  0  0
   40.1610   23.0060   34.9850 C   0  0  0  0  0  0  0  0  0  0  0  0
   38.3740   24.3460   36.1750 C   0  0  0  0  0  0  0  0  0  0  0  0
   39.4180   23.4090   36.1850 C   0  0  0  0  0  0  0  0  0  0  0  0
   39.7420   22.8520   37.4010 C   0  0  0  0  0  0  0  0  0  0  0  0
   39.0180   23.2610   38.4810 N   0  0  0  0  0  0  0  0  0  0  0  0
   38.0360   24.1450   38.4580 C   0  0  0  0  0  0  0  0  0  0  0  0
   37.7070   24.6990   37.2820 N   0  0  0  0  0  0  0  0  0  0  0  0
   40.8410   21.8440   37.5080 C   0  0  0  0  0  0  0  0  0  0  0  0
   44.8336   26.3168   38.8560 H   0  0  0  0  0  0  0  0  0  0  0  0
   44.5954   24.5959   39.0679 H   0  0  0  0  0  0  0  0  0  0  0  0
   47.0431   25.7841   39.5949 H   0  0  0  0  0  0  0  0  0  0  0  0
   47.0301   24.1648   38.9698 H   0  0  0  0  0  0  0  0  0  0  0  0
   48.0155   26.5122   37.5714 H   0  0  0  0  0  0  0  0  0  0  0  0
   47.7387   25.0003   36.7653 H   0  0  0  0  0  0  0  0  0  0  0  0
   45.7142   27.3321   37.2231 H   0  0  0  0  0  0  0  0  0  0  0  0
   44.5745   28.0346   35.3449 H   0  0  0  0  0  0  0  0  0  0  0  0
   44.7711   28.3004   32.8816 H   0  0  0  0  0  0  0  0  0  0  0  0
   47.7244   25.3263   32.8323 H   0  0  0  0  0  0  0  0  0  0  0  0
   41.3156   23.7399   33.4254 H   0  0  0  0  0  0  0  0  0  0  0  0
   40.9310   24.8923   34.8222 H   0  0  0  0  0  0  0  0  0  0  0  0
   39.4322   22.9086   34.1669 H   0  0  0  0  0  0  0  0  0  0  0  0
   40.6761   22.0799   35.2801 H   0  0  0  0  0  0  0  0  0  0  0  0
   38.0913   24.8101   35.2186 H   0  0  0  0  0  0  0  0  0  0  0  0
   37.5022   24.4193   39.3798 H   0  0  0  0  0  0  0  0  0  0  0  0
   41.0558   21.6470   38.5687 H   0  0  0  0  0  0  0  0  0  0  0  0
   40.5308   20.9098   37.0170 H   0  0  0  0  0  0  0  0  0  0  0  0
   41.7450   22.2336   37.0170 H   0  0  0  0  0  0  0  0  0  0  0  0
  1  2  2  0
  1  5  1  0
  2  3  1  0
  3  4  1  0
  4  6  1  0
  5  4  2  0
  6  7  1  0
  7  8  1  0
  9  8  1  0
 10  6  1  0
 10  9  1  0
 11 10  1  0
 12 11  1  0
 13 12  2  0
 14 16  1  0
 14 13  1  0
 15 14  2  0
 16 17  1  0
 17 18  2  0
 17 11  1  0
 19 20  1  0
 19  1  1  0
 20 22  1  0
 21 22  2  0
 21 26  1  0
 22 23  1  0
 23 27  1  0
 23 24  2  0
 25 24  1  0
 26 25  2  0
  7 28  1  0
  7 29  1  0
  8 30  1  0
  8 31  1  0
  9 32  1  0
  9 33  1  0
 10 34  1  1
 12 35  1  0
 13 36  1  0
 16 37  1  0
 19 38  1  0
 19 39  1  0
 20 40  1  0
 20 41  1  0
 21 42  1  0
 25 43  1  0
 27 44  1  0
 27 45  1  0
 27 46  1  0
M  ISO  8  28  13  29  13  30  13  31  13  32  13  33  13  34  13  35  14
M  ISO  8  36  14  37   9  38   8  39   8  40   8  41   8  42  14  43  14
M  ISO  3  44   8  45   8  46   8
M  END
>  <minimizedAffinity>  (1) 
-5.30356598

>  <minimizedRMSD>  (1) 
0.765129983

$$$$
