
     RDKit          3D

 52 55  0  0  1  0  0  0  0  0999 V2000
   42.5250   23.5930   35.1670 C   0  0  0  0  0  0  0  0  0  0  0  0
   43.4200   22.6460   35.3530 N   0  0  0  0  0  0  0  0  0  0  0  0
   44.4380   23.0350   36.0400 O   0  0  0  0  0  0  0  0  0  0  0  0
   44.2600   24.2610   36.3380 C   0  0  0  0  0  0  0  0  0  0  0  0
   43.1090   24.6150   35.8190 N   0  0  0  0  0  0  0  0  0  0  0  0
   45.0330   25.2120   37.0690 N   0  0  0  0  0  0  0  0  0  0  0  0
   45.1050   25.4100   38.5390 C   0  0  0  0  0  0  0  0  0  0  0  0
   46.5880   25.2540   38.8410 C   0  0  0  0  0  0  0  0  0  0  0  0
   47.2120   25.6570   37.5030 C   0  0  0  0  0  0  0  0  0  0  0  0
   45.9790   26.2920   36.8200 C   0  0  1  0  0  0  0  0  0  0  0  0
   46.2000   26.4900   35.3710 C   0  0  0  0  0  0  0  0  0  0  0  0
   47.5650   26.9140   34.9520 C   0  0  0  0  0  0  0  0  0  0  0  0
   47.6980   26.5230   33.4730 C   0  0  0  0  0  0  0  0  0  0  0  0
   46.6530   27.2530   32.6630 C   0  0  0  0  0  0  0  0  0  0  0  0
   45.2850   27.2420   33.2410 C   0  0  0  0  0  0  0  0  0  0  0  0
   45.2210   27.4520   34.7360 C   0  0  0  0  0  0  0  0  0  0  0  0
   41.2300   23.8130   34.5190 C   0  0  0  0  0  0  0  0  0  0  0  0
   40.1270   22.9790   34.9870 C   0  0  0  0  0  0  0  0  0  0  0  0
   38.3530   24.3820   36.1160 C   0  0  0  0  0  0  0  0  0  0  0  0
   39.3760   23.4250   36.1620 C   0  0  0  0  0  0  0  0  0  0  0  0
   39.6700   22.8830   37.3940 C   0  0  0  0  0  0  0  0  0  0  0  0
   38.9420   23.3230   38.4610 N   0  0  0  0  0  0  0  0  0  0  0  0
   37.9740   24.2360   38.3890 C   0  0  0  0  0  0  0  0  0  0  0  0
   37.6770   24.7720   37.1980 N   0  0  0  0  0  0  0  0  0  0  0  0
   40.7470   21.8570   37.5450 C   0  0  0  0  0  0  0  0  0  0  0  0
   44.7491   26.4123   38.8195 H   0  0  0  0  0  0  0  0  0  0  0  0
   44.4749   24.7039   39.0998 H   0  0  0  0  0  0  0  0  0  0  0  0
   46.9064   25.9255   39.6520 H   0  0  0  0  0  0  0  0  0  0  0  0
   46.8736   24.2494   39.1862 H   0  0  0  0  0  0  0  0  0  0  0  0
   48.0271   26.3840   37.6339 H   0  0  0  0  0  0  0  0  0  0  0  0
   47.6836   24.8361   36.9429 H   0  0  0  0  0  0  0  0  0  0  0  0
   45.6872   27.2897   37.1797 H   0  0  0  0  0  0  0  0  0  0  0  0
   46.0439   25.4635   35.0077 H   0  0  0  0  0  0  0  0  0  0  0  0
   47.6802   28.0014   35.0711 H   0  0  0  0  0  0  0  0  0  0  0  0
   48.3409   26.4332   35.5658 H   0  0  0  0  0  0  0  0  0  0  0  0
   48.6999   26.7962   33.1102 H   0  0  0  0  0  0  0  0  0  0  0  0
   47.5525   25.4379   33.3662 H   0  0  0  0  0  0  0  0  0  0  0  0
   46.6060   26.7863   31.6680 H   0  0  0  0  0  0  0  0  0  0  0  0
   46.9662   28.3072   32.6388 H   0  0  0  0  0  0  0  0  0  0  0  0
   44.7046   28.0425   32.7589 H   0  0  0  0  0  0  0  0  0  0  0  0
   44.8809   26.2360   33.0546 H   0  0  0  0  0  0  0  0  0  0  0  0
   45.4983   28.4876   34.9823 H   0  0  0  0  0  0  0  0  0  0  0  0
   44.2023   27.2720   35.1099 H   0  0  0  0  0  0  0  0  0  0  0  0
   41.3575   23.6282   33.4422 H   0  0  0  0  0  0  0  0  0  0  0  0
   40.9462   24.8457   34.7697 H   0  0  0  0  0  0  0  0  0  0  0  0
   39.4111   22.8882   34.1568 H   0  0  0  0  0  0  0  0  0  0  0  0
   40.6083   22.0436   35.3086 H   0  0  0  0  0  0  0  0  0  0  0  0
   38.0963   24.8312   35.1453 H   0  0  0  0  0  0  0  0  0  0  0  0
   37.4279   24.5443   39.2927 H   0  0  0  0  0  0  0  0  0  0  0  0
   40.9353   21.6776   38.6138 H   0  0  0  0  0  0  0  0  0  0  0  0
   40.4295   20.9190   37.0661 H   0  0  0  0  0  0  0  0  0  0  0  0
   41.6685   22.2196   37.0661 H   0  0  0  0  0  0  0  0  0  0  0  0
  1  2  2  0
  1  5  1  0
  2  3  1  0
  3  4  1  0
  4  6  1  0
  5  4  2  0
  6  7  1  0
  7  8  1  0
  9  8  1  0
 10  6  1  0
 10  9  1  0
 11 10  1  0
 12 11  1  0
 13 12  1  0
 14 15  1  0
 14 13  1  0
 15 16  1  0
 16 11  1  0
 17 18  1  0
 17  1  1  0
 18 20  1  0
 19 20  2  0
 19 24  1  0
 20 21  1  0
 21 25  1  0
 21 22  2  0
 23 22  1  0
 24 23  2  0
  7 26  1  0
  7 27  1  0
  8 28  1  0
  8 29  1  0
  9 30  1  0
  9 31  1  0
 10 32  1  1
 11 33  1  0
 12 34  1  0
 12 35  1  0
 13 36  1  0
 13 37  1  0
 14 38  1  0
 14 39  1  0
 15 40  1  0
 15 41  1  0
 16 42  1  0
 16 43  1  0
 17 44  1  0
 17 45  1  0
 18 46  1  0
 18 47  1  0
 19 48  1  0
 23 49  1  0
 25 50  1  0
 25 51  1  0
 25 52  1  0
M  ISO  8  26  13  27  13  28  13  29  13  30  13  31  13  32  13  33  13
M  ISO  8  34  13  35  13  36  13  37  13  38  13  39  13  40  13  41  13
M  ISO  8  42  13  43  13  44   8  45   8  46   8  47   8  48  14  49  14
M  ISO  3  50   8  51   8  52   8
M  END
>  <minimizedAffinity>  (1) 
-5.22629642

>  <minimizedRMSD>  (1) 
0.80980593

$$$$
