
     RDKit          3D

 46 49  0  0  1  0  0  0  0  0999 V2000
   42.8900   23.8010   35.4310 C   0  0  0  0  0  0  0  0  0  0  0  0
   43.6710   22.7540   35.5780 N   0  0  0  0  0  0  0  0  0  0  0  0
   44.7410   22.9910   36.2460 O   0  0  0  0  0  0  0  0  0  0  0  0
   44.7180   24.2290   36.5790 C   0  0  0  0  0  0  0  0  0  0  0  0
   43.6070   24.7310   36.0950 N   0  0  0  0  0  0  0  0  0  0  0  0
   45.6110   25.0630   37.3110 N   0  0  0  0  0  0  0  0  0  0  0  0
   45.7390   25.2340   38.7770 C   0  0  0  0  0  0  0  0  0  0  0  0
   47.1960   24.8960   39.0410 C   0  0  0  0  0  0  0  0  0  0  0  0
   47.8360   25.2300   37.6950 C   0  0  0  0  0  0  0  0  0  0  0  0
   46.6830   26.0210   37.0380 C   0  0  1  0  0  0  0  0  0  0  0  0
   46.8820   26.1340   35.5940 C   0  0  0  0  0  0  0  0  0  0  0  0
   46.1550   27.1170   34.9350 C   0  0  0  0  0  0  0  0  0  0  0  0
   46.2740   27.3130   33.5570 C   0  0  0  0  0  0  0  0  0  0  0  0
   47.1390   26.5100   32.8160 C   0  0  0  0  0  0  0  0  0  0  0  0
   47.8730   25.5240   33.4510 C   0  0  0  0  0  0  0  0  0  0  0  0
   47.7050   25.3880   34.8150 C   0  0  0  0  0  0  0  0  0  0  0  0
   41.6170   24.1900   34.8170 C   0  0  0  0  0  0  0  0  0  0  0  0
   40.4900   23.2920   35.0680 C   0  0  0  0  0  0  0  0  0  0  0  0
   38.5970   24.5610   36.1720 C   0  0  0  0  0  0  0  0  0  0  0  0
   39.6170   23.5980   36.1970 C   0  0  0  0  0  0  0  0  0  0  0  0
   39.7880   22.9020   37.3790 C   0  0  0  0  0  0  0  0  0  0  0  0
   38.9430   23.2190   38.4130 N   0  0  0  0  0  0  0  0  0  0  0  0
   37.9890   24.1380   38.3510 C   0  0  0  0  0  0  0  0  0  0  0  0
   37.8110   24.8180   37.2180 N   0  0  0  0  0  0  0  0  0  0  0  0
   40.8410   21.8580   37.5140 C   0  0  0  0  0  0  0  0  0  0  0  0
   45.5142   26.2689   39.0743 H   0  0  0  0  0  0  0  0  0  0  0  0
   45.0403   24.6040   39.3470 H   0  0  0  0  0  0  0  0  0  0  0  0
   47.6122   25.5162   39.8486 H   0  0  0  0  0  0  0  0  0  0  0  0
   47.3629   23.8603   39.3717 H   0  0  0  0  0  0  0  0  0  0  0  0
   48.7385   25.8474   37.8142 H   0  0  0  0  0  0  0  0  0  0  0  0
   48.1870   24.3601   37.1205 H   0  0  0  0  0  0  0  0  0  0  0  0
   46.5411   27.0522   37.3938 H   0  0  0  0  0  0  0  0  0  0  0  0
   45.4698   27.7559   35.5114 H   0  0  0  0  0  0  0  0  0  0  0  0
   45.6870   28.0984   33.0585 H   0  0  0  0  0  0  0  0  0  0  0  0
   47.2378   26.6595   31.7307 H   0  0  0  0  0  0  0  0  0  0  0  0
   48.5626   24.8745   32.8919 H   0  0  0  0  0  0  0  0  0  0  0  0
   48.2918   24.6035   35.3153 H   0  0  0  0  0  0  0  0  0  0  0  0
   41.7695   24.2446   33.7290 H   0  0  0  0  0  0  0  0  0  0  0  0
   41.3432   25.1503   35.2784 H   0  0  0  0  0  0  0  0  0  0  0  0
   39.8660   23.2869   34.1622 H   0  0  0  0  0  0  0  0  0  0  0  0
   40.9542   22.3294   35.3285 H   0  0  0  0  0  0  0  0  0  0  0  0
   38.4381   25.1314   35.2450 H   0  0  0  0  0  0  0  0  0  0  0  0
   37.3513   24.3372   39.2249 H   0  0  0  0  0  0  0  0  0  0  0  0
   41.0335   21.6671   38.5801 H   0  0  0  0  0  0  0  0  0  0  0  0
   40.5013   20.9300   37.0308 H   0  0  0  0  0  0  0  0  0  0  0  0
   41.7661   22.2056   37.0308 H   0  0  0  0  0  0  0  0  0  0  0  0
  1  2  2  0
  1  5  1  0
  2  3  1  0
  3  4  1  0
  4  6  1  0
  5  4  2  0
  6  7  1  0
  7  8  1  0
  9  8  1  0
 10  6  1  0
 10  9  1  0
 11 10  1  0
 12 11  2  0
 13 12  1  0
 14 15  1  0
 14 13  2  0
 15 16  2  0
 16 11  1  0
 17 18  1  0
 17  1  1  0
 18 20  1  0
 19 20  2  0
 19 24  1  0
 20 21  1  0
 21 25  1  0
 21 22  2  0
 23 22  1  0
 24 23  2  0
  7 26  1  0
  7 27  1  0
  8 28  1  0
  8 29  1  0
  9 30  1  0
  9 31  1  0
 10 32  1  1
 12 33  1  0
 13 34  1  0
 14 35  1  0
 15 36  1  0
 16 37  1  0
 17 38  1  0
 17 39  1  0
 18 40  1  0
 18 41  1  0
 19 42  1  0
 23 43  1  0
 25 44  1  0
 25 45  1  0
 25 46  1  0
M  ISO  8  26  13  27  13  28  13  29  13  30  13  31  13  32  13  33  14
M  ISO  8  34  14  35  14  36  14  37  14  38   8  39   8  40   8  41   8
M  ISO  5  42  14  43  14  44   8  45   8  46   8
M  END
>  <minimizedAffinity>  (1) 
-5.16392946

>  <minimizedRMSD>  (1) 
0.512037694

$$$$
