
     RDKit          3D

 48 50  0  0  1  0  0  0  0  0999 V2000
   42.9140   23.8340   35.4040 C   0  0  0  0  0  0  0  0  0  0  0  0
   43.7200   22.7990   35.4960 N   0  0  0  0  0  0  0  0  0  0  0  0
   44.7900   23.0320   36.1670 O   0  0  0  0  0  0  0  0  0  0  0  0
   44.7440   24.2500   36.5580 C   0  0  0  0  0  0  0  0  0  0  0  0
   43.6180   24.7450   36.1050 N   0  0  0  0  0  0  0  0  0  0  0  0
   45.6180   25.0730   37.3220 N   0  0  0  0  0  0  0  0  0  0  0  0
   45.7420   25.2210   38.7760 C   0  0  0  0  0  0  0  0  0  0  0  0
   47.2040   24.8860   39.0400 C   0  0  0  0  0  0  0  0  0  0  0  0
   47.8460   25.2580   37.7110 C   0  0  0  0  0  0  0  0  0  0  0  0
   46.6870   26.0490   37.0580 C   0  0  1  0  0  0  0  0  0  0  0  0
   47.0410   26.1870   35.6230 C   0  0  0  0  0  0  0  0  0  0  0  0
   45.8650   26.9340   34.9740 C   0  0  0  0  0  0  0  0  0  0  0  0
   47.1780   24.8780   34.9000 C   0  0  0  0  0  0  0  0  0  0  0  0
   48.2410   27.0350   35.3610 C   0  0  0  0  0  0  0  0  0  0  0  0
   41.6250   24.2170   34.8190 C   0  0  0  0  0  0  0  0  0  0  0  0
   40.5100   23.3080   35.0700 C   0  0  0  0  0  0  0  0  0  0  0  0
   38.6050   24.5520   36.1690 C   0  0  0  0  0  0  0  0  0  0  0  0
   39.6320   23.5970   36.2000 C   0  0  0  0  0  0  0  0  0  0  0  0
   39.8030   22.9000   37.3800 C   0  0  0  0  0  0  0  0  0  0  0  0
   38.9580   23.1990   38.4120 N   0  0  0  0  0  0  0  0  0  0  0  0
   37.9890   24.1110   38.3560 C   0  0  0  0  0  0  0  0  0  0  0  0
   37.8120   24.7960   37.2140 N   0  0  0  0  0  0  0  0  0  0  0  0
   40.8710   21.8660   37.5120 C   0  0  0  0  0  0  0  0  0  0  0  0
   45.5112   26.2502   39.0882 H   0  0  0  0  0  0  0  0  0  0  0  0
   45.0459   24.5780   39.3346 H   0  0  0  0  0  0  0  0  0  0  0  0
   47.6114   25.4882   39.8655 H   0  0  0  0  0  0  0  0  0  0  0  0
   47.3769   23.8434   39.3451 H   0  0  0  0  0  0  0  0  0  0  0  0
   48.7388   25.8851   37.8513 H   0  0  0  0  0  0  0  0  0  0  0  0
   48.2120   24.4049   37.1209 H   0  0  0  0  0  0  0  0  0  0  0  0
   46.4420   27.0650   37.4012 H   0  0  0  0  0  0  0  0  0  0  0  0
   45.2148   27.3470   35.7593 H   0  0  0  0  0  0  0  0  0  0  0  0
   46.2508   27.7529   34.3491 H   0  0  0  0  0  0  0  0  0  0  0  0
   45.2877   26.2367   34.3491 H   0  0  0  0  0  0  0  0  0  0  0  0
   47.2634   24.0618   35.6324 H   0  0  0  0  0  0  0  0  0  0  0  0
   46.2922   24.7132   34.2690 H   0  0  0  0  0  0  0  0  0  0  0  0
   48.0787   24.9002   34.2690 H   0  0  0  0  0  0  0  0  0  0  0  0
   48.6845   27.3484   36.3176 H   0  0  0  0  0  0  0  0  0  0  0  0
   48.9798   26.4573   34.7861 H   0  0  0  0  0  0  0  0  0  0  0  0
   47.9431   27.9243   34.7861 H   0  0  0  0  0  0  0  0  0  0  0  0
   41.7592   24.2915   33.7298 H   0  0  0  0  0  0  0  0  0  0  0  0
   41.3494   25.1641   35.3059 H   0  0  0  0  0  0  0  0  0  0  0  0
   39.8855   23.2983   34.1645 H   0  0  0  0  0  0  0  0  0  0  0  0
   40.9878   22.3520   35.3304 H   0  0  0  0  0  0  0  0  0  0  0  0
   38.4465   25.1245   35.2432 H   0  0  0  0  0  0  0  0  0  0  0  0
   37.3459   24.2997   39.2282 H   0  0  0  0  0  0  0  0  0  0  0  0
   41.0675   21.6758   38.5775 H   0  0  0  0  0  0  0  0  0  0  0  0
   40.5416   20.9348   37.0279 H   0  0  0  0  0  0  0  0  0  0  0  0
   41.7911   22.2253   37.0279 H   0  0  0  0  0  0  0  0  0  0  0  0
  1  2  2  0
  1  5  1  0
  2  3  1  0
  3  4  1  0
  4  6  1  0
  5  4  2  0
  6  7  1  0
  7  8  1  0
  9  8  1  0
 10  6  1  0
 10  9  1  0
 11 10  1  0
 12 11  1  0
 13 11  1  0
 14 11  1  0
 15 16  1  0
 15  1  1  0
 16 18  1  0
 17 18  2  0
 17 22  1  0
 18 19  1  0
 19 23  1  0
 19 20  2  0
 21 20  1  0
 22 21  2  0
  7 24  1  0
  7 25  1  0
  8 26  1  0
  8 27  1  0
  9 28  1  0
  9 29  1  0
 10 30  1  1
 12 31  1  0
 12 32  1  0
 12 33  1  0
 13 34  1  0
 13 35  1  0
 13 36  1  0
 14 37  1  0
 14 38  1  0
 14 39  1  0
 15 40  1  0
 15 41  1  0
 16 42  1  0
 16 43  1  0
 17 44  1  0
 21 45  1  0
 23 46  1  0
 23 47  1  0
 23 48  1  0
M  ISO  8  24  13  25  13  26  13  27  13  28  13  29  13  30  13  31   8
M  ISO  8  32   8  33   8  34   8  35   8  36   8  37   8  38   8  39   8
M  ISO  8  40   8  41   8  42   8  43   8  44  14  45  14  46   8  47   8
M  ISO  1  48   8
M  END
>  <minimizedAffinity>  (1) 
-5.11953259

>  <minimizedRMSD>  (1) 
0.384890825

$$$$
