
     RDKit          3D

 43 46  0  0  1  0  0  0  0  0999 V2000
   43.0240   23.9040   35.5360 C   0  0  0  0  0  0  0  0  0  0  0  0
   43.8000   22.8420   35.5950 N   0  0  0  0  0  0  0  0  0  0  0  0
   44.8930   23.0350   36.2360 O   0  0  0  0  0  0  0  0  0  0  0  0
   44.8970   24.2590   36.6410 C   0  0  0  0  0  0  0  0  0  0  0  0
   43.7760   24.7850   36.2240 N   0  0  0  0  0  0  0  0  0  0  0  0
   45.8300   25.0280   37.3860 N   0  0  0  0  0  0  0  0  0  0  0  0
   46.0010   25.1260   38.8570 C   0  0  0  0  0  0  0  0  0  0  0  0
   47.4610   24.7440   39.0600 C   0  0  0  0  0  0  0  0  0  0  0  0
   48.0700   25.1110   37.7140 C   0  0  0  0  0  0  0  0  0  0  0  0
   46.9160   25.9580   37.1170 C   0  0  1  0  0  0  0  0  0  0  0  0
   47.1550   26.1750   35.6890 C   0  0  0  0  0  0  0  0  0  0  0  0
   47.9710   25.5990   34.7680 C   0  0  0  0  0  0  0  0  0  0  0  0
   47.8140   26.1860   33.5170 C   0  0  0  0  0  0  0  0  0  0  0  0
   46.8800   27.1260   33.7300 N   0  0  0  0  0  0  0  0  0  0  0  0
   46.4870   27.1310   34.9820 N   0  0  0  0  0  0  0  0  0  0  0  0
   41.7370   24.3480   34.9950 C   0  0  0  0  0  0  0  0  0  0  0  0
   40.6250   23.4130   35.1320 C   0  0  0  0  0  0  0  0  0  0  0  0
   38.6420   24.5690   36.2010 C   0  0  0  0  0  0  0  0  0  0  0  0
   39.6880   23.6350   36.2370 C   0  0  0  0  0  0  0  0  0  0  0  0
   39.8070   22.9000   37.3900 C   0  0  0  0  0  0  0  0  0  0  0  0
   38.9080   23.1420   38.3850 N   0  0  0  0  0  0  0  0  0  0  0  0
   37.9320   24.0290   38.3220 C   0  0  0  0  0  0  0  0  0  0  0  0
   37.7930   24.7530   37.2220 N   0  0  0  0  0  0  0  0  0  0  0  0
   40.8920   21.8740   37.5320 C   0  0  0  0  0  0  0  0  0  0  0  0
   45.8078   26.1498   39.2099 H   0  0  0  0  0  0  0  0  0  0  0  0
   45.3041   24.4855   39.4174 H   0  0  0  0  0  0  0  0  0  0  0  0
   47.9165   25.3231   39.8768 H   0  0  0  0  0  0  0  0  0  0  0  0
   47.6104   23.6919   39.3441 H   0  0  0  0  0  0  0  0  0  0  0  0
   48.9912   25.7008   37.8301 H   0  0  0  0  0  0  0  0  0  0  0  0
   48.3822   24.2546   37.0982 H   0  0  0  0  0  0  0  0  0  0  0  0
   46.7588   26.9719   37.5135 H   0  0  0  0  0  0  0  0  0  0  0  0
   48.6664   24.7745   34.9840 H   0  0  0  0  0  0  0  0  0  0  0  0
   48.3313   25.9391   32.5781 H   0  0  0  0  0  0  0  0  0  0  0  0
   46.5184   27.7614   33.0045 H   0  0  0  0  0  0  0  0  0  0  0  0
   41.8753   24.5506   33.9227 H   0  0  0  0  0  0  0  0  0  0  0  0
   41.4557   25.2300   35.5891 H   0  0  0  0  0  0  0  0  0  0  0  0
   40.0467   23.4492   34.1970 H   0  0  0  0  0  0  0  0  0  0  0  0
   41.0978   22.4451   35.3549 H   0  0  0  0  0  0  0  0  0  0  0  0
   38.5126   25.1779   35.2941 H   0  0  0  0  0  0  0  0  0  0  0  0
   37.2449   24.1645   39.1703 H   0  0  0  0  0  0  0  0  0  0  0  0
   41.0859   21.6907   38.5991 H   0  0  0  0  0  0  0  0  0  0  0  0
   40.5758   20.9369   37.0505 H   0  0  0  0  0  0  0  0  0  0  0  0
   41.8100   22.2421   37.0505 H   0  0  0  0  0  0  0  0  0  0  0  0
  1  2  2  0
  1  5  1  0
  2  3  1  0
  3  4  1  0
  4  6  1  0
  5  4  2  0
  6  7  1  0
  7  8  1  0
  9  8  1  0
 10  6  1  0
 10  9  1  0
 11 10  1  0
 12 11  1  0
 13 14  1  0
 13 12  2  0
 14 15  1  0
 15 11  2  0
 16 17  1  0
 16  1  1  0
 17 19  1  0
 18 19  2  0
 18 23  1  0
 19 20  1  0
 20 24  1  0
 20 21  2  0
 22 21  1  0
 23 22  2  0
  7 25  1  0
  7 26  1  0
  8 27  1  0
  8 28  1  0
  9 29  1  0
  9 30  1  0
 10 31  1  1
 12 32  1  0
 13 33  1  0
 14 34  1  0
 16 35  1  0
 16 36  1  0
 17 37  1  0
 17 38  1  0
 18 39  1  0
 22 40  1  0
 24 41  1  0
 24 42  1  0
 24 43  1  0
M  ISO  8  25  13  26  13  27  13  28  13  29  13  30  13  31  13  32  14
M  ISO  8  33  14  34   9  35   8  36   8  37   8  38   8  39  14  40  14
M  ISO  3  41   8  42   8  43   8
M  END
>  <minimizedAffinity>  (1) 
-5.11192846

>  <minimizedRMSD>  (1) 
0.26454103

$$$$
