
     RDKit          3D

 43 46  0  0  1  0  0  0  0  0999 V2000
   43.0380   23.9070   35.5490 C   0  0  0  0  0  0  0  0  0  0  0  0
   43.8030   22.8380   35.6040 N   0  0  0  0  0  0  0  0  0  0  0  0
   44.8980   23.0200   36.2590 O   0  0  0  0  0  0  0  0  0  0  0  0
   44.9080   24.2260   36.6700 C   0  0  0  0  0  0  0  0  0  0  0  0
   43.7940   24.7720   36.2500 N   0  0  0  0  0  0  0  0  0  0  0  0
   45.8270   25.0030   37.4280 N   0  0  0  0  0  0  0  0  0  0  0  0
   46.0100   25.1250   38.8710 C   0  0  0  0  0  0  0  0  0  0  0  0
   47.4730   24.7400   39.0720 C   0  0  0  0  0  0  0  0  0  0  0  0
   48.0780   25.1150   37.7210 C   0  0  0  0  0  0  0  0  0  0  0  0
   46.9230   25.9580   37.1360 C   0  0  1  0  0  0  0  0  0  0  0  0
   47.1250   26.0950   35.7200 N   0  0  0  0  0  0  0  0  0  0  0  0
   46.5300   27.0240   34.9240 C   0  0  0  0  0  0  0  0  0  0  0  0
   46.9450   26.8730   33.6300 C   0  0  0  0  0  0  0  0  0  0  0  0
   47.8010   25.8530   33.6020 N   0  0  0  0  0  0  0  0  0  0  0  0
   47.8840   25.4120   34.8740 C   0  0  0  0  0  0  0  0  0  0  0  0
   41.7540   24.3390   34.9950 C   0  0  0  0  0  0  0  0  0  0  0  0
   40.6380   23.4140   35.1360 C   0  0  0  0  0  0  0  0  0  0  0  0
   38.6470   24.5700   36.1920 C   0  0  0  0  0  0  0  0  0  0  0  0
   39.6920   23.6360   36.2350 C   0  0  0  0  0  0  0  0  0  0  0  0
   39.8130   22.8950   37.3910 C   0  0  0  0  0  0  0  0  0  0  0  0
   38.9040   23.1400   38.3840 N   0  0  0  0  0  0  0  0  0  0  0  0
   37.9260   24.0280   38.3170 C   0  0  0  0  0  0  0  0  0  0  0  0
   37.7940   24.7570   37.2010 N   0  0  0  0  0  0  0  0  0  0  0  0
   40.8950   21.8750   37.5310 C   0  0  0  0  0  0  0  0  0  0  0  0
   45.8240   26.1560   39.2062 H   0  0  0  0  0  0  0  0  0  0  0  0
   45.3158   24.4964   39.4481 H   0  0  0  0  0  0  0  0  0  0  0  0
   47.9306   25.3154   39.8903 H   0  0  0  0  0  0  0  0  0  0  0  0
   47.6240   23.6873   39.3530 H   0  0  0  0  0  0  0  0  0  0  0  0
   48.9982   25.7067   37.8357 H   0  0  0  0  0  0  0  0  0  0  0  0
   48.3906   24.2625   37.1001 H   0  0  0  0  0  0  0  0  0  0  0  0
   46.7839   26.9798   37.5187 H   0  0  0  0  0  0  0  0  0  0  0  0
   45.8176   27.7868   35.2714 H   0  0  0  0  0  0  0  0  0  0  0  0
   46.6298   27.4821   32.7700 H   0  0  0  0  0  0  0  0  0  0  0  0
   48.5195   24.5678   35.1798 H   0  0  0  0  0  0  0  0  0  0  0  0
   41.8997   24.5246   33.9206 H   0  0  0  0  0  0  0  0  0  0  0  0
   41.4702   25.2267   35.5794 H   0  0  0  0  0  0  0  0  0  0  0  0
   40.0638   23.4494   34.1984 H   0  0  0  0  0  0  0  0  0  0  0  0
   41.1102   22.4489   35.3718 H   0  0  0  0  0  0  0  0  0  0  0  0
   38.5245   25.1775   35.2832 H   0  0  0  0  0  0  0  0  0  0  0  0
   37.2345   24.1652   39.1614 H   0  0  0  0  0  0  0  0  0  0  0  0
   41.0899   21.6913   38.5979 H   0  0  0  0  0  0  0  0  0  0  0  0
   40.5799   20.9377   37.0491 H   0  0  0  0  0  0  0  0  0  0  0  0
   41.8121   22.2448   37.0491 H   0  0  0  0  0  0  0  0  0  0  0  0
  1  2  2  0
  1  5  1  0
  2  3  1  0
  3  4  1  0
  4  6  1  0
  5  4  2  0
  6  7  1  0
  7  8  1  0
  9  8  1  0
 10  6  1  0
 10  9  1  0
 11 10  1  0
 12 11  1  0
 13 12  2  0
 14 13  1  0
 14 15  2  0
 15 11  1  0
 16 17  1  0
 16  1  1  0
 17 19  1  0
 18 19  2  0
 18 23  1  0
 19 20  1  0
 20 24  1  0
 20 21  2  0
 22 21  1  0
 23 22  2  0
  7 25  1  0
  7 26  1  0
  8 27  1  0
  8 28  1  0
  9 29  1  0
  9 30  1  0
 10 31  1  1
 12 32  1  0
 13 33  1  0
 15 34  1  0
 16 35  1  0
 16 36  1  0
 17 37  1  0
 17 38  1  0
 18 39  1  0
 22 40  1  0
 24 41  1  0
 24 42  1  0
 24 43  1  0
M  ISO  8  25  13  26  13  27  13  28  13  29  13  30  13  31  13  32  14
M  ISO  8  33  14  34  14  35   8  36   8  37   8  38   8  39  14  40  14
M  ISO  3  41   8  42   8  43   8
M  END
>  <minimizedAffinity>  (1) 
-5.11085796

>  <minimizedRMSD>  (1) 
0.390034735

$$$$
