
     RDKit          3D

 43 46  0  0  1  0  0  0  0  0999 V2000
   43.0660   23.9260   35.5520 C   0  0  0  0  0  0  0  0  0  0  0  0
   43.8340   22.8590   35.5860 N   0  0  0  0  0  0  0  0  0  0  0  0
   44.9320   23.0330   36.2350 O   0  0  0  0  0  0  0  0  0  0  0  0
   44.9420   24.2360   36.6630 C   0  0  0  0  0  0  0  0  0  0  0  0
   43.8230   24.7860   36.2590 N   0  0  0  0  0  0  0  0  0  0  0  0
   45.8650   25.0050   37.4250 N   0  0  0  0  0  0  0  0  0  0  0  0
   46.0550   25.0850   38.8810 C   0  0  0  0  0  0  0  0  0  0  0  0
   47.5220   24.7120   39.0610 C   0  0  0  0  0  0  0  0  0  0  0  0
   48.1090   25.1340   37.7220 C   0  0  0  0  0  0  0  0  0  0  0  0
   46.9480   25.9760   37.1600 C   0  0  1  0  0  0  0  0  0  0  0  0
   47.1260   26.1090   35.7140 C   0  0  0  0  0  0  0  0  0  0  0  0
   46.5560   27.0470   34.8730 C   0  0  0  0  0  0  0  0  0  0  0  0
   46.9920   26.8090   33.6130 N   0  0  0  0  0  0  0  0  0  0  0  0
   47.8210   25.7450   33.6440 C   0  0  0  0  0  0  0  0  0  0  0  0
   47.8920   25.3300   34.9310 N   0  0  0  0  0  0  0  0  0  0  0  0
   41.7760   24.3660   35.0120 C   0  0  0  0  0  0  0  0  0  0  0  0
   40.6640   23.4320   35.1440 C   0  0  0  0  0  0  0  0  0  0  0  0
   38.6640   24.5730   36.1730 C   0  0  0  0  0  0  0  0  0  0  0  0
   39.7100   23.6410   36.2340 C   0  0  0  0  0  0  0  0  0  0  0  0
   39.8200   22.8960   37.3860 C   0  0  0  0  0  0  0  0  0  0  0  0
   38.9060   23.1230   38.3720 N   0  0  0  0  0  0  0  0  0  0  0  0
   37.9210   24.0100   38.2990 C   0  0  0  0  0  0  0  0  0  0  0  0
   37.7970   24.7460   37.1820 N   0  0  0  0  0  0  0  0  0  0  0  0
   40.9100   21.8800   37.5340 C   0  0  0  0  0  0  0  0  0  0  0  0
   45.8586   26.1028   39.2492 H   0  0  0  0  0  0  0  0  0  0  0  0
   45.3713   24.4310   39.4422 H   0  0  0  0  0  0  0  0  0  0  0  0
   47.9788   25.2679   39.8931 H   0  0  0  0  0  0  0  0  0  0  0  0
   47.6883   23.6535   39.3099 H   0  0  0  0  0  0  0  0  0  0  0  0
   49.0217   25.7346   37.8498 H   0  0  0  0  0  0  0  0  0  0  0  0
   48.4255   24.3010   37.0771 H   0  0  0  0  0  0  0  0  0  0  0  0
   46.8177   26.9903   37.5651 H   0  0  0  0  0  0  0  0  0  0  0  0
   45.8666   27.8490   35.1755 H   0  0  0  0  0  0  0  0  0  0  0  0
   48.3419   25.2981   32.7844 H   0  0  0  0  0  0  0  0  0  0  0  0
   48.4525   24.5319   35.2624 H   0  0  0  0  0  0  0  0  0  0  0  0
   41.9147   24.5716   33.9403 H   0  0  0  0  0  0  0  0  0  0  0  0
   41.4927   25.2434   35.6119 H   0  0  0  0  0  0  0  0  0  0  0  0
   40.0960   23.4662   34.2026 H   0  0  0  0  0  0  0  0  0  0  0  0
   41.1428   22.4707   35.3819 H   0  0  0  0  0  0  0  0  0  0  0  0
   38.5503   25.1840   35.2654 H   0  0  0  0  0  0  0  0  0  0  0  0
   37.2201   24.1398   39.1367 H   0  0  0  0  0  0  0  0  0  0  0  0
   41.1019   21.7011   38.6023 H   0  0  0  0  0  0  0  0  0  0  0  0
   40.6020   20.9393   37.0542 H   0  0  0  0  0  0  0  0  0  0  0  0
   41.8268   22.2533   37.0542 H   0  0  0  0  0  0  0  0  0  0  0  0
  1  2  2  0
  1  5  1  0
  2  3  1  0
  3  4  1  0
  4  6  1  0
  5  4  2  0
  6  7  1  0
  7  8  1  0
  9  8  1  0
 10  6  1  0
 10  9  1  0
 11 10  1  0
 12 11  2  0
 13 14  2  0
 13 12  1  0
 14 15  1  0
 15 11  1  0
 16 17  1  0
 16  1  1  0
 17 19  1  0
 18 19  2  0
 18 23  1  0
 19 20  1  0
 20 24  1  0
 20 21  2  0
 22 21  1  0
 23 22  2  0
  7 25  1  0
  7 26  1  0
  8 27  1  0
  8 28  1  0
  9 29  1  0
  9 30  1  0
 10 31  1  1
 12 32  1  0
 14 33  1  0
 15 34  1  0
 16 35  1  0
 16 36  1  0
 17 37  1  0
 17 38  1  0
 18 39  1  0
 22 40  1  0
 24 41  1  0
 24 42  1  0
 24 43  1  0
M  ISO  8  25  13  26  13  27  13  28  13  29  13  30  13  31  13  32  14
M  ISO  8  33  14  34   9  35   8  36   8  37   8  38   8  39  14  40  14
M  ISO  3  41   8  42   8  43   8
M  END
>  <minimizedAffinity>  (1) 
-5.09642172

>  <minimizedRMSD>  (1) 
0.404463053

$$$$
