
     RDKit          3D

 39 41  0  0  1  0  0  0  0  0999 V2000
   43.0680   23.9400   35.5480 C   0  0  0  0  0  0  0  0  0  0  0  0
   43.8450   22.8790   35.5690 N   0  0  0  0  0  0  0  0  0  0  0  0
   44.9460   23.0550   36.2260 O   0  0  0  0  0  0  0  0  0  0  0  0
   44.9390   24.2500   36.6670 C   0  0  0  0  0  0  0  0  0  0  0  0
   43.8170   24.7950   36.2690 N   0  0  0  0  0  0  0  0  0  0  0  0
   45.8540   25.0150   37.4430 N   0  0  0  0  0  0  0  0  0  0  0  0
   46.0420   25.1060   38.8880 C   0  0  0  0  0  0  0  0  0  0  0  0
   47.5140   24.7140   39.0680 C   0  0  0  0  0  0  0  0  0  0  0  0
   48.1060   25.1560   37.7300 C   0  0  0  0  0  0  0  0  0  0  0  0
   46.9410   25.9840   37.1710 C   0  0  1  0  0  0  0  0  0  0  0  0
   41.7750   24.3770   35.0110 C   0  0  0  0  0  0  0  0  0  0  0  0
   40.6680   23.4380   35.1390 C   0  0  0  0  0  0  0  0  0  0  0  0
   38.6600   24.5700   36.1780 C   0  0  0  0  0  0  0  0  0  0  0  0
   39.7110   23.6440   36.2310 C   0  0  0  0  0  0  0  0  0  0  0  0
   39.8250   22.8980   37.3830 C   0  0  0  0  0  0  0  0  0  0  0  0
   38.9090   23.1210   38.3740 N   0  0  0  0  0  0  0  0  0  0  0  0
   37.9210   24.0060   38.2990 C   0  0  0  0  0  0  0  0  0  0  0  0
   37.7950   24.7430   37.1830 N   0  0  0  0  0  0  0  0  0  0  0  0
   40.9130   21.8860   37.5330 C   0  0  0  0  0  0  0  0  0  0  0  0
   47.0580   26.0940   35.7040 C   0  0  0  0  0  0  0  0  0  0  0  0
   46.4050   27.0240   35.1250 O   0  0  0  0  0  0  0  0  0  0  0  0
   47.8090   25.2860   34.8980 O   0  0  0  0  0  0  0  0  0  0  0  0
   45.8583   26.1293   39.2472 H   0  0  0  0  0  0  0  0  0  0  0  0
   45.3500   24.4677   39.4569 H   0  0  0  0  0  0  0  0  0  0  0  0
   47.9743   25.2523   39.9097 H   0  0  0  0  0  0  0  0  0  0  0  0
   47.6722   23.6509   39.3020 H   0  0  0  0  0  0  0  0  0  0  0  0
   49.0100   25.7675   37.8677 H   0  0  0  0  0  0  0  0  0  0  0  0
   48.4375   24.3327   37.0802 H   0  0  0  0  0  0  0  0  0  0  0  0
   46.8458   27.0019   37.5769 H   0  0  0  0  0  0  0  0  0  0  0  0
   41.9119   24.5886   33.9403 H   0  0  0  0  0  0  0  0  0  0  0  0
   41.4882   25.2500   35.6157 H   0  0  0  0  0  0  0  0  0  0  0  0
   40.1009   23.4710   34.1970 H   0  0  0  0  0  0  0  0  0  0  0  0
   41.1495   22.4774   35.3743 H   0  0  0  0  0  0  0  0  0  0  0  0
   38.5417   25.1806   35.2707 H   0  0  0  0  0  0  0  0  0  0  0  0
   37.2186   24.1330   39.1359 H   0  0  0  0  0  0  0  0  0  0  0  0
   41.1038   21.7085   38.6017 H   0  0  0  0  0  0  0  0  0  0  0  0
   40.6066   20.9444   37.0539 H   0  0  0  0  0  0  0  0  0  0  0  0
   41.8300   22.2597   37.0539 H   0  0  0  0  0  0  0  0  0  0  0  0
   47.8242   25.4388   33.9200 H   0  0  0  0  0  0  0  0  0  0  0  0
  1  2  2  0
  1  5  1  0
  2  3  1  0
  3  4  1  0
  4  6  1  0
  5  4  2  0
  6  7  1  0
  7  8  1  0
  9  8  1  0
 10  6  1  0
 10  9  1  0
 11 12  1  0
 11  1  1  0
 12 14  1  0
 13 14  2  0
 13 18  1  0
 14 15  1  0
 15 19  1  0
 15 16  2  0
 17 16  1  0
 18 17  2  0
 20 10  1  0
 21 20  2  0
 22 20  1  0
  7 23  1  0
  7 24  1  0
  8 25  1  0
  8 26  1  0
  9 27  1  0
  9 28  1  0
 10 29  1  1
 11 30  1  0
 11 31  1  0
 12 32  1  0
 12 33  1  0
 13 34  1  0
 17 35  1  0
 19 36  1  0
 19 37  1  0
 19 38  1  0
 22 39  1  0
M  ISO  8  23  13  24  13  25  13  26  13  27  13  28  13  29  13  30   8
M  ISO  8  31   8  32   8  33   8  34  14  35  14  36   8  37   8  38   8
M  ISO  1  39   3
M  END
>  <minimizedAffinity>  (1) 
-4.99553156

>  <minimizedRMSD>  (1) 
0.254919976

$$$$
