
     RDKit          3D

 48 51  0  0  1  0  0  0  0  0999 V2000
   41.2970   24.5500   33.3420 C   0  0  0  0  0  0  0  0  0  0  0  0
   41.8120   25.0860   32.2570 N   0  0  0  0  0  0  0  0  0  0  0  0
   43.0780   25.3430   32.3640 O   0  0  0  0  0  0  0  0  0  0  0  0
   43.4480   24.9850   33.5290 C   0  0  0  0  0  0  0  0  0  0  0  0
   42.3870   24.5070   34.1270 N   0  0  0  0  0  0  0  0  0  0  0  0
   44.6930   25.0160   34.2140 N   0  0  0  0  0  0  0  0  0  0  0  0
   45.8160   24.0880   34.1970 C   0  0  0  0  0  0  0  0  0  0  0  0
   46.9900   24.9730   33.7690 C   0  0  0  0  0  0  0  0  0  0  0  0
   46.5340   26.3500   34.3000 C   0  0  0  0  0  0  0  0  0  0  0  0
   45.3610   25.9250   35.1710 C   0  0  2  0  0  0  0  0  0  0  0  0
   45.8080   25.2340   36.3560 N   0  0  0  0  0  0  0  0  0  0  0  0
   46.8990   25.9980   36.8970 C   0  0  0  0  0  0  0  0  0  0  0  0
   46.7710   26.0670   38.3930 C   0  0  0  0  0  0  0  0  0  0  0  0
   45.5170   25.3000   38.6940 C   0  0  0  0  0  0  0  0  0  0  0  0
   44.8000   25.2460   37.3600 C   0  0  0  0  0  0  0  0  0  0  0  0
   40.0120   24.0600   33.8500 C   0  0  0  0  0  0  0  0  0  0  0  0
   40.0650   23.0800   34.9250 C   0  0  0  0  0  0  0  0  0  0  0  0
   38.2240   24.2100   36.2420 C   0  0  0  0  0  0  0  0  0  0  0  0
   39.3550   23.3840   36.1760 C   0  0  0  0  0  0  0  0  0  0  0  0
   39.8040   22.8360   37.3580 C   0  0  0  0  0  0  0  0  0  0  0  0
   39.0970   23.1540   38.4810 N   0  0  0  0  0  0  0  0  0  0  0  0
   38.0360   23.9300   38.5340 C   0  0  0  0  0  0  0  0  0  0  0  0
   37.5920   24.4670   37.4000 N   0  0  0  0  0  0  0  0  0  0  0  0
   41.0010   21.9480   37.3820 C   0  0  0  0  0  0  0  0  0  0  0  0
   45.9885   23.6582   35.1948 H   0  0  0  0  0  0  0  0  0  0  0  0
   45.6567   23.2279   33.5300 H   0  0  0  0  0  0  0  0  0  0  0  0
   47.9307   24.6506   34.2392 H   0  0  0  0  0  0  0  0  0  0  0  0
   47.2023   24.9521   32.6899 H   0  0  0  0  0  0  0  0  0  0  0  0
   47.3224   26.8414   34.8891 H   0  0  0  0  0  0  0  0  0  0  0  0
   46.2885   27.0875   33.5216 H   0  0  0  0  0  0  0  0  0  0  0  0
   44.7336   26.7367   35.5679 H   0  0  0  0  0  0  0  0  0  0  0  0
   47.8512   25.5149   36.6326 H   0  0  0  0  0  0  0  0  0  0  0  0
   46.8753   27.0157   36.4803 H   0  0  0  0  0  0  0  0  0  0  0  0
   47.6397   25.6001   38.8803 H   0  0  0  0  0  0  0  0  0  0  0  0
   46.7297   27.1018   38.7638 H   0  0  0  0  0  0  0  0  0  0  0  0
   45.7532   24.2876   39.0536 H   0  0  0  0  0  0  0  0  0  0  0  0
   44.9114   25.7666   39.4849 H   0  0  0  0  0  0  0  0  0  0  0  0
   44.1553   26.1291   37.2398 H   0  0  0  0  0  0  0  0  0  0  0  0
   44.1601   24.3541   37.2898 H   0  0  0  0  0  0  0  0  0  0  0  0
   39.4461   24.9284   34.2182 H   0  0  0  0  0  0  0  0  0  0  0  0
   39.5474   23.5347   33.0025 H   0  0  0  0  0  0  0  0  0  0  0  0
   39.6468   22.1415   34.5321 H   0  0  0  0  0  0  0  0  0  0  0  0
   41.1260   23.0483   35.2138 H   0  0  0  0  0  0  0  0  0  0  0  0
   37.8413   24.6627   35.3154 H   0  0  0  0  0  0  0  0  0  0  0  0
   37.5294   24.1297   39.4898 H   0  0  0  0  0  0  0  0  0  0  0  0
   41.2820   21.7395   38.4249 H   0  0  0  0  0  0  0  0  0  0  0  0
   40.7670   21.0033   36.8694 H   0  0  0  0  0  0  0  0  0  0  0  0
   41.8373   22.4459   36.8694 H   0  0  0  0  0  0  0  0  0  0  0  0
  1 16  1  0
  1  5  1  0
  2  3  1  0
  2  1  2  0
  3  4  1  0
  4  5  2  0
  4  6  1  0
  6 10  1  0
  7  6  1  0
  8  7  1  0
  8  9  1  0
  9 10  1  0
 10 11  1  0
 11 12  1  0
 11 15  1  0
 12 13  1  0
 13 14  1  0
 15 14  1  0
 16 17  1  0
 17 19  1  0
 18 23  2  0
 19 18  1  0
 19 20  2  0
 20 24  1  0
 20 21  1  0
 21 22  2  0
 23 22  1  0
  7 25  1  0
  7 26  1  0
  8 27  1  0
  8 28  1  0
  9 29  1  0
  9 30  1  0
 10 31  1  1
 12 32  1  0
 12 33  1  0
 13 34  1  0
 13 35  1  0
 14 36  1  0
 14 37  1  0
 15 38  1  0
 15 39  1  0
 16 40  1  0
 16 41  1  0
 17 42  1  0
 17 43  1  0
 18 44  1  0
 22 45  1  0
 24 46  1  0
 24 47  1  0
 24 48  1  0
M  ISO  8  25  13  26  13  27  13  28  13  29  13  30  13  31  13  32  13
M  ISO  8  33  13  34  13  35  13  36  13  37  13  38  13  39  13  40   8
M  ISO  8  41   8  42   8  43   8  44  14  45  14  46   8  47   8  48   8
M  END
>  <minimizedAffinity>  (1) 
-4.67539263

>  <minimizedRMSD>  (1) 
2.89023614

$$$$
