
     RDKit          3D

 33 36  0  0  1  0  0  0  0  0999 V2000
   38.4800   25.8080   35.1770 C   0  0  2  0  0  0  0  0  0  0  0  0
   39.1940   27.1530   35.4860 C   0  0  0  0  0  0  0  0  0  0  0  0
   37.7280   27.0320   35.3160 C   0  0  1  0  0  0  0  0  0  0  0  0
   37.1010   27.7470   34.1480 C   0  0  0  0  0  0  0  0  0  0  0  0
   36.0490   28.6100   34.4260 C   0  0  0  0  0  0  0  0  0  0  0  0
   35.4050   29.3150   33.4160 C   0  0  0  0  0  0  0  0  0  0  0  0
   35.7820   29.1880   32.1170 C   0  0  0  0  0  0  0  0  0  0  0  0
   36.8200   28.3370   31.8370 C   0  0  0  0  0  0  0  0  0  0  0  0
   37.2930   28.1260   30.5410 C   0  0  0  0  0  0  0  0  0  0  0  0
   38.3290   27.2800   30.2400 C   0  0  0  0  0  0  0  0  0  0  0  0
   38.9630   26.5810   31.2560 C   0  0  0  0  0  0  0  0  0  0  0  0
   38.5070   26.7800   32.5420 C   0  0  0  0  0  0  0  0  0  0  0  0
   37.4650   27.6330   32.8300 C   0  0  0  0  0  0  0  0  0  0  0  0
   37.9910   23.9300   38.4180 C   0  0  0  0  0  0  0  0  0  0  0  0
   37.8330   24.8730   37.4060 C   0  0  0  0  0  0  0  0  0  0  0  0
   38.6210   24.8160   36.2430 C   0  0  0  0  0  0  0  0  0  0  0  0
   39.5170   23.8120   36.1750 N   0  0  0  0  0  0  0  0  0  0  0  0
   39.6740   22.9010   37.1460 C   0  0  0  0  0  0  0  0  0  0  0  0
   38.9070   22.9650   38.2670 N   0  0  0  0  0  0  0  0  0  0  0  0
   38.4537   25.0260   34.4039 H   0  0  0  0  0  0  0  0  0  0  0  0
   39.6278   27.3401   36.4794 H   0  0  0  0  0  0  0  0  0  0  0  0
   40.0017   27.7480   35.0348 H   0  0  0  0  0  0  0  0  0  0  0  0
   36.8442   27.2675   35.9271 H   0  0  0  0  0  0  0  0  0  0  0  0
   35.7185   28.7383   35.4673 H   0  0  0  0  0  0  0  0  0  0  0  0
   34.5743   29.9886   33.6733 H   0  0  0  0  0  0  0  0  0  0  0  0
   35.2728   29.7477   31.3186 H   0  0  0  0  0  0  0  0  0  0  0  0
   36.8080   28.6682   29.7159 H   0  0  0  0  0  0  0  0  0  0  0  0
   38.6559   27.1563   29.1970 H   0  0  0  0  0  0  0  0  0  0  0  0
   39.7965   25.8951   31.0445 H   0  0  0  0  0  0  0  0  0  0  0  0
   38.9927   26.2382   33.3670 H   0  0  0  0  0  0  0  0  0  0  0  0
   37.3733   23.9769   39.3270 H   0  0  0  0  0  0  0  0  0  0  0  0
   37.0840   25.6708   37.5175 H   0  0  0  0  0  0  0  0  0  0  0  0
   40.4226   22.1025   37.0360 H   0  0  0  0  0  0  0  0  0  0  0  0
  1  3  1  0
  1  2  1  0
  1 16  1  0
  3  2  1  0
  4  5  2  0
  4  3  1  0
  6  5  1  0
  7  6  2  0
  8  7  1  0
  8 13  2  0
  9  8  1  0
 10  9  2  0
 10 11  1  0
 11 12  2  0
 12 13  1  0
 13  4  1  0
 15 14  2  0
 16 15  1  0
 17 16  2  0
 17 18  1  0
 18 19  2  0
 19 14  1  0
  1 20  1  6
  2 21  1  0
  2 22  1  0
  3 23  1  1
  5 24  1  0
  6 25  1  0
  7 26  1  0
  9 27  1  0
 10 28  1  0
 11 29  1  0
 12 30  1  0
 14 31  1  0
 15 32  1  0
 18 33  1  0
M  ISO  8  20  13  21  13  22  13  23  13  24  14  25  14  26  14  27  14
M  ISO  6  28  14  29  14  30  14  31  14  32  14  33  14
M  END
>  <minimizedAffinity>  (1) 
-5.78867912

>  <minimizedRMSD>  (1) 
1.6491189

$$$$
