
     RDKit          3D

 28 31  0  0  1  0  0  0  0  0999 V2000
   37.4840   26.7310   35.3600 C   0  0  2  0  0  0  0  0  0  0  0  0
   38.9640   27.1620   35.5650 C   0  0  0  0  0  0  0  0  0  0  0  0
   38.5700   25.7900   35.2050 C   0  0  1  0  0  0  0  0  0  0  0  0
   38.7680   24.6900   36.1320 N   0  0  0  0  0  0  0  0  0  0  0  0
   37.8960   24.2570   37.0740 C   0  0  0  0  0  0  0  0  0  0  0  0
   38.4360   23.2020   37.7500 N   0  0  0  0  0  0  0  0  0  0  0  0
   39.6550   22.9440   37.2560 C   0  0  0  0  0  0  0  0  0  0  0  0
   40.6580   22.0210   37.5250 C   0  0  0  0  0  0  0  0  0  0  0  0
   41.8080   22.0530   36.7960 N   0  0  0  0  0  0  0  0  0  0  0  0
   41.9330   22.9790   35.8400 C   0  0  0  0  0  0  0  0  0  0  0  0
   40.9950   23.9120   35.5210 N   0  0  0  0  0  0  0  0  0  0  0  0
   39.8530   23.8710   36.2530 C   0  0  0  0  0  0  0  0  0  0  0  0
   36.2500   27.5620   31.8880 C   0  0  0  0  0  0  0  0  0  0  0  0
   36.8760   26.8770   32.9320 C   0  0  0  0  0  0  0  0  0  0  0  0
   36.8270   27.4120   34.2430 C   0  0  0  0  0  0  0  0  0  0  0  0
   36.1630   28.5740   34.4050 N   0  0  0  0  0  0  0  0  0  0  0  0
   35.5650   29.2230   33.3940 C   0  0  0  0  0  0  0  0  0  0  0  0
   35.6010   28.7260   32.1290 N   0  0  0  0  0  0  0  0  0  0  0  0
   36.5379   26.6622   35.9170 H   0  0  0  0  0  0  0  0  0  0  0  0
   39.4635   27.8104   34.8301 H   0  0  0  0  0  0  0  0  0  0  0  0
   39.5504   27.6369   36.3654 H   0  0  0  0  0  0  0  0  0  0  0  0
   38.8562   25.1099   34.3892 H   0  0  0  0  0  0  0  0  0  0  0  0
   36.9031   24.6903   37.2649 H   0  0  0  0  0  0  0  0  0  0  0  0
   40.5246   21.2716   38.3191 H   0  0  0  0  0  0  0  0  0  0  0  0
   42.8703   22.9875   35.2643 H   0  0  0  0  0  0  0  0  0  0  0  0
   36.2843   27.1547   30.8668 H   0  0  0  0  0  0  0  0  0  0  0  0
   37.4023   25.9307   32.7381 H   0  0  0  0  0  0  0  0  0  0  0  0
   35.0392   30.1688   33.5912 H   0  0  0  0  0  0  0  0  0  0  0  0
  1  2  1  0
  3  1  1  0
  3  2  1  0
  3  4  1  0
  4 12  1  0
  4  5  1  0
  5  6  2  0
  7  8  2  0
  7  6  1  0
  9  8  1  0
 10  9  2  0
 11 10  1  0
 11 12  2  0
 12  7  1  0
 13 18  2  0
 13 14  1  0
 14 15  2  0
 15 16  1  0
 15  1  1  0
 17 16  2  0
 18 17  1  0
  1 19  1  1
  2 20  1  0
  2 21  1  0
  3 22  1  6
  5 23  1  0
  8 24  1  0
 10 25  1  0
 13 26  1  0
 14 27  1  0
 17 28  1  0
M  ISO  8  19  13  20  13  21  13  22  13  23  14  24  14  25  14  26  14
M  ISO  2  27  14  28  14
M  END
>  <minimizedAffinity>  (1) 
-4.96479559

>  <minimizedRMSD>  (1) 
7.11822891

$$$$
