
     RDKit          3D

 33 35  0  0  1  0  0  0  0  0999 V2000
   38.4630   25.6860   35.1210 C   0  0  2  0  0  0  0  0  0  0  0  0
   39.0220   27.1040   35.4350 C   0  0  0  0  0  0  0  0  0  0  0  0
   37.5760   26.8140   35.2960 C   0  0  1  0  0  0  0  0  0  0  0  0
   38.3060   23.6770   38.3280 C   0  0  0  0  0  0  0  0  0  0  0  0
   37.9780   24.6250   37.3510 C   0  0  0  0  0  0  0  0  0  0  0  0
   38.7550   24.7030   36.1670 C   0  0  0  0  0  0  0  0  0  0  0  0
   39.7840   23.8380   36.0560 N   0  0  0  0  0  0  0  0  0  0  0  0
   40.0910   22.9330   36.9970 C   0  0  0  0  0  0  0  0  0  0  0  0
   39.3570   22.8460   38.1370 N   0  0  0  0  0  0  0  0  0  0  0  0
   36.7990   27.4270   34.1570 C   0  0  0  0  0  0  0  0  0  0  0  0
   37.6350   27.5670   32.8970 C   0  0  0  0  0  0  0  0  0  0  0  0
   36.7010   27.9300   31.7810 C   0  0  0  0  0  0  0  0  0  0  0  0
   36.1420   29.3100   32.0790 C   0  0  0  0  0  0  0  0  0  0  0  0
   35.4030   29.3090   33.4050 C   0  0  0  0  0  0  0  0  0  0  0  0
   36.3140   28.8190   34.5040 C   0  0  0  0  0  0  0  0  0  0  0  0
   38.5046   24.9150   34.3375 H   0  0  0  0  0  0  0  0  0  0  0  0
   39.4546   27.3283   36.4212 H   0  0  0  0  0  0  0  0  0  0  0  0
   39.7433   27.7954   34.9749 H   0  0  0  0  0  0  0  0  0  0  0  0
   36.6944   26.9602   35.9375 H   0  0  0  0  0  0  0  0  0  0  0  0
   37.7100   23.6078   39.2499 H   0  0  0  0  0  0  0  0  0  0  0  0
   37.1251   25.3034   37.5005 H   0  0  0  0  0  0  0  0  0  0  0  0
   40.9441   22.2556   36.8445 H   0  0  0  0  0  0  0  0  0  0  0  0
   35.9559   26.7424   33.9825 H   0  0  0  0  0  0  0  0  0  0  0  0
   38.3877   28.3580   33.0304 H   0  0  0  0  0  0  0  0  0  0  0  0
   38.1632   26.6284   32.6734 H   0  0  0  0  0  0  0  0  0  0  0  0
   35.8819   27.1979   31.7246 H   0  0  0  0  0  0  0  0  0  0  0  0
   37.2320   27.9286   30.8177 H   0  0  0  0  0  0  0  0  0  0  0  0
   36.9694   30.0333   32.1262 H   0  0  0  0  0  0  0  0  0  0  0  0
   35.4393   29.5894   31.2802 H   0  0  0  0  0  0  0  0  0  0  0  0
   35.0698   30.3313   33.6369 H   0  0  0  0  0  0  0  0  0  0  0  0
   34.5328   28.6400   33.3326 H   0  0  0  0  0  0  0  0  0  0  0  0
   35.7626   28.7911   35.4554 H   0  0  0  0  0  0  0  0  0  0  0  0
   37.1735   29.4980   34.6052 H   0  0  0  0  0  0  0  0  0  0  0  0
  1  3  1  0
  1  2  1  0
  1  6  1  0
  3  2  1  0
  5  4  2  0
  6  5  1  0
  7  6  2  0
  7  8  1  0
  8  9  2  0
  9  4  1  0
 10 15  1  0
 10  3  1  0
 11 10  1  0
 12 13  1  0
 12 11  1  0
 13 14  1  0
 14 15  1  0
  1 16  1  6
  2 17  1  0
  2 18  1  0
  3 19  1  1
  4 20  1  0
  5 21  1  0
  8 22  1  0
 10 23  1  0
 11 24  1  0
 11 25  1  0
 12 26  1  0
 12 27  1  0
 13 28  1  0
 13 29  1  0
 14 30  1  0
 14 31  1  0
 15 32  1  0
 15 33  1  0
M  ISO  8  16  13  17  13  18  13  19  13  20  14  21  14  22  14  23  13
M  ISO  8  24  13  25  13  26  13  27  13  28  13  29  13  30  13  31  13
M  ISO  2  32  13  33  13
M  END
>  <minimizedAffinity>  (1) 
-4.83983374

>  <minimizedRMSD>  (1) 
1.04167569

$$$$
