
     RDKit          3D

 24 26  0  0  1  0  0  0  0  0999 V2000
   38.2620   25.8340   35.2010 C   0  0  2  0  0  0  0  0  0  0  0  0
   39.1590   27.1110   35.2850 C   0  0  0  0  0  0  0  0  0  0  0  0
   37.6850   27.1330   35.4350 C   0  0  1  0  0  0  0  0  0  0  0  0
   38.1900   23.9110   38.4590 C   0  0  0  0  0  0  0  0  0  0  0  0
   37.8630   24.8680   37.5030 C   0  0  0  0  0  0  0  0  0  0  0  0
   38.5390   24.8500   36.2560 C   0  0  0  0  0  0  0  0  0  0  0  0
   39.4700   23.8940   36.0700 N   0  0  0  0  0  0  0  0  0  0  0  0
   39.7760   22.9750   37.0040 C   0  0  0  0  0  0  0  0  0  0  0  0
   39.1340   22.9830   38.2030 N   0  0  0  0  0  0  0  0  0  0  0  0
   36.8610   27.7050   34.3110 C   0  0  0  0  0  0  0  0  0  0  0  0
   36.0390   28.8340   34.4090 C   0  0  0  0  0  0  0  0  0  0  0  0
   35.5000   28.9620   33.1350 C   0  0  0  0  0  0  0  0  0  0  0  0
   35.9620   27.9770   32.3190 N   0  0  0  0  0  0  0  0  0  0  0  0
   36.7660   27.2530   33.0520 N   0  0  0  0  0  0  0  0  0  0  0  0
   37.9875   25.0386   34.4925 H   0  0  0  0  0  0  0  0  0  0  0  0
   39.8126   27.2798   36.1535 H   0  0  0  0  0  0  0  0  0  0  0  0
   39.9038   27.6069   34.6452 H   0  0  0  0  0  0  0  0  0  0  0  0
   37.0297   27.5478   36.2151 H   0  0  0  0  0  0  0  0  0  0  0  0
   37.6745   23.9117   39.4307 H   0  0  0  0  0  0  0  0  0  0  0  0
   37.0932   25.6257   37.7109 H   0  0  0  0  0  0  0  0  0  0  0  0
   40.5458   22.2168   36.7977 H   0  0  0  0  0  0  0  0  0  0  0  0
   35.8615   29.4704   35.2885 H   0  0  0  0  0  0  0  0  0  0  0  0
   34.7970   29.7507   32.8287 H   0  0  0  0  0  0  0  0  0  0  0  0
   35.7266   27.8315   31.3269 H   0  0  0  0  0  0  0  0  0  0  0  0
  1  2  1  0
  1  3  1  0
  1  6  1  0
  2  3  1  0
  5  4  2  0
  6  5  1  0
  7  6  2  0
  7  8  1  0
  8  9  2  0
  9  4  1  0
 10 11  1  0
 10  3  1  0
 12 11  2  0
 13 14  1  0
 13 12  1  0
 14 10  2  0
  1 15  1  6
  2 16  1  0
  2 17  1  0
  3 18  1  1
  4 19  1  0
  5 20  1  0
  8 21  1  0
 11 22  1  0
 12 23  1  0
 13 24  1  0
M  ISO  8  15  13  16  13  17  13  18  13  19  14  20  14  21  14  22  14
M  ISO  2  23  14  24   9
M  END
>  <minimizedAffinity>  (1) 
-4.43970919

>  <minimizedRMSD>  (1) 
0.722688854

$$$$
