
     RDKit          3D

 29 31  0  0  1  0  0  0  0  0999 V2000
   37.5580   26.4280   35.4960 C   0  0  2  0  0  0  0  0  0  0  0  0
   39.1050   26.5620   35.5730 C   0  0  0  0  0  0  0  0  0  0  0  0
   38.4160   25.2640   35.4030 C   0  0  1  0  0  0  0  0  0  0  0  0
   36.4230   27.1080   31.9560 C   0  0  0  0  0  0  0  0  0  0  0  0
   36.9820   26.4540   33.0510 C   0  0  0  0  0  0  0  0  0  0  0  0
   36.9680   27.0800   34.3220 C   0  0  0  0  0  0  0  0  0  0  0  0
   36.4030   28.3000   34.3940 N   0  0  0  0  0  0  0  0  0  0  0  0
   35.8660   28.9250   33.3340 C   0  0  0  0  0  0  0  0  0  0  0  0
   35.8710   28.3360   32.1090 N   0  0  0  0  0  0  0  0  0  0  0  0
   38.4530   24.1960   36.3340 N   0  0  0  0  0  0  0  0  0  0  0  0
   38.0450   24.5030   37.6750 C   0  0  0  0  0  0  0  0  0  0  0  0
   38.5670   23.3320   38.5000 C   0  0  0  0  0  0  0  0  0  0  0  0
   39.8160   22.8920   37.7980 C   0  0  0  0  0  0  0  0  0  0  0  0
   39.5950   23.3690   36.3660 C   0  0  0  0  0  0  0  0  0  0  0  0
   36.6676   26.6328   36.1085 H   0  0  0  0  0  0  0  0  0  0  0  0
   39.6687   27.0079   34.7403 H   0  0  0  0  0  0  0  0  0  0  0  0
   39.8318   26.9898   36.2792 H   0  0  0  0  0  0  0  0  0  0  0  0
   38.5041   24.4497   34.6688 H   0  0  0  0  0  0  0  0  0  0  0  0
   36.4296   26.6276   30.9665 H   0  0  0  0  0  0  0  0  0  0  0  0
   37.4317   25.4574   32.9299 H   0  0  0  0  0  0  0  0  0  0  0  0
   35.4182   29.9221   33.4579 H   0  0  0  0  0  0  0  0  0  0  0  0
   38.4933   25.4491   38.0126 H   0  0  0  0  0  0  0  0  0  0  0  0
   36.9563   24.6314   37.7660 H   0  0  0  0  0  0  0  0  0  0  0  0
   38.7932   23.6529   39.5275 H   0  0  0  0  0  0  0  0  0  0  0  0
   37.8290   22.5202   38.5799 H   0  0  0  0  0  0  0  0  0  0  0  0
   40.7049   23.3663   38.2394 H   0  0  0  0  0  0  0  0  0  0  0  0
   39.9936   21.8088   37.8702 H   0  0  0  0  0  0  0  0  0  0  0  0
   39.4421   22.5018   35.7068 H   0  0  0  0  0  0  0  0  0  0  0  0
   40.4742   23.9320   36.0195 H   0  0  0  0  0  0  0  0  0  0  0  0
  1  2  1  0
  3  1  1  0
  3  2  1  0
  3 10  1  0
  4  9  2  0
  4  5  1  0
  5  6  2  0
  6  7  1  0
  6  1  1  0
  8  7  2  0
  9  8  1  0
 10 14  1  0
 10 11  1  0
 11 12  1  0
 13 12  1  0
 14 13  1  0
  1 15  1  1
  2 16  1  0
  2 17  1  0
  3 18  1  6
  4 19  1  0
  5 20  1  0
  8 21  1  0
 11 22  1  0
 11 23  1  0
 12 24  1  0
 12 25  1  0
 13 26  1  0
 13 27  1  0
 14 28  1  0
 14 29  1  0
M  ISO  8  15  13  16  13  17  13  18  13  19  14  20  14  21  14  22  13
M  ISO  7  23  13  24  13  25  13  26  13  27  13  28  13  29  13
M  END
>  <minimizedAffinity>  (1) 
-4.31658268

>  <minimizedRMSD>  (1) 
5.88321114

$$$$
