
     RDKit          3D

 24 26  0  0  1  0  0  0  0  0999 V2000
   38.3850   25.7280   35.1350 C   0  0  2  0  0  0  0  0  0  0  0  0
   39.0590   27.1180   35.3700 C   0  0  0  0  0  0  0  0  0  0  0  0
   37.5900   26.9110   35.3710 C   0  0  1  0  0  0  0  0  0  0  0  0
   38.3450   23.6670   38.3030 C   0  0  0  0  0  0  0  0  0  0  0  0
   37.9710   24.6380   37.3570 C   0  0  0  0  0  0  0  0  0  0  0  0
   38.7200   24.7300   36.1580 C   0  0  0  0  0  0  0  0  0  0  0  0
   39.7530   23.8820   35.9840 N   0  0  0  0  0  0  0  0  0  0  0  0
   40.0940   22.9570   36.9100 C   0  0  0  0  0  0  0  0  0  0  0  0
   39.3840   22.8560   38.0650 N   0  0  0  0  0  0  0  0  0  0  0  0
   36.8560   27.5210   34.2770 N   0  0  0  0  0  0  0  0  0  0  0  0
   36.7630   27.1270   33.0030 N   0  0  0  0  0  0  0  0  0  0  0  0
   35.9930   27.9470   32.2920 C   0  0  0  0  0  0  0  0  0  0  0  0
   35.5510   28.9340   33.1270 C   0  0  0  0  0  0  0  0  0  0  0  0
   36.1060   28.6470   34.3720 C   0  0  0  0  0  0  0  0  0  0  0  0
   38.3019   24.9456   34.3662 H   0  0  0  0  0  0  0  0  0  0  0  0
   39.5948   27.3285   36.3073 H   0  0  0  0  0  0  0  0  0  0  0  0
   39.7737   27.7588   34.8328 H   0  0  0  0  0  0  0  0  0  0  0  0
   36.7810   27.1136   36.0883 H   0  0  0  0  0  0  0  0  0  0  0  0
   37.7815   23.5731   39.2430 H   0  0  0  0  0  0  0  0  0  0  0  0
   37.1191   25.3086   37.5431 H   0  0  0  0  0  0  0  0  0  0  0  0
   40.9465   22.2859   36.7284 H   0  0  0  0  0  0  0  0  0  0  0  0
   35.7548   27.8479   31.2227 H   0  0  0  0  0  0  0  0  0  0  0  0
   34.8945   29.7783   32.8700 H   0  0  0  0  0  0  0  0  0  0  0  0
   35.9592   29.2396   35.2870 H   0  0  0  0  0  0  0  0  0  0  0  0
  1  2  1  0
  1  3  1  0
  1  6  1  0
  2  3  1  0
  5  4  2  0
  6  5  1  0
  7  6  2  0
  7  8  1  0
  8  9  2  0
  9  4  1  0
 10 14  1  0
 10  3  1  0
 11 10  1  0
 12 11  2  0
 12 13  1  0
 13 14  2  0
  1 15  1  6
  2 16  1  0
  2 17  1  0
  3 18  1  1
  4 19  1  0
  5 20  1  0
  8 21  1  0
 12 22  1  0
 13 23  1  0
 14 24  1  0
M  ISO  8  15  13  16  13  17  13  18  13  19  14  20  14  21  14  22  14
M  ISO  2  23  14  24  14
M  END
>  <minimizedAffinity>  (1) 
-4.26641989

>  <minimizedRMSD>  (1) 
0.897666514

$$$$
