
     RDKit          3D

 29 30  0  0  1  0  0  0  0  0999 V2000
   38.8700   25.3200   34.9130 C   0  0  2  0  0  0  0  0  0  0  0  0
   39.6360   26.6760   34.9870 C   0  0  0  0  0  0  0  0  0  0  0  0
   38.1820   26.5780   34.7380 C   0  0  1  0  0  0  0  0  0  0  0  0
   37.9990   24.1020   38.3820 C   0  0  0  0  0  0  0  0  0  0  0  0
   37.9520   24.8510   37.1920 C   0  0  0  0  0  0  0  0  0  0  0  0
   38.8810   24.5580   36.1640 C   0  0  0  0  0  0  0  0  0  0  0  0
   39.7720   23.5720   36.3740 N   0  0  0  0  0  0  0  0  0  0  0  0
   39.7970   22.8610   37.5370 C   0  0  0  0  0  0  0  0  0  0  0  0
   38.9130   23.1360   38.5190 N   0  0  0  0  0  0  0  0  0  0  0  0
   37.5590   26.9490   33.4270 C   0  0  0  0  0  0  0  0  0  0  0  0
   36.5860   28.0850   33.4930 C   0  0  0  0  0  0  0  0  0  0  0  0
   38.6970   27.3500   32.4860 C   0  0  0  0  0  0  0  0  0  0  0  0
   36.9130   25.7170   32.7900 C   0  0  0  0  0  0  0  0  0  0  0  0
   38.8529   24.3934   34.3205 H   0  0  0  0  0  0  0  0  0  0  0  0
   40.0142   27.0525   35.9489 H   0  0  0  0  0  0  0  0  0  0  0  0
   40.5017   27.1304   34.4829 H   0  0  0  0  0  0  0  0  0  0  0  0
   37.3122   27.0421   35.2259 H   0  0  0  0  0  0  0  0  0  0  0  0
   37.2878   24.3100   39.1950 H   0  0  0  0  0  0  0  0  0  0  0  0
   37.2070   25.6499   37.0624 H   0  0  0  0  0  0  0  0  0  0  0  0
   40.5395   22.0613   37.6753 H   0  0  0  0  0  0  0  0  0  0  0  0
   36.3775   28.3285   34.5452 H   0  0  0  0  0  0  0  0  0  0  0  0
   37.0150   28.9648   32.9911 H   0  0  0  0  0  0  0  0  0  0  0  0
   35.6507   27.7963   32.9911 H   0  0  0  0  0  0  0  0  0  0  0  0
   39.5712   27.6581   33.0783 H   0  0  0  0  0  0  0  0  0  0  0  0
   38.9674   26.4930   31.8516 H   0  0  0  0  0  0  0  0  0  0  0  0
   38.3704   28.1872   31.8516 H   0  0  0  0  0  0  0  0  0  0  0  0
   36.5577   25.0394   33.5803 H   0  0  0  0  0  0  0  0  0  0  0  0
   36.0630   26.0300   32.1659 H   0  0  0  0  0  0  0  0  0  0  0  0
   37.6539   25.1959   32.1659 H   0  0  0  0  0  0  0  0  0  0  0  0
  1  2  1  0
  1  6  1  0
  3  1  1  0
  3  2  1  0
  4  9  2  0
  5  4  1  0
  6  7  1  0
  6  5  2  0
  7  8  2  0
  8  9  1  0
 10 11  1  0
 10  3  1  0
 12 10  1  0
 13 10  1  0
  1 14  1  6
  2 15  1  0
  2 16  1  0
  3 17  1  1
  4 18  1  0
  5 19  1  0
  8 20  1  0
 11 21  1  0
 11 22  1  0
 11 23  1  0
 12 24  1  0
 12 25  1  0
 12 26  1  0
 13 27  1  0
 13 28  1  0
 13 29  1  0
M  ISO  8  14  13  15  13  16  13  17  13  18  14  19  14  20  14  21   8
M  ISO  8  22   8  23   8  24   8  25   8  26   8  27   8  28   8  29   8
M  END
>  <minimizedAffinity>  (1) 
-4.1066761

>  <minimizedRMSD>  (1) 
1.55320752

$$$$
