
     RDKit          3D

 26 28  0  0  1  0  0  0  0  0999 V2000
   37.7570   22.1310   34.7650 C   0  0  2  0  0  0  0  0  0  0  0  0
   38.8450   21.9100   33.6890 C   0  0  0  0  0  0  0  0  0  0  0  0
   37.8320   22.9630   33.5850 C   0  0  2  0  0  0  0  0  0  0  0  0
   37.9650   23.5420   38.2470 C   0  0  0  0  0  0  0  0  0  0  0  0
   37.4320   23.1810   37.0130 C   0  0  0  0  0  0  0  0  0  0  0  0
   38.2740   22.5140   36.0850 C   0  0  0  0  0  0  0  0  0  0  0  0
   39.5450   22.2640   36.4480 N   0  0  0  0  0  0  0  0  0  0  0  0
   40.0360   22.6310   37.6650 C   0  0  0  0  0  0  0  0  0  0  0  0
   39.2370   23.2610   38.5370 N   0  0  0  0  0  0  0  0  0  0  0  0
   38.3960   24.3390   33.5480 C   0  0  0  0  0  0  0  0  0  0  0  0
   37.5310   25.4060   33.4840 C   0  0  0  0  0  0  0  0  0  0  0  0
   37.9180   26.7530   33.4360 C   0  0  0  0  0  0  0  0  0  0  0  0
   39.2650   27.0310   33.4550 C   0  0  0  0  0  0  0  0  0  0  0  0
   40.1080   25.9500   33.5200 C   0  0  0  0  0  0  0  0  0  0  0  0
   39.6980   24.6750   33.5640 N   0  0  0  0  0  0  0  0  0  0  0  0
   36.9129   21.6026   35.2323 H   0  0  0  0  0  0  0  0  0  0  0  0
   39.8946   22.1650   33.8972 H   0  0  0  0  0  0  0  0  0  0  0  0
   39.1836   21.0705   33.0640 H   0  0  0  0  0  0  0  0  0  0  0  0
   37.0228   23.2563   32.9001 H   0  0  0  0  0  0  0  0  0  0  0  0
   37.3359   24.0605   38.9855 H   0  0  0  0  0  0  0  0  0  0  0  0
   36.3848   23.4068   36.7632 H   0  0  0  0  0  0  0  0  0  0  0  0
   41.0809   22.4116   37.9297 H   0  0  0  0  0  0  0  0  0  0  0  0
   36.4533   25.1862   33.4693 H   0  0  0  0  0  0  0  0  0  0  0  0
   37.1709   27.5587   33.3850 H   0  0  0  0  0  0  0  0  0  0  0  0
   39.6454   28.0625   33.4200 H   0  0  0  0  0  0  0  0  0  0  0  0
   41.1908   26.1427   33.5371 H   0  0  0  0  0  0  0  0  0  0  0  0
  1  6  1  0
  2  1  1  0
  3  2  1  0
  3  1  1  0
  4  9  2  0
  5  4  1  0
  6  7  1  0
  6  5  2  0
  7  8  2  0
  8  9  1  0
 10 15  1  0
 10  3  1  0
 11 10  2  0
 12 13  2  0
 12 11  1  0
 13 14  1  0
 14 15  2  0
  1 16  1  1
  2 17  1  0
  2 18  1  0
  3 19  1  6
  4 20  1  0
  5 21  1  0
  8 22  1  0
 11 23  1  0
 12 24  1  0
 13 25  1  0
 14 26  1  0
M  ISO  8  16  13  17  13  18  13  19  13  20  14  21  14  22  14  23  14
M  ISO  3  24  14  25  14  26  14
M  END
>  <minimizedAffinity>  (1) 
-3.90128207

>  <minimizedRMSD>  (1) 
4.45464945

$$$$
