
     RDKit          3D

 25 26  0  0  1  0  0  0  0  0999 V2000
   38.6450   25.7490   34.9670 C   0  0  2  0  0  0  0  0  0  0  0  0
   39.6170   22.9610   37.1290 C   0  0  0  0  0  0  0  0  0  0  0  0
   38.8310   23.1730   38.3040 C   0  0  0  0  0  0  0  0  0  0  0  0
   37.9650   24.2890   38.3340 C   0  0  0  0  0  0  0  0  0  0  0  0
   37.9540   25.0840   37.2150 N   0  0  0  0  0  0  0  0  0  0  0  0
   38.7000   24.8620   36.1320 C   0  0  0  0  0  0  0  0  0  0  0  0
   39.5180   23.8090   36.1030 N   0  0  0  0  0  0  0  0  0  0  0  0
   39.6960   26.8170   35.1030 C   0  0  0  0  0  0  0  0  0  0  0  0
   37.3040   26.4280   34.8010 C   0  0  0  0  0  0  0  0  0  0  0  0
   36.9560   26.4420   33.3330 C   0  0  0  0  0  0  0  0  0  0  0  0
   36.8030   27.7410   32.7160 C   0  0  0  0  0  0  0  0  0  0  0  0
   36.3950   27.2970   30.9890 S   0  0  0  0  0  0  0  0  0  0  0  0
   36.4930   25.4820   31.3610 C   0  0  0  0  0  0  0  0  0  0  0  0
   36.7640   25.4370   32.4980 N   0  0  0  0  0  0  0  0  0  0  0  0
   38.8168   25.1179   34.0826 H   0  0  0  0  0  0  0  0  0  0  0  0
   40.3013   22.1017   37.0705 H   0  0  0  0  0  0  0  0  0  0  0  0
   38.8985   22.4865   39.1608 H   0  0  0  0  0  0  0  0  0  0  0  0
   37.3334   24.5090   39.2073 H   0  0  0  0  0  0  0  0  0  0  0  0
   39.8864   27.0105   36.1690 H   0  0  0  0  0  0  0  0  0  0  0  0
   40.6252   26.4807   34.6197 H   0  0  0  0  0  0  0  0  0  0  0  0
   39.3449   27.7407   34.6197 H   0  0  0  0  0  0  0  0  0  0  0  0
   36.5353   25.8740   35.3598 H   0  0  0  0  0  0  0  0  0  0  0  0
   37.3505   27.4565   35.1883 H   0  0  0  0  0  0  0  0  0  0  0  0
   36.9055   28.7384   33.1684 H   0  0  0  0  0  0  0  0  0  0  0  0
   36.3329   24.6409   30.6705 H   0  0  0  0  0  0  0  0  0  0  0  0
  1  8  1  0
  1  6  1  0
  2  3  2  0
  3  4  1  0
  5  4  2  0
  6  5  1  0
  7  6  2  0
  7  2  1  0
  9  1  1  0
 10  9  1  0
 11 10  2  0
 12 13  1  0
 12 11  1  0
 13 14  2  0
 14 10  1  0
  1 15  1  6
  2 16  1  0
  3 17  1  0
  4 18  1  0
  8 19  1  0
  8 20  1  0
  8 21  1  0
  9 22  1  0
  9 23  1  0
 11 24  1  0
 13 25  1  0
M  ISO  8  15   8  16  14  17  14  18  14  19   8  20   8  21   8  22   8
M  ISO  3  23   8  24  14  25  14
M  END
>  <minimizedAffinity>  (1) 
-4.03998804

>  <minimizedRMSD>  (1) 
2.34349537

$$$$
