
     RDKit          3D

 19 20  0  0  1  0  0  0  0  0999 V2000
   38.3720   25.5500   34.9760 C   0  0  2  0  0  0  0  0  0  0  0  0
   39.5320   26.4050   34.4300 C   0  0  0  0  0  0  0  0  0  0  0  0
   38.3410   26.9900   35.0890 C   0  0  2  0  0  0  0  0  0  0  0  0
   38.3240   23.7170   38.2530 C   0  0  0  0  0  0  0  0  0  0  0  0
   37.9550   24.6050   37.2250 C   0  0  0  0  0  0  0  0  0  0  0  0
   38.7370   24.6320   36.0480 C   0  0  0  0  0  0  0  0  0  0  0  0
   39.8000   23.8080   35.9580 N   0  0  0  0  0  0  0  0  0  0  0  0
   40.1310   22.9600   36.9680 C   0  0  0  0  0  0  0  0  0  0  0  0
   39.3980   22.9110   38.1130 N   0  0  0  0  0  0  0  0  0  0  0  0
   38.6190   27.7020   36.3220 N   0  0  0  0  0  0  0  0  0  0  0  0
   37.6130   24.8373   34.6209 H   0  0  0  0  0  0  0  0  0  0  0  0
   40.5084   26.4093   34.9365 H   0  0  0  0  0  0  0  0  0  0  0  0
   40.0449   26.5246   33.4643 H   0  0  0  0  0  0  0  0  0  0  0  0
   37.5404   27.6991   34.8316 H   0  0  0  0  0  0  0  0  0  0  0  0
   37.7317   23.6794   39.1792 H   0  0  0  0  0  0  0  0  0  0  0  0
   37.0795   25.2618   37.3350 H   0  0  0  0  0  0  0  0  0  0  0  0
   41.0060   22.3027   36.8574 H   0  0  0  0  0  0  0  0  0  0  0  0
   38.3846   27.1017   37.1255 H   0  0  0  0  0  0  0  0  0  0  0  0
   39.6183   27.9491   36.3580 H   0  0  0  0  0  0  0  0  0  0  0  0
  1  3  1  0
  1  6  1  0
  2  1  1  0
  2  3  1  0
  3 10  1  0
  5  4  2  0
  6  5  1  0
  7  6  2  0
  7  8  1  0
  8  9  2  0
  9  4  1  0
  1 11  1  6
  2 12  1  0
  2 13  1  0
  3 14  1  6
  4 15  1  0
  5 16  1  0
  8 17  1  0
 10 18  1  0
 10 19  1  0
M  ISO  8  11  13  12  13  13  13  14  13  15  14  16  14  17  14  18   5
M  ISO  1  19   5
M  END
>  <minimizedAffinity>  (1) 
-3.69694781

>  <minimizedRMSD>  (1) 
0.566557288

$$$$
