
     RDKit          3D

 24 26  0  0  1  0  0  0  0  0999 V2000
   38.0000   22.5850   34.7260 C   0  0  2  0  0  0  0  0  0  0  0  0
   39.1710   22.6920   33.7150 C   0  0  0  0  0  0  0  0  0  0  0  0
   38.0470   23.6390   33.7330 C   0  0  2  0  0  0  0  0  0  0  0  0
   37.8760   23.3930   38.4070 C   0  0  0  0  0  0  0  0  0  0  0  0
   37.4640   23.2160   37.0870 C   0  0  0  0  0  0  0  0  0  0  0  0
   38.4030   22.7610   36.1250 C   0  0  0  0  0  0  0  0  0  0  0  0
   39.6560   22.5270   36.5600 N   0  0  0  0  0  0  0  0  0  0  0  0
   40.0420   22.7000   37.8320 C   0  0  0  0  0  0  0  0  0  0  0  0
   39.1540   23.1320   38.7520 N   0  0  0  0  0  0  0  0  0  0  0  0
   38.4600   25.0360   34.1200 C   0  0  0  0  0  0  0  0  0  0  0  0
   39.6500   25.6370   34.0810 C   0  0  0  0  0  0  0  0  0  0  0  0
   39.8070   26.9140   34.4900 C   0  0  0  0  0  0  0  0  0  0  0  0
   38.6440   27.5410   34.9480 C   0  0  0  0  0  0  0  0  0  0  0  0
   37.3670   26.2360   34.7610 S   0  0  0  0  0  0  0  0  0  0  0  0
   37.1965   21.8919   35.0159 H   0  0  0  0  0  0  0  0  0  0  0  0
   39.2714   21.9614   32.8988 H   0  0  0  0  0  0  0  0  0  0  0  0
   40.2673   22.7602   33.7747 H   0  0  0  0  0  0  0  0  0  0  0  0
   37.2786   23.9787   33.0229 H   0  0  0  0  0  0  0  0  0  0  0  0
   37.1610   23.7446   39.1654 H   0  0  0  0  0  0  0  0  0  0  0  0
   36.4246   23.4263   36.7949 H   0  0  0  0  0  0  0  0  0  0  0  0
   41.0811   22.4902   38.1256 H   0  0  0  0  0  0  0  0  0  0  0  0
   40.5222   25.0803   33.7076 H   0  0  0  0  0  0  0  0  0  0  0  0
   40.7808   27.4250   34.4648 H   0  0  0  0  0  0  0  0  0  0  0  0
   38.5238   28.5663   35.3278 H   0  0  0  0  0  0  0  0  0  0  0  0
  1  6  1  0
  2  3  1  0
  2  1  1  0
  3 10  1  0
  3  1  1  0
  4  9  2  0
  5  4  1  0
  6  7  1  0
  6  5  2  0
  7  8  2  0
  8  9  1  0
 10 14  1  0
 11 10  2  0
 11 12  1  0
 12 13  2  0
 14 13  1  0
  1 15  1  1
  2 16  1  0
  2 17  1  0
  3 18  1  6
  4 19  1  0
  5 20  1  0
  8 21  1  0
 11 22  1  0
 12 23  1  0
 13 24  1  0
M  ISO  8  15  13  16  13  17  13  18  13  19  14  20  14  21  14  22  14
M  ISO  2  23  14  24  14
M  END
>  <minimizedAffinity>  (1) 
-3.68189096

>  <minimizedRMSD>  (1) 
3.56721258

$$$$
