
     RDKit          3D

 19 20  0  0  1  0  0  0  0  0999 V2000
   38.2200   26.5960   36.3350 C   0  0  2  0  0  0  0  0  0  0  0  0
   37.6010   27.3180   35.1050 C   0  0  0  0  0  0  0  0  0  0  0  0
   39.0450   27.3760   35.4400 C   0  0  2  0  0  0  0  0  0  0  0  0
   37.8070   23.0040   37.3860 C   0  0  0  0  0  0  0  0  0  0  0  0
   37.9090   24.4110   37.4640 C   0  0  0  0  0  0  0  0  0  0  0  0
   38.0970   25.1380   36.2830 C   0  0  0  0  0  0  0  0  0  0  0  0
   38.1740   24.4580   35.1140 N   0  0  0  0  0  0  0  0  0  0  0  0
   38.0750   23.1130   35.0620 C   0  0  0  0  0  0  0  0  0  0  0  0
   37.8910   22.3730   36.1880 N   0  0  0  0  0  0  0  0  0  0  0  0
   39.9670   26.7570   34.4440 C   0  0  0  0  0  0  0  0  0  0  0  0
   41.0690   26.5180   34.9020 O   0  0  0  0  0  0  0  0  0  0  0  0
   38.1528   26.5899   37.4329 H   0  0  0  0  0  0  0  0  0  0  0  0
   36.9602   28.2018   35.2400 H   0  0  0  0  0  0  0  0  0  0  0  0
   36.9970   27.0285   34.2325 H   0  0  0  0  0  0  0  0  0  0  0  0
   39.7801   28.1648   35.6579 H   0  0  0  0  0  0  0  0  0  0  0  0
   37.6584   22.4158   38.3035 H   0  0  0  0  0  0  0  0  0  0  0  0
   37.8419   24.9251   38.4342 H   0  0  0  0  0  0  0  0  0  0  0  0
   38.1446   22.6049   34.0888 H   0  0  0  0  0  0  0  0  0  0  0  0
   39.6808   26.5393   33.4044 H   0  0  0  0  0  0  0  0  0  0  0  0
  2  3  1  0
  2  1  1  0
  3  1  1  0
  4  5  2  0
  6  1  1  0
  6  5  1  0
  7  6  2  0
  8  7  1  0
  8  9  2  0
  9  4  1  0
 10 11  2  0
 10  3  1  0
  1 12  1  1
  2 13  1  0
  2 14  1  0
  3 15  1  1
  4 16  1  0
  5 17  1  0
  8 18  1  0
 10 19  1  0
M  ISO  8  12  13  13  13  14  13  15  13  16  14  17  14  18  14  19   6
M  END
>  <minimizedAffinity>  (1) 
-3.55529499

>  <minimizedRMSD>  (1) 
2.34834814

$$$$
