
     RDKit          3D

 43 48  0  0  1  0  0  0  0  0999 V2000
   37.0760   27.8290   34.3090 N   0  0  0  0  0  0  0  0  0  0  0  0
   36.0860   28.7060   34.6070 C   0  0  0  0  0  0  0  0  0  0  0  0
   35.6450   29.2540   33.4740 N   0  0  0  0  0  0  0  0  0  0  0  0
   36.3440   28.7330   32.4520 C   0  0  0  0  0  0  0  0  0  0  0  0
   36.3440   28.8950   31.1060 C   0  0  0  0  0  0  0  0  0  0  0  0
   37.2040   28.1870   30.3700 N   0  0  0  0  0  0  0  0  0  0  0  0
   38.0760   27.3180   30.8830 C   0  0  0  0  0  0  0  0  0  0  0  0
   38.0870   27.1470   32.2260 N   0  0  0  0  0  0  0  0  0  0  0  0
   37.2380   27.8400   32.9950 C   0  0  0  0  0  0  0  0  0  0  0  0
   35.4120   29.8390   30.5620 N   0  0  0  0  0  0  0  0  0  0  0  0
   38.9860   26.5710   30.0890 N   0  0  0  0  0  0  0  0  0  0  0  0
   39.4790   25.4090   30.5900 C   0  0  0  0  0  0  0  0  0  0  0  0
   40.3080   24.8770   29.6840 N   0  0  0  0  0  0  0  0  0  0  0  0
   40.3290   25.7110   28.6200 C   0  0  0  0  0  0  0  0  0  0  0  0
   40.9810   25.7140   27.3910 C   0  0  0  0  0  0  0  0  0  0  0  0
   40.7710   26.7270   26.5410 N   0  0  0  0  0  0  0  0  0  0  0  0
   39.9500   27.7520   26.8290 C   0  0  0  0  0  0  0  0  0  0  0  0
   39.2930   27.7850   28.0220 N   0  0  0  0  0  0  0  0  0  0  0  0
   39.5010   26.7740   28.8720 C   0  0  0  0  0  0  0  0  0  0  0  0
   38.3900   25.8330   35.1470 C   0  0  2  0  0  0  0  0  0  0  0  0
   39.2180   27.1410   35.4020 C   0  0  0  0  0  0  0  0  0  0  0  0
   37.7380   27.0920   35.3420 C   0  0  1  0  0  0  0  0  0  0  0  0
   38.0090   23.9070   38.3640 C   0  0  0  0  0  0  0  0  0  0  0  0
   37.8040   24.8880   37.3990 C   0  0  0  0  0  0  0  0  0  0  0  0
   38.5550   24.8170   36.2000 C   0  0  0  0  0  0  0  0  0  0  0  0
   39.4460   23.8000   36.0340 N   0  0  0  0  0  0  0  0  0  0  0  0
   39.6130   22.8670   37.0020 C   0  0  0  0  0  0  0  0  0  0  0  0
   38.9090   22.9150   38.1500 N   0  0  0  0  0  0  0  0  0  0  0  0
   41.8400   24.6000   27.1440 N   0  0  0  0  0  0  0  0  0  0  0  0
   35.7090   28.9287   35.6161 H   0  0  0  0  0  0  0  0  0  0  0  0
   35.3738   29.9974   29.5450 H   0  0  0  0  0  0  0  0  0  0  0  0
   34.7807   30.3588   31.1882 H   0  0  0  0  0  0  0  0  0  0  0  0
   39.2380   24.9784   31.5731 H   0  0  0  0  0  0  0  0  0  0  0  0
   39.8087   28.5644   26.1010 H   0  0  0  0  0  0  0  0  0  0  0  0
   38.2505   25.0579   34.3791 H   0  0  0  0  0  0  0  0  0  0  0  0
   39.7358   27.2996   36.3595 H   0  0  0  0  0  0  0  0  0  0  0  0
   40.0228   27.6919   34.8932 H   0  0  0  0  0  0  0  0  0  0  0  0
   36.9162   27.3669   36.0195 H   0  0  0  0  0  0  0  0  0  0  0  0
   37.4389   23.9360   39.3043 H   0  0  0  0  0  0  0  0  0  0  0  0
   37.0777   25.6977   37.5628 H   0  0  0  0  0  0  0  0  0  0  0  0
   40.3378   22.0540   36.8478 H   0  0  0  0  0  0  0  0  0  0  0  0
   42.3558   24.5346   26.2549 H   0  0  0  0  0  0  0  0  0  0  0  0
   41.9437   23.8620   27.8550 H   0  0  0  0  0  0  0  0  0  0  0  0
  1  2  1  0
  1 22  1  0
  3  2  2  0
  4  9  2  0
  4  3  1  0
  5  4  1  0
  6  7  1  0
  6  5  2  0
  7  8  2  0
  8  9  1  0
  9  1  1  0
 10  5  1  0
 11 12  1  0
 11  7  1  0
 13 12  2  0
 14 19  2  0
 14 13  1  0
 15 14  1  0
 16 17  1  0
 16 15  2  0
 17 18  2  0
 18 19  1  0
 19 11  1  0
 20 22  1  0
 20 21  1  0
 20 25  1  0
 22 21  1  0
 24 23  2  0
 25 24  1  0
 26 25  2  0
 26 27  1  0
 27 28  2  0
 28 23  1  0
 29 15  1  0
  2 30  1  0
 10 31  1  0
 10 32  1  0
 12 33  1  0
 17 34  1  0
 20 35  1  6
 21 36  1  0
 21 37  1  0
 22 38  1  1
 23 39  1  0
 24 40  1  0
 27 41  1  0
 29 42  1  0
 29 43  1  0
M  ISO  8  30  14  33  14  34  14  35  13  36  13  37  13  38  13  39  14
M  ISO  2  40  14  41  14
M  END
>  <minimizedAffinity>  (1) 
-6.32610416

>  <minimizedRMSD>  (1) 
0.270984411

$$$$
