
     RDKit          3D

 44 48  0  0  1  0  0  0  0  0999 V2000
   37.1320   27.7310   34.3180 N   0  0  0  0  0  0  0  0  0  0  0  0
   36.2510   28.7220   34.5810 C   0  0  0  0  0  0  0  0  0  0  0  0
   35.8300   29.2310   33.4230 N   0  0  0  0  0  0  0  0  0  0  0  0
   36.4380   28.5660   32.4250 C   0  0  0  0  0  0  0  0  0  0  0  0
   36.4040   28.6380   31.0690 C   0  0  0  0  0  0  0  0  0  0  0  0
   37.1610   27.7950   30.3660 N   0  0  0  0  0  0  0  0  0  0  0  0
   37.9680   26.8640   30.9180 C   0  0  0  0  0  0  0  0  0  0  0  0
   37.9990   26.7970   32.2690 N   0  0  0  0  0  0  0  0  0  0  0  0
   37.2510   27.6280   33.0040 C   0  0  0  0  0  0  0  0  0  0  0  0
   35.5590   29.6220   30.4810 N   0  0  0  0  0  0  0  0  0  0  0  0
   38.7540   25.9910   30.1150 N   0  0  0  0  0  0  0  0  0  0  0  0
   38.5490   24.5780   30.2260 C   0  0  0  0  0  0  0  0  0  0  0  0
   39.2590   23.7770   29.1860 C   0  0  0  0  0  0  0  0  0  0  0  0
   40.4500   24.3820   28.6680 N   0  0  0  0  0  0  0  0  0  0  0  0
   40.0680   25.6560   28.0700 C   0  0  0  0  0  0  0  0  0  0  0  0
   39.7310   26.5680   29.2190 C   0  0  0  0  0  0  0  0  0  0  0  0
   38.4670   25.7730   35.2260 C   0  0  2  0  0  0  0  0  0  0  0  0
   39.2380   27.1070   35.5270 C   0  0  0  0  0  0  0  0  0  0  0  0
   37.7540   27.0070   35.3860 C   0  0  1  0  0  0  0  0  0  0  0  0
   37.9650   23.8700   38.4510 C   0  0  0  0  0  0  0  0  0  0  0  0
   37.7860   24.8340   37.4620 C   0  0  0  0  0  0  0  0  0  0  0  0
   38.5920   24.7740   36.3080 C   0  0  0  0  0  0  0  0  0  0  0  0
   39.5020   23.7720   36.2260 N   0  0  0  0  0  0  0  0  0  0  0  0
   39.6540   22.8560   37.1960 C   0  0  0  0  0  0  0  0  0  0  0  0
   38.8840   22.9030   38.3120 N   0  0  0  0  0  0  0  0  0  0  0  0
   35.9349   29.0525   35.5814 H   0  0  0  0  0  0  0  0  0  0  0  0
   35.5052   29.7087   29.4561 H   0  0  0  0  0  0  0  0  0  0  0  0
   35.0016   30.2470   31.0807 H   0  0  0  0  0  0  0  0  0  0  0  0
   38.9051   24.2537   31.2150 H   0  0  0  0  0  0  0  0  0  0  0  0
   37.4727   24.4009   30.0836 H   0  0  0  0  0  0  0  0  0  0  0  0
   39.5327   22.8079   29.6287 H   0  0  0  0  0  0  0  0  0  0  0  0
   38.5643   23.6873   28.3378 H   0  0  0  0  0  0  0  0  0  0  0  0
   41.1250   24.5392   29.4300 H   0  0  0  0  0  0  0  0  0  0  0  0
   40.9030   26.0698   27.4856 H   0  0  0  0  0  0  0  0  0  0  0  0
   39.2161   25.5401   27.3838 H   0  0  0  0  0  0  0  0  0  0  0  0
   40.6504   26.7758   29.7860 H   0  0  0  0  0  0  0  0  0  0  0  0
   39.2980   27.4882   28.7998 H   0  0  0  0  0  0  0  0  0  0  0  0
   38.4081   24.9967   34.4489 H   0  0  0  0  0  0  0  0  0  0  0  0
   39.6980   27.2797   36.5111 H   0  0  0  0  0  0  0  0  0  0  0  0
   40.0504   27.6858   35.0633 H   0  0  0  0  0  0  0  0  0  0  0  0
   36.8833   27.2445   36.0148 H   0  0  0  0  0  0  0  0  0  0  0  0
   37.3442   23.9021   39.3585 H   0  0  0  0  0  0  0  0  0  0  0  0
   37.0312   25.6256   37.5793 H   0  0  0  0  0  0  0  0  0  0  0  0
   40.4076   22.0625   37.0851 H   0  0  0  0  0  0  0  0  0  0  0  0
  1  2  1  0
  1 19  1  0
  3  2  2  0
  4  9  2  0
  4  3  1  0
  5  4  1  0
  6  7  1  0
  6  5  2  0
  7  8  2  0
  8  9  1  0
  9  1  1  0
 10  5  1  0
 11 12  1  0
 11  7  1  0
 13 12  1  0
 14 13  1  0
 15 14  1  0
 15 16  1  0
 16 11  1  0
 17 19  1  0
 17 18  1  0
 17 22  1  0
 19 18  1  0
 21 20  2  0
 22 21  1  0
 23 22  2  0
 23 24  1  0
 24 25  2  0
 25 20  1  0
  2 26  1  0
 10 27  1  0
 10 28  1  0
 12 29  1  0
 12 30  1  0
 13 31  1  0
 13 32  1  0
 14 33  1  0
 15 34  1  0
 15 35  1  0
 16 36  1  0
 16 37  1  0
 17 38  1  6
 18 39  1  0
 18 40  1  0
 19 41  1  1
 20 42  1  0
 21 43  1  0
 24 44  1  0
M  ISO  8  26  14  29  13  30  13  31  13  32  13  33   5  34  13  35  13
M  ISO  8  36  13  37  13  38  13  39  13  40  13  41  13  42  14  43  14
M  ISO  1  44  14
M  END
>  <minimizedAffinity>  (1) 
-5.96100235

>  <minimizedRMSD>  (1) 
0.361522228

$$$$
