
     RDKit          3D

 42 45  0  0  0  0  0  0  0  0999 V2000
   43.3550   22.6580   33.8850 C   0  0  0  0  0  0  0  0  0  0  0  0
   43.2970   23.9450   34.4220 C   0  0  0  0  0  0  0  0  0  0  0  0
   44.9700   24.6480   33.9690 S   0  0  0  0  0  0  0  0  0  0  0  0
   45.4300   23.0170   33.1180 C   0  0  0  0  0  0  0  0  0  0  0  0
   44.4910   22.4530   33.3040 N   0  0  0  0  0  0  0  0  0  0  0  0
   46.6700   22.6890   32.4500 N   0  0  0  0  0  0  0  0  0  0  0  0
   47.5730   22.0650   33.2150 C   0  0  0  0  0  0  0  0  0  0  0  0
   48.6860   21.8280   32.4280 C   0  0  0  0  0  0  0  0  0  0  0  0
   48.3860   22.3340   31.2080 N   0  0  0  0  0  0  0  0  0  0  0  0
   47.1600   22.8570   31.2210 C   0  0  0  0  0  0  0  0  0  0  0  0
   46.4250   23.4860   30.2030 N   0  0  0  0  0  0  0  0  0  0  0  0
   45.0930   23.9470   30.5430 C   0  0  0  0  0  0  0  0  0  0  0  0
   45.1050   25.4660   30.3530 C   0  0  0  0  0  0  0  0  0  0  0  0
   45.7440   25.8740   29.0590 C   0  0  0  0  0  0  0  0  0  0  0  0
   45.8570   24.6480   28.1470 C   0  0  0  0  0  0  0  0  0  0  0  0
   46.8640   23.7220   28.8450 C   0  0  0  0  0  0  0  0  0  0  0  0
   41.9200   21.6000   34.0930 S   0  0  0  0  0  0  0  0  0  0  0  0
   40.4670   22.3820   37.7160 C   0  0  0  0  0  0  0  0  0  0  0  0
   39.3110   23.1350   37.4460 C   0  0  0  0  0  0  0  0  0  0  0  0
   39.0000   23.3880   36.1160 C   0  0  0  0  0  0  0  0  0  0  0  0
   39.8120   22.9090   35.1230 N   0  0  0  0  0  0  0  0  0  0  0  0
   40.9360   22.1750   35.4540 C   0  0  0  0  0  0  0  0  0  0  0  0
   41.2350   21.9300   36.7330 N   0  0  0  0  0  0  0  0  0  0  0  0
   38.4060   23.6720   38.5050 C   0  0  0  0  0  0  0  0  0  0  0  0
   39.2090   23.8610   39.6310 F   0  0  0  0  0  0  0  0  0  0  0  0
   37.3890   22.8250   38.8190 F   0  0  0  0  0  0  0  0  0  0  0  0
   37.9760   24.9690   38.1770 F   0  0  0  0  0  0  0  0  0  0  0  0
   42.4746   24.4249   34.9728 H   0  0  0  0  0  0  0  0  0  0  0  0
   47.4528   21.7911   34.2736 H   0  0  0  0  0  0  0  0  0  0  0  0
   49.6201   21.3319   32.7302 H   0  0  0  0  0  0  0  0  0  0  0  0
   44.3484   23.4854   29.8778 H   0  0  0  0  0  0  0  0  0  0  0  0
   44.8257   23.6743   31.5746 H   0  0  0  0  0  0  0  0  0  0  0  0
   44.0678   25.8321   30.3659 H   0  0  0  0  0  0  0  0  0  0  0  0
   45.6960   25.9023   31.1718 H   0  0  0  0  0  0  0  0  0  0  0  0
   45.1268   26.6416   28.5694 H   0  0  0  0  0  0  0  0  0  0  0  0
   46.7458   26.2845   29.2537 H   0  0  0  0  0  0  0  0  0  0  0  0
   46.2253   24.9392   27.1522 H   0  0  0  0  0  0  0  0  0  0  0  0
   44.8844   24.1578   27.9928 H   0  0  0  0  0  0  0  0  0  0  0  0
   46.9214   22.7656   28.3046 H   0  0  0  0  0  0  0  0  0  0  0  0
   47.8581   24.1929   28.8526 H   0  0  0  0  0  0  0  0  0  0  0  0
   40.7393   22.1640   38.7592 H   0  0  0  0  0  0  0  0  0  0  0  0
   38.1033   23.9719   35.8611 H   0  0  0  0  0  0  0  0  0  0  0  0
  1 17  1  0
  1  2  2  0
  3  2  1  0
  4  5  2  0
  4  3  1  0
  5  1  1  0
  6  4  1  0
  6  7  1  0
  8  7  2  0
  9 10  2  0
  9  8  1  0
 10  6  1  0
 11 12  1  0
 11 10  1  0
 13 12  1  0
 14 13  1  0
 15 16  1  0
 15 14  1  0
 16 11  1  0
 17 22  1  0
 19 18  2  0
 19 24  1  0
 20 19  1  0
 21 22  1  0
 21 20  2  0
 22 23  2  0
 23 18  1  0
 24 26  1  0
 24 25  1  0
 27 24  1  0
  2 28  1  0
  7 29  1  0
  8 30  1  0
 12 31  1  0
 12 32  1  0
 13 33  1  0
 13 34  1  0
 14 35  1  0
 14 36  1  0
 15 37  1  0
 15 38  1  0
 16 39  1  0
 16 40  1  0
 18 41  1  0
 20 42  1  0
M  ISO  8  28  14  29  14  30  14  31  13  32  13  33  13  34  13  35  13
M  ISO  7  36  13  37  13  38  13  39  13  40  13  41  14  42  14
M  END
>  <minimizedAffinity>  (1) 
-3.82936692

>  <minimizedRMSD>  (1) 
0.0187346619

$$$$
