
     RDKit          3D

 37 41  0  0  1  0  0  0  0  0999 V2000
   37.1100   27.7590   34.3530 N   0  0  0  0  0  0  0  0  0  0  0  0
   36.2540   28.7700   34.6270 C   0  0  0  0  0  0  0  0  0  0  0  0
   35.8130   29.2720   33.4770 N   0  0  0  0  0  0  0  0  0  0  0  0
   36.3830   28.5890   32.4670 C   0  0  0  0  0  0  0  0  0  0  0  0
   36.3200   28.6520   31.1150 C   0  0  0  0  0  0  0  0  0  0  0  0
   37.0470   27.7940   30.3960 N   0  0  0  0  0  0  0  0  0  0  0  0
   37.8410   26.8670   30.9380 C   0  0  0  0  0  0  0  0  0  0  0  0
   37.9200   26.7830   32.2840 N   0  0  0  0  0  0  0  0  0  0  0  0
   37.1990   27.6340   33.0310 C   0  0  0  0  0  0  0  0  0  0  0  0
   35.4740   29.6390   30.5350 N   0  0  0  0  0  0  0  0  0  0  0  0
   38.6250   25.9430   30.1860 N   0  0  0  0  0  0  0  0  0  0  0  0
   38.3520   24.6550   30.3650 N   0  0  0  0  0  0  0  0  0  0  0  0
   39.1670   23.9010   29.5960 C   0  0  0  0  0  0  0  0  0  0  0  0
   39.9690   24.8060   28.9230 C   0  0  0  0  0  0  0  0  0  0  0  0
   39.6360   26.0950   29.2870 C   0  0  0  0  0  0  0  0  0  0  0  0
   38.4320   25.7840   35.2460 C   0  0  2  0  0  0  0  0  0  0  0  0
   39.2400   27.1030   35.5040 C   0  0  0  0  0  0  0  0  0  0  0  0
   37.7500   27.0320   35.4060 C   0  0  1  0  0  0  0  0  0  0  0  0
   37.9780   23.8680   38.4510 C   0  0  0  0  0  0  0  0  0  0  0  0
   37.7760   24.8450   37.4820 C   0  0  0  0  0  0  0  0  0  0  0  0
   38.5730   24.7840   36.3210 C   0  0  0  0  0  0  0  0  0  0  0  0
   39.4920   23.7840   36.2040 N   0  0  0  0  0  0  0  0  0  0  0  0
   39.6510   22.8590   37.1700 C   0  0  0  0  0  0  0  0  0  0  0  0
   38.9000   22.9000   38.2860 N   0  0  0  0  0  0  0  0  0  0  0  0
   35.9706   29.1181   35.6312 H   0  0  0  0  0  0  0  0  0  0  0  0
   35.4006   29.7168   29.5106 H   0  0  0  0  0  0  0  0  0  0  0  0
   34.9353   30.2753   31.1398 H   0  0  0  0  0  0  0  0  0  0  0  0
   39.1886   22.8038   29.5208 H   0  0  0  0  0  0  0  0  0  0  0  0
   40.7564   24.5374   28.2034 H   0  0  0  0  0  0  0  0  0  0  0  0
   40.0860   27.0335   28.9310 H   0  0  0  0  0  0  0  0  0  0  0  0
   38.3300   24.9982   34.4830 H   0  0  0  0  0  0  0  0  0  0  0  0
   39.7314   27.2804   36.4720 H   0  0  0  0  0  0  0  0  0  0  0  0
   40.0513   27.6569   35.0090 H   0  0  0  0  0  0  0  0  0  0  0  0
   36.9004   27.2940   36.0538 H   0  0  0  0  0  0  0  0  0  0  0  0
   37.3733   23.8861   39.3697 H   0  0  0  0  0  0  0  0  0  0  0  0
   37.0228   25.6353   37.6165 H   0  0  0  0  0  0  0  0  0  0  0  0
   40.4007   22.0637   37.0458 H   0  0  0  0  0  0  0  0  0  0  0  0
  1  2  1  0
  1 18  1  0
  3  2  2  0
  4  9  2  0
  4  3  1  0
  5  4  1  0
  6  7  1  0
  6  5  2  0
  7  8  2  0
  8  9  1  0
  9  1  1  0
 10  5  1  0
 11 12  1  0
 11  7  1  0
 13 12  2  0
 14 15  2  0
 14 13  1  0
 15 11  1  0
 16 18  1  0
 16 17  1  0
 16 21  1  0
 18 17  1  0
 20 19  2  0
 21 20  1  0
 22 21  2  0
 22 23  1  0
 23 24  2  0
 24 19  1  0
  2 25  1  0
 10 26  1  0
 10 27  1  0
 13 28  1  0
 14 29  1  0
 15 30  1  0
 16 31  1  6
 17 32  1  0
 17 33  1  0
 18 34  1  1
 19 35  1  0
 20 36  1  0
 23 37  1  0
M  ISO  8  25  14  28  14  29  14  30  14  31  13  32  13  33  13  34  13
M  ISO  3  35  14  36  14  37  14
M  END
>  <minimizedAffinity>  (1) 
-5.85941458

>  <minimizedRMSD>  (1) 
0.427667201

$$$$
