
     RDKit          3D

 42 46  0  0  1  0  0  0  0  0999 V2000
   37.1490   27.7630   34.3040 N   0  0  0  0  0  0  0  0  0  0  0  0
   36.2200   28.7130   34.5790 C   0  0  0  0  0  0  0  0  0  0  0  0
   35.7890   29.2260   33.4350 N   0  0  0  0  0  0  0  0  0  0  0  0
   36.4280   28.6180   32.4220 C   0  0  0  0  0  0  0  0  0  0  0  0
   36.3990   28.7230   31.0670 C   0  0  0  0  0  0  0  0  0  0  0  0
   37.2010   27.9260   30.3490 N   0  0  0  0  0  0  0  0  0  0  0  0
   38.0380   27.0250   30.8910 C   0  0  0  0  0  0  0  0  0  0  0  0
   38.0690   26.9200   32.2370 N   0  0  0  0  0  0  0  0  0  0  0  0
   37.2810   27.6990   32.9910 C   0  0  0  0  0  0  0  0  0  0  0  0
   35.5200   29.6700   30.4830 N   0  0  0  0  0  0  0  0  0  0  0  0
   38.8680   26.2070   30.0770 N   0  0  0  0  0  0  0  0  0  0  0  0
   39.0620   24.7810   30.2570 C   0  0  0  0  0  0  0  0  0  0  0  0
   39.6310   24.3410   28.9290 C   0  0  0  0  0  0  0  0  0  0  0  0
   40.5500   25.5110   28.5830 C   0  0  0  0  0  0  0  0  0  0  0  0
   39.6430   26.6730   28.9450 C   0  0  0  0  0  0  0  0  0  0  0  0
   38.4490   25.7840   35.1950 C   0  0  2  0  0  0  0  0  0  0  0  0
   39.2650   27.0990   35.4590 C   0  0  0  0  0  0  0  0  0  0  0  0
   37.7820   27.0410   35.3570 C   0  0  1  0  0  0  0  0  0  0  0  0
   37.9780   23.8900   38.4200 C   0  0  0  0  0  0  0  0  0  0  0  0
   37.7990   24.8490   37.4290 C   0  0  0  0  0  0  0  0  0  0  0  0
   38.5910   24.7790   36.2690 C   0  0  0  0  0  0  0  0  0  0  0  0
   39.4990   23.7780   36.1620 N   0  0  0  0  0  0  0  0  0  0  0  0
   39.6450   22.8650   37.1450 C   0  0  0  0  0  0  0  0  0  0  0  0
   38.8930   22.9180   38.2640 N   0  0  0  0  0  0  0  0  0  0  0  0
   35.8812   29.0081   35.5831 H   0  0  0  0  0  0  0  0  0  0  0  0
   35.4779   29.7704   29.4588 H   0  0  0  0  0  0  0  0  0  0  0  0
   34.9236   30.2575   31.0830 H   0  0  0  0  0  0  0  0  0  0  0  0
   39.7686   24.5791   31.0755 H   0  0  0  0  0  0  0  0  0  0  0  0
   38.1374   24.2502   30.5278 H   0  0  0  0  0  0  0  0  0  0  0  0
   40.1962   23.4023   29.0261 H   0  0  0  0  0  0  0  0  0  0  0  0
   38.8688   24.1306   28.1643 H   0  0  0  0  0  0  0  0  0  0  0  0
   41.4668   25.5038   29.1908 H   0  0  0  0  0  0  0  0  0  0  0  0
   40.9220   25.5181   27.5479 H   0  0  0  0  0  0  0  0  0  0  0  0
   40.2379   27.5560   29.2213 H   0  0  0  0  0  0  0  0  0  0  0  0
   39.0029   26.9747   28.1028 H   0  0  0  0  0  0  0  0  0  0  0  0
   38.3353   25.0002   34.4317 H   0  0  0  0  0  0  0  0  0  0  0  0
   39.7546   27.2706   36.4290 H   0  0  0  0  0  0  0  0  0  0  0  0
   40.0816   27.6482   34.9674 H   0  0  0  0  0  0  0  0  0  0  0  0
   36.9379   27.3162   36.0064 H   0  0  0  0  0  0  0  0  0  0  0  0
   37.3685   23.9271   39.3349 H   0  0  0  0  0  0  0  0  0  0  0  0
   37.0520   25.6473   37.5501 H   0  0  0  0  0  0  0  0  0  0  0  0
   40.3900   22.0637   37.0320 H   0  0  0  0  0  0  0  0  0  0  0  0
  1  2  1  0
  1 18  1  0
  3  2  2  0
  4  9  2  0
  4  3  1  0
  5  4  1  0
  6  7  1  0
  6  5  2  0
  7  8  2  0
  8  9  1  0
  9  1  1  0
 10  5  1  0
 11 12  1  0
 11  7  1  0
 13 12  1  0
 14 13  1  0
 14 15  1  0
 15 11  1  0
 16 18  1  0
 16 17  1  0
 16 21  1  0
 18 17  1  0
 20 19  2  0
 21 20  1  0
 22 21  2  0
 22 23  1  0
 23 24  2  0
 24 19  1  0
  2 25  1  0
 10 26  1  0
 10 27  1  0
 12 28  1  0
 12 29  1  0
 13 30  1  0
 13 31  1  0
 14 32  1  0
 14 33  1  0
 15 34  1  0
 15 35  1  0
 16 36  1  6
 17 37  1  0
 17 38  1  0
 18 39  1  1
 19 40  1  0
 20 41  1  0
 23 42  1  0
M  ISO  8  25  14  28  13  29  13  30  13  31  13  32  13  33  13  34  13
M  ISO  8  35  13  36  13  37  13  38  13  39  13  40  14  41  14  42  14
M  END
>  <minimizedAffinity>  (1) 
-5.84198236

>  <minimizedRMSD>  (1) 
0.204738006

$$$$
