
     RDKit          3D

 36 40  0  0  1  0  0  0  0  0999 V2000
   37.1000   27.7950   34.3200 N   0  0  0  0  0  0  0  0  0  0  0  0
   36.1430   28.7160   34.6250 C   0  0  0  0  0  0  0  0  0  0  0  0
   35.6990   29.2510   33.4850 N   0  0  0  0  0  0  0  0  0  0  0  0
   36.3610   28.6800   32.4630 C   0  0  0  0  0  0  0  0  0  0  0  0
   36.3380   28.8150   31.1150 C   0  0  0  0  0  0  0  0  0  0  0  0
   37.1580   28.0640   30.3780 N   0  0  0  0  0  0  0  0  0  0  0  0
   38.0100   27.1770   30.8960 C   0  0  0  0  0  0  0  0  0  0  0  0
   38.0430   27.0330   32.2410 N   0  0  0  0  0  0  0  0  0  0  0  0
   37.2310   27.7730   33.0110 C   0  0  0  0  0  0  0  0  0  0  0  0
   35.4250   29.7640   30.5560 N   0  0  0  0  0  0  0  0  0  0  0  0
   38.8390   26.4300   30.0160 N   0  0  0  0  0  0  0  0  0  0  0  0
   39.5630   27.0410   29.0680 C   0  0  0  0  0  0  0  0  0  0  0  0
   40.2620   26.1260   28.3660 N   0  0  0  0  0  0  0  0  0  0  0  0
   39.9520   24.9310   28.9030 C   0  0  0  0  0  0  0  0  0  0  0  0
   39.0780   25.1370   29.9120 N   0  0  0  0  0  0  0  0  0  0  0  0
   38.4210   25.8110   35.1700 C   0  0  2  0  0  0  0  0  0  0  0  0
   39.2380   27.1260   35.4400 C   0  0  0  0  0  0  0  0  0  0  0  0
   37.7510   27.0630   35.3620 C   0  0  1  0  0  0  0  0  0  0  0  0
   38.0020   23.9120   38.4100 C   0  0  0  0  0  0  0  0  0  0  0  0
   37.8150   24.8660   37.4200 C   0  0  0  0  0  0  0  0  0  0  0  0
   38.5800   24.8020   36.2370 C   0  0  0  0  0  0  0  0  0  0  0  0
   39.4840   23.7980   36.1030 N   0  0  0  0  0  0  0  0  0  0  0  0
   39.6510   22.8810   37.0780 C   0  0  0  0  0  0  0  0  0  0  0  0
   38.9200   22.9300   38.2240 N   0  0  0  0  0  0  0  0  0  0  0  0
   35.7960   28.9743   35.6364 H   0  0  0  0  0  0  0  0  0  0  0  0
   35.3788   29.8947   29.5354 H   0  0  0  0  0  0  0  0  0  0  0  0
   34.8139   30.3166   31.1742 H   0  0  0  0  0  0  0  0  0  0  0  0
   39.5839   28.1262   28.8893 H   0  0  0  0  0  0  0  0  0  0  0  0
   40.3427   23.9559   28.5766 H   0  0  0  0  0  0  0  0  0  0  0  0
   38.3007   25.0381   34.3966 H   0  0  0  0  0  0  0  0  0  0  0  0
   39.7434   27.2850   36.4040 H   0  0  0  0  0  0  0  0  0  0  0  0
   40.0442   27.6856   34.9431 H   0  0  0  0  0  0  0  0  0  0  0  0
   36.9179   27.3266   36.0302 H   0  0  0  0  0  0  0  0  0  0  0  0
   37.4115   23.9513   39.3372 H   0  0  0  0  0  0  0  0  0  0  0  0
   37.0743   25.6676   37.5571 H   0  0  0  0  0  0  0  0  0  0  0  0
   40.3918   22.0790   36.9439 H   0  0  0  0  0  0  0  0  0  0  0  0
  1  2  1  0
  1 18  1  0
  3  2  2  0
  4  9  2  0
  4  3  1  0
  5  4  1  0
  6  7  1  0
  6  5  2  0
  7  8  2  0
  8  9  1  0
  9  1  1  0
 10  5  1  0
 11  7  1  0
 12 11  1  0
 13 14  1  0
 13 12  2  0
 14 15  2  0
 15 11  1  0
 16 18  1  0
 16 17  1  0
 16 21  1  0
 18 17  1  0
 20 19  2  0
 21 20  1  0
 22 21  2  0
 22 23  1  0
 23 24  2  0
 24 19  1  0
  2 25  1  0
 10 26  1  0
 10 27  1  0
 12 28  1  0
 14 29  1  0
 16 30  1  6
 17 31  1  0
 17 32  1  0
 18 33  1  1
 19 34  1  0
 20 35  1  0
 23 36  1  0
M  ISO  8  25  14  28  14  29  14  30  13  31  13  32  13  33  13  34  14
M  ISO  2  35  14  36  14
M  END
>  <minimizedAffinity>  (1) 
-5.80525017

>  <minimizedRMSD>  (1) 
0.206307337

$$$$
