
     RDKit          3D

 37 41  0  0  1  0  0  0  0  0999 V2000
   37.1510   27.7350   34.3050 N   0  0  0  0  0  0  0  0  0  0  0  0
   36.2410   28.7030   34.5590 C   0  0  0  0  0  0  0  0  0  0  0  0
   35.8240   29.2160   33.3980 N   0  0  0  0  0  0  0  0  0  0  0  0
   36.4670   28.5730   32.4070 C   0  0  0  0  0  0  0  0  0  0  0  0
   36.4520   28.6590   31.0480 C   0  0  0  0  0  0  0  0  0  0  0  0
   37.2390   27.8430   30.3500 N   0  0  0  0  0  0  0  0  0  0  0  0
   38.0620   26.9230   30.9100 C   0  0  0  0  0  0  0  0  0  0  0  0
   38.0750   26.8390   32.2580 N   0  0  0  0  0  0  0  0  0  0  0  0
   37.2950   27.6460   32.9920 C   0  0  0  0  0  0  0  0  0  0  0  0
   35.5930   29.6290   30.4570 N   0  0  0  0  0  0  0  0  0  0  0  0
   38.4660   25.7720   35.2270 C   0  0  2  0  0  0  0  0  0  0  0  0
   39.2510   27.1000   35.5080 C   0  0  0  0  0  0  0  0  0  0  0  0
   37.7710   27.0150   35.3740 C   0  0  1  0  0  0  0  0  0  0  0  0
   37.9700   23.8750   38.4470 C   0  0  0  0  0  0  0  0  0  0  0  0
   37.7810   24.8460   37.4660 C   0  0  0  0  0  0  0  0  0  0  0  0
   38.5960   24.7750   36.3020 C   0  0  0  0  0  0  0  0  0  0  0  0
   39.5100   23.7720   36.2090 N   0  0  0  0  0  0  0  0  0  0  0  0
   39.6550   22.8580   37.1840 C   0  0  0  0  0  0  0  0  0  0  0  0
   38.8960   22.9040   38.2970 N   0  0  0  0  0  0  0  0  0  0  0  0
   38.9000   26.0580   30.0880 C   0  0  0  0  0  0  0  0  0  0  0  0
   40.1560   26.3670   29.6440 C   0  0  0  0  0  0  0  0  0  0  0  0
   40.5520   25.3020   28.9340 N   0  0  0  0  0  0  0  0  0  0  0  0
   39.5920   24.3610   28.9290 C   0  0  0  0  0  0  0  0  0  0  0  0
   38.5400   24.8340   29.6590 N   0  0  0  0  0  0  0  0  0  0  0  0
   35.9004   29.0162   35.5570 H   0  0  0  0  0  0  0  0  0  0  0  0
   35.5529   29.7253   29.4323 H   0  0  0  0  0  0  0  0  0  0  0  0
   35.0118   30.2343   31.0543 H   0  0  0  0  0  0  0  0  0  0  0  0
   38.3877   24.9865   34.4609 H   0  0  0  0  0  0  0  0  0  0  0  0
   39.7164   27.2802   36.4883 H   0  0  0  0  0  0  0  0  0  0  0  0
   40.0678   27.6641   35.0340 H   0  0  0  0  0  0  0  0  0  0  0  0
   36.9052   27.2696   36.0030 H   0  0  0  0  0  0  0  0  0  0  0  0
   37.3548   23.8999   39.3585 H   0  0  0  0  0  0  0  0  0  0  0  0
   37.0286   25.6392   37.5871 H   0  0  0  0  0  0  0  0  0  0  0  0
   40.4043   22.0605   37.0719 H   0  0  0  0  0  0  0  0  0  0  0  0
   40.7207   27.2925   29.8301 H   0  0  0  0  0  0  0  0  0  0  0  0
   39.6448   23.3840   28.4263 H   0  0  0  0  0  0  0  0  0  0  0  0
   37.6493   24.3511   29.8444 H   0  0  0  0  0  0  0  0  0  0  0  0
  1  2  1  0
  1 13  1  0
  3  2  2  0
  4  9  2  0
  4  3  1  0
  5  4  1  0
  6  7  1  0
  6  5  2  0
  7  8  2  0
  8  9  1  0
  9  1  1  0
 10  5  1  0
 11 13  1  0
 11 12  1  0
 11 16  1  0
 13 12  1  0
 15 14  2  0
 16 15  1  0
 17 16  2  0
 17 18  1  0
 18 19  2  0
 19 14  1  0
 20  7  1  0
 21 20  2  0
 22 21  1  0
 23 22  2  0
 23 24  1  0
 24 20  1  0
  2 25  1  0
 10 26  1  0
 10 27  1  0
 11 28  1  6
 12 29  1  0
 12 30  1  0
 13 31  1  1
 14 32  1  0
 15 33  1  0
 18 34  1  0
 21 35  1  0
 23 36  1  0
 24 37  1  0
M  ISO  8  25  14  28  13  29  13  30  13  31  13  32  14  33  14  34  14
M  ISO  3  35  14  36  14  37   9
M  END
>  <minimizedAffinity>  (1) 
-5.69521904

>  <minimizedRMSD>  (1) 
0.242529586

$$$$
