
     RDKit          3D

 40 44  0  0  1  0  0  0  0  0999 V2000
   37.1100   27.7210   34.3480 N   0  0  0  0  0  0  0  0  0  0  0  0
   36.2470   28.7370   34.6150 C   0  0  0  0  0  0  0  0  0  0  0  0
   35.8200   29.2410   33.4580 N   0  0  0  0  0  0  0  0  0  0  0  0
   36.4050   28.5570   32.4600 C   0  0  0  0  0  0  0  0  0  0  0  0
   36.3590   28.6190   31.1020 C   0  0  0  0  0  0  0  0  0  0  0  0
   37.0960   27.7550   30.3960 N   0  0  0  0  0  0  0  0  0  0  0  0
   37.8830   26.8270   30.9460 C   0  0  0  0  0  0  0  0  0  0  0  0
   37.9350   26.7590   32.2970 N   0  0  0  0  0  0  0  0  0  0  0  0
   37.2100   27.6070   33.0400 C   0  0  0  0  0  0  0  0  0  0  0  0
   35.5270   29.6200   30.5180 N   0  0  0  0  0  0  0  0  0  0  0  0
   38.6690   25.9070   30.1310 C   0  0  0  0  0  0  0  0  0  0  0  0
   39.5930   26.4100   29.2400 C   0  0  0  0  0  0  0  0  0  0  0  0
   40.3550   25.5550   28.4530 C   0  0  0  0  0  0  0  0  0  0  0  0
   40.1020   24.1940   28.6440 C   0  0  0  0  0  0  0  0  0  0  0  0
   39.1900   23.6570   29.5210 C   0  0  0  0  0  0  0  0  0  0  0  0
   38.4630   24.5500   30.2770 C   0  0  0  0  0  0  0  0  0  0  0  0
   38.4620   25.7810   35.2620 C   0  0  2  0  0  0  0  0  0  0  0  0
   39.2090   27.1260   35.5730 C   0  0  0  0  0  0  0  0  0  0  0  0
   37.7270   27.0020   35.4140 C   0  0  1  0  0  0  0  0  0  0  0  0
   37.9550   23.8630   38.4680 C   0  0  0  0  0  0  0  0  0  0  0  0
   37.7900   24.8230   37.4850 C   0  0  0  0  0  0  0  0  0  0  0  0
   38.5940   24.7740   36.3300 C   0  0  0  0  0  0  0  0  0  0  0  0
   39.5110   23.7790   36.2220 N   0  0  0  0  0  0  0  0  0  0  0  0
   39.6530   22.8530   37.1970 C   0  0  0  0  0  0  0  0  0  0  0  0
   38.8870   22.8900   38.3080 N   0  0  0  0  0  0  0  0  0  0  0  0
   35.9515   29.0840   35.6162 H   0  0  0  0  0  0  0  0  0  0  0  0
   35.4625   29.7025   29.4933 H   0  0  0  0  0  0  0  0  0  0  0  0
   34.9908   30.2602   31.1210 H   0  0  0  0  0  0  0  0  0  0  0  0
   39.7283   27.4980   29.1513 H   0  0  0  0  0  0  0  0  0  0  0  0
   41.1016   25.9221   27.7334 H   0  0  0  0  0  0  0  0  0  0  0  0
   40.6865   23.4874   28.0366 H   0  0  0  0  0  0  0  0  0  0  0  0
   39.0480   22.5702   29.6143 H   0  0  0  0  0  0  0  0  0  0  0  0
   37.7179   24.1815   30.9974 H   0  0  0  0  0  0  0  0  0  0  0  0
   38.4222   25.0049   34.4834 H   0  0  0  0  0  0  0  0  0  0  0  0
   39.6546   27.3050   36.5627 H   0  0  0  0  0  0  0  0  0  0  0  0
   40.0177   27.7179   35.1196 H   0  0  0  0  0  0  0  0  0  0  0  0
   36.8428   27.2206   36.0308 H   0  0  0  0  0  0  0  0  0  0  0  0
   37.3333   23.8886   39.3751 H   0  0  0  0  0  0  0  0  0  0  0  0
   37.0380   25.6168   37.6048 H   0  0  0  0  0  0  0  0  0  0  0  0
   40.4041   22.0574   37.0832 H   0  0  0  0  0  0  0  0  0  0  0  0
  1  2  1  0
  1 19  1  0
  3  2  2  0
  4  9  2  0
  4  3  1  0
  5  4  1  0
  6  7  1  0
  6  5  2  0
  7  8  2  0
  8  9  1  0
  9  1  1  0
 10  5  1  0
 11 16  1  0
 11  7  1  0
 12 11  2  0
 13 14  2  0
 13 12  1  0
 14 15  1  0
 15 16  2  0
 17 19  1  0
 17 18  1  0
 17 22  1  0
 19 18  1  0
 21 20  2  0
 22 21  1  0
 23 22  2  0
 23 24  1  0
 24 25  2  0
 25 20  1  0
  2 26  1  0
 10 27  1  0
 10 28  1  0
 12 29  1  0
 13 30  1  0
 14 31  1  0
 15 32  1  0
 16 33  1  0
 17 34  1  6
 18 35  1  0
 18 36  1  0
 19 37  1  1
 20 38  1  0
 21 39  1  0
 24 40  1  0
M  ISO  8  26  14  29  14  30  14  31  14  32  14  33  14  34  13  35  13
M  ISO  5  36  13  37  13  38  14  39  14  40  14
M  END
>  <minimizedAffinity>  (1) 
-5.68363523

>  <minimizedRMSD>  (1) 
0.457542628

$$$$
