
     RDKit          3D

 38 42  0  0  1  0  0  0  0  0999 V2000
   37.1140   27.7470   34.3650 N   0  0  0  0  0  0  0  0  0  0  0  0
   36.2480   28.7600   34.6370 C   0  0  0  0  0  0  0  0  0  0  0  0
   35.8110   29.2560   33.4820 N   0  0  0  0  0  0  0  0  0  0  0  0
   36.3840   28.5740   32.4780 C   0  0  0  0  0  0  0  0  0  0  0  0
   36.3210   28.6280   31.1250 C   0  0  0  0  0  0  0  0  0  0  0  0
   37.0500   27.7660   30.4110 N   0  0  0  0  0  0  0  0  0  0  0  0
   37.8460   26.8440   30.9550 C   0  0  0  0  0  0  0  0  0  0  0  0
   37.9220   26.7760   32.3070 N   0  0  0  0  0  0  0  0  0  0  0  0
   37.2020   27.6270   33.0540 C   0  0  0  0  0  0  0  0  0  0  0  0
   35.4770   29.6180   30.5430 N   0  0  0  0  0  0  0  0  0  0  0  0
   38.4490   25.7850   35.2620 C   0  0  2  0  0  0  0  0  0  0  0  0
   39.2190   27.1220   35.5640 C   0  0  0  0  0  0  0  0  0  0  0  0
   37.7450   27.0220   35.4270 C   0  0  1  0  0  0  0  0  0  0  0  0
   37.9620   23.8590   38.4660 C   0  0  0  0  0  0  0  0  0  0  0  0
   37.7850   24.8270   37.4880 C   0  0  0  0  0  0  0  0  0  0  0  0
   38.5830   24.7780   36.3300 C   0  0  0  0  0  0  0  0  0  0  0  0
   39.4990   23.7820   36.2200 N   0  0  0  0  0  0  0  0  0  0  0  0
   39.6500   22.8540   37.1860 C   0  0  0  0  0  0  0  0  0  0  0  0
   38.8940   22.8870   38.2990 N   0  0  0  0  0  0  0  0  0  0  0  0
   38.6260   25.9210   30.1730 C   0  0  0  0  0  0  0  0  0  0  0  0
   38.4790   24.5580   30.2830 C   0  0  0  0  0  0  0  0  0  0  0  0
   39.2340   23.6760   29.5270 C   0  0  0  0  0  0  0  0  0  0  0  0
   40.1450   24.1810   28.6500 N   0  0  0  0  0  0  0  0  0  0  0  0
   40.2840   25.5130   28.5460 C   0  0  0  0  0  0  0  0  0  0  0  0
   39.5460   26.3390   29.2850 N   0  0  0  0  0  0  0  0  0  0  0  0
   35.9587   29.1092   35.6392 H   0  0  0  0  0  0  0  0  0  0  0  0
   35.4010   29.6923   29.5185 H   0  0  0  0  0  0  0  0  0  0  0  0
   34.9430   30.2591   31.1469 H   0  0  0  0  0  0  0  0  0  0  0  0
   38.3817   25.0091   34.4852 H   0  0  0  0  0  0  0  0  0  0  0  0
   39.6808   27.2938   36.5475 H   0  0  0  0  0  0  0  0  0  0  0  0
   40.0296   27.7026   35.0993 H   0  0  0  0  0  0  0  0  0  0  0  0
   36.8788   27.2624   36.0610 H   0  0  0  0  0  0  0  0  0  0  0  0
   37.3464   23.8795   39.3774 H   0  0  0  0  0  0  0  0  0  0  0  0
   37.0332   25.6198   37.6157 H   0  0  0  0  0  0  0  0  0  0  0  0
   40.4008   22.0595   37.0630 H   0  0  0  0  0  0  0  0  0  0  0  0
   37.7402   24.1563   30.9921 H   0  0  0  0  0  0  0  0  0  0  0  0
   39.1002   22.5893   29.6331 H   0  0  0  0  0  0  0  0  0  0  0  0
   41.0184   25.9276   27.8398 H   0  0  0  0  0  0  0  0  0  0  0  0
  1  2  1  0
  1 13  1  0
  3  2  2  0
  4  9  2  0
  4  3  1  0
  5  4  1  0
  6  7  1  0
  6  5  2  0
  7  8  2  0
  8  9  1  0
  9  1  1  0
 10  5  1  0
 11 13  1  0
 11 12  1  0
 11 16  1  0
 13 12  1  0
 15 14  2  0
 16 15  1  0
 17 16  2  0
 17 18  1  0
 18 19  2  0
 19 14  1  0
 20 21  2  0
 20  7  1  0
 22 21  1  0
 23 22  2  0
 24 23  1  0
 24 25  2  0
 25 20  1  0
  2 26  1  0
 10 27  1  0
 10 28  1  0
 11 29  1  6
 12 30  1  0
 12 31  1  0
 13 32  1  1
 14 33  1  0
 15 34  1  0
 18 35  1  0
 21 36  1  0
 22 37  1  0
 24 38  1  0
M  ISO  8  26  14  29  13  30  13  31  13  32  13  33  14  34  14  35  14
M  ISO  3  36  14  37  14  38  14
M  END
>  <minimizedAffinity>  (1) 
-5.59820271

>  <minimizedRMSD>  (1) 
0.482022464

$$$$
