
     RDKit          3D

 37 41  0  0  1  0  0  0  0  0999 V2000
   37.1370   27.7230   34.3400 N   0  0  0  0  0  0  0  0  0  0  0  0
   36.2700   28.7420   34.5840 C   0  0  0  0  0  0  0  0  0  0  0  0
   35.8540   29.2380   33.4200 N   0  0  0  0  0  0  0  0  0  0  0  0
   36.4500   28.5420   32.4310 C   0  0  0  0  0  0  0  0  0  0  0  0
   36.4120   28.5930   31.0740 C   0  0  0  0  0  0  0  0  0  0  0  0
   37.1560   27.7230   30.3840 N   0  0  0  0  0  0  0  0  0  0  0  0
   37.9360   26.8020   30.9470 C   0  0  0  0  0  0  0  0  0  0  0  0
   37.9760   26.7470   32.3010 N   0  0  0  0  0  0  0  0  0  0  0  0
   37.2420   27.6060   33.0250 C   0  0  0  0  0  0  0  0  0  0  0  0
   35.5780   29.5800   30.4700 N   0  0  0  0  0  0  0  0  0  0  0  0
   38.4650   25.7850   35.2710 C   0  0  2  0  0  0  0  0  0  0  0  0
   39.2130   27.1260   35.5930 C   0  0  0  0  0  0  0  0  0  0  0  0
   37.7400   27.0090   35.4170 C   0  0  1  0  0  0  0  0  0  0  0  0
   37.9610   23.8440   38.4580 C   0  0  0  0  0  0  0  0  0  0  0  0
   37.7730   24.8270   37.4900 C   0  0  0  0  0  0  0  0  0  0  0  0
   38.5880   24.7700   36.3370 C   0  0  0  0  0  0  0  0  0  0  0  0
   39.5080   23.7730   36.2270 N   0  0  0  0  0  0  0  0  0  0  0  0
   39.6520   22.8440   37.1940 C   0  0  0  0  0  0  0  0  0  0  0  0
   38.8850   22.8770   38.3010 N   0  0  0  0  0  0  0  0  0  0  0  0
   38.7250   25.8810   30.1370 C   0  0  0  0  0  0  0  0  0  0  0  0
   38.5430   24.4960   30.2440 C   0  0  0  0  0  0  0  0  0  0  0  0
   39.4140   23.8890   29.3690 C   0  0  0  0  0  0  0  0  0  0  0  0
   40.0940   24.9420   28.7600 C   0  0  0  0  0  0  0  0  0  0  0  0
   39.6550   26.0720   29.2430 O   0  0  0  0  0  0  0  0  0  0  0  0
   35.9630   29.0978   35.5785 H   0  0  0  0  0  0  0  0  0  0  0  0
   35.5229   29.6497   29.4438 H   0  0  0  0  0  0  0  0  0  0  0  0
   35.0309   30.2230   31.0600 H   0  0  0  0  0  0  0  0  0  0  0  0
   38.4248   25.0098   34.4916 H   0  0  0  0  0  0  0  0  0  0  0  0
   39.6474   27.3017   36.5882 H   0  0  0  0  0  0  0  0  0  0  0  0
   40.0294   27.7154   35.1502 H   0  0  0  0  0  0  0  0  0  0  0  0
   36.8536   27.2373   36.0270 H   0  0  0  0  0  0  0  0  0  0  0  0
   37.3432   23.8575   39.3680 H   0  0  0  0  0  0  0  0  0  0  0  0
   37.0190   25.6176   37.6179 H   0  0  0  0  0  0  0  0  0  0  0  0
   40.4045   22.0501   37.0775 H   0  0  0  0  0  0  0  0  0  0  0  0
   37.8309   23.9852   30.9088 H   0  0  0  0  0  0  0  0  0  0  0  0
   39.5447   22.8116   29.1898 H   0  0  0  0  0  0  0  0  0  0  0  0
   40.8764   24.8373   27.9939 H   0  0  0  0  0  0  0  0  0  0  0  0
  1  2  1  0
  1 13  1  0
  3  2  2  0
  4  9  2  0
  4  3  1  0
  5  4  1  0
  6  7  1  0
  6  5  2  0
  7  8  2  0
  8  9  1  0
  9  1  1  0
 10  5  1  0
 11 13  1  0
 11 12  1  0
 11 16  1  0
 13 12  1  0
 15 14  2  0
 16 15  1  0
 17 16  2  0
 17 18  1  0
 18 19  2  0
 19 14  1  0
 20 21  2  0
 20  7  1  0
 22 21  1  0
 23 24  1  0
 23 22  2  0
 24 20  1  0
  2 25  1  0
 10 26  1  0
 10 27  1  0
 11 28  1  6
 12 29  1  0
 12 30  1  0
 13 31  1  1
 14 32  1  0
 15 33  1  0
 18 34  1  0
 21 35  1  0
 22 36  1  0
 23 37  1  0
M  ISO  8  25  14  28  13  29  13  30  13  31  13  32  14  33  14  34  14
M  ISO  3  35  14  36  14  37  14
M  END
>  <minimizedAffinity>  (1) 
-5.53967905

>  <minimizedRMSD>  (1) 
0.413903326

$$$$
