
     RDKit          3D

 36 40  0  0  1  0  0  0  0  0999 V2000
   37.1070   27.7800   34.3120 N   0  0  0  0  0  0  0  0  0  0  0  0
   36.1520   28.7020   34.6150 C   0  0  0  0  0  0  0  0  0  0  0  0
   35.7130   29.2410   33.4740 N   0  0  0  0  0  0  0  0  0  0  0  0
   36.3870   28.6640   32.4410 C   0  0  0  0  0  0  0  0  0  0  0  0
   36.3560   28.8110   31.1020 C   0  0  0  0  0  0  0  0  0  0  0  0
   37.1800   28.0530   30.3720 N   0  0  0  0  0  0  0  0  0  0  0  0
   38.0370   27.1540   30.8950 C   0  0  0  0  0  0  0  0  0  0  0  0
   38.0540   27.0190   32.2380 N   0  0  0  0  0  0  0  0  0  0  0  0
   37.2440   27.7610   33.0030 C   0  0  0  0  0  0  0  0  0  0  0  0
   35.4560   29.7570   30.5420 N   0  0  0  0  0  0  0  0  0  0  0  0
   38.4250   25.8050   35.1780 C   0  0  2  0  0  0  0  0  0  0  0  0
   39.2390   27.1230   35.4370 C   0  0  0  0  0  0  0  0  0  0  0  0
   37.7470   27.0530   35.3580 C   0  0  1  0  0  0  0  0  0  0  0  0
   38.0070   23.9060   38.4070 C   0  0  0  0  0  0  0  0  0  0  0  0
   37.8050   24.8720   37.4270 C   0  0  0  0  0  0  0  0  0  0  0  0
   38.5810   24.8030   36.2480 C   0  0  0  0  0  0  0  0  0  0  0  0
   39.4860   23.7990   36.1240 N   0  0  0  0  0  0  0  0  0  0  0  0
   39.6600   22.8750   37.0900 C   0  0  0  0  0  0  0  0  0  0  0  0
   38.9200   22.9290   38.2320 N   0  0  0  0  0  0  0  0  0  0  0  0
   38.9310   26.3370   30.0350 C   0  0  0  0  0  0  0  0  0  0  0  0
   39.9860   26.7800   29.0760 C   0  0  0  0  0  0  0  0  0  0  0  0
   40.5500   25.1940   28.4920 S   0  0  0  0  0  0  0  0  0  0  0  0
   39.3430   24.1890   29.5700 C   0  0  0  0  0  0  0  0  0  0  0  0
   38.6080   25.0660   30.2850 N   0  0  0  0  0  0  0  0  0  0  0  0
   35.8020   28.9590   35.6257 H   0  0  0  0  0  0  0  0  0  0  0  0
   35.4147   29.8867   29.5210 H   0  0  0  0  0  0  0  0  0  0  0  0
   34.8449   30.3131   31.1570 H   0  0  0  0  0  0  0  0  0  0  0  0
   38.3113   25.0258   34.4099 H   0  0  0  0  0  0  0  0  0  0  0  0
   39.7433   27.2918   36.3999 H   0  0  0  0  0  0  0  0  0  0  0  0
   40.0441   27.6808   34.9362 H   0  0  0  0  0  0  0  0  0  0  0  0
   36.9077   27.3116   36.0204 H   0  0  0  0  0  0  0  0  0  0  0  0
   37.4161   23.9392   39.3342 H   0  0  0  0  0  0  0  0  0  0  0  0
   37.0602   25.6694   37.5661 H   0  0  0  0  0  0  0  0  0  0  0  0
   40.4024   22.0745   36.9554 H   0  0  0  0  0  0  0  0  0  0  0  0
   40.3191   27.7934   28.8074 H   0  0  0  0  0  0  0  0  0  0  0  0
   39.2603   23.0926   29.6035 H   0  0  0  0  0  0  0  0  0  0  0  0
  1  2  1  0
  1 13  1  0
  3  2  2  0
  4  9  2  0
  4  3  1  0
  5  4  1  0
  6  7  1  0
  6  5  2  0
  7  8  2  0
  8  9  1  0
  9  1  1  0
 10  5  1  0
 11 13  1  0
 11 12  1  0
 11 16  1  0
 13 12  1  0
 15 14  2  0
 16 15  1  0
 17 16  2  0
 17 18  1  0
 18 19  2  0
 19 14  1  0
 20 24  1  0
 20  7  1  0
 21 20  2  0
 22 21  1  0
 22 23  1  0
 23 24  2  0
  2 25  1  0
 10 26  1  0
 10 27  1  0
 11 28  1  6
 12 29  1  0
 12 30  1  0
 13 31  1  1
 14 32  1  0
 15 33  1  0
 18 34  1  0
 21 35  1  0
 23 36  1  0
M  ISO  8  25  14  28  13  29  13  30  13  31  13  32  14  33  14  34  14
M  ISO  2  35  14  36  14
M  END
>  <minimizedAffinity>  (1) 
-5.53300142

>  <minimizedRMSD>  (1) 
0.256945372

$$$$
