
     RDKit          3D

 42 45  0  0  1  0  0  0  0  0999 V2000
   37.1380   27.7470   34.2640 N   0  0  0  0  0  0  0  0  0  0  0  0
   36.0510   28.5230   34.5170 C   0  0  0  0  0  0  0  0  0  0  0  0
   35.6490   29.0750   33.3750 N   0  0  0  0  0  0  0  0  0  0  0  0
   36.4750   28.6570   32.3870 C   0  0  0  0  0  0  0  0  0  0  0  0
   36.5670   28.8710   31.0540 C   0  0  0  0  0  0  0  0  0  0  0  0
   37.5440   28.2670   30.3700 N   0  0  0  0  0  0  0  0  0  0  0  0
   38.4470   27.4580   30.9250 C   0  0  0  0  0  0  0  0  0  0  0  0
   38.3640   27.2390   32.2590 N   0  0  0  0  0  0  0  0  0  0  0  0
   37.4010   27.8230   32.9780 C   0  0  0  0  0  0  0  0  0  0  0  0
   35.5990   29.7490   30.4670 N   0  0  0  0  0  0  0  0  0  0  0  0
   38.4460   25.7770   35.1690 C   0  0  2  0  0  0  0  0  0  0  0  0
   39.2600   27.0960   35.4250 C   0  0  0  0  0  0  0  0  0  0  0  0
   37.7740   27.0330   35.3280 C   0  0  1  0  0  0  0  0  0  0  0  0
   37.9940   23.9320   38.4300 C   0  0  0  0  0  0  0  0  0  0  0  0
   37.8100   24.8710   37.4290 C   0  0  0  0  0  0  0  0  0  0  0  0
   38.5990   24.7910   36.2540 C   0  0  0  0  0  0  0  0  0  0  0  0
   39.5150   23.7870   36.1550 N   0  0  0  0  0  0  0  0  0  0  0  0
   39.6650   22.8930   37.1510 C   0  0  0  0  0  0  0  0  0  0  0  0
   38.9220   22.9550   38.2740 N   0  0  0  0  0  0  0  0  0  0  0  0
   39.4820   26.8480   30.0630 C   0  0  0  0  0  0  0  0  0  0  0  0
   39.4260   27.4950   28.6880 C   0  0  0  0  0  0  0  0  0  0  0  0
   40.8820   27.1080   30.5840 C   0  0  0  0  0  0  0  0  0  0  0  0
   39.2670   25.3650   29.8780 C   0  0  0  0  0  0  0  0  0  0  0  0
   35.5822   28.6700   35.5012 H   0  0  0  0  0  0  0  0  0  0  0  0
   35.6267   29.9440   29.4560 H   0  0  0  0  0  0  0  0  0  0  0  0
   34.8753   30.1853   31.0560 H   0  0  0  0  0  0  0  0  0  0  0  0
   38.3309   24.9897   34.4095 H   0  0  0  0  0  0  0  0  0  0  0  0
   39.7524   27.2729   36.3926 H   0  0  0  0  0  0  0  0  0  0  0  0
   40.0734   27.6454   34.9285 H   0  0  0  0  0  0  0  0  0  0  0  0
   36.9317   27.3092   35.9793 H   0  0  0  0  0  0  0  0  0  0  0  0
   37.3899   23.9782   39.3481 H   0  0  0  0  0  0  0  0  0  0  0  0
   37.0613   25.6686   37.5441 H   0  0  0  0  0  0  0  0  0  0  0  0
   40.4121   22.0926   37.0455 H   0  0  0  0  0  0  0  0  0  0  0  0
   39.3316   28.5853   28.7994 H   0  0  0  0  0  0  0  0  0  0  0  0
   40.3477   27.2613   28.1350 H   0  0  0  0  0  0  0  0  0  0  0  0
   38.5581   27.1064   28.1350 H   0  0  0  0  0  0  0  0  0  0  0  0
   40.8702   27.1058   31.6839 H   0  0  0  0  0  0  0  0  0  0  0  0
   41.5597   26.3204   30.2230 H   0  0  0  0  0  0  0  0  0  0  0  0
   41.2317   28.0865   30.2230 H   0  0  0  0  0  0  0  0  0  0  0  0
   39.1966   24.8791   30.8624 H   0  0  0  0  0  0  0  0  0  0  0  0
   38.3351   25.1966   29.3184 H   0  0  0  0  0  0  0  0  0  0  0  0
   40.1128   24.9389   29.3184 H   0  0  0  0  0  0  0  0  0  0  0  0
  1  2  1  0
  1 13  1  0
  3  2  2  0
  4  9  2  0
  4  3  1  0
  5  4  1  0
  6  7  1  0
  6  5  2  0
  7  8  2  0
  8  9  1  0
  9  1  1  0
 10  5  1  0
 11 13  1  0
 11 12  1  0
 11 16  1  0
 13 12  1  0
 15 14  2  0
 16 15  1  0
 17 16  2  0
 17 18  1  0
 18 19  2  0
 19 14  1  0
 20 22  1  0
 20  7  1  0
 21 20  1  0
 23 20  1  0
  2 24  1  0
 10 25  1  0
 10 26  1  0
 11 27  1  6
 12 28  1  0
 12 29  1  0
 13 30  1  1
 14 31  1  0
 15 32  1  0
 18 33  1  0
 21 34  1  0
 21 35  1  0
 21 36  1  0
 22 37  1  0
 22 38  1  0
 22 39  1  0
 23 40  1  0
 23 41  1  0
 23 42  1  0
M  ISO  8  24  14  27  13  28  13  29  13  30  13  31  14  32  14  33  14
M  ISO  8  34   8  35   8  36   8  37   8  38   8  39   8  40   8  41   8
M  ISO  1  42   8
M  END
>  <minimizedAffinity>  (1) 
-5.47471094

>  <minimizedRMSD>  (1) 
0.334817141

$$$$
