
     RDKit          3D

 33 36  0  0  1  0  0  0  0  0999 V2000
   37.1690   27.7380   34.2990 N   0  0  0  0  0  0  0  0  0  0  0  0
   36.2390   28.6960   34.5580 C   0  0  0  0  0  0  0  0  0  0  0  0
   35.8200   29.1990   33.3990 N   0  0  0  0  0  0  0  0  0  0  0  0
   36.4760   28.5690   32.4010 C   0  0  0  0  0  0  0  0  0  0  0  0
   36.4640   28.6570   31.0500 C   0  0  0  0  0  0  0  0  0  0  0  0
   37.2690   27.8560   30.3500 N   0  0  0  0  0  0  0  0  0  0  0  0
   38.0940   26.9640   30.9030 C   0  0  0  0  0  0  0  0  0  0  0  0
   38.1130   26.8700   32.2530 N   0  0  0  0  0  0  0  0  0  0  0  0
   37.3180   27.6570   32.9920 C   0  0  0  0  0  0  0  0  0  0  0  0
   35.5830   29.6020   30.4530 N   0  0  0  0  0  0  0  0  0  0  0  0
   38.4760   25.7690   35.2140 C   0  0  2  0  0  0  0  0  0  0  0  0
   39.2600   27.0950   35.5090 C   0  0  0  0  0  0  0  0  0  0  0  0
   37.7940   27.0210   35.3710 C   0  0  1  0  0  0  0  0  0  0  0  0
   37.9570   23.8820   38.4420 C   0  0  0  0  0  0  0  0  0  0  0  0
   37.7950   24.8350   37.4460 C   0  0  0  0  0  0  0  0  0  0  0  0
   38.6010   24.7690   36.2940 C   0  0  0  0  0  0  0  0  0  0  0  0
   39.5100   23.7690   36.2060 N   0  0  0  0  0  0  0  0  0  0  0  0
   39.6530   22.8510   37.1840 C   0  0  0  0  0  0  0  0  0  0  0  0
   38.8840   22.9040   38.2960 N   0  0  0  0  0  0  0  0  0  0  0  0
   38.9590   26.1060   30.0990 C   0  0  0  0  0  0  0  0  0  0  0  0
   40.1350   26.4550   29.8170 O   0  0  0  0  0  0  0  0  0  0  0  0
   38.4670   24.8910   29.6450 O   0  0  0  0  0  0  0  0  0  0  0  0
   35.8920   29.0030   35.5557 H   0  0  0  0  0  0  0  0  0  0  0  0
   35.5470   29.6966   29.4280 H   0  0  0  0  0  0  0  0  0  0  0  0
   34.9814   30.1913   31.0460 H   0  0  0  0  0  0  0  0  0  0  0  0
   38.3943   24.9886   34.4431 H   0  0  0  0  0  0  0  0  0  0  0  0
   39.7224   27.2657   36.4924 H   0  0  0  0  0  0  0  0  0  0  0  0
   40.0798   27.6603   35.0416 H   0  0  0  0  0  0  0  0  0  0  0  0
   36.9359   27.2886   36.0051 H   0  0  0  0  0  0  0  0  0  0  0  0
   37.3343   23.9204   39.3480 H   0  0  0  0  0  0  0  0  0  0  0  0
   37.0454   25.6326   37.5557 H   0  0  0  0  0  0  0  0  0  0  0  0
   40.4015   22.0521   37.0765 H   0  0  0  0  0  0  0  0  0  0  0  0
   39.0410   24.2976   29.0986 H   0  0  0  0  0  0  0  0  0  0  0  0
  1  2  1  0
  1 13  1  0
  3  2  2  0
  4  9  2  0
  4  3  1  0
  5  4  1  0
  6  7  1  0
  6  5  2  0
  7  8  2  0
  8  9  1  0
  9  1  1  0
 10  5  1  0
 11 13  1  0
 11 12  1  0
 11 16  1  0
 13 12  1  0
 15 14  2  0
 16 15  1  0
 17 16  2  0
 17 18  1  0
 18 19  2  0
 19 14  1  0
 20  7  1  0
 21 20  2  0
 22 20  1  0
  2 23  1  0
 10 24  1  0
 10 25  1  0
 11 26  1  6
 12 27  1  0
 12 28  1  0
 13 29  1  1
 14 30  1  0
 15 31  1  0
 18 32  1  0
 22 33  1  0
M  ISO  8  23  14  26  13  27  13  28  13  29  13  30  14  31  14  32  14
M  ISO  1  33   3
M  END
>  <minimizedAffinity>  (1) 
-5.46345997

>  <minimizedRMSD>  (1) 
0.16404368

$$$$
