
     RDKit          3D

 39 42  0  0  1  0  0  0  0  0999 V2000
   38.5040   25.7210   35.1680 C   0  0  2  0  0  0  0  0  0  0  0  0
   39.3450   27.0250   35.3880 C   0  0  0  0  0  0  0  0  0  0  0  0
   37.8540   26.9900   35.2920 C   0  0  1  0  0  0  0  0  0  0  0  0
   37.2350   27.6870   34.2140 N   0  0  0  0  0  0  0  0  0  0  0  0
   36.1780   28.5160   34.4380 C   0  0  0  0  0  0  0  0  0  0  0  0
   35.7950   29.0380   33.2740 N   0  0  0  0  0  0  0  0  0  0  0  0
   36.5970   28.5520   32.3030 C   0  0  0  0  0  0  0  0  0  0  0  0
   36.6790   28.7230   30.9640 C   0  0  0  0  0  0  0  0  0  0  0  0
   37.6260   28.0650   30.2920 N   0  0  0  0  0  0  0  0  0  0  0  0
   38.5030   27.2410   30.8690 C   0  0  0  0  0  0  0  0  0  0  0  0
   38.4330   27.0580   32.2110 N   0  0  0  0  0  0  0  0  0  0  0  0
   37.4910   27.7070   32.9140 C   0  0  0  0  0  0  0  0  0  0  0  0
   35.7370   29.6090   30.3480 N   0  0  0  0  0  0  0  0  0  0  0  0
   39.5350   26.5360   30.0690 C   0  0  0  0  0  0  0  0  0  0  0  0
   39.1420   25.0760   30.0030 C   0  0  0  0  0  0  0  0  0  0  0  0
   39.6320   27.0900   28.6660 C   0  0  0  0  0  0  0  0  0  0  0  0
   37.9960   23.9130   38.4370 C   0  0  0  0  0  0  0  0  0  0  0  0
   37.8150   24.8590   37.4310 C   0  0  0  0  0  0  0  0  0  0  0  0
   38.6300   24.7540   36.2710 C   0  0  0  0  0  0  0  0  0  0  0  0
   39.5350   23.7460   36.2030 N   0  0  0  0  0  0  0  0  0  0  0  0
   39.6820   22.8470   37.1960 C   0  0  0  0  0  0  0  0  0  0  0  0
   38.9150   22.9300   38.3100 N   0  0  0  0  0  0  0  0  0  0  0  0
   38.3767   24.9166   34.4286 H   0  0  0  0  0  0  0  0  0  0  0  0
   39.8414   27.2174   36.3506 H   0  0  0  0  0  0  0  0  0  0  0  0
   40.1699   27.5434   34.8773 H   0  0  0  0  0  0  0  0  0  0  0  0
   37.0155   27.2984   35.9338 H   0  0  0  0  0  0  0  0  0  0  0  0
   35.7178   28.7202   35.4160 H   0  0  0  0  0  0  0  0  0  0  0  0
   35.7668   29.7658   29.3304 H   0  0  0  0  0  0  0  0  0  0  0  0
   35.0299   30.0893   30.9226 H   0  0  0  0  0  0  0  0  0  0  0  0
   40.5169   26.6717   30.5459 H   0  0  0  0  0  0  0  0  0  0  0  0
   39.0350   24.6786   31.0231 H   0  0  0  0  0  0  0  0  0  0  0  0
   38.1854   24.9776   29.4690 H   0  0  0  0  0  0  0  0  0  0  0  0
   39.9199   24.5107   29.4690 H   0  0  0  0  0  0  0  0  0  0  0  0
   39.8216   28.1726   28.7116 H   0  0  0  0  0  0  0  0  0  0  0  0
   40.4572   26.5954   28.1327 H   0  0  0  0  0  0  0  0  0  0  0  0
   38.6878   26.9052   28.1327 H   0  0  0  0  0  0  0  0  0  0  0  0
   37.3821   23.9666   39.3482 H   0  0  0  0  0  0  0  0  0  0  0  0
   37.0673   25.6597   37.5306 H   0  0  0  0  0  0  0  0  0  0  0  0
   40.4270   22.0432   37.1020 H   0  0  0  0  0  0  0  0  0  0  0  0
  1  3  1  0
  1  2  1  0
  1 19  1  0
  3  2  1  0
  4  5  1  0
  4  3  1  0
  6  5  2  0
  7 12  2  0
  7  6  1  0
  8  7  1  0
  9 10  1  0
  9  8  2  0
 10 11  2  0
 11 12  1  0
 12  4  1  0
 13  8  1  0
 14 10  1  0
 15 14  1  0
 16 14  1  0
 18 17  2  0
 19 18  1  0
 20 19  2  0
 20 21  1  0
 21 22  2  0
 22 17  1  0
  1 23  1  6
  2 24  1  0
  2 25  1  0
  3 26  1  1
  5 27  1  0
 13 28  1  0
 13 29  1  0
 14 30  1  0
 15 31  1  0
 15 32  1  0
 15 33  1  0
 16 34  1  0
 16 35  1  0
 16 36  1  0
 17 37  1  0
 18 38  1  0
 21 39  1  0
M  ISO  8  23  13  24  13  25  13  26  13  27  14  30   8  31   8  32   8
M  ISO  7  33   8  34   8  35   8  36   8  37  14  38  14  39  14
M  END
>  <minimizedAffinity>  (1) 
-5.33770037

>  <minimizedRMSD>  (1) 
0.231481105

$$$$
