
     RDKit          3D

 32 35  0  0  1  0  0  0  0  0999 V2000
   38.4570   25.7450   35.1820 C   0  0  2  0  0  0  0  0  0  0  0  0
   39.3090   27.0440   35.3950 C   0  0  0  0  0  0  0  0  0  0  0  0
   37.8240   27.0200   35.3320 C   0  0  1  0  0  0  0  0  0  0  0  0
   37.1880   27.7360   34.2730 N   0  0  0  0  0  0  0  0  0  0  0  0
   36.2270   28.6560   34.5410 C   0  0  0  0  0  0  0  0  0  0  0  0
   35.8030   29.1750   33.3900 N   0  0  0  0  0  0  0  0  0  0  0  0
   36.4890   28.5910   32.3810 C   0  0  0  0  0  0  0  0  0  0  0  0
   36.4850   28.7140   31.0350 C   0  0  0  0  0  0  0  0  0  0  0  0
   37.3220   27.9510   30.3260 N   0  0  0  0  0  0  0  0  0  0  0  0
   38.1670   27.0730   30.8650 C   0  0  0  0  0  0  0  0  0  0  0  0
   38.1790   26.9440   32.2160 N   0  0  0  0  0  0  0  0  0  0  0  0
   37.3500   27.6930   32.9600 C   0  0  0  0  0  0  0  0  0  0  0  0
   35.6070   29.6500   30.4400 N   0  0  0  0  0  0  0  0  0  0  0  0
   39.0730   26.2470   30.1390 N   0  0  0  0  0  0  0  0  0  0  0  0
   37.9950   23.8990   38.4380 C   0  0  0  0  0  0  0  0  0  0  0  0
   37.7980   24.8550   37.4350 C   0  0  0  0  0  0  0  0  0  0  0  0
   38.5950   24.7640   36.2740 C   0  0  0  0  0  0  0  0  0  0  0  0
   39.5070   23.7630   36.1880 N   0  0  0  0  0  0  0  0  0  0  0  0
   39.6790   22.8590   37.1610 C   0  0  0  0  0  0  0  0  0  0  0  0
   38.9210   22.9270   38.2880 N   0  0  0  0  0  0  0  0  0  0  0  0
   38.3096   24.9472   34.4392 H   0  0  0  0  0  0  0  0  0  0  0  0
   39.8275   27.2251   36.3481 H   0  0  0  0  0  0  0  0  0  0  0  0
   40.1253   27.5622   34.8705 H   0  0  0  0  0  0  0  0  0  0  0  0
   37.0024   27.3279   35.9955 H   0  0  0  0  0  0  0  0  0  0  0  0
   35.8596   28.9277   35.5416 H   0  0  0  0  0  0  0  0  0  0  0  0
   35.5880   29.7596   29.4160 H   0  0  0  0  0  0  0  0  0  0  0  0
   34.9867   30.2219   31.0307 H   0  0  0  0  0  0  0  0  0  0  0  0
   39.6914   25.5948   30.6421 H   0  0  0  0  0  0  0  0  0  0  0  0
   39.1095   26.3021   29.1111 H   0  0  0  0  0  0  0  0  0  0  0  0
   37.3907   23.9395   39.3562 H   0  0  0  0  0  0  0  0  0  0  0  0
   37.0470   25.6508   37.5479 H   0  0  0  0  0  0  0  0  0  0  0  0
   40.4310   22.0640   37.0489 H   0  0  0  0  0  0  0  0  0  0  0  0
  1  3  1  0
  1  2  1  0
  1 17  1  0
  3  2  1  0
  4  5  1  0
  4  3  1  0
  6  5  2  0
  7 12  2  0
  7  6  1  0
  8  7  1  0
  9 10  1  0
  9  8  2  0
 10 11  2  0
 11 12  1  0
 12  4  1  0
 13  8  1  0
 14 10  1  0
 16 15  2  0
 17 16  1  0
 18 17  2  0
 18 19  1  0
 19 20  2  0
 20 15  1  0
  1 21  1  6
  2 22  1  0
  2 23  1  0
  3 24  1  1
  5 25  1  0
 13 26  1  0
 13 27  1  0
 14 28  1  0
 14 29  1  0
 15 30  1  0
 16 31  1  0
 19 32  1  0
M  ISO  8  21  13  22  13  23  13  24  13  25  14  30  14  31  14  32  14
M  END
>  <minimizedAffinity>  (1) 
-5.31715441

>  <minimizedRMSD>  (1) 
0.0403397083

$$$$
