
     RDKit          3D

 31 34  0  0  1  0  0  0  0  0999 V2000
   38.4740   25.7670   35.1940 C   0  0  2  0  0  0  0  0  0  0  0  0
   39.2780   27.0890   35.4670 C   0  0  0  0  0  0  0  0  0  0  0  0
   37.8020   27.0250   35.3420 C   0  0  1  0  0  0  0  0  0  0  0  0
   37.1770   27.7370   34.2820 N   0  0  0  0  0  0  0  0  0  0  0  0
   36.2190   28.6680   34.5450 C   0  0  0  0  0  0  0  0  0  0  0  0
   35.7990   29.1810   33.3960 N   0  0  0  0  0  0  0  0  0  0  0  0
   36.4790   28.5870   32.3890 C   0  0  0  0  0  0  0  0  0  0  0  0
   36.4780   28.7010   31.0370 C   0  0  0  0  0  0  0  0  0  0  0  0
   37.3030   27.9400   30.3310 N   0  0  0  0  0  0  0  0  0  0  0  0
   38.1500   27.0540   30.8810 C   0  0  0  0  0  0  0  0  0  0  0  0
   38.1580   26.9330   32.2300 N   0  0  0  0  0  0  0  0  0  0  0  0
   37.3340   27.6890   32.9710 C   0  0  0  0  0  0  0  0  0  0  0  0
   35.5820   29.6380   30.4500 N   0  0  0  0  0  0  0  0  0  0  0  0
   38.9770   26.3010   30.0630 O   0  0  0  0  0  0  0  0  0  0  0  0
   37.9700   23.8940   38.4290 C   0  0  0  0  0  0  0  0  0  0  0  0
   37.8030   24.8470   37.4310 C   0  0  0  0  0  0  0  0  0  0  0  0
   38.6040   24.7710   36.2780 C   0  0  0  0  0  0  0  0  0  0  0  0
   39.5130   23.7710   36.1770 N   0  0  0  0  0  0  0  0  0  0  0  0
   39.6530   22.8570   37.1680 C   0  0  0  0  0  0  0  0  0  0  0  0
   38.8850   22.9210   38.2860 N   0  0  0  0  0  0  0  0  0  0  0  0
   38.3752   24.9795   34.4324 H   0  0  0  0  0  0  0  0  0  0  0  0
   39.7511   27.2662   36.4441 H   0  0  0  0  0  0  0  0  0  0  0  0
   40.0994   27.6407   34.9864 H   0  0  0  0  0  0  0  0  0  0  0  0
   36.9489   27.3026   35.9786 H   0  0  0  0  0  0  0  0  0  0  0  0
   35.8540   28.9482   35.5441 H   0  0  0  0  0  0  0  0  0  0  0  0
   35.5534   29.7518   29.4267 H   0  0  0  0  0  0  0  0  0  0  0  0
   34.9621   30.2023   31.0485 H   0  0  0  0  0  0  0  0  0  0  0  0
   39.6038   25.6461   30.4610 H   0  0  0  0  0  0  0  0  0  0  0  0
   37.3516   23.9367   39.3377 H   0  0  0  0  0  0  0  0  0  0  0  0
   37.0565   25.6474   37.5415 H   0  0  0  0  0  0  0  0  0  0  0  0
   40.3976   22.0539   37.0654 H   0  0  0  0  0  0  0  0  0  0  0  0
  1  3  1  0
  1  2  1  0
  1 17  1  0
  3  2  1  0
  4  5  1  0
  4  3  1  0
  6  5  2  0
  7 12  2  0
  7  6  1  0
  8  7  1  0
  9 10  1  0
  9  8  2  0
 10 11  2  0
 11 12  1  0
 12  4  1  0
 13  8  1  0
 14 10  1  0
 16 15  2  0
 17 16  1  0
 18 17  2  0
 18 19  1  0
 19 20  2  0
 20 15  1  0
  1 21  1  6
  2 22  1  0
  2 23  1  0
  3 24  1  1
  5 25  1  0
 13 26  1  0
 13 27  1  0
 14 28  1  0
 15 29  1  0
 16 30  1  0
 19 31  1  0
M  ISO  8  21  13  22  13  23  13  24  13  25  14  28   3  29  14  30  14
M  ISO  1  31  14
M  END
>  <minimizedAffinity>  (1) 
-5.30058098

>  <minimizedRMSD>  (1) 
0.0735644251

$$$$
