
     RDKit          3D

 37 41  0  0  1  0  0  0  0  0999 V2000
   38.4530   25.7820   35.1850 C   0  0  2  0  0  0  0  0  0  0  0  0
   39.2570   27.1030   35.4420 C   0  0  0  0  0  0  0  0  0  0  0  0
   37.7680   27.0300   35.3360 C   0  0  1  0  0  0  0  0  0  0  0  0
   37.1420   27.7430   34.2730 N   0  0  0  0  0  0  0  0  0  0  0  0
   36.1460   28.6320   34.5300 C   0  0  0  0  0  0  0  0  0  0  0  0
   35.7350   29.1650   33.3870 N   0  0  0  0  0  0  0  0  0  0  0  0
   36.4690   28.6180   32.3790 C   0  0  0  0  0  0  0  0  0  0  0  0
   36.4950   28.7710   31.0340 C   0  0  0  0  0  0  0  0  0  0  0  0
   37.3700   28.0510   30.3340 N   0  0  0  0  0  0  0  0  0  0  0  0
   38.2340   27.1760   30.8880 C   0  0  0  0  0  0  0  0  0  0  0  0
   38.2030   27.0280   32.2280 N   0  0  0  0  0  0  0  0  0  0  0  0
   37.3370   27.7360   32.9670 C   0  0  0  0  0  0  0  0  0  0  0  0
   35.5870   29.6990   30.4540 N   0  0  0  0  0  0  0  0  0  0  0  0
   39.1680   26.4240   30.0100 C   0  0  0  0  0  0  0  0  0  0  0  0
   40.5690   26.9720   29.8110 C   0  0  0  0  0  0  0  0  0  0  0  0
   40.3380   25.7130   30.6000 C   0  0  0  0  0  0  0  0  0  0  0  0
   37.9990   23.9050   38.4190 C   0  0  0  0  0  0  0  0  0  0  0  0
   37.8010   24.8730   37.4370 C   0  0  0  0  0  0  0  0  0  0  0  0
   38.6000   24.7910   36.2610 C   0  0  0  0  0  0  0  0  0  0  0  0
   39.5050   23.7870   36.1580 N   0  0  0  0  0  0  0  0  0  0  0  0
   39.6670   22.8680   37.1320 C   0  0  0  0  0  0  0  0  0  0  0  0
   38.9180   22.9270   38.2580 N   0  0  0  0  0  0  0  0  0  0  0  0
   38.3511   24.9929   34.4255 H   0  0  0  0  0  0  0  0  0  0  0  0
   39.7427   27.2851   36.4120 H   0  0  0  0  0  0  0  0  0  0  0  0
   40.0702   27.6560   34.9492 H   0  0  0  0  0  0  0  0  0  0  0  0
   36.9156   27.2955   35.9786 H   0  0  0  0  0  0  0  0  0  0  0  0
   35.7452   28.8710   35.5261 H   0  0  0  0  0  0  0  0  0  0  0  0
   35.5781   29.8419   29.4340 H   0  0  0  0  0  0  0  0  0  0  0  0
   34.9382   30.2283   31.0539 H   0  0  0  0  0  0  0  0  0  0  0  0
   38.3385   26.1242   29.3527 H   0  0  0  0  0  0  0  0  0  0  0  0
   41.0455   26.9237   28.8208 H   0  0  0  0  0  0  0  0  0  0  0  0
   41.0675   27.9341   30.0002 H   0  0  0  0  0  0  0  0  0  0  0  0
   40.4871   25.7147   31.6898 H   0  0  0  0  0  0  0  0  0  0  0  0
   40.7253   24.6849   30.5451 H   0  0  0  0  0  0  0  0  0  0  0  0
   37.3981   23.9370   39.3398 H   0  0  0  0  0  0  0  0  0  0  0  0
   37.0551   25.6712   37.5652 H   0  0  0  0  0  0  0  0  0  0  0  0
   40.4111   22.0670   37.0107 H   0  0  0  0  0  0  0  0  0  0  0  0
  1  3  1  0
  1  2  1  0
  1 19  1  0
  3  2  1  0
  4  5  1  0
  4  3  1  0
  6  5  2  0
  7 12  2  0
  7  6  1  0
  8  7  1  0
  9 10  1  0
  9  8  2  0
 10 11  2  0
 11 12  1  0
 12  4  1  0
 13  8  1  0
 14 16  1  0
 14 10  1  0
 15 14  1  0
 15 16  1  0
 18 17  2  0
 19 18  1  0
 20 19  2  0
 20 21  1  0
 21 22  2  0
 22 17  1  0
  1 23  1  6
  2 24  1  0
  2 25  1  0
  3 26  1  1
  5 27  1  0
 13 28  1  0
 13 29  1  0
 14 30  1  0
 15 31  1  0
 15 32  1  0
 16 33  1  0
 16 34  1  0
 17 35  1  0
 18 36  1  0
 21 37  1  0
M  ISO  8  23  13  24  13  25  13  26  13  27  14  30  13  31  13  32  13
M  ISO  5  33  13  34  13  35  14  36  14  37  14
M  END
>  <minimizedAffinity>  (1) 
-5.28762627

>  <minimizedRMSD>  (1) 
0.633314192

$$$$
