
     RDKit          3D

 34 37  0  0  0  0  0  0  0  0999 V2000
   43.3610   22.6500   33.8780 C   0  0  0  0  0  0  0  0  0  0  0  0
   43.2940   23.9340   34.4150 C   0  0  0  0  0  0  0  0  0  0  0  0
   44.9730   24.6420   33.9510 S   0  0  0  0  0  0  0  0  0  0  0  0
   45.4150   22.9920   33.1050 C   0  0  0  0  0  0  0  0  0  0  0  0
   44.4940   22.4320   33.2920 N   0  0  0  0  0  0  0  0  0  0  0  0
   46.6620   22.6840   32.4330 N   0  0  0  0  0  0  0  0  0  0  0  0
   47.5730   22.0560   33.1910 C   0  0  0  0  0  0  0  0  0  0  0  0
   48.6920   21.8360   32.4220 C   0  0  0  0  0  0  0  0  0  0  0  0
   48.3950   22.3550   31.2060 N   0  0  0  0  0  0  0  0  0  0  0  0
   47.1620   22.8730   31.2070 C   0  0  0  0  0  0  0  0  0  0  0  0
   46.3660   23.5240   30.2280 N   0  0  0  0  0  0  0  0  0  0  0  0
   46.1590   23.0540   28.9820 C   0  0  0  0  0  0  0  0  0  0  0  0
   45.3300   23.9900   28.3600 C   0  0  0  0  0  0  0  0  0  0  0  0
   45.0770   24.9800   29.2600 N   0  0  0  0  0  0  0  0  0  0  0  0
   45.7230   24.6900   30.4260 C   0  0  0  0  0  0  0  0  0  0  0  0
   41.9250   21.5970   34.0960 S   0  0  0  0  0  0  0  0  0  0  0  0
   40.4760   22.3780   37.7170 C   0  0  0  0  0  0  0  0  0  0  0  0
   39.3120   23.1300   37.4450 C   0  0  0  0  0  0  0  0  0  0  0  0
   38.9980   23.3820   36.1120 C   0  0  0  0  0  0  0  0  0  0  0  0
   39.8070   22.9060   35.1170 N   0  0  0  0  0  0  0  0  0  0  0  0
   40.9380   22.1740   35.4450 C   0  0  0  0  0  0  0  0  0  0  0  0
   41.2470   21.9250   36.7320 N   0  0  0  0  0  0  0  0  0  0  0  0
   38.4130   23.6600   38.5080 C   0  0  0  0  0  0  0  0  0  0  0  0
   39.2090   23.8670   39.6290 F   0  0  0  0  0  0  0  0  0  0  0  0
   37.3890   22.8370   38.8120 F   0  0  0  0  0  0  0  0  0  0  0  0
   37.9890   24.9730   38.1740 F   0  0  0  0  0  0  0  0  0  0  0  0
   42.4711   24.4106   34.9678 H   0  0  0  0  0  0  0  0  0  0  0  0
   47.4471   21.7670   34.2449 H   0  0  0  0  0  0  0  0  0  0  0  0
   49.6271   21.3444   32.7283 H   0  0  0  0  0  0  0  0  0  0  0  0
   46.5594   22.1268   28.5460 H   0  0  0  0  0  0  0  0  0  0  0  0
   44.9500   23.9371   27.3291 H   0  0  0  0  0  0  0  0  0  0  0  0
   45.7192   25.2910   31.3473 H   0  0  0  0  0  0  0  0  0  0  0  0
   40.7497   22.1633   38.7605 H   0  0  0  0  0  0  0  0  0  0  0  0
   38.0994   23.9639   35.8591 H   0  0  0  0  0  0  0  0  0  0  0  0
  1 16  1  0
  1  2  2  0
  3  2  1  0
  4  5  2  0
  4  3  1  0
  5  1  1  0
  6  4  1  0
  6  7  1  0
  8  7  2  0
  9 10  2  0
  9  8  1  0
 10  6  1  0
 11 15  1  0
 11 10  1  0
 12 11  1  0
 13 12  2  0
 13 14  1  0
 14 15  2  0
 16 21  1  0
 18 17  2  0
 18 23  1  0
 19 18  1  0
 20 21  1  0
 20 19  2  0
 21 22  2  0
 22 17  1  0
 23 25  1  0
 23 24  1  0
 26 23  1  0
  2 27  1  0
  7 28  1  0
  8 29  1  0
 12 30  1  0
 13 31  1  0
 15 32  1  0
 17 33  1  0
 19 34  1  0
M  ISO  8  27  14  28  14  29  14  30  14  31  14  32  14  33  14  34  14
M  END
>  <minimizedAffinity>  (1) 
-3.81858706

>  <minimizedRMSD>  (1) 
0.0263340306

$$$$
