
     RDKit          3D

 39 43  0  0  1  0  0  0  0  0999 V2000
   37.1060   27.7320   34.3540 N   0  0  0  0  0  0  0  0  0  0  0  0
   36.2500   28.7470   34.6280 C   0  0  0  0  0  0  0  0  0  0  0  0
   35.8140   29.2610   33.4770 N   0  0  0  0  0  0  0  0  0  0  0  0
   36.3990   28.5640   32.4630 C   0  0  0  0  0  0  0  0  0  0  0  0
   36.3380   28.6280   31.1130 C   0  0  0  0  0  0  0  0  0  0  0  0
   37.0670   27.7550   30.4040 N   0  0  0  0  0  0  0  0  0  0  0  0
   37.8550   26.8220   30.9560 C   0  0  0  0  0  0  0  0  0  0  0  0
   37.9120   26.7650   32.3020 N   0  0  0  0  0  0  0  0  0  0  0  0
   37.1960   27.6210   33.0460 C   0  0  0  0  0  0  0  0  0  0  0  0
   35.4990   29.6310   30.5310 N   0  0  0  0  0  0  0  0  0  0  0  0
   38.4460   25.7850   35.2650 C   0  0  2  0  0  0  0  0  0  0  0  0
   39.2040   27.1270   35.5740 C   0  0  0  0  0  0  0  0  0  0  0  0
   37.7210   27.0100   35.4250 C   0  0  1  0  0  0  0  0  0  0  0  0
   37.9690   23.8560   38.4670 C   0  0  0  0  0  0  0  0  0  0  0  0
   37.7880   24.8270   37.4870 C   0  0  0  0  0  0  0  0  0  0  0  0
   38.5910   24.7750   36.3260 C   0  0  0  0  0  0  0  0  0  0  0  0
   39.5060   23.7810   36.2140 N   0  0  0  0  0  0  0  0  0  0  0  0
   39.6520   22.8570   37.1890 C   0  0  0  0  0  0  0  0  0  0  0  0
   38.8960   22.8880   38.3060 N   0  0  0  0  0  0  0  0  0  0  0  0
   38.6340   25.8900   30.1440 C   0  0  0  0  0  0  0  0  0  0  0  0
   38.4300   24.5340   30.2990 C   0  0  0  0  0  0  0  0  0  0  0  0
   39.1560   23.6180   29.5390 C   0  0  0  0  0  0  0  0  0  0  0  0
   40.0630   24.1630   28.6530 C   0  0  0  0  0  0  0  0  0  0  0  0
   40.2560   25.5200   28.5120 C   0  0  0  0  0  0  0  0  0  0  0  0
   39.5270   26.3590   29.2710 N   0  0  0  0  0  0  0  0  0  0  0  0
   35.9627   29.0898   35.6329 H   0  0  0  0  0  0  0  0  0  0  0  0
   35.4266   29.7109   29.5067 H   0  0  0  0  0  0  0  0  0  0  0  0
   34.9677   30.2728   31.1365 H   0  0  0  0  0  0  0  0  0  0  0  0
   38.3895   25.0106   34.4858 H   0  0  0  0  0  0  0  0  0  0  0  0
   39.6574   27.3017   36.5609 H   0  0  0  0  0  0  0  0  0  0  0  0
   40.0127   27.7158   35.1164 H   0  0  0  0  0  0  0  0  0  0  0  0
   36.8437   27.2336   36.0498 H   0  0  0  0  0  0  0  0  0  0  0  0
   37.3532   23.8773   39.3782 H   0  0  0  0  0  0  0  0  0  0  0  0
   37.0351   25.6189   37.6137 H   0  0  0  0  0  0  0  0  0  0  0  0
   40.4033   22.0625   37.0695 H   0  0  0  0  0  0  0  0  0  0  0  0
   37.6891   24.1732   31.0276 H   0  0  0  0  0  0  0  0  0  0  0  0
   39.0151   22.5317   29.6390 H   0  0  0  0  0  0  0  0  0  0  0  0
   40.6604   23.4815   28.0296 H   0  0  0  0  0  0  0  0  0  0  0  0
   40.9916   25.9100   27.7931 H   0  0  0  0  0  0  0  0  0  0  0  0
  1  2  1  0
  1 13  1  0
  3  2  2  0
  4  9  2  0
  4  3  1  0
  5  4  1  0
  6  7  1  0
  6  5  2  0
  7  8  2  0
  8  9  1  0
  9  1  1  0
 10  5  1  0
 11 13  1  0
 11 12  1  0
 11 16  1  0
 13 12  1  0
 15 14  2  0
 16 15  1  0
 17 16  2  0
 17 18  1  0
 18 19  2  0
 19 14  1  0
 20 21  2  0
 20  7  1  0
 22 21  1  0
 23 22  2  0
 24 23  1  0
 24 25  2  0
 25 20  1  0
  2 26  1  0
 10 27  1  0
 10 28  1  0
 11 29  1  6
 12 30  1  0
 12 31  1  0
 13 32  1  1
 14 33  1  0
 15 34  1  0
 18 35  1  0
 21 36  1  0
 22 37  1  0
 23 38  1  0
 24 39  1  0
M  ISO  8  26  14  29  13  30  13  31  13  32  13  33  14  34  14  35  14
M  ISO  4  36  14  37  14  38  14  39  14
M  END
>  <minimizedAffinity>  (1) 
-5.68310738

>  <minimizedRMSD>  (1) 
0.513102472

$$$$
