
     RDKit          3D

 50 55  0  0  1  0  0  0  0  0999 V2000
   37.0730   27.8000   34.4040 N   0  0  0  0  0  0  0  0  0  0  0  0
   36.1870   28.7750   34.7070 C   0  0  0  0  0  0  0  0  0  0  0  0
   35.7230   29.3140   33.5930 N   0  0  0  0  0  0  0  0  0  0  0  0
   36.3240   28.6700   32.5490 C   0  0  0  0  0  0  0  0  0  0  0  0
   36.2470   28.7840   31.2030 C   0  0  0  0  0  0  0  0  0  0  0  0
   37.0000   27.9660   30.4550 N   0  0  0  0  0  0  0  0  0  0  0  0
   37.8250   27.0380   30.9680 C   0  0  0  0  0  0  0  0  0  0  0  0
   37.8950   26.9310   32.3090 N   0  0  0  0  0  0  0  0  0  0  0  0
   37.1540   27.7360   33.0940 C   0  0  0  0  0  0  0  0  0  0  0  0
   35.3650   29.7750   30.6670 N   0  0  0  0  0  0  0  0  0  0  0  0
   38.6210   26.1710   30.1180 C   0  0  0  0  0  0  0  0  0  0  0  0
   38.6640   24.8210   30.3810 C   0  0  0  0  0  0  0  0  0  0  0  0
   39.4160   23.9460   29.5890 C   0  0  0  0  0  0  0  0  0  0  0  0
   40.0860   24.5440   28.5550 C   0  0  0  0  0  0  0  0  0  0  0  0
   40.0490   25.9050   28.2800 C   0  0  0  0  0  0  0  0  0  0  0  0
   39.3000   26.6780   29.0910 N   0  0  0  0  0  0  0  0  0  0  0  0
   40.7820   26.4370   27.1770 N   0  0  0  0  0  0  0  0  0  0  0  0
   41.8370   25.9130   26.5240 C   0  0  0  0  0  0  0  0  0  0  0  0
   42.3860   26.6220   25.4720 C   0  0  0  0  0  0  0  0  0  0  0  0
   41.8890   27.8460   25.0730 C   0  0  0  0  0  0  0  0  0  0  0  0
   42.4790   28.5460   23.9880 N   0  0  0  0  0  0  0  0  0  0  0  0
   40.8280   28.3540   25.7410 N   0  0  0  0  0  0  0  0  0  0  0  0
   40.2970   27.6490   26.7740 C   0  0  0  0  0  0  0  0  0  0  0  0
   39.3120   28.2490   27.3020 O   0  0  0  0  0  0  0  0  0  0  0  0
   38.3800   25.8080   35.2460 C   0  0  2  0  0  0  0  0  0  0  0  0
   39.2240   27.1240   35.4940 C   0  0  0  0  0  0  0  0  0  0  0  0
   37.7220   27.0560   35.4350 C   0  0  1  0  0  0  0  0  0  0  0  0
   37.9970   23.8950   38.4610 C   0  0  0  0  0  0  0  0  0  0  0  0
   37.8080   24.8410   37.4720 C   0  0  0  0  0  0  0  0  0  0  0  0
   38.5680   24.7950   36.2960 C   0  0  0  0  0  0  0  0  0  0  0  0
   39.4710   23.8080   36.1750 N   0  0  0  0  0  0  0  0  0  0  0  0
   39.6410   22.8920   37.1530 C   0  0  0  0  0  0  0  0  0  0  0  0
   38.9180   22.9260   38.2870 N   0  0  0  0  0  0  0  0  0  0  0  0
   35.8966   29.0740   35.7250 H   0  0  0  0  0  0  0  0  0  0  0  0
   35.2798   29.8912   29.6471 H   0  0  0  0  0  0  0  0  0  0  0  0
   34.8152   30.3722   31.3010 H   0  0  0  0  0  0  0  0  0  0  0  0
   38.0946   24.4207   31.2328 H   0  0  0  0  0  0  0  0  0  0  0  0
   39.4651   22.8641   29.7816 H   0  0  0  0  0  0  0  0  0  0  0  0
   40.6939   23.9039   27.8986 H   0  0  0  0  0  0  0  0  0  0  0  0
   42.2537   24.9396   26.8221 H   0  0  0  0  0  0  0  0  0  0  0  0
   43.2470   26.1967   24.9355 H   0  0  0  0  0  0  0  0  0  0  0  0
   42.1009   29.4590   23.6976 H   0  0  0  0  0  0  0  0  0  0  0  0
   43.2852   28.1409   23.4912 H   0  0  0  0  0  0  0  0  0  0  0  0
   38.2286   25.0314   34.4818 H   0  0  0  0  0  0  0  0  0  0  0  0
   39.7438   27.2887   36.4494 H   0  0  0  0  0  0  0  0  0  0  0  0
   40.0274   27.6755   34.9837 H   0  0  0  0  0  0  0  0  0  0  0  0
   36.8912   27.3123   36.1089 H   0  0  0  0  0  0  0  0  0  0  0  0
   37.4000   23.9322   39.3842 H   0  0  0  0  0  0  0  0  0  0  0  0
   37.0576   25.6337   37.6085 H   0  0  0  0  0  0  0  0  0  0  0  0
   40.3900   22.0977   37.0188 H   0  0  0  0  0  0  0  0  0  0  0  0
  1  2  1  0
  1 27  1  0
  3  2  2  0
  4  9  2  0
  4  3  1  0
  5  4  1  0
  6  7  1  0
  6  5  2  0
  7  8  2  0
  8  9  1  0
  9  1  1  0
 10  5  1  0
 11 12  2  0
 11  7  1  0
 13 12  1  0
 14 13  2  0
 15 14  1  0
 15 16  2  0
 16 11  1  0
 17 15  1  0
 18 17  1  0
 19 18  2  0
 20 19  1  0
 20 22  2  0
 21 20  1  0
 22 23  1  0
 23 17  1  0
 23 24  2  0
 25 27  1  0
 25 26  1  0
 25 30  1  0
 27 26  1  0
 29 28  2  0
 30 29  1  0
 31 30  2  0
 31 32  1  0
 32 33  2  0
 33 28  1  0
  2 34  1  0
 10 35  1  0
 10 36  1  0
 12 37  1  0
 13 38  1  0
 14 39  1  0
 18 40  1  0
 19 41  1  0
 21 42  1  0
 21 43  1  0
 25 44  1  6
 26 45  1  0
 26 46  1  0
 27 47  1  1
 28 48  1  0
 29 49  1  0
 32 50  1  0
M  ISO  8  34  14  37  14  38  14  39  14  40  14  41  14  44  13  45  13
M  ISO  5  46  13  47  13  48  14  49  14  50  14
M  END
>  <minimizedAffinity>  (1) 
-6.32698774

>  <minimizedRMSD>  (1) 
0.558905125

$$$$
