
     RDKit          3D

 54 59  0  0  1  0  0  0  0  0999 V2000
   37.0770   27.7940   34.3600 N   0  0  0  0  0  0  0  0  0  0  0  0
   36.1860   28.7750   34.6590 C   0  0  0  0  0  0  0  0  0  0  0  0
   35.7380   29.3070   33.5360 N   0  0  0  0  0  0  0  0  0  0  0  0
   36.3440   28.6640   32.5040 C   0  0  0  0  0  0  0  0  0  0  0  0
   36.2810   28.7730   31.1570 C   0  0  0  0  0  0  0  0  0  0  0  0
   37.0380   27.9540   30.4170 N   0  0  0  0  0  0  0  0  0  0  0  0
   37.8580   27.0280   30.9320 C   0  0  0  0  0  0  0  0  0  0  0  0
   37.9140   26.9260   32.2790 N   0  0  0  0  0  0  0  0  0  0  0  0
   37.1690   27.7310   33.0580 C   0  0  0  0  0  0  0  0  0  0  0  0
   35.4020   29.7660   30.6090 N   0  0  0  0  0  0  0  0  0  0  0  0
   38.6670   26.1540   30.0890 C   0  0  0  0  0  0  0  0  0  0  0  0
   38.6790   24.8080   30.3410 C   0  0  0  0  0  0  0  0  0  0  0  0
   39.4430   23.9450   29.5520 C   0  0  0  0  0  0  0  0  0  0  0  0
   40.1510   24.5420   28.5410 C   0  0  0  0  0  0  0  0  0  0  0  0
   40.1270   25.8860   28.3040 C   0  0  0  0  0  0  0  0  0  0  0  0
   39.3780   26.6590   29.0930 N   0  0  0  0  0  0  0  0  0  0  0  0
   40.8590   26.5100   27.2600 N   0  0  0  0  0  0  0  0  0  0  0  0
   40.4800   27.7150   26.5520 C   0  0  0  0  0  0  0  0  0  0  0  0
   40.5410   27.5350   25.0550 C   0  0  0  0  0  0  0  0  0  0  0  0
   40.7740   26.1120   24.6440 C   0  0  0  0  0  0  0  0  0  0  0  0
   41.8070   25.3750   25.4210 C   0  0  0  0  0  0  0  0  0  0  0  0
   42.1160   25.9700   26.7790 C   0  0  0  0  0  0  0  0  0  0  0  0
   38.3880   25.8120   35.2210 C   0  0  2  0  0  0  0  0  0  0  0  0
   39.2160   27.1370   35.4830 C   0  0  0  0  0  0  0  0  0  0  0  0
   37.7180   27.0520   35.4040 C   0  0  1  0  0  0  0  0  0  0  0  0
   37.9970   23.8970   38.4380 C   0  0  0  0  0  0  0  0  0  0  0  0
   37.8060   24.8520   37.4470 C   0  0  0  0  0  0  0  0  0  0  0  0
   38.5690   24.7980   36.2740 C   0  0  0  0  0  0  0  0  0  0  0  0
   39.4700   23.8090   36.1480 N   0  0  0  0  0  0  0  0  0  0  0  0
   39.6390   22.8910   37.1250 C   0  0  0  0  0  0  0  0  0  0  0  0
   38.9140   22.9250   38.2610 N   0  0  0  0  0  0  0  0  0  0  0  0
   35.8859   29.0776   35.6731 H   0  0  0  0  0  0  0  0  0  0  0  0
   35.3262   29.8797   29.5881 H   0  0  0  0  0  0  0  0  0  0  0  0
   34.8468   30.3650   31.2365 H   0  0  0  0  0  0  0  0  0  0  0  0
   38.0821   24.4032   31.1716 H   0  0  0  0  0  0  0  0  0  0  0  0
   39.4745   22.8599   29.7297 H   0  0  0  0  0  0  0  0  0  0  0  0
   40.7686   23.9068   27.8890 H   0  0  0  0  0  0  0  0  0  0  0  0
   39.4520   27.9848   26.8355 H   0  0  0  0  0  0  0  0  0  0  0  0
   41.1904   28.5083   26.8277 H   0  0  0  0  0  0  0  0  0  0  0  0
   39.5878   27.8730   24.6224 H   0  0  0  0  0  0  0  0  0  0  0  0
   41.3922   28.1268   24.6873 H   0  0  0  0  0  0  0  0  0  0  0  0
   39.8224   25.5702   24.7487 H   0  0  0  0  0  0  0  0  0  0  0  0
   41.1517   26.1569   23.6119 H   0  0  0  0  0  0  0  0  0  0  0  0
   41.4538   24.3440   25.5701 H   0  0  0  0  0  0  0  0  0  0  0  0
   42.7370   25.4313   24.8363 H   0  0  0  0  0  0  0  0  0  0  0  0
   42.4879   25.1934   27.4635 H   0  0  0  0  0  0  0  0  0  0  0  0
   42.8959   26.7433   26.7180 H   0  0  0  0  0  0  0  0  0  0  0  0
   38.2555   25.0355   34.4532 H   0  0  0  0  0  0  0  0  0  0  0  0
   39.7213   27.3052   36.4455 H   0  0  0  0  0  0  0  0  0  0  0  0
   40.0202   27.6983   34.9847 H   0  0  0  0  0  0  0  0  0  0  0  0
   36.8761   27.2976   36.0680 H   0  0  0  0  0  0  0  0  0  0  0  0
   37.4026   23.9340   39.3628 H   0  0  0  0  0  0  0  0  0  0  0  0
   37.0584   25.6473   37.5833 H   0  0  0  0  0  0  0  0  0  0  0  0
   40.3870   22.0959   36.9900 H   0  0  0  0  0  0  0  0  0  0  0  0
  1  2  1  0
  1 25  1  0
  3  2  2  0
  4  9  2  0
  4  3  1  0
  5  4  1  0
  6  7  1  0
  6  5  2  0
  7  8  2  0
  8  9  1  0
  9  1  1  0
 10  5  1  0
 11 12  2  0
 11  7  1  0
 13 12  1  0
 14 13  2  0
 15 14  1  0
 15 16  2  0
 16 11  1  0
 17 15  1  0
 18 17  1  0
 19 18  1  0
 20 19  1  0
 20 21  1  0
 21 22  1  0
 22 17  1  0
 23 25  1  0
 23 24  1  0
 23 28  1  0
 25 24  1  0
 27 26  2  0
 28 27  1  0
 29 28  2  0
 29 30  1  0
 30 31  2  0
 31 26  1  0
  2 32  1  0
 10 33  1  0
 10 34  1  0
 12 35  1  0
 13 36  1  0
 14 37  1  0
 18 38  1  0
 18 39  1  0
 19 40  1  0
 19 41  1  0
 20 42  1  0
 20 43  1  0
 21 44  1  0
 21 45  1  0
 22 46  1  0
 22 47  1  0
 23 48  1  6
 24 49  1  0
 24 50  1  0
 25 51  1  1
 26 52  1  0
 27 53  1  0
 30 54  1  0
M  ISO  8  32  14  35  14  36  14  37  14  38  13  39  13  40  13  41  13
M  ISO  8  42  13  43  13  44  13  45  13  46  13  47  13  48  13  49  13
M  ISO  5  50  13  51  13  52  14  53  14  54  14
M  END
>  <minimizedAffinity>  (1) 
-6.32575417

>  <minimizedRMSD>  (1) 
0.377980232

$$$$
