
     RDKit          3D

 46 51  0  0  1  0  0  0  0  0999 V2000
   37.0390   27.8210   34.3910 N   0  0  0  0  0  0  0  0  0  0  0  0
   36.1120   28.7660   34.6860 C   0  0  0  0  0  0  0  0  0  0  0  0
   35.6550   29.3060   33.5730 N   0  0  0  0  0  0  0  0  0  0  0  0
   36.2880   28.7080   32.5320 C   0  0  0  0  0  0  0  0  0  0  0  0
   36.2280   28.8480   31.1900 C   0  0  0  0  0  0  0  0  0  0  0  0
   37.0160   28.0730   30.4390 N   0  0  0  0  0  0  0  0  0  0  0  0
   37.8570   27.1690   30.9390 C   0  0  0  0  0  0  0  0  0  0  0  0
   37.9160   27.0300   32.2800 N   0  0  0  0  0  0  0  0  0  0  0  0
   37.1380   27.7930   33.0760 C   0  0  0  0  0  0  0  0  0  0  0  0
   35.3190   29.8250   30.6590 N   0  0  0  0  0  0  0  0  0  0  0  0
   38.7040   26.3410   30.0790 C   0  0  0  0  0  0  0  0  0  0  0  0
   38.7330   24.9760   30.2760 C   0  0  0  0  0  0  0  0  0  0  0  0
   39.5320   24.1650   29.4700 C   0  0  0  0  0  0  0  0  0  0  0  0
   40.2630   24.8280   28.4940 C   0  0  0  0  0  0  0  0  0  0  0  0
   40.2220   26.1930   28.3120 C   0  0  0  0  0  0  0  0  0  0  0  0
   39.4320   26.9210   29.1210 N   0  0  0  0  0  0  0  0  0  0  0  0
   40.9720   26.8710   27.3100 N   0  0  0  0  0  0  0  0  0  0  0  0
   40.2130   27.5230   26.3890 C   0  0  0  0  0  0  0  0  0  0  0  0
   41.0940   28.1250   25.4930 C   0  0  0  0  0  0  0  0  0  0  0  0
   42.3460   27.8200   25.8970 N   0  0  0  0  0  0  0  0  0  0  0  0
   42.2700   27.0560   27.0040 C   0  0  0  0  0  0  0  0  0  0  0  0
   38.3490   25.8260   35.2050 C   0  0  2  0  0  0  0  0  0  0  0  0
   39.2000   27.1450   35.4440 C   0  0  0  0  0  0  0  0  0  0  0  0
   37.7010   27.0720   35.4080 C   0  0  1  0  0  0  0  0  0  0  0  0
   38.0420   23.8990   38.4190 C   0  0  0  0  0  0  0  0  0  0  0  0
   37.8220   24.8590   37.4390 C   0  0  0  0  0  0  0  0  0  0  0  0
   38.5610   24.8110   36.2440 C   0  0  0  0  0  0  0  0  0  0  0  0
   39.4630   23.8240   36.1020 N   0  0  0  0  0  0  0  0  0  0  0  0
   39.6570   22.9040   37.0710 C   0  0  0  0  0  0  0  0  0  0  0  0
   38.9570   22.9350   38.2210 N   0  0  0  0  0  0  0  0  0  0  0  0
   35.7897   29.0408   35.7012 H   0  0  0  0  0  0  0  0  0  0  0  0
   35.2456   29.9603   29.6406 H   0  0  0  0  0  0  0  0  0  0  0  0
   34.7405   30.3904   31.2966 H   0  0  0  0  0  0  0  0  0  0  0  0
   38.1231   24.5249   31.0726 H   0  0  0  0  0  0  0  0  0  0  0  0
   39.5795   23.0736   29.5992 H   0  0  0  0  0  0  0  0  0  0  0  0
   40.9085   24.2327   27.8315 H   0  0  0  0  0  0  0  0  0  0  0  0
   39.1143   27.5667   26.3575 H   0  0  0  0  0  0  0  0  0  0  0  0
   40.8207   28.7350   24.6194 H   0  0  0  0  0  0  0  0  0  0  0  0
   43.1256   26.6510   27.5643 H   0  0  0  0  0  0  0  0  0  0  0  0
   38.1787   25.0515   34.4426 H   0  0  0  0  0  0  0  0  0  0  0  0
   39.7345   27.3078   36.3915 H   0  0  0  0  0  0  0  0  0  0  0  0
   39.9948   27.6993   34.9234 H   0  0  0  0  0  0  0  0  0  0  0  0
   36.8810   27.3237   36.0967 H   0  0  0  0  0  0  0  0  0  0  0  0
   37.4674   23.9281   39.3566 H   0  0  0  0  0  0  0  0  0  0  0  0
   37.0750   25.6509   37.5970 H   0  0  0  0  0  0  0  0  0  0  0  0
   40.4038   22.1111   36.9176 H   0  0  0  0  0  0  0  0  0  0  0  0
  1  2  1  0
  1 24  1  0
  3  2  2  0
  4  9  2  0
  4  3  1  0
  5  4  1  0
  6  7  1  0
  6  5  2  0
  7  8  2  0
  8  9  1  0
  9  1  1  0
 10  5  1  0
 11 12  2  0
 11  7  1  0
 13 12  1  0
 14 13  2  0
 15 14  1  0
 15 16  2  0
 16 11  1  0
 17 15  1  0
 18 17  1  0
 19 20  1  0
 19 18  2  0
 20 21  2  0
 21 17  1  0
 22 24  1  0
 22 23  1  0
 22 27  1  0
 24 23  1  0
 26 25  2  0
 27 26  1  0
 28 27  2  0
 28 29  1  0
 29 30  2  0
 30 25  1  0
  2 31  1  0
 10 32  1  0
 10 33  1  0
 12 34  1  0
 13 35  1  0
 14 36  1  0
 18 37  1  0
 19 38  1  0
 21 39  1  0
 22 40  1  6
 23 41  1  0
 23 42  1  0
 24 43  1  1
 25 44  1  0
 26 45  1  0
 29 46  1  0
M  ISO  8  31  14  34  14  35  14  36  14  37  14  38  14  39  14  40  13
M  ISO  6  41  13  42  13  43  13  44  14  45  14  46  14
M  END
>  <minimizedAffinity>  (1) 
-6.12420559

>  <minimizedRMSD>  (1) 
0.517144978

$$$$
