
     RDKit          3D

 49 54  0  0  1  0  0  0  0  0999 V2000
   37.0450   27.8310   34.3130 N   0  0  0  0  0  0  0  0  0  0  0  0
   36.0270   28.6770   34.6320 C   0  0  0  0  0  0  0  0  0  0  0  0
   35.5780   29.2450   33.5280 N   0  0  0  0  0  0  0  0  0  0  0  0
   36.3090   28.7670   32.4800 C   0  0  0  0  0  0  0  0  0  0  0  0
   36.3010   28.9820   31.1500 C   0  0  0  0  0  0  0  0  0  0  0  0
   37.1900   28.3180   30.3960 N   0  0  0  0  0  0  0  0  0  0  0  0
   38.0860   27.4510   30.8880 C   0  0  0  0  0  0  0  0  0  0  0  0
   38.0840   27.2440   32.2270 N   0  0  0  0  0  0  0  0  0  0  0  0
   37.2110   27.8880   33.0180 C   0  0  0  0  0  0  0  0  0  0  0  0
   35.3440   29.9090   30.6300 N   0  0  0  0  0  0  0  0  0  0  0  0
   39.0340   26.7490   30.0340 C   0  0  0  0  0  0  0  0  0  0  0  0
   39.6760   25.6420   30.5210 C   0  0  0  0  0  0  0  0  0  0  0  0
   40.5880   24.9440   29.7340 C   0  0  0  0  0  0  0  0  0  0  0  0
   40.7810   25.4480   28.4640 C   0  0  0  0  0  0  0  0  0  0  0  0
   40.1310   26.5540   27.9900 C   0  0  0  0  0  0  0  0  0  0  0  0
   39.2640   27.1790   28.8040 N   0  0  0  0  0  0  0  0  0  0  0  0
   40.3410   27.0780   26.6470 C   0  0  0  0  0  0  0  0  0  0  0  0
   40.5160   26.3030   25.5210 C   0  0  0  0  0  0  0  0  0  0  0  0
   40.7130   26.8320   24.2620 C   0  0  0  0  0  0  0  0  0  0  0  0
   40.7380   28.2010   24.1020 C   0  0  0  0  0  0  0  0  0  0  0  0
   40.5700   29.0340   25.1890 C   0  0  0  0  0  0  0  0  0  0  0  0
   40.3780   28.4370   26.4170 C   0  0  0  0  0  0  0  0  0  0  0  0
   38.3710   25.8420   35.1240 C   0  0  2  0  0  0  0  0  0  0  0  0
   39.2140   27.1590   35.3570 C   0  0  0  0  0  0  0  0  0  0  0  0
   37.7110   27.0860   35.3340 C   0  0  1  0  0  0  0  0  0  0  0  0
   38.0590   23.9040   38.3330 C   0  0  0  0  0  0  0  0  0  0  0  0
   37.8320   24.8640   37.3540 C   0  0  0  0  0  0  0  0  0  0  0  0
   38.5820   24.8290   36.1720 C   0  0  0  0  0  0  0  0  0  0  0  0
   39.4990   23.8550   36.0370 N   0  0  0  0  0  0  0  0  0  0  0  0
   39.7040   22.9340   37.0010 C   0  0  0  0  0  0  0  0  0  0  0  0
   38.9950   22.9520   38.1400 N   0  0  0  0  0  0  0  0  0  0  0  0
   35.6409   28.8580   35.6460 H   0  0  0  0  0  0  0  0  0  0  0  0
   35.3080   30.0989   29.6183 H   0  0  0  0  0  0  0  0  0  0  0  0
   34.6908   30.3866   31.2672 H   0  0  0  0  0  0  0  0  0  0  0  0
   39.4688   25.3002   31.5458 H   0  0  0  0  0  0  0  0  0  0  0  0
   41.1182   24.0522   30.0994 H   0  0  0  0  0  0  0  0  0  0  0  0
   41.4926   24.9350   27.8003 H   0  0  0  0  0  0  0  0  0  0  0  0
   40.4977   25.2087   25.6314 H   0  0  0  0  0  0  0  0  0  0  0  0
   40.8487   26.1685   23.3952 H   0  0  0  0  0  0  0  0  0  0  0  0
   40.8928   28.6318   23.1018 H   0  0  0  0  0  0  0  0  0  0  0  0
   40.5885   30.1285   25.0805 H   0  0  0  0  0  0  0  0  0  0  0  0
   40.2432   29.0995   27.2847 H   0  0  0  0  0  0  0  0  0  0  0  0
   38.2092   25.0679   34.3594 H   0  0  0  0  0  0  0  0  0  0  0  0
   39.7560   27.3218   36.3003 H   0  0  0  0  0  0  0  0  0  0  0  0
   40.0027   27.7157   34.8297 H   0  0  0  0  0  0  0  0  0  0  0  0
   36.8947   27.3349   36.0280 H   0  0  0  0  0  0  0  0  0  0  0  0
   37.4754   23.9205   39.2653 H   0  0  0  0  0  0  0  0  0  0  0  0
   37.0709   25.6434   37.5061 H   0  0  0  0  0  0  0  0  0  0  0  0
   40.4656   22.1547   36.8507 H   0  0  0  0  0  0  0  0  0  0  0  0
  1  2  1  0
  1 25  1  0
  3  2  2  0
  4  9  2  0
  4  3  1  0
  5  4  1  0
  6  7  1  0
  6  5  2  0
  7  8  2  0
  8  9  1  0
  9  1  1  0
 10  5  1  0
 11 12  2  0
 11  7  1  0
 13 12  1  0
 14 13  2  0
 15 14  1  0
 15 16  2  0
 16 11  1  0
 17 15  1  0
 18 17  2  0
 19 18  1  0
 20 19  2  0
 20 21  1  0
 21 22  2  0
 22 17  1  0
 23 25  1  0
 23 24  1  0
 23 28  1  0
 25 24  1  0
 27 26  2  0
 28 27  1  0
 29 28  2  0
 29 30  1  0
 30 31  2  0
 31 26  1  0
  2 32  1  0
 10 33  1  0
 10 34  1  0
 12 35  1  0
 13 36  1  0
 14 37  1  0
 18 38  1  0
 19 39  1  0
 20 40  1  0
 21 41  1  0
 22 42  1  0
 23 43  1  6
 24 44  1  0
 24 45  1  0
 25 46  1  1
 26 47  1  0
 27 48  1  0
 30 49  1  0
M  ISO  8  32  14  35  14  36  14  37  14  38  14  39  14  40  14  41  14
M  ISO  8  42  14  43  13  44  13  45  13  46  13  47  14  48  14  49  14
M  END
>  <minimizedAffinity>  (1) 
-6.10803986

>  <minimizedRMSD>  (1) 
1.27296519

$$$$
