
     RDKit          3D

 28 30  0  0  0  0  0  0  0  0999 V2000
   43.3590   22.6380   33.8810 C   0  0  0  0  0  0  0  0  0  0  0  0
   43.2940   23.9440   34.4160 C   0  0  0  0  0  0  0  0  0  0  0  0
   44.9620   24.6500   33.9610 S   0  0  0  0  0  0  0  0  0  0  0  0
   45.4230   23.0060   33.1220 C   0  0  0  0  0  0  0  0  0  0  0  0
   44.5010   22.4470   33.3080 N   0  0  0  0  0  0  0  0  0  0  0  0
   46.6710   22.6920   32.4540 N   0  0  0  0  0  0  0  0  0  0  0  0
   47.5760   22.0820   33.2420 C   0  0  0  0  0  0  0  0  0  0  0  0
   48.7050   21.8490   32.4710 C   0  0  0  0  0  0  0  0  0  0  0  0
   48.4210   22.3300   31.2540 N   0  0  0  0  0  0  0  0  0  0  0  0
   47.1790   22.8490   31.2290 C   0  0  0  0  0  0  0  0  0  0  0  0
   46.1850   23.6360   29.9720 S   0  0  0  0  0  0  0  0  0  0  0  0
   41.9270   21.5830   34.0970 S   0  0  0  0  0  0  0  0  0  0  0  0
   40.4670   22.3840   37.7090 C   0  0  0  0  0  0  0  0  0  0  0  0
   39.3050   23.1370   37.4450 C   0  0  0  0  0  0  0  0  0  0  0  0
   38.9990   23.3830   36.1130 C   0  0  0  0  0  0  0  0  0  0  0  0
   39.8020   22.9050   35.1190 N   0  0  0  0  0  0  0  0  0  0  0  0
   40.9270   22.1730   35.4410 C   0  0  0  0  0  0  0  0  0  0  0  0
   41.2290   21.9320   36.7230 N   0  0  0  0  0  0  0  0  0  0  0  0
   38.4180   23.6660   38.5190 C   0  0  0  0  0  0  0  0  0  0  0  0
   39.2040   23.8650   39.6310 F   0  0  0  0  0  0  0  0  0  0  0  0
   37.4000   22.8310   38.8150 F   0  0  0  0  0  0  0  0  0  0  0  0
   37.9810   24.9620   38.1820 F   0  0  0  0  0  0  0  0  0  0  0  0
   42.4689   24.4240   34.9627 H   0  0  0  0  0  0  0  0  0  0  0  0
   47.4444   21.8173   34.3015 H   0  0  0  0  0  0  0  0  0  0  0  0
   49.6406   21.3683   32.7928 H   0  0  0  0  0  0  0  0  0  0  0  0
   45.2178   24.4018   30.5677 H   0  0  0  0  0  0  0  0  0  0  0  0
   40.7462   22.1678   38.7508 H   0  0  0  0  0  0  0  0  0  0  0  0
   38.1028   23.9674   35.8575 H   0  0  0  0  0  0  0  0  0  0  0  0
  1 12  1  0
  1  2  2  0
  3  2  1  0
  4  5  2  0
  4  3  1  0
  5  1  1  0
  6  4  1  0
  6  7  1  0
  8  7  2  0
  9  8  1  0
 10  9  2  0
 10  6  1  0
 11 10  1  0
 12 17  1  0
 14 13  2  0
 14 19  1  0
 15 14  1  0
 16 17  1  0
 16 15  2  0
 17 18  2  0
 18 13  1  0
 19 21  1  0
 19 20  1  0
 22 19  1  0
  2 23  1  0
  7 24  1  0
  8 25  1  0
 11 26  1  0
 13 27  1  0
 15 28  1  0
M  ISO  6  23  14  24  14  25  14  26  11  27  14  28  14
M  END
>  <minimizedAffinity>  (1) 
-3.8121655

>  <minimizedRMSD>  (1) 
0.00981362443

$$$$
