
     RDKit          3D

 42 46  0  0  1  0  0  0  0  0999 V2000
   37.0260   27.8580   34.3680 N   0  0  0  0  0  0  0  0  0  0  0  0
   36.0450   28.7430   34.7000 C   0  0  0  0  0  0  0  0  0  0  0  0
   35.5680   29.3120   33.6090 N   0  0  0  0  0  0  0  0  0  0  0  0
   36.2410   28.7940   32.5470 C   0  0  0  0  0  0  0  0  0  0  0  0
   36.1820   28.9950   31.2110 C   0  0  0  0  0  0  0  0  0  0  0  0
   37.0120   28.2990   30.4320 N   0  0  0  0  0  0  0  0  0  0  0  0
   37.9060   27.4070   30.8990 C   0  0  0  0  0  0  0  0  0  0  0  0
   37.9580   27.2120   32.2300 N   0  0  0  0  0  0  0  0  0  0  0  0
   37.1340   27.8970   33.0510 C   0  0  0  0  0  0  0  0  0  0  0  0
   35.2420   29.9430   30.7100 N   0  0  0  0  0  0  0  0  0  0  0  0
   38.7930   26.6670   30.0070 C   0  0  0  0  0  0  0  0  0  0  0  0
   39.1710   25.3780   30.3610 C   0  0  0  0  0  0  0  0  0  0  0  0
   40.0170   24.6370   29.5350 C   0  0  0  0  0  0  0  0  0  0  0  0
   40.4280   25.2830   28.3760 C   0  0  0  0  0  0  0  0  0  0  0  0
   40.0380   26.5740   28.0440 C   0  0  0  0  0  0  0  0  0  0  0  0
   39.2200   27.2350   28.8820 N   0  0  0  0  0  0  0  0  0  0  0  0
   40.4840   27.2310   26.8210 C   0  0  0  0  0  0  0  0  0  0  0  0
   41.4950   26.8410   26.1850 O   0  0  0  0  0  0  0  0  0  0  0  0
   39.8150   28.3220   26.2980 O   0  0  0  0  0  0  0  0  0  0  0  0
   38.3380   25.8430   35.1310 C   0  0  2  0  0  0  0  0  0  0  0  0
   39.2170   27.1480   35.3170 C   0  0  0  0  0  0  0  0  0  0  0  0
   37.7190   27.1020   35.3550 C   0  0  1  0  0  0  0  0  0  0  0  0
   38.0860   23.9010   38.3380 C   0  0  0  0  0  0  0  0  0  0  0  0
   37.8420   24.8610   37.3610 C   0  0  0  0  0  0  0  0  0  0  0  0
   38.5750   24.8350   36.1660 C   0  0  0  0  0  0  0  0  0  0  0  0
   39.4950   23.8670   36.0180 N   0  0  0  0  0  0  0  0  0  0  0  0
   39.7150   22.9440   36.9820 C   0  0  0  0  0  0  0  0  0  0  0  0
   39.0180   22.9560   38.1370 N   0  0  0  0  0  0  0  0  0  0  0  0
   35.7019   28.9520   35.7240 H   0  0  0  0  0  0  0  0  0  0  0  0
   35.1754   30.1162   29.6969 H   0  0  0  0  0  0  0  0  0  0  0  0
   34.6296   30.4546   31.3613 H   0  0  0  0  0  0  0  0  0  0  0  0
   38.8008   24.9384   31.2989 H   0  0  0  0  0  0  0  0  0  0  0  0
   40.3358   23.6141   29.7839 H   0  0  0  0  0  0  0  0  0  0  0  0
   41.0957   24.7453   27.6867 H   0  0  0  0  0  0  0  0  0  0  0  0
   40.1393   28.7493   25.4659 H   0  0  0  0  0  0  0  0  0  0  0  0
   38.1240   25.0652   34.3832 H   0  0  0  0  0  0  0  0  0  0  0  0
   39.7997   27.3091   36.2360 H   0  0  0  0  0  0  0  0  0  0  0  0
   39.9940   27.6850   34.7531 H   0  0  0  0  0  0  0  0  0  0  0  0
   36.9356   27.3700   36.0792 H   0  0  0  0  0  0  0  0  0  0  0  0
   37.5139   23.9164   39.2774 H   0  0  0  0  0  0  0  0  0  0  0  0
   37.0786   25.6358   37.5251 H   0  0  0  0  0  0  0  0  0  0  0  0
   40.4777   22.1679   36.8209 H   0  0  0  0  0  0  0  0  0  0  0  0
  1  2  1  0
  1 22  1  0
  3  2  2  0
  4  9  2  0
  4  3  1  0
  5  4  1  0
  6  7  1  0
  6  5  2  0
  7  8  2  0
  8  9  1  0
  9  1  1  0
 10  5  1  0
 11 12  2  0
 11  7  1  0
 13 12  1  0
 14 13  2  0
 15 14  1  0
 15 16  2  0
 16 11  1  0
 17 15  1  0
 18 17  2  0
 19 17  1  0
 20 21  1  0
 20 22  1  0
 20 25  1  0
 21 22  1  0
 24 23  2  0
 25 24  1  0
 26 25  2  0
 26 27  1  0
 27 28  2  0
 28 23  1  0
  2 29  1  0
 10 30  1  0
 10 31  1  0
 12 32  1  0
 13 33  1  0
 14 34  1  0
 19 35  1  0
 20 36  1  6
 21 37  1  0
 21 38  1  0
 22 39  1  1
 23 40  1  0
 24 41  1  0
 27 42  1  0
M  ISO  8  29  14  32  14  33  14  34  14  35   3  36  13  37  13  38  13
M  ISO  4  39  13  40  14  41  14  42  14
M  END
>  <minimizedAffinity>  (1) 
-5.80353785

>  <minimizedRMSD>  (1) 
0.914152205

$$$$
