
     RDKit          3D

 46 51  0  0  1  0  0  0  0  0999 V2000
   37.0300   27.8220   34.3780 N   0  0  0  0  0  0  0  0  0  0  0  0
   36.1080   28.7600   34.6950 C   0  0  0  0  0  0  0  0  0  0  0  0
   35.6470   29.3080   33.5850 N   0  0  0  0  0  0  0  0  0  0  0  0
   36.2760   28.7180   32.5350 C   0  0  0  0  0  0  0  0  0  0  0  0
   36.2130   28.8670   31.1940 C   0  0  0  0  0  0  0  0  0  0  0  0
   36.9990   28.0980   30.4340 N   0  0  0  0  0  0  0  0  0  0  0  0
   37.8440   27.1880   30.9280 C   0  0  0  0  0  0  0  0  0  0  0  0
   37.9070   27.0400   32.2670 N   0  0  0  0  0  0  0  0  0  0  0  0
   37.1310   27.7970   33.0680 C   0  0  0  0  0  0  0  0  0  0  0  0
   35.3110   29.8430   30.6710 N   0  0  0  0  0  0  0  0  0  0  0  0
   38.6890   26.3630   30.0620 C   0  0  0  0  0  0  0  0  0  0  0  0
   38.7470   25.0000   30.2770 C   0  0  0  0  0  0  0  0  0  0  0  0
   39.5430   24.1900   29.4700 C   0  0  0  0  0  0  0  0  0  0  0  0
   40.2400   24.8470   28.4740 C   0  0  0  0  0  0  0  0  0  0  0  0
   40.1740   26.2160   28.2670 C   0  0  0  0  0  0  0  0  0  0  0  0
   39.3900   26.9450   29.0770 N   0  0  0  0  0  0  0  0  0  0  0  0
   40.9330   26.8560   27.1980 C   0  0  0  0  0  0  0  0  0  0  0  0
   40.4020   27.5180   26.1140 C   0  0  0  0  0  0  0  0  0  0  0  0
   41.4170   27.9680   25.3550 N   0  0  0  0  0  0  0  0  0  0  0  0
   42.5390   27.5620   26.0080 C   0  0  0  0  0  0  0  0  0  0  0  0
   42.2740   26.8770   27.1410 N   0  0  0  0  0  0  0  0  0  0  0  0
   38.3570   25.8270   35.1910 C   0  0  2  0  0  0  0  0  0  0  0  0
   39.1980   27.1470   35.4220 C   0  0  0  0  0  0  0  0  0  0  0  0
   37.6950   27.0700   35.3930 C   0  0  1  0  0  0  0  0  0  0  0  0
   38.0420   23.9070   38.4090 C   0  0  0  0  0  0  0  0  0  0  0  0
   37.8260   24.8630   37.4270 C   0  0  0  0  0  0  0  0  0  0  0  0
   38.5680   24.8140   36.2380 C   0  0  0  0  0  0  0  0  0  0  0  0
   39.4710   23.8280   36.0940 N   0  0  0  0  0  0  0  0  0  0  0  0
   39.6610   22.9070   37.0680 C   0  0  0  0  0  0  0  0  0  0  0  0
   38.9620   22.9380   38.2120 N   0  0  0  0  0  0  0  0  0  0  0  0
   35.7924   29.0243   35.7151 H   0  0  0  0  0  0  0  0  0  0  0  0
   35.2373   29.9831   29.6532 H   0  0  0  0  0  0  0  0  0  0  0  0
   34.7342   30.4068   31.3116 H   0  0  0  0  0  0  0  0  0  0  0  0
   38.1602   24.5505   31.0916 H   0  0  0  0  0  0  0  0  0  0  0  0
   39.6119   23.1019   29.6157 H   0  0  0  0  0  0  0  0  0  0  0  0
   40.8824   24.2510   27.8090 H   0  0  0  0  0  0  0  0  0  0  0  0
   39.3309   27.6554   25.9045 H   0  0  0  0  0  0  0  0  0  0  0  0
   43.5579   27.7704   25.6497 H   0  0  0  0  0  0  0  0  0  0  0  0
   42.9445   26.4663   27.8064 H   0  0  0  0  0  0  0  0  0  0  0  0
   38.1972   25.0496   34.4293 H   0  0  0  0  0  0  0  0  0  0  0  0
   39.7358   27.3148   36.3668 H   0  0  0  0  0  0  0  0  0  0  0  0
   39.9879   27.7031   34.8958 H   0  0  0  0  0  0  0  0  0  0  0  0
   36.8718   27.3140   36.0807 H   0  0  0  0  0  0  0  0  0  0  0  0
   37.4656   23.9381   39.3454 H   0  0  0  0  0  0  0  0  0  0  0  0
   37.0775   25.6544   37.5801 H   0  0  0  0  0  0  0  0  0  0  0  0
   40.4075   22.1133   36.9172 H   0  0  0  0  0  0  0  0  0  0  0  0
  1  2  1  0
  1 24  1  0
  3  2  2  0
  4  9  2  0
  4  3  1  0
  5  4  1  0
  6  7  1  0
  6  5  2  0
  7  8  2  0
  8  9  1  0
  9  1  1  0
 10  5  1  0
 11 12  2  0
 11  7  1  0
 13 12  1  0
 14 13  2  0
 15 14  1  0
 15 16  2  0
 16 11  1  0
 17 15  1  0
 18 17  2  0
 19 20  2  0
 19 18  1  0
 20 21  1  0
 21 17  1  0
 22 24  1  0
 22 23  1  0
 22 27  1  0
 24 23  1  0
 26 25  2  0
 27 26  1  0
 28 27  2  0
 28 29  1  0
 29 30  2  0
 30 25  1  0
  2 31  1  0
 10 32  1  0
 10 33  1  0
 12 34  1  0
 13 35  1  0
 14 36  1  0
 18 37  1  0
 20 38  1  0
 21 39  1  0
 22 40  1  6
 23 41  1  0
 23 42  1  0
 24 43  1  1
 25 44  1  0
 26 45  1  0
 29 46  1  0
M  ISO  8  31  14  34  14  35  14  36  14  37  14  38  14  39   9  40  13
M  ISO  6  41  13  42  13  43  13  44  14  45  14  46  14
M  END
>  <minimizedAffinity>  (1) 
-5.79527473

>  <minimizedRMSD>  (1) 
0.58369267

$$$$
