
     RDKit          3D

 26 27  0  0  1  0  0  0  0  0999 V2000
   38.6700   26.0120   35.0030 C   0  0  2  0  0  0  0  0  0  0  0  0
   39.5740   23.0540   36.9730 C   0  0  0  0  0  0  0  0  0  0  0  0
   38.8040   23.1930   38.1710 C   0  0  0  0  0  0  0  0  0  0  0  0
   37.9690   24.3280   38.2820 C   0  0  0  0  0  0  0  0  0  0  0  0
   37.9690   25.2010   37.2310 N   0  0  0  0  0  0  0  0  0  0  0  0
   38.7110   25.0330   36.1170 C   0  0  0  0  0  0  0  0  0  0  0  0
   39.4980   23.9720   36.0030 N   0  0  0  0  0  0  0  0  0  0  0  0
   40.0130   26.7030   34.9250 C   0  0  0  0  0  0  0  0  0  0  0  0
   37.6220   27.0860   35.2040 C   0  0  0  0  0  0  0  0  0  0  0  0
   36.8800   27.4020   33.9560 C   0  0  0  0  0  0  0  0  0  0  0  0
   36.1080   28.4980   33.6290 C   0  0  0  0  0  0  0  0  0  0  0  0
   35.6270   28.3450   32.3670 N   0  0  0  0  0  0  0  0  0  0  0  0
   36.0950   27.1580   31.9020 C   0  0  0  0  0  0  0  0  0  0  0  0
   36.8560   26.5950   32.8780 N   0  0  0  0  0  0  0  0  0  0  0  0
   38.4240   25.4546   34.0871 H   0  0  0  0  0  0  0  0  0  0  0  0
   40.2350   22.1836   36.8484 H   0  0  0  0  0  0  0  0  0  0  0  0
   38.8598   22.4447   38.9753 H   0  0  0  0  0  0  0  0  0  0  0  0
   37.3479   24.5005   39.1733 H   0  0  0  0  0  0  0  0  0  0  0  0
   40.3862   26.8950   35.9418 H   0  0  0  0  0  0  0  0  0  0  0  0
   40.7257   26.0597   34.3882 H   0  0  0  0  0  0  0  0  0  0  0  0
   39.9039   27.6569   34.3882 H   0  0  0  0  0  0  0  0  0  0  0  0
   36.9043   26.7401   35.9625 H   0  0  0  0  0  0  0  0  0  0  0  0
   38.1409   28.0017   35.5237 H   0  0  0  0  0  0  0  0  0  0  0  0
   35.9129   29.3588   34.2854 H   0  0  0  0  0  0  0  0  0  0  0  0
   35.8937   26.7276   30.9099 H   0  0  0  0  0  0  0  0  0  0  0  0
   37.3405   25.6891   32.8042 H   0  0  0  0  0  0  0  0  0  0  0  0
  1  9  1  0
  1  6  1  0
  2  3  2  0
  3  4  1  0
  5  4  2  0
  6  5  1  0
  7  6  2  0
  7  2  1  0
  8  1  1  0
 10  9  1  0
 11 10  2  0
 12 11  1  0
 13 12  2  0
 13 14  1  0
 14 10  1  0
  1 15  1  6
  2 16  1  0
  3 17  1  0
  4 18  1  0
  8 19  1  0
  8 20  1  0
  8 21  1  0
  9 22  1  0
  9 23  1  0
 11 24  1  0
 13 25  1  0
 14 26  1  0
M  ISO  8  15   8  16  14  17  14  18  14  19   8  20   8  21   8  22   8
M  ISO  4  23   8  24  14  25  14  26   9
M  END
>  <minimizedAffinity>  (1) 
-4.00421715

>  <minimizedRMSD>  (1) 
2.88528061

$$$$
