
     RDKit          3D

 30 32  0  0  0  0  0  0  0  0999 V2000
   43.3640   22.6550   33.8900 C   0  0  0  0  0  0  0  0  0  0  0  0
   43.2980   23.9490   34.4180 C   0  0  0  0  0  0  0  0  0  0  0  0
   44.9660   24.6560   33.9600 S   0  0  0  0  0  0  0  0  0  0  0  0
   45.4260   23.0080   33.1210 C   0  0  0  0  0  0  0  0  0  0  0  0
   44.5020   22.4410   33.3080 N   0  0  0  0  0  0  0  0  0  0  0  0
   46.6770   22.6910   32.4500 N   0  0  0  0  0  0  0  0  0  0  0  0
   47.5900   22.0990   33.2390 C   0  0  0  0  0  0  0  0  0  0  0  0
   48.7080   21.8690   32.4550 C   0  0  0  0  0  0  0  0  0  0  0  0
   48.4080   22.3390   31.2250 N   0  0  0  0  0  0  0  0  0  0  0  0
   47.1590   22.8480   31.2120 C   0  0  0  0  0  0  0  0  0  0  0  0
   46.3130   23.4820   30.1840 C   0  0  0  0  0  0  0  0  0  0  0  0
   41.9340   21.5830   34.1030 S   0  0  0  0  0  0  0  0  0  0  0  0
   40.4690   22.3830   37.7100 C   0  0  0  0  0  0  0  0  0  0  0  0
   39.3040   23.1380   37.4360 C   0  0  0  0  0  0  0  0  0  0  0  0
   38.9970   23.3840   36.1100 C   0  0  0  0  0  0  0  0  0  0  0  0
   39.8020   22.9070   35.1110 N   0  0  0  0  0  0  0  0  0  0  0  0
   40.9300   22.1760   35.4310 C   0  0  0  0  0  0  0  0  0  0  0  0
   41.2330   21.9320   36.7130 N   0  0  0  0  0  0  0  0  0  0  0  0
   38.4190   23.6630   38.5130 C   0  0  0  0  0  0  0  0  0  0  0  0
   39.2090   23.8630   39.6280 F   0  0  0  0  0  0  0  0  0  0  0  0
   37.3960   22.8320   38.8120 F   0  0  0  0  0  0  0  0  0  0  0  0
   37.9880   24.9660   38.1810 F   0  0  0  0  0  0  0  0  0  0  0  0
   42.4728   24.4289   34.9646 H   0  0  0  0  0  0  0  0  0  0  0  0
   47.4718   21.8459   34.3029 H   0  0  0  0  0  0  0  0  0  0  0  0
   49.6507   21.3982   32.7706 H   0  0  0  0  0  0  0  0  0  0  0  0
   45.5241   24.0732   30.6719 H   0  0  0  0  0  0  0  0  0  0  0  0
   46.9305   24.1416   29.5566 H   0  0  0  0  0  0  0  0  0  0  0  0
   45.8533   22.7041   29.5566 H   0  0  0  0  0  0  0  0  0  0  0  0
   40.7469   22.1663   38.7520 H   0  0  0  0  0  0  0  0  0  0  0  0
   38.0994   23.9672   35.8564 H   0  0  0  0  0  0  0  0  0  0  0  0
  1 12  1  0
  1  2  2  0
  3  2  1  0
  4  5  2  0
  4  3  1  0
  5  1  1  0
  6  4  1  0
  6  7  1  0
  8  7  2  0
  9  8  1  0
 10  9  2  0
 10  6  1  0
 11 10  1  0
 12 17  1  0
 14 13  2  0
 14 19  1  0
 15 14  1  0
 16 17  1  0
 16 15  2  0
 17 18  2  0
 18 13  1  0
 19 21  1  0
 19 20  1  0
 22 19  1  0
  2 23  1  0
  7 24  1  0
  8 25  1  0
 11 26  1  0
 11 27  1  0
 11 28  1  0
 13 29  1  0
 15 30  1  0
M  ISO  8  23  14  24  14  25  14  26   8  27   8  28   8  29  14  30  14
M  END
>  <minimizedAffinity>  (1) 
-3.80874228

>  <minimizedRMSD>  (1) 
0.0139981145

$$$$
