
     RDKit          3D

 41 45  0  0  1  0  0  0  0  0999 V2000
   37.0960   27.7350   34.3650 N   0  0  0  0  0  0  0  0  0  0  0  0
   36.2400   28.7480   34.6220 C   0  0  0  0  0  0  0  0  0  0  0  0
   35.8090   29.2580   33.4800 N   0  0  0  0  0  0  0  0  0  0  0  0
   36.3950   28.5630   32.4660 C   0  0  0  0  0  0  0  0  0  0  0  0
   36.3380   28.6310   31.1200 C   0  0  0  0  0  0  0  0  0  0  0  0
   37.0670   27.7680   30.4110 N   0  0  0  0  0  0  0  0  0  0  0  0
   37.8540   26.8380   30.9590 C   0  0  0  0  0  0  0  0  0  0  0  0
   37.9070   26.7760   32.3070 N   0  0  0  0  0  0  0  0  0  0  0  0
   37.1920   27.6210   33.0550 C   0  0  0  0  0  0  0  0  0  0  0  0
   35.4900   29.6270   30.5390 N   0  0  0  0  0  0  0  0  0  0  0  0
   38.6440   25.9070   30.1460 C   0  0  0  0  0  0  0  0  0  0  0  0
   38.4510   24.5580   30.2880 C   0  0  0  0  0  0  0  0  0  0  0  0
   39.1930   23.6530   29.5250 C   0  0  0  0  0  0  0  0  0  0  0  0
   40.0940   24.2100   28.6550 C   0  0  0  0  0  0  0  0  0  0  0  0
   40.2790   25.5590   28.5210 C   0  0  0  0  0  0  0  0  0  0  0  0
   39.5360   26.3840   29.2810 N   0  0  0  0  0  0  0  0  0  0  0  0
   41.2020   26.1800   27.6330 N   0  0  0  0  0  0  0  0  0  0  0  0
   38.4280   25.7860   35.2690 C   0  0  2  0  0  0  0  0  0  0  0  0
   39.1880   27.1350   35.5810 C   0  0  0  0  0  0  0  0  0  0  0  0
   37.7110   27.0050   35.4250 C   0  0  1  0  0  0  0  0  0  0  0  0
   37.9740   23.8570   38.4670 C   0  0  0  0  0  0  0  0  0  0  0  0
   37.7990   24.8160   37.4770 C   0  0  0  0  0  0  0  0  0  0  0  0
   38.5900   24.7660   36.3210 C   0  0  0  0  0  0  0  0  0  0  0  0
   39.4990   23.7820   36.2120 N   0  0  0  0  0  0  0  0  0  0  0  0
   39.6470   22.8630   37.1940 C   0  0  0  0  0  0  0  0  0  0  0  0
   38.9010   22.8930   38.3060 N   0  0  0  0  0  0  0  0  0  0  0  0
   35.9472   29.0946   35.6241 H   0  0  0  0  0  0  0  0  0  0  0  0
   35.4200   29.7100   29.5147 H   0  0  0  0  0  0  0  0  0  0  0  0
   34.9498   30.2607   31.1452 H   0  0  0  0  0  0  0  0  0  0  0  0
   37.7071   24.1851   31.0074 H   0  0  0  0  0  0  0  0  0  0  0  0
   39.0627   22.5646   29.6164 H   0  0  0  0  0  0  0  0  0  0  0  0
   40.7005   23.5367   28.0315 H   0  0  0  0  0  0  0  0  0  0  0  0
   41.2732   27.2070   27.5997 H   0  0  0  0  0  0  0  0  0  0  0  0
   41.7987   25.6024   27.0238 H   0  0  0  0  0  0  0  0  0  0  0  0
   38.3617   25.0103   34.4919 H   0  0  0  0  0  0  0  0  0  0  0  0
   39.6362   27.3130   36.5696 H   0  0  0  0  0  0  0  0  0  0  0  0
   39.9966   27.7272   35.1277 H   0  0  0  0  0  0  0  0  0  0  0  0
   36.8285   27.2189   36.0458 H   0  0  0  0  0  0  0  0  0  0  0  0
   37.3583   23.8848   39.3782 H   0  0  0  0  0  0  0  0  0  0  0  0
   37.0457   25.6082   37.5995 H   0  0  0  0  0  0  0  0  0  0  0  0
   40.4001   22.0700   37.0759 H   0  0  0  0  0  0  0  0  0  0  0  0
  1  2  1  0
  1 20  1  0
  3  2  2  0
  4  9  2  0
  4  3  1  0
  5  4  1  0
  6  7  1  0
  6  5  2  0
  7  8  2  0
  8  9  1  0
  9  1  1  0
 10  5  1  0
 11 12  2  0
 11  7  1  0
 13 12  1  0
 14 13  2  0
 15 14  1  0
 15 16  2  0
 16 11  1  0
 17 15  1  0
 18 20  1  0
 18 19  1  0
 18 23  1  0
 20 19  1  0
 22 21  2  0
 23 22  1  0
 24 23  2  0
 24 25  1  0
 25 26  2  0
 26 21  1  0
  2 27  1  0
 10 28  1  0
 10 29  1  0
 12 30  1  0
 13 31  1  0
 14 32  1  0
 17 33  1  0
 17 34  1  0
 18 35  1  6
 19 36  1  0
 19 37  1  0
 20 38  1  1
 21 39  1  0
 22 40  1  0
 25 41  1  0
M  ISO  8  27  14  30  14  31  14  32  14  35  13  36  13  37  13  38  13
M  ISO  3  39  14  40  14  41  14
M  END
>  <minimizedAffinity>  (1) 
-5.76770973

>  <minimizedRMSD>  (1) 
0.0247703288

$$$$
