
     RDKit          3D

 42 46  0  0  1  0  0  0  0  0999 V2000
   37.0970   27.7340   34.3630 N   0  0  0  0  0  0  0  0  0  0  0  0
   36.2470   28.7540   34.6190 C   0  0  0  0  0  0  0  0  0  0  0  0
   35.8160   29.2630   33.4770 N   0  0  0  0  0  0  0  0  0  0  0  0
   36.3900   28.5700   32.4670 C   0  0  0  0  0  0  0  0  0  0  0  0
   36.3350   28.6280   31.1110 C   0  0  0  0  0  0  0  0  0  0  0  0
   37.0610   27.7550   30.4040 N   0  0  0  0  0  0  0  0  0  0  0  0
   37.8490   26.8150   30.9580 C   0  0  0  0  0  0  0  0  0  0  0  0
   37.9030   26.7580   32.3060 N   0  0  0  0  0  0  0  0  0  0  0  0
   37.1830   27.6240   33.0520 C   0  0  0  0  0  0  0  0  0  0  0  0
   35.4950   29.6270   30.5370 N   0  0  0  0  0  0  0  0  0  0  0  0
   38.6230   25.8850   30.1490 C   0  0  0  0  0  0  0  0  0  0  0  0
   38.4280   24.5380   30.3060 C   0  0  0  0  0  0  0  0  0  0  0  0
   39.1550   23.6230   29.5470 C   0  0  0  0  0  0  0  0  0  0  0  0
   40.0590   24.1750   28.6510 C   0  0  0  0  0  0  0  0  0  0  0  0
   40.2470   25.5380   28.5010 C   0  0  0  0  0  0  0  0  0  0  0  0
   39.5120   26.3590   29.2660 N   0  0  0  0  0  0  0  0  0  0  0  0
   41.2190   26.1090   27.5360 C   0  0  0  0  0  0  0  0  0  0  0  0
   38.4320   25.7860   35.2650 C   0  0  2  0  0  0  0  0  0  0  0  0
   39.1920   27.1330   35.5790 C   0  0  0  0  0  0  0  0  0  0  0  0
   37.7120   27.0040   35.4230 C   0  0  1  0  0  0  0  0  0  0  0  0
   37.9670   23.8590   38.4660 C   0  0  0  0  0  0  0  0  0  0  0  0
   37.8040   24.8130   37.4720 C   0  0  0  0  0  0  0  0  0  0  0  0
   38.5920   24.7720   36.3160 C   0  0  0  0  0  0  0  0  0  0  0  0
   39.4970   23.7840   36.2190 N   0  0  0  0  0  0  0  0  0  0  0  0
   39.6460   22.8610   37.1950 C   0  0  0  0  0  0  0  0  0  0  0  0
   38.8960   22.8900   38.3060 N   0  0  0  0  0  0  0  0  0  0  0  0
   35.9590   29.1055   35.6207 H   0  0  0  0  0  0  0  0  0  0  0  0
   35.4200   29.7107   29.5132 H   0  0  0  0  0  0  0  0  0  0  0  0
   34.9632   30.2649   31.1462 H   0  0  0  0  0  0  0  0  0  0  0  0
   37.6910   24.1756   31.0377 H   0  0  0  0  0  0  0  0  0  0  0  0
   39.0211   22.5362   29.6513 H   0  0  0  0  0  0  0  0  0  0  0  0
   40.6573   23.4942   28.0276 H   0  0  0  0  0  0  0  0  0  0  0  0
   42.0407   26.5917   28.0854 H   0  0  0  0  0  0  0  0  0  0  0  0
   41.6233   25.3049   26.9036 H   0  0  0  0  0  0  0  0  0  0  0  0
   40.7135   26.8537   26.9036 H   0  0  0  0  0  0  0  0  0  0  0  0
   38.3676   25.0120   34.4861 H   0  0  0  0  0  0  0  0  0  0  0  0
   39.6407   27.3090   36.5678 H   0  0  0  0  0  0  0  0  0  0  0  0
   40.0008   27.7256   35.1265 H   0  0  0  0  0  0  0  0  0  0  0  0
   36.8295   27.2172   36.0440 H   0  0  0  0  0  0  0  0  0  0  0  0
   37.3472   23.8907   39.3742 H   0  0  0  0  0  0  0  0  0  0  0  0
   37.0513   25.6060   37.5931 H   0  0  0  0  0  0  0  0  0  0  0  0
   40.3993   22.0684   37.0752 H   0  0  0  0  0  0  0  0  0  0  0  0
  1  2  1  0
  1 20  1  0
  3  2  2  0
  4  9  2  0
  4  3  1  0
  5  4  1  0
  6  7  1  0
  6  5  2  0
  7  8  2  0
  8  9  1  0
  9  1  1  0
 10  5  1  0
 11 12  2  0
 11  7  1  0
 13 12  1  0
 14 13  2  0
 15 14  1  0
 15 16  2  0
 16 11  1  0
 17 15  1  0
 18 20  1  0
 18 19  1  0
 18 23  1  0
 20 19  1  0
 22 21  2  0
 23 22  1  0
 24 23  2  0
 24 25  1  0
 25 26  2  0
 26 21  1  0
  2 27  1  0
 10 28  1  0
 10 29  1  0
 12 30  1  0
 13 31  1  0
 14 32  1  0
 17 33  1  0
 17 34  1  0
 17 35  1  0
 18 36  1  6
 19 37  1  0
 19 38  1  0
 20 39  1  1
 21 40  1  0
 22 41  1  0
 25 42  1  0
M  ISO  8  27  14  30  14  31  14  32  14  33   8  34   8  35   8  36  13
M  ISO  6  37  13  38  13  39  13  40  14  41  14  42  14
M  END
>  <minimizedAffinity>  (1) 
-5.76766968

>  <minimizedRMSD>  (1) 
0.0128310379

$$$$
