
     RDKit          3D

 40 44  0  0  1  0  0  0  0  0999 V2000
   37.1010   27.7410   34.3760 N   0  0  0  0  0  0  0  0  0  0  0  0
   36.2420   28.7600   34.6250 C   0  0  0  0  0  0  0  0  0  0  0  0
   35.8090   29.2620   33.4800 N   0  0  0  0  0  0  0  0  0  0  0  0
   36.3880   28.5720   32.4730 C   0  0  0  0  0  0  0  0  0  0  0  0
   36.3280   28.6360   31.1250 C   0  0  0  0  0  0  0  0  0  0  0  0
   37.0620   27.7670   30.4150 N   0  0  0  0  0  0  0  0  0  0  0  0
   37.8530   26.8370   30.9680 C   0  0  0  0  0  0  0  0  0  0  0  0
   37.9110   26.7760   32.3140 N   0  0  0  0  0  0  0  0  0  0  0  0
   37.1880   27.6310   33.0630 C   0  0  0  0  0  0  0  0  0  0  0  0
   35.4800   29.6210   30.5440 N   0  0  0  0  0  0  0  0  0  0  0  0
   38.6400   25.9090   30.1550 C   0  0  0  0  0  0  0  0  0  0  0  0
   38.4360   24.5620   30.2980 C   0  0  0  0  0  0  0  0  0  0  0  0
   39.1760   23.6560   29.5310 C   0  0  0  0  0  0  0  0  0  0  0  0
   40.0890   24.2050   28.6570 C   0  0  0  0  0  0  0  0  0  0  0  0
   40.2790   25.5610   28.5280 C   0  0  0  0  0  0  0  0  0  0  0  0
   39.5420   26.3870   29.2880 N   0  0  0  0  0  0  0  0  0  0  0  0
   41.1790   26.1720   27.6670 O   0  0  0  0  0  0  0  0  0  0  0  0
   38.4250   25.7870   35.2690 C   0  0  2  0  0  0  0  0  0  0  0  0
   39.1930   27.1350   35.5860 C   0  0  0  0  0  0  0  0  0  0  0  0
   37.7180   27.0090   35.4350 C   0  0  1  0  0  0  0  0  0  0  0  0
   37.9700   23.8570   38.4680 C   0  0  0  0  0  0  0  0  0  0  0  0
   37.8010   24.8110   37.4790 C   0  0  0  0  0  0  0  0  0  0  0  0
   38.5870   24.7690   36.3210 C   0  0  0  0  0  0  0  0  0  0  0  0
   39.4960   23.7840   36.2100 N   0  0  0  0  0  0  0  0  0  0  0  0
   39.6420   22.8640   37.1910 C   0  0  0  0  0  0  0  0  0  0  0  0
   38.8930   22.8930   38.3090 N   0  0  0  0  0  0  0  0  0  0  0  0
   35.9502   29.1146   35.6245 H   0  0  0  0  0  0  0  0  0  0  0  0
   35.4086   29.6996   29.5195 H   0  0  0  0  0  0  0  0  0  0  0  0
   34.9378   30.2550   31.1482 H   0  0  0  0  0  0  0  0  0  0  0  0
   37.6896   24.1925   31.0166 H   0  0  0  0  0  0  0  0  0  0  0  0
   39.0372   22.5685   29.6203 H   0  0  0  0  0  0  0  0  0  0  0  0
   40.6929   23.5283   28.0346 H   0  0  0  0  0  0  0  0  0  0  0  0
   41.2476   27.1593   27.6418 H   0  0  0  0  0  0  0  0  0  0  0  0
   38.3511   25.0153   34.4886 H   0  0  0  0  0  0  0  0  0  0  0  0
   39.6455   27.3066   36.5739 H   0  0  0  0  0  0  0  0  0  0  0  0
   40.0017   27.7273   35.1331 H   0  0  0  0  0  0  0  0  0  0  0  0
   36.8416   27.2265   36.0631 H   0  0  0  0  0  0  0  0  0  0  0  0
   37.3529   23.8878   39.3780 H   0  0  0  0  0  0  0  0  0  0  0  0
   37.0480   25.6032   37.6032 H   0  0  0  0  0  0  0  0  0  0  0  0
   40.3939   22.0700   37.0717 H   0  0  0  0  0  0  0  0  0  0  0  0
  1  2  1  0
  1 20  1  0
  3  2  2  0
  4  9  2  0
  4  3  1  0
  5  4  1  0
  6  7  1  0
  6  5  2  0
  7  8  2  0
  8  9  1  0
  9  1  1  0
 10  5  1  0
 11 12  2  0
 11  7  1  0
 13 12  1  0
 14 13  2  0
 15 14  1  0
 15 16  2  0
 16 11  1  0
 17 15  1  0
 18 20  1  0
 18 19  1  0
 18 23  1  0
 20 19  1  0
 22 21  2  0
 23 22  1  0
 24 23  2  0
 24 25  1  0
 25 26  2  0
 26 21  1  0
  2 27  1  0
 10 28  1  0
 10 29  1  0
 12 30  1  0
 13 31  1  0
 14 32  1  0
 17 33  1  0
 18 34  1  6
 19 35  1  0
 19 36  1  0
 20 37  1  1
 21 38  1  0
 22 39  1  0
 25 40  1  0
M  ISO  8  27  14  30  14  31  14  32  14  33   3  34  13  35  13  36  13
M  ISO  4  37  13  38  14  39  14  40  14
M  END
>  <minimizedAffinity>  (1) 
-5.76278448

>  <minimizedRMSD>  (1) 
0.0238929261

$$$$
