
     RDKit          3D

 45 49  0  0  1  0  0  0  0  0999 V2000
   37.0920   27.7570   34.3900 N   0  0  0  0  0  0  0  0  0  0  0  0
   36.2360   28.7740   34.6530 C   0  0  0  0  0  0  0  0  0  0  0  0
   35.7950   29.2880   33.5190 N   0  0  0  0  0  0  0  0  0  0  0  0
   36.3670   28.6020   32.5010 C   0  0  0  0  0  0  0  0  0  0  0  0
   36.2940   28.6790   31.1540 C   0  0  0  0  0  0  0  0  0  0  0  0
   37.0160   27.8180   30.4300 N   0  0  0  0  0  0  0  0  0  0  0  0
   37.8070   26.8840   30.9640 C   0  0  0  0  0  0  0  0  0  0  0  0
   37.8760   26.8100   32.3100 N   0  0  0  0  0  0  0  0  0  0  0  0
   37.1690   27.6540   33.0710 C   0  0  0  0  0  0  0  0  0  0  0  0
   35.4450   29.6850   30.5860 N   0  0  0  0  0  0  0  0  0  0  0  0
   38.5830   25.9610   30.1370 C   0  0  0  0  0  0  0  0  0  0  0  0
   38.4600   24.6090   30.3380 C   0  0  0  0  0  0  0  0  0  0  0  0
   39.1890   23.7070   29.5650 C   0  0  0  0  0  0  0  0  0  0  0  0
   40.0210   24.2740   28.6070 C   0  0  0  0  0  0  0  0  0  0  0  0
   40.1320   25.6290   28.4180 C   0  0  0  0  0  0  0  0  0  0  0  0
   39.4040   26.4520   29.1940 N   0  0  0  0  0  0  0  0  0  0  0  0
   41.0470   26.1570   27.3690 C   0  0  0  0  0  0  0  0  0  0  0  0
   40.2560   27.2110   26.6010 C   0  0  0  0  0  0  0  0  0  0  0  0
   38.3980   25.7810   35.2670 C   0  0  2  0  0  0  0  0  0  0  0  0
   39.2110   27.1150   35.5310 C   0  0  0  0  0  0  0  0  0  0  0  0
   37.7190   27.0170   35.4340 C   0  0  1  0  0  0  0  0  0  0  0  0
   37.9920   23.8690   38.4730 C   0  0  0  0  0  0  0  0  0  0  0  0
   37.8040   24.8220   37.4840 C   0  0  0  0  0  0  0  0  0  0  0  0
   38.5780   24.7750   36.3160 C   0  0  0  0  0  0  0  0  0  0  0  0
   39.4860   23.7900   36.2050 N   0  0  0  0  0  0  0  0  0  0  0  0
   39.6510   22.8730   37.1840 C   0  0  0  0  0  0  0  0  0  0  0  0
   38.9170   22.9050   38.3100 N   0  0  0  0  0  0  0  0  0  0  0  0
   35.9516   29.1190   35.6580 H   0  0  0  0  0  0  0  0  0  0  0  0
   35.3645   29.7733   29.5630 H   0  0  0  0  0  0  0  0  0  0  0  0
   34.9156   30.3194   31.2010 H   0  0  0  0  0  0  0  0  0  0  0  0
   37.7796   24.2337   31.1166 H   0  0  0  0  0  0  0  0  0  0  0  0
   39.1110   22.6186   29.7040 H   0  0  0  0  0  0  0  0  0  0  0  0
   40.6188   23.6053   27.9702 H   0  0  0  0  0  0  0  0  0  0  0  0
   41.9358   26.6105   27.8321 H   0  0  0  0  0  0  0  0  0  0  0  0
   41.3956   25.3546   26.7022 H   0  0  0  0  0  0  0  0  0  0  0  0
   39.7524   27.8820   27.3124 H   0  0  0  0  0  0  0  0  0  0  0  0
   40.9409   27.7947   25.9684 H   0  0  0  0  0  0  0  0  0  0  0  0
   39.5042   26.7164   25.9684 H   0  0  0  0  0  0  0  0  0  0  0  0
   38.2775   24.9984   34.5034 H   0  0  0  0  0  0  0  0  0  0  0  0
   39.7027   27.2936   36.4987 H   0  0  0  0  0  0  0  0  0  0  0  0
   40.0165   27.6801   35.0392 H   0  0  0  0  0  0  0  0  0  0  0  0
   36.8636   27.2534   36.0839 H   0  0  0  0  0  0  0  0  0  0  0  0
   37.3857   23.9006   39.3903 H   0  0  0  0  0  0  0  0  0  0  0  0
   37.0502   25.6123   37.6152 H   0  0  0  0  0  0  0  0  0  0  0  0
   40.4040   22.0813   37.0565 H   0  0  0  0  0  0  0  0  0  0  0  0
  1  2  1  0
  1 21  1  0
  3  2  2  0
  4  9  2  0
  4  3  1  0
  5  4  1  0
  6  7  1  0
  6  5  2  0
  7  8  2  0
  8  9  1  0
  9  1  1  0
 10  5  1  0
 11 12  2  0
 11  7  1  0
 13 12  1  0
 14 13  2  0
 15 14  1  0
 15 16  2  0
 16 11  1  0
 17 15  1  0
 18 17  1  0
 19 21  1  0
 19 20  1  0
 19 24  1  0
 21 20  1  0
 23 22  2  0
 24 23  1  0
 25 24  2  0
 25 26  1  0
 26 27  2  0
 27 22  1  0
  2 28  1  0
 10 29  1  0
 10 30  1  0
 12 31  1  0
 13 32  1  0
 14 33  1  0
 17 34  1  0
 17 35  1  0
 18 36  1  0
 18 37  1  0
 18 38  1  0
 19 39  1  6
 20 40  1  0
 20 41  1  0
 21 42  1  1
 22 43  1  0
 23 44  1  0
 26 45  1  0
M  ISO  8  28  14  31  14  32  14  33  14  34   8  35   8  36   8  37   8
M  ISO  8  38   8  39  13  40  13  41  13  42  13  43  14  44  14  45  14
M  END
>  <minimizedAffinity>  (1) 
-5.67558432

>  <minimizedRMSD>  (1) 
0.16760917

$$$$
