
     RDKit          3D

 18 19  0  0  0  0  0  0  0  0999 V2000
   43.6310   19.7250   37.0700 C   0  0  0  0  0  0  0  0  0  0  0  0
   42.4840   20.4990   37.2830 C   0  0  0  0  0  0  0  0  0  0  0  0
   41.9710   21.2320   36.2150 C   0  0  0  0  0  0  0  0  0  0  0  0
   42.6320   21.1460   35.0180 N   0  0  0  0  0  0  0  0  0  0  0  0
   43.7300   20.3970   34.8390 C   0  0  0  0  0  0  0  0  0  0  0  0
   44.2320   19.6790   35.8870 N   0  0  0  0  0  0  0  0  0  0  0  0
   40.7810   22.0550   36.3740 C   0  0  0  0  0  0  0  0  0  0  0  0
   39.9140   22.6420   35.4980 N   0  0  0  0  0  0  0  0  0  0  0  0
   39.0040   23.2790   36.1690 O   0  0  0  0  0  0  0  0  0  0  0  0
   39.2220   23.1440   37.4670 C   0  0  0  0  0  0  0  0  0  0  0  0
   40.3180   22.3890   37.5870 N   0  0  0  0  0  0  0  0  0  0  0  0
   38.4300   23.7040   38.5720 C   0  0  0  0  0  0  0  0  0  0  0  0
   39.2460   23.8720   39.6780 F   0  0  0  0  0  0  0  0  0  0  0  0
   37.3970   22.8550   38.9470 F   0  0  0  0  0  0  0  0  0  0  0  0
   37.9300   24.9360   38.2290 F   0  0  0  0  0  0  0  0  0  0  0  0
   44.0450   19.1398   37.9044 H   0  0  0  0  0  0  0  0  0  0  0  0
   41.9994   20.5277   38.2701 H   0  0  0  0  0  0  0  0  0  0  0  0
   44.2224   20.3612   33.8560 H   0  0  0  0  0  0  0  0  0  0  0  0
  1  2  2  0
  3  7  1  0
  3  2  1  0
  4  3  2  0
  5  4  1  0
  5  6  2  0
  6  1  1  0
  7 11  1  0
  8  9  1  0
  8  7  2  0
  9 10  1  0
 10 11  2  0
 10 12  1  0
 12 14  1  0
 12 13  1  0
 15 12  1  0
  1 16  1  0
  2 17  1  0
  5 18  1  0
M  ISO  3  16  14  17  14  18  14
M  END
>  <minimizedAffinity>  (1) 
-4.17566824

>  <minimizedRMSD>  (1) 
2.18422723

$$$$
