
     RDKit          3D

 18 19  0  0  0  0  0  0  0  0999 V2000
   42.0340   21.0280   37.3170 C   0  0  0  0  0  0  0  0  0  0  0  0
   40.9630   21.9180   37.4860 C   0  0  0  0  0  0  0  0  0  0  0  0
   40.4390   22.5250   36.3290 C   0  0  0  0  0  0  0  0  0  0  0  0
   41.0070   22.2110   35.1140 N   0  0  0  0  0  0  0  0  0  0  0  0
   42.0430   21.3400   35.0190 C   0  0  0  0  0  0  0  0  0  0  0  0
   42.5510   20.7540   36.1200 N   0  0  0  0  0  0  0  0  0  0  0  0
   39.3290   23.4590   36.4250 C   0  0  0  0  0  0  0  0  0  0  0  0
   38.0850   23.3900   36.9560 N   0  0  0  0  0  0  0  0  0  0  0  0
   37.4730   24.5360   36.7700 O   0  0  0  0  0  0  0  0  0  0  0  0
   38.2690   25.3560   36.1360 C   0  0  0  0  0  0  0  0  0  0  0  0
   39.4130   24.7110   35.9150 N   0  0  0  0  0  0  0  0  0  0  0  0
   37.9030   26.7200   35.7670 C   0  0  0  0  0  0  0  0  0  0  0  0
   36.9180   26.8800   34.9790 O   0  0  0  0  0  0  0  0  0  0  0  0
   38.5940   27.8240   36.2510 O   0  0  0  0  0  0  0  0  0  0  0  0
   42.4623   20.5389   38.2043 H   0  0  0  0  0  0  0  0  0  0  0  0
   40.5493   22.1329   38.4823 H   0  0  0  0  0  0  0  0  0  0  0  0
   42.4723   21.1102   34.0327 H   0  0  0  0  0  0  0  0  0  0  0  0
   38.3204   28.7364   35.9814 H   0  0  0  0  0  0  0  0  0  0  0  0
  1  2  2  0
  3  7  1  0
  3  2  1  0
  4  3  2  0
  5  4  1  0
  5  6  2  0
  6  1  1  0
  7  8  2  0
  9  8  1  0
 10  9  1  0
 11 10  2  0
 11  7  1  0
 12 10  1  0
 12 14  1  0
 13 12  2  0
  1 15  1  0
  2 16  1  0
  5 17  1  0
 14 18  1  0
M  ISO  4  15  14  16  14  17  14  18   3
M  END
>  <minimizedAffinity>  (1) 
-4.12920046

>  <minimizedRMSD>  (1) 
2.72900677

$$$$
