
     RDKit          3D

 22 24  0  0  0  0  0  0  0  0999 V2000
   42.2050   20.9520   37.3250 C   0  0  0  0  0  0  0  0  0  0  0  0
   41.0920   21.7720   37.5150 C   0  0  0  0  0  0  0  0  0  0  0  0
   40.5120   22.3580   36.3950 C   0  0  0  0  0  0  0  0  0  0  0  0
   41.0710   22.0930   35.1560 N   0  0  0  0  0  0  0  0  0  0  0  0
   42.1410   21.2990   35.0180 C   0  0  0  0  0  0  0  0  0  0  0  0
   42.7100   20.7250   36.1180 N   0  0  0  0  0  0  0  0  0  0  0  0
   39.3440   23.2310   36.4940 C   0  0  0  0  0  0  0  0  0  0  0  0
   38.1830   23.2260   37.2100 N   0  0  0  0  0  0  0  0  0  0  0  0
   37.4830   24.2710   36.9010 O   0  0  0  0  0  0  0  0  0  0  0  0
   38.1310   24.9830   35.9990 C   0  0  0  0  0  0  0  0  0  0  0  0
   39.2810   24.3600   35.7340 N   0  0  0  0  0  0  0  0  0  0  0  0
   37.5920   26.2510   35.4320 C   0  0  0  0  0  0  0  0  0  0  0  0
   38.3790   27.5030   35.7540 C   0  0  0  0  0  0  0  0  0  0  0  0
   38.2680   26.9580   34.3450 C   0  0  0  0  0  0  0  0  0  0  0  0
   42.6772   20.4805   38.1995 H   0  0  0  0  0  0  0  0  0  0  0  0
   40.6852   21.9497   38.5214 H   0  0  0  0  0  0  0  0  0  0  0  0
   42.5608   21.1097   34.0190 H   0  0  0  0  0  0  0  0  0  0  0  0
   36.5569   25.8970   35.5475 H   0  0  0  0  0  0  0  0  0  0  0  0
   37.8583   28.4306   36.0341 H   0  0  0  0  0  0  0  0  0  0  0  0
   39.1995   27.7675   36.4373 H   0  0  0  0  0  0  0  0  0  0  0  0
   39.1473   26.5065   33.8623 H   0  0  0  0  0  0  0  0  0  0  0  0
   37.9471   27.3758   33.3794 H   0  0  0  0  0  0  0  0  0  0  0  0
  1  2  2  0
  3  7  1  0
  3  2  1  0
  4  3  2  0
  5  4  1  0
  5  6  2  0
  6  1  1  0
  7  8  2  0
  9  8  1  0
 10  9  1  0
 11 10  2  0
 11  7  1  0
 12 13  1  0
 12 10  1  0
 14 12  1  0
 14 13  1  0
  1 15  1  0
  2 16  1  0
  5 17  1  0
 12 18  1  0
 13 19  1  0
 13 20  1  0
 14 21  1  0
 14 22  1  0
M  ISO  8  15  14  16  14  17  14  18  13  19  13  20  13  21  13  22  13
M  END
>  <minimizedAffinity>  (1) 
-4.06438541

>  <minimizedRMSD>  (1) 
2.57556701

$$$$
