
     RDKit          3D

 17 18  0  0  0  0  0  0  0  0999 V2000
   42.1180   21.0120   37.3020 C   0  0  0  0  0  0  0  0  0  0  0  0
   41.0220   21.8530   37.5030 C   0  0  0  0  0  0  0  0  0  0  0  0
   40.4390   22.4640   36.3780 C   0  0  0  0  0  0  0  0  0  0  0  0
   40.9950   22.1890   35.1430 N   0  0  0  0  0  0  0  0  0  0  0  0
   42.0520   21.3720   34.9970 C   0  0  0  0  0  0  0  0  0  0  0  0
   42.6110   20.7850   36.0800 N   0  0  0  0  0  0  0  0  0  0  0  0
   39.2960   23.3510   36.5100 C   0  0  0  0  0  0  0  0  0  0  0  0
   38.0960   23.2790   37.1500 N   0  0  0  0  0  0  0  0  0  0  0  0
   37.4300   24.3730   36.9370 O   0  0  0  0  0  0  0  0  0  0  0  0
   38.1370   25.1910   36.1720 C   0  0  0  0  0  0  0  0  0  0  0  0
   39.2790   24.5540   35.9160 N   0  0  0  0  0  0  0  0  0  0  0  0
   37.8400   26.5200   35.6560 C   0  0  0  0  0  0  0  0  0  0  0  0
   36.8410   26.7660   34.9000 O   0  0  0  0  0  0  0  0  0  0  0  0
   42.5871   20.5246   38.1694 H   0  0  0  0  0  0  0  0  0  0  0  0
   40.6253   22.0329   38.5131 H   0  0  0  0  0  0  0  0  0  0  0  0
   42.4634   21.1802   33.9950 H   0  0  0  0  0  0  0  0  0  0  0  0
   38.5073   27.3504   35.9303 H   0  0  0  0  0  0  0  0  0  0  0  0
  1  2  2  0
  3  7  1  0
  3  2  1  0
  4  3  2  0
  5  4  1  0
  5  6  2  0
  6  1  1  0
  7  8  2  0
  9  8  1  0
 10  9  1  0
 11 10  2  0
 11  7  1  0
 12 10  1  0
 13 12  2  0
  1 14  1  0
  2 15  1  0
  5 16  1  0
 12 17  1  0
M  ISO  4  14  14  15  14  16  14  17   6
M  END
>  <minimizedAffinity>  (1) 
-3.45295477

>  <minimizedRMSD>  (1) 
2.38346291

$$$$
