
     RDKit          3D

 16 17  0  0  0  0  0  0  0  0999 V2000
   42.6740   20.7450   37.0070 C   0  0  0  0  0  0  0  0  0  0  0  0
   41.4940   21.3790   37.4050 C   0  0  0  0  0  0  0  0  0  0  0  0
   40.7070   21.9360   36.4000 C   0  0  0  0  0  0  0  0  0  0  0  0
   41.1260   21.8340   35.0940 N   0  0  0  0  0  0  0  0  0  0  0  0
   42.2710   21.2140   34.7560 C   0  0  0  0  0  0  0  0  0  0  0  0
   43.0430   20.6710   35.7150 N   0  0  0  0  0  0  0  0  0  0  0  0
   39.4450   22.6260   36.7020 C   0  0  0  0  0  0  0  0  0  0  0  0
   38.2350   22.7360   36.1220 N   0  0  0  0  0  0  0  0  0  0  0  0
   37.4650   23.4930   36.8360 O   0  0  0  0  0  0  0  0  0  0  0  0
   38.1230   23.9130   37.9070 C   0  0  0  0  0  0  0  0  0  0  0  0
   39.3400   23.3800   37.8270 N   0  0  0  0  0  0  0  0  0  0  0  0
   37.7780   24.7320   38.9840 O   0  0  0  0  0  0  0  0  0  0  0  0
   43.3209   20.2927   37.7731 H   0  0  0  0  0  0  0  0  0  0  0  0
   41.2002   21.4355   38.4635 H   0  0  0  0  0  0  0  0  0  0  0  0
   42.5747   21.1512   33.7006 H   0  0  0  0  0  0  0  0  0  0  0  0
   38.4411   24.9212   39.6943 H   0  0  0  0  0  0  0  0  0  0  0  0
  1  2  2  0
  3  7  1  0
  3  2  1  0
  4  3  2  0
  5  4  1  0
  5  6  2  0
  6  1  1  0
  7 11  1  0
  8  7  2  0
  8  9  1  0
  9 10  1  0
 10 12  1  0
 11 10  2  0
  1 13  1  0
  2 14  1  0
  5 15  1  0
 12 16  1  0
M  ISO  4  13  14  14  14  15  14  16   3
M  END
>  <minimizedAffinity>  (1) 
-3.37567449

>  <minimizedRMSD>  (1) 
0.64136219

$$$$
