
     RDKit          3D

 16 17  0  0  0  0  0  0  0  0999 V2000
   43.3920   20.2940   36.9680 C   0  0  0  0  0  0  0  0  0  0  0  0
   42.1460   20.8760   37.2560 C   0  0  0  0  0  0  0  0  0  0  0  0
   41.4450   21.4750   36.2130 C   0  0  0  0  0  0  0  0  0  0  0  0
   42.0160   21.4590   34.9610 N   0  0  0  0  0  0  0  0  0  0  0  0
   43.2110   20.8910   34.7240 C   0  0  0  0  0  0  0  0  0  0  0  0
   43.8980   20.3070   35.7370 N   0  0  0  0  0  0  0  0  0  0  0  0
   40.1510   22.0960   36.4390 C   0  0  0  0  0  0  0  0  0  0  0  0
   38.9700   22.1160   35.7730 N   0  0  0  0  0  0  0  0  0  0  0  0
   38.1070   22.8360   36.4110 O   0  0  0  0  0  0  0  0  0  0  0  0
   38.6650   23.3160   37.5050 C   0  0  0  0  0  0  0  0  0  0  0  0
   39.9170   22.8630   37.5210 N   0  0  0  0  0  0  0  0  0  0  0  0
   37.9340   24.3640   38.7440 S   0  0  0  0  0  0  0  0  0  0  0  0
   43.9624   19.8167   37.7785 H   0  0  0  0  0  0  0  0  0  0  0  0
   41.7361   20.8588   38.2766 H   0  0  0  0  0  0  0  0  0  0  0  0
   43.6319   20.8999   33.7078 H   0  0  0  0  0  0  0  0  0  0  0  0
   38.2608   23.8954   39.9892 H   0  0  0  0  0  0  0  0  0  0  0  0
  1  2  2  0
  3  7  1  0
  3  2  1  0
  4  3  2  0
  5  4  1  0
  5  6  2  0
  6  1  1  0
  7 11  1  0
  8  9  1  0
  8  7  2  0
  9 10  1  0
 10 11  2  0
 10 12  1  0
  1 13  1  0
  2 14  1  0
  5 15  1  0
 12 16  1  0
M  ISO  4  13  14  14  14  15  14  16  11
M  END
>  <minimizedAffinity>  (1) 
-2.92502618

>  <minimizedRMSD>  (1) 
1.45311534

$$$$
