
     RDKit          3D

 43 46  0  0  0  0  0  0  0  0999 V2000
   43.2820   22.5930   33.8490 C   0  0  0  0  0  0  0  0  0  0  0  0
   43.2200   23.8950   34.3650 C   0  0  0  0  0  0  0  0  0  0  0  0
   44.8870   24.6230   33.8750 S   0  0  0  0  0  0  0  0  0  0  0  0
   45.3410   22.9720   33.0500 C   0  0  0  0  0  0  0  0  0  0  0  0
   44.4140   22.4090   33.2630 N   0  0  0  0  0  0  0  0  0  0  0  0
   46.5750   22.6470   32.3650 N   0  0  0  0  0  0  0  0  0  0  0  0
   47.5010   22.0430   33.1320 C   0  0  0  0  0  0  0  0  0  0  0  0
   48.6000   21.8110   32.3210 C   0  0  0  0  0  0  0  0  0  0  0  0
   48.2750   22.2910   31.0970 N   0  0  0  0  0  0  0  0  0  0  0  0
   47.0410   22.8000   31.1230 C   0  0  0  0  0  0  0  0  0  0  0  0
   46.2120   23.4400   30.0860 C   0  0  0  0  0  0  0  0  0  0  0  0
   45.5510   22.3180   29.3000 C   0  0  0  0  0  0  0  0  0  0  0  0
   44.1890   21.9600   29.8610 C   0  0  0  0  0  0  0  0  0  0  0  0
   43.2840   23.1410   29.7310 C   0  0  0  0  0  0  0  0  0  0  0  0
   44.0380   24.4580   29.6830 C   0  0  0  0  0  0  0  0  0  0  0  0
   45.1760   24.3540   30.7050 C   0  0  0  0  0  0  0  0  0  0  0  0
   41.8590   21.5440   34.1070 S   0  0  0  0  0  0  0  0  0  0  0  0
   40.4480   22.3900   37.7320 C   0  0  0  0  0  0  0  0  0  0  0  0
   39.2820   23.1350   37.4630 C   0  0  0  0  0  0  0  0  0  0  0  0
   38.9600   23.3570   36.1370 C   0  0  0  0  0  0  0  0  0  0  0  0
   39.7570   22.8630   35.1340 N   0  0  0  0  0  0  0  0  0  0  0  0
   40.8850   22.1440   35.4640 C   0  0  0  0  0  0  0  0  0  0  0  0
   41.2050   21.9240   36.7410 N   0  0  0  0  0  0  0  0  0  0  0  0
   38.3920   23.6850   38.5150 C   0  0  0  0  0  0  0  0  0  0  0  0
   39.1910   23.8700   39.6340 F   0  0  0  0  0  0  0  0  0  0  0  0
   37.3720   22.8440   38.8450 F   0  0  0  0  0  0  0  0  0  0  0  0
   37.9690   24.9750   38.1800 F   0  0  0  0  0  0  0  0  0  0  0  0
   42.3996   24.3739   34.9197 H   0  0  0  0  0  0  0  0  0  0  0  0
   47.4042   21.7837   34.1966 H   0  0  0  0  0  0  0  0  0  0  0  0
   49.5467   21.3328   32.6127 H   0  0  0  0  0  0  0  0  0  0  0  0
   46.8280   24.0690   29.4265 H   0  0  0  0  0  0  0  0  0  0  0  0
   46.1966   21.4283   29.3392 H   0  0  0  0  0  0  0  0  0  0  0  0
   45.4129   22.6630   28.2647 H   0  0  0  0  0  0  0  0  0  0  0  0
   43.7706   21.1112   29.3002 H   0  0  0  0  0  0  0  0  0  0  0  0
   44.2852   21.6803   30.9205 H   0  0  0  0  0  0  0  0  0  0  0  0
   42.7004   23.0362   28.8045 H   0  0  0  0  0  0  0  0  0  0  0  0
   42.6373   23.1620   30.6206 H   0  0  0  0  0  0  0  0  0  0  0  0
   44.4476   24.6234   28.6756 H   0  0  0  0  0  0  0  0  0  0  0  0
   43.3730   25.3024   29.9171 H   0  0  0  0  0  0  0  0  0  0  0  0
   44.8045   23.9269   31.6482 H   0  0  0  0  0  0  0  0  0  0  0  0
   45.5991   25.3422   30.9382 H   0  0  0  0  0  0  0  0  0  0  0  0
   40.7363   22.1910   38.7747 H   0  0  0  0  0  0  0  0  0  0  0  0
   38.0583   23.9338   35.8835 H   0  0  0  0  0  0  0  0  0  0  0  0
  1 17  1  0
  1  2  2  0
  3  2  1  0
  4  5  2  0
  4  3  1  0
  5  1  1  0
  6  4  1  0
  6  7  1  0
  8  7  2  0
  9 10  2  0
  9  8  1  0
 10  6  1  0
 11 16  1  0
 11 10  1  0
 12 13  1  0
 12 11  1  0
 14 13  1  0
 15 14  1  0
 15 16  1  0
 17 22  1  0
 19 18  2  0
 19 24  1  0
 20 19  1  0
 21 22  1  0
 21 20  2  0
 22 23  2  0
 23 18  1  0
 24 26  1  0
 24 25  1  0
 27 24  1  0
  2 28  1  0
  7 29  1  0
  8 30  1  0
 11 31  1  0
 12 32  1  0
 12 33  1  0
 13 34  1  0
 13 35  1  0
 14 36  1  0
 14 37  1  0
 15 38  1  0
 15 39  1  0
 16 40  1  0
 16 41  1  0
 18 42  1  0
 20 43  1  0
M  ISO  8  28  14  29  14  30  14  31  13  32  13  33  13  34  13  35  13
M  ISO  8  36  13  37  13  38  13  39  13  40  13  41  13  42  14  43  14
M  END
>  <minimizedAffinity>  (1) 
-3.65705657

>  <minimizedRMSD>  (1) 
0.382534206

$$$$
