
     RDKit          3D

 35 38  0  0  0  0  0  0  0  0999 V2000
   36.7020   28.9530   34.8550 C   0  0  0  0  0  0  0  0  0  0  0  0
   37.9340   25.5680   35.3490 C   0  0  0  0  0  0  0  0  0  0  0  0
   37.4800   25.5350   34.0720 N   0  0  0  0  0  0  0  0  0  0  0  0
   37.0090   26.6940   33.7670 O   0  0  0  0  0  0  0  0  0  0  0  0
   37.1260   27.5150   34.7920 C   0  0  0  0  0  0  0  0  0  0  0  0
   37.6960   26.8310   35.7730 N   0  0  0  0  0  0  0  0  0  0  0  0
   38.7130   23.3780   38.2720 C   0  0  0  0  0  0  0  0  0  0  0  0
   38.0360   24.3360   37.5130 C   0  0  0  0  0  0  0  0  0  0  0  0
   38.5660   24.5820   36.2360 C   0  0  0  0  0  0  0  0  0  0  0  0
   39.6740   23.8900   35.8300 N   0  0  0  0  0  0  0  0  0  0  0  0
   40.2940   22.9790   36.5870 C   0  0  0  0  0  0  0  0  0  0  0  0
   39.8010   22.7300   37.8150 N   0  0  0  0  0  0  0  0  0  0  0  0
   35.7200   29.1630   33.7350 C   0  0  0  0  0  0  0  0  0  0  0  0
   34.3830   29.5830   34.1370 C   0  0  0  0  0  0  0  0  0  0  0  0
   33.2450   29.0990   33.6610 N   0  0  0  0  0  0  0  0  0  0  0  0
   32.0150   29.4800   34.0360 C   0  0  0  0  0  0  0  0  0  0  0  0
   31.8760   30.4400   34.9820 N   0  0  0  0  0  0  0  0  0  0  0  0
   32.9710   31.0110   35.5400 C   0  0  0  0  0  0  0  0  0  0  0  0
   32.8100   31.9900   36.4950 C   0  0  0  0  0  0  0  0  0  0  0  0
   33.9180   32.5790   37.0640 C   0  0  0  0  0  0  0  0  0  0  0  0
   35.1940   32.1830   36.6700 C   0  0  0  0  0  0  0  0  0  0  0  0
   35.2800   31.1970   35.7100 C   0  0  0  0  0  0  0  0  0  0  0  0
   34.2170   30.5660   35.1010 C   0  0  0  0  0  0  0  0  0  0  0  0
   36.2244   29.1655   35.8229 H   0  0  0  0  0  0  0  0  0  0  0  0
   37.5667   29.6255   34.7547 H   0  0  0  0  0  0  0  0  0  0  0  0
   38.3430   23.1444   39.2812 H   0  0  0  0  0  0  0  0  0  0  0  0
   37.1470   24.8625   37.8906 H   0  0  0  0  0  0  0  0  0  0  0  0
   41.1829   22.4472   36.2167 H   0  0  0  0  0  0  0  0  0  0  0  0
   35.6255   28.2145   33.1860 H   0  0  0  0  0  0  0  0  0  0  0  0
   36.1251   29.9889   33.1319 H   0  0  0  0  0  0  0  0  0  0  0  0
   31.1273   29.0175   33.5798 H   0  0  0  0  0  0  0  0  0  0  0  0
   31.8005   32.3006   36.8024 H   0  0  0  0  0  0  0  0  0  0  0  0
   33.7951   33.3607   37.8281 H   0  0  0  0  0  0  0  0  0  0  0  0
   36.0954   32.6379   37.1065 H   0  0  0  0  0  0  0  0  0  0  0  0
   36.2891   30.8857   35.4022 H   0  0  0  0  0  0  0  0  0  0  0  0
  2  6  1  0
  2  9  1  0
  3  2  2  0
  4  3  1  0
  4  5  1  0
  5  1  1  0
  5  6  2  0
  8  7  2  0
  9  8  1  0
 10  9  2  0
 10 11  1  0
 11 12  2  0
 12  7  1  0
 13 14  1  0
 13  1  1  0
 14 23  2  0
 15 16  2  0
 15 14  1  0
 16 17  1  0
 17 18  2  0
 18 19  1  0
 19 20  2  0
 21 20  1  0
 22 21  2  0
 23 18  1  0
 23 22  1  0
  1 24  1  0
  1 25  1  0
  7 26  1  0
  8 27  1  0
 11 28  1  0
 13 29  1  0
 13 30  1  0
 16 31  1  0
 19 32  1  0
 20 33  1  0
 21 34  1  0
 22 35  1  0
M  ISO  8  24   8  25   8  26  14  27  14  28  14  29   8  30   8  31  14
M  ISO  4  32  14  33  14  34  14  35  14
M  END
>  <minimizedAffinity>  (1) 
-5.62311316

>  <minimizedRMSD>  (1) 
3.73398662

$$$$
