
     RDKit          3D

 35 38  0  0  0  0  0  0  0  0999 V2000
   36.3810   28.2590   33.7470 C   0  0  0  0  0  0  0  0  0  0  0  0
   37.9530   25.2150   34.9470 C   0  0  0  0  0  0  0  0  0  0  0  0
   37.8390   24.9980   33.6140 N   0  0  0  0  0  0  0  0  0  0  0  0
   37.2740   26.0560   33.0820 O   0  0  0  0  0  0  0  0  0  0  0  0
   37.0160   26.9510   34.0060 C   0  0  0  0  0  0  0  0  0  0  0  0
   37.4280   26.4520   35.1570 N   0  0  0  0  0  0  0  0  0  0  0  0
   38.3590   23.6730   38.3320 C   0  0  0  0  0  0  0  0  0  0  0  0
   37.8350   24.4380   37.2950 C   0  0  0  0  0  0  0  0  0  0  0  0
   38.4790   24.4270   36.0500 C   0  0  0  0  0  0  0  0  0  0  0  0
   39.6000   23.6540   35.9280 N   0  0  0  0  0  0  0  0  0  0  0  0
   40.0730   22.9340   36.9450 C   0  0  0  0  0  0  0  0  0  0  0  0
   39.4560   22.9430   38.1390 N   0  0  0  0  0  0  0  0  0  0  0  0
   35.6770   28.2230   32.4270 C   0  0  0  0  0  0  0  0  0  0  0  0
   35.8160   29.4040   31.6490 N   0  0  0  0  0  0  0  0  0  0  0  0
   35.4360   30.6900   31.6510 C   0  0  0  0  0  0  0  0  0  0  0  0
   35.9050   31.4010   30.6120 N   0  0  0  0  0  0  0  0  0  0  0  0
   36.6320   30.5570   29.8740 C   0  0  0  0  0  0  0  0  0  0  0  0
   37.3190   30.8080   28.7060 C   0  0  0  0  0  0  0  0  0  0  0  0
   37.3430   31.9280   28.1630 O   0  0  0  0  0  0  0  0  0  0  0  0
   37.9880   29.8000   28.1340 N   0  0  0  0  0  0  0  0  0  0  0  0
   37.9520   28.5970   28.7330 C   0  0  0  0  0  0  0  0  0  0  0  0
   38.6710   27.5280   28.1090 N   0  0  0  0  0  0  0  0  0  0  0  0
   37.2820   28.3610   29.8670 N   0  0  0  0  0  0  0  0  0  0  0  0
   36.5770   29.3370   30.5110 C   0  0  0  0  0  0  0  0  0  0  0  0
   35.6544   28.4773   34.5435 H   0  0  0  0  0  0  0  0  0  0  0  0
   37.1530   29.0423   33.7279 H   0  0  0  0  0  0  0  0  0  0  0  0
   37.8654   23.6710   39.3150 H   0  0  0  0  0  0  0  0  0  0  0  0
   36.9290   25.0424   37.4497 H   0  0  0  0  0  0  0  0  0  0  0  0
   40.9787   22.3255   36.8055 H   0  0  0  0  0  0  0  0  0  0  0  0
   36.0802   27.3803   31.8462 H   0  0  0  0  0  0  0  0  0  0  0  0
   34.6045   28.1208   32.6489 H   0  0  0  0  0  0  0  0  0  0  0  0
   34.7969   31.1243   32.4339 H   0  0  0  0  0  0  0  0  0  0  0  0
   38.5150   29.9417   27.2605 H   0  0  0  0  0  0  0  0  0  0  0  0
   38.6703   26.5898   28.5340 H   0  0  0  0  0  0  0  0  0  0  0  0
   39.1891   27.6970   27.2350 H   0  0  0  0  0  0  0  0  0  0  0  0
  1  5  1  0
  2  6  1  0
  2  9  1  0
  3  2  2  0
  4  3  1  0
  4  5  1  0
  5  6  2  0
  8  7  2  0
  9  8  1  0
 10  9  2  0
 10 11  1  0
 11 12  2  0
 12  7  1  0
 13  1  1  0
 14 15  1  0
 14 13  1  0
 16 15  2  0
 17 24  2  0
 17 16  1  0
 18 17  1  0
 19 18  2  0
 20 18  1  0
 20 21  1  0
 21 23  2  0
 22 21  1  0
 23 24  1  0
 24 14  1  0
  1 25  1  0
  1 26  1  0
  7 27  1  0
  8 28  1  0
 11 29  1  0
 13 30  1  0
 13 31  1  0
 15 32  1  0
 20 33  1  0
 22 34  1  0
 22 35  1  0
M  ISO  8  25   8  26   8  27  14  28  14  29  14  30   8  31   8  32  14
M  ISO  1  33   9
M  END
>  <minimizedAffinity>  (1) 
-5.47167778

>  <minimizedRMSD>  (1) 
3.38311672

$$$$
