
     RDKit          3D

 32 34  0  0  0  0  0  0  0  0999 V2000
   36.2810   28.5310   34.3870 C   0  0  0  0  0  0  0  0  0  0  0  0
   37.9010   25.3600   35.1480 C   0  0  0  0  0  0  0  0  0  0  0  0
   37.6650   25.2500   33.8160 N   0  0  0  0  0  0  0  0  0  0  0  0
   37.0750   26.3450   33.4130 O   0  0  0  0  0  0  0  0  0  0  0  0
   36.9130   27.1750   34.4310 C   0  0  0  0  0  0  0  0  0  0  0  0
   37.4180   26.5830   35.5140 N   0  0  0  0  0  0  0  0  0  0  0  0
   38.6120   23.4750   38.2960 C   0  0  0  0  0  0  0  0  0  0  0  0
   37.9450   24.3430   37.4160 C   0  0  0  0  0  0  0  0  0  0  0  0
   38.5180   24.4810   36.1360 C   0  0  0  0  0  0  0  0  0  0  0  0
   39.6710   23.7720   35.8320 N   0  0  0  0  0  0  0  0  0  0  0  0
   40.2490   22.9630   36.7270 C   0  0  0  0  0  0  0  0  0  0  0  0
   39.7170   22.8200   37.9480 N   0  0  0  0  0  0  0  0  0  0  0  0
   36.1400   28.8790   32.9070 C   0  0  0  0  0  0  0  0  0  0  0  0
   34.8410   29.4700   32.6190 N   0  0  0  0  0  0  0  0  0  0  0  0
   33.6710   29.2330   33.2710 C   0  0  0  0  0  0  0  0  0  0  0  0
   32.5290   29.8870   32.8620 C   0  0  0  0  0  0  0  0  0  0  0  0
   32.4840   30.7830   31.8170 C   0  0  0  0  0  0  0  0  0  0  0  0
   31.2810   31.4330   31.4290 N   0  0  0  0  0  0  0  0  0  0  0  0
   33.6620   30.9820   31.2090 N   0  0  0  0  0  0  0  0  0  0  0  0
   34.8020   30.3510   31.5900 C   0  0  0  0  0  0  0  0  0  0  0  0
   35.7620   30.7080   30.8650 O   0  0  0  0  0  0  0  0  0  0  0  0
   35.2933   28.5087   34.8706 H   0  0  0  0  0  0  0  0  0  0  0  0
   36.8877   29.2769   34.9213 H   0  0  0  0  0  0  0  0  0  0  0  0
   38.2068   23.3315   39.3085 H   0  0  0  0  0  0  0  0  0  0  0  0
   37.0316   24.8819   37.7080 H   0  0  0  0  0  0  0  0  0  0  0  0
   41.1637   22.4137   36.4595 H   0  0  0  0  0  0  0  0  0  0  0  0
   36.9277   29.5958   32.6318 H   0  0  0  0  0  0  0  0  0  0  0  0
   36.2337   27.9510   32.3239 H   0  0  0  0  0  0  0  0  0  0  0  0
   33.6368   28.5278   34.1145 H   0  0  0  0  0  0  0  0  0  0  0  0
   31.5945   29.6804   33.4043 H   0  0  0  0  0  0  0  0  0  0  0  0
   31.2854   32.0975   30.6420 H   0  0  0  0  0  0  0  0  0  0  0  0
   30.4048   31.2395   31.9348 H   0  0  0  0  0  0  0  0  0  0  0  0
  1  5  1  0
  2  6  1  0
  2  9  1  0
  3  2  2  0
  4  3  1  0
  4  5  1  0
  5  6  2  0
  8  7  2  0
  9  8  1  0
 10  9  2  0
 10 11  1  0
 11 12  2  0
 12  7  1  0
 13  1  1  0
 14 13  1  0
 14 15  1  0
 16 15  2  0
 17 16  1  0
 18 17  1  0
 19 20  1  0
 19 17  2  0
 20 14  1  0
 21 20  2  0
  1 22  1  0
  1 23  1  0
  7 24  1  0
  8 25  1  0
 11 26  1  0
 13 27  1  0
 13 28  1  0
 15 29  1  0
 16 30  1  0
 18 31  1  0
 18 32  1  0
M  ISO  8  22   8  23   8  24  14  25  14  26  14  27   8  28   8  29  14
M  ISO  1  30  14
M  END
>  <minimizedAffinity>  (1) 
-4.90542841

>  <minimizedRMSD>  (1) 
1.64365065

$$$$
