
     RDKit          3D

 30 32  0  0  0  0  0  0  0  0999 V2000
   43.3750   22.4030   33.9570 C   0  0  0  0  0  0  0  0  0  0  0  0
   43.4070   23.7030   34.5000 C   0  0  0  0  0  0  0  0  0  0  0  0
   45.1610   24.2450   34.1410 S   0  0  0  0  0  0  0  0  0  0  0  0
   45.5100   22.5820   33.3150 C   0  0  0  0  0  0  0  0  0  0  0  0
   44.5250   22.1060   33.4440 N   0  0  0  0  0  0  0  0  0  0  0  0
   46.7550   22.1480   32.7120 N   0  0  0  0  0  0  0  0  0  0  0  0
   47.5440   21.4410   33.5200 C   0  0  0  0  0  0  0  0  0  0  0  0
   48.6840   21.1060   32.8010 C   0  0  0  0  0  0  0  0  0  0  0  0
   48.5090   21.6440   31.5710 N   0  0  0  0  0  0  0  0  0  0  0  0
   47.3330   22.2810   31.5150 C   0  0  0  0  0  0  0  0  0  0  0  0
   46.6530   23.0250   30.4520 C   0  0  0  0  0  0  0  0  0  0  0  0
   47.4380   22.9730   29.3100 F   0  0  0  0  0  0  0  0  0  0  0  0
   46.3310   24.3020   30.7780 F   0  0  0  0  0  0  0  0  0  0  0  0
   45.4460   22.3910   30.1200 F   0  0  0  0  0  0  0  0  0  0  0  0
   41.8410   21.4930   34.0860 S   0  0  0  0  0  0  0  0  0  0  0  0
   40.4420   22.3510   37.7170 C   0  0  0  0  0  0  0  0  0  0  0  0
   39.2980   23.1140   37.4550 C   0  0  0  0  0  0  0  0  0  0  0  0
   38.9720   23.3570   36.1190 C   0  0  0  0  0  0  0  0  0  0  0  0
   39.7530   22.8580   35.1160 N   0  0  0  0  0  0  0  0  0  0  0  0
   40.8680   22.1130   35.4290 C   0  0  0  0  0  0  0  0  0  0  0  0
   41.1750   21.8840   36.7070 N   0  0  0  0  0  0  0  0  0  0  0  0
   38.4170   23.6790   38.5140 C   0  0  0  0  0  0  0  0  0  0  0  0
   39.2160   23.8710   39.6240 F   0  0  0  0  0  0  0  0  0  0  0  0
   37.3710   22.8670   38.8270 F   0  0  0  0  0  0  0  0  0  0  0  0
   38.0050   24.9830   38.1690 F   0  0  0  0  0  0  0  0  0  0  0  0
   42.6040   24.2584   35.0066 H   0  0  0  0  0  0  0  0  0  0  0  0
   47.3314   21.1719   34.5652 H   0  0  0  0  0  0  0  0  0  0  0  0
   49.5480   20.5253   33.1564 H   0  0  0  0  0  0  0  0  0  0  0  0
   40.7355   22.1372   38.7554 H   0  0  0  0  0  0  0  0  0  0  0  0
   38.0812   23.9537   35.8732 H   0  0  0  0  0  0  0  0  0  0  0  0
  1 15  1  0
  1  2  2  0
  3  2  1  0
  4  5  2  0
  4  3  1  0
  5  1  1  0
  6  4  1  0
  6  7  1  0
  8  7  2  0
  9  8  1  0
 10  9  2  0
 10  6  1  0
 11 13  1  0
 11 10  1  0
 12 11  1  0
 14 11  1  0
 15 20  1  0
 17 16  2  0
 17 22  1  0
 18 17  1  0
 19 20  1  0
 19 18  2  0
 20 21  2  0
 21 16  1  0
 22 24  1  0
 22 23  1  0
 25 22  1  0
  2 26  1  0
  7 27  1  0
  8 28  1  0
 16 29  1  0
 18 30  1  0
M  ISO  5  26  14  27  14  28  14  29  14  30  14
M  END
>  <minimizedAffinity>  (1) 
-3.64072108

>  <minimizedRMSD>  (1) 
0.620373607

$$$$
