
     RDKit          3D

 28 30  0  0  0  0  0  0  0  0999 V2000
   37.9730   25.0760   35.0530 C   0  0  0  0  0  0  0  0  0  0  0  0
   37.7350   24.7990   33.7590 N   0  0  0  0  0  0  0  0  0  0  0  0
   37.2270   25.8570   33.1900 O   0  0  0  0  0  0  0  0  0  0  0  0
   37.1170   26.8410   34.0750 C   0  0  0  0  0  0  0  0  0  0  0  0
   37.5730   26.3660   35.2200 N   0  0  0  0  0  0  0  0  0  0  0  0
   38.4950   23.6160   38.4610 C   0  0  0  0  0  0  0  0  0  0  0  0
   37.9110   24.3630   37.4440 C   0  0  0  0  0  0  0  0  0  0  0  0
   38.5210   24.3200   36.1830 C   0  0  0  0  0  0  0  0  0  0  0  0
   39.6470   23.5520   36.0260 N   0  0  0  0  0  0  0  0  0  0  0  0
   40.1730   22.8470   37.0470 C   0  0  0  0  0  0  0  0  0  0  0  0
   39.5890   22.8890   38.2510 N   0  0  0  0  0  0  0  0  0  0  0  0
   36.5820   28.2060   33.8120 C   0  0  0  0  0  0  0  0  0  0  0  0
   35.6010   28.0700   32.6520 C   0  0  0  0  0  0  0  0  0  0  0  0
   36.2090   28.5510   31.3870 C   0  0  0  0  0  0  0  0  0  0  0  0
   36.6930   29.7590   30.8900 C   0  0  0  0  0  0  0  0  0  0  0  0
   37.1350   29.5160   29.6010 C   0  0  0  0  0  0  0  0  0  0  0  0
   36.9170   28.2250   29.3650 N   0  0  0  0  0  0  0  0  0  0  0  0
   36.3640   27.6340   30.4190 N   0  0  0  0  0  0  0  0  0  0  0  0
   38.0415   23.6265   39.4631 H   0  0  0  0  0  0  0  0  0  0  0  0
   37.0067   24.9635   37.6220 H   0  0  0  0  0  0  0  0  0  0  0  0
   41.0774   22.2403   36.8920 H   0  0  0  0  0  0  0  0  0  0  0  0
   36.0652   28.5900   34.7038 H   0  0  0  0  0  0  0  0  0  0  0  0
   37.3910   28.9105   33.5686 H   0  0  0  0  0  0  0  0  0  0  0  0
   35.3218   27.0121   32.5383 H   0  0  0  0  0  0  0  0  0  0  0  0
   34.7119   28.6801   32.8695 H   0  0  0  0  0  0  0  0  0  0  0  0
   36.7190   30.7222   31.4206 H   0  0  0  0  0  0  0  0  0  0  0  0
   37.5789   30.2462   28.9084 H   0  0  0  0  0  0  0  0  0  0  0  0
   37.1465   27.7468   28.4821 H   0  0  0  0  0  0  0  0  0  0  0  0
  1  5  1  0
  1  8  1  0
  2  1  2  0
  3  2  1  0
  3  4  1  0
  4  5  2  0
  7  6  2  0
  8  7  1  0
  9  8  2  0
  9 10  1  0
 10 11  2  0
 11  6  1  0
 12  4  1  0
 13 12  1  0
 14 13  1  0
 15 14  1  0
 16 15  2  0
 17 16  1  0
 17 18  1  0
 18 14  2  0
  6 19  1  0
  7 20  1  0
 10 21  1  0
 12 22  1  0
 12 23  1  0
 13 24  1  0
 13 25  1  0
 15 26  1  0
 16 27  1  0
 17 28  1  0
M  ISO  8  19  14  20  14  21  14  22   8  23   8  24   8  25   8  26  14
M  ISO  2  27  14  28   9
M  END
>  <minimizedAffinity>  (1) 
-4.7189312

>  <minimizedRMSD>  (1) 
1.46623969

$$$$
