
     RDKit          3D

 29 31  0  0  0  0  0  0  0  0999 V2000
   37.9530   25.1120   34.8180 C   0  0  0  0  0  0  0  0  0  0  0  0
   37.8290   24.8380   33.5170 N   0  0  0  0  0  0  0  0  0  0  0  0
   37.3220   25.8410   32.8860 O   0  0  0  0  0  0  0  0  0  0  0  0
   37.0890   26.8260   33.7550 C   0  0  0  0  0  0  0  0  0  0  0  0
   37.4770   26.3720   34.9300 N   0  0  0  0  0  0  0  0  0  0  0  0
   38.3230   23.7130   38.2520 C   0  0  0  0  0  0  0  0  0  0  0  0
   37.7590   24.4560   37.2060 C   0  0  0  0  0  0  0  0  0  0  0  0
   38.4480   24.3810   35.9880 C   0  0  0  0  0  0  0  0  0  0  0  0
   39.5780   23.6170   35.9110 N   0  0  0  0  0  0  0  0  0  0  0  0
   40.0820   22.9240   36.9300 C   0  0  0  0  0  0  0  0  0  0  0  0
   39.4450   22.9790   38.1020 N   0  0  0  0  0  0  0  0  0  0  0  0
   36.5040   28.1730   33.4560 C   0  0  0  0  0  0  0  0  0  0  0  0
   35.6680   27.9930   32.1900 C   0  0  0  0  0  0  0  0  0  0  0  0
   36.2870   28.6840   31.0370 C   0  0  0  0  0  0  0  0  0  0  0  0
   36.2120   30.0730   30.9720 C   0  0  0  0  0  0  0  0  0  0  0  0
   36.7430   30.8700   29.9530 C   0  0  0  0  0  0  0  0  0  0  0  0
   37.3850   30.2080   28.9470 N   0  0  0  0  0  0  0  0  0  0  0  0
   37.4580   28.8680   29.0100 C   0  0  0  0  0  0  0  0  0  0  0  0
   36.9370   28.1350   30.0010 N   0  0  0  0  0  0  0  0  0  0  0  0
   37.8307   23.7290   39.2355 H   0  0  0  0  0  0  0  0  0  0  0  0
   36.8439   25.0534   37.3317 H   0  0  0  0  0  0  0  0  0  0  0  0
   40.9961   22.3240   36.8098 H   0  0  0  0  0  0  0  0  0  0  0  0
   35.8693   28.5084   34.2895 H   0  0  0  0  0  0  0  0  0  0  0  0
   37.2875   28.9328   33.3187 H   0  0  0  0  0  0  0  0  0  0  0  0
   35.5865   26.9197   31.9635 H   0  0  0  0  0  0  0  0  0  0  0  0
   34.6734   28.4293   32.3645 H   0  0  0  0  0  0  0  0  0  0  0  0
   35.6903   30.5874   31.7926 H   0  0  0  0  0  0  0  0  0  0  0  0
   36.6488   31.9659   29.9618 H   0  0  0  0  0  0  0  0  0  0  0  0
   37.9782   28.3408   28.1967 H   0  0  0  0  0  0  0  0  0  0  0  0
  1  5  1  0
  1  8  1  0
  2  1  2  0
  3  2  1  0
  3  4  1  0
  4  5  2  0
  7  6  2  0
  8  7  1  0
  9  8  2  0
  9 10  1  0
 10 11  2  0
 11  6  1  0
 12  4  1  0
 13 12  1  0
 14 13  1  0
 15 14  2  0
 16 15  1  0
 17 18  1  0
 17 16  2  0
 18 19  2  0
 19 14  1  0
  6 20  1  0
  7 21  1  0
 10 22  1  0
 12 23  1  0
 12 24  1  0
 13 25  1  0
 13 26  1  0
 15 27  1  0
 16 28  1  0
 18 29  1  0
M  ISO  8  20  14  21  14  22  14  23   8  24   8  25   8  26   8  27  14
M  ISO  2  28  14  29  14
M  END
>  <minimizedAffinity>  (1) 
-4.6541934

>  <minimizedRMSD>  (1) 
1.94289541

$$$$
