
     RDKit          3D

 28 29  0  0  0  0  0  0  0  0999 V2000
   38.0210   24.9690   35.1500 C   0  0  0  0  0  0  0  0  0  0  0  0
   37.7030   24.6880   33.8630 N   0  0  0  0  0  0  0  0  0  0  0  0
   37.1750   25.7370   33.3180 O   0  0  0  0  0  0  0  0  0  0  0  0
   37.1260   26.7220   34.2000 C   0  0  0  0  0  0  0  0  0  0  0  0
   37.6460   26.2760   35.3480 N   0  0  0  0  0  0  0  0  0  0  0  0
   38.6850   23.4630   38.5050 C   0  0  0  0  0  0  0  0  0  0  0  0
   38.0290   24.2120   37.5260 C   0  0  0  0  0  0  0  0  0  0  0  0
   38.6280   24.2140   36.2500 C   0  0  0  0  0  0  0  0  0  0  0  0
   39.7950   23.4980   36.0330 N   0  0  0  0  0  0  0  0  0  0  0  0
   40.3640   22.7990   37.0380 C   0  0  0  0  0  0  0  0  0  0  0  0
   39.8040   22.7900   38.2540 N   0  0  0  0  0  0  0  0  0  0  0  0
   36.5840   28.1000   33.9520 C   0  0  0  0  0  0  0  0  0  0  0  0
   36.1940   28.1210   32.4720 C   0  0  0  0  0  0  0  0  0  0  0  0
   37.4810   28.0480   31.7650 N   0  0  0  0  0  0  0  0  0  0  0  0
   37.5020   27.6650   30.3960 C   0  0  0  0  0  0  0  0  0  0  0  0
   36.4900   27.8900   29.6430 N   0  0  0  0  0  0  0  0  0  0  0  0
   38.6500   27.0280   29.8460 N   0  0  0  0  0  0  0  0  0  0  0  0
   35.6240   28.3510   29.9840 H   0  0  0  0  0  0  0  0  0  0  0  0
   38.2612   23.4285   39.5195 H   0  0  0  0  0  0  0  0  0  0  0  0
   37.1025   24.7660   37.7374 H   0  0  0  0  0  0  0  0  0  0  0  0
   41.2909   22.2349   36.8572 H   0  0  0  0  0  0  0  0  0  0  0  0
   35.7041   28.2875   34.5849 H   0  0  0  0  0  0  0  0  0  0  0  0
   37.3215   28.8799   34.1926 H   0  0  0  0  0  0  0  0  0  0  0  0
   35.5608   27.2569   32.2220 H   0  0  0  0  0  0  0  0  0  0  0  0
   35.6111   29.0133   32.2000 H   0  0  0  0  0  0  0  0  0  0  0  0
   38.3581   28.2720   32.2563 H   0  0  0  0  0  0  0  0  0  0  0  0
   38.6602   26.7525   28.8536 H   0  0  0  0  0  0  0  0  0  0  0  0
   39.4705   26.8426   30.4404 H   0  0  0  0  0  0  0  0  0  0  0  0
  1  5  1  0
  1  8  1  0
  2  1  2  0
  3  2  1  0
  3  4  1  0
  4  5  2  0
  7  6  2  0
  8  7  1  0
  9  8  2  0
  9 10  1  0
 10 11  2  0
 11  6  1  0
 12  4  1  0
 13 12  1  0
 14 13  1  0
 15 14  1  0
 16 18  1  0
 16 15  2  0
 17 15  1  0
  6 19  1  0
  7 20  1  0
 10 21  1  0
 12 22  1  0
 12 23  1  0
 13 24  1  0
 13 25  1  0
 14 26  1  0
 17 27  1  0
 17 28  1  0
M  ISO  7  19  14  20  14  21  14  22   8  23   8  24   8  25   8
M  END
>  <minimizedAffinity>  (1) 
-4.57459307

>  <minimizedRMSD>  (1) 
1.11352038

$$$$
