
     RDKit          3D

 36 38  0  0  0  0  0  0  0  0999 V2000
   37.9590   25.2500   35.1490 C   0  0  0  0  0  0  0  0  0  0  0  0
   37.7260   25.1280   33.8400 N   0  0  0  0  0  0  0  0  0  0  0  0
   37.1370   26.1820   33.3840 O   0  0  0  0  0  0  0  0  0  0  0  0
   36.9580   27.0460   34.3890 C   0  0  0  0  0  0  0  0  0  0  0  0
   37.4630   26.4810   35.4880 N   0  0  0  0  0  0  0  0  0  0  0  0
   38.6430   23.4780   38.3760 C   0  0  0  0  0  0  0  0  0  0  0  0
   37.9960   24.3030   37.4560 C   0  0  0  0  0  0  0  0  0  0  0  0
   38.5740   24.4070   36.1640 C   0  0  0  0  0  0  0  0  0  0  0  0
   39.7090   23.6940   35.9270 N   0  0  0  0  0  0  0  0  0  0  0  0
   40.3090   22.9110   36.8260 C   0  0  0  0  0  0  0  0  0  0  0  0
   39.7660   22.8080   38.0540 N   0  0  0  0  0  0  0  0  0  0  0  0
   36.3140   28.3890   34.2930 C   0  0  0  0  0  0  0  0  0  0  0  0
   35.7170   28.4870   32.9090 C   0  0  0  0  0  0  0  0  0  0  0  0
   36.4840   29.2220   31.9650 N   0  0  0  0  0  0  0  0  0  0  0  0
   36.5990   28.5900   30.6790 C   0  0  0  0  0  0  0  0  0  0  0  0
   37.4310   29.4150   29.7510 C   0  0  0  0  0  0  0  0  0  0  0  0
   36.9000   30.8040   29.5560 C   0  0  0  0  0  0  0  0  0  0  0  0
   35.8700   31.1740   30.5880 C   0  0  0  0  0  0  0  0  0  0  0  0
   36.2990   30.6240   31.9260 C   0  0  0  0  0  0  0  0  0  0  0  0
   38.2261   23.3721   39.3884 H   0  0  0  0  0  0  0  0  0  0  0  0
   37.0783   24.8489   37.7202 H   0  0  0  0  0  0  0  0  0  0  0  0
   41.2269   22.3618   36.5695 H   0  0  0  0  0  0  0  0  0  0  0  0
   35.5254   28.4864   35.0537 H   0  0  0  0  0  0  0  0  0  0  0  0
   37.0460   29.1917   34.4656 H   0  0  0  0  0  0  0  0  0  0  0  0
   35.5897   27.4655   32.5212 H   0  0  0  0  0  0  0  0  0  0  0  0
   34.7713   29.0368   33.0250 H   0  0  0  0  0  0  0  0  0  0  0  0
   37.0693   27.6034   30.8035 H   0  0  0  0  0  0  0  0  0  0  0  0
   35.5923   28.4845   30.2483 H   0  0  0  0  0  0  0  0  0  0  0  0
   38.4487   29.4846   30.1627 H   0  0  0  0  0  0  0  0  0  0  0  0
   37.4146   28.9186   28.7695 H   0  0  0  0  0  0  0  0  0  0  0  0
   37.7370   31.5147   29.6216 H   0  0  0  0  0  0  0  0  0  0  0  0
   36.4152   30.8424   28.5693 H   0  0  0  0  0  0  0  0  0  0  0  0
   35.7852   32.2690   30.6489 H   0  0  0  0  0  0  0  0  0  0  0  0
   34.8934   30.7525   30.3076 H   0  0  0  0  0  0  0  0  0  0  0  0
   37.2508   31.1015   32.2019 H   0  0  0  0  0  0  0  0  0  0  0  0
   35.4800   30.8454   32.6261 H   0  0  0  0  0  0  0  0  0  0  0  0
  1  5  1  0
  1  8  1  0
  2  1  2  0
  3  2  1  0
  3  4  1  0
  4  5  2  0
  7  6  2  0
  8  7  1  0
  9  8  2  0
  9 10  1  0
 10 11  2  0
 11  6  1  0
 12  4  1  0
 13 12  1  0
 14 13  1  0
 15 14  1  0
 16 15  1  0
 17 16  1  0
 17 18  1  0
 18 19  1  0
 19 14  1  0
  6 20  1  0
  7 21  1  0
 10 22  1  0
 12 23  1  0
 12 24  1  0
 13 25  1  0
 13 26  1  0
 15 27  1  0
 15 28  1  0
 16 29  1  0
 16 30  1  0
 17 31  1  0
 17 32  1  0
 18 33  1  0
 18 34  1  0
 19 35  1  0
 19 36  1  0
M  ISO  8  20  14  21  14  22  14  23   8  24   8  25   8  26   8  27  13
M  ISO  8  28  13  29  13  30  13  31  13  32  13  33  13  34  13  35  13
M  ISO  1  36  13
M  END
>  <minimizedAffinity>  (1) 
-4.57209587

>  <minimizedRMSD>  (1) 
1.35750902

$$$$
