
     RDKit          3D

 27 29  0  0  0  0  0  0  0  0999 V2000
   37.9530   25.1740   34.8500 C   0  0  0  0  0  0  0  0  0  0  0  0
   37.8310   24.9100   33.5260 N   0  0  0  0  0  0  0  0  0  0  0  0
   37.2880   25.9640   32.9600 O   0  0  0  0  0  0  0  0  0  0  0  0
   37.0520   26.8950   33.8510 C   0  0  0  0  0  0  0  0  0  0  0  0
   37.4530   26.4400   35.0380 N   0  0  0  0  0  0  0  0  0  0  0  0
   38.3120   23.7140   38.2770 C   0  0  0  0  0  0  0  0  0  0  0  0
   37.7770   24.4650   37.2290 C   0  0  0  0  0  0  0  0  0  0  0  0
   38.4610   24.4160   35.9850 C   0  0  0  0  0  0  0  0  0  0  0  0
   39.5860   23.6460   35.8960 N   0  0  0  0  0  0  0  0  0  0  0  0
   40.0500   22.9480   36.9370 C   0  0  0  0  0  0  0  0  0  0  0  0
   39.4120   22.9850   38.1200 N   0  0  0  0  0  0  0  0  0  0  0  0
   36.4460   28.2020   33.5400 C   0  0  0  0  0  0  0  0  0  0  0  0
   35.6350   28.1090   32.2850 C   0  0  0  0  0  0  0  0  0  0  0  0
   36.2370   28.7300   31.1330 N   0  0  0  0  0  0  0  0  0  0  0  0
   36.3280   29.9830   30.7230 C   0  0  0  0  0  0  0  0  0  0  0  0
   36.9820   30.0250   29.5500 N   0  0  0  0  0  0  0  0  0  0  0  0
   37.3080   28.7570   29.2220 C   0  0  0  0  0  0  0  0  0  0  0  0
   36.8380   27.9890   30.2120 N   0  0  0  0  0  0  0  0  0  0  0  0
   37.8111   23.7259   39.2563 H   0  0  0  0  0  0  0  0  0  0  0  0
   36.8664   25.0678   37.3606 H   0  0  0  0  0  0  0  0  0  0  0  0
   40.9595   22.3395   36.8253 H   0  0  0  0  0  0  0  0  0  0  0  0
   35.7947   28.5079   34.3720 H   0  0  0  0  0  0  0  0  0  0  0  0
   37.2454   28.9440   33.3972 H   0  0  0  0  0  0  0  0  0  0  0  0
   35.4767   27.0446   32.0572 H   0  0  0  0  0  0  0  0  0  0  0  0
   34.6990   28.6535   32.4784 H   0  0  0  0  0  0  0  0  0  0  0  0
   35.9297   30.8569   31.2594 H   0  0  0  0  0  0  0  0  0  0  0  0
   37.8493   28.4232   28.3245 H   0  0  0  0  0  0  0  0  0  0  0  0
  1  5  1  0
  1  8  1  0
  2  1  2  0
  3  2  1  0
  3  4  1  0
  4  5  2  0
  7  6  2  0
  8  7  1  0
  9  8  2  0
  9 10  1  0
 10 11  2  0
 11  6  1  0
 12  4  1  0
 13 12  1  0
 14 13  1  0
 15 14  1  0
 16 15  2  0
 17 16  1  0
 17 18  2  0
 18 14  1  0
  6 19  1  0
  7 20  1  0
 10 21  1  0
 12 22  1  0
 12 23  1  0
 13 24  1  0
 13 25  1  0
 15 26  1  0
 17 27  1  0
M  ISO  8  19  14  20  14  21  14  22   8  23   8  24   8  25   8  26  14
M  ISO  1  27  14
M  END
>  <minimizedAffinity>  (1) 
-4.43729258

>  <minimizedRMSD>  (1) 
1.46275365

$$$$
