
     RDKit          3D

 28 30  0  0  0  0  0  0  0  0999 V2000
   37.8990   25.2460   34.9450 C   0  0  0  0  0  0  0  0  0  0  0  0
   37.8650   24.9830   33.6180 N   0  0  0  0  0  0  0  0  0  0  0  0
   37.3370   26.0240   33.0160 O   0  0  0  0  0  0  0  0  0  0  0  0
   37.0230   26.9530   33.8900 C   0  0  0  0  0  0  0  0  0  0  0  0
   37.3620   26.4960   35.0940 N   0  0  0  0  0  0  0  0  0  0  0  0
   38.2130   23.9670   38.4460 C   0  0  0  0  0  0  0  0  0  0  0  0
   37.7510   24.7080   37.3670 C   0  0  0  0  0  0  0  0  0  0  0  0
   38.3560   24.4900   36.1020 C   0  0  0  0  0  0  0  0  0  0  0  0
   39.3550   23.5640   36.0240 N   0  0  0  0  0  0  0  0  0  0  0  0
   39.7630   22.8750   37.0970 C   0  0  0  0  0  0  0  0  0  0  0  0
   39.1950   23.0770   38.3010 N   0  0  0  0  0  0  0  0  0  0  0  0
   36.4080   28.2450   33.5260 C   0  0  0  0  0  0  0  0  0  0  0  0
   35.6610   28.1010   32.2330 C   0  0  0  0  0  0  0  0  0  0  0  0
   36.2370   28.8470   31.1620 N   0  0  0  0  0  0  0  0  0  0  0  0
   36.4290   30.0970   30.7210 C   0  0  0  0  0  0  0  0  0  0  0  0
   37.0890   30.1760   29.5180 C   0  0  0  0  0  0  0  0  0  0  0  0
   37.3230   28.8900   29.1900 N   0  0  0  0  0  0  0  0  0  0  0  0
   36.8180   28.1100   30.1650 C   0  0  0  0  0  0  0  0  0  0  0  0
   37.7612   24.1167   39.4377 H   0  0  0  0  0  0  0  0  0  0  0  0
   36.9406   25.4418   37.4888 H   0  0  0  0  0  0  0  0  0  0  0  0
   40.5711   22.1358   36.9939 H   0  0  0  0  0  0  0  0  0  0  0  0
   35.7111   28.5548   34.3187 H   0  0  0  0  0  0  0  0  0  0  0  0
   37.1954   29.0043   33.4100 H   0  0  0  0  0  0  0  0  0  0  0  0
   35.6513   27.0375   31.9520 H   0  0  0  0  0  0  0  0  0  0  0  0
   34.6475   28.4959   32.3967 H   0  0  0  0  0  0  0  0  0  0  0  0
   36.0877   30.9844   31.2742 H   0  0  0  0  0  0  0  0  0  0  0  0
   37.3628   31.0796   28.9536 H   0  0  0  0  0  0  0  0  0  0  0  0
   36.8666   27.0111   30.1608 H   0  0  0  0  0  0  0  0  0  0  0  0
  1  5  1  0
  1  8  1  0
  2  1  2  0
  3  2  1  0
  3  4  1  0
  4  5  2  0
  7  6  2  0
  8  7  1  0
  9  8  2  0
  9 10  1  0
 10 11  2  0
 11  6  1  0
 12  4  1  0
 13 12  1  0
 14 13  1  0
 15 14  1  0
 16 15  2  0
 17 16  1  0
 17 18  2  0
 18 14  1  0
  6 19  1  0
  7 20  1  0
 10 21  1  0
 12 22  1  0
 12 23  1  0
 13 24  1  0
 13 25  1  0
 15 26  1  0
 16 27  1  0
 18 28  1  0
M  ISO  8  19  14  20  14  21  14  22   8  23   8  24   8  25   8  26  14
M  ISO  2  27  14  28  14
M  END
>  <minimizedAffinity>  (1) 
-4.42643404

>  <minimizedRMSD>  (1) 
1.61378634

$$$$
