
     RDKit          3D

 28 30  0  0  0  0  0  0  0  0999 V2000
   37.9620   25.1450   35.0690 C   0  0  0  0  0  0  0  0  0  0  0  0
   37.7620   24.9160   33.7520 N   0  0  0  0  0  0  0  0  0  0  0  0
   37.2100   25.9740   33.2230 O   0  0  0  0  0  0  0  0  0  0  0  0
   37.0350   26.9020   34.1500 C   0  0  0  0  0  0  0  0  0  0  0  0
   37.4940   26.4140   35.3080 N   0  0  0  0  0  0  0  0  0  0  0  0
   38.5090   23.5880   38.4320 C   0  0  0  0  0  0  0  0  0  0  0  0
   37.9420   24.3500   37.4230 C   0  0  0  0  0  0  0  0  0  0  0  0
   38.5300   24.3560   36.1510 C   0  0  0  0  0  0  0  0  0  0  0  0
   39.6670   23.5900   35.9570 N   0  0  0  0  0  0  0  0  0  0  0  0
   40.1740   22.8680   36.9770 C   0  0  0  0  0  0  0  0  0  0  0  0
   39.6020   22.8710   38.1890 N   0  0  0  0  0  0  0  0  0  0  0  0
   36.4400   28.2520   33.9630 C   0  0  0  0  0  0  0  0  0  0  0  0
   35.8310   28.2610   32.5640 C   0  0  0  0  0  0  0  0  0  0  0  0
   36.7530   29.0450   31.6490 C   0  0  0  0  0  0  0  0  0  0  0  0
   36.8260   28.7200   30.2120 C   0  0  0  0  0  0  0  0  0  0  0  0
   36.1540   29.9880   30.6660 C   0  0  0  0  0  0  0  0  0  0  0  0
   38.0549   23.5763   39.4338 H   0  0  0  0  0  0  0  0  0  0  0  0
   37.0379   24.9452   37.6189 H   0  0  0  0  0  0  0  0  0  0  0  0
   41.0774   22.2630   36.8104 H   0  0  0  0  0  0  0  0  0  0  0  0
   35.6614   28.4332   34.7186 H   0  0  0  0  0  0  0  0  0  0  0  0
   37.1974   29.0419   34.0747 H   0  0  0  0  0  0  0  0  0  0  0  0
   35.7301   27.2295   32.1955 H   0  0  0  0  0  0  0  0  0  0  0  0
   34.8344   28.7260   32.5871 H   0  0  0  0  0  0  0  0  0  0  0  0
   37.5006   29.1254   32.4518 H   0  0  0  0  0  0  0  0  0  0  0  0
   36.2248   27.8945   29.8033 H   0  0  0  0  0  0  0  0  0  0  0  0
   37.6365   28.4772   29.5090 H   0  0  0  0  0  0  0  0  0  0  0  0
   36.6272   30.9627   30.4762 H   0  0  0  0  0  0  0  0  0  0  0  0
   35.1638   30.4448   30.5217 H   0  0  0  0  0  0  0  0  0  0  0  0
  1  5  1  0
  1  8  1  0
  2  1  2  0
  3  2  1  0
  3  4  1  0
  4  5  2  0
  7  6  2  0
  8  7  1  0
  9  8  2  0
  9 10  1  0
 10 11  2  0
 11  6  1  0
 12  4  1  0
 13 12  1  0
 14 13  1  0
 15 16  1  0
 15 14  1  0
 16 14  1  0
  6 17  1  0
  7 18  1  0
 10 19  1  0
 12 20  1  0
 12 21  1  0
 13 22  1  0
 13 23  1  0
 14 24  1  0
 15 25  1  0
 15 26  1  0
 16 27  1  0
 16 28  1  0
M  ISO  8  17  14  18  14  19  14  20   8  21   8  22   8  23   8  24  13
M  ISO  4  25  13  26  13  27  13  28  13
M  END
>  <minimizedAffinity>  (1) 
-4.24418211

>  <minimizedRMSD>  (1) 
0.772937894

$$$$
