
     RDKit          3D

 22 23  0  0  0  0  0  0  0  0999 V2000
   37.9830   25.2230   35.2020 C   0  0  0  0  0  0  0  0  0  0  0  0
   37.7550   25.0800   33.8760 N   0  0  0  0  0  0  0  0  0  0  0  0
   37.1660   26.1420   33.4250 O   0  0  0  0  0  0  0  0  0  0  0  0
   36.9890   27.0070   34.4250 C   0  0  0  0  0  0  0  0  0  0  0  0
   37.4910   26.4460   35.5210 N   0  0  0  0  0  0  0  0  0  0  0  0
   38.6860   23.4440   38.4030 C   0  0  0  0  0  0  0  0  0  0  0  0
   38.0100   24.2820   37.5060 C   0  0  0  0  0  0  0  0  0  0  0  0
   38.6020   24.3740   36.2250 C   0  0  0  0  0  0  0  0  0  0  0  0
   39.7590   23.6680   35.9360 N   0  0  0  0  0  0  0  0  0  0  0  0
   40.3430   22.8830   36.8650 C   0  0  0  0  0  0  0  0  0  0  0  0
   39.7970   22.7810   38.0890 N   0  0  0  0  0  0  0  0  0  0  0  0
   36.3450   28.3660   34.3430 C   0  0  0  0  0  0  0  0  0  0  0  0
   36.0840   28.5920   32.8550 C   0  0  0  0  0  0  0  0  0  0  0  0
   36.0610   29.9180   32.5010 O   0  0  0  0  0  0  0  0  0  0  0  0
   38.2780   23.3281   39.4179 H   0  0  0  0  0  0  0  0  0  0  0  0
   37.0923   24.8248   37.7767 H   0  0  0  0  0  0  0  0  0  0  0  0
   41.2617   22.3290   36.6219 H   0  0  0  0  0  0  0  0  0  0  0  0
   35.4010   28.3810   34.9075 H   0  0  0  0  0  0  0  0  0  0  0  0
   36.9829   29.1517   34.7741 H   0  0  0  0  0  0  0  0  0  0  0  0
   36.8784   28.0917   32.2817 H   0  0  0  0  0  0  0  0  0  0  0  0
   35.0887   28.1794   32.6335 H   0  0  0  0  0  0  0  0  0  0  0  0
   36.0513   30.4775   33.3177 H   0  0  0  0  0  0  0  0  0  0  0  0
  1  5  1  0
  1  8  1  0
  2  1  2  0
  3  2  1  0
  3  4  1  0
  4  5  2  0
  7  6  2  0
  8  7  1  0
  9  8  2  0
  9 10  1  0
 10 11  2  0
 11  6  1  0
 12  4  1  0
 13 12  1  0
 14 13  1  0
  6 15  1  0
  7 16  1  0
 10 17  1  0
 12 18  1  0
 12 19  1  0
 13 20  1  0
 13 21  1  0
 14 22  1  0
M  ISO  8  15  14  16  14  17  14  18   8  19   8  20   8  21   8  22   3
M  END
>  <minimizedAffinity>  (1) 
-3.83237624

>  <minimizedRMSD>  (1) 
0.12258368

$$$$
