
     RDKit          3D

 23 24  0  0  0  0  0  0  0  0999 V2000
   37.9770   25.2350   35.1930 C   0  0  0  0  0  0  0  0  0  0  0  0
   37.7490   25.0930   33.8650 N   0  0  0  0  0  0  0  0  0  0  0  0
   37.1630   26.1480   33.4210 O   0  0  0  0  0  0  0  0  0  0  0  0
   36.9830   27.0130   34.4170 C   0  0  0  0  0  0  0  0  0  0  0  0
   37.4850   26.4540   35.5140 N   0  0  0  0  0  0  0  0  0  0  0  0
   38.6750   23.4490   38.3980 C   0  0  0  0  0  0  0  0  0  0  0  0
   38.0290   24.2740   37.4870 C   0  0  0  0  0  0  0  0  0  0  0  0
   38.5960   24.3860   36.2110 C   0  0  0  0  0  0  0  0  0  0  0  0
   39.7380   23.6800   35.9520 N   0  0  0  0  0  0  0  0  0  0  0  0
   40.3390   22.8940   36.8450 C   0  0  0  0  0  0  0  0  0  0  0  0
   39.7960   22.7810   38.0800 N   0  0  0  0  0  0  0  0  0  0  0  0
   36.3410   28.3690   34.3460 C   0  0  0  0  0  0  0  0  0  0  0  0
   36.1500   28.6600   32.8590 C   0  0  0  0  0  0  0  0  0  0  0  0
   35.5210   29.9520   32.7730 N   0  0  0  0  0  0  0  0  0  0  0  0
   38.2566   23.3393   39.4094 H   0  0  0  0  0  0  0  0  0  0  0  0
   37.1108   24.8167   37.7559 H   0  0  0  0  0  0  0  0  0  0  0  0
   41.2576   22.3482   36.5838 H   0  0  0  0  0  0  0  0  0  0  0  0
   35.3700   28.3609   34.8628 H   0  0  0  0  0  0  0  0  0  0  0  0
   36.9601   29.1367   34.8331 H   0  0  0  0  0  0  0  0  0  0  0  0
   37.1234   28.6763   32.3469 H   0  0  0  0  0  0  0  0  0  0  0  0
   35.5350   27.8853   32.3778 H   0  0  0  0  0  0  0  0  0  0  0  0
   35.3456   30.3123   33.7218 H   0  0  0  0  0  0  0  0  0  0  0  0
   36.1398   30.6022   32.2678 H   0  0  0  0  0  0  0  0  0  0  0  0
  1  5  1  0
  1  8  1  0
  2  1  2  0
  3  2  1  0
  3  4  1  0
  4  5  2  0
  7  6  2  0
  8  7  1  0
  9  8  2  0
  9 10  1  0
 10 11  2  0
 11  6  1  0
 12  4  1  0
 13 12  1  0
 14 13  1  0
  6 15  1  0
  7 16  1  0
 10 17  1  0
 12 18  1  0
 12 19  1  0
 13 20  1  0
 13 21  1  0
 14 22  1  0
 14 23  1  0
M  ISO  8  15  14  16  14  17  14  18   8  19   8  20   8  21   8  22   5
M  ISO  1  23   5
M  END
>  <minimizedAffinity>  (1) 
-3.81068873

>  <minimizedRMSD>  (1) 
0.107587822

$$$$
