
     RDKit          3D

 22 23  0  0  0  0  0  0  0  0999 V2000
   37.9350   25.2240   35.0120 C   0  0  0  0  0  0  0  0  0  0  0  0
   37.7720   25.0310   33.6880 N   0  0  0  0  0  0  0  0  0  0  0  0
   37.2120   26.0870   33.1720 O   0  0  0  0  0  0  0  0  0  0  0  0
   36.9960   26.9890   34.1350 C   0  0  0  0  0  0  0  0  0  0  0  0
   37.4380   26.4740   35.2860 N   0  0  0  0  0  0  0  0  0  0  0  0
   38.4620   23.5860   38.3310 C   0  0  0  0  0  0  0  0  0  0  0  0
   37.8630   24.3850   37.3560 C   0  0  0  0  0  0  0  0  0  0  0  0
   38.4950   24.4100   36.0980 C   0  0  0  0  0  0  0  0  0  0  0  0
   39.6470   23.6630   35.8900 N   0  0  0  0  0  0  0  0  0  0  0  0
   40.1590   22.9190   36.8840 C   0  0  0  0  0  0  0  0  0  0  0  0
   39.5670   22.8820   38.0980 N   0  0  0  0  0  0  0  0  0  0  0  0
   36.3740   28.3250   33.9400 C   0  0  0  0  0  0  0  0  0  0  0  0
   35.6970   28.2970   32.5740 C   0  0  0  0  0  0  0  0  0  0  0  0
   36.5710   29.2660   31.3510 S   0  0  0  0  0  0  0  0  0  0  0  0
   38.0035   23.5363   39.3296 H   0  0  0  0  0  0  0  0  0  0  0  0
   36.9490   24.9625   37.5588 H   0  0  0  0  0  0  0  0  0  0  0  0
   41.0724   22.3320   36.7075 H   0  0  0  0  0  0  0  0  0  0  0  0
   35.6305   28.5158   34.7279 H   0  0  0  0  0  0  0  0  0  0  0  0
   37.1280   29.1243   33.9920 H   0  0  0  0  0  0  0  0  0  0  0  0
   35.6473   27.2543   32.2271 H   0  0  0  0  0  0  0  0  0  0  0  0
   34.6947   28.7349   32.6907 H   0  0  0  0  0  0  0  0  0  0  0  0
   37.3858   30.1693   31.9812 H   0  0  0  0  0  0  0  0  0  0  0  0
  1  5  1  0
  1  8  1  0
  2  1  2  0
  3  2  1  0
  3  4  1  0
  4  5  2  0
  7  6  2  0
  8  7  1  0
  9  8  2  0
  9 10  1  0
 10 11  2  0
 11  6  1  0
 12  4  1  0
 13 12  1  0
 14 13  1  0
  6 15  1  0
  7 16  1  0
 10 17  1  0
 12 18  1  0
 12 19  1  0
 13 20  1  0
 13 21  1  0
 14 22  1  0
M  ISO  8  15  14  16  14  17  14  18   8  19   8  20   8  21   8  22  11
M  END
>  <minimizedAffinity>  (1) 
-3.80130768

>  <minimizedRMSD>  (1) 
0.592334867

$$$$
