
     RDKit          3D

 42 46  0  0  0  0  0  0  0  0999 V2000
   36.0590   28.6340   33.4900 C   0  0  0  0  0  0  0  0  0  0  0  0
   35.9540   29.8840   32.7420 C   0  0  0  0  0  0  0  0  0  0  0  0
   36.1150   30.2380   31.4180 C   0  0  0  0  0  0  0  0  0  0  0  0
   35.9000   31.5460   31.2170 N   0  0  0  0  0  0  0  0  0  0  0  0
   35.5920   32.0780   32.4070 C   0  0  0  0  0  0  0  0  0  0  0  0
   35.6250   31.0930   33.3060 N   0  0  0  0  0  0  0  0  0  0  0  0
   35.3320   31.3780   34.6810 C   0  0  0  0  0  0  0  0  0  0  0  0
   36.0980   31.8940   35.7080 C   0  0  0  0  0  0  0  0  0  0  0  0
   35.3600   31.9740   36.8290 N   0  0  0  0  0  0  0  0  0  0  0  0
   34.1130   31.5250   36.5830 C   0  0  0  0  0  0  0  0  0  0  0  0
   32.9800   31.3970   37.3850 C   0  0  0  0  0  0  0  0  0  0  0  0
   31.8020   30.8860   36.8340 C   0  0  0  0  0  0  0  0  0  0  0  0
   31.7820   30.5180   35.5090 C   0  0  0  0  0  0  0  0  0  0  0  0
   32.9130   30.6420   34.6960 C   0  0  0  0  0  0  0  0  0  0  0  0
   34.0800   31.1520   35.2540 C   0  0  0  0  0  0  0  0  0  0  0  0
   37.1630   27.7110   33.1120 C   0  0  0  0  0  0  0  0  0  0  0  0
   36.2060   24.4580   31.8230 C   0  0  0  0  0  0  0  0  0  0  0  0
   35.5240   25.3190   31.0400 N   0  0  0  0  0  0  0  0  0  0  0  0
   35.8200   26.5320   31.4460 O   0  0  0  0  0  0  0  0  0  0  0  0
   36.6510   26.5110   32.4460 C   0  0  0  0  0  0  0  0  0  0  0  0
   36.9120   25.2420   32.7060 N   0  0  0  0  0  0  0  0  0  0  0  0
   37.2540   21.0200   32.8680 C   0  0  0  0  0  0  0  0  0  0  0  0
   37.1960   22.4030   32.8520 C   0  0  0  0  0  0  0  0  0  0  0  0
   36.3280   23.0030   31.9080 C   0  0  0  0  0  0  0  0  0  0  0  0
   35.6000   22.1820   31.0730 N   0  0  0  0  0  0  0  0  0  0  0  0
   35.7040   20.8570   31.1430 C   0  0  0  0  0  0  0  0  0  0  0  0
   36.5150   20.2820   32.0220 N   0  0  0  0  0  0  0  0  0  0  0  0
   36.1912   28.8924   34.5510 H   0  0  0  0  0  0  0  0  0  0  0  0
   35.1350   28.0840   33.2581 H   0  0  0  0  0  0  0  0  0  0  0  0
   36.3877   29.5303   30.6212 H   0  0  0  0  0  0  0  0  0  0  0  0
   35.3553   33.1335   32.6064 H   0  0  0  0  0  0  0  0  0  0  0  0
   37.1527   32.1942   35.6218 H   0  0  0  0  0  0  0  0  0  0  0  0
   35.6962   32.3248   37.7372 H   0  0  0  0  0  0  0  0  0  0  0  0
   33.0131   31.6959   38.4431 H   0  0  0  0  0  0  0  0  0  0  0  0
   30.8996   30.7791   37.4538 H   0  0  0  0  0  0  0  0  0  0  0  0
   30.8532   30.1161   35.0780 H   0  0  0  0  0  0  0  0  0  0  0  0
   32.8802   30.3426   33.6380 H   0  0  0  0  0  0  0  0  0  0  0  0
   37.8491   28.2340   32.4296 H   0  0  0  0  0  0  0  0  0  0  0  0
   37.6856   27.4019   34.0292 H   0  0  0  0  0  0  0  0  0  0  0  0
   37.9171   20.5157   33.5863 H   0  0  0  0  0  0  0  0  0  0  0  0
   37.7988   23.0101   33.5434 H   0  0  0  0  0  0  0  0  0  0  0  0
   35.1093   20.2297   30.4627 H   0  0  0  0  0  0  0  0  0  0  0  0
  2  6  1  0
  2  1  1  0
  3  2  2  0
  4  3  1  0
  4  5  2  0
  5  6  1  0
  6  7  1  0
  7 15  1  0
  7  8  2  0
  8  9  1  0
 10  9  1  0
 10 11  2  0
 12 11  1  0
 13 12  2  0
 14 15  2  0
 14 13  1  0
 15 10  1  0
 16  1  1  0
 17 24  1  0
 17 21  1  0
 18 19  1  0
 18 17  2  0
 19 20  1  0
 20 21  2  0
 20 16  1  0
 23 22  2  0
 24 23  1  0
 25 26  1  0
 25 24  2  0
 26 27  2  0
 27 22  1  0
  1 28  1  0
  1 29  1  0
  3 30  1  0
  5 31  1  0
  8 32  1  0
  9 33  1  0
 11 34  1  0
 12 35  1  0
 13 36  1  0
 14 37  1  0
 16 38  1  0
 16 39  1  0
 22 40  1  0
 23 41  1  0
 26 42  1  0
M  ISO  8  28   8  29   8  30  14  31  14  32  14  33   9  34  14  35  14
M  ISO  7  36  14  37  14  38   8  39   8  40  14  41  14  42  14
M  END
>  <minimizedAffinity>  (1) 
-5.88051796

>  <minimizedRMSD>  (1) 
7.1202116

$$$$
