
     RDKit          3D

 39 43  0  0  0  0  0  0  0  0999 V2000
   35.7150   28.5440   33.4710 C   0  0  0  0  0  0  0  0  0  0  0  0
   36.1120   29.1410   32.1970 C   0  0  0  0  0  0  0  0  0  0  0  0
   36.3100   30.4370   31.7630 C   0  0  0  0  0  0  0  0  0  0  0  0
   36.6800   30.4660   30.4780 N   0  0  0  0  0  0  0  0  0  0  0  0
   36.7340   29.2130   30.0350 C   0  0  0  0  0  0  0  0  0  0  0  0
   36.3950   28.4290   31.0620 N   0  0  0  0  0  0  0  0  0  0  0  0
   39.0130   24.6600   30.6200 N   0  0  0  0  0  0  0  0  0  0  0  0
   39.7240   25.8120   30.6480 C   0  0  0  0  0  0  0  0  0  0  0  0
   38.8840   26.8650   30.7790 N   0  0  0  0  0  0  0  0  0  0  0  0
   37.6060   26.4260   30.8400 C   0  0  0  0  0  0  0  0  0  0  0  0
   36.3380   26.9840   30.9680 C   0  0  0  0  0  0  0  0  0  0  0  0
   35.2450   26.2230   30.9930 N   0  0  0  0  0  0  0  0  0  0  0  0
   35.4020   24.8890   30.8920 C   0  0  0  0  0  0  0  0  0  0  0  0
   36.6160   24.2870   30.7640 N   0  0  0  0  0  0  0  0  0  0  0  0
   37.7460   25.0430   30.7360 C   0  0  0  0  0  0  0  0  0  0  0  0
   36.7600   28.4350   34.5240 C   0  0  0  0  0  0  0  0  0  0  0  0
   37.9730   25.1550   35.4950 C   0  0  0  0  0  0  0  0  0  0  0  0
   37.4930   24.9580   34.2540 N   0  0  0  0  0  0  0  0  0  0  0  0
   37.0280   26.1070   33.8170 O   0  0  0  0  0  0  0  0  0  0  0  0
   37.1810   27.0390   34.7130 C   0  0  0  0  0  0  0  0  0  0  0  0
   37.7630   26.4890   35.7660 N   0  0  0  0  0  0  0  0  0  0  0  0
   38.7630   23.4170   38.7210 C   0  0  0  0  0  0  0  0  0  0  0  0
   38.0880   24.2390   37.8210 C   0  0  0  0  0  0  0  0  0  0  0  0
   38.6080   24.3200   36.5110 C   0  0  0  0  0  0  0  0  0  0  0  0
   39.7440   23.5830   36.2110 N   0  0  0  0  0  0  0  0  0  0  0  0
   40.3370   22.8180   37.1210 C   0  0  0  0  0  0  0  0  0  0  0  0
   39.8570   22.7320   38.3630 N   0  0  0  0  0  0  0  0  0  0  0  0
   35.3492   27.5281   33.2610 H   0  0  0  0  0  0  0  0  0  0  0  0
   34.9642   29.2327   33.8859 H   0  0  0  0  0  0  0  0  0  0  0  0
   36.1802   31.3297   32.3925 H   0  0  0  0  0  0  0  0  0  0  0  0
   37.0051   28.8860   29.0203 H   0  0  0  0  0  0  0  0  0  0  0  0
   39.3742   23.6997   30.5290 H   0  0  0  0  0  0  0  0  0  0  0  0
   40.8194   25.8815   30.5752 H   0  0  0  0  0  0  0  0  0  0  0  0
   34.5039   24.2542   30.9141 H   0  0  0  0  0  0  0  0  0  0  0  0
   37.6324   29.0358   34.2273 H   0  0  0  0  0  0  0  0  0  0  0  0
   36.3395   28.8032   35.4714 H   0  0  0  0  0  0  0  0  0  0  0  0
   38.3881   23.3283   39.7513 H   0  0  0  0  0  0  0  0  0  0  0  0
   37.1897   24.8000   38.1180 H   0  0  0  0  0  0  0  0  0  0  0  0
   41.2365   22.2474   36.8467 H   0  0  0  0  0  0  0  0  0  0  0  0
  1 16  1  0
  2  1  1  0
  3  2  2  0
  4  3  1  0
  5  4  2  0
  5  6  1  0
  6  2  1  0
  7  8  1  0
  7 15  1  0
  8  9  2  0
  9 10  1  0
 10 11  2  0
 11 12  1  0
 11  6  1  0
 13 12  2  0
 14 13  1  0
 15 14  2  0
 15 10  1  0
 16 20  1  0
 17 21  1  0
 17 24  1  0
 18 17  2  0
 19 18  1  0
 19 20  1  0
 20 21  2  0
 23 22  2  0
 24 23  1  0
 25 24  2  0
 25 26  1  0
 26 27  2  0
 27 22  1  0
  1 28  1  0
  1 29  1  0
  3 30  1  0
  5 31  1  0
  7 32  1  0
  8 33  1  0
 13 34  1  0
 16 35  1  0
 16 36  1  0
 22 37  1  0
 23 38  1  0
 26 39  1  0
M  ISO  8  28   8  29   8  30  14  31  14  32   9  33  14  34  14  35   8
M  ISO  4  36   8  37  14  38  14  39  14
M  END
>  <minimizedAffinity>  (1) 
-5.51192713

>  <minimizedRMSD>  (1) 
1.18282831

$$$$
