
     RDKit          3D

 38 41  0  0  0  0  0  0  0  0999 V2000
   35.5190   28.3100   33.0680 C   0  0  0  0  0  0  0  0  0  0  0  0
   36.0820   28.7230   31.7820 C   0  0  0  0  0  0  0  0  0  0  0  0
   36.4010   29.9350   31.1880 C   0  0  0  0  0  0  0  0  0  0  0  0
   36.9090   29.7400   29.9700 N   0  0  0  0  0  0  0  0  0  0  0  0
   36.9450   28.4360   29.7150 C   0  0  0  0  0  0  0  0  0  0  0  0
   36.4500   27.8320   30.7970 N   0  0  0  0  0  0  0  0  0  0  0  0
   36.3210   26.3990   30.9110 C   0  0  0  0  0  0  0  0  0  0  0  0
   35.1140   25.7020   30.9900 C   0  0  0  0  0  0  0  0  0  0  0  0
   35.1570   24.3260   31.0960 C   0  0  0  0  0  0  0  0  0  0  0  0
   36.3390   23.6110   31.1280 C   0  0  0  0  0  0  0  0  0  0  0  0
   37.5250   24.3110   31.0500 C   0  0  0  0  0  0  0  0  0  0  0  0
   37.5240   25.6830   30.9430 C   0  0  0  0  0  0  0  0  0  0  0  0
   36.3470   28.5980   34.2720 C   0  0  0  0  0  0  0  0  0  0  0  0
   38.4870   25.8440   35.2710 C   0  0  0  0  0  0  0  0  0  0  0  0
   39.0810   26.3140   34.1600 N   0  0  0  0  0  0  0  0  0  0  0  0
   38.3620   27.3260   33.7250 O   0  0  0  0  0  0  0  0  0  0  0  0
   37.3360   27.5380   34.4940 C   0  0  0  0  0  0  0  0  0  0  0  0
   37.3790   26.6370   35.4660 N   0  0  0  0  0  0  0  0  0  0  0  0
   38.3230   23.5670   38.2400 C   0  0  0  0  0  0  0  0  0  0  0  0
   37.9910   24.6160   37.3940 C   0  0  0  0  0  0  0  0  0  0  0  0
   38.7600   24.7670   36.2200 C   0  0  0  0  0  0  0  0  0  0  0  0
   39.7920   23.8630   35.9860 N   0  0  0  0  0  0  0  0  0  0  0  0
   40.0500   22.8880   36.8400 C   0  0  0  0  0  0  0  0  0  0  0  0
   39.3310   22.7330   37.9530 N   0  0  0  0  0  0  0  0  0  0  0  0
   35.3521   27.2235   33.0277 H   0  0  0  0  0  0  0  0  0  0  0  0
   34.6023   28.9051   33.1924 H   0  0  0  0  0  0  0  0  0  0  0  0
   36.2554   30.9198   31.6560 H   0  0  0  0  0  0  0  0  0  0  0  0
   37.3095   27.9521   28.7968 H   0  0  0  0  0  0  0  0  0  0  0  0
   34.1525   26.2358   30.9683 H   0  0  0  0  0  0  0  0  0  0  0  0
   34.2075   23.7741   31.1578 H   0  0  0  0  0  0  0  0  0  0  0  0
   36.3343   22.5143   31.2133 H   0  0  0  0  0  0  0  0  0  0  0  0
   38.4809   23.7672   31.0736 H   0  0  0  0  0  0  0  0  0  0  0  0
   38.4799   26.2238   30.8819 H   0  0  0  0  0  0  0  0  0  0  0  0
   36.8707   29.5546   34.1283 H   0  0  0  0  0  0  0  0  0  0  0  0
   35.6851   28.6498   35.1490 H   0  0  0  0  0  0  0  0  0  0  0  0
   37.7466   23.4175   39.1649 H   0  0  0  0  0  0  0  0  0  0  0  0
   37.1631   25.3012   37.6286 H   0  0  0  0  0  0  0  0  0  0  0  0
   40.8739   22.1904   36.6289 H   0  0  0  0  0  0  0  0  0  0  0  0
  1 13  1  0
  2  1  1  0
  3  2  2  0
  4  3  1  0
  5  4  2  0
  5  6  1  0
  6  7  1  0
  6  2  1  0
  7 12  1  0
  7  8  2  0
  8  9  1  0
  9 10  2  0
 11 10  1  0
 12 11  2  0
 13 17  1  0
 14 18  1  0
 14 21  1  0
 15 14  2  0
 16 15  1  0
 16 17  1  0
 17 18  2  0
 20 19  2  0
 21 20  1  0
 22 21  2  0
 22 23  1  0
 23 24  2  0
 24 19  1  0
  1 25  1  0
  1 26  1  0
  3 27  1  0
  5 28  1  0
  8 29  1  0
  9 30  1  0
 10 31  1  0
 11 32  1  0
 12 33  1  0
 13 34  1  0
 13 35  1  0
 19 36  1  0
 20 37  1  0
 23 38  1  0
M  ISO  8  25   8  26   8  27  14  28  14  29  14  30  14  31  14  32  14
M  ISO  6  33  14  34   8  35   8  36  14  37  14  38  14
M  END
>  <minimizedAffinity>  (1) 
-5.38243008

>  <minimizedRMSD>  (1) 
1.10151756

$$$$
