
     RDKit          3D

 35 38  0  0  0  0  0  0  0  0999 V2000
   36.5600   28.3180   34.2670 C   0  0  0  0  0  0  0  0  0  0  0  0
   38.0560   25.1840   35.3280 C   0  0  0  0  0  0  0  0  0  0  0  0
   37.8980   25.0220   34.0040 N   0  0  0  0  0  0  0  0  0  0  0  0
   37.3550   26.1230   33.5340 O   0  0  0  0  0  0  0  0  0  0  0  0
   37.1520   26.9940   34.4820 C   0  0  0  0  0  0  0  0  0  0  0  0
   37.5780   26.4380   35.6020 N   0  0  0  0  0  0  0  0  0  0  0  0
   38.5490   23.5880   38.6720 C   0  0  0  0  0  0  0  0  0  0  0  0
   37.9820   24.3960   37.6970 C   0  0  0  0  0  0  0  0  0  0  0  0
   38.5840   24.3680   36.4130 C   0  0  0  0  0  0  0  0  0  0  0  0
   39.6880   23.5460   36.2160 N   0  0  0  0  0  0  0  0  0  0  0  0
   40.1760   22.7990   37.2000 C   0  0  0  0  0  0  0  0  0  0  0  0
   39.6180   22.8150   38.4180 N   0  0  0  0  0  0  0  0  0  0  0  0
   35.6300   28.3050   33.1040 C   0  0  0  0  0  0  0  0  0  0  0  0
   36.1730   28.7090   31.8120 C   0  0  0  0  0  0  0  0  0  0  0  0
   36.5800   29.9140   31.2780 C   0  0  0  0  0  0  0  0  0  0  0  0
   37.0190   29.7580   30.0150 N   0  0  0  0  0  0  0  0  0  0  0  0
   36.9070   28.4520   29.7020 C   0  0  0  0  0  0  0  0  0  0  0  0
   36.4030   27.8520   30.7800 N   0  0  0  0  0  0  0  0  0  0  0  0
   36.1380   26.4300   30.8250 C   0  0  0  0  0  0  0  0  0  0  0  0
   34.9450   25.7430   30.9360 C   0  0  0  0  0  0  0  0  0  0  0  0
   35.2200   24.4130   30.9340 N   0  0  0  0  0  0  0  0  0  0  0  0
   36.5680   24.3100   30.8220 C   0  0  0  0  0  0  0  0  0  0  0  0
   37.1530   25.5340   30.7540 N   0  0  0  0  0  0  0  0  0  0  0  0
   36.0040   28.6140   35.1688 H   0  0  0  0  0  0  0  0  0  0  0  0
   37.3691   29.0340   34.0604 H   0  0  0  0  0  0  0  0  0  0  0  0
   38.1111   23.5801   39.6810 H   0  0  0  0  0  0  0  0  0  0  0  0
   37.1073   25.0282   37.9096 H   0  0  0  0  0  0  0  0  0  0  0  0
   41.0503   22.1584   37.0123 H   0  0  0  0  0  0  0  0  0  0  0  0
   35.2488   27.2788   32.9965 H   0  0  0  0  0  0  0  0  0  0  0  0
   34.8687   29.0627   33.3412 H   0  0  0  0  0  0  0  0  0  0  0  0
   36.5498   30.8746   31.8130 H   0  0  0  0  0  0  0  0  0  0  0  0
   37.1775   27.9764   28.7477 H   0  0  0  0  0  0  0  0  0  0  0  0
   33.9451   26.1949   31.0128 H   0  0  0  0  0  0  0  0  0  0  0  0
   37.1170   23.3573   30.7903 H   0  0  0  0  0  0  0  0  0  0  0  0
   38.1586   25.7388   30.6667 H   0  0  0  0  0  0  0  0  0  0  0  0
  1  5  1  0
  2  6  1  0
  2  9  1  0
  3  2  2  0
  4  3  1  0
  4  5  1  0
  5  6  2  0
  8  7  2  0
  9  8  1  0
 10  9  2  0
 10 11  1  0
 11 12  2  0
 12  7  1  0
 13  1  1  0
 14 13  1  0
 15 14  2  0
 16 15  1  0
 17 16  2  0
 17 18  1  0
 18 19  1  0
 18 14  1  0
 19 20  2  0
 21 20  1  0
 22 21  2  0
 23 22  1  0
 23 19  1  0
  1 24  1  0
  1 25  1  0
  7 26  1  0
  8 27  1  0
 11 28  1  0
 13 29  1  0
 13 30  1  0
 15 31  1  0
 17 32  1  0
 20 33  1  0
 22 34  1  0
 23 35  1  0
M  ISO  8  24   8  25   8  26  14  27  14  28  14  29   8  30   8  31  14
M  ISO  4  32  14  33  14  34  14  35   9
M  END
>  <minimizedAffinity>  (1) 
-5.31239843

>  <minimizedRMSD>  (1) 
0.913196087

$$$$
