
     RDKit          3D

 35 38  0  0  0  0  0  0  0  0999 V2000
   36.3600   28.4110   34.3710 C   0  0  0  0  0  0  0  0  0  0  0  0
   37.9550   25.2550   35.1850 C   0  0  0  0  0  0  0  0  0  0  0  0
   37.7000   25.1430   33.8710 N   0  0  0  0  0  0  0  0  0  0  0  0
   37.1140   26.2560   33.4860 O   0  0  0  0  0  0  0  0  0  0  0  0
   36.9760   27.0890   34.4880 C   0  0  0  0  0  0  0  0  0  0  0  0
   37.4860   26.4970   35.5500 N   0  0  0  0  0  0  0  0  0  0  0  0
   38.6620   23.4750   38.4080 C   0  0  0  0  0  0  0  0  0  0  0  0
   38.0180   24.2970   37.4980 C   0  0  0  0  0  0  0  0  0  0  0  0
   38.5710   24.4080   36.2050 C   0  0  0  0  0  0  0  0  0  0  0  0
   39.7270   23.6890   35.9180 N   0  0  0  0  0  0  0  0  0  0  0  0
   40.2830   22.9230   36.8460 C   0  0  0  0  0  0  0  0  0  0  0  0
   39.7690   22.8110   38.0720 N   0  0  0  0  0  0  0  0  0  0  0  0
   35.6440   28.5530   33.0750 C   0  0  0  0  0  0  0  0  0  0  0  0
   36.0300   29.6680   32.2110 C   0  0  0  0  0  0  0  0  0  0  0  0
   35.7340   31.0120   32.1880 C   0  0  0  0  0  0  0  0  0  0  0  0
   36.3650   31.6190   31.1590 N   0  0  0  0  0  0  0  0  0  0  0  0
   37.0690   30.7000   30.5040 C   0  0  0  0  0  0  0  0  0  0  0  0
   36.8610   29.5450   31.1390 N   0  0  0  0  0  0  0  0  0  0  0  0
   37.6950   26.1650   30.2660 N   0  0  0  0  0  0  0  0  0  0  0  0
   36.8520   27.0930   30.7170 N   0  0  0  0  0  0  0  0  0  0  0  0
   37.4670   28.3030   30.7140 C   0  0  0  0  0  0  0  0  0  0  0  0
   38.7550   28.1070   30.2350 C   0  0  0  0  0  0  0  0  0  0  0  0
   38.8790   26.7520   29.9580 C   0  0  0  0  0  0  0  0  0  0  0  0
   35.6438   28.5482   35.1945 H   0  0  0  0  0  0  0  0  0  0  0  0
   37.1526   29.1722   34.4186 H   0  0  0  0  0  0  0  0  0  0  0  0
   38.2540   23.3681   39.4239 H   0  0  0  0  0  0  0  0  0  0  0  0
   37.1053   24.8452   37.7745 H   0  0  0  0  0  0  0  0  0  0  0  0
   41.1963   22.3625   36.5976 H   0  0  0  0  0  0  0  0  0  0  0  0
   35.8034   27.6248   32.5067 H   0  0  0  0  0  0  0  0  0  0  0  0
   34.5999   28.7605   33.3520 H   0  0  0  0  0  0  0  0  0  0  0  0
   35.0755   31.5210   32.9072 H   0  0  0  0  0  0  0  0  0  0  0  0
   37.6976   30.8602   29.6156 H   0  0  0  0  0  0  0  0  0  0  0  0
   37.4820   25.1622   30.1670 H   0  0  0  0  0  0  0  0  0  0  0  0
   39.5288   28.8772   30.1007 H   0  0  0  0  0  0  0  0  0  0  0  0
   39.7725   26.2474   29.5618 H   0  0  0  0  0  0  0  0  0  0  0  0
  1  5  1  0
  2  6  1  0
  2  9  1  0
  3  2  2  0
  4  3  1  0
  4  5  1  0
  5  6  2  0
  8  7  2  0
  9  8  1  0
 10  9  2  0
 10 11  1  0
 11 12  2  0
 12  7  1  0
 13  1  1  0
 14 13  1  0
 15 14  2  0
 16 15  1  0
 17 18  1  0
 17 16  2  0
 18 14  1  0
 19 20  1  0
 21 20  2  0
 21 18  1  0
 22 21  1  0
 23 22  2  0
 23 19  1  0
  1 24  1  0
  1 25  1  0
  7 26  1  0
  8 27  1  0
 11 28  1  0
 13 29  1  0
 13 30  1  0
 15 31  1  0
 17 32  1  0
 19 33  1  0
 22 34  1  0
 23 35  1  0
M  ISO  8  24   8  25   8  26  14  27  14  28  14  29   8  30   8  31  14
M  ISO  4  32  14  33   9  34  14  35  14
M  END
>  <minimizedAffinity>  (1) 
-5.26961184

>  <minimizedRMSD>  (1) 
1.64251733

$$$$
