
     RDKit          3D

 35 38  0  0  0  0  0  0  0  0999 V2000
   36.6620   28.3120   34.3820 C   0  0  0  0  0  0  0  0  0  0  0  0
   38.0700   25.1550   35.4660 C   0  0  0  0  0  0  0  0  0  0  0  0
   37.8210   24.9440   34.1440 N   0  0  0  0  0  0  0  0  0  0  0  0
   37.3030   26.0570   33.6760 O   0  0  0  0  0  0  0  0  0  0  0  0
   37.2030   26.9650   34.6060 C   0  0  0  0  0  0  0  0  0  0  0  0
   37.6710   26.4300   35.7120 N   0  0  0  0  0  0  0  0  0  0  0  0
   38.6000   23.4940   38.7660 C   0  0  0  0  0  0  0  0  0  0  0  0
   38.0100   24.3200   37.8070 C   0  0  0  0  0  0  0  0  0  0  0  0
   38.6330   24.3170   36.5180 C   0  0  0  0  0  0  0  0  0  0  0  0
   39.7400   23.5220   36.3150 N   0  0  0  0  0  0  0  0  0  0  0  0
   40.2370   22.7620   37.2910 C   0  0  0  0  0  0  0  0  0  0  0  0
   39.6830   22.7420   38.4970 N   0  0  0  0  0  0  0  0  0  0  0  0
   35.6990   28.3170   33.2460 C   0  0  0  0  0  0  0  0  0  0  0  0
   36.1900   28.8000   31.9570 C   0  0  0  0  0  0  0  0  0  0  0  0
   36.5010   30.0430   31.4560 C   0  0  0  0  0  0  0  0  0  0  0  0
   36.9240   29.9710   30.1880 N   0  0  0  0  0  0  0  0  0  0  0  0
   36.9000   28.6890   29.8290 C   0  0  0  0  0  0  0  0  0  0  0  0
   36.4620   27.9960   30.8840 N   0  0  0  0  0  0  0  0  0  0  0  0
   36.3020   26.5710   30.8790 C   0  0  0  0  0  0  0  0  0  0  0  0
   35.0630   25.9700   31.0190 C   0  0  0  0  0  0  0  0  0  0  0  0
   35.2200   24.6010   30.9770 C   0  0  0  0  0  0  0  0  0  0  0  0
   36.6000   24.4360   30.8070 C   0  0  0  0  0  0  0  0  0  0  0  0
   37.1780   25.6130   30.7570 O   0  0  0  0  0  0  0  0  0  0  0  0
   36.1456   28.6486   35.2931 H   0  0  0  0  0  0  0  0  0  0  0  0
   37.4946   28.9887   34.1393 H   0  0  0  0  0  0  0  0  0  0  0  0
   38.1647   23.4568   39.7755 H   0  0  0  0  0  0  0  0  0  0  0  0
   37.1239   24.9333   38.0277 H   0  0  0  0  0  0  0  0  0  0  0  0
   41.1225   22.1401   37.0932 H   0  0  0  0  0  0  0  0  0  0  0  0
   35.3519   27.2832   33.1017 H   0  0  0  0  0  0  0  0  0  0  0  0
   34.9181   29.0342   33.5391 H   0  0  0  0  0  0  0  0  0  0  0  0
   36.4130   30.9794   32.0264 H   0  0  0  0  0  0  0  0  0  0  0  0
   37.1865   28.2783   28.8496 H   0  0  0  0  0  0  0  0  0  0  0  0
   34.1069   26.4995   31.1437 H   0  0  0  0  0  0  0  0  0  0  0  0
   34.4458   23.8237   31.0578 H   0  0  0  0  0  0  0  0  0  0  0  0
   37.1192   23.4695   30.7277 H   0  0  0  0  0  0  0  0  0  0  0  0
  1  5  1  0
  2  6  1  0
  2  9  1  0
  3  2  2  0
  4  3  1  0
  4  5  1  0
  5  6  2  0
  8  7  2  0
  9  8  1  0
 10  9  2  0
 10 11  1  0
 11 12  2  0
 12  7  1  0
 13  1  1  0
 14 13  1  0
 15 14  2  0
 16 15  1  0
 17 16  2  0
 17 18  1  0
 18 14  1  0
 19 18  1  0
 19 20  2  0
 21 20  1  0
 22 21  2  0
 23 22  1  0
 23 19  1  0
  1 24  1  0
  1 25  1  0
  7 26  1  0
  8 27  1  0
 11 28  1  0
 13 29  1  0
 13 30  1  0
 15 31  1  0
 17 32  1  0
 20 33  1  0
 21 34  1  0
 22 35  1  0
M  ISO  8  24   8  25   8  26  14  27  14  28  14  29   8  30   8  31  14
M  ISO  4  32  14  33  14  34  14  35  14
M  END
>  <minimizedAffinity>  (1) 
-5.14002705

>  <minimizedRMSD>  (1) 
0.938881576

$$$$
