
     RDKit          3D

 34 37  0  0  0  0  0  0  0  0999 V2000
   36.6710   28.3770   34.4610 C   0  0  0  0  0  0  0  0  0  0  0  0
   37.9720   25.1460   35.4880 C   0  0  0  0  0  0  0  0  0  0  0  0
   37.5530   24.9310   34.2290 N   0  0  0  0  0  0  0  0  0  0  0  0
   37.0630   26.0670   33.7800 O   0  0  0  0  0  0  0  0  0  0  0  0
   37.1400   27.0050   34.6780 C   0  0  0  0  0  0  0  0  0  0  0  0
   37.6980   26.4650   35.7450 N   0  0  0  0  0  0  0  0  0  0  0  0
   38.7180   23.4800   38.7600 C   0  0  0  0  0  0  0  0  0  0  0  0
   38.0480   24.2950   37.8380 C   0  0  0  0  0  0  0  0  0  0  0  0
   38.5960   24.3260   36.5230 C   0  0  0  0  0  0  0  0  0  0  0  0
   39.7240   23.5710   36.2450 N   0  0  0  0  0  0  0  0  0  0  0  0
   40.2970   22.8250   37.1790 C   0  0  0  0  0  0  0  0  0  0  0  0
   39.8080   22.7730   38.4230 N   0  0  0  0  0  0  0  0  0  0  0  0
   35.6800   28.4460   33.3550 C   0  0  0  0  0  0  0  0  0  0  0  0
   36.1420   28.9970   32.0840 C   0  0  0  0  0  0  0  0  0  0  0  0
   36.4020   30.2780   31.6490 C   0  0  0  0  0  0  0  0  0  0  0  0
   36.8140   30.3000   30.3780 N   0  0  0  0  0  0  0  0  0  0  0  0
   36.8320   29.0190   29.9550 C   0  0  0  0  0  0  0  0  0  0  0  0
   36.4330   28.2490   30.9700 N   0  0  0  0  0  0  0  0  0  0  0  0
   36.3180   26.8300   30.9160 C   0  0  0  0  0  0  0  0  0  0  0  0
   37.5590   26.1350   30.7410 C   0  0  0  0  0  0  0  0  0  0  0  0
   37.0300   24.3170   30.7150 S   0  0  0  0  0  0  0  0  0  0  0  0
   35.2300   24.8810   30.9470 C   0  0  0  0  0  0  0  0  0  0  0  0
   35.2730   25.9990   30.9960 N   0  0  0  0  0  0  0  0  0  0  0  0
   36.2011   28.7444   35.3852 H   0  0  0  0  0  0  0  0  0  0  0  0
   37.5367   28.9983   34.1877 H   0  0  0  0  0  0  0  0  0  0  0  0
   38.3394   23.4177   39.7909 H   0  0  0  0  0  0  0  0  0  0  0  0
   37.1544   24.8749   38.1123 H   0  0  0  0  0  0  0  0  0  0  0  0
   41.1919   22.2374   36.9262 H   0  0  0  0  0  0  0  0  0  0  0  0
   35.3248   27.4227   33.1635 H   0  0  0  0  0  0  0  0  0  0  0  0
   34.9083   29.1467   33.7064 H   0  0  0  0  0  0  0  0  0  0  0  0
   36.2845   31.1758   32.2735 H   0  0  0  0  0  0  0  0  0  0  0  0
   37.1234   28.6712   28.9529 H   0  0  0  0  0  0  0  0  0  0  0  0
   38.5712   26.5549   30.6452 H   0  0  0  0  0  0  0  0  0  0  0  0
   34.3357   24.2444   31.0181 H   0  0  0  0  0  0  0  0  0  0  0  0
  1  5  1  0
  2  6  1  0
  2  9  1  0
  3  2  2  0
  4  3  1  0
  4  5  1  0
  5  6  2  0
  8  7  2  0
  9  8  1  0
 10  9  2  0
 10 11  1  0
 11 12  2  0
 12  7  1  0
 13  1  1  0
 14 13  1  0
 15 14  2  0
 16 15  1  0
 17 16  2  0
 17 18  1  0
 18 14  1  0
 19 18  1  0
 19 23  1  0
 20 19  2  0
 21 20  1  0
 21 22  1  0
 22 23  2  0
  1 24  1  0
  1 25  1  0
  7 26  1  0
  8 27  1  0
 11 28  1  0
 13 29  1  0
 13 30  1  0
 15 31  1  0
 17 32  1  0
 20 33  1  0
 22 34  1  0
M  ISO  8  24   8  25   8  26  14  27  14  28  14  29   8  30   8  31  14
M  ISO  3  32  14  33  14  34  14
M  END
>  <minimizedAffinity>  (1) 
-5.00754642

>  <minimizedRMSD>  (1) 
1.0098561

$$$$
