
     RDKit          3D

 37 39  0  0  0  0  0  0  0  0999 V2000
   36.2840   28.4450   34.3220 C   0  0  0  0  0  0  0  0  0  0  0  0
   37.9230   25.3140   35.1450 C   0  0  0  0  0  0  0  0  0  0  0  0
   37.6910   25.2090   33.8250 N   0  0  0  0  0  0  0  0  0  0  0  0
   37.0920   26.3160   33.4430 O   0  0  0  0  0  0  0  0  0  0  0  0
   36.9230   27.1340   34.4440 C   0  0  0  0  0  0  0  0  0  0  0  0
   37.4270   26.5390   35.5020 N   0  0  0  0  0  0  0  0  0  0  0  0
   38.6050   23.4950   38.3400 C   0  0  0  0  0  0  0  0  0  0  0  0
   37.9470   24.3450   37.4440 C   0  0  0  0  0  0  0  0  0  0  0  0
   38.5410   24.4510   36.1450 C   0  0  0  0  0  0  0  0  0  0  0  0
   39.6840   23.7330   35.8740 N   0  0  0  0  0  0  0  0  0  0  0  0
   40.2440   22.9480   36.7820 C   0  0  0  0  0  0  0  0  0  0  0  0
   39.7100   22.8260   38.0130 N   0  0  0  0  0  0  0  0  0  0  0  0
   36.0250   28.7960   32.8970 C   0  0  0  0  0  0  0  0  0  0  0  0
   34.7520   29.4420   32.5840 C   0  0  0  0  0  0  0  0  0  0  0  0
   33.4600   29.2520   33.0070 C   0  0  0  0  0  0  0  0  0  0  0  0
   32.6280   30.1160   32.4180 N   0  0  0  0  0  0  0  0  0  0  0  0
   33.3460   30.8810   31.6030 C   0  0  0  0  0  0  0  0  0  0  0  0
   34.6170   30.4760   31.7060 N   0  0  0  0  0  0  0  0  0  0  0  0
   35.6490   31.1440   30.9140 C   0  0  0  0  0  0  0  0  0  0  0  0
   36.4730   30.0250   30.3020 C   0  0  0  0  0  0  0  0  0  0  0  0
   36.5560   32.0090   31.7780 C   0  0  0  0  0  0  0  0  0  0  0  0
   35.3278   28.4285   34.8655 H   0  0  0  0  0  0  0  0  0  0  0  0
   36.9623   29.2003   34.7456 H   0  0  0  0  0  0  0  0  0  0  0  0
   38.1942   23.3745   39.3533 H   0  0  0  0  0  0  0  0  0  0  0  0
   37.0348   24.8948   37.7189 H   0  0  0  0  0  0  0  0  0  0  0  0
   41.1565   22.3887   36.5279 H   0  0  0  0  0  0  0  0  0  0  0  0
   36.8278   29.4748   32.5733 H   0  0  0  0  0  0  0  0  0  0  0  0
   35.9868   27.8302   32.3719 H   0  0  0  0  0  0  0  0  0  0  0  0
   33.1501   28.4884   33.7356 H   0  0  0  0  0  0  0  0  0  0  0  0
   32.9675   31.6930   30.9648 H   0  0  0  0  0  0  0  0  0  0  0  0
   35.1903   31.8070   30.1656 H   0  0  0  0  0  0  0  0  0  0  0  0
   36.9198   29.4182   31.1033 H   0  0  0  0  0  0  0  0  0  0  0  0
   35.8248   29.3905   29.6797 H   0  0  0  0  0  0  0  0  0  0  0  0
   37.2713   30.4556   29.6797 H   0  0  0  0  0  0  0  0  0  0  0  0
   36.3485   31.8111   32.8400 H   0  0  0  0  0  0  0  0  0  0  0  0
   37.6073   31.7705   31.5592 H   0  0  0  0  0  0  0  0  0  0  0  0
   36.3676   33.0704   31.5592 H   0  0  0  0  0  0  0  0  0  0  0  0
  1  5  1  0
  2  6  1  0
  2  9  1  0
  3  2  2  0
  4  3  1  0
  4  5  1  0
  5  6  2  0
  8  7  2  0
  9  8  1  0
 10  9  2  0
 10 11  1  0
 11 12  2  0
 12  7  1  0
 13  1  1  0
 14 13  1  0
 14 15  2  0
 16 15  1  0
 17 18  1  0
 17 16  2  0
 18 14  1  0
 19 18  1  0
 19 21  1  0
 20 19  1  0
  1 22  1  0
  1 23  1  0
  7 24  1  0
  8 25  1  0
 11 26  1  0
 13 27  1  0
 13 28  1  0
 15 29  1  0
 17 30  1  0
 19 31  1  0
 20 32  1  0
 20 33  1  0
 20 34  1  0
 21 35  1  0
 21 36  1  0
 21 37  1  0
M  ISO  8  22   8  23   8  24  14  25  14  26  14  27   8  28   8  29  14
M  ISO  8  30  14  31   8  32   8  33   8  34   8  35   8  36   8  37   8
M  END
>  <minimizedAffinity>  (1) 
-4.86777449

>  <minimizedRMSD>  (1) 
2.98953581

$$$$
