
     RDKit          3D

 52 56  0  0  0  0  0  0  0  0999 V2000
   36.0110   29.8630   32.4460 C   0  0  0  0  0  0  0  0  0  0  0  0
   36.6090   30.2990   31.2880 C   0  0  0  0  0  0  0  0  0  0  0  0
   36.5660   31.6290   31.1800 N   0  0  0  0  0  0  0  0  0  0  0  0
   35.9440   32.0930   32.2530 C   0  0  0  0  0  0  0  0  0  0  0  0
   35.6060   31.0500   33.0190 N   0  0  0  0  0  0  0  0  0  0  0  0
   34.9220   31.1730   34.2540 C   0  0  0  0  0  0  0  0  0  0  0  0
   35.6090   31.7170   35.3310 C   0  0  0  0  0  0  0  0  0  0  0  0
   35.0330   31.8830   36.5870 C   0  0  0  0  0  0  0  0  0  0  0  0
   33.7500   31.5040   36.7840 N   0  0  0  0  0  0  0  0  0  0  0  0
   33.1010   30.9750   35.7150 C   0  0  0  0  0  0  0  0  0  0  0  0
   33.6570   30.8140   34.4990 N   0  0  0  0  0  0  0  0  0  0  0  0
   31.6940   30.5730   35.9770 C   0  0  0  0  0  0  0  0  0  0  0  0
   31.5730   29.5220   37.0350 C   0  0  0  0  0  0  0  0  0  0  0  0
   31.7610   28.1120   36.5320 C   0  0  0  0  0  0  0  0  0  0  0  0
   30.7920   27.8970   35.3830 C   0  0  0  0  0  0  0  0  0  0  0  0
   31.2430   28.8010   34.2540 C   0  0  0  0  0  0  0  0  0  0  0  0
   31.0020   30.2240   34.6800 C   0  0  0  0  0  0  0  0  0  0  0  0
   35.7970   28.5450   33.0240 C   0  0  0  0  0  0  0  0  0  0  0  0
   36.3690   28.3140   34.3920 C   0  0  0  0  0  0  0  0  0  0  0  0
   38.0470   25.1870   35.1370 C   0  0  0  0  0  0  0  0  0  0  0  0
   37.7350   25.0760   33.8190 N   0  0  0  0  0  0  0  0  0  0  0  0
   37.1190   26.1780   33.4660 O   0  0  0  0  0  0  0  0  0  0  0  0
   37.0130   26.9950   34.4750 C   0  0  0  0  0  0  0  0  0  0  0  0
   37.5760   26.4060   35.5080 N   0  0  0  0  0  0  0  0  0  0  0  0
   38.8780   23.2910   38.2390 C   0  0  0  0  0  0  0  0  0  0  0  0
   38.1690   24.1500   37.3890 C   0  0  0  0  0  0  0  0  0  0  0  0
   38.7180   24.3170   36.0790 C   0  0  0  0  0  0  0  0  0  0  0  0
   39.8730   23.6380   35.7610 N   0  0  0  0  0  0  0  0  0  0  0  0
   40.4890   22.8390   36.6280 C   0  0  0  0  0  0  0  0  0  0  0  0
   40.0010   22.6630   37.8540 N   0  0  0  0  0  0  0  0  0  0  0  0
   37.0670   29.6336   30.5414 H   0  0  0  0  0  0  0  0  0  0  0  0
   35.7409   33.1510   32.4754 H   0  0  0  0  0  0  0  0  0  0  0  0
   36.6533   32.0302   35.1853 H   0  0  0  0  0  0  0  0  0  0  0  0
   35.6160   32.3185   37.4119 H   0  0  0  0  0  0  0  0  0  0  0  0
   31.1630   31.4367   36.4037 H   0  0  0  0  0  0  0  0  0  0  0  0
   32.3344   29.7180   37.8043 H   0  0  0  0  0  0  0  0  0  0  0  0
   30.5464   29.5836   37.4251 H   0  0  0  0  0  0  0  0  0  0  0  0
   32.7944   27.9744   36.1810 H   0  0  0  0  0  0  0  0  0  0  0  0
   31.5694   27.3876   37.3373 H   0  0  0  0  0  0  0  0  0  0  0  0
   30.8161   26.8460   35.0591 H   0  0  0  0  0  0  0  0  0  0  0  0
   29.7611   28.1307   35.6875 H   0  0  0  0  0  0  0  0  0  0  0  0
   30.6657   28.5799   33.3442 H   0  0  0  0  0  0  0  0  0  0  0  0
   32.3091   28.6405   34.0357 H   0  0  0  0  0  0  0  0  0  0  0  0
   31.3745   30.8946   33.8916 H   0  0  0  0  0  0  0  0  0  0  0  0
   29.9202   30.3427   34.8399 H   0  0  0  0  0  0  0  0  0  0  0  0
   34.7114   28.3780   33.0829 H   0  0  0  0  0  0  0  0  0  0  0  0
   36.3310   27.8465   32.3629 H   0  0  0  0  0  0  0  0  0  0  0  0
   37.1150   29.0933   34.6068 H   0  0  0  0  0  0  0  0  0  0  0  0
   35.5509   28.3527   35.1263 H   0  0  0  0  0  0  0  0  0  0  0  0
   38.5011   23.1249   39.2590 H   0  0  0  0  0  0  0  0  0  0  0  0
   37.2497   24.6627   37.7085 H   0  0  0  0  0  0  0  0  0  0  0  0
   41.4108   22.3185   36.3289 H   0  0  0  0  0  0  0  0  0  0  0  0
  1  5  1  0
  1 18  1  0
  2  1  2  0
  3  2  1  0
  3  4  2  0
  4  5  1  0
  5  6  1  0
  6 11  1  0
  6  7  2  0
  7  8  1  0
  8  9  2  0
 10 12  1  0
 10  9  1  0
 11 10  2  0
 12 13  1  0
 14 13  1  0
 15 14  1  0
 16 17  1  0
 16 15  1  0
 17 12  1  0
 18 19  1  0
 19 23  1  0
 20 24  1  0
 20 27  1  0
 21 20  2  0
 22 21  1  0
 22 23  1  0
 23 24  2  0
 26 25  2  0
 27 26  1  0
 28 27  2  0
 28 29  1  0
 29 30  2  0
 30 25  1  0
  2 31  1  0
  4 32  1  0
  7 33  1  0
  8 34  1  0
 12 35  1  0
 13 36  1  0
 13 37  1  0
 14 38  1  0
 14 39  1  0
 15 40  1  0
 15 41  1  0
 16 42  1  0
 16 43  1  0
 17 44  1  0
 17 45  1  0
 18 46  1  0
 18 47  1  0
 19 48  1  0
 19 49  1  0
 25 50  1  0
 26 51  1  0
 29 52  1  0
M  ISO  8  31  14  32  14  33  14  34  14  35  13  36  13  37  13  38  13
M  ISO  8  39  13  40  13  41  13  42  13  43  13  44  13  45  13  46   8
M  ISO  6  47   8  48   8  49   8  50  14  51  14  52  14
M  END
>  <minimizedAffinity>  (1) 
-6.43937302

>  <minimizedRMSD>  (1) 
1.09019303

$$$$
