
     RDKit          3D

 46 50  0  0  0  0  0  0  0  0999 V2000
   36.0720   29.7730   32.3880 C   0  0  0  0  0  0  0  0  0  0  0  0
   36.6210   30.1870   31.2050 C   0  0  0  0  0  0  0  0  0  0  0  0
   36.5530   31.5180   31.0750 N   0  0  0  0  0  0  0  0  0  0  0  0
   35.9600   31.9970   32.1670 C   0  0  0  0  0  0  0  0  0  0  0  0
   35.6720   30.9580   32.9530 N   0  0  0  0  0  0  0  0  0  0  0  0
   35.0310   31.0960   34.2110 C   0  0  0  0  0  0  0  0  0  0  0  0
   35.6580   31.8300   35.2020 C   0  0  0  0  0  0  0  0  0  0  0  0
   35.1280   32.0310   36.4680 C   0  0  0  0  0  0  0  0  0  0  0  0
   33.9130   31.4750   36.7670 N   0  0  0  0  0  0  0  0  0  0  0  0
   33.3260   30.7650   35.7870 C   0  0  0  0  0  0  0  0  0  0  0  0
   33.8470   30.5770   34.5680 N   0  0  0  0  0  0  0  0  0  0  0  0
   32.0290   30.1620   36.0860 C   0  0  0  0  0  0  0  0  0  0  0  0
   31.8650   28.7820   36.1310 C   0  0  0  0  0  0  0  0  0  0  0  0
   30.6610   28.1610   36.4090 C   0  0  0  0  0  0  0  0  0  0  0  0
   29.5660   28.9930   36.6530 C   0  0  0  0  0  0  0  0  0  0  0  0
   29.6760   30.3680   36.6210 C   0  0  0  0  0  0  0  0  0  0  0  0
   30.9060   30.9240   36.3370 C   0  0  0  0  0  0  0  0  0  0  0  0
   35.8920   28.4660   33.0100 C   0  0  0  0  0  0  0  0  0  0  0  0
   36.4610   28.2720   34.3680 C   0  0  0  0  0  0  0  0  0  0  0  0
   38.0670   25.1370   35.2220 C   0  0  0  0  0  0  0  0  0  0  0  0
   37.7550   24.9750   33.9080 N   0  0  0  0  0  0  0  0  0  0  0  0
   37.1620   26.0810   33.5170 O   0  0  0  0  0  0  0  0  0  0  0  0
   37.0760   26.9340   34.4890 C   0  0  0  0  0  0  0  0  0  0  0  0
   37.6260   26.3760   35.5530 N   0  0  0  0  0  0  0  0  0  0  0  0
   38.8300   23.3210   38.3890 C   0  0  0  0  0  0  0  0  0  0  0  0
   38.1450   24.1570   37.4990 C   0  0  0  0  0  0  0  0  0  0  0  0
   38.7170   24.2890   36.1990 C   0  0  0  0  0  0  0  0  0  0  0  0
   39.8780   23.6000   35.9140 N   0  0  0  0  0  0  0  0  0  0  0  0
   40.4720   22.8190   36.8210 C   0  0  0  0  0  0  0  0  0  0  0  0
   39.9650   22.6770   38.0350 N   0  0  0  0  0  0  0  0  0  0  0  0
   37.0620   29.5125   30.4563 H   0  0  0  0  0  0  0  0  0  0  0  0
   35.7468   33.0546   32.3815 H   0  0  0  0  0  0  0  0  0  0  0  0
   36.6347   32.2809   34.9724 H   0  0  0  0  0  0  0  0  0  0  0  0
   35.6728   32.6250   37.2166 H   0  0  0  0  0  0  0  0  0  0  0  0
   32.7425   28.1484   35.9344 H   0  0  0  0  0  0  0  0  0  0  0  0
   30.5701   27.0651   36.4366 H   0  0  0  0  0  0  0  0  0  0  0  0
   28.5891   28.5396   36.8768 H   0  0  0  0  0  0  0  0  0  0  0  0
   28.8022   31.0066   36.8176 H   0  0  0  0  0  0  0  0  0  0  0  0
   30.9955   32.0200   36.3094 H   0  0  0  0  0  0  0  0  0  0  0  0
   34.8102   28.2777   33.0754 H   0  0  0  0  0  0  0  0  0  0  0  0
   36.4511   27.7693   32.3682 H   0  0  0  0  0  0  0  0  0  0  0  0
   37.2270   29.0397   34.5518 H   0  0  0  0  0  0  0  0  0  0  0  0
   35.6508   28.3575   35.1070 H   0  0  0  0  0  0  0  0  0  0  0  0
   38.4333   23.1841   39.4058 H   0  0  0  0  0  0  0  0  0  0  0  0
   37.2210   24.6807   37.7852 H   0  0  0  0  0  0  0  0  0  0  0  0
   41.3966   22.2860   36.5544 H   0  0  0  0  0  0  0  0  0  0  0  0
  1  5  1  0
  1 18  1  0
  2  1  2  0
  3  2  1  0
  3  4  2  0
  4  5  1  0
  5  6  1  0
  6 11  1  0
  6  7  2  0
  7  8  1  0
  8  9  2  0
 10 12  1  0
 10  9  1  0
 11 10  2  0
 12 13  2  0
 12 17  1  0
 13 14  1  0
 14 15  2  0
 16 15  1  0
 17 16  2  0
 18 19  1  0
 19 23  1  0
 20 24  1  0
 20 27  1  0
 21 20  2  0
 22 21  1  0
 22 23  1  0
 23 24  2  0
 26 25  2  0
 27 26  1  0
 28 27  2  0
 28 29  1  0
 29 30  2  0
 30 25  1  0
  2 31  1  0
  4 32  1  0
  7 33  1  0
  8 34  1  0
 13 35  1  0
 14 36  1  0
 15 37  1  0
 16 38  1  0
 17 39  1  0
 18 40  1  0
 18 41  1  0
 19 42  1  0
 19 43  1  0
 25 44  1  0
 26 45  1  0
 29 46  1  0
M  ISO  8  31  14  32  14  33  14  34  14  35  14  36  14  37  14  38  14
M  ISO  8  39  14  40   8  41   8  42   8  43   8  44  14  45  14  46  14
M  END
>  <minimizedAffinity>  (1) 
-6.26309633

>  <minimizedRMSD>  (1) 
0.654651344

$$$$
