
     RDKit          3D

 45 49  0  0  0  0  0  0  0  0999 V2000
   35.9030   29.9570   32.7300 C   0  0  0  0  0  0  0  0  0  0  0  0
   36.4410   30.3840   31.5380 C   0  0  0  0  0  0  0  0  0  0  0  0
   36.3260   31.7170   31.4050 N   0  0  0  0  0  0  0  0  0  0  0  0
   35.7170   32.1760   32.4960 C   0  0  0  0  0  0  0  0  0  0  0  0
   35.4660   31.1310   33.2830 N   0  0  0  0  0  0  0  0  0  0  0  0
   34.8160   31.2440   34.5490 C   0  0  0  0  0  0  0  0  0  0  0  0
   35.4730   31.9070   35.5660 C   0  0  0  0  0  0  0  0  0  0  0  0
   34.9290   32.0720   36.8350 C   0  0  0  0  0  0  0  0  0  0  0  0
   33.7050   31.5710   37.1080 N   0  0  0  0  0  0  0  0  0  0  0  0
   33.0740   30.9210   36.0950 C   0  0  0  0  0  0  0  0  0  0  0  0
   33.6090   30.7690   34.8770 N   0  0  0  0  0  0  0  0  0  0  0  0
   31.7460   30.3460   36.2970 C   0  0  0  0  0  0  0  0  0  0  0  0
   31.6200   28.9630   36.3790 C   0  0  0  0  0  0  0  0  0  0  0  0
   30.3810   28.3850   36.5710 C   0  0  0  0  0  0  0  0  0  0  0  0
   29.2680   29.1940   36.6790 C   0  0  0  0  0  0  0  0  0  0  0  0
   29.4010   30.5650   36.5960 C   0  0  0  0  0  0  0  0  0  0  0  0
   30.6240   31.0810   36.4100 N   0  0  0  0  0  0  0  0  0  0  0  0
   35.7740   28.6400   33.3470 C   0  0  0  0  0  0  0  0  0  0  0  0
   36.5200   28.4170   34.6190 C   0  0  0  0  0  0  0  0  0  0  0  0
   38.0910   25.2200   35.2650 C   0  0  0  0  0  0  0  0  0  0  0  0
   37.7000   25.1200   33.9640 N   0  0  0  0  0  0  0  0  0  0  0  0
   37.1140   26.2520   33.6480 O   0  0  0  0  0  0  0  0  0  0  0  0
   37.1060   27.0720   34.6670 C   0  0  0  0  0  0  0  0  0  0  0  0
   37.6980   26.4620   35.6710 N   0  0  0  0  0  0  0  0  0  0  0  0
   38.9690   23.2150   38.2920 C   0  0  0  0  0  0  0  0  0  0  0  0
   38.2440   24.1000   37.4770 C   0  0  0  0  0  0  0  0  0  0  0  0
   38.7760   24.3180   36.1750 C   0  0  0  0  0  0  0  0  0  0  0  0
   39.9330   23.6620   35.8170 N   0  0  0  0  0  0  0  0  0  0  0  0
   40.5540   22.8400   36.6520 C   0  0  0  0  0  0  0  0  0  0  0  0
   40.0900   22.6100   37.8770 N   0  0  0  0  0  0  0  0  0  0  0  0
   36.9044   29.7219   30.7918 H   0  0  0  0  0  0  0  0  0  0  0  0
   35.4669   33.2258   32.7087 H   0  0  0  0  0  0  0  0  0  0  0  0
   36.4709   32.3232   35.3636 H   0  0  0  0  0  0  0  0  0  0  0  0
   35.4929   32.6080   37.6127 H   0  0  0  0  0  0  0  0  0  0  0  0
   32.5126   28.3263   36.2904 H   0  0  0  0  0  0  0  0  0  0  0  0
   30.2819   27.2915   36.6372 H   0  0  0  0  0  0  0  0  0  0  0  0
   28.2750   28.7459   36.8312 H   0  0  0  0  0  0  0  0  0  0  0  0
   28.5218   31.2206   36.6807 H   0  0  0  0  0  0  0  0  0  0  0  0
   34.7066   28.4724   33.5535 H   0  0  0  0  0  0  0  0  0  0  0  0
   36.2197   27.9394   32.6255 H   0  0  0  0  0  0  0  0  0  0  0  0
   37.3260   29.1616   34.6966 H   0  0  0  0  0  0  0  0  0  0  0  0
   35.8142   28.5174   35.4567 H   0  0  0  0  0  0  0  0  0  0  0  0
   38.6027   23.0111   39.3090 H   0  0  0  0  0  0  0  0  0  0  0  0
   37.3236   24.5932   37.8230 H   0  0  0  0  0  0  0  0  0  0  0  0
   41.4751   22.3363   36.3235 H   0  0  0  0  0  0  0  0  0  0  0  0
  1  5  1  0
  1 18  1  0
  2  1  2  0
  3  2  1  0
  3  4  2  0
  4  5  1  0
  5  6  1  0
  6 11  1  0
  6  7  2  0
  7  8  1  0
  8  9  2  0
 10 12  1  0
 10  9  1  0
 11 10  2  0
 12 13  2  0
 12 17  1  0
 13 14  1  0
 14 15  2  0
 16 15  1  0
 17 16  2  0
 18 19  1  0
 19 23  1  0
 20 24  1  0
 20 27  1  0
 21 20  2  0
 22 21  1  0
 22 23  1  0
 23 24  2  0
 26 25  2  0
 27 26  1  0
 28 27  2  0
 28 29  1  0
 29 30  2  0
 30 25  1  0
  2 31  1  0
  4 32  1  0
  7 33  1  0
  8 34  1  0
 13 35  1  0
 14 36  1  0
 15 37  1  0
 16 38  1  0
 18 39  1  0
 18 40  1  0
 19 41  1  0
 19 42  1  0
 25 43  1  0
 26 44  1  0
 29 45  1  0
M  ISO  8  31  14  32  14  33  14  34  14  35  14  36  14  37  14  38  14
M  ISO  7  39   8  40   8  41   8  42   8  43  14  44  14  45  14
M  END
>  <minimizedAffinity>  (1) 
-6.11608505

>  <minimizedRMSD>  (1) 
0.254363477

$$$$
