
     RDKit          3D

 43 47  0  0  0  0  0  0  0  0999 V2000
   35.5570   30.1500   33.0560 C   0  0  0  0  0  0  0  0  0  0  0  0
   36.0190   30.7000   31.8850 C   0  0  0  0  0  0  0  0  0  0  0  0
   35.6550   31.9810   31.7710 N   0  0  0  0  0  0  0  0  0  0  0  0
   34.9560   32.2860   32.8540 C   0  0  0  0  0  0  0  0  0  0  0  0
   34.8930   31.1930   33.6270 N   0  0  0  0  0  0  0  0  0  0  0  0
   34.2120   31.1650   34.8820 C   0  0  0  0  0  0  0  0  0  0  0  0
   34.6170   32.0740   35.8540 C   0  0  0  0  0  0  0  0  0  0  0  0
   34.0400   32.1520   37.1110 C   0  0  0  0  0  0  0  0  0  0  0  0
   33.0200   31.2950   37.4180 N   0  0  0  0  0  0  0  0  0  0  0  0
   32.6470   30.4160   36.4420 C   0  0  0  0  0  0  0  0  0  0  0  0
   33.2070   30.3440   35.2300 N   0  0  0  0  0  0  0  0  0  0  0  0
   31.5600   29.4890   36.7430 C   0  0  0  0  0  0  0  0  0  0  0  0
   31.5750   28.0980   36.6850 C   0  0  0  0  0  0  0  0  0  0  0  0
   30.4010   27.5900   37.0290 N   0  0  0  0  0  0  0  0  0  0  0  0
   29.5970   28.6320   37.3200 C   0  0  0  0  0  0  0  0  0  0  0  0
   30.3220   29.7510   37.1380 N   0  0  0  0  0  0  0  0  0  0  0  0
   35.6700   28.8200   33.6550 C   0  0  0  0  0  0  0  0  0  0  0  0
   36.6770   28.6370   34.7360 C   0  0  0  0  0  0  0  0  0  0  0  0
   38.0720   25.3540   35.3540 C   0  0  0  0  0  0  0  0  0  0  0  0
   37.6410   25.2780   34.0620 N   0  0  0  0  0  0  0  0  0  0  0  0
   37.1130   26.4410   33.7500 O   0  0  0  0  0  0  0  0  0  0  0  0
   37.1800   27.2660   34.7710 C   0  0  0  0  0  0  0  0  0  0  0  0
   37.7630   26.6100   35.7500 N   0  0  0  0  0  0  0  0  0  0  0  0
   38.8660   23.2830   38.3460 C   0  0  0  0  0  0  0  0  0  0  0  0
   38.1850   24.2060   37.5520 C   0  0  0  0  0  0  0  0  0  0  0  0
   38.7240   24.4120   36.2360 C   0  0  0  0  0  0  0  0  0  0  0  0
   39.8370   23.7030   35.8720 N   0  0  0  0  0  0  0  0  0  0  0  0
   40.4260   22.8420   36.6910 C   0  0  0  0  0  0  0  0  0  0  0  0
   39.9490   22.6280   37.9190 N   0  0  0  0  0  0  0  0  0  0  0  0
   36.6130   30.1554   31.1363 H   0  0  0  0  0  0  0  0  0  0  0  0
   34.5063   33.2643   33.0793 H   0  0  0  0  0  0  0  0  0  0  0  0
   35.4371   32.7660   35.6122 H   0  0  0  0  0  0  0  0  0  0  0  0
   34.3952   32.8883   37.8470 H   0  0  0  0  0  0  0  0  0  0  0  0
   32.4491   27.4982   36.3914 H   0  0  0  0  0  0  0  0  0  0  0  0
   28.5474   28.5779   37.6447 H   0  0  0  0  0  0  0  0  0  0  0  0
   29.9568   30.7023   37.2884 H   0  0  0  0  0  0  0  0  0  0  0  0
   34.6861   28.5626   34.0741 H   0  0  0  0  0  0  0  0  0  0  0  0
   36.0165   28.1722   32.8363 H   0  0  0  0  0  0  0  0  0  0  0  0
   37.5191   29.3225   34.5601 H   0  0  0  0  0  0  0  0  0  0  0  0
   36.1924   28.8521   35.6998 H   0  0  0  0  0  0  0  0  0  0  0  0
   38.4967   23.0869   39.3634 H   0  0  0  0  0  0  0  0  0  0  0  0
   37.2933   24.7414   37.9101 H   0  0  0  0  0  0  0  0  0  0  0  0
   41.3198   22.2968   36.3536 H   0  0  0  0  0  0  0  0  0  0  0  0
  1  5  1  0
  1 17  1  0
  2  1  2  0
  3  2  1  0
  3  4  2  0
  4  5  1  0
  5  6  1  0
  6 11  1  0
  6  7  2  0
  7  8  1  0
  8  9  2  0
 10 12  1  0
 10  9  1  0
 11 10  2  0
 12 16  1  0
 13 12  2  0
 13 14  1  0
 14 15  2  0
 16 15  1  0
 17 18  1  0
 18 22  1  0
 19 23  1  0
 19 26  1  0
 20 19  2  0
 21 20  1  0
 21 22  1  0
 22 23  2  0
 25 24  2  0
 26 25  1  0
 27 26  2  0
 27 28  1  0
 28 29  2  0
 29 24  1  0
  2 30  1  0
  4 31  1  0
  7 32  1  0
  8 33  1  0
 13 34  1  0
 15 35  1  0
 16 36  1  0
 17 37  1  0
 17 38  1  0
 18 39  1  0
 18 40  1  0
 24 41  1  0
 25 42  1  0
 28 43  1  0
M  ISO  8  30  14  31  14  32  14  33  14  34  14  35  14  36   9  37   8
M  ISO  6  38   8  39   8  40   8  41  14  42  14  43  14
M  END
>  <minimizedAffinity>  (1) 
-5.93435144

>  <minimizedRMSD>  (1) 
0.990023255

$$$$
