
     RDKit          3D

 43 47  0  0  0  0  0  0  0  0999 V2000
   35.7820   28.6620   33.3150 C   0  0  0  0  0  0  0  0  0  0  0  0
   35.9140   29.9940   32.7210 C   0  0  0  0  0  0  0  0  0  0  0  0
   36.4790   30.4600   31.5610 C   0  0  0  0  0  0  0  0  0  0  0  0
   36.3480   31.7870   31.4530 N   0  0  0  0  0  0  0  0  0  0  0  0
   35.7000   32.2190   32.5350 C   0  0  0  0  0  0  0  0  0  0  0  0
   35.4430   31.1370   33.2910 N   0  0  0  0  0  0  0  0  0  0  0  0
   34.7550   31.2240   34.5350 C   0  0  0  0  0  0  0  0  0  0  0  0
   35.4060   31.8410   35.6110 C   0  0  0  0  0  0  0  0  0  0  0  0
   34.8650   31.9970   36.8700 C   0  0  0  0  0  0  0  0  0  0  0  0
   33.6050   31.5140   37.0760 N   0  0  0  0  0  0  0  0  0  0  0  0
   32.9880   30.9190   36.0240 C   0  0  0  0  0  0  0  0  0  0  0  0
   33.5150   30.7690   34.8020 N   0  0  0  0  0  0  0  0  0  0  0  0
   31.6600   30.4420   36.3370 C   0  0  0  0  0  0  0  0  0  0  0  0
   30.4100   30.9590   36.3330 C   0  0  0  0  0  0  0  0  0  0  0  0
   29.3280   30.2440   36.6880 C   0  0  0  0  0  0  0  0  0  0  0  0
   29.5950   28.8780   37.0770 C   0  0  0  0  0  0  0  0  0  0  0  0
   31.4680   28.7780   36.8750 S   0  0  0  0  0  0  0  0  0  0  0  0
   36.4940   28.4330   34.6120 C   0  0  0  0  0  0  0  0  0  0  0  0
   38.0780   25.2400   35.2560 C   0  0  0  0  0  0  0  0  0  0  0  0
   37.6920   25.1390   33.9550 N   0  0  0  0  0  0  0  0  0  0  0  0
   37.1040   26.2660   33.6400 O   0  0  0  0  0  0  0  0  0  0  0  0
   37.0850   27.0870   34.6500 C   0  0  0  0  0  0  0  0  0  0  0  0
   37.6830   26.4700   35.6620 N   0  0  0  0  0  0  0  0  0  0  0  0
   38.9450   23.2330   38.2810 C   0  0  0  0  0  0  0  0  0  0  0  0
   38.2280   24.1180   37.4750 C   0  0  0  0  0  0  0  0  0  0  0  0
   38.7650   24.3320   36.1580 C   0  0  0  0  0  0  0  0  0  0  0  0
   39.9130   23.6680   35.8000 N   0  0  0  0  0  0  0  0  0  0  0  0
   40.5320   22.8370   36.6440 C   0  0  0  0  0  0  0  0  0  0  0  0
   40.0600   22.6190   37.8630 N   0  0  0  0  0  0  0  0  0  0  0  0
   36.1693   27.9326   32.5883 H   0  0  0  0  0  0  0  0  0  0  0  0
   34.7125   28.5530   33.5480 H   0  0  0  0  0  0  0  0  0  0  0  0
   36.9765   29.8234   30.8145 H   0  0  0  0  0  0  0  0  0  0  0  0
   35.4280   33.2597   32.7650 H   0  0  0  0  0  0  0  0  0  0  0  0
   36.4210   32.2287   35.4396 H   0  0  0  0  0  0  0  0  0  0  0  0
   35.4267   32.4912   37.6764 H   0  0  0  0  0  0  0  0  0  0  0  0
   30.2732   32.0067   36.0270 H   0  0  0  0  0  0  0  0  0  0  0  0
   28.3131   30.6681   36.6827 H   0  0  0  0  0  0  0  0  0  0  0  0
   28.8902   28.0998   37.4052 H   0  0  0  0  0  0  0  0  0  0  0  0
   37.2927   29.1813   34.7225 H   0  0  0  0  0  0  0  0  0  0  0  0
   35.7691   28.5242   35.4343 H   0  0  0  0  0  0  0  0  0  0  0  0
   38.5806   23.0316   39.2992 H   0  0  0  0  0  0  0  0  0  0  0  0
   37.3128   24.6188   37.8237 H   0  0  0  0  0  0  0  0  0  0  0  0
   41.4502   22.3245   36.3209 H   0  0  0  0  0  0  0  0  0  0  0  0
  1 18  1  0
  2  6  1  0
  2  1  1  0
  3  2  2  0
  4  3  1  0
  4  5  2  0
  5  6  1  0
  6  7  1  0
  7 12  1  0
  7  8  2  0
  8  9  1  0
  9 10  2  0
 11 13  1  0
 11 10  1  0
 12 11  2  0
 13 17  1  0
 14 13  2  0
 14 15  1  0
 15 16  2  0
 17 16  1  0
 18 22  1  0
 19 23  1  0
 19 26  1  0
 20 19  2  0
 21 20  1  0
 21 22  1  0
 22 23  2  0
 25 24  2  0
 26 25  1  0
 27 26  2  0
 27 28  1  0
 28 29  2  0
 29 24  1  0
  1 30  1  0
  1 31  1  0
  3 32  1  0
  5 33  1  0
  8 34  1  0
  9 35  1  0
 14 36  1  0
 15 37  1  0
 16 38  1  0
 18 39  1  0
 18 40  1  0
 24 41  1  0
 25 42  1  0
 28 43  1  0
M  ISO  8  30   8  31   8  32  14  33  14  34  14  35  14  36  14  37  14
M  ISO  6  38  14  39   8  40   8  41  14  42  14  43  14
M  END
>  <minimizedAffinity>  (1) 
-5.93010902

>  <minimizedRMSD>  (1) 
0.475429356

$$$$
