
     RDKit          3D

 43 47  0  0  0  0  0  0  0  0999 V2000
   35.9160   29.9560   32.7100 C   0  0  0  0  0  0  0  0  0  0  0  0
   36.4480   30.4030   31.5220 C   0  0  0  0  0  0  0  0  0  0  0  0
   36.3190   31.7360   31.4000 N   0  0  0  0  0  0  0  0  0  0  0  0
   35.7120   32.1750   32.4910 C   0  0  0  0  0  0  0  0  0  0  0  0
   35.4700   31.1280   33.2710 N   0  0  0  0  0  0  0  0  0  0  0  0
   34.8200   31.2300   34.5390 C   0  0  0  0  0  0  0  0  0  0  0  0
   35.4700   31.9360   35.5420 C   0  0  0  0  0  0  0  0  0  0  0  0
   34.9550   32.1170   36.8230 C   0  0  0  0  0  0  0  0  0  0  0  0
   33.7370   31.5650   37.1130 N   0  0  0  0  0  0  0  0  0  0  0  0
   33.1360   30.8860   36.1190 C   0  0  0  0  0  0  0  0  0  0  0  0
   33.6180   30.7010   34.8700 N   0  0  0  0  0  0  0  0  0  0  0  0
   31.8310   30.2940   36.4240 C   0  0  0  0  0  0  0  0  0  0  0  0
   31.4380   29.0540   36.9440 C   0  0  0  0  0  0  0  0  0  0  0  0
   30.0480   29.1060   36.9930 C   0  0  0  0  0  0  0  0  0  0  0  0
   29.6730   30.3520   36.5080 C   0  0  0  0  0  0  0  0  0  0  0  0
   30.7430   30.9920   36.1960 O   0  0  0  0  0  0  0  0  0  0  0  0
   35.7940   28.6410   33.3280 C   0  0  0  0  0  0  0  0  0  0  0  0
   36.5360   28.4280   34.6100 C   0  0  0  0  0  0  0  0  0  0  0  0
   38.0980   25.2270   35.2820 C   0  0  0  0  0  0  0  0  0  0  0  0
   37.6920   25.1170   33.9760 N   0  0  0  0  0  0  0  0  0  0  0  0
   37.1100   26.2460   33.6480 O   0  0  0  0  0  0  0  0  0  0  0  0
   37.1160   27.0780   34.6640 C   0  0  0  0  0  0  0  0  0  0  0  0
   37.7170   26.4730   35.6740 N   0  0  0  0  0  0  0  0  0  0  0  0
   38.9540   23.2210   38.2940 C   0  0  0  0  0  0  0  0  0  0  0  0
   38.2360   24.1120   37.4820 C   0  0  0  0  0  0  0  0  0  0  0  0
   38.7800   24.3260   36.1710 C   0  0  0  0  0  0  0  0  0  0  0  0
   39.9310   23.6600   35.8190 N   0  0  0  0  0  0  0  0  0  0  0  0
   40.5450   22.8310   36.6560 C   0  0  0  0  0  0  0  0  0  0  0  0
   40.0750   22.6080   37.8720 N   0  0  0  0  0  0  0  0  0  0  0  0
   36.9183   29.7534   30.7691 H   0  0  0  0  0  0  0  0  0  0  0  0
   35.4539   33.2211   32.7123 H   0  0  0  0  0  0  0  0  0  0  0  0
   36.4501   32.3788   35.3111 H   0  0  0  0  0  0  0  0  0  0  0  0
   35.5118   32.6878   37.5807 H   0  0  0  0  0  0  0  0  0  0  0  0
   32.0874   28.2198   37.2478 H   0  0  0  0  0  0  0  0  0  0  0  0
   29.3750   28.3117   37.3481 H   0  0  0  0  0  0  0  0  0  0  0  0
   28.6430   30.7250   36.4085 H   0  0  0  0  0  0  0  0  0  0  0  0
   34.7268   28.4645   33.5276 H   0  0  0  0  0  0  0  0  0  0  0  0
   36.2498   27.9420   32.6113 H   0  0  0  0  0  0  0  0  0  0  0  0
   37.3443   29.1703   34.6856 H   0  0  0  0  0  0  0  0  0  0  0  0
   35.8306   28.5405   35.4465 H   0  0  0  0  0  0  0  0  0  0  0  0
   38.5877   23.0165   39.3109 H   0  0  0  0  0  0  0  0  0  0  0  0
   37.3189   24.6123   37.8265 H   0  0  0  0  0  0  0  0  0  0  0  0
   41.4631   22.3196   36.3311 H   0  0  0  0  0  0  0  0  0  0  0  0
  1  5  1  0
  1 17  1  0
  2  1  2  0
  3  2  1  0
  3  4  2  0
  4  5  1  0
  5  6  1  0
  6 11  1  0
  6  7  2  0
  7  8  1  0
  8  9  2  0
 10 12  1  0
 10  9  1  0
 11 10  2  0
 12 13  2  0
 13 14  1  0
 15 14  2  0
 16 12  1  0
 16 15  1  0
 17 18  1  0
 18 22  1  0
 19 23  1  0
 19 26  1  0
 20 19  2  0
 21 20  1  0
 21 22  1  0
 22 23  2  0
 25 24  2  0
 26 25  1  0
 27 26  2  0
 27 28  1  0
 28 29  2  0
 29 24  1  0
  2 30  1  0
  4 31  1  0
  7 32  1  0
  8 33  1  0
 13 34  1  0
 14 35  1  0
 15 36  1  0
 17 37  1  0
 17 38  1  0
 18 39  1  0
 18 40  1  0
 24 41  1  0
 25 42  1  0
 28 43  1  0
M  ISO  8  30  14  31  14  32  14  33  14  34  14  35  14  36  14  37   8
M  ISO  6  38   8  39   8  40   8  41  14  42  14  43  14
M  END
>  <minimizedAffinity>  (1) 
-5.91722775

>  <minimizedRMSD>  (1) 
0.496435523

$$$$
