
     RDKit          3D

 41 45  0  0  0  0  0  0  0  0999 V2000
   35.8300   30.0240   32.8140 C   0  0  0  0  0  0  0  0  0  0  0  0
   36.3240   30.4690   31.6190 C   0  0  0  0  0  0  0  0  0  0  0  0
   36.1700   31.7920   31.4790 N   0  0  0  0  0  0  0  0  0  0  0  0
   35.5730   32.2440   32.5800 C   0  0  0  0  0  0  0  0  0  0  0  0
   35.3670   31.1850   33.3840 N   0  0  0  0  0  0  0  0  0  0  0  0
   34.7420   31.2910   34.6620 C   0  0  0  0  0  0  0  0  0  0  0  0
   35.4300   31.9990   35.6530 C   0  0  0  0  0  0  0  0  0  0  0  0
   34.9190   32.1690   36.9430 C   0  0  0  0  0  0  0  0  0  0  0  0
   33.7050   31.6250   37.2490 N   0  0  0  0  0  0  0  0  0  0  0  0
   33.0750   30.9490   36.2610 C   0  0  0  0  0  0  0  0  0  0  0  0
   33.5550   30.7800   35.0230 N   0  0  0  0  0  0  0  0  0  0  0  0
   31.7740   30.3430   36.5230 C   0  0  0  0  0  0  0  0  0  0  0  0
   30.5190   30.8440   36.4680 N   0  0  0  0  0  0  0  0  0  0  0  0
   29.6850   29.8970   36.7930 O   0  0  0  0  0  0  0  0  0  0  0  0
   30.3210   28.7750   37.0670 C   0  0  0  0  0  0  0  0  0  0  0  0
   31.6230   29.0610   36.8960 N   0  0  0  0  0  0  0  0  0  0  0  0
   35.7490   28.7130   33.4430 C   0  0  0  0  0  0  0  0  0  0  0  0
   36.5630   28.4930   34.6790 C   0  0  0  0  0  0  0  0  0  0  0  0
   38.0840   25.2750   35.2980 C   0  0  0  0  0  0  0  0  0  0  0  0
   37.6610   25.1780   34.0030 N   0  0  0  0  0  0  0  0  0  0  0  0
   37.0900   26.3170   33.6920 O   0  0  0  0  0  0  0  0  0  0  0  0
   37.1200   27.1410   34.7110 C   0  0  0  0  0  0  0  0  0  0  0  0
   37.7250   26.5180   35.7040 N   0  0  0  0  0  0  0  0  0  0  0  0
   38.9410   23.2260   38.2870 C   0  0  0  0  0  0  0  0  0  0  0  0
   38.2310   24.1320   37.4910 C   0  0  0  0  0  0  0  0  0  0  0  0
   38.7680   24.3520   36.1720 C   0  0  0  0  0  0  0  0  0  0  0  0
   39.9050   23.6760   35.8010 N   0  0  0  0  0  0  0  0  0  0  0  0
   40.5180   22.8260   36.6330 C   0  0  0  0  0  0  0  0  0  0  0  0
   40.0570   22.6000   37.8460 N   0  0  0  0  0  0  0  0  0  0  0  0
   36.7912   29.8192   30.8643 H   0  0  0  0  0  0  0  0  0  0  0  0
   35.2994   33.2880   32.7925 H   0  0  0  0  0  0  0  0  0  0  0  0
   36.4085   32.4379   35.4084 H   0  0  0  0  0  0  0  0  0  0  0  0
   35.4859   32.7319   37.6991 H   0  0  0  0  0  0  0  0  0  0  0  0
   29.8813   27.8133   37.3699 H   0  0  0  0  0  0  0  0  0  0  0  0
   34.6954   28.5372   33.7057 H   0  0  0  0  0  0  0  0  0  0  0  0
   36.1688   28.0177   32.7012 H   0  0  0  0  0  0  0  0  0  0  0  0
   37.3871   29.2213   34.7004 H   0  0  0  0  0  0  0  0  0  0  0  0
   35.9094   28.6216   35.5544 H   0  0  0  0  0  0  0  0  0  0  0  0
   38.5801   23.0157   39.3046 H   0  0  0  0  0  0  0  0  0  0  0  0
   37.3241   24.6419   37.8481 H   0  0  0  0  0  0  0  0  0  0  0  0
   41.4264   22.3048   36.2967 H   0  0  0  0  0  0  0  0  0  0  0  0
  1  5  1  0
  1 17  1  0
  2  1  2  0
  3  2  1  0
  3  4  2  0
  4  5  1  0
  5  6  1  0
  6 11  1  0
  6  7  2  0
  7  8  1  0
  8  9  2  0
 10 12  1  0
 10  9  1  0
 11 10  2  0
 12 16  1  0
 13 12  2  0
 13 14  1  0
 14 15  1  0
 16 15  2  0
 17 18  1  0
 18 22  1  0
 19 23  1  0
 19 26  1  0
 20 19  2  0
 21 20  1  0
 21 22  1  0
 22 23  2  0
 25 24  2  0
 26 25  1  0
 27 26  2  0
 27 28  1  0
 28 29  2  0
 29 24  1  0
  2 30  1  0
  4 31  1  0
  7 32  1  0
  8 33  1  0
 15 34  1  0
 17 35  1  0
 17 36  1  0
 18 37  1  0
 18 38  1  0
 24 39  1  0
 25 40  1  0
 28 41  1  0
M  ISO  8  30  14  31  14  32  14  33  14  34  14  35   8  36   8  37   8
M  ISO  4  38   8  39  14  40  14  41  14
M  END
>  <minimizedAffinity>  (1) 
-5.88898134

>  <minimizedRMSD>  (1) 
0.440200567

$$$$
