
     RDKit          3D

 37 40  0  0  0  0  0  0  0  0999 V2000
   35.7430   28.6610   33.4250 C   0  0  0  0  0  0  0  0  0  0  0  0
   35.8710   29.9460   32.7590 C   0  0  0  0  0  0  0  0  0  0  0  0
   36.3970   30.3480   31.5450 C   0  0  0  0  0  0  0  0  0  0  0  0
   36.2810   31.6760   31.3710 N   0  0  0  0  0  0  0  0  0  0  0  0
   35.6820   32.1630   32.4530 C   0  0  0  0  0  0  0  0  0  0  0  0
   35.4350   31.1380   33.2870 N   0  0  0  0  0  0  0  0  0  0  0  0
   34.8000   31.3040   34.5480 C   0  0  0  0  0  0  0  0  0  0  0  0
   35.5390   31.8880   35.5800 C   0  0  0  0  0  0  0  0  0  0  0  0
   35.0420   32.1100   36.8550 C   0  0  0  0  0  0  0  0  0  0  0  0
   33.7700   31.7410   37.1210 N   0  0  0  0  0  0  0  0  0  0  0  0
   33.0660   31.1740   36.1050 C   0  0  0  0  0  0  0  0  0  0  0  0
   33.5460   30.9560   34.8570 N   0  0  0  0  0  0  0  0  0  0  0  0
   31.3890   30.7050   36.5120 S   0  0  0  0  0  0  0  0  0  0  0  0
   36.5550   28.4480   34.6560 C   0  0  0  0  0  0  0  0  0  0  0  0
   38.0950   25.2290   35.2810 C   0  0  0  0  0  0  0  0  0  0  0  0
   37.6840   25.1410   33.9830 N   0  0  0  0  0  0  0  0  0  0  0  0
   37.1090   26.2850   33.6830 O   0  0  0  0  0  0  0  0  0  0  0  0
   37.1220   27.1030   34.6970 C   0  0  0  0  0  0  0  0  0  0  0  0
   37.7220   26.4820   35.6970 N   0  0  0  0  0  0  0  0  0  0  0  0
   38.9780   23.2020   38.2780 C   0  0  0  0  0  0  0  0  0  0  0  0
   38.2490   24.1010   37.4810 C   0  0  0  0  0  0  0  0  0  0  0  0
   38.7780   24.3170   36.1770 C   0  0  0  0  0  0  0  0  0  0  0  0
   39.9310   23.6540   35.7940 N   0  0  0  0  0  0  0  0  0  0  0  0
   40.5470   22.8210   36.6230 C   0  0  0  0  0  0  0  0  0  0  0  0
   40.0870   22.5890   37.8540 N   0  0  0  0  0  0  0  0  0  0  0  0
   36.0288   27.8834   32.7014 H   0  0  0  0  0  0  0  0  0  0  0  0
   34.6975   28.6206   33.7646 H   0  0  0  0  0  0  0  0  0  0  0  0
   36.8536   29.6660   30.8127 H   0  0  0  0  0  0  0  0  0  0  0  0
   35.4323   33.2189   32.6341 H   0  0  0  0  0  0  0  0  0  0  0  0
   36.5756   32.1892   35.3685 H   0  0  0  0  0  0  0  0  0  0  0  0
   35.6679   32.5751   37.6308 H   0  0  0  0  0  0  0  0  0  0  0  0
   31.2439   30.6644   37.8737 H   0  0  0  0  0  0  0  0  0  0  0  0
   37.3741   29.1819   34.6753 H   0  0  0  0  0  0  0  0  0  0  0  0
   35.8974   28.5721   35.5290 H   0  0  0  0  0  0  0  0  0  0  0  0
   38.6195   22.9935   39.2968 H   0  0  0  0  0  0  0  0  0  0  0  0
   37.3367   24.6010   37.8384 H   0  0  0  0  0  0  0  0  0  0  0  0
   41.4604   22.3085   36.2869 H   0  0  0  0  0  0  0  0  0  0  0  0
  1 14  1  0
  2  6  1  0
  2  1  1  0
  3  2  2  0
  4  3  1  0
  4  5  2  0
  5  6  1  0
  6  7  1  0
  7 12  1  0
  7  8  2  0
  8  9  1  0
  9 10  2  0
 11 13  1  0
 11 10  1  0
 12 11  2  0
 14 18  1  0
 15 19  1  0
 15 22  1  0
 16 15  2  0
 17 16  1  0
 17 18  1  0
 18 19  2  0
 21 20  2  0
 22 21  1  0
 23 22  2  0
 23 24  1  0
 24 25  2  0
 25 20  1  0
  1 26  1  0
  1 27  1  0
  3 28  1  0
  5 29  1  0
  8 30  1  0
  9 31  1  0
 13 32  1  0
 14 33  1  0
 14 34  1  0
 20 35  1  0
 21 36  1  0
 24 37  1  0
M  ISO  8  26   8  27   8  28  14  29  14  30  14  31  14  32  11  33   8
M  ISO  4  34   8  35  14  36  14  37  14
M  END
>  <minimizedAffinity>  (1) 
-5.48282003

>  <minimizedRMSD>  (1) 
0.0346856564

$$$$
