
     RDKit          3D

 38 41  0  0  0  0  0  0  0  0999 V2000
   35.7200   28.6880   33.4880 C   0  0  0  0  0  0  0  0  0  0  0  0
   35.8190   29.9860   32.8210 C   0  0  0  0  0  0  0  0  0  0  0  0
   36.3290   30.3790   31.6030 C   0  0  0  0  0  0  0  0  0  0  0  0
   36.1870   31.7090   31.4350 N   0  0  0  0  0  0  0  0  0  0  0  0
   35.5940   32.1890   32.5220 C   0  0  0  0  0  0  0  0  0  0  0  0
   35.3730   31.1680   33.3490 N   0  0  0  0  0  0  0  0  0  0  0  0
   34.7480   31.3190   34.6210 C   0  0  0  0  0  0  0  0  0  0  0  0
   35.4740   31.9240   35.6320 C   0  0  0  0  0  0  0  0  0  0  0  0
   34.9750   32.1290   36.9150 C   0  0  0  0  0  0  0  0  0  0  0  0
   33.7010   31.7130   37.1930 N   0  0  0  0  0  0  0  0  0  0  0  0
   33.0230   31.1300   36.1900 C   0  0  0  0  0  0  0  0  0  0  0  0
   33.4970   30.9270   34.9490 N   0  0  0  0  0  0  0  0  0  0  0  0
   31.7080   30.7160   36.5290 N   0  0  0  0  0  0  0  0  0  0  0  0
   36.5710   28.4820   34.6870 C   0  0  0  0  0  0  0  0  0  0  0  0
   38.0940   25.2520   35.2860 C   0  0  0  0  0  0  0  0  0  0  0  0
   37.6740   25.1660   34.0000 N   0  0  0  0  0  0  0  0  0  0  0  0
   37.1030   26.3120   33.7000 O   0  0  0  0  0  0  0  0  0  0  0  0
   37.1340   27.1240   34.7210 C   0  0  0  0  0  0  0  0  0  0  0  0
   37.7400   26.4900   35.7060 N   0  0  0  0  0  0  0  0  0  0  0  0
   38.9660   23.2050   38.2820 C   0  0  0  0  0  0  0  0  0  0  0  0
   38.2570   24.1030   37.4840 C   0  0  0  0  0  0  0  0  0  0  0  0
   38.7840   24.3260   36.1730 C   0  0  0  0  0  0  0  0  0  0  0  0
   39.9290   23.6620   35.7800 N   0  0  0  0  0  0  0  0  0  0  0  0
   40.5390   22.8180   36.6190 C   0  0  0  0  0  0  0  0  0  0  0  0
   40.0790   22.5820   37.8510 N   0  0  0  0  0  0  0  0  0  0  0  0
   35.9891   27.9153   32.7528 H   0  0  0  0  0  0  0  0  0  0  0  0
   34.6855   28.6341   33.8580 H   0  0  0  0  0  0  0  0  0  0  0  0
   36.7887   29.7010   30.8688 H   0  0  0  0  0  0  0  0  0  0  0  0
   35.3321   33.2413   32.7066 H   0  0  0  0  0  0  0  0  0  0  0  0
   36.4977   32.2600   35.4103 H   0  0  0  0  0  0  0  0  0  0  0  0
   35.5900   32.6139   37.6874 H   0  0  0  0  0  0  0  0  0  0  0  0
   31.1137   30.2592   35.8226 H   0  0  0  0  0  0  0  0  0  0  0  0
   31.3483   30.8725   37.4814 H   0  0  0  0  0  0  0  0  0  0  0  0
   37.3951   29.2103   34.6699 H   0  0  0  0  0  0  0  0  0  0  0  0
   35.9460   28.6191   35.5817 H   0  0  0  0  0  0  0  0  0  0  0  0
   38.6028   22.9985   39.2996 H   0  0  0  0  0  0  0  0  0  0  0  0
   37.3479   24.6089   37.8412 H   0  0  0  0  0  0  0  0  0  0  0  0
   41.4500   22.3007   36.2836 H   0  0  0  0  0  0  0  0  0  0  0  0
  1 14  1  0
  2  6  1  0
  2  1  1  0
  3  2  2  0
  4  3  1  0
  4  5  2  0
  5  6  1  0
  6  7  1  0
  7 12  1  0
  7  8  2  0
  8  9  1  0
  9 10  2  0
 11 13  1  0
 11 10  1  0
 12 11  2  0
 14 18  1  0
 15 19  1  0
 15 22  1  0
 16 15  2  0
 17 16  1  0
 17 18  1  0
 18 19  2  0
 21 20  2  0
 22 21  1  0
 23 22  2  0
 23 24  1  0
 24 25  2  0
 25 20  1  0
  1 26  1  0
  1 27  1  0
  3 28  1  0
  5 29  1  0
  8 30  1  0
  9 31  1  0
 13 32  1  0
 13 33  1  0
 14 34  1  0
 14 35  1  0
 20 36  1  0
 21 37  1  0
 24 38  1  0
M  ISO  8  26   8  27   8  28  14  29  14  30  14  31  14  34   8  35   8
M  ISO  3  36  14  37  14  38  14
M  END
>  <minimizedAffinity>  (1) 
-5.46190453

>  <minimizedRMSD>  (1) 
0.0730049983

$$$$
