
     RDKit          3D

 27 28  0  0  0  0  0  0  0  0999 V2000
   39.8890   22.7910   37.0760 C   0  0  0  0  0  0  0  0  0  0  0  0
   39.2170   23.3540   38.1960 C   0  0  0  0  0  0  0  0  0  0  0  0
   37.8190   23.3650   38.1690 C   0  0  0  0  0  0  0  0  0  0  0  0
   37.1660   22.8430   37.0870 N   0  0  0  0  0  0  0  0  0  0  0  0
   37.8550   22.3230   36.0550 C   0  0  0  0  0  0  0  0  0  0  0  0
   39.1840   22.2940   36.0450 N   0  0  0  0  0  0  0  0  0  0  0  0
   41.2540   22.7890   37.1190 O   0  0  0  0  0  0  0  0  0  0  0  0
   42.0210   22.9700   35.9340 C   0  0  0  0  0  0  0  0  0  0  0  0
   41.6740   24.1670   35.1460 C   0  0  0  0  0  0  0  0  0  0  0  0
   42.5850   25.3410   35.2030 C   0  0  0  0  0  0  0  0  0  0  0  0
   43.9880   25.0460   35.6420 C   0  0  0  0  0  0  0  0  0  0  0  0
   43.9710   24.1060   36.8490 C   0  0  0  0  0  0  0  0  0  0  0  0
   43.4740   22.8030   36.2950 C   0  0  0  0  0  0  0  0  0  0  0  0
   39.7753   23.7648   39.0502 H   0  0  0  0  0  0  0  0  0  0  0  0
   37.2504   23.7893   39.0096 H   0  0  0  0  0  0  0  0  0  0  0  0
   37.3040   21.9109   35.1968 H   0  0  0  0  0  0  0  0  0  0  0  0
   41.7624   22.1900   35.2028 H   0  0  0  0  0  0  0  0  0  0  0  0
   40.6851   24.5060   35.4883 H   0  0  0  0  0  0  0  0  0  0  0  0
   41.7343   23.8290   34.1010 H   0  0  0  0  0  0  0  0  0  0  0  0
   42.6303   25.7845   34.1974 H   0  0  0  0  0  0  0  0  0  0  0  0
   42.1645   26.0141   35.9646 H   0  0  0  0  0  0  0  0  0  0  0  0
   44.5355   24.5686   34.8160 H   0  0  0  0  0  0  0  0  0  0  0  0
   44.4840   25.9866   35.9234 H   0  0  0  0  0  0  0  0  0  0  0  0
   44.9815   23.9914   37.2683 H   0  0  0  0  0  0  0  0  0  0  0  0
   43.3404   24.4833   37.6675 H   0  0  0  0  0  0  0  0  0  0  0  0
   43.5814   22.0114   37.0512 H   0  0  0  0  0  0  0  0  0  0  0  0
   44.0569   22.5205   35.4059 H   0  0  0  0  0  0  0  0  0  0  0  0
  1  7  1  0
  1  2  2  0
  3  2  1  0
  4  3  2  0
  5  4  1  0
  6  5  2  0
  6  1  1  0
  8 13  1  0
  8  7  1  0
  9 10  1  0
  9  8  1  0
 10 11  1  0
 11 12  1  0
 13 12  1  0
  2 14  1  0
  3 15  1  0
  5 16  1  0
  8 17  1  0
  9 18  1  0
  9 19  1  0
 10 20  1  0
 10 21  1  0
 11 22  1  0
 11 23  1  0
 12 24  1  0
 12 25  1  0
 13 26  1  0
 13 27  1  0
M  ISO  8  14  14  15  14  16  14  17  13  18  13  19  13  20  13  21  13
M  ISO  6  22  13  23  13  24  13  25  13  26  13  27  13
M  END
>  <minimizedAffinity>  (1) 
-3.85263705

>  <minimizedRMSD>  (1) 
2.28072453

$$$$
