
     RDKit          3D

 26 27  0  0  0  0  0  0  0  0999 V2000
   39.6760   22.7020   37.5820 C   0  0  0  0  0  0  0  0  0  0  0  0
   39.1370   23.4860   38.6270 C   0  0  0  0  0  0  0  0  0  0  0  0
   37.9390   24.1450   38.3790 C   0  0  0  0  0  0  0  0  0  0  0  0
   37.3400   24.0140   37.1580 N   0  0  0  0  0  0  0  0  0  0  0  0
   37.8940   23.2530   36.1900 C   0  0  0  0  0  0  0  0  0  0  0  0
   39.0450   22.6010   36.3870 N   0  0  0  0  0  0  0  0  0  0  0  0
   40.8520   22.0470   37.8110 O   0  0  0  0  0  0  0  0  0  0  0  0
   44.2820   21.6040   35.6860 N   0  0  0  0  0  0  0  0  0  0  0  0
   44.0070   22.8620   36.2570 C   0  0  0  0  0  0  0  0  0  0  0  0
   42.5480   23.0630   36.4940 C   0  0  0  0  0  0  0  0  0  0  0  0
   41.7590   21.8170   36.7400 C   0  0  0  0  0  0  0  0  0  0  0  0
   42.5520   20.6080   37.0770 C   0  0  0  0  0  0  0  0  0  0  0  0
   43.8300   20.4440   36.3400 C   0  0  0  0  0  0  0  0  0  0  0  0
   39.6458   23.5712   39.5985 H   0  0  0  0  0  0  0  0  0  0  0  0
   37.4766   24.7672   39.1595 H   0  0  0  0  0  0  0  0  0  0  0  0
   37.3873   23.1673   35.2174 H   0  0  0  0  0  0  0  0  0  0  0  0
   43.8637   21.6020   34.7448 H   0  0  0  0  0  0  0  0  0  0  0  0
   44.5365   22.9388   37.2181 H   0  0  0  0  0  0  0  0  0  0  0  0
   44.3458   23.6356   35.5522 H   0  0  0  0  0  0  0  0  0  0  0  0
   42.4339   23.7155   37.3722 H   0  0  0  0  0  0  0  0  0  0  0  0
   42.1477   23.4960   35.5654 H   0  0  0  0  0  0  0  0  0  0  0  0
   41.2610   21.6048   35.7824 H   0  0  0  0  0  0  0  0  0  0  0  0
   42.7852   20.6467   38.1513 H   0  0  0  0  0  0  0  0  0  0  0  0
   41.9274   19.7514   36.7836 H   0  0  0  0  0  0  0  0  0  0  0  0
   43.6918   19.6562   35.5848 H   0  0  0  0  0  0  0  0  0  0  0  0
   44.5930   20.1926   37.0914 H   0  0  0  0  0  0  0  0  0  0  0  0
  1  7  1  0
  1  2  2  0
  3  2  1  0
  4  3  2  0
  5  6  2  0
  5  4  1  0
  6  1  1  0
  8  9  1  0
  8 13  1  0
  9 10  1  0
 10 11  1  0
 11 12  1  0
 11  7  1  0
 13 12  1  0
  2 14  1  0
  3 15  1  0
  5 16  1  0
  8 17  1  0
  9 18  1  0
  9 19  1  0
 10 20  1  0
 10 21  1  0
 11 22  1  0
 12 23  1  0
 12 24  1  0
 13 25  1  0
 13 26  1  0
M  ISO  8  14  14  15  14  16  14  17   5  18  13  19  13  20  13  21  13
M  ISO  5  22  13  23  13  24  13  25  13  26  13
M  END
>  <minimizedAffinity>  (1) 
-3.80039835

>  <minimizedRMSD>  (1) 
0.949490309

$$$$
