
     RDKit          3D

 41 45  0  0  0  0  0  0  0  0999 V2000
   40.4490   22.7040   37.7500 C   0  0  0  0  0  0  0  0  0  0  0  0
   39.4510   23.1870   36.8950 C   0  0  0  0  0  0  0  0  0  0  0  0
   39.8620   23.6900   35.6550 C   0  0  0  0  0  0  0  0  0  0  0  0
   41.1990   23.6920   35.3270 N   0  0  0  0  0  0  0  0  0  0  0  0
   42.1210   23.2050   36.2110 C   0  0  0  0  0  0  0  0  0  0  0  0
   41.7310   22.7180   37.4110 N   0  0  0  0  0  0  0  0  0  0  0  0
   38.9720   24.2150   34.6750 N   0  0  0  0  0  0  0  0  0  0  0  0
   38.4490   23.7500   33.5250 C   0  0  0  0  0  0  0  0  0  0  0  0
   37.6470   24.6950   32.9940 N   0  0  0  0  0  0  0  0  0  0  0  0
   37.6400   25.7860   33.7940 C   0  0  0  0  0  0  0  0  0  0  0  0
   36.9680   26.9810   33.6490 C   0  0  0  0  0  0  0  0  0  0  0  0
   37.1550   27.9100   34.6260 N   0  0  0  0  0  0  0  0  0  0  0  0
   37.9650   27.6270   35.6640 C   0  0  0  0  0  0  0  0  0  0  0  0
   38.6010   26.4470   35.7640 N   0  0  0  0  0  0  0  0  0  0  0  0
   38.4830   25.4650   34.8520 C   0  0  0  0  0  0  0  0  0  0  0  0
   38.0060   23.2030   37.2070 C   0  0  0  0  0  0  0  0  0  0  0  0
   37.8830   22.5780   38.4610 F   0  0  0  0  0  0  0  0  0  0  0  0
   37.2450   22.5510   36.3180 F   0  0  0  0  0  0  0  0  0  0  0  0
   37.5680   24.5160   37.4770 F   0  0  0  0  0  0  0  0  0  0  0  0
   43.8270   23.2510   35.6950 S   0  0  0  0  0  0  0  0  0  0  0  0
   44.7800   24.2530   36.8310 C   0  0  0  0  0  0  0  0  0  0  0  0
   44.0900   25.1640   37.6350 C   0  0  0  0  0  0  0  0  0  0  0  0
   45.4580   25.9620   38.6300 S   0  0  0  0  0  0  0  0  0  0  0  0
   46.7310   24.8790   37.7410 C   0  0  0  0  0  0  0  0  0  0  0  0
   46.0490   24.3110   37.0750 N   0  0  0  0  0  0  0  0  0  0  0  0
   48.1620   24.8600   37.9320 N   0  0  0  0  0  0  0  0  0  0  0  0
   48.5890   23.9070   38.7900 C   0  0  0  0  0  0  0  0  0  0  0  0
   49.9620   24.0160   38.8660 C   0  0  0  0  0  0  0  0  0  0  0  0
   50.3020   25.0330   38.0450 N   0  0  0  0  0  0  0  0  0  0  0  0
   49.2100   25.5400   37.4810 C   0  0  0  0  0  0  0  0  0  0  0  0
   49.0050   26.6240   36.5390 C   0  0  0  0  0  0  0  0  0  0  0  0
   48.7940   26.3910   35.3220 O   0  0  0  0  0  0  0  0  0  0  0  0
   49.0490   27.9240   37.0410 O   0  0  0  0  0  0  0  0  0  0  0  0
   40.1611   22.3009   38.7322 H   0  0  0  0  0  0  0  0  0  0  0  0
   38.6443   22.7592   33.0889 H   0  0  0  0  0  0  0  0  0  0  0  0
   36.3132   27.1741   32.7865 H   0  0  0  0  0  0  0  0  0  0  0  0
   38.1100   28.3817   36.4511 H   0  0  0  0  0  0  0  0  0  0  0  0
   43.0088   25.3628   37.6733 H   0  0  0  0  0  0  0  0  0  0  0  0
   47.9602   23.1813   39.3266 H   0  0  0  0  0  0  0  0  0  0  0  0
   50.6420   23.3996   39.4723 H   0  0  0  0  0  0  0  0  0  0  0  0
   48.9143   28.6940   36.4335 H   0  0  0  0  0  0  0  0  0  0  0  0
  2 16  1  0
  2  1  2  0
  3  2  1  0
  4  3  2  0
  4  5  1  0
  5  6  2  0
  6  1  1  0
  7 15  1  0
  7  3  1  0
  8  7  1  0
  9  8  2  0
  9 10  1  0
 10 15  2  0
 11 10  1  0
 11 12  2  0
 12 13  1  0
 13 14  2  0
 15 14  1  0
 16 19  1  0
 16 17  1  0
 18 16  1  0
 20  5  1  0
 20 21  1  0
 21 25  1  0
 21 22  2  0
 22 23  1  0
 24 26  1  0
 24 23  1  0
 25 24  2  0
 26 27  1  0
 27 28  2  0
 29 28  1  0
 30 26  1  0
 30 29  2  0
 31 33  1  0
 31 30  1  0
 32 31  2  0
  1 34  1  0
  8 35  1  0
 11 36  1  0
 13 37  1  0
 22 38  1  0
 27 39  1  0
 28 40  1  0
 33 41  1  0
M  ISO  8  34  14  35  14  36  14  37  14  38  14  39  14  40  14  41   3
M  END
>  <minimizedAffinity>  (1) 
-6.49675894

>  <minimizedRMSD>  (1) 
4.02996969

$$$$
