
     RDKit          3D

 18 19  0  0  0  0  0  0  0  0999 V2000
   39.6820   22.7970   37.5310 C   0  0  0  0  0  0  0  0  0  0  0  0
   39.0330   23.3910   38.6430 C   0  0  0  0  0  0  0  0  0  0  0  0
   37.8680   24.1030   38.3960 C   0  0  0  0  0  0  0  0  0  0  0  0
   37.3930   24.2080   37.1250 N   0  0  0  0  0  0  0  0  0  0  0  0
   38.0430   23.6260   36.0950 C   0  0  0  0  0  0  0  0  0  0  0  0
   39.1650   22.9330   36.2890 N   0  0  0  0  0  0  0  0  0  0  0  0
   40.8320   22.0930   37.7590 O   0  0  0  0  0  0  0  0  0  0  0  0
   41.5460   21.3700   36.7780 C   0  0  0  0  0  0  0  0  0  0  0  0
   42.6640   20.4890   37.2360 C   0  0  0  0  0  0  0  0  0  0  0  0
   42.9690   21.8220   36.6130 C   0  0  0  0  0  0  0  0  0  0  0  0
   39.4371   23.2913   39.6612 H   0  0  0  0  0  0  0  0  0  0  0  0
   37.3289   24.5821   39.2266 H   0  0  0  0  0  0  0  0  0  0  0  0
   37.6393   23.7255   35.0766 H   0  0  0  0  0  0  0  0  0  0  0  0
   40.6754   21.2063   36.1259 H   0  0  0  0  0  0  0  0  0  0  0  0
   42.8355   20.3327   38.3113 H   0  0  0  0  0  0  0  0  0  0  0  0
   42.9667   19.4505   37.0363 H   0  0  0  0  0  0  0  0  0  0  0  0
   43.4185   21.8715   35.6103 H   0  0  0  0  0  0  0  0  0  0  0  0
   43.5449   22.7096   36.9137 H   0  0  0  0  0  0  0  0  0  0  0  0
  1  7  1  0
  1  2  2  0
  3  2  1  0
  4  3  2  0
  5  6  2  0
  5  4  1  0
  6  1  1  0
  8  9  1  0
  8  7  1  0
 10  8  1  0
 10  9  1  0
  2 11  1  0
  3 12  1  0
  5 13  1  0
  8 14  1  0
  9 15  1  0
  9 16  1  0
 10 17  1  0
 10 18  1  0
M  ISO  8  11  14  12  14  13  14  14  13  15  13  16  13  17  13  18  13
M  END
>  <minimizedAffinity>  (1) 
-3.40314507

>  <minimizedRMSD>  (1) 
0.377254933

$$$$
