
     RDKit          3D

 16 17  0  0  0  0  0  0  0  0999 V2000
   39.6260   22.6850   37.5160 C   0  0  0  0  0  0  0  0  0  0  0  0
   39.0350   23.3970   38.5800 C   0  0  0  0  0  0  0  0  0  0  0  0
   37.9250   24.1950   38.3050 C   0  0  0  0  0  0  0  0  0  0  0  0
   37.4670   24.2500   37.0310 N   0  0  0  0  0  0  0  0  0  0  0  0
   38.0500   23.5610   36.0280 C   0  0  0  0  0  0  0  0  0  0  0  0
   39.1110   22.7920   36.2690 N   0  0  0  0  0  0  0  0  0  0  0  0
   40.7100   21.9050   37.7820 O   0  0  0  0  0  0  0  0  0  0  0  0
   41.8900   22.1670   37.0680 C   0  0  0  0  0  0  0  0  0  0  0  0
   42.6170   21.1040   36.7100 N   0  0  0  0  0  0  0  0  0  0  0  0
   43.6520   21.5350   36.0700 O   0  0  0  0  0  0  0  0  0  0  0  0
   43.6080   22.8470   36.0090 C   0  0  0  0  0  0  0  0  0  0  0  0
   42.5070   23.2780   36.6300 N   0  0  0  0  0  0  0  0  0  0  0  0
   39.4391   23.3248   39.6005 H   0  0  0  0  0  0  0  0  0  0  0  0
   37.4321   24.7672   39.1047 H   0  0  0  0  0  0  0  0  0  0  0  0
   37.6476   23.6345   35.0069 H   0  0  0  0  0  0  0  0  0  0  0  0
   44.3586   23.4882   35.5237 H   0  0  0  0  0  0  0  0  0  0  0  0
  1  7  1  0
  1  2  2  0
  3  2  1  0
  4  3  2  0
  5  6  2  0
  5  4  1  0
  6  1  1  0
  8  7  1  0
  9  8  2  0
 10  9  1  0
 11 10  1  0
 11 12  2  0
 12  8  1  0
  2 13  1  0
  3 14  1  0
  5 15  1  0
 11 16  1  0
M  ISO  4  13  14  14  14  15  14  16  14
M  END
>  <minimizedAffinity>  (1) 
-3.3872242

>  <minimizedRMSD>  (1) 
1.43843412

$$$$
