
     RDKit          3D

 30 33  0  0  0  0  0  0  0  0999 V2000
   41.8870   22.0570   37.0350 C   0  0  0  0  0  0  0  0  0  0  0  0
   42.5180   20.9160   36.5510 C   0  0  0  0  0  0  0  0  0  0  0  0
   44.0450   21.5710   35.8610 S   0  0  0  0  0  0  0  0  0  0  0  0
   43.5800   23.3620   36.3530 C   0  0  0  0  0  0  0  0  0  0  0  0
   42.5660   23.1760   36.8450 N   0  0  0  0  0  0  0  0  0  0  0  0
   44.3090   24.5920   36.1520 N   0  0  0  0  0  0  0  0  0  0  0  0
   45.3030   25.0920   36.8960 C   0  0  0  0  0  0  0  0  0  0  0  0
   45.6730   26.2430   36.3370 N   0  0  0  0  0  0  0  0  0  0  0  0
   44.9320   26.4740   35.2610 C   0  0  0  0  0  0  0  0  0  0  0  0
   44.8680   27.4840   34.3130 C   0  0  0  0  0  0  0  0  0  0  0  0
   43.9720   27.4150   33.3130 N   0  0  0  0  0  0  0  0  0  0  0  0
   43.1220   26.3700   33.2110 C   0  0  0  0  0  0  0  0  0  0  0  0
   43.1460   25.3670   34.1060 N   0  0  0  0  0  0  0  0  0  0  0  0
   44.0380   25.4260   35.1100 C   0  0  0  0  0  0  0  0  0  0  0  0
   45.7470   28.6000   34.3870 N   0  0  0  0  0  0  0  0  0  0  0  0
   40.6400   21.8630   37.6470 O   0  0  0  0  0  0  0  0  0  0  0  0
   39.6190   22.7170   37.4090 C   0  0  0  0  0  0  0  0  0  0  0  0
   38.9980   23.3210   38.5020 C   0  0  0  0  0  0  0  0  0  0  0  0
   37.9410   24.2040   38.2460 C   0  0  0  0  0  0  0  0  0  0  0  0
   37.5680   24.4340   36.9630 N   0  0  0  0  0  0  0  0  0  0  0  0
   38.1960   23.8280   35.9190 C   0  0  0  0  0  0  0  0  0  0  0  0
   39.2030   22.9870   36.1620 N   0  0  0  0  0  0  0  0  0  0  0  0
   42.1701   19.8729   36.5823 H   0  0  0  0  0  0  0  0  0  0  0  0
   45.7339   24.6373   37.8002 H   0  0  0  0  0  0  0  0  0  0  0  0
   42.3989   26.3392   32.3827 H   0  0  0  0  0  0  0  0  0  0  0  0
   45.6930   29.3460   33.6788 H   0  0  0  0  0  0  0  0  0  0  0  0
   46.4375   28.6621   35.1488 H   0  0  0  0  0  0  0  0  0  0  0  0
   39.3271   23.1111   39.5304 H   0  0  0  0  0  0  0  0  0  0  0  0
   37.4202   24.7045   39.0756 H   0  0  0  0  0  0  0  0  0  0  0  0
   37.8769   24.0293   34.8857 H   0  0  0  0  0  0  0  0  0  0  0  0
  1 16  1  0
  2  1  2  0
  3  4  1  0
  3  2  1  0
  4  5  2  0
  5  1  1  0
  6  4  1  0
  6  7  1  0
  8  7  2  0
  9  8  1  0
 10 15  1  0
 10  9  2  0
 11 10  1  0
 12 11  2  0
 12 13  1  0
 13 14  2  0
 14  9  1  0
 14  6  1  0
 17 16  1  0
 17 18  2  0
 19 18  1  0
 20 19  2  0
 21 22  2  0
 21 20  1  0
 22 17  1  0
  2 23  1  0
  7 24  1  0
 12 25  1  0
 15 26  1  0
 15 27  1  0
 18 28  1  0
 19 29  1  0
 21 30  1  0
M  ISO  6  23  14  24  14  25  14  28  14  29  14  30  14
M  END
>  <minimizedAffinity>  (1) 
-5.40492201

>  <minimizedRMSD>  (1) 
0.271614671

$$$$
