
     RDKit          3D

 31 34  0  0  0  0  0  0  0  0999 V2000
   42.0130   23.2040   35.8840 C   0  0  0  0  0  0  0  0  0  0  0  0
   41.9420   24.0560   34.7710 C   0  0  0  0  0  0  0  0  0  0  0  0
   43.3020   25.2000   35.1360 S   0  0  0  0  0  0  0  0  0  0  0  0
   43.7310   24.3140   36.7510 C   0  0  0  0  0  0  0  0  0  0  0  0
   42.9580   23.4790   36.7640 N   0  0  0  0  0  0  0  0  0  0  0  0
   44.8660   24.8910   37.5110 C   0  0  0  0  0  0  0  0  0  0  0  0
   44.9090   25.8990   38.4300 C   0  0  0  0  0  0  0  0  0  0  0  0
   46.2120   25.9780   38.7740 N   0  0  0  0  0  0  0  0  0  0  0  0
   46.9600   25.0700   38.1110 C   0  0  0  0  0  0  0  0  0  0  0  0
   48.3230   24.8160   38.1670 C   0  0  0  0  0  0  0  0  0  0  0  0
   48.8480   23.8170   37.3750 C   0  0  0  0  0  0  0  0  0  0  0  0
   48.0080   23.1020   36.5550 C   0  0  0  0  0  0  0  0  0  0  0  0
   46.6540   23.3580   36.5010 C   0  0  0  0  0  0  0  0  0  0  0  0
   46.1020   24.3470   37.2780 C   0  0  0  0  0  0  0  0  0  0  0  0
   41.0460   22.1840   35.8710 O   0  0  0  0  0  0  0  0  0  0  0  0
   39.7860   22.4300   36.3050 C   0  0  0  0  0  0  0  0  0  0  0  0
   39.5920   23.0430   37.5440 C   0  0  0  0  0  0  0  0  0  0  0  0
   38.2890   23.2770   37.9500 C   0  0  0  0  0  0  0  0  0  0  0  0
   37.2520   22.9190   37.1600 N   0  0  0  0  0  0  0  0  0  0  0  0
   37.4700   22.3240   35.9560 C   0  0  0  0  0  0  0  0  0  0  0  0
   38.7260   22.0920   35.5530 N   0  0  0  0  0  0  0  0  0  0  0  0
   41.2524   24.0358   33.9142 H   0  0  0  0  0  0  0  0  0  0  0  0
   44.0730   26.5079   38.8048 H   0  0  0  0  0  0  0  0  0  0  0  0
   46.5895   26.6488   39.4584 H   0  0  0  0  0  0  0  0  0  0  0  0
   48.9740   25.4021   38.8324 H   0  0  0  0  0  0  0  0  0  0  0  0
   49.9251   23.5951   37.3990 H   0  0  0  0  0  0  0  0  0  0  0  0
   48.4272   22.3039   35.9247 H   0  0  0  0  0  0  0  0  0  0  0  0
   46.0121   22.7665   35.8316 H   0  0  0  0  0  0  0  0  0  0  0  0
   40.4451   23.3303   38.1762 H   0  0  0  0  0  0  0  0  0  0  0  0
   38.0966   23.7569   38.9209 H   0  0  0  0  0  0  0  0  0  0  0  0
   36.6212   22.0357   35.3185 H   0  0  0  0  0  0  0  0  0  0  0  0
  1  5  1  0
  2  3  1  0
  2  1  2  0
  3  4  1  0
  4  5  2  0
  4  6  1  0
  6  7  2  0
  7  8  1  0
  9 10  2  0
  9  8  1  0
 11 10  1  0
 12 11  2  0
 13 12  1  0
 13 14  2  0
 14  6  1  0
 14  9  1  0
 15  1  1  0
 15 16  1  0
 16 17  2  0
 17 18  1  0
 19 18  2  0
 20 19  1  0
 21 20  2  0
 21 16  1  0
  2 22  1  0
  7 23  1  0
  8 24  1  0
 10 25  1  0
 11 26  1  0
 12 27  1  0
 13 28  1  0
 17 29  1  0
 18 30  1  0
 20 31  1  0
M  ISO  8  22  14  23  14  24   9  25  14  26  14  27  14  28  14  29  14
M  ISO  2  30  14  31  14
M  END
>  <minimizedAffinity>  (1) 
-5.19579792

>  <minimizedRMSD>  (1) 
2.47058868

$$$$
