
     RDKit          3D

 27 29  0  0  0  0  0  0  0  0999 V2000
   41.8490   22.0410   37.0990 C   0  0  0  0  0  0  0  0  0  0  0  0
   42.5120   20.8500   36.8360 C   0  0  0  0  0  0  0  0  0  0  0  0
   43.9340   21.3850   35.8780 S   0  0  0  0  0  0  0  0  0  0  0  0
   43.4000   23.2140   35.9790 C   0  0  0  0  0  0  0  0  0  0  0  0
   42.4390   23.1120   36.5940 N   0  0  0  0  0  0  0  0  0  0  0  0
   43.9020   24.5220   35.4990 N   0  0  0  0  0  0  0  0  0  0  0  0
   43.7250   24.8900   34.2150 C   0  0  0  0  0  0  0  0  0  0  0  0
   44.2360   26.1310   33.8860 C   0  0  0  0  0  0  0  0  0  0  0  0
   44.8650   26.8670   34.8680 C   0  0  0  0  0  0  0  0  0  0  0  0
   45.3490   28.0160   34.5950 O   0  0  0  0  0  0  0  0  0  0  0  0
   45.0200   26.4590   36.1400 N   0  0  0  0  0  0  0  0  0  0  0  0
   44.5120   25.2420   36.4440 C   0  0  0  0  0  0  0  0  0  0  0  0
   44.6470   24.8440   37.6290 O   0  0  0  0  0  0  0  0  0  0  0  0
   40.6650   21.9160   37.8550 O   0  0  0  0  0  0  0  0  0  0  0  0
   39.6030   22.7030   37.5560 C   0  0  0  0  0  0  0  0  0  0  0  0
   39.0080   23.4470   38.5840 C   0  0  0  0  0  0  0  0  0  0  0  0
   37.9130   24.2600   38.2830 C   0  0  0  0  0  0  0  0  0  0  0  0
   37.4800   24.2850   36.9920 N   0  0  0  0  0  0  0  0  0  0  0  0
   38.0590   23.5670   36.0160 C   0  0  0  0  0  0  0  0  0  0  0  0
   39.1140   22.7820   36.2980 N   0  0  0  0  0  0  0  0  0  0  0  0
   42.2347   19.8297   37.1396 H   0  0  0  0  0  0  0  0  0  0  0  0
   43.2115   24.2497   33.4826 H   0  0  0  0  0  0  0  0  0  0  0  0
   44.1430   26.5234   32.8626 H   0  0  0  0  0  0  0  0  0  0  0  0
   45.4984   27.0400   36.8432 H   0  0  0  0  0  0  0  0  0  0  0  0
   39.3972   23.3915   39.6114 H   0  0  0  0  0  0  0  0  0  0  0  0
   37.4177   24.8591   39.0613 H   0  0  0  0  0  0  0  0  0  0  0  0
   37.6712   23.6208   34.9880 H   0  0  0  0  0  0  0  0  0  0  0  0
  1 14  1  0
  2  1  2  0
  3  4  1  0
  3  2  1  0
  4  5  2  0
  5  1  1  0
  6  4  1  0
  6 12  1  0
  7  6  1  0
  8  7  2  0
  8  9  1  0
  9 11  1  0
 10  9  2  0
 11 12  1  0
 12 13  2  0
 15 14  1  0
 15 16  2  0
 17 16  1  0
 18 17  2  0
 19 20  2  0
 19 18  1  0
 20 15  1  0
  2 21  1  0
  7 22  1  0
  8 23  1  0
 11 24  1  0
 16 25  1  0
 17 26  1  0
 19 27  1  0
M  ISO  7  21  14  22  14  23  14  24   9  25  14  26  14  27  14
M  END
>  <minimizedAffinity>  (1) 
-5.16224861

>  <minimizedRMSD>  (1) 
0.582305431

$$$$
