
     RDKit          3D

 27 29  0  0  0  0  0  0  0  0999 V2000
   41.8360   23.6170   35.5080 C   0  0  0  0  0  0  0  0  0  0  0  0
   42.1130   24.2580   34.3060 C   0  0  0  0  0  0  0  0  0  0  0  0
   43.7220   25.0040   34.6630 S   0  0  0  0  0  0  0  0  0  0  0  0
   43.7470   24.3060   36.4170 C   0  0  0  0  0  0  0  0  0  0  0  0
   42.7620   23.7510   36.4420 N   0  0  0  0  0  0  0  0  0  0  0  0
   44.9420   24.6380   37.2310 C   0  0  0  0  0  0  0  0  0  0  0  0
   44.9490   25.4840   38.2880 C   0  0  0  0  0  0  0  0  0  0  0  0
   46.1630   25.6630   38.9190 C   0  0  0  0  0  0  0  0  0  0  0  0
   47.3120   25.0130   38.4920 C   0  0  0  0  0  0  0  0  0  0  0  0
   47.2730   24.1480   37.4000 C   0  0  0  0  0  0  0  0  0  0  0  0
   46.0430   23.9700   36.7660 C   0  0  0  0  0  0  0  0  0  0  0  0
   40.6020   22.9150   35.5530 O   0  0  0  0  0  0  0  0  0  0  0  0
   39.6270   23.3290   36.3920 C   0  0  0  0  0  0  0  0  0  0  0  0
   39.6720   22.8840   37.7150 C   0  0  0  0  0  0  0  0  0  0  0  0
   38.6650   23.3090   38.5860 C   0  0  0  0  0  0  0  0  0  0  0  0
   37.6920   24.1330   38.1100 N   0  0  0  0  0  0  0  0  0  0  0  0
   37.6740   24.5460   36.8320 C   0  0  0  0  0  0  0  0  0  0  0  0
   38.6240   24.1540   35.9780 N   0  0  0  0  0  0  0  0  0  0  0  0
   41.5141   24.3003   33.3843 H   0  0  0  0  0  0  0  0  0  0  0  0
   44.0378   25.9999   38.6250 H   0  0  0  0  0  0  0  0  0  0  0  0
   46.2214   26.3396   39.7843 H   0  0  0  0  0  0  0  0  0  0  0  0
   48.2621   25.1819   39.0200 H   0  0  0  0  0  0  0  0  0  0  0  0
   48.1765   23.6261   37.0516 H   0  0  0  0  0  0  0  0  0  0  0  0
   45.9584   23.2981   35.8992 H   0  0  0  0  0  0  0  0  0  0  0  0
   40.4764   22.2185   38.0614 H   0  0  0  0  0  0  0  0  0  0  0  0
   38.6590   22.9836   39.6367 H   0  0  0  0  0  0  0  0  0  0  0  0
   36.8705   25.2125   36.4855 H   0  0  0  0  0  0  0  0  0  0  0  0
  1 12  1  0
  1  5  1  0
  2  3  1  0
  2  1  2  0
  3  4  1  0
  4  5  2  0
  4  6  1  0
  6  7  2  0
  7  8  1  0
  9  8  2  0
 10  9  1  0
 11  6  1  0
 11 10  2  0
 12 13  1  0
 13 14  2  0
 14 15  1  0
 16 15  2  0
 17 16  1  0
 18 13  1  0
 18 17  2  0
  2 19  1  0
  7 20  1  0
  8 21  1  0
  9 22  1  0
 10 23  1  0
 11 24  1  0
 14 25  1  0
 15 26  1  0
 17 27  1  0
M  ISO  8  19  14  20  14  21  14  22  14  23  14  24  14  25  14  26  14
M  ISO  1  27  14
M  END
>  <minimizedAffinity>  (1) 
-5.12396622

>  <minimizedRMSD>  (1) 
2.39780402

$$$$
