
     RDKit          3D

 33 35  0  0  0  0  0  0  0  0999 V2000
   41.9830   22.2600   36.7500 C   0  0  0  0  0  0  0  0  0  0  0  0
   42.3460   21.3650   35.7510 C   0  0  0  0  0  0  0  0  0  0  0  0
   43.9370   22.0020   35.2090 S   0  0  0  0  0  0  0  0  0  0  0  0
   43.8670   23.4350   36.4570 C   0  0  0  0  0  0  0  0  0  0  0  0
   42.8700   23.2170   36.9510 N   0  0  0  0  0  0  0  0  0  0  0  0
   44.9090   24.4850   36.6320 C   0  0  0  0  0  0  0  0  0  0  0  0
   46.2720   23.8320   36.7250 C   0  0  0  0  0  0  0  0  0  0  0  0
   47.2730   24.9640   36.6580 C   0  0  0  0  0  0  0  0  0  0  0  0
   47.0130   26.0070   37.7000 C   0  0  0  0  0  0  0  0  0  0  0  0
   45.8580   25.7120   38.6080 C   0  0  0  0  0  0  0  0  0  0  0  0
   44.6430   25.1850   37.9110 C   0  0  0  0  0  0  0  0  0  0  0  0
   40.7470   21.9930   37.3650 O   0  0  0  0  0  0  0  0  0  0  0  0
   39.7500   22.9020   37.2650 C   0  0  0  0  0  0  0  0  0  0  0  0
   39.0300   23.2240   38.4160 C   0  0  0  0  0  0  0  0  0  0  0  0
   37.9940   24.1610   38.3390 C   0  0  0  0  0  0  0  0  0  0  0  0
   37.7380   24.7180   37.1320 N   0  0  0  0  0  0  0  0  0  0  0  0
   38.4520   24.3920   36.0210 C   0  0  0  0  0  0  0  0  0  0  0  0
   39.4400   23.4960   36.1010 N   0  0  0  0  0  0  0  0  0  0  0  0
   41.7966   20.4858   35.3834 H   0  0  0  0  0  0  0  0  0  0  0  0
   44.8867   25.1837   35.7827 H   0  0  0  0  0  0  0  0  0  0  0  0
   46.3722   23.2870   37.6752 H   0  0  0  0  0  0  0  0  0  0  0  0
   46.4290   23.1026   35.9167 H   0  0  0  0  0  0  0  0  0  0  0  0
   48.2825   24.5544   36.8100 H   0  0  0  0  0  0  0  0  0  0  0  0
   47.1805   25.4404   35.6709 H   0  0  0  0  0  0  0  0  0  0  0  0
   47.9176   26.1067   38.3179 H   0  0  0  0  0  0  0  0  0  0  0  0
   46.7544   26.9289   37.1585 H   0  0  0  0  0  0  0  0  0  0  0  0
   46.1829   24.9639   39.3461 H   0  0  0  0  0  0  0  0  0  0  0  0
   45.5669   26.6685   39.0667 H   0  0  0  0  0  0  0  0  0  0  0  0
   43.9740   26.0331   37.7032 H   0  0  0  0  0  0  0  0  0  0  0  0
   44.2021   24.4362   38.5855 H   0  0  0  0  0  0  0  0  0  0  0  0
   39.2748   22.7453   39.3756 H   0  0  0  0  0  0  0  0  0  0  0  0
   37.4078   24.4356   39.2283 H   0  0  0  0  0  0  0  0  0  0  0  0
   38.2160   24.8660   35.0568 H   0  0  0  0  0  0  0  0  0  0  0  0
  1  5  1  0
  1 12  1  0
  2  1  2  0
  3  2  1  0
  3  4  1  0
  4  6  1  0
  4  5  2  0
  6  7  1  0
  6 11  1  0
  8  7  1  0
  8  9  1  0
  9 10  1  0
 11 10  1  0
 13 12  1  0
 13 14  2  0
 15 14  1  0
 16 15  2  0
 17 18  2  0
 17 16  1  0
 18 13  1  0
  2 19  1  0
  6 20  1  0
  7 21  1  0
  7 22  1  0
  8 23  1  0
  8 24  1  0
  9 25  1  0
  9 26  1  0
 10 27  1  0
 10 28  1  0
 11 29  1  0
 11 30  1  0
 14 31  1  0
 15 32  1  0
 17 33  1  0
M  ISO  8  19  14  20  13  21  13  22  13  23  13  24  13  25  13  26  13
M  ISO  7  27  13  28  13  29  13  30  13  31  14  32  14  33  14
M  END
>  <minimizedAffinity>  (1) 
-4.94682217

>  <minimizedRMSD>  (1) 
1.00741136

$$$$
