
     RDKit          3D

 29 31  0  0  0  0  0  0  0  0999 V2000
   41.8280   22.1190   36.5040 C   0  0  0  0  0  0  0  0  0  0  0  0
   42.3470   21.2640   35.5390 C   0  0  0  0  0  0  0  0  0  0  0  0
   43.9990   21.9550   35.3060 S   0  0  0  0  0  0  0  0  0  0  0  0
   43.7170   23.3240   36.5830 C   0  0  0  0  0  0  0  0  0  0  0  0
   42.6540   23.0730   36.8940 N   0  0  0  0  0  0  0  0  0  0  0  0
   44.7890   24.2240   36.8070 N   0  0  0  0  0  0  0  0  0  0  0  0
   46.1080   24.2760   36.2040 C   0  0  0  0  0  0  0  0  0  0  0  0
   46.9420   24.6580   37.4260 C   0  0  0  0  0  0  0  0  0  0  0  0
   46.0320   25.5380   38.2190 C   0  0  0  0  0  0  0  0  0  0  0  0
   44.6070   25.2650   37.7620 C   0  0  0  0  0  0  0  0  0  0  0  0
   40.5040   21.8260   36.9090 O   0  0  0  0  0  0  0  0  0  0  0  0
   39.5830   22.8170   36.9450 C   0  0  0  0  0  0  0  0  0  0  0  0
   39.0160   23.1540   38.1820 C   0  0  0  0  0  0  0  0  0  0  0  0
   38.0690   24.1740   38.2180 C   0  0  0  0  0  0  0  0  0  0  0  0
   37.7330   24.7940   37.0650 N   0  0  0  0  0  0  0  0  0  0  0  0
   38.2960   24.4490   35.8740 C   0  0  0  0  0  0  0  0  0  0  0  0
   39.2090   23.4710   35.8210 N   0  0  0  0  0  0  0  0  0  0  0  0
   41.8774   20.3985   35.0487 H   0  0  0  0  0  0  0  0  0  0  0  0
   46.4081   23.3007   35.7933 H   0  0  0  0  0  0  0  0  0  0  0  0
   46.1998   24.9601   35.3475 H   0  0  0  0  0  0  0  0  0  0  0  0
   47.2237   23.7647   38.0028 H   0  0  0  0  0  0  0  0  0  0  0  0
   47.8861   25.1547   37.1577 H   0  0  0  0  0  0  0  0  0  0  0  0
   46.1314   25.3105   39.2906 H   0  0  0  0  0  0  0  0  0  0  0  0
   46.2893   26.5962   38.0640 H   0  0  0  0  0  0  0  0  0  0  0  0
   44.1594   26.1567   37.2989 H   0  0  0  0  0  0  0  0  0  0  0  0
   43.9251   24.9962   38.5822 H   0  0  0  0  0  0  0  0  0  0  0  0
   39.3117   22.6261   39.1006 H   0  0  0  0  0  0  0  0  0  0  0  0
   37.6021   24.4703   39.1689 H   0  0  0  0  0  0  0  0  0  0  0  0
   38.0003   24.9746   34.9541 H   0  0  0  0  0  0  0  0  0  0  0  0
  1  5  1  0
  1 11  1  0
  2  1  2  0
  3  2  1  0
  3  4  1  0
  4  6  1  0
  4  5  2  0
  6 10  1  0
  7  6  1  0
  7  8  1  0
  8  9  1  0
 10  9  1  0
 11 12  1  0
 12 13  2  0
 13 14  1  0
 15 14  2  0
 16 15  1  0
 17 16  2  0
 17 12  1  0
  2 18  1  0
  7 19  1  0
  7 20  1  0
  8 21  1  0
  8 22  1  0
  9 23  1  0
  9 24  1  0
 10 25  1  0
 10 26  1  0
 13 27  1  0
 14 28  1  0
 16 29  1  0
M  ISO  8  18  14  19  13  20  13  21  13  22  13  23  13  24  13  25  13
M  ISO  4  26  13  27  14  28  14  29  14
M  END
>  <minimizedAffinity>  (1) 
-4.5206151

>  <minimizedRMSD>  (1) 
1.07036698

$$$$
