
     RDKit          3D

 30 32  0  0  0  0  0  0  0  0999 V2000
   41.8990   22.1640   36.7710 C   0  0  0  0  0  0  0  0  0  0  0  0
   42.3220   21.2150   35.8480 C   0  0  0  0  0  0  0  0  0  0  0  0
   43.9220   21.8630   35.3350 S   0  0  0  0  0  0  0  0  0  0  0  0
   43.7660   23.3680   36.4850 C   0  0  0  0  0  0  0  0  0  0  0  0
   42.7540   23.1570   36.9490 N   0  0  0  0  0  0  0  0  0  0  0  0
   44.8040   24.4260   36.5990 C   0  0  0  0  0  0  0  0  0  0  0  0
   44.7730   25.1530   37.9240 C   0  0  0  0  0  0  0  0  0  0  0  0
   46.0290   26.0190   37.7520 C   0  0  0  0  0  0  0  0  0  0  0  0
   46.9840   25.1780   36.9320 C   0  0  0  0  0  0  0  0  0  0  0  0
   46.2100   23.8940   36.6050 C   0  0  0  0  0  0  0  0  0  0  0  0
   40.6340   21.9070   37.3560 O   0  0  0  0  0  0  0  0  0  0  0  0
   39.6610   22.8610   37.2400 C   0  0  0  0  0  0  0  0  0  0  0  0
   38.9860   23.2260   38.4070 C   0  0  0  0  0  0  0  0  0  0  0  0
   37.9810   24.2010   38.3310 C   0  0  0  0  0  0  0  0  0  0  0  0
   37.7270   24.7330   37.1100 N   0  0  0  0  0  0  0  0  0  0  0  0
   38.3860   24.3680   35.9980 C   0  0  0  0  0  0  0  0  0  0  0  0
   39.3520   23.4350   36.0600 N   0  0  0  0  0  0  0  0  0  0  0  0
   41.8096   20.3003   35.5153 H   0  0  0  0  0  0  0  0  0  0  0  0
   44.5699   25.0582   35.7298 H   0  0  0  0  0  0  0  0  0  0  0  0
   43.8644   25.7623   38.0390 H   0  0  0  0  0  0  0  0  0  0  0  0
   44.7603   24.5099   38.8163 H   0  0  0  0  0  0  0  0  0  0  0  0
   45.7846   26.9516   37.2224 H   0  0  0  0  0  0  0  0  0  0  0  0
   46.4641   26.3078   38.7201 H   0  0  0  0  0  0  0  0  0  0  0  0
   47.2658   25.7044   36.0082 H   0  0  0  0  0  0  0  0  0  0  0  0
   47.9174   24.9685   37.4749 H   0  0  0  0  0  0  0  0  0  0  0  0
   46.3514   23.1248   37.3785 H   0  0  0  0  0  0  0  0  0  0  0  0
   46.5181   23.3933   35.6753 H   0  0  0  0  0  0  0  0  0  0  0  0
   39.2384   22.7567   39.3693 H   0  0  0  0  0  0  0  0  0  0  0  0
   37.4228   24.5204   39.2234 H   0  0  0  0  0  0  0  0  0  0  0  0
   38.1346   24.8338   35.0337 H   0  0  0  0  0  0  0  0  0  0  0  0
  1  5  1  0
  1 11  1  0
  2  1  2  0
  3  2  1  0
  3  4  1  0
  4  6  1  0
  4  5  2  0
  6 10  1  0
  6  7  1  0
  8  7  1  0
  9  8  1  0
 10  9  1  0
 12 11  1  0
 12 13  2  0
 14 13  1  0
 15 14  2  0
 16 17  2  0
 16 15  1  0
 17 12  1  0
  2 18  1  0
  6 19  1  0
  7 20  1  0
  7 21  1  0
  8 22  1  0
  8 23  1  0
  9 24  1  0
  9 25  1  0
 10 26  1  0
 10 27  1  0
 13 28  1  0
 14 29  1  0
 16 30  1  0
M  ISO  8  18  14  19  13  20  13  21  13  22  13  23  13  24  13  25  13
M  ISO  5  26  13  27  13  28  14  29  14  30  14
M  END
>  <minimizedAffinity>  (1) 
-4.48150921

>  <minimizedRMSD>  (1) 
0.975290537

$$$$
