
     RDKit          3D

 24 26  0  0  0  0  0  0  0  0999 V2000
   41.9050   22.1180   37.0160 C   0  0  0  0  0  0  0  0  0  0  0  0
   42.4850   20.9510   36.4820 C   0  0  0  0  0  0  0  0  0  0  0  0
   44.0120   21.6170   35.7620 S   0  0  0  0  0  0  0  0  0  0  0  0
   43.5950   23.3760   36.3150 C   0  0  0  0  0  0  0  0  0  0  0  0
   42.5960   23.2270   36.8390 N   0  0  0  0  0  0  0  0  0  0  0  0
   44.5890   24.4220   35.9590 C   0  0  0  0  0  0  0  0  0  0  0  0
   45.8760   24.3240   35.5400 C   0  0  0  0  0  0  0  0  0  0  0  0
   46.2670   25.6070   35.3750 N   0  0  0  0  0  0  0  0  0  0  0  0
   45.2310   26.4370   35.6920 C   0  0  0  0  0  0  0  0  0  0  0  0
   44.1580   25.6790   36.0660 N   0  0  0  0  0  0  0  0  0  0  0  0
   40.6660   21.9090   37.6620 O   0  0  0  0  0  0  0  0  0  0  0  0
   39.6310   22.7470   37.4110 C   0  0  0  0  0  0  0  0  0  0  0  0
   38.9870   23.3340   38.5010 C   0  0  0  0  0  0  0  0  0  0  0  0
   37.9170   24.2010   38.2430 C   0  0  0  0  0  0  0  0  0  0  0  0
   37.5530   24.4330   36.9470 N   0  0  0  0  0  0  0  0  0  0  0  0
   38.2100   23.8380   35.9140 C   0  0  0  0  0  0  0  0  0  0  0  0
   39.2280   23.0140   36.1580 N   0  0  0  0  0  0  0  0  0  0  0  0
   42.1131   19.9159   36.4972 H   0  0  0  0  0  0  0  0  0  0  0  0
   46.4654   23.4104   35.3731 H   0  0  0  0  0  0  0  0  0  0  0  0
   45.2560   27.5360   35.6528 H   0  0  0  0  0  0  0  0  0  0  0  0
   43.2271   26.0047   36.3632 H   0  0  0  0  0  0  0  0  0  0  0  0
   39.3095   23.1225   39.5312 H   0  0  0  0  0  0  0  0  0  0  0  0
   37.3790   24.6868   39.0704 H   0  0  0  0  0  0  0  0  0  0  0  0
   37.9003   24.0376   34.8775 H   0  0  0  0  0  0  0  0  0  0  0  0
  1 11  1  0
  2  1  2  0
  3  4  1  0
  3  2  1  0
  4  5  2  0
  5  1  1  0
  6 10  1  0
  6  4  1  0
  7  6  2  0
  8  7  1  0
  8  9  2  0
  9 10  1  0
 12 11  1  0
 12 13  2  0
 14 13  1  0
 15 14  2  0
 16 17  2  0
 16 15  1  0
 17 12  1  0
  2 18  1  0
  7 19  1  0
  9 20  1  0
 10 21  1  0
 13 22  1  0
 14 23  1  0
 16 24  1  0
M  ISO  7  18  14  19  14  20  14  21   9  22  14  23  14  24  14
M  END
>  <minimizedAffinity>  (1) 
-4.20904064

>  <minimizedRMSD>  (1) 
0.18629545

$$$$
