
     RDKit          3D

 22 24  0  0  0  0  0  0  0  0999 V2000
   41.8330   22.0130   36.9130 C   0  0  0  0  0  0  0  0  0  0  0  0
   42.4020   20.9040   36.2970 C   0  0  0  0  0  0  0  0  0  0  0  0
   44.0240   21.5390   35.7900 S   0  0  0  0  0  0  0  0  0  0  0  0
   43.6580   23.2540   36.5160 C   0  0  0  0  0  0  0  0  0  0  0  0
   42.6070   23.0870   36.9240 N   0  0  0  0  0  0  0  0  0  0  0  0
   44.5180   24.4600   36.5340 C   0  0  0  0  0  0  0  0  0  0  0  0
   44.4590   25.5760   35.7490 N   0  0  0  0  0  0  0  0  0  0  0  0
   45.3810   26.3980   36.0770 O   0  0  0  0  0  0  0  0  0  0  0  0
   46.0720   25.8630   37.0750 C   0  0  0  0  0  0  0  0  0  0  0  0
   45.5480   24.6420   37.3830 N   0  0  0  0  0  0  0  0  0  0  0  0
   40.5400   21.8270   37.4230 O   0  0  0  0  0  0  0  0  0  0  0  0
   39.6060   22.8180   37.2770 C   0  0  0  0  0  0  0  0  0  0  0  0
   38.9480   23.2620   38.4320 C   0  0  0  0  0  0  0  0  0  0  0  0
   37.9910   24.2770   38.2850 C   0  0  0  0  0  0  0  0  0  0  0  0
   37.7610   24.7660   37.0330 N   0  0  0  0  0  0  0  0  0  0  0  0
   38.4130   24.3140   35.9500 C   0  0  0  0  0  0  0  0  0  0  0  0
   39.3280   23.3460   36.0730 N   0  0  0  0  0  0  0  0  0  0  0  0
   41.9776   19.8993   36.1538 H   0  0  0  0  0  0  0  0  0  0  0  0
   46.9326   26.3307   37.5756 H   0  0  0  0  0  0  0  0  0  0  0  0
   39.1738   22.8302   39.4182 H   0  0  0  0  0  0  0  0  0  0  0  0
   37.4419   24.6672   39.1546 H   0  0  0  0  0  0  0  0  0  0  0  0
   38.1944   24.7404   34.9598 H   0  0  0  0  0  0  0  0  0  0  0  0
  1  5  1  0
  1 11  1  0
  2  1  2  0
  3  2  1  0
  3  4  1  0
  4  6  1  0
  4  5  2  0
  6 10  1  0
  7  8  1  0
  7  6  2  0
  8  9  1  0
  9 10  2  0
 12 11  1  0
 12 13  2  0
 14 13  1  0
 15 14  2  0
 16 17  2  0
 16 15  1  0
 17 12  1  0
  2 18  1  0
  9 19  1  0
 13 20  1  0
 14 21  1  0
 16 22  1  0
M  ISO  5  18  14  19  14  20  14  21  14  22  14
M  END
>  <minimizedAffinity>  (1) 
-4.20322132

>  <minimizedRMSD>  (1) 
0.69920975

$$$$
