
     RDKit          3D

 26 27  0  0  0  0  0  0  0  0999 V2000
   40.5920   21.8130   37.4640 O   0  0  0  0  0  0  0  0  0  0  0  0
   39.6070   22.7160   37.2740 C   0  0  0  0  0  0  0  0  0  0  0  0
   38.9820   23.2780   38.3880 C   0  0  0  0  0  0  0  0  0  0  0  0
   37.9690   24.2050   38.1780 C   0  0  0  0  0  0  0  0  0  0  0  0
   37.6220   24.5350   36.9190 N   0  0  0  0  0  0  0  0  0  0  0  0
   38.2420   23.9750   35.8470 C   0  0  0  0  0  0  0  0  0  0  0  0
   39.2240   23.0770   36.0300 N   0  0  0  0  0  0  0  0  0  0  0  0
   41.8790   22.0480   36.9290 C   0  0  0  0  0  0  0  0  0  0  0  0
   42.4720   20.9430   36.3320 C   0  0  0  0  0  0  0  0  0  0  0  0
   44.0610   21.6300   35.7870 S   0  0  0  0  0  0  0  0  0  0  0  0
   43.6460   23.3530   36.4810 C   0  0  0  0  0  0  0  0  0  0  0  0
   42.6010   23.1540   36.9130 N   0  0  0  0  0  0  0  0  0  0  0  0
   44.5780   24.4920   36.3760 C   0  0  0  0  0  0  0  0  0  0  0  0
   44.0300   25.4610   35.3840 C   0  0  0  0  0  0  0  0  0  0  0  0
   44.7890   25.2120   37.6950 C   0  0  0  0  0  0  0  0  0  0  0  0
   39.2840   22.9940   39.4069 H   0  0  0  0  0  0  0  0  0  0  0  0
   37.4540   24.6662   39.0336 H   0  0  0  0  0  0  0  0  0  0  0  0
   37.9391   24.2576   34.8280 H   0  0  0  0  0  0  0  0  0  0  0  0
   42.0815   19.9209   36.2192 H   0  0  0  0  0  0  0  0  0  0  0  0
   45.5540   24.0921   36.0638 H   0  0  0  0  0  0  0  0  0  0  0  0
   43.5556   26.2999   35.9143 H   0  0  0  0  0  0  0  0  0  0  0  0
   44.8469   25.8411   34.7529 H   0  0  0  0  0  0  0  0  0  0  0  0
   43.2833   24.9569   34.7529 H   0  0  0  0  0  0  0  0  0  0  0  0
   44.5865   24.5209   38.5265 H   0  0  0  0  0  0  0  0  0  0  0  0
   45.8286   25.5659   37.7573 H   0  0  0  0  0  0  0  0  0  0  0  0
   44.1048   26.0711   37.7573 H   0  0  0  0  0  0  0  0  0  0  0  0
  2  1  1  0
  2  3  2  0
  4  3  1  0
  5  4  2  0
  6  7  2  0
  6  5  1  0
  7  2  1  0
  8  1  1  0
  9  8  2  0
 10  9  1  0
 10 11  1  0
 11 12  2  0
 12  8  1  0
 13 11  1  0
 13 15  1  0
 14 13  1  0
  3 16  1  0
  4 17  1  0
  6 18  1  0
  9 19  1  0
 13 20  1  0
 14 21  1  0
 14 22  1  0
 14 23  1  0
 15 24  1  0
 15 25  1  0
 15 26  1  0
M  ISO  8  16  14  17  14  18  14  19  14  20   8  21   8  22   8  23   8
M  ISO  3  24   8  25   8  26   8
M  END
>  <minimizedAffinity>  (1) 
-4.12212372

>  <minimizedRMSD>  (1) 
0.485472471

$$$$
