
     RDKit          3D

 18 19  0  0  0  0  0  0  0  0999 V2000
   39.6250   22.7430   37.4500 C   0  0  0  0  0  0  0  0  0  0  0  0
   39.0120   23.3610   38.5530 C   0  0  0  0  0  0  0  0  0  0  0  0
   37.9240   24.1820   38.3070 C   0  0  0  0  0  0  0  0  0  0  0  0
   37.5000   24.3530   37.0330 N   0  0  0  0  0  0  0  0  0  0  0  0
   38.1170   23.7400   35.9870 C   0  0  0  0  0  0  0  0  0  0  0  0
   39.1810   22.9330   36.1930 N   0  0  0  0  0  0  0  0  0  0  0  0
   40.6940   21.9370   37.6950 O   0  0  0  0  0  0  0  0  0  0  0  0
   41.9030   22.1570   37.0250 C   0  0  0  0  0  0  0  0  0  0  0  0
   42.5520   21.0210   36.5680 C   0  0  0  0  0  0  0  0  0  0  0  0
   44.0250   21.6820   35.7830 S   0  0  0  0  0  0  0  0  0  0  0  0
   43.5290   23.4670   36.2030 C   0  0  0  0  0  0  0  0  0  0  0  0
   42.5540   23.2730   36.7420 N   0  0  0  0  0  0  0  0  0  0  0  0
   44.3420   25.0880   35.8660 S   0  0  0  0  0  0  0  0  0  0  0  0
   39.3831   23.1985   39.5757 H   0  0  0  0  0  0  0  0  0  0  0  0
   37.4105   24.6891   39.1372 H   0  0  0  0  0  0  0  0  0  0  0  0
   37.7464   23.9028   34.9642 H   0  0  0  0  0  0  0  0  0  0  0  0
   42.2405   19.9703   36.6631 H   0  0  0  0  0  0  0  0  0  0  0  0
   44.6491   25.7003   37.0525 H   0  0  0  0  0  0  0  0  0  0  0  0
  1  7  1  0
  1  2  2  0
  3  2  1  0
  4  3  2  0
  5  6  2  0
  5  4  1  0
  6  1  1  0
  8  7  1  0
  9  8  2  0
 10 11  1  0
 10  9  1  0
 11 12  2  0
 12  8  1  0
 13 11  1  0
  2 14  1  0
  3 15  1  0
  5 16  1  0
  9 17  1  0
 13 18  1  0
M  ISO  5  14  14  15  14  16  14  17  14  18  11
M  END
>  <minimizedAffinity>  (1) 
-3.65110874

>  <minimizedRMSD>  (1) 
0.0565559119

$$$$
