
     RDKit          3D

 19 20  0  0  0  0  0  0  0  0999 V2000
   40.6810   21.9120   37.6410 O   0  0  0  0  0  0  0  0  0  0  0  0
   39.6250   22.7340   37.4310 C   0  0  0  0  0  0  0  0  0  0  0  0
   39.0030   23.3370   38.5380 C   0  0  0  0  0  0  0  0  0  0  0  0
   37.9200   24.1790   38.3100 C   0  0  0  0  0  0  0  0  0  0  0  0
   37.5140   24.3780   37.0310 N   0  0  0  0  0  0  0  0  0  0  0  0
   38.1220   23.7910   35.9860 C   0  0  0  0  0  0  0  0  0  0  0  0
   39.1730   22.9700   36.1670 N   0  0  0  0  0  0  0  0  0  0  0  0
   41.9020   22.1820   37.0120 C   0  0  0  0  0  0  0  0  0  0  0  0
   42.5630   21.0700   36.5030 C   0  0  0  0  0  0  0  0  0  0  0  0
   44.0560   21.7750   35.7820 S   0  0  0  0  0  0  0  0  0  0  0  0
   43.5400   23.5420   36.2970 C   0  0  0  0  0  0  0  0  0  0  0  0
   42.5540   23.3150   36.8050 N   0  0  0  0  0  0  0  0  0  0  0  0
   44.1240   24.9050   36.1590 N   0  0  0  0  0  0  0  0  0  0  0  0
   39.3641   23.1475   39.5596 H   0  0  0  0  0  0  0  0  0  0  0  0
   37.4045   24.6722   39.1473 H   0  0  0  0  0  0  0  0  0  0  0  0
   37.7550   23.9845   34.9672 H   0  0  0  0  0  0  0  0  0  0  0  0
   42.2504   20.0158   36.5331 H   0  0  0  0  0  0  0  0  0  0  0  0
   43.6235   25.7207   36.5397 H   0  0  0  0  0  0  0  0  0  0  0  0
   45.0285   25.0320   35.6828 H   0  0  0  0  0  0  0  0  0  0  0  0
  2  1  1  0
  2  3  2  0
  4  3  1  0
  5  4  2  0
  6  7  2  0
  6  5  1  0
  7  2  1  0
  8  1  1  0
  9  8  2  0
 10 11  1  0
 10  9  1  0
 11 12  2  0
 12  8  1  0
 13 11  1  0
  3 14  1  0
  4 15  1  0
  6 16  1  0
  9 17  1  0
 13 18  1  0
 13 19  1  0
M  ISO  4  14  14  15  14  16  14  17  14
M  END
>  <minimizedAffinity>  (1) 
-3.63093328

>  <minimizedRMSD>  (1) 
0.119012453

$$$$
