
     RDKit          3D

 31 34  0  0  1  0  0  0  0  0999 V2000
   41.8860   22.1810   37.0080 C   0  0  0  0  0  0  0  0  0  0  0  0
   42.6680   21.0810   36.7450 C   0  0  0  0  0  0  0  0  0  0  0  0
   44.0690   21.8350   35.8910 S   0  0  0  0  0  0  0  0  0  0  0  0
   43.3350   23.5810   36.0360 C   0  0  0  0  0  0  0  0  0  0  0  0
   42.3790   23.3170   36.5840 N   0  0  0  0  0  0  0  0  0  0  0  0
   44.0400   24.7750   35.5010 C   0  0  2  0  0  0  0  0  0  0  0  0
   45.4960   24.8190   35.3610 C   0  0  0  0  0  0  0  0  0  0  0  0
   44.9120   25.5560   36.4960 C   0  0  2  0  0  0  0  0  0  0  0  0
   45.0340   25.0880   37.9050 C   0  0  0  0  0  0  0  0  0  0  0  0
   46.1670   25.4880   38.7690 C   0  0  0  0  0  0  0  0  0  0  0  0
   44.8520   26.2140   38.9230 C   0  0  0  0  0  0  0  0  0  0  0  0
   40.6810   21.9140   37.6910 O   0  0  0  0  0  0  0  0  0  0  0  0
   39.5890   22.6920   37.4930 C   0  0  0  0  0  0  0  0  0  0  0  0
   39.0460   23.3840   38.5730 C   0  0  0  0  0  0  0  0  0  0  0  0
   37.9280   24.1740   38.3430 C   0  0  0  0  0  0  0  0  0  0  0  0
   37.4070   24.2470   37.0970 N   0  0  0  0  0  0  0  0  0  0  0  0
   37.9670   23.5520   36.0530 C   0  0  0  0  0  0  0  0  0  0  0  0
   39.0440   22.7830   36.2460 N   0  0  0  0  0  0  0  0  0  0  0  0
   42.4881   20.0237   36.9896 H   0  0  0  0  0  0  0  0  0  0  0  0
   43.2112   24.9768   34.8064 H   0  0  0  0  0  0  0  0  0  0  0  0
   46.0858   23.9103   35.5516 H   0  0  0  0  0  0  0  0  0  0  0  0
   46.1717   25.1005   34.5399 H   0  0  0  0  0  0  0  0  0  0  0  0
   44.9819   26.5899   36.8649 H   0  0  0  0  0  0  0  0  0  0  0  0
   44.6110   24.0984   37.6774 H   0  0  0  0  0  0  0  0  0  0  0  0
   46.5129   24.8108   39.5638 H   0  0  0  0  0  0  0  0  0  0  0  0
   47.2031   25.8055   38.5803 H   0  0  0  0  0  0  0  0  0  0  0  0
   44.7508   27.2560   38.5854 H   0  0  0  0  0  0  0  0  0  0  0  0
   44.1595   26.4223   39.7519 H   0  0  0  0  0  0  0  0  0  0  0  0
   39.4893   23.3069   39.5768 H   0  0  0  0  0  0  0  0  0  0  0  0
   37.4687   24.7371   39.1689 H   0  0  0  0  0  0  0  0  0  0  0  0
   37.5254   23.6287   35.0485 H   0  0  0  0  0  0  0  0  0  0  0  0
  1 12  1  0
  2  1  2  0
  3  4  1  0
  3  2  1  0
  4  5  2  0
  5  1  1  0
  6  4  1  0
  6  8  1  0
  7  6  1  0
  7  8  1  0
  8  9  1  0
  9 10  1  0
  9 11  1  0
 10 11  1  0
 13 12  1  0
 13 14  2  0
 15 14  1  0
 16 15  2  0
 17 18  2  0
 17 16  1  0
 18 13  1  0
  2 19  1  0
  6 20  1  6
  7 21  1  0
  7 22  1  0
  8 23  1  1
  9 24  1  0
 10 25  1  0
 10 26  1  0
 11 27  1  0
 11 28  1  0
 14 29  1  0
 15 30  1  0
 17 31  1  0
M  ISO  8  19  14  20  13  21  13  22  13  23  13  24  13  25  13  26  13
M  ISO  5  27  13  28  13  29  14  30  14  31  14
M  END
>  <minimizedAffinity>  (1) 
-5.18548298

>  <minimizedRMSD>  (1) 
0.964993834

$$$$
