
     RDKit          3D

 34 37  0  0  1  0  0  0  0  0999 V2000
   41.8900   22.1290   37.0230 C   0  0  0  0  0  0  0  0  0  0  0  0
   42.5320   21.0380   36.4890 C   0  0  0  0  0  0  0  0  0  0  0  0
   44.0330   21.8060   35.7990 S   0  0  0  0  0  0  0  0  0  0  0  0
   43.5090   23.5390   36.3750 C   0  0  0  0  0  0  0  0  0  0  0  0
   42.5270   23.2590   36.8660 N   0  0  0  0  0  0  0  0  0  0  0  0
   44.3470   24.7270   36.1240 C   0  0  2  0  0  0  0  0  0  0  0  0
   44.6890   25.1890   34.7810 C   0  0  0  0  0  0  0  0  0  0  0  0
   45.7430   24.4550   35.5080 C   0  0  1  0  0  0  0  0  0  0  0  0
   46.8870   25.1470   36.1190 C   0  0  0  0  0  0  0  0  0  0  0  0
   47.2560   26.3870   35.5880 C   0  0  0  0  0  0  0  0  0  0  0  0
   48.3270   27.0510   36.1510 C   0  0  0  0  0  0  0  0  0  0  0  0
   48.9870   26.4570   37.2150 C   0  0  0  0  0  0  0  0  0  0  0  0
   48.6130   25.2160   37.7420 C   0  0  0  0  0  0  0  0  0  0  0  0
   47.5420   24.5540   37.1780 C   0  0  0  0  0  0  0  0  0  0  0  0
   40.6660   21.8360   37.6430 O   0  0  0  0  0  0  0  0  0  0  0  0
   39.5900   22.6490   37.4460 C   0  0  0  0  0  0  0  0  0  0  0  0
   39.0580   23.3360   38.5330 C   0  0  0  0  0  0  0  0  0  0  0  0
   37.9640   24.1610   38.3270 C   0  0  0  0  0  0  0  0  0  0  0  0
   37.4480   24.2700   37.0750 N   0  0  0  0  0  0  0  0  0  0  0  0
   38.0020   23.5750   36.0300 C   0  0  0  0  0  0  0  0  0  0  0  0
   39.0580   22.7730   36.2020 N   0  0  0  0  0  0  0  0  0  0  0  0
   42.2224   19.9825   36.4804 H   0  0  0  0  0  0  0  0  0  0  0  0
   43.9144   25.2341   36.9991 H   0  0  0  0  0  0  0  0  0  0  0  0
   44.8115   26.2664   34.5961 H   0  0  0  0  0  0  0  0  0  0  0  0
   44.2200   25.0575   33.7947 H   0  0  0  0  0  0  0  0  0  0  0  0
   46.3765   23.5891   35.2653 H   0  0  0  0  0  0  0  0  0  0  0  0
   46.7055   26.8230   34.7413 H   0  0  0  0  0  0  0  0  0  0  0  0
   48.6492   28.0290   35.7641 H   0  0  0  0  0  0  0  0  0  0  0  0
   49.8416   26.9838   37.6645 H   0  0  0  0  0  0  0  0  0  0  0  0
   49.1616   24.7772   38.5885 H   0  0  0  0  0  0  0  0  0  0  0  0
   47.2181   23.5762   37.5639 H   0  0  0  0  0  0  0  0  0  0  0  0
   39.4971   23.2263   39.5356 H   0  0  0  0  0  0  0  0  0  0  0  0
   37.5201   24.7192   39.1645 H   0  0  0  0  0  0  0  0  0  0  0  0
   37.5666   23.6801   35.0253 H   0  0  0  0  0  0  0  0  0  0  0  0
  1 15  1  0
  2  1  2  0
  3  4  1  0
  3  2  1  0
  4  5  2  0
  5  1  1  0
  6  4  1  0
  7  8  1  0
  7  6  1  0
  8  9  1  0
  8  6  1  0
  9 14  1  0
 10  9  2  0
 10 11  1  0
 11 12  2  0
 12 13  1  0
 14 13  2  0
 16 15  1  0
 16 17  2  0
 18 17  1  0
 19 18  2  0
 20 21  2  0
 20 19  1  0
 21 16  1  0
  2 22  1  0
  6 23  1  1
  7 24  1  0
  7 25  1  0
  8 26  1  6
 10 27  1  0
 11 28  1  0
 12 29  1  0
 13 30  1  0
 14 31  1  0
 17 32  1  0
 18 33  1  0
 20 34  1  0
M  ISO  8  22  14  23  13  24  13  25  13  26  13  27  14  28  14  29  14
M  ISO  5  30  14  31  14  32  14  33  14  34  14
M  END
>  <minimizedAffinity>  (1) 
-4.7035327

>  <minimizedRMSD>  (1) 
2.65635252

$$$$
