
     RDKit          3D

 27 29  0  0  1  0  0  0  0  0999 V2000
   42.3480   22.5490   36.7800 C   0  0  0  0  0  0  0  0  0  0  0  0
   43.0930   21.5520   36.1980 C   0  0  0  0  0  0  0  0  0  0  0  0
   44.3160   22.5250   35.2650 S   0  0  0  0  0  0  0  0  0  0  0  0
   43.5710   24.1720   35.8520 C   0  0  0  0  0  0  0  0  0  0  0  0
   42.7310   23.7710   36.4950 N   0  0  0  0  0  0  0  0  0  0  0  0
   44.1440   25.4780   35.4350 C   0  0  2  0  0  0  0  0  0  0  0  0
   45.5380   25.6050   35.0130 C   0  0  0  0  0  0  0  0  0  0  0  0
   45.2110   26.0880   36.3630 C   0  0  2  0  0  0  0  0  0  0  0  0
   45.4510   25.3340   37.6190 C   0  0  0  0  0  0  0  0  0  0  0  0
   46.4320   26.0070   38.3370 F   0  0  0  0  0  0  0  0  0  0  0  0
   44.2990   25.4440   38.4000 F   0  0  0  0  0  0  0  0  0  0  0  0
   45.7480   24.0180   37.4530 F   0  0  0  0  0  0  0  0  0  0  0  0
   41.2920   22.0900   37.5910 O   0  0  0  0  0  0  0  0  0  0  0  0
   40.0140   22.4970   37.3530 C   0  0  0  0  0  0  0  0  0  0  0  0
   39.3410   23.2040   38.3510 C   0  0  0  0  0  0  0  0  0  0  0  0
   38.0260   23.6080   38.0700 C   0  0  0  0  0  0  0  0  0  0  0  0
   37.4770   23.3050   36.8750 N   0  0  0  0  0  0  0  0  0  0  0  0
   38.1810   22.6070   35.9240 C   0  0  0  0  0  0  0  0  0  0  0  0
   39.4330   22.2050   36.1530 N   0  0  0  0  0  0  0  0  0  0  0  0
   42.9807   20.4605   36.2751 H   0  0  0  0  0  0  0  0  0  0  0  0
   43.1870   25.7786   34.9836 H   0  0  0  0  0  0  0  0  0  0  0  0
   46.1521   24.6998   34.8969 H   0  0  0  0  0  0  0  0  0  0  0  0
   46.0268   26.0651   34.1416 H   0  0  0  0  0  0  0  0  0  0  0  0
   45.4471   27.0305   36.8788 H   0  0  0  0  0  0  0  0  0  0  0  0
   39.8195   23.4343   39.3144 H   0  0  0  0  0  0  0  0  0  0  0  0
   37.4470   24.1679   38.8191 H   0  0  0  0  0  0  0  0  0  0  0  0
   37.7057   22.3759   34.9593 H   0  0  0  0  0  0  0  0  0  0  0  0
  1 13  1  0
  2  1  2  0
  3  4  1  0
  3  2  1  0
  4  5  2  0
  5  1  1  0
  6  4  1  0
  6  8  1  0
  7  6  1  0
  7  8  1  0
  8  9  1  0
  9 10  1  0
  9 11  1  0
 12  9  1  0
 14 13  1  0
 14 15  2  0
 16 15  1  0
 17 16  2  0
 18 19  2  0
 18 17  1  0
 19 14  1  0
  2 20  1  0
  6 21  1  6
  7 22  1  0
  7 23  1  0
  8 24  1  1
 15 25  1  0
 16 26  1  0
 18 27  1  0
M  ISO  8  20  14  21  13  22  13  23  13  24  13  25  14  26  14  27  14
M  END
>  <minimizedAffinity>  (1) 
-4.5960207

>  <minimizedRMSD>  (1) 
1.37411559

$$$$
