
     RDKit          3D

 26 28  0  0  1  0  0  0  0  0999 V2000
   41.9960   22.2680   36.9810 C   0  0  0  0  0  0  0  0  0  0  0  0
   42.8260   21.2020   36.6870 C   0  0  0  0  0  0  0  0  0  0  0  0
   44.2070   22.0400   35.8790 S   0  0  0  0  0  0  0  0  0  0  0  0
   43.4050   23.7510   36.0810 C   0  0  0  0  0  0  0  0  0  0  0  0
   42.4500   23.4390   36.6070 N   0  0  0  0  0  0  0  0  0  0  0  0
   44.0710   24.9890   35.6010 C   0  0  2  0  0  0  0  0  0  0  0  0
   45.5280   25.0820   35.4870 C   0  0  0  0  0  0  0  0  0  0  0  0
   44.9170   25.7470   36.6500 C   0  0  2  0  0  0  0  0  0  0  0  0
   44.8980   25.1700   38.0050 C   0  0  0  0  0  0  0  0  0  0  0  0
   44.7120   25.9970   38.8790 O   0  0  0  0  0  0  0  0  0  0  0  0
   40.7950   21.9230   37.6380 O   0  0  0  0  0  0  0  0  0  0  0  0
   39.6760   22.6690   37.4470 C   0  0  0  0  0  0  0  0  0  0  0  0
   39.1480   23.3500   38.5410 C   0  0  0  0  0  0  0  0  0  0  0  0
   37.9900   24.1210   38.3400 C   0  0  0  0  0  0  0  0  0  0  0  0
   37.4460   24.1650   37.1020 N   0  0  0  0  0  0  0  0  0  0  0  0
   38.0020   23.4770   36.0510 C   0  0  0  0  0  0  0  0  0  0  0  0
   39.1010   22.7380   36.2160 N   0  0  0  0  0  0  0  0  0  0  0  0
   42.6834   20.1305   36.8907 H   0  0  0  0  0  0  0  0  0  0  0  0
   43.2462   25.1999   34.9044 H   0  0  0  0  0  0  0  0  0  0  0  0
   46.1402   24.1810   35.6402 H   0  0  0  0  0  0  0  0  0  0  0  0
   46.2041   25.4234   34.6893 H   0  0  0  0  0  0  0  0  0  0  0  0
   45.0271   26.7593   37.0662 H   0  0  0  0  0  0  0  0  0  0  0  0
   45.0380   24.0979   38.2074 H   0  0  0  0  0  0  0  0  0  0  0  0
   39.6223   23.2865   39.5315 H   0  0  0  0  0  0  0  0  0  0  0  0
   37.5351   24.6775   39.1727 H   0  0  0  0  0  0  0  0  0  0  0  0
   37.5338   23.5361   35.0574 H   0  0  0  0  0  0  0  0  0  0  0  0
  1 11  1  0
  2  1  2  0
  3  4  1  0
  3  2  1  0
  4  5  2  0
  5  1  1  0
  6  4  1  0
  6  8  1  0
  7  6  1  0
  7  8  1  0
  8  9  1  0
  9 10  2  0
 12 11  1  0
 12 13  2  0
 14 13  1  0
 15 14  2  0
 16 17  2  0
 16 15  1  0
 17 12  1  0
  2 18  1  0
  6 19  1  6
  7 20  1  0
  7 21  1  0
  8 22  1  1
  9 23  1  0
 13 24  1  0
 14 25  1  0
 16 26  1  0
M  ISO  8  18  14  19  13  20  13  21  13  22  13  23   6  24  14  25  14
M  ISO  1  26  14
M  END
>  <minimizedAffinity>  (1) 
-4.32477808

>  <minimizedRMSD>  (1) 
0.936860681

$$$$
