
     RDKit          3D

 31 33  0  0  1  0  0  0  0  0999 V2000
   41.9940   22.2420   36.9740 C   0  0  0  0  0  0  0  0  0  0  0  0
   42.5190   21.1280   36.3610 C   0  0  0  0  0  0  0  0  0  0  0  0
   43.9640   21.8430   35.5180 S   0  0  0  0  0  0  0  0  0  0  0  0
   43.5920   23.5880   36.1650 C   0  0  0  0  0  0  0  0  0  0  0  0
   42.6510   23.3560   36.7660 N   0  0  0  0  0  0  0  0  0  0  0  0
   44.4560   24.7290   35.8260 C   0  0  2  0  0  0  0  0  0  0  0  0
   45.5130   24.6440   34.8160 C   0  0  0  0  0  0  0  0  0  0  0  0
   45.9350   24.6380   36.2300 C   0  0  1  0  0  0  0  0  0  0  0  0
   46.4840   25.9040   36.6760 N   0  0  0  0  0  0  0  0  0  0  0  0
   47.9080   26.0100   36.7210 C   0  0  0  0  0  0  0  0  0  0  0  0
   48.7340   25.1400   36.2650 N   0  0  0  0  0  0  0  0  0  0  0  0
   48.4200   27.1930   37.3300 N   0  0  0  0  0  0  0  0  0  0  0  0
   48.3360   24.2920   35.8280 H   0  0  0  0  0  0  0  0  0  0  0  0
   40.8320   21.9950   37.7270 O   0  0  0  0  0  0  0  0  0  0  0  0
   39.7060   22.7220   37.5110 C   0  0  0  0  0  0  0  0  0  0  0  0
   39.1070   23.3590   38.6100 C   0  0  0  0  0  0  0  0  0  0  0  0
   37.9420   24.1060   38.3640 C   0  0  0  0  0  0  0  0  0  0  0  0
   37.4570   24.1780   37.1000 N   0  0  0  0  0  0  0  0  0  0  0  0
   38.0830   23.5360   36.0600 C   0  0  0  0  0  0  0  0  0  0  0  0
   39.1920   22.8170   36.2590 N   0  0  0  0  0  0  0  0  0  0  0  0
   42.1621   20.0876   36.3764 H   0  0  0  0  0  0  0  0  0  0  0  0
   43.6109   25.4168   35.9771 H   0  0  0  0  0  0  0  0  0  0  0  0
   45.6164   23.7278   34.2161 H   0  0  0  0  0  0  0  0  0  0  0  0
   45.7830   25.2593   33.9451 H   0  0  0  0  0  0  0  0  0  0  0  0
   46.5443   23.9826   36.8696 H   0  0  0  0  0  0  0  0  0  0  0  0
   45.8759   26.6897   36.9475 H   0  0  0  0  0  0  0  0  0  0  0  0
   49.4374   27.3382   37.3981 H   0  0  0  0  0  0  0  0  0  0  0  0
   47.7725   27.9025   37.7019 H   0  0  0  0  0  0  0  0  0  0  0  0
   39.5319   23.2768   39.6213 H   0  0  0  0  0  0  0  0  0  0  0  0
   37.4300   24.6259   39.1871 H   0  0  0  0  0  0  0  0  0  0  0  0
   37.6646   23.6148   35.0457 H   0  0  0  0  0  0  0  0  0  0  0  0
  1 14  1  0
  2  1  2  0
  3  4  1  0
  3  2  1  0
  4  5  2  0
  5  1  1  0
  6  4  1  0
  6  8  1  0
  7  6  1  0
  7  8  1  0
  8  9  1  0
  9 10  1  0
 10 12  1  0
 11 10  2  0
 13 11  1  0
 15 14  1  0
 15 16  2  0
 17 16  1  0
 18 17  2  0
 19 20  2  0
 19 18  1  0
 20 15  1  0
  2 21  1  0
  6 22  1  6
  7 23  1  0
  7 24  1  0
  8 25  1  1
  9 26  1  0
 12 27  1  0
 12 28  1  0
 16 29  1  0
 17 30  1  0
 19 31  1  0
M  ISO  8  21  14  22  13  23  13  24  13  25  13  29  14  30  14  31  14
M  END
>  <minimizedAffinity>  (1) 
-4.21086073

>  <minimizedRMSD>  (1) 
1.93501782

$$$$
