
     RDKit          3D

 27 29  0  0  1  0  0  0  0  0999 V2000
   41.8280   22.1240   36.7910 C   0  0  0  0  0  0  0  0  0  0  0  0
   42.4520   21.1160   36.0970 C   0  0  0  0  0  0  0  0  0  0  0  0
   44.0400   21.8750   35.7030 S   0  0  0  0  0  0  0  0  0  0  0  0
   43.5830   23.5020   36.5780 C   0  0  0  0  0  0  0  0  0  0  0  0
   42.5430   23.2100   36.9210 N   0  0  0  0  0  0  0  0  0  0  0  0
   44.5300   24.6440   36.6410 C   0  0  2  0  0  0  0  0  0  0  0  0
   45.9250   24.4920   36.2180 C   0  0  0  0  0  0  0  0  0  0  0  0
   45.6690   24.5260   37.6710 C   0  0  1  0  0  0  0  0  0  0  0  0
   46.1420   25.7710   38.3310 C   0  0  0  0  0  0  0  0  0  0  0  0
   47.1770   26.3510   37.8860 O   0  0  0  0  0  0  0  0  0  0  0  0
   45.5280   26.3660   39.4250 O   0  0  0  0  0  0  0  0  0  0  0  0
   40.5280   21.8280   37.2500 O   0  0  0  0  0  0  0  0  0  0  0  0
   39.5510   22.7640   37.1730 C   0  0  0  0  0  0  0  0  0  0  0  0
   38.9990   23.2240   38.3830 C   0  0  0  0  0  0  0  0  0  0  0  0
   37.9920   24.1900   38.2970 C   0  0  0  0  0  0  0  0  0  0  0  0
   37.5920   24.6360   37.0780 N   0  0  0  0  0  0  0  0  0  0  0  0
   38.1660   24.1520   35.9270 C   0  0  0  0  0  0  0  0  0  0  0  0
   39.1270   23.2330   35.9650 N   0  0  0  0  0  0  0  0  0  0  0  0
   42.0810   20.1110   35.8474 H   0  0  0  0  0  0  0  0  0  0  0  0
   43.7351   25.3603   36.3862 H   0  0  0  0  0  0  0  0  0  0  0  0
   46.2483   23.5518   35.7474 H   0  0  0  0  0  0  0  0  0  0  0  0
   46.5823   25.0676   35.5496 H   0  0  0  0  0  0  0  0  0  0  0  0
   45.8481   23.8821   38.5447 H   0  0  0  0  0  0  0  0  0  0  0  0
   45.9023   27.1971   39.8113 H   0  0  0  0  0  0  0  0  0  0  0  0
   39.3448   22.8402   39.3542 H   0  0  0  0  0  0  0  0  0  0  0  0
   37.5263   24.5866   39.2113 H   0  0  0  0  0  0  0  0  0  0  0  0
   37.8235   24.5327   34.9535 H   0  0  0  0  0  0  0  0  0  0  0  0
  1  5  1  0
  1 12  1  0
  2  1  2  0
  3  2  1  0
  3  4  1  0
  4  6  1  0
  4  5  2  0
  6  8  1  0
  7  6  1  0
  7  8  1  0
  8  9  1  0
  9 11  1  0
 10  9  2  0
 13 12  1  0
 13 14  2  0
 15 14  1  0
 16 15  2  0
 17 18  2  0
 17 16  1  0
 18 13  1  0
  2 19  1  0
  6 20  1  6
  7 21  1  0
  7 22  1  0
  8 23  1  1
 11 24  1  0
 14 25  1  0
 15 26  1  0
 17 27  1  0
M  ISO  8  19  14  20  13  21  13  22  13  23  13  24   3  25  14  26  14
M  ISO  1  27  14
M  END
>  <minimizedAffinity>  (1) 
-4.60845566

>  <minimizedRMSD>  (1) 
1.02157545

$$$$
