
     RDKit          3D

 38 41  0  0  1  0  0  0  0  0999 V2000
   40.5650   21.8830   37.2320 O   0  0  0  0  0  0  0  0  0  0  0  0
   39.5880   22.7980   37.0870 C   0  0  0  0  0  0  0  0  0  0  0  0
   38.9310   23.2430   38.2470 C   0  0  0  0  0  0  0  0  0  0  0  0
   37.9230   24.1840   38.1130 C   0  0  0  0  0  0  0  0  0  0  0  0
   37.6100   24.6370   36.8830 N   0  0  0  0  0  0  0  0  0  0  0  0
   38.2770   24.1770   35.7720 C   0  0  0  0  0  0  0  0  0  0  0  0
   39.2460   23.2760   35.8660 N   0  0  0  0  0  0  0  0  0  0  0  0
   37.8440   24.7400   34.5390 N   0  0  0  0  0  0  0  0  0  0  0  0
   37.8300   23.8890   33.4740 C   0  0  0  0  0  0  0  0  0  0  0  0
   37.4480   24.2390   32.2180 C   0  0  0  0  0  0  0  0  0  0  0  0
   37.0550   25.5670   32.0550 C   0  0  0  0  0  0  0  0  0  0  0  0
   36.6480   25.9630   30.7370 N   0  0  0  0  0  0  0  0  0  0  0  0
   37.0660   26.4140   33.0980 N   0  0  0  0  0  0  0  0  0  0  0  0
   37.4520   26.0060   34.3070 C   0  0  0  0  0  0  0  0  0  0  0  0
   37.4810   26.7590   35.3210 O   0  0  0  0  0  0  0  0  0  0  0  0
   41.8660   22.1610   36.7820 C   0  0  0  0  0  0  0  0  0  0  0  0
   42.4860   21.1350   36.1120 C   0  0  0  0  0  0  0  0  0  0  0  0
   44.0800   21.8730   35.7190 S   0  0  0  0  0  0  0  0  0  0  0  0
   43.6340   23.5310   36.5630 C   0  0  0  0  0  0  0  0  0  0  0  0
   42.5930   23.2390   36.8940 N   0  0  0  0  0  0  0  0  0  0  0  0
   44.6100   24.6620   36.6020 C   0  0  2  0  0  0  0  0  0  0  0  0
   46.0140   24.4120   36.2940 C   0  0  0  0  0  0  0  0  0  0  0  0
   45.7410   24.4800   37.7100 C   0  0  1  0  0  0  0  0  0  0  0  0
   46.2220   25.7840   38.3150 C   0  0  0  0  0  0  0  0  0  0  0  0
   47.2600   26.3950   37.8080 O   0  0  0  0  0  0  0  0  0  0  0  0
   45.5710   26.3600   39.4120 O   0  0  0  0  0  0  0  0  0  0  0  0
   39.2103   22.8537   39.2372 H   0  0  0  0  0  0  0  0  0  0  0  0
   37.3859   24.5560   38.9979 H   0  0  0  0  0  0  0  0  0  0  0  0
   38.1492   22.8499   33.6428 H   0  0  0  0  0  0  0  0  0  0  0  0
   37.4487   23.5216   31.3841 H   0  0  0  0  0  0  0  0  0  0  0  0
   36.3479   26.9323   30.5601 H   0  0  0  0  0  0  0  0  0  0  0  0
   36.6560   25.2779   29.9679 H   0  0  0  0  0  0  0  0  0  0  0  0
   42.1085   20.1287   35.8776 H   0  0  0  0  0  0  0  0  0  0  0  0
   43.8765   25.4125   36.2722 H   0  0  0  0  0  0  0  0  0  0  0  0
   46.2967   23.4444   35.8538 H   0  0  0  0  0  0  0  0  0  0  0  0
   46.7346   24.9447   35.6561 H   0  0  0  0  0  0  0  0  0  0  0  0
   45.8815   23.8389   38.5928 H   0  0  0  0  0  0  0  0  0  0  0  0
   45.9014   27.2123   39.7921 H   0  0  0  0  0  0  0  0  0  0  0  0
  2  1  1  0
  2  3  2  0
  4  3  1  0
  5  4  2  0
  6  7  2  0
  6  5  1  0
  7  2  1  0
  8  6  1  0
  9  8  1  0
 10  9  2  0
 11 10  1  0
 11 13  2  0
 12 11  1  0
 13 14  1  0
 14  8  1  0
 14 15  2  0
 16 20  1  0
 16  1  1  0
 17 16  2  0
 18 17  1  0
 18 19  1  0
 19 21  1  0
 19 20  2  0
 21 23  1  0
 22 21  1  0
 22 23  1  0
 23 24  1  0
 24 26  1  0
 25 24  2  0
  3 27  1  0
  4 28  1  0
  9 29  1  0
 10 30  1  0
 12 31  1  0
 12 32  1  0
 17 33  1  0
 21 34  1  6
 22 35  1  0
 22 36  1  0
 23 37  1  1
 26 38  1  0
M  ISO  8  27  14  28  14  29  14  30  14  33  14  34  13  35  13  36  13
M  ISO  2  37  13  38   3
M  END
>  <minimizedAffinity>  (1) 
-6.25562

>  <minimizedRMSD>  (1) 
0.236236259

$$$$
