
     RDKit          3D

 38 41  0  0  0  0  0  0  0  0999 V2000
   43.9020   23.2800   35.6950 S   0  0  0  0  0  0  0  0  0  0  0  0
   44.8650   24.2580   36.8580 C   0  0  0  0  0  0  0  0  0  0  0  0
   44.1730   25.1370   37.7210 C   0  0  0  0  0  0  0  0  0  0  0  0
   45.5490   25.9010   38.7090 S   0  0  0  0  0  0  0  0  0  0  0  0
   46.8240   24.8710   37.7530 C   0  0  0  0  0  0  0  0  0  0  0  0
   46.1390   24.3170   37.0750 N   0  0  0  0  0  0  0  0  0  0  0  0
   48.2540   24.8660   37.9210 N   0  0  0  0  0  0  0  0  0  0  0  0
   48.7080   23.8800   38.7280 C   0  0  0  0  0  0  0  0  0  0  0  0
   50.0840   24.0150   38.7820 C   0  0  0  0  0  0  0  0  0  0  0  0
   50.3940   25.0780   38.0030 N   0  0  0  0  0  0  0  0  0  0  0  0
   49.2820   25.5940   37.4810 C   0  0  0  0  0  0  0  0  0  0  0  0
   49.0450   26.7180   36.5920 C   0  0  0  0  0  0  0  0  0  0  0  0
   48.7840   26.5320   35.3850 O   0  0  0  0  0  0  0  0  0  0  0  0
   49.1220   27.9830   37.1400 O   0  0  0  0  0  0  0  0  0  0  0  0
   40.5000   22.5160   37.6200 C   0  0  0  0  0  0  0  0  0  0  0  0
   39.5400   23.2690   36.9160 C   0  0  0  0  0  0  0  0  0  0  0  0
   39.9750   24.0230   35.8180 C   0  0  0  0  0  0  0  0  0  0  0  0
   41.3100   23.9850   35.4890 N   0  0  0  0  0  0  0  0  0  0  0  0
   42.1980   23.2450   36.1990 C   0  0  0  0  0  0  0  0  0  0  0  0
   41.7710   22.5330   37.2420 N   0  0  0  0  0  0  0  0  0  0  0  0
   39.2700   24.8600   34.8800 C   0  0  0  0  0  0  0  0  0  0  0  0
   38.4040   24.6430   33.8390 C   0  0  0  0  0  0  0  0  0  0  0  0
   37.9000   25.6090   33.0260 C   0  0  0  0  0  0  0  0  0  0  0  0
   38.2530   26.8920   33.2260 N   0  0  0  0  0  0  0  0  0  0  0  0
   39.1110   27.1550   34.2520 C   0  0  0  0  0  0  0  0  0  0  0  0
   39.5940   26.1820   35.0390 N   0  0  0  0  0  0  0  0  0  0  0  0
   38.1060   23.2840   37.2470 C   0  0  0  0  0  0  0  0  0  0  0  0
   38.0080   22.7760   38.5570 F   0  0  0  0  0  0  0  0  0  0  0  0
   37.3300   22.5290   36.4390 F   0  0  0  0  0  0  0  0  0  0  0  0
   37.6380   24.5890   37.3920 F   0  0  0  0  0  0  0  0  0  0  0  0
   43.0910   25.3226   37.7906 H   0  0  0  0  0  0  0  0  0  0  0  0
   48.1016   23.1192   39.2413 H   0  0  0  0  0  0  0  0  0  0  0  0
   50.7866   23.3839   39.3459 H   0  0  0  0  0  0  0  0  0  0  0  0
   48.9678   28.7789   36.5717 H   0  0  0  0  0  0  0  0  0  0  0  0
   40.1942   21.9115   38.4867 H   0  0  0  0  0  0  0  0  0  0  0  0
   38.0927   23.6056   33.6467 H   0  0  0  0  0  0  0  0  0  0  0  0
   37.2096   25.3441   32.2117 H   0  0  0  0  0  0  0  0  0  0  0  0
   39.4161   28.1950   34.4400 H   0  0  0  0  0  0  0  0  0  0  0  0
  1 19  1  0
  1  2  1  0
  2  6  1  0
  2  3  2  0
  3  4  1  0
  5  7  1  0
  5  4  1  0
  6  5  2  0
  7  8  1  0
  8  9  2  0
 10  9  1  0
 11  7  1  0
 11 10  2  0
 12 14  1  0
 12 11  1  0
 13 12  2  0
 16 27  1  0
 16 15  2  0
 17 16  1  0
 18 17  2  0
 18 19  1  0
 19 20  2  0
 20 15  1  0
 21 26  1  0
 21 17  1  0
 22 21  2  0
 23 24  2  0
 23 22  1  0
 24 25  1  0
 25 26  2  0
 27 30  1  0
 27 28  1  0
 29 27  1  0
  3 31  1  0
  8 32  1  0
  9 33  1  0
 14 34  1  0
 15 35  1  0
 22 36  1  0
 23 37  1  0
 25 38  1  0
M  ISO  8  31  14  32  14  33  14  34   3  35  14  36  14  37  14  38  14
M  END
>  <minimizedAffinity>  (1) 
-5.77150059

>  <minimizedRMSD>  (1) 
4.3797245

$$$$
