
     RDKit          3D

 42 45  0  0  1  0  0  0  0  0999 V2000
   41.8730   22.1420   36.7890 C   0  0  0  0  0  0  0  0  0  0  0  0
   42.4910   21.1120   36.1220 C   0  0  0  0  0  0  0  0  0  0  0  0
   44.0880   21.8510   35.7230 S   0  0  0  0  0  0  0  0  0  0  0  0
   43.6370   23.5110   36.5620 C   0  0  0  0  0  0  0  0  0  0  0  0
   42.5960   23.2300   36.9000 N   0  0  0  0  0  0  0  0  0  0  0  0
   44.6170   24.6380   36.6010 C   0  0  2  0  0  0  0  0  0  0  0  0
   46.0190   24.4000   36.2950 C   0  0  0  0  0  0  0  0  0  0  0  0
   45.7370   24.4710   37.7150 C   0  0  1  0  0  0  0  0  0  0  0  0
   46.2160   25.7770   38.3170 C   0  0  0  0  0  0  0  0  0  0  0  0
   47.2510   26.3910   37.8150 O   0  0  0  0  0  0  0  0  0  0  0  0
   45.5640   26.3520   39.4150 O   0  0  0  0  0  0  0  0  0  0  0  0
   40.5740   21.8660   37.2420 O   0  0  0  0  0  0  0  0  0  0  0  0
   39.6360   22.8290   37.2490 C   0  0  0  0  0  0  0  0  0  0  0  0
   39.0320   23.1520   38.4790 C   0  0  0  0  0  0  0  0  0  0  0  0
   38.0620   24.1490   38.4840 C   0  0  0  0  0  0  0  0  0  0  0  0
   37.7360   24.7630   37.3300 N   0  0  0  0  0  0  0  0  0  0  0  0
   38.3540   24.4150   36.1510 C   0  0  0  0  0  0  0  0  0  0  0  0
   39.2820   23.4710   36.1040 N   0  0  0  0  0  0  0  0  0  0  0  0
   37.9300   25.1280   35.0030 N   0  0  0  0  0  0  0  0  0  0  0  0
   37.1740   26.3400   35.1090 C   0  0  0  0  0  0  0  0  0  0  0  0
   38.0060   27.4770   34.5710 C   0  0  0  0  0  0  0  0  0  0  0  0
   38.9940   27.0260   33.5470 C   0  0  0  0  0  0  0  0  0  0  0  0
   38.5800   25.7980   32.7770 C   0  0  0  0  0  0  0  0  0  0  0  0
   38.2630   24.6340   33.6670 C   0  0  0  0  0  0  0  0  0  0  0  0
   42.1128   20.1049   35.8924 H   0  0  0  0  0  0  0  0  0  0  0  0
   43.8805   25.3819   36.2630 H   0  0  0  0  0  0  0  0  0  0  0  0
   46.3113   23.4335   35.8587 H   0  0  0  0  0  0  0  0  0  0  0  0
   46.7371   24.9358   35.6568 H   0  0  0  0  0  0  0  0  0  0  0  0
   45.8716   23.8361   38.6031 H   0  0  0  0  0  0  0  0  0  0  0  0
   45.8920   27.2057   39.7941 H   0  0  0  0  0  0  0  0  0  0  0  0
   39.3178   22.6329   39.4058 H   0  0  0  0  0  0  0  0  0  0  0  0
   37.5649   24.4339   39.4230 H   0  0  0  0  0  0  0  0  0  0  0  0
   36.2469   26.2504   34.5238 H   0  0  0  0  0  0  0  0  0  0  0  0
   36.9154   26.5298   36.1612 H   0  0  0  0  0  0  0  0  0  0  0  0
   37.3356   28.2186   34.1121 H   0  0  0  0  0  0  0  0  0  0  0  0
   38.5688   27.9074   35.4124 H   0  0  0  0  0  0  0  0  0  0  0  0
   39.1445   27.8465   32.8300 H   0  0  0  0  0  0  0  0  0  0  0  0
   39.9105   26.7585   34.0932 H   0  0  0  0  0  0  0  0  0  0  0  0
   37.6862   26.0401   32.1833 H   0  0  0  0  0  0  0  0  0  0  0  0
   39.4270   25.5060   32.1387 H   0  0  0  0  0  0  0  0  0  0  0  0
   37.4070   24.0787   33.2559 H   0  0  0  0  0  0  0  0  0  0  0  0
   39.1345   23.9655   33.7263 H   0  0  0  0  0  0  0  0  0  0  0  0
  1  5  1  0
  1 12  1  0
  2  1  2  0
  3  2  1  0
  3  4  1  0
  4  6  1  0
  4  5  2  0
  6  8  1  0
  7  6  1  0
  7  8  1  0
  8  9  1  0
  9 11  1  0
 10  9  2  0
 12 13  1  0
 13 14  2  0
 14 15  1  0
 16 15  2  0
 17 16  1  0
 18 17  2  0
 18 13  1  0
 19 20  1  0
 19 17  1  0
 21 20  1  0
 22 21  1  0
 23 22  1  0
 23 24  1  0
 24 19  1  0
  2 25  1  0
  6 26  1  6
  7 27  1  0
  7 28  1  0
  8 29  1  1
 11 30  1  0
 14 31  1  0
 15 32  1  0
 20 33  1  0
 20 34  1  0
 21 35  1  0
 21 36  1  0
 22 37  1  0
 22 38  1  0
 23 39  1  0
 23 40  1  0
 24 41  1  0
 24 42  1  0
M  ISO  8  25  14  26  13  27  13  28  13  29  13  30   3  31  14  32  14
M  ISO  8  33  13  34  13  35  13  36  13  37  13  38  13  39  13  40  13
M  ISO  2  41  13  42  13
M  END
>  <minimizedAffinity>  (1) 
-5.81330967

>  <minimizedRMSD>  (1) 
0.423290074

$$$$
