
     RDKit          3D

 40 43  0  0  1  0  0  0  0  0999 V2000
   41.7580   22.2430   36.5810 C   0  0  0  0  0  0  0  0  0  0  0  0
   42.4020   21.1630   36.0390 C   0  0  0  0  0  0  0  0  0  0  0  0
   44.0600   21.8220   35.7840 S   0  0  0  0  0  0  0  0  0  0  0  0
   43.5920   23.5400   36.4850 C   0  0  0  0  0  0  0  0  0  0  0  0
   42.5090   23.3020   36.7150 N   0  0  0  0  0  0  0  0  0  0  0  0
   44.6010   24.6350   36.5660 C   0  0  2  0  0  0  0  0  0  0  0  0
   46.0110   24.3430   36.3460 C   0  0  0  0  0  0  0  0  0  0  0  0
   45.6500   24.4440   37.7420 C   0  0  1  0  0  0  0  0  0  0  0  0
   46.1380   25.7390   38.3580 C   0  0  0  0  0  0  0  0  0  0  0  0
   47.1910   26.3410   37.8700 O   0  0  0  0  0  0  0  0  0  0  0  0
   45.4780   26.3200   39.4470 O   0  0  0  0  0  0  0  0  0  0  0  0
   40.4030   22.0360   36.9010 O   0  0  0  0  0  0  0  0  0  0  0  0
   39.5770   23.0900   37.0570 C   0  0  0  0  0  0  0  0  0  0  0  0
   38.8550   23.1770   38.2560 C   0  0  0  0  0  0  0  0  0  0  0  0
   38.0000   24.2720   38.4150 C   0  0  0  0  0  0  0  0  0  0  0  0
   37.8930   25.2100   37.4230 N   0  0  0  0  0  0  0  0  0  0  0  0
   38.6380   25.0540   36.2740 C   0  0  0  0  0  0  0  0  0  0  0  0
   39.4520   24.0460   36.0720 N   0  0  0  0  0  0  0  0  0  0  0  0
   38.4780   26.0670   35.2850 N   0  0  0  0  0  0  0  0  0  0  0  0
   39.5730   26.8920   34.8120 C   0  0  0  0  0  0  0  0  0  0  0  0
   39.4990   27.0220   33.2860 C   0  0  0  0  0  0  0  0  0  0  0  0
   38.2460   27.3560   32.8340 O   0  0  0  0  0  0  0  0  0  0  0  0
   37.2740   26.4500   33.1880 C   0  0  0  0  0  0  0  0  0  0  0  0
   37.1730   26.3150   34.7020 C   0  0  0  0  0  0  0  0  0  0  0  0
   42.0109   20.1589   35.8178 H   0  0  0  0  0  0  0  0  0  0  0  0
   43.9114   25.3992   36.1782 H   0  0  0  0  0  0  0  0  0  0  0  0
   46.2934   23.3606   35.9396 H   0  0  0  0  0  0  0  0  0  0  0  0
   46.7841   24.8439   35.7448 H   0  0  0  0  0  0  0  0  0  0  0  0
   45.7116   23.8163   38.6432 H   0  0  0  0  0  0  0  0  0  0  0  0
   45.8135   27.1669   39.8347 H   0  0  0  0  0  0  0  0  0  0  0  0
   38.9573   22.4134   39.0411 H   0  0  0  0  0  0  0  0  0  0  0  0
   37.4123   24.3801   39.3385 H   0  0  0  0  0  0  0  0  0  0  0  0
   39.5023   27.8905   35.2681 H   0  0  0  0  0  0  0  0  0  0  0  0
   40.5288   26.4253   35.0924 H   0  0  0  0  0  0  0  0  0  0  0  0
   40.2059   27.8019   32.9664 H   0  0  0  0  0  0  0  0  0  0  0  0
   39.7500   26.0392   32.8605 H   0  0  0  0  0  0  0  0  0  0  0  0
   36.3054   26.7898   32.7925 H   0  0  0  0  0  0  0  0  0  0  0  0
   37.5417   25.4694   32.7676 H   0  0  0  0  0  0  0  0  0  0  0  0
   36.7620   27.2456   35.1205 H   0  0  0  0  0  0  0  0  0  0  0  0
   36.5145   25.4659   34.9372 H   0  0  0  0  0  0  0  0  0  0  0  0
  1  5  1  0
  1 12  1  0
  2  1  2  0
  3  2  1  0
  3  4  1  0
  4  6  1  0
  4  5  2  0
  6  8  1  0
  7  6  1  0
  7  8  1  0
  8  9  1  0
  9 11  1  0
 10  9  2  0
 12 13  1  0
 13 14  2  0
 14 15  1  0
 16 15  2  0
 17 16  1  0
 18 17  2  0
 18 13  1  0
 19 17  1  0
 20 19  1  0
 21 20  1  0
 22 23  1  0
 22 21  1  0
 23 24  1  0
 24 19  1  0
  2 25  1  0
  6 26  1  6
  7 27  1  0
  7 28  1  0
  8 29  1  1
 11 30  1  0
 14 31  1  0
 15 32  1  0
 20 33  1  0
 20 34  1  0
 21 35  1  0
 21 36  1  0
 23 37  1  0
 23 38  1  0
 24 39  1  0
 24 40  1  0
M  ISO  8  25  14  26  13  27  13  28  13  29  13  30   3  31  14  32  14
M  ISO  8  33  13  34  13  35  13  36  13  37  13  38  13  39  13  40  13
M  END
>  <minimizedAffinity>  (1) 
-5.66026545

>  <minimizedRMSD>  (1) 
1.21334541

$$$$
