
     RDKit          3D

 37 40  0  0  0  0  0  0  0  0999 V2000
   43.9100   23.3210   35.7010 S   0  0  0  0  0  0  0  0  0  0  0  0
   44.8720   24.2840   36.8730 C   0  0  0  0  0  0  0  0  0  0  0  0
   44.1850   25.1530   37.7340 C   0  0  0  0  0  0  0  0  0  0  0  0
   45.5740   25.8970   38.7230 S   0  0  0  0  0  0  0  0  0  0  0  0
   46.8390   24.8680   37.7610 C   0  0  0  0  0  0  0  0  0  0  0  0
   46.1470   24.3350   37.0900 N   0  0  0  0  0  0  0  0  0  0  0  0
   48.2770   24.8520   37.9250 N   0  0  0  0  0  0  0  0  0  0  0  0
   48.7350   23.8580   38.7140 C   0  0  0  0  0  0  0  0  0  0  0  0
   50.1080   23.9920   38.7600 C   0  0  0  0  0  0  0  0  0  0  0  0
   50.4140   25.0660   37.9900 N   0  0  0  0  0  0  0  0  0  0  0  0
   49.3010   25.5920   37.4800 C   0  0  0  0  0  0  0  0  0  0  0  0
   49.0610   26.7220   36.6110 C   0  0  0  0  0  0  0  0  0  0  0  0
   48.8050   26.5390   35.3930 O   0  0  0  0  0  0  0  0  0  0  0  0
   49.1280   27.9790   37.1730 O   0  0  0  0  0  0  0  0  0  0  0  0
   40.4800   22.5150   37.5870 C   0  0  0  0  0  0  0  0  0  0  0  0
   39.5350   23.3180   36.9110 C   0  0  0  0  0  0  0  0  0  0  0  0
   39.9970   24.1010   35.8700 C   0  0  0  0  0  0  0  0  0  0  0  0
   41.3340   24.0630   35.5450 N   0  0  0  0  0  0  0  0  0  0  0  0
   42.2040   23.2740   36.2260 C   0  0  0  0  0  0  0  0  0  0  0  0
   41.7560   22.5190   37.2290 N   0  0  0  0  0  0  0  0  0  0  0  0
   39.1960   24.9990   35.0200 C   0  0  0  0  0  0  0  0  0  0  0  0
   39.3700   26.3830   35.1860 C   0  0  0  0  0  0  0  0  0  0  0  0
   38.5540   27.0990   34.3330 C   0  0  0  0  0  0  0  0  0  0  0  0
   37.9060   26.1280   33.6710 N   0  0  0  0  0  0  0  0  0  0  0  0
   38.2780   24.9340   34.0700 N   0  0  0  0  0  0  0  0  0  0  0  0
   38.1010   23.3600   37.2570 C   0  0  0  0  0  0  0  0  0  0  0  0
   37.9870   22.7620   38.5290 F   0  0  0  0  0  0  0  0  0  0  0  0
   37.3050   22.7050   36.3990 F   0  0  0  0  0  0  0  0  0  0  0  0
   37.6970   24.6830   37.5140 F   0  0  0  0  0  0  0  0  0  0  0  0
   43.1042   25.3449   37.8057 H   0  0  0  0  0  0  0  0  0  0  0  0
   48.1320   23.0907   39.2215 H   0  0  0  0  0  0  0  0  0  0  0  0
   50.8142   23.3542   39.3118 H   0  0  0  0  0  0  0  0  0  0  0  0
   48.9702   28.7804   36.6136 H   0  0  0  0  0  0  0  0  0  0  0  0
   40.1525   21.8778   38.4217 H   0  0  0  0  0  0  0  0  0  0  0  0
   40.0677   26.8384   35.9043 H   0  0  0  0  0  0  0  0  0  0  0  0
   38.4590   28.1894   34.2237 H   0  0  0  0  0  0  0  0  0  0  0  0
   37.2022   26.2989   32.9387 H   0  0  0  0  0  0  0  0  0  0  0  0
  1 19  1  0
  1  2  1  0
  2  6  1  0
  2  3  2  0
  3  4  1  0
  5  7  1  0
  5  4  1  0
  6  5  2  0
  7  8  1  0
  8  9  2  0
 10  9  1  0
 11  7  1  0
 11 10  2  0
 12 14  1  0
 12 11  1  0
 13 12  2  0
 16 26  1  0
 16 15  2  0
 17 16  1  0
 18 17  2  0
 18 19  1  0
 19 20  2  0
 20 15  1  0
 21 22  1  0
 21 17  1  0
 23 22  2  0
 24 25  1  0
 24 23  1  0
 25 21  2  0
 26 29  1  0
 26 27  1  0
 28 26  1  0
  3 30  1  0
  8 31  1  0
  9 32  1  0
 14 33  1  0
 15 34  1  0
 22 35  1  0
 23 36  1  0
 24 37  1  0
M  ISO  8  30  14  31  14  32  14  33   3  34  14  35  14  36  14  37   9
M  END
>  <minimizedAffinity>  (1) 
-5.7055316

>  <minimizedRMSD>  (1) 
4.33315754

$$$$
