
     RDKit          3D

 34 37  0  0  1  0  0  0  0  0999 V2000
   41.7120   22.1480   36.7050 C   0  0  0  0  0  0  0  0  0  0  0  0
   42.3500   21.0520   36.1750 C   0  0  0  0  0  0  0  0  0  0  0  0
   43.9900   21.7160   35.8440 S   0  0  0  0  0  0  0  0  0  0  0  0
   43.5290   23.4520   36.5060 C   0  0  0  0  0  0  0  0  0  0  0  0
   42.4540   23.2270   36.7850 N   0  0  0  0  0  0  0  0  0  0  0  0
   44.5350   24.5550   36.5280 C   0  0  2  0  0  0  0  0  0  0  0  0
   45.9420   24.2680   36.2960 C   0  0  0  0  0  0  0  0  0  0  0  0
   45.6030   24.4200   37.6920 C   0  0  1  0  0  0  0  0  0  0  0  0
   46.0890   25.7440   38.2500 C   0  0  0  0  0  0  0  0  0  0  0  0
   47.1970   26.2740   37.8080 O   0  0  0  0  0  0  0  0  0  0  0  0
   45.3660   26.4230   39.2390 O   0  0  0  0  0  0  0  0  0  0  0  0
   40.3720   21.9370   37.0740 O   0  0  0  0  0  0  0  0  0  0  0  0
   39.5350   22.9880   37.2060 C   0  0  0  0  0  0  0  0  0  0  0  0
   38.8590   23.1350   38.4250 C   0  0  0  0  0  0  0  0  0  0  0  0
   37.9980   24.2210   38.5620 C   0  0  0  0  0  0  0  0  0  0  0  0
   37.8370   25.0990   37.5240 N   0  0  0  0  0  0  0  0  0  0  0  0
   38.5330   24.8920   36.3570 C   0  0  0  0  0  0  0  0  0  0  0  0
   39.3560   23.8850   36.1760 N   0  0  0  0  0  0  0  0  0  0  0  0
   38.2410   25.9390   35.3380 C   0  0  0  0  0  0  0  0  0  0  0  0
   38.0610   27.3480   35.6900 C   0  0  0  0  0  0  0  0  0  0  0  0
   39.3750   26.9860   35.1050 C   0  0  0  0  0  0  0  0  0  0  0  0
   41.9614   20.0380   35.9996 H   0  0  0  0  0  0  0  0  0  0  0  0
   43.8323   25.2971   36.1211 H   0  0  0  0  0  0  0  0  0  0  0  0
   46.2273   23.2731   35.9234 H   0  0  0  0  0  0  0  0  0  0  0  0
   46.7001   24.7521   35.6629 H   0  0  0  0  0  0  0  0  0  0  0  0
   45.6852   23.8287   38.6159 H   0  0  0  0  0  0  0  0  0  0  0  0
   45.6992   27.2862   39.5910 H   0  0  0  0  0  0  0  0  0  0  0  0
   39.0036   22.4169   39.2456 H   0  0  0  0  0  0  0  0  0  0  0  0
   37.4483   24.3731   39.5026 H   0  0  0  0  0  0  0  0  0  0  0  0
   37.6351   25.2335   34.7505 H   0  0  0  0  0  0  0  0  0  0  0  0
   37.3624   27.9643   35.1051 H   0  0  0  0  0  0  0  0  0  0  0  0
   37.7642   27.8614   36.6164 H   0  0  0  0  0  0  0  0  0  0  0  0
   40.2796   26.9760   35.7307 H   0  0  0  0  0  0  0  0  0  0  0  0
   39.9817   27.3207   34.2506 H   0  0  0  0  0  0  0  0  0  0  0  0
  1  5  1  0
  1 12  1  0
  2  1  2  0
  3  2  1  0
  3  4  1  0
  4  6  1  0
  4  5  2  0
  6  8  1  0
  7  6  1  0
  7  8  1  0
  8  9  1  0
  9 11  1  0
 10  9  2  0
 12 13  1  0
 13 14  2  0
 14 15  1  0
 16 15  2  0
 17 16  1  0
 18 17  2  0
 18 13  1  0
 19 20  1  0
 19 17  1  0
 21 19  1  0
 21 20  1  0
  2 22  1  0
  6 23  1  6
  7 24  1  0
  7 25  1  0
  8 26  1  1
 11 27  1  0
 14 28  1  0
 15 29  1  0
 19 30  1  0
 20 31  1  0
 20 32  1  0
 21 33  1  0
 21 34  1  0
M  ISO  8  22  14  23  13  24  13  25  13  26  13  27   3  28  14  29  14
M  ISO  5  30  13  31  13  32  13  33  13  34  13
M  END
>  <minimizedAffinity>  (1) 
-5.38747978

>  <minimizedRMSD>  (1) 
1.14188528

$$$$
