
     RDKit          3D

 36 39  0  0  0  0  0  0  0  0999 V2000
   43.8730   23.3250   35.6930 S   0  0  0  0  0  0  0  0  0  0  0  0
   44.8540   24.2740   36.8540 C   0  0  0  0  0  0  0  0  0  0  0  0
   44.1690   25.1500   37.7260 C   0  0  0  0  0  0  0  0  0  0  0  0
   45.5710   25.8900   38.7100 S   0  0  0  0  0  0  0  0  0  0  0  0
   46.8220   24.8620   37.7420 C   0  0  0  0  0  0  0  0  0  0  0  0
   46.1280   24.3180   37.0610 N   0  0  0  0  0  0  0  0  0  0  0  0
   48.2600   24.8460   37.9050 N   0  0  0  0  0  0  0  0  0  0  0  0
   48.7080   23.8560   38.7140 C   0  0  0  0  0  0  0  0  0  0  0  0
   50.0820   23.9720   38.7680 C   0  0  0  0  0  0  0  0  0  0  0  0
   50.3970   25.0390   37.9800 N   0  0  0  0  0  0  0  0  0  0  0  0
   49.2880   25.5590   37.4650 C   0  0  0  0  0  0  0  0  0  0  0  0
   49.0590   26.6820   36.5760 C   0  0  0  0  0  0  0  0  0  0  0  0
   48.8280   26.4940   35.3550 O   0  0  0  0  0  0  0  0  0  0  0  0
   49.1060   27.9490   37.1280 O   0  0  0  0  0  0  0  0  0  0  0  0
   40.4740   22.4870   37.5980 C   0  0  0  0  0  0  0  0  0  0  0  0
   39.5170   23.2930   36.9410 C   0  0  0  0  0  0  0  0  0  0  0  0
   39.9620   24.0950   35.9010 C   0  0  0  0  0  0  0  0  0  0  0  0
   41.3050   24.0610   35.5660 N   0  0  0  0  0  0  0  0  0  0  0  0
   42.1760   23.2660   36.2340 C   0  0  0  0  0  0  0  0  0  0  0  0
   41.7440   22.4970   37.2340 N   0  0  0  0  0  0  0  0  0  0  0  0
   39.1400   25.0390   35.0980 C   0  0  0  0  0  0  0  0  0  0  0  0
   38.3130   24.6310   34.0180 C   0  0  0  0  0  0  0  0  0  0  0  0
   37.5510   26.1430   33.4560 S   0  0  0  0  0  0  0  0  0  0  0  0
   38.4660   27.1590   34.7780 C   0  0  0  0  0  0  0  0  0  0  0  0
   39.1750   26.3130   35.4300 N   0  0  0  0  0  0  0  0  0  0  0  0
   38.0870   23.3340   37.3020 C   0  0  0  0  0  0  0  0  0  0  0  0
   37.9840   22.7320   38.5750 F   0  0  0  0  0  0  0  0  0  0  0  0
   37.2850   22.6730   36.4570 F   0  0  0  0  0  0  0  0  0  0  0  0
   37.6790   24.6560   37.5680 F   0  0  0  0  0  0  0  0  0  0  0  0
   43.0893   25.3450   37.8043 H   0  0  0  0  0  0  0  0  0  0  0  0
   48.0936   23.1032   39.2296 H   0  0  0  0  0  0  0  0  0  0  0  0
   50.7796   23.3346   39.3311 H   0  0  0  0  0  0  0  0  0  0  0  0
   48.9554   28.7436   36.5570 H   0  0  0  0  0  0  0  0  0  0  0  0
   40.1555   21.8392   38.4280 H   0  0  0  0  0  0  0  0  0  0  0  0
   38.1741   23.6153   33.6193 H   0  0  0  0  0  0  0  0  0  0  0  0
   38.4006   28.2439   34.9475 H   0  0  0  0  0  0  0  0  0  0  0  0
  1 19  1  0
  1  2  1  0
  2  6  1  0
  2  3  2  0
  3  4  1  0
  5  7  1  0
  5  4  1  0
  6  5  2  0
  7  8  1  0
  8  9  2  0
 10  9  1  0
 11  7  1  0
 11 10  2  0
 12 14  1  0
 12 11  1  0
 13 12  2  0
 16 26  1  0
 16 15  2  0
 17 16  1  0
 18 17  2  0
 18 19  1  0
 19 20  2  0
 20 15  1  0
 21 25  1  0
 21 17  1  0
 22 21  2  0
 23 22  1  0
 23 24  1  0
 24 25  2  0
 26 29  1  0
 26 27  1  0
 28 26  1  0
  3 30  1  0
  8 31  1  0
  9 32  1  0
 14 33  1  0
 15 34  1  0
 22 35  1  0
 24 36  1  0
M  ISO  7  30  14  31  14  32  14  33   3  34  14  35  14  36  14
M  END
>  <minimizedAffinity>  (1) 
-5.66068602

>  <minimizedRMSD>  (1) 
4.31356859

$$$$
