
     RDKit          3D

 39 41  0  0  1  0  0  0  0  0999 V2000
   41.8340   22.1940   36.7190 C   0  0  0  0  0  0  0  0  0  0  0  0
   42.4560   21.1120   36.1480 C   0  0  0  0  0  0  0  0  0  0  0  0
   44.1000   21.7750   35.8230 S   0  0  0  0  0  0  0  0  0  0  0  0
   43.6580   23.4920   36.5470 C   0  0  0  0  0  0  0  0  0  0  0  0
   42.5880   23.2560   36.8240 N   0  0  0  0  0  0  0  0  0  0  0  0
   44.6740   24.5840   36.5910 C   0  0  2  0  0  0  0  0  0  0  0  0
   46.0860   24.2720   36.4060 C   0  0  0  0  0  0  0  0  0  0  0  0
   45.7060   24.4440   37.7930 C   0  0  1  0  0  0  0  0  0  0  0  0
   46.1920   25.7730   38.3430 C   0  0  0  0  0  0  0  0  0  0  0  0
   47.2320   26.3620   37.8190 O   0  0  0  0  0  0  0  0  0  0  0  0
   45.5360   26.3930   39.4140 O   0  0  0  0  0  0  0  0  0  0  0  0
   40.4970   21.9840   37.0960 O   0  0  0  0  0  0  0  0  0  0  0  0
   39.6330   23.0150   37.1410 C   0  0  0  0  0  0  0  0  0  0  0  0
   38.8660   23.1730   38.3110 C   0  0  0  0  0  0  0  0  0  0  0  0
   37.9740   24.2340   38.3620 C   0  0  0  0  0  0  0  0  0  0  0  0
   37.8670   25.0750   37.3020 N   0  0  0  0  0  0  0  0  0  0  0  0
   38.6420   24.8730   36.1830 C   0  0  0  0  0  0  0  0  0  0  0  0
   39.5040   23.8730   36.0960 N   0  0  0  0  0  0  0  0  0  0  0  0
   38.4940   25.8200   35.0450 C   0  0  0  0  0  0  0  0  0  0  0  0
   38.6420   24.9990   33.7730 C   0  0  0  0  0  0  0  0  0  0  0  0
   37.1710   26.5440   35.0820 C   0  0  0  0  0  0  0  0  0  0  0  0
   39.6080   26.8390   35.1130 C   0  0  0  0  0  0  0  0  0  0  0  0
   42.0572   20.1075   35.9432 H   0  0  0  0  0  0  0  0  0  0  0  0
   43.9955   25.3330   36.1567 H   0  0  0  0  0  0  0  0  0  0  0  0
   46.3668   23.2690   36.0523 H   0  0  0  0  0  0  0  0  0  0  0  0
   46.8710   24.7379   35.7922 H   0  0  0  0  0  0  0  0  0  0  0  0
   45.7518   23.8614   38.7249 H   0  0  0  0  0  0  0  0  0  0  0  0
   45.8652   27.2597   39.7613 H   0  0  0  0  0  0  0  0  0  0  0  0
   38.9707   22.4778   39.1570 H   0  0  0  0  0  0  0  0  0  0  0  0
   37.3558   24.3932   39.2578 H   0  0  0  0  0  0  0  0  0  0  0  0
   38.8315   23.9476   34.0352 H   0  0  0  0  0  0  0  0  0  0  0  0
   37.7169   25.0685   33.1820 H   0  0  0  0  0  0  0  0  0  0  0  0
   39.4846   25.3872   33.1820 H   0  0  0  0  0  0  0  0  0  0  0  0
   36.8718   26.7078   36.1278 H   0  0  0  0  0  0  0  0  0  0  0  0
   37.2694   27.5140   34.5726 H   0  0  0  0  0  0  0  0  0  0  0  0
   36.4071   25.9382   34.5726 H   0  0  0  0  0  0  0  0  0  0  0  0
   39.8438   27.0547   36.1655 H   0  0  0  0  0  0  0  0  0  0  0  0
   40.5017   26.4393   34.6115 H   0  0  0  0  0  0  0  0  0  0  0  0
   39.2893   27.7647   34.6115 H   0  0  0  0  0  0  0  0  0  0  0  0
  1  5  1  0
  1 12  1  0
  2  1  2  0
  3  2  1  0
  3  4  1  0
  4  6  1  0
  4  5  2  0
  6  8  1  0
  7  6  1  0
  7  8  1  0
  8  9  1  0
  9 11  1  0
 10  9  2  0
 12 13  1  0
 13 14  2  0
 14 15  1  0
 16 15  2  0
 17 16  1  0
 18 17  2  0
 18 13  1  0
 19 21  1  0
 19 22  1  0
 19 17  1  0
 20 19  1  0
  2 23  1  0
  6 24  1  6
  7 25  1  0
  7 26  1  0
  8 27  1  1
 11 28  1  0
 14 29  1  0
 15 30  1  0
 20 31  1  0
 20 32  1  0
 20 33  1  0
 21 34  1  0
 21 35  1  0
 21 36  1  0
 22 37  1  0
 22 38  1  0
 22 39  1  0
M  ISO  8  23  14  24  13  25  13  26  13  27  13  28   3  29  14  30  14
M  ISO  8  31   8  32   8  33   8  34   8  35   8  36   8  37   8  38   8
M  ISO  1  39   8
M  END
>  <minimizedAffinity>  (1) 
-5.33937025

>  <minimizedRMSD>  (1) 
0.848105371

$$$$
