
     RDKit          3D

 30 32  0  0  1  0  0  0  0  0999 V2000
   41.5500   22.3450   36.4950 C   0  0  0  0  0  0  0  0  0  0  0  0
   42.2350   21.2450   36.0420 C   0  0  0  0  0  0  0  0  0  0  0  0
   43.9030   21.9040   35.8730 S   0  0  0  0  0  0  0  0  0  0  0  0
   43.3800   23.6450   36.4710 C   0  0  0  0  0  0  0  0  0  0  0  0
   42.2870   23.4170   36.6390 N   0  0  0  0  0  0  0  0  0  0  0  0
   44.3800   24.7510   36.5830 C   0  0  2  0  0  0  0  0  0  0  0  0
   45.7750   24.5070   36.2310 C   0  0  0  0  0  0  0  0  0  0  0  0
   45.5180   24.4650   37.6550 C   0  0  1  0  0  0  0  0  0  0  0  0
   46.0380   25.7020   38.3590 C   0  0  0  0  0  0  0  0  0  0  0  0
   47.0960   26.3160   37.9060 O   0  0  0  0  0  0  0  0  0  0  0  0
   45.3980   26.2140   39.4970 O   0  0  0  0  0  0  0  0  0  0  0  0
   40.1810   22.1420   36.7310 O   0  0  0  0  0  0  0  0  0  0  0  0
   39.3940   23.1750   37.0910 C   0  0  0  0  0  0  0  0  0  0  0  0
   38.8720   23.1770   38.3940 C   0  0  0  0  0  0  0  0  0  0  0  0
   38.0600   24.2410   38.7660 C   0  0  0  0  0  0  0  0  0  0  0  0
   37.8010   25.2260   37.8780 N   0  0  0  0  0  0  0  0  0  0  0  0
   38.3360   25.1780   36.6100 C   0  0  0  0  0  0  0  0  0  0  0  0
   39.1130   24.1860   36.2150 N   0  0  0  0  0  0  0  0  0  0  0  0
   37.9820   26.3020   35.7420 C   0  0  0  0  0  0  0  0  0  0  0  0
   37.3140   26.0930   34.6970 O   0  0  0  0  0  0  0  0  0  0  0  0
   38.3710   27.5980   36.0500 O   0  0  0  0  0  0  0  0  0  0  0  0
   41.8638   20.2301   35.8366 H   0  0  0  0  0  0  0  0  0  0  0  0
   43.6549   25.5366   36.3240 H   0  0  0  0  0  0  0  0  0  0  0  0
   46.0367   23.5741   35.7101 H   0  0  0  0  0  0  0  0  0  0  0  0
   46.4953   25.0779   35.6267 H   0  0  0  0  0  0  0  0  0  0  0  0
   45.6535   23.7537   38.4831 H   0  0  0  0  0  0  0  0  0  0  0  0
   45.7534   27.0234   39.9427 H   0  0  0  0  0  0  0  0  0  0  0  0
   39.0986   22.3625   39.0977 H   0  0  0  0  0  0  0  0  0  0  0  0
   37.6303   24.2814   39.7778 H   0  0  0  0  0  0  0  0  0  0  0  0
   38.1219   28.3453   35.4504 H   0  0  0  0  0  0  0  0  0  0  0  0
  1  5  1  0
  1 12  1  0
  2  1  2  0
  3  2  1  0
  3  4  1  0
  4  6  1  0
  4  5  2  0
  6  8  1  0
  7  6  1  0
  7  8  1  0
  8  9  1  0
  9 11  1  0
 10  9  2  0
 12 13  1  0
 13 14  2  0
 14 15  1  0
 16 15  2  0
 17 16  1  0
 18 17  2  0
 18 13  1  0
 19 21  1  0
 19 17  1  0
 20 19  2  0
  2 22  1  0
  6 23  1  1
  7 24  1  0
  7 25  1  0
  8 26  1  1
 11 27  1  0
 14 28  1  0
 15 29  1  0
 21 30  1  0
M  ISO  8  22  14  23  13  24  13  25  13  26  13  27   3  28  14  29  14
M  ISO  1  30   3
M  END
>  <minimizedAffinity>  (1) 
-5.04849768

>  <minimizedRMSD>  (1) 
1.02082324

$$$$
