
     RDKit          3D

 29 31  0  0  1  0  0  0  0  0999 V2000
   41.7970   22.1910   36.7630 C   0  0  0  0  0  0  0  0  0  0  0  0
   42.4170   21.1470   36.1180 C   0  0  0  0  0  0  0  0  0  0  0  0
   44.0280   21.8670   35.7440 S   0  0  0  0  0  0  0  0  0  0  0  0
   43.5780   23.5400   36.5590 C   0  0  0  0  0  0  0  0  0  0  0  0
   42.5280   23.2650   36.8770 N   0  0  0  0  0  0  0  0  0  0  0  0
   44.5760   24.6500   36.6020 C   0  0  2  0  0  0  0  0  0  0  0  0
   45.9800   24.3780   36.3220 C   0  0  0  0  0  0  0  0  0  0  0  0
   45.6750   24.4740   37.7330 C   0  0  1  0  0  0  0  0  0  0  0  0
   46.1740   25.7730   38.3320 C   0  0  0  0  0  0  0  0  0  0  0  0
   47.2180   26.3720   37.8270 O   0  0  0  0  0  0  0  0  0  0  0  0
   45.5260   26.3580   39.4280 O   0  0  0  0  0  0  0  0  0  0  0  0
   40.4860   21.9290   37.1920 O   0  0  0  0  0  0  0  0  0  0  0  0
   39.5760   22.9190   37.2430 C   0  0  0  0  0  0  0  0  0  0  0  0
   38.9790   23.2090   38.4800 C   0  0  0  0  0  0  0  0  0  0  0  0
   38.0400   24.2320   38.5300 C   0  0  0  0  0  0  0  0  0  0  0  0
   37.7360   24.9020   37.4000 N   0  0  0  0  0  0  0  0  0  0  0  0
   38.3440   24.5860   36.2090 C   0  0  0  0  0  0  0  0  0  0  0  0
   39.2460   23.6150   36.1260 N   0  0  0  0  0  0  0  0  0  0  0  0
   37.9350   25.3790   35.0610 C   0  0  0  0  0  0  0  0  0  0  0  0
   37.1590   26.3560   35.2230 O   0  0  0  0  0  0  0  0  0  0  0  0
   42.0332   20.1415   35.8908 H   0  0  0  0  0  0  0  0  0  0  0  0
   43.8597   25.4048   36.2453 H   0  0  0  0  0  0  0  0  0  0  0  0
   46.2591   23.3998   35.9035 H   0  0  0  0  0  0  0  0  0  0  0  0
   46.7202   24.8896   35.6892 H   0  0  0  0  0  0  0  0  0  0  0  0
   45.7809   23.8475   38.6309 H   0  0  0  0  0  0  0  0  0  0  0  0
   45.8647   27.2072   39.8078 H   0  0  0  0  0  0  0  0  0  0  0  0
   39.2469   22.6425   39.3840 H   0  0  0  0  0  0  0  0  0  0  0  0
   37.5505   24.4922   39.4801 H   0  0  0  0  0  0  0  0  0  0  0  0
   38.3023   25.1259   34.0555 H   0  0  0  0  0  0  0  0  0  0  0  0
  1  5  1  0
  1 12  1  0
  2  1  2  0
  3  2  1  0
  3  4  1  0
  4  6  1  0
  4  5  2  0
  6  8  1  0
  7  6  1  0
  7  8  1  0
  8  9  1  0
  9 11  1  0
 10  9  2  0
 12 13  1  0
 13 14  2  0
 14 15  1  0
 16 15  2  0
 17 16  1  0
 18 17  2  0
 18 13  1  0
 19 20  2  0
 19 17  1  0
  2 21  1  0
  6 22  1  6
  7 23  1  0
  7 24  1  0
  8 25  1  1
 11 26  1  0
 14 27  1  0
 15 28  1  0
 19 29  1  0
M  ISO  8  21  14  22  13  23  13  24  13  25  13  26   3  27  14  28  14
M  ISO  1  29   6
M  END
>  <minimizedAffinity>  (1) 
-4.78898191

>  <minimizedRMSD>  (1) 
0.393524766

$$$$
