
     RDKit          3D

 30 32  0  0  1  0  0  0  0  0999 V2000
   41.8850   22.1430   36.8030 C   0  0  0  0  0  0  0  0  0  0  0  0
   42.4860   21.1080   36.1350 C   0  0  0  0  0  0  0  0  0  0  0  0
   44.0900   21.8300   35.7310 S   0  0  0  0  0  0  0  0  0  0  0  0
   43.6610   23.4950   36.5710 C   0  0  0  0  0  0  0  0  0  0  0  0
   42.6190   23.2230   36.9120 N   0  0  0  0  0  0  0  0  0  0  0  0
   44.6530   24.6110   36.6020 C   0  0  2  0  0  0  0  0  0  0  0  0
   46.0610   24.3420   36.3510 C   0  0  0  0  0  0  0  0  0  0  0  0
   45.7350   24.4660   37.7540 C   0  0  1  0  0  0  0  0  0  0  0  0
   46.2120   25.7870   38.3280 C   0  0  0  0  0  0  0  0  0  0  0  0
   47.2510   26.3900   37.8130 O   0  0  0  0  0  0  0  0  0  0  0  0
   45.5540   26.3860   39.4110 O   0  0  0  0  0  0  0  0  0  0  0  0
   40.5820   21.8770   37.2620 O   0  0  0  0  0  0  0  0  0  0  0  0
   39.6360   22.8380   37.2030 C   0  0  0  0  0  0  0  0  0  0  0  0
   38.9950   23.1870   38.4070 C   0  0  0  0  0  0  0  0  0  0  0  0
   38.0160   24.1850   38.3420 C   0  0  0  0  0  0  0  0  0  0  0  0
   37.7180   24.7760   37.1440 N   0  0  0  0  0  0  0  0  0  0  0  0
   38.3900   24.3790   36.0130 C   0  0  0  0  0  0  0  0  0  0  0  0
   39.3170   23.4480   36.0090 N   0  0  0  0  0  0  0  0  0  0  0  0
   38.0760   25.0190   34.6940 C   0  0  0  0  0  0  0  0  0  0  0  0
   42.0952   20.1055   35.9063 H   0  0  0  0  0  0  0  0  0  0  0  0
   43.9388   25.3531   36.2158 H   0  0  0  0  0  0  0  0  0  0  0  0
   46.3522   23.3567   35.9579 H   0  0  0  0  0  0  0  0  0  0  0  0
   46.8078   24.8449   35.7190 H   0  0  0  0  0  0  0  0  0  0  0  0
   45.8332   23.8594   38.6664 H   0  0  0  0  0  0  0  0  0  0  0  0
   45.8794   27.2483   39.7724 H   0  0  0  0  0  0  0  0  0  0  0  0
   39.2525   22.6966   39.3574 H   0  0  0  0  0  0  0  0  0  0  0  0
   37.4856   24.4947   39.2545 H   0  0  0  0  0  0  0  0  0  0  0  0
   37.5973   25.9946   34.8645 H   0  0  0  0  0  0  0  0  0  0  0  0
   39.0065   25.1616   34.1249 H   0  0  0  0  0  0  0  0  0  0  0  0
   37.3938   24.3704   34.1249 H   0  0  0  0  0  0  0  0  0  0  0  0
  1  5  1  0
  1 12  1  0
  2  1  2  0
  3  2  1  0
  3  4  1  0
  4  6  1  0
  4  5  2  0
  6  8  1  0
  7  6  1  0
  7  8  1  0
  8  9  1  0
  9 11  1  0
 10  9  2  0
 13 12  1  0
 13 14  2  0
 15 14  1  0
 16 15  2  0
 17 16  1  0
 18 17  2  0
 18 13  1  0
 19 17  1  0
  2 20  1  0
  6 21  1  6
  7 22  1  0
  7 23  1  0
  8 24  1  1
 11 25  1  0
 14 26  1  0
 15 27  1  0
 19 28  1  0
 19 29  1  0
 19 30  1  0
M  ISO  8  20  14  21  13  22  13  23  13  24  13  25   3  26  14  27  14
M  ISO  3  28   8  29   8  30   8
M  END
>  <minimizedAffinity>  (1) 
-4.76067305

>  <minimizedRMSD>  (1) 
0.174860403

$$$$
