
     RDKit          3D

 28 30  0  0  1  0  0  0  0  0999 V2000
   41.8950   22.1430   36.8110 C   0  0  0  0  0  0  0  0  0  0  0  0
   42.4940   21.0990   36.1470 C   0  0  0  0  0  0  0  0  0  0  0  0
   44.1010   21.8060   35.7440 S   0  0  0  0  0  0  0  0  0  0  0  0
   43.6820   23.4810   36.5760 C   0  0  0  0  0  0  0  0  0  0  0  0
   42.6400   23.2110   36.9120 N   0  0  0  0  0  0  0  0  0  0  0  0
   44.6840   24.5870   36.6050 C   0  0  2  0  0  0  0  0  0  0  0  0
   46.0970   24.2970   36.3910 C   0  0  0  0  0  0  0  0  0  0  0  0
   45.7430   24.4590   37.7840 C   0  0  1  0  0  0  0  0  0  0  0  0
   46.2200   25.7880   38.3350 C   0  0  0  0  0  0  0  0  0  0  0  0
   47.2570   26.3830   37.8080 O   0  0  0  0  0  0  0  0  0  0  0  0
   45.5600   26.4040   39.4080 O   0  0  0  0  0  0  0  0  0  0  0  0
   40.5900   21.8890   37.2660 O   0  0  0  0  0  0  0  0  0  0  0  0
   39.6470   22.8470   37.1920 C   0  0  0  0  0  0  0  0  0  0  0  0
   38.9740   23.1930   38.3770 C   0  0  0  0  0  0  0  0  0  0  0  0
   37.9990   24.1810   38.3070 C   0  0  0  0  0  0  0  0  0  0  0  0
   37.7350   24.7650   37.1200 N   0  0  0  0  0  0  0  0  0  0  0  0
   38.4190   24.3930   35.9880 C   0  0  0  0  0  0  0  0  0  0  0  0
   39.3570   23.4550   36.0160 N   0  0  0  0  0  0  0  0  0  0  0  0
   37.9720   25.2500   34.4690 S   0  0  0  0  0  0  0  0  0  0  0  0
   42.0974   20.0980   35.9217 H   0  0  0  0  0  0  0  0  0  0  0  0
   43.9851   25.3269   36.1878 H   0  0  0  0  0  0  0  0  0  0  0  0
   46.3859   23.2994   36.0286 H   0  0  0  0  0  0  0  0  0  0  0  0
   46.8623   24.7766   35.7631 H   0  0  0  0  0  0  0  0  0  0  0  0
   45.8168   23.8738   38.7125 H   0  0  0  0  0  0  0  0  0  0  0  0
   45.8844   27.2722   39.7560 H   0  0  0  0  0  0  0  0  0  0  0  0
   39.2117   22.6972   39.3297 H   0  0  0  0  0  0  0  0  0  0  0  0
   37.4484   24.4835   39.2100 H   0  0  0  0  0  0  0  0  0  0  0  0
   37.3547   26.4336   34.7771 H   0  0  0  0  0  0  0  0  0  0  0  0
  1  5  1  0
  1 12  1  0
  2  1  2  0
  3  2  1  0
  3  4  1  0
  4  6  1  0
  4  5  2  0
  6  8  1  0
  7  6  1  0
  7  8  1  0
  8  9  1  0
  9 11  1  0
 10  9  2  0
 13 12  1  0
 13 14  2  0
 15 14  1  0
 16 15  2  0
 17 18  2  0
 17 16  1  0
 18 13  1  0
 19 17  1  0
  2 20  1  0
  6 21  1  6
  7 22  1  0
  7 23  1  0
  8 24  1  1
 11 25  1  0
 14 26  1  0
 15 27  1  0
 19 28  1  0
M  ISO  8  20  14  21  13  22  13  23  13  24  13  25   3  26  14  27  14
M  ISO  1  28  11
M  END
>  <minimizedAffinity>  (1) 
-4.74617434

>  <minimizedRMSD>  (1) 
0.206448227

$$$$
