
     RDKit          3D

 25 26  0  0  1  0  0  0  0  0999 V2000
   38.7070   25.6950   34.9080 C   0  0  2  0  0  0  0  0  0  0  0  0
   39.6130   22.9560   37.1710 C   0  0  0  0  0  0  0  0  0  0  0  0
   38.8100   23.2010   38.3290 C   0  0  0  0  0  0  0  0  0  0  0  0
   37.9640   24.3080   38.3060 C   0  0  0  0  0  0  0  0  0  0  0  0
   37.9610   25.0930   37.1700 N   0  0  0  0  0  0  0  0  0  0  0  0
   38.7390   24.8200   36.1010 C   0  0  0  0  0  0  0  0  0  0  0  0
   39.5590   23.7680   36.0910 N   0  0  0  0  0  0  0  0  0  0  0  0
   39.6990   26.8160   35.1080 C   0  0  0  0  0  0  0  0  0  0  0  0
   37.3560   26.3150   34.6590 C   0  0  0  0  0  0  0  0  0  0  0  0
   36.9450   26.1570   33.2820 N   0  0  0  0  0  0  0  0  0  0  0  0
   36.9460   25.0920   32.4830 C   0  0  0  0  0  0  0  0  0  0  0  0
   36.4710   25.3960   31.2580 N   0  0  0  0  0  0  0  0  0  0  0  0
   36.1620   26.7010   31.2970 C   0  0  0  0  0  0  0  0  0  0  0  0
   36.4610   27.1420   32.5430 N   0  0  0  0  0  0  0  0  0  0  0  0
   38.9514   25.0643   34.0406 H   0  0  0  0  0  0  0  0  0  0  0  0
   40.2891   22.0884   37.1587 H   0  0  0  0  0  0  0  0  0  0  0  0
   38.8585   22.5392   39.2063 H   0  0  0  0  0  0  0  0  0  0  0  0
   37.3198   24.5486   39.1645 H   0  0  0  0  0  0  0  0  0  0  0  0
   39.8488   26.9853   36.1845 H   0  0  0  0  0  0  0  0  0  0  0  0
   40.6580   26.5444   34.6426 H   0  0  0  0  0  0  0  0  0  0  0  0
   39.3128   27.7348   34.6426 H   0  0  0  0  0  0  0  0  0  0  0  0
   36.6147   25.8299   35.3110 H   0  0  0  0  0  0  0  0  0  0  0  0
   37.4252   27.3910   34.8767 H   0  0  0  0  0  0  0  0  0  0  0  0
   37.2904   24.0915   32.7838 H   0  0  0  0  0  0  0  0  0  0  0  0
   35.7450   27.2995   30.4737 H   0  0  0  0  0  0  0  0  0  0  0  0
  1  8  1  0
  1  6  1  0
  2  3  2  0
  4  3  1  0
  5  4  2  0
  6  5  1  0
  7  6  2  0
  7  2  1  0
  9  1  1  0
 10  9  1  0
 11 10  1  0
 12 13  1  0
 12 11  2  0
 13 14  2  0
 14 10  1  0
  1 15  1  6
  2 16  1  0
  3 17  1  0
  4 18  1  0
  8 19  1  0
  8 20  1  0
  8 21  1  0
  9 22  1  0
  9 23  1  0
 11 24  1  0
 13 25  1  0
M  ISO  8  15   8  16  14  17  14  18  14  19   8  20   8  21   8  22   8
M  ISO  3  23   8  24  14  25  14
M  END
>  <minimizedAffinity>  (1) 
-3.96183729

>  <minimizedRMSD>  (1) 
1.20319009

$$$$
