
     RDKit          3D

 29 31  0  0  1  0  0  0  0  0999 V2000
   41.8830   22.1440   36.8030 C   0  0  0  0  0  0  0  0  0  0  0  0
   42.4900   21.1100   36.1340 C   0  0  0  0  0  0  0  0  0  0  0  0
   44.0900   21.8260   35.7380 S   0  0  0  0  0  0  0  0  0  0  0  0
   43.6700   23.4900   36.5760 C   0  0  0  0  0  0  0  0  0  0  0  0
   42.6260   23.2090   36.9090 N   0  0  0  0  0  0  0  0  0  0  0  0
   44.6580   24.6090   36.6120 C   0  0  2  0  0  0  0  0  0  0  0  0
   46.0730   24.3270   36.3730 C   0  0  0  0  0  0  0  0  0  0  0  0
   45.7390   24.4610   37.7730 C   0  0  1  0  0  0  0  0  0  0  0  0
   46.2110   25.7880   38.3350 C   0  0  0  0  0  0  0  0  0  0  0  0
   47.2450   26.3880   37.8130 O   0  0  0  0  0  0  0  0  0  0  0  0
   45.5570   26.4000   39.4090 O   0  0  0  0  0  0  0  0  0  0  0  0
   40.5790   21.8840   37.2560 O   0  0  0  0  0  0  0  0  0  0  0  0
   39.6360   22.8390   37.1930 C   0  0  0  0  0  0  0  0  0  0  0  0
   38.9900   23.2000   38.3960 C   0  0  0  0  0  0  0  0  0  0  0  0
   38.0150   24.1860   38.3290 C   0  0  0  0  0  0  0  0  0  0  0  0
   37.7200   24.7580   37.1470 N   0  0  0  0  0  0  0  0  0  0  0  0
   38.3780   24.3720   35.9990 C   0  0  0  0  0  0  0  0  0  0  0  0
   39.3180   23.4310   36.0190 N   0  0  0  0  0  0  0  0  0  0  0  0
   37.9320   25.0850   34.8520 N   0  0  0  0  0  0  0  0  0  0  0  0
   42.1000   20.1080   35.9018 H   0  0  0  0  0  0  0  0  0  0  0  0
   43.9491   25.3544   36.2223 H   0  0  0  0  0  0  0  0  0  0  0  0
   46.3598   23.3375   35.9876 H   0  0  0  0  0  0  0  0  0  0  0  0
   46.8279   24.8213   35.7439 H   0  0  0  0  0  0  0  0  0  0  0  0
   45.8329   23.8574   38.6878 H   0  0  0  0  0  0  0  0  0  0  0  0
   45.8838   27.2666   39.7587 H   0  0  0  0  0  0  0  0  0  0  0  0
   39.2496   22.7180   39.3501 H   0  0  0  0  0  0  0  0  0  0  0  0
   37.4845   24.4992   39.2403 H   0  0  0  0  0  0  0  0  0  0  0  0
   37.1945   25.7982   34.9435 H   0  0  0  0  0  0  0  0  0  0  0  0
   38.3465   24.8882   33.9299 H   0  0  0  0  0  0  0  0  0  0  0  0
  1  5  1  0
  1 12  1  0
  2  1  2  0
  3  2  1  0
  3  4  1  0
  4  6  1  0
  4  5  2  0
  6  8  1  0
  7  6  1  0
  7  8  1  0
  8  9  1  0
  9 11  1  0
 10  9  2  0
 13 12  1  0
 13 14  2  0
 15 14  1  0
 16 15  2  0
 17 18  2  0
 17 16  1  0
 18 13  1  0
 19 17  1  0
  2 20  1  0
  6 21  1  6
  7 22  1  0
  7 23  1  0
  8 24  1  1
 11 25  1  0
 14 26  1  0
 15 27  1  0
 19 28  1  0
 19 29  1  0
M  ISO  8  20  14  21  13  22  13  23  13  24  13  25   3  26  14  27  14
M  END
>  <minimizedAffinity>  (1) 
-4.74592161

>  <minimizedRMSD>  (1) 
0.170064583

$$$$
