
     RDKit          3D

 47 51  0  0  1  0  0  0  0  0999 V2000
   39.5600   22.9090   37.2450 C   0  0  0  0  0  0  0  0  0  0  0  0
   38.9840   23.2440   38.4800 C   0  0  0  0  0  0  0  0  0  0  0  0
   38.0370   24.2570   38.5120 C   0  0  0  0  0  0  0  0  0  0  0  0
   37.7010   24.8830   37.3720 N   0  0  0  0  0  0  0  0  0  0  0  0
   38.2890   24.5280   36.1700 C   0  0  0  0  0  0  0  0  0  0  0  0
   39.1980   23.5620   36.1080 N   0  0  0  0  0  0  0  0  0  0  0  0
   37.8850   25.2360   35.0220 N   0  0  0  0  0  0  0  0  0  0  0  0
   37.4020   26.4750   35.2830 C   0  0  0  0  0  0  0  0  0  0  0  0
   37.0340   27.0500   34.0540 C   0  0  0  0  0  0  0  0  0  0  0  0
   37.3070   26.1430   33.1110 N   0  0  0  0  0  0  0  0  0  0  0  0
   37.8210   25.0440   33.6850 C   0  0  0  0  0  0  0  0  0  0  0  0
   38.2910   23.7840   33.2120 N   0  0  0  0  0  0  0  0  0  0  0  0
   37.6780   23.2970   31.9660 C   0  0  0  0  0  0  0  0  0  0  0  0
   36.7540   22.1630   32.4330 C   0  0  0  0  0  0  0  0  0  0  0  0
   37.4540   21.2940   33.2690 O   0  0  0  0  0  0  0  0  0  0  0  0
   38.8220   21.4610   33.2270 C   0  0  0  0  0  0  0  0  0  0  0  0
   39.2700   22.8350   33.6990 C   0  0  0  0  0  0  0  0  0  0  0  0
   40.4780   21.9280   37.2140 O   0  0  0  0  0  0  0  0  0  0  0  0
   41.7810   22.1920   36.7660 C   0  0  0  0  0  0  0  0  0  0  0  0
   42.3890   21.1590   36.1000 C   0  0  0  0  0  0  0  0  0  0  0  0
   43.9860   21.8800   35.7090 S   0  0  0  0  0  0  0  0  0  0  0  0
   43.5700   23.5360   36.5380 C   0  0  0  0  0  0  0  0  0  0  0  0
   42.5160   23.2680   36.8790 N   0  0  0  0  0  0  0  0  0  0  0  0
   44.5640   24.6710   36.5710 C   0  0  2  0  0  0  0  0  0  0  0  0
   45.9590   24.3660   36.3340 C   0  0  0  0  0  0  0  0  0  0  0  0
   45.6880   24.4340   37.7180 C   0  0  1  0  0  0  0  0  0  0  0  0
   46.1820   25.7570   38.3240 C   0  0  0  0  0  0  0  0  0  0  0  0
   47.2330   26.3770   37.7980 O   0  0  0  0  0  0  0  0  0  0  0  0
   45.5110   26.3090   39.4350 O   0  0  0  0  0  0  0  0  0  0  0  0
   39.2762   22.7163   39.3999 H   0  0  0  0  0  0  0  0  0  0  0  0
   37.5651   24.5453   39.4629 H   0  0  0  0  0  0  0  0  0  0  0  0
   37.3141   26.9444   36.2739 H   0  0  0  0  0  0  0  0  0  0  0  0
   36.6051   28.0510   33.8988 H   0  0  0  0  0  0  0  0  0  0  0  0
   38.4445   22.9184   31.2738 H   0  0  0  0  0  0  0  0  0  0  0  0
   37.1412   24.0858   31.4187 H   0  0  0  0  0  0  0  0  0  0  0  0
   35.9017   22.5898   32.9820 H   0  0  0  0  0  0  0  0  0  0  0  0
   36.3908   21.6075   31.5558 H   0  0  0  0  0  0  0  0  0  0  0  0
   39.2874   20.7006   33.8713 H   0  0  0  0  0  0  0  0  0  0  0  0
   39.1329   21.3575   32.1769 H   0  0  0  0  0  0  0  0  0  0  0  0
   40.2630   23.0712   33.2889 H   0  0  0  0  0  0  0  0  0  0  0  0
   39.3433   22.8712   34.7960 H   0  0  0  0  0  0  0  0  0  0  0  0
   42.0016   20.1561   35.8674 H   0  0  0  0  0  0  0  0  0  0  0  0
   43.8695   25.4430   36.2083 H   0  0  0  0  0  0  0  0  0  0  0  0
   46.2138   23.3885   35.8985 H   0  0  0  0  0  0  0  0  0  0  0  0
   46.7145   24.8809   35.7224 H   0  0  0  0  0  0  0  0  0  0  0  0
   45.8096   23.7827   38.5961 H   0  0  0  0  0  0  0  0  0  0  0  0
   45.8248   27.1610   39.8296 H   0  0  0  0  0  0  0  0  0  0  0  0
  1  2  2  0
  2  3  1  0
  4  3  2  0
  5  4  1  0
  6  5  2  0
  6  1  1  0
  7  8  1  0
  7  5  1  0
  9  8  2  0
 10 11  2  0
 10  9  1  0
 11  7  1  0
 12 11  1  0
 12 17  1  0
 13 14  1  0
 13 12  1  0
 14 15  1  0
 16 15  1  0
 16 17  1  0
 18  1  1  0
 19 23  1  0
 19 18  1  0
 20 19  2  0
 21 20  1  0
 21 22  1  0
 22 24  1  0
 22 23  2  0
 24 26  1  0
 25 24  1  0
 25 26  1  0
 26 27  1  0
 27 29  1  0
 28 27  2  0
  2 30  1  0
  3 31  1  0
  8 32  1  0
  9 33  1  0
 13 34  1  0
 13 35  1  0
 14 36  1  0
 14 37  1  0
 16 38  1  0
 16 39  1  0
 17 40  1  0
 17 41  1  0
 20 42  1  0
 24 43  1  6
 25 44  1  0
 25 45  1  0
 26 46  1  1
 29 47  1  0
M  ISO  8  30  14  31  14  32  14  33  14  34  13  35  13  36  13  37  13
M  ISO  8  38  13  39  13  40  13  41  13  42  14  43  13  44  13  45  13
M  ISO  2  46  13  47   3
M  END
>  <minimizedAffinity>  (1) 
-6.53311491

>  <minimizedRMSD>  (1) 
0.166484043

$$$$
