
     RDKit          3D

 41 45  0  0  1  0  0  0  0  0999 V2000
   39.5710   22.8970   37.2690 C   0  0  0  0  0  0  0  0  0  0  0  0
   38.9940   23.2410   38.5020 C   0  0  0  0  0  0  0  0  0  0  0  0
   38.0440   24.2470   38.5150 C   0  0  0  0  0  0  0  0  0  0  0  0
   37.7050   24.8570   37.3620 N   0  0  0  0  0  0  0  0  0  0  0  0
   38.2920   24.4930   36.1750 C   0  0  0  0  0  0  0  0  0  0  0  0
   39.2080   23.5310   36.1240 N   0  0  0  0  0  0  0  0  0  0  0  0
   37.8980   25.1780   35.0130 N   0  0  0  0  0  0  0  0  0  0  0  0
   37.4210   26.4330   35.2560 C   0  0  0  0  0  0  0  0  0  0  0  0
   37.0340   26.9950   34.0260 C   0  0  0  0  0  0  0  0  0  0  0  0
   37.2900   26.0690   33.0980 N   0  0  0  0  0  0  0  0  0  0  0  0
   37.8090   24.9760   33.6780 C   0  0  0  0  0  0  0  0  0  0  0  0
   38.2590   23.7100   33.2000 N   0  0  0  0  0  0  0  0  0  0  0  0
   38.5140   23.1530   32.0030 C   0  0  0  0  0  0  0  0  0  0  0  0
   38.9320   21.8620   32.2780 C   0  0  0  0  0  0  0  0  0  0  0  0
   38.9260   21.6530   33.6070 N   0  0  0  0  0  0  0  0  0  0  0  0
   38.5140   22.7880   34.1670 C   0  0  0  0  0  0  0  0  0  0  0  0
   40.4990   21.9160   37.2550 O   0  0  0  0  0  0  0  0  0  0  0  0
   41.7960   22.1850   36.8010 C   0  0  0  0  0  0  0  0  0  0  0  0
   42.4010   21.1500   36.1410 C   0  0  0  0  0  0  0  0  0  0  0  0
   43.9990   21.8720   35.7340 S   0  0  0  0  0  0  0  0  0  0  0  0
   43.5800   23.5340   36.5570 C   0  0  0  0  0  0  0  0  0  0  0  0
   42.5320   23.2610   36.9010 N   0  0  0  0  0  0  0  0  0  0  0  0
   44.5770   24.6640   36.5750 C   0  0  2  0  0  0  0  0  0  0  0  0
   45.9720   24.3580   36.3480 C   0  0  0  0  0  0  0  0  0  0  0  0
   45.6960   24.4450   37.7290 C   0  0  1  0  0  0  0  0  0  0  0  0
   46.1900   25.7700   38.3230 C   0  0  0  0  0  0  0  0  0  0  0  0
   47.2430   26.3810   37.7900 O   0  0  0  0  0  0  0  0  0  0  0  0
   45.5240   26.3380   39.4260 O   0  0  0  0  0  0  0  0  0  0  0  0
   39.2881   22.7267   39.4289 H   0  0  0  0  0  0  0  0  0  0  0  0
   37.5685   24.5470   39.4605 H   0  0  0  0  0  0  0  0  0  0  0  0
   37.3514   26.9194   36.2401 H   0  0  0  0  0  0  0  0  0  0  0  0
   36.6068   27.9952   33.8615 H   0  0  0  0  0  0  0  0  0  0  0  0
   38.4120   23.6237   31.0140 H   0  0  0  0  0  0  0  0  0  0  0  0
   39.2253   21.1182   31.5225 H   0  0  0  0  0  0  0  0  0  0  0  0
   38.3974   22.9551   35.2480 H   0  0  0  0  0  0  0  0  0  0  0  0
   42.0139   20.1447   35.9185 H   0  0  0  0  0  0  0  0  0  0  0  0
   43.8838   25.4295   36.1963 H   0  0  0  0  0  0  0  0  0  0  0  0
   46.2299   23.3749   35.9273 H   0  0  0  0  0  0  0  0  0  0  0  0
   46.7291   24.8654   35.7321 H   0  0  0  0  0  0  0  0  0  0  0  0
   45.8133   23.8063   38.6169 H   0  0  0  0  0  0  0  0  0  0  0  0
   45.8424   27.1932   39.8098 H   0  0  0  0  0  0  0  0  0  0  0  0
  1  2  2  0
  2  3  1  0
  4  3  2  0
  5  4  1  0
  6  5  2  0
  6  1  1  0
  7  8  1  0
  7  5  1  0
  9  8  2  0
 10 11  2  0
 10  9  1  0
 11  7  1  0
 12 11  1  0
 12 16  1  0
 13 14  2  0
 13 12  1  0
 14 15  1  0
 15 16  2  0
 17  1  1  0
 18 22  1  0
 18 17  1  0
 19 18  2  0
 20 19  1  0
 20 21  1  0
 21 23  1  0
 21 22  2  0
 23 25  1  0
 24 23  1  0
 24 25  1  0
 25 26  1  0
 26 28  1  0
 27 26  2  0
  2 29  1  0
  3 30  1  0
  8 31  1  0
  9 32  1  0
 13 33  1  0
 14 34  1  0
 16 35  1  0
 19 36  1  0
 23 37  1  6
 24 38  1  0
 24 39  1  0
 25 40  1  1
 28 41  1  0
M  ISO  8  29  14  30  14  31  14  32  14  33  14  34  14  35  14  36  14
M  ISO  5  37  13  38  13  39  13  40  13  41   3
M  END
>  <minimizedAffinity>  (1) 
-6.29493141

>  <minimizedRMSD>  (1) 
0.124084316

$$$$
