
     RDKit          3D

 44 48  0  0  1  0  0  0  0  0999 V2000
   39.5630   22.8600   37.2340 C   0  0  0  0  0  0  0  0  0  0  0  0
   38.9960   23.2360   38.4610 C   0  0  0  0  0  0  0  0  0  0  0  0
   38.0550   24.2510   38.4560 C   0  0  0  0  0  0  0  0  0  0  0  0
   37.7140   24.8390   37.2920 N   0  0  0  0  0  0  0  0  0  0  0  0
   38.2960   24.4390   36.1100 C   0  0  0  0  0  0  0  0  0  0  0  0
   39.1980   23.4740   36.0800 N   0  0  0  0  0  0  0  0  0  0  0  0
   37.8920   25.1050   34.9380 N   0  0  0  0  0  0  0  0  0  0  0  0
   37.4170   26.3620   35.1520 C   0  0  0  0  0  0  0  0  0  0  0  0
   37.0410   26.8960   33.9060 C   0  0  0  0  0  0  0  0  0  0  0  0
   37.3020   25.9520   33.0010 N   0  0  0  0  0  0  0  0  0  0  0  0
   37.8110   24.8740   33.6040 C   0  0  0  0  0  0  0  0  0  0  0  0
   38.2970   23.5370   33.2240 C   0  0  0  0  0  0  0  0  0  0  0  0
   39.6070   23.3830   32.8240 C   0  0  0  0  0  0  0  0  0  0  0  0
   39.9810   22.0990   32.4850 C   0  0  0  0  0  0  0  0  0  0  0  0
   39.1750   20.9900   32.5110 C   0  0  0  0  0  0  0  0  0  0  0  0
   37.8560   21.1620   32.9160 C   0  0  0  0  0  0  0  0  0  0  0  0
   37.4510   22.4460   33.2640 C   0  0  0  0  0  0  0  0  0  0  0  0
   40.4780   21.8730   37.2450 O   0  0  0  0  0  0  0  0  0  0  0  0
   41.7870   22.1210   36.8010 C   0  0  0  0  0  0  0  0  0  0  0  0
   42.4030   21.0620   36.1890 C   0  0  0  0  0  0  0  0  0  0  0  0
   44.0040   21.7690   35.7850 S   0  0  0  0  0  0  0  0  0  0  0  0
   43.5730   23.4600   36.5360 C   0  0  0  0  0  0  0  0  0  0  0  0
   42.5190   23.2040   36.8750 N   0  0  0  0  0  0  0  0  0  0  0  0
   44.5700   24.5910   36.5250 C   0  0  2  0  0  0  0  0  0  0  0  0
   45.9690   24.2730   36.3330 C   0  0  0  0  0  0  0  0  0  0  0  0
   45.6710   24.4170   37.7070 C   0  0  1  0  0  0  0  0  0  0  0  0
   46.1590   25.7710   38.2450 C   0  0  0  0  0  0  0  0  0  0  0  0
   47.2720   26.3150   37.7650 O   0  0  0  0  0  0  0  0  0  0  0  0
   45.4130   26.4310   39.2450 O   0  0  0  0  0  0  0  0  0  0  0  0
   39.2901   22.7397   39.3976 H   0  0  0  0  0  0  0  0  0  0  0  0
   37.5878   24.5762   39.3972 H   0  0  0  0  0  0  0  0  0  0  0  0
   37.3407   26.8696   36.1249 H   0  0  0  0  0  0  0  0  0  0  0  0
   36.6166   27.8929   33.7162 H   0  0  0  0  0  0  0  0  0  0  0  0
   40.3087   24.2289   32.7780 H   0  0  0  0  0  0  0  0  0  0  0  0
   41.0227   21.9512   32.1640 H   0  0  0  0  0  0  0  0  0  0  0  0
   39.5580   20.0002   32.2219 H   0  0  0  0  0  0  0  0  0  0  0  0
   37.1580   20.3129   32.9596 H   0  0  0  0  0  0  0  0  0  0  0  0
   36.4103   22.5996   33.5855 H   0  0  0  0  0  0  0  0  0  0  0  0
   42.0197   20.0491   35.9963 H   0  0  0  0  0  0  0  0  0  0  0  0
   43.8846   25.3419   36.1051 H   0  0  0  0  0  0  0  0  0  0  0  0
   46.2310   23.2730   35.9569 H   0  0  0  0  0  0  0  0  0  0  0  0
   46.7371   24.7534   35.7091 H   0  0  0  0  0  0  0  0  0  0  0  0
   45.7722   23.8157   38.6225 H   0  0  0  0  0  0  0  0  0  0  0  0
   45.7205   27.3037   39.5971 H   0  0  0  0  0  0  0  0  0  0  0  0
  1 18  1  0
  1  2  2  0
  3  2  1  0
  4  3  2  0
  5  4  1  0
  6  5  2  0
  6  1  1  0
  7  8  1  0
  7  5  1  0
  9  8  2  0
 10 11  2  0
 10  9  1  0
 11  7  1  0
 12 17  1  0
 12 11  1  0
 13 12  2  0
 14 15  2  0
 14 13  1  0
 15 16  1  0
 16 17  2  0
 19 23  1  0
 19 18  1  0
 20 19  2  0
 21 20  1  0
 21 22  1  0
 22 23  2  0
 24 22  1  0
 24 26  1  0
 25 24  1  0
 25 26  1  0
 26 27  1  0
 27 29  1  0
 28 27  2  0
  2 30  1  0
  3 31  1  0
  8 32  1  0
  9 33  1  0
 13 34  1  0
 14 35  1  0
 15 36  1  0
 16 37  1  0
 17 38  1  0
 20 39  1  0
 24 40  1  6
 25 41  1  0
 25 42  1  0
 26 43  1  1
 29 44  1  0
M  ISO  8  30  14  31  14  32  14  33  14  34  14  35  14  36  14  37  14
M  ISO  7  38  14  39  14  40  13  41  13  42  13  43  13  44   3
M  END
>  <minimizedAffinity>  (1) 
-6.1047616

>  <minimizedRMSD>  (1) 
0.362053573

$$$$
