
     RDKit          3D

 39 43  0  0  1  0  0  0  0  0999 V2000
   39.5600   22.8910   37.1970 C   0  0  0  0  0  0  0  0  0  0  0  0
   38.9980   23.2310   38.4400 C   0  0  0  0  0  0  0  0  0  0  0  0
   38.0550   24.2470   38.4720 C   0  0  0  0  0  0  0  0  0  0  0  0
   37.7120   24.8680   37.3280 N   0  0  0  0  0  0  0  0  0  0  0  0
   38.2870   24.5050   36.1250 C   0  0  0  0  0  0  0  0  0  0  0  0
   39.1830   23.5440   36.0740 N   0  0  0  0  0  0  0  0  0  0  0  0
   37.8820   25.2090   34.9780 N   0  0  0  0  0  0  0  0  0  0  0  0
   37.4140   26.4630   35.2380 C   0  0  0  0  0  0  0  0  0  0  0  0
   37.0240   27.0350   34.0130 C   0  0  0  0  0  0  0  0  0  0  0  0
   37.2690   26.1180   33.0800 N   0  0  0  0  0  0  0  0  0  0  0  0
   37.7830   25.0190   33.6430 C   0  0  0  0  0  0  0  0  0  0  0  0
   38.2240   23.7400   33.0990 C   0  0  0  0  0  0  0  0  0  0  0  0
   39.3350   23.2560   32.5560 N   0  0  0  0  0  0  0  0  0  0  0  0
   39.1780   22.0030   32.2320 O   0  0  0  0  0  0  0  0  0  0  0  0
   37.9490   21.6270   32.5560 C   0  0  0  0  0  0  0  0  0  0  0  0
   37.3680   22.7030   33.0890 N   0  0  0  0  0  0  0  0  0  0  0  0
   40.4750   21.9040   37.1700 O   0  0  0  0  0  0  0  0  0  0  0  0
   41.7870   22.1750   36.7570 C   0  0  0  0  0  0  0  0  0  0  0  0
   42.4270   21.1370   36.1420 C   0  0  0  0  0  0  0  0  0  0  0  0
   44.0270   21.8650   35.7790 S   0  0  0  0  0  0  0  0  0  0  0  0
   43.5670   23.5390   36.5500 C   0  0  0  0  0  0  0  0  0  0  0  0
   42.5100   23.2520   36.8570 N   0  0  0  0  0  0  0  0  0  0  0  0
   44.5490   24.6820   36.5790 C   0  0  2  0  0  0  0  0  0  0  0  0
   45.9440   24.3910   36.3250 C   0  0  0  0  0  0  0  0  0  0  0  0
   45.6880   24.4450   37.7120 C   0  0  1  0  0  0  0  0  0  0  0  0
   46.1800   25.7620   38.3260 C   0  0  0  0  0  0  0  0  0  0  0  0
   47.2320   26.3860   37.8030 O   0  0  0  0  0  0  0  0  0  0  0  0
   45.5090   26.3080   39.4380 O   0  0  0  0  0  0  0  0  0  0  0  0
   39.2974   22.7068   39.3595 H   0  0  0  0  0  0  0  0  0  0  0  0
   37.5910   24.5431   39.4244 H   0  0  0  0  0  0  0  0  0  0  0  0
   37.3524   26.9411   36.2267 H   0  0  0  0  0  0  0  0  0  0  0  0
   36.6014   28.0386   33.8576 H   0  0  0  0  0  0  0  0  0  0  0  0
   37.5005   20.6326   32.4145 H   0  0  0  0  0  0  0  0  0  0  0  0
   42.0592   20.1230   35.9262 H   0  0  0  0  0  0  0  0  0  0  0  0
   43.8442   25.4507   36.2292 H   0  0  0  0  0  0  0  0  0  0  0  0
   46.2024   23.4194   35.8786 H   0  0  0  0  0  0  0  0  0  0  0  0
   46.6884   24.9176   35.7097 H   0  0  0  0  0  0  0  0  0  0  0  0
   45.8237   23.7874   38.5833 H   0  0  0  0  0  0  0  0  0  0  0  0
   45.8230   27.1577   39.8374 H   0  0  0  0  0  0  0  0  0  0  0  0
  1  2  2  0
  2  3  1  0
  4  3  2  0
  5  4  1  0
  6  5  2  0
  6  1  1  0
  7  8  1  0
  7  5  1  0
  9  8  2  0
 10 11  2  0
 10  9  1  0
 11  7  1  0
 12 11  1  0
 13 12  2  0
 14 15  1  0
 14 13  1  0
 15 16  2  0
 16 12  1  0
 17  1  1  0
 18 22  1  0
 18 17  1  0
 19 18  2  0
 20 19  1  0
 20 21  1  0
 21 23  1  0
 21 22  2  0
 23 25  1  0
 24 23  1  0
 24 25  1  0
 25 26  1  0
 26 28  1  0
 27 26  2  0
  2 29  1  0
  3 30  1  0
  8 31  1  0
  9 32  1  0
 15 33  1  0
 19 34  1  0
 23 35  1  6
 24 36  1  0
 24 37  1  0
 25 38  1  1
 28 39  1  0
M  ISO  8  29  14  30  14  31  14  32  14  33  14  34  14  35  13  36  13
M  ISO  3  37  13  38  13  39   3
M  END
>  <minimizedAffinity>  (1) 
-6.0086956

>  <minimizedRMSD>  (1) 
0.495512068

$$$$
