
     RDKit          3D

 41 45  0  0  1  0  0  0  0  0999 V2000
   39.5350   22.8780   37.2260 C   0  0  0  0  0  0  0  0  0  0  0  0
   38.9820   23.2310   38.4640 C   0  0  0  0  0  0  0  0  0  0  0  0
   38.0540   24.2570   38.4920 C   0  0  0  0  0  0  0  0  0  0  0  0
   37.7170   24.8730   37.3550 N   0  0  0  0  0  0  0  0  0  0  0  0
   38.2820   24.5000   36.1480 C   0  0  0  0  0  0  0  0  0  0  0  0
   39.1700   23.5210   36.1000 N   0  0  0  0  0  0  0  0  0  0  0  0
   37.8770   25.2000   34.9960 N   0  0  0  0  0  0  0  0  0  0  0  0
   37.4200   26.4500   35.2480 C   0  0  0  0  0  0  0  0  0  0  0  0
   37.0450   27.0130   34.0160 C   0  0  0  0  0  0  0  0  0  0  0  0
   37.2910   26.0870   33.0790 N   0  0  0  0  0  0  0  0  0  0  0  0
   37.7930   24.9940   33.6660 C   0  0  0  0  0  0  0  0  0  0  0  0
   38.2360   23.7000   33.1550 C   0  0  0  0  0  0  0  0  0  0  0  0
   37.3770   22.6260   33.0180 C   0  0  0  0  0  0  0  0  0  0  0  0
   38.1470   21.5830   32.5100 C   0  0  0  0  0  0  0  0  0  0  0  0
   39.4400   22.0800   32.3630 C   0  0  0  0  0  0  0  0  0  0  0  0
   39.4490   23.3480   32.7600 O   0  0  0  0  0  0  0  0  0  0  0  0
   40.4370   21.8780   37.2060 O   0  0  0  0  0  0  0  0  0  0  0  0
   41.7510   22.1230   36.7790 C   0  0  0  0  0  0  0  0  0  0  0  0
   42.3820   21.0590   36.1920 C   0  0  0  0  0  0  0  0  0  0  0  0
   43.9840   21.7630   35.8020 S   0  0  0  0  0  0  0  0  0  0  0  0
   43.5410   23.4640   36.5230 C   0  0  0  0  0  0  0  0  0  0  0  0
   42.4780   23.2080   36.8490 N   0  0  0  0  0  0  0  0  0  0  0  0
   44.5290   24.6030   36.5160 C   0  0  2  0  0  0  0  0  0  0  0  0
   45.9300   24.2920   36.3170 C   0  0  0  0  0  0  0  0  0  0  0  0
   45.6360   24.4250   37.6880 C   0  0  1  0  0  0  0  0  0  0  0  0
   46.1150   25.7730   38.2430 C   0  0  0  0  0  0  0  0  0  0  0  0
   47.2350   26.3200   37.7810 O   0  0  0  0  0  0  0  0  0  0  0  0
   45.3630   26.4310   39.2370 O   0  0  0  0  0  0  0  0  0  0  0  0
   39.2767   22.7083   39.3859 H   0  0  0  0  0  0  0  0  0  0  0  0
   37.5965   24.5637   39.4442 H   0  0  0  0  0  0  0  0  0  0  0  0
   37.3546   26.9343   36.2335 H   0  0  0  0  0  0  0  0  0  0  0  0
   36.6301   28.0186   33.8526 H   0  0  0  0  0  0  0  0  0  0  0  0
   36.3044   22.6004   33.2606 H   0  0  0  0  0  0  0  0  0  0  0  0
   37.8020   20.5661   32.2715 H   0  0  0  0  0  0  0  0  0  0  0  0
   40.3061   21.5184   31.9830 H   0  0  0  0  0  0  0  0  0  0  0  0
   42.0057   20.0418   36.0084 H   0  0  0  0  0  0  0  0  0  0  0  0
   43.8376   25.3538   36.1058 H   0  0  0  0  0  0  0  0  0  0  0  0
   46.1951   23.2958   35.9333 H   0  0  0  0  0  0  0  0  0  0  0  0
   46.6942   24.7798   35.6940 H   0  0  0  0  0  0  0  0  0  0  0  0
   45.7461   23.8159   38.5973 H   0  0  0  0  0  0  0  0  0  0  0  0
   45.6708   27.3007   39.5960 H   0  0  0  0  0  0  0  0  0  0  0  0
  1  2  2  0
  2  3  1  0
  4  3  2  0
  5  4  1  0
  6  5  2  0
  6  1  1  0
  7  8  1  0
  7  5  1  0
  9  8  2  0
 10 11  2  0
 10  9  1  0
 11  7  1  0
 12 11  1  0
 13 12  2  0
 14 13  1  0
 15 14  2  0
 15 16  1  0
 16 12  1  0
 17  1  1  0
 18 22  1  0
 18 17  1  0
 19 18  2  0
 20 19  1  0
 20 21  1  0
 21 22  2  0
 23 21  1  0
 23 25  1  0
 24 23  1  0
 24 25  1  0
 25 26  1  0
 26 28  1  0
 27 26  2  0
  2 29  1  0
  3 30  1  0
  8 31  1  0
  9 32  1  0
 13 33  1  0
 14 34  1  0
 15 35  1  0
 19 36  1  0
 23 37  1  6
 24 38  1  0
 24 39  1  0
 25 40  1  1
 28 41  1  0
M  ISO  8  29  14  30  14  31  14  32  14  33  14  34  14  35  14  36  14
M  ISO  5  37  13  38  13  39  13  40  13  41   3
M  END
>  <minimizedAffinity>  (1) 
-5.96855164

>  <minimizedRMSD>  (1) 
0.501097322

$$$$
