
     RDKit          3D

 41 45  0  0  1  0  0  0  0  0999 V2000
   39.6130   22.8540   37.2620 C   0  0  0  0  0  0  0  0  0  0  0  0
   39.0490   23.2290   38.4860 C   0  0  0  0  0  0  0  0  0  0  0  0
   38.0920   24.2350   38.4830 C   0  0  0  0  0  0  0  0  0  0  0  0
   37.7370   24.8140   37.3290 N   0  0  0  0  0  0  0  0  0  0  0  0
   38.3230   24.4130   36.1310 C   0  0  0  0  0  0  0  0  0  0  0  0
   39.2390   23.4530   36.1100 N   0  0  0  0  0  0  0  0  0  0  0  0
   37.9100   25.0660   34.9530 N   0  0  0  0  0  0  0  0  0  0  0  0
   37.4080   26.3070   35.1740 C   0  0  0  0  0  0  0  0  0  0  0  0
   37.0240   26.8340   33.9270 C   0  0  0  0  0  0  0  0  0  0  0  0
   37.3080   25.8950   33.0150 N   0  0  0  0  0  0  0  0  0  0  0  0
   37.8450   24.8240   33.6350 C   0  0  0  0  0  0  0  0  0  0  0  0
   38.3380   23.5300   33.1610 C   0  0  0  0  0  0  0  0  0  0  0  0
   39.5720   23.2600   32.6110 C   0  0  0  0  0  0  0  0  0  0  0  0
   39.8410   21.9730   32.2270 C   0  0  0  0  0  0  0  0  0  0  0  0
   38.8280   21.0210   32.4280 C   0  0  0  0  0  0  0  0  0  0  0  0
   37.4420   22.0620   33.2060 S   0  0  0  0  0  0  0  0  0  0  0  0
   40.5400   21.8760   37.2750 O   0  0  0  0  0  0  0  0  0  0  0  0
   41.8450   22.1380   36.8270 C   0  0  0  0  0  0  0  0  0  0  0  0
   42.4600   21.0930   36.1880 C   0  0  0  0  0  0  0  0  0  0  0  0
   44.0550   21.8150   35.7880 S   0  0  0  0  0  0  0  0  0  0  0  0
   43.6270   23.4870   36.5780 C   0  0  0  0  0  0  0  0  0  0  0  0
   42.5740   23.2210   36.9200 N   0  0  0  0  0  0  0  0  0  0  0  0
   44.6170   24.6230   36.5850 C   0  0  2  0  0  0  0  0  0  0  0  0
   46.0150   24.3190   36.3770 C   0  0  0  0  0  0  0  0  0  0  0  0
   45.7240   24.4330   37.7560 C   0  0  1  0  0  0  0  0  0  0  0  0
   46.2070   25.7770   38.3200 C   0  0  0  0  0  0  0  0  0  0  0  0
   47.2490   26.3940   37.7730 O   0  0  0  0  0  0  0  0  0  0  0  0
   45.5330   26.3530   39.4170 O   0  0  0  0  0  0  0  0  0  0  0  0
   39.3547   22.7412   39.4233 H   0  0  0  0  0  0  0  0  0  0  0  0
   37.6265   24.5557   39.4266 H   0  0  0  0  0  0  0  0  0  0  0  0
   37.3178   26.8089   36.1487 H   0  0  0  0  0  0  0  0  0  0  0  0
   36.5786   27.8219   33.7384 H   0  0  0  0  0  0  0  0  0  0  0  0
   40.3205   24.0560   32.4838 H   0  0  0  0  0  0  0  0  0  0  0  0
   40.8079   21.6971   31.7808 H   0  0  0  0  0  0  0  0  0  0  0  0
   38.8353   19.9461   32.1944 H   0  0  0  0  0  0  0  0  0  0  0  0
   42.0789   20.0830   35.9768 H   0  0  0  0  0  0  0  0  0  0  0  0
   43.9242   25.3779   36.1848 H   0  0  0  0  0  0  0  0  0  0  0  0
   46.2813   23.3288   35.9788 H   0  0  0  0  0  0  0  0  0  0  0  0
   46.7758   24.8171   35.7581 H   0  0  0  0  0  0  0  0  0  0  0  0
   45.8339   23.8140   38.6587 H   0  0  0  0  0  0  0  0  0  0  0  0
   45.8384   27.2193   39.7863 H   0  0  0  0  0  0  0  0  0  0  0  0
  1 17  1  0
  1  2  2  0
  3  2  1  0
  4  3  2  0
  5  4  1  0
  6  5  2  0
  6  1  1  0
  7  8  1  0
  7  5  1  0
  9  8  2  0
 10 11  2  0
 10  9  1  0
 11  7  1  0
 12 16  1  0
 12 11  1  0
 13 12  2  0
 14 15  2  0
 14 13  1  0
 15 16  1  0
 18 22  1  0
 18 17  1  0
 19 18  2  0
 20 19  1  0
 20 21  1  0
 21 23  1  0
 21 22  2  0
 23 25  1  0
 24 23  1  0
 24 25  1  0
 25 26  1  0
 26 28  1  0
 27 26  2  0
  2 29  1  0
  3 30  1  0
  8 31  1  0
  9 32  1  0
 13 33  1  0
 14 34  1  0
 15 35  1  0
 19 36  1  0
 23 37  1  6
 24 38  1  0
 24 39  1  0
 25 40  1  1
 28 41  1  0
M  ISO  8  29  14  30  14  31  14  32  14  33  14  34  14  35  14  36  14
M  ISO  5  37  13  38  13  39  13  40  13  41   3
M  END
>  <minimizedAffinity>  (1) 
-5.95542002

>  <minimizedRMSD>  (1) 
0.114803426

$$$$
