
     RDKit          3D

 37 40  0  0  1  0  0  0  0  0999 V2000
   39.5660   22.8950   37.2220 C   0  0  0  0  0  0  0  0  0  0  0  0
   38.9900   23.2290   38.4560 C   0  0  0  0  0  0  0  0  0  0  0  0
   38.0420   24.2370   38.4780 C   0  0  0  0  0  0  0  0  0  0  0  0
   37.7040   24.8580   37.3400 N   0  0  0  0  0  0  0  0  0  0  0  0
   38.2930   24.5010   36.1410 C   0  0  0  0  0  0  0  0  0  0  0  0
   39.2050   23.5400   36.0890 N   0  0  0  0  0  0  0  0  0  0  0  0
   37.8930   25.2000   34.9870 N   0  0  0  0  0  0  0  0  0  0  0  0
   37.4090   26.4420   35.2440 C   0  0  0  0  0  0  0  0  0  0  0  0
   37.0300   27.0160   34.0150 C   0  0  0  0  0  0  0  0  0  0  0  0
   37.2990   26.0980   33.0740 N   0  0  0  0  0  0  0  0  0  0  0  0
   37.8170   25.0080   33.6550 C   0  0  0  0  0  0  0  0  0  0  0  0
   38.2870   23.7220   33.1240 C   0  0  0  0  0  0  0  0  0  0  0  0
   38.0090   23.5920   31.7760 F   0  0  0  0  0  0  0  0  0  0  0  0
   37.5600   22.7150   33.7600 F   0  0  0  0  0  0  0  0  0  0  0  0
   39.6120   23.4740   33.4070 F   0  0  0  0  0  0  0  0  0  0  0  0
   40.4870   21.9130   37.2060 O   0  0  0  0  0  0  0  0  0  0  0  0
   41.7940   22.1800   36.7720 C   0  0  0  0  0  0  0  0  0  0  0  0
   42.4170   21.1450   36.1300 C   0  0  0  0  0  0  0  0  0  0  0  0
   44.0160   21.8730   35.7510 S   0  0  0  0  0  0  0  0  0  0  0  0
   43.5750   23.5380   36.5520 C   0  0  0  0  0  0  0  0  0  0  0  0
   42.5220   23.2630   36.8800 N   0  0  0  0  0  0  0  0  0  0  0  0
   44.5610   24.6770   36.5810 C   0  0  2  0  0  0  0  0  0  0  0  0
   45.9560   24.3880   36.3260 C   0  0  0  0  0  0  0  0  0  0  0  0
   45.6990   24.4460   37.7130 C   0  0  1  0  0  0  0  0  0  0  0  0
   46.1900   25.7660   38.3220 C   0  0  0  0  0  0  0  0  0  0  0  0
   47.2430   26.3870   37.8000 O   0  0  0  0  0  0  0  0  0  0  0  0
   45.5180   26.3160   39.4330 O   0  0  0  0  0  0  0  0  0  0  0  0
   39.2827   22.7059   39.3783 H   0  0  0  0  0  0  0  0  0  0  0  0
   37.5675   24.5274   39.4269 H   0  0  0  0  0  0  0  0  0  0  0  0
   37.3275   26.9149   36.2338 H   0  0  0  0  0  0  0  0  0  0  0  0
   36.5998   28.0161   33.8580 H   0  0  0  0  0  0  0  0  0  0  0  0
   42.0399   20.1363   35.9056 H   0  0  0  0  0  0  0  0  0  0  0  0
   43.8548   25.4438   36.2300 H   0  0  0  0  0  0  0  0  0  0  0  0
   46.2161   23.4156   35.8824 H   0  0  0  0  0  0  0  0  0  0  0  0
   46.6993   24.9137   35.7086 H   0  0  0  0  0  0  0  0  0  0  0  0
   45.8349   23.7915   38.5866 H   0  0  0  0  0  0  0  0  0  0  0  0
   45.8312   27.1675   39.8292 H   0  0  0  0  0  0  0  0  0  0  0  0
  1  2  2  0
  2  3  1  0
  4  3  2  0
  5  4  1  0
  6  5  2  0
  6  1  1  0
  7  8  1  0
  7  5  1  0
  9  8  2  0
 10 11  2  0
 10  9  1  0
 11  7  1  0
 12 15  1  0
 12 11  1  0
 12 14  1  0
 13 12  1  0
 16  1  1  0
 17 21  1  0
 17 16  1  0
 18 17  2  0
 19 18  1  0
 19 20  1  0
 20 22  1  0
 20 21  2  0
 22 24  1  0
 23 22  1  0
 23 24  1  0
 24 25  1  0
 25 27  1  0
 26 25  2  0
  2 28  1  0
  3 29  1  0
  8 30  1  0
  9 31  1  0
 18 32  1  0
 22 33  1  6
 23 34  1  0
 23 35  1  0
 24 36  1  1
 27 37  1  0
M  ISO  8  28  14  29  14  30  14  31  14  32  14  33  13  34  13  35  13
M  ISO  2  36  13  37   3
M  END
>  <minimizedAffinity>  (1) 
-5.88808346

>  <minimizedRMSD>  (1) 
0.164564654

$$$$
