
     RDKit          3D

 37 40  0  0  0  0  0  0  0  0999 V2000
   43.8550   23.3710   35.6700 S   0  0  0  0  0  0  0  0  0  0  0  0
   44.8290   24.3030   36.8430 C   0  0  0  0  0  0  0  0  0  0  0  0
   44.1470   25.1550   37.7170 C   0  0  0  0  0  0  0  0  0  0  0  0
   45.5420   25.8870   38.7200 S   0  0  0  0  0  0  0  0  0  0  0  0
   46.7970   24.8740   37.7380 C   0  0  0  0  0  0  0  0  0  0  0  0
   46.1030   24.3430   37.0510 N   0  0  0  0  0  0  0  0  0  0  0  0
   48.2350   24.8540   37.8990 N   0  0  0  0  0  0  0  0  0  0  0  0
   48.6950   23.8510   38.6780 C   0  0  0  0  0  0  0  0  0  0  0  0
   50.0700   23.9770   38.7250 C   0  0  0  0  0  0  0  0  0  0  0  0
   50.3760   25.0640   37.9620 N   0  0  0  0  0  0  0  0  0  0  0  0
   49.2570   25.5980   37.4590 C   0  0  0  0  0  0  0  0  0  0  0  0
   49.0210   26.7350   36.6040 C   0  0  0  0  0  0  0  0  0  0  0  0
   48.7290   26.5610   35.3930 O   0  0  0  0  0  0  0  0  0  0  0  0
   49.1310   27.9870   37.1760 O   0  0  0  0  0  0  0  0  0  0  0  0
   40.4690   22.5300   37.6320 C   0  0  0  0  0  0  0  0  0  0  0  0
   39.4980   23.2720   36.9140 C   0  0  0  0  0  0  0  0  0  0  0  0
   39.9280   24.0130   35.8360 C   0  0  0  0  0  0  0  0  0  0  0  0
   41.2640   23.9940   35.5220 N   0  0  0  0  0  0  0  0  0  0  0  0
   42.1600   23.2720   36.2340 C   0  0  0  0  0  0  0  0  0  0  0  0
   41.7450   22.5520   37.2780 N   0  0  0  0  0  0  0  0  0  0  0  0
   39.0620   24.7980   34.9470 C   0  0  0  0  0  0  0  0  0  0  0  0
   38.4340   24.2630   33.8360 C   0  0  0  0  0  0  0  0  0  0  0  0
   37.6850   25.2050   33.1760 C   0  0  0  0  0  0  0  0  0  0  0  0
   37.8840   26.3330   33.9350 C   0  0  0  0  0  0  0  0  0  0  0  0
   38.6610   26.0160   34.8960 O   0  0  0  0  0  0  0  0  0  0  0  0
   38.0600   23.2800   37.2830 C   0  0  0  0  0  0  0  0  0  0  0  0
   37.9810   22.7690   38.5980 F   0  0  0  0  0  0  0  0  0  0  0  0
   37.2840   22.5380   36.4890 F   0  0  0  0  0  0  0  0  0  0  0  0
   37.6160   24.6040   37.4620 F   0  0  0  0  0  0  0  0  0  0  0  0
   43.0663   25.3453   37.7941 H   0  0  0  0  0  0  0  0  0  0  0  0
   48.0903   23.0809   39.1793 H   0  0  0  0  0  0  0  0  0  0  0  0
   50.7751   23.3308   39.2683 H   0  0  0  0  0  0  0  0  0  0  0  0
   48.9777   28.7969   36.6277 H   0  0  0  0  0  0  0  0  0  0  0  0
   40.1578   21.9262   38.4972 H   0  0  0  0  0  0  0  0  0  0  0  0
   38.5239   23.2130   33.5209 H   0  0  0  0  0  0  0  0  0  0  0  0
   37.0773   25.0865   32.2668 H   0  0  0  0  0  0  0  0  0  0  0  0
   37.4524   27.3274   33.7482 H   0  0  0  0  0  0  0  0  0  0  0  0
  1 19  1  0
  1  2  1  0
  2  6  1  0
  2  3  2  0
  3  4  1  0
  5  7  1  0
  5  4  1  0
  6  5  2  0
  7  8  1  0
  8  9  2  0
 10  9  1  0
 11  7  1  0
 11 10  2  0
 12 14  1  0
 12 11  1  0
 13 12  2  0
 16 26  1  0
 16 15  2  0
 17 16  1  0
 18 17  2  0
 18 19  1  0
 19 20  2  0
 20 15  1  0
 21 17  1  0
 22 21  2  0
 23 22  1  0
 23 24  2  0
 24 25  1  0
 25 21  1  0
 26 29  1  0
 26 27  1  0
 28 26  1  0
  3 30  1  0
  8 31  1  0
  9 32  1  0
 14 33  1  0
 15 34  1  0
 22 35  1  0
 23 36  1  0
 24 37  1  0
M  ISO  8  30  14  31  14  32  14  33   3  34  14  35  14  36  14  37  14
M  END
>  <minimizedAffinity>  (1) 
-5.578722

>  <minimizedRMSD>  (1) 
4.29904842

$$$$
