
     RDKit          3D

 37 40  0  0  1  0  0  0  0  0999 V2000
   39.5290   22.8810   37.2170 C   0  0  0  0  0  0  0  0  0  0  0  0
   38.9850   23.2260   38.4600 C   0  0  0  0  0  0  0  0  0  0  0  0
   38.0640   24.2540   38.5030 C   0  0  0  0  0  0  0  0  0  0  0  0
   37.7200   24.8880   37.3740 N   0  0  0  0  0  0  0  0  0  0  0  0
   38.2810   24.5220   36.1520 C   0  0  0  0  0  0  0  0  0  0  0  0
   39.1550   23.5450   36.1080 N   0  0  0  0  0  0  0  0  0  0  0  0
   37.8750   25.2410   35.0200 N   0  0  0  0  0  0  0  0  0  0  0  0
   37.4230   26.4960   35.2910 C   0  0  0  0  0  0  0  0  0  0  0  0
   37.0380   27.0800   34.0800 C   0  0  0  0  0  0  0  0  0  0  0  0
   37.2690   26.1600   33.1150 N   0  0  0  0  0  0  0  0  0  0  0  0
   37.7700   25.0690   33.7000 C   0  0  0  0  0  0  0  0  0  0  0  0
   38.1640   23.8410   33.0810 C   0  0  0  0  0  0  0  0  0  0  0  0
   39.2560   23.5500   32.5390 O   0  0  0  0  0  0  0  0  0  0  0  0
   37.2920   22.7880   33.0320 O   0  0  0  0  0  0  0  0  0  0  0  0
   40.4250   21.8790   37.1750 O   0  0  0  0  0  0  0  0  0  0  0  0
   41.7430   22.1260   36.7600 C   0  0  0  0  0  0  0  0  0  0  0  0
   42.3800   21.0610   36.1810 C   0  0  0  0  0  0  0  0  0  0  0  0
   43.9870   21.7690   35.8060 S   0  0  0  0  0  0  0  0  0  0  0  0
   43.5320   23.4700   36.5210 C   0  0  0  0  0  0  0  0  0  0  0  0
   42.4720   23.2060   36.8340 N   0  0  0  0  0  0  0  0  0  0  0  0
   44.5220   24.6030   36.5210 C   0  0  2  0  0  0  0  0  0  0  0  0
   45.9210   24.3020   36.3250 C   0  0  0  0  0  0  0  0  0  0  0  0
   45.6220   24.4300   37.6980 C   0  0  1  0  0  0  0  0  0  0  0  0
   46.1000   25.7810   38.2520 C   0  0  0  0  0  0  0  0  0  0  0  0
   47.2240   26.3230   37.7950 O   0  0  0  0  0  0  0  0  0  0  0  0
   45.3420   26.4410   39.2380 O   0  0  0  0  0  0  0  0  0  0  0  0
   39.2825   22.6938   39.3756 H   0  0  0  0  0  0  0  0  0  0  0  0
   37.6140   24.5515   39.4616 H   0  0  0  0  0  0  0  0  0  0  0  0
   37.3701   26.9663   36.2840 H   0  0  0  0  0  0  0  0  0  0  0  0
   36.6273   28.0907   33.9393 H   0  0  0  0  0  0  0  0  0  0  0  0
   37.5654   21.9385   32.6035 H   0  0  0  0  0  0  0  0  0  0  0  0
   42.0067   20.0431   35.9952 H   0  0  0  0  0  0  0  0  0  0  0  0
   43.8293   25.3508   36.1075 H   0  0  0  0  0  0  0  0  0  0  0  0
   46.1931   23.3084   35.9394 H   0  0  0  0  0  0  0  0  0  0  0  0
   46.6838   24.7959   35.7051 H   0  0  0  0  0  0  0  0  0  0  0  0
   45.7280   23.8214   38.6081 H   0  0  0  0  0  0  0  0  0  0  0  0
   45.6475   27.3116   39.5969 H   0  0  0  0  0  0  0  0  0  0  0  0
  1  2  2  0
  2  3  1  0
  4  3  2  0
  5  4  1  0
  6  5  2  0
  6  1  1  0
  7  8  1  0
  7  5  1  0
  9  8  2  0
 10 11  2  0
 10  9  1  0
 11  7  1  0
 12 11  1  0
 13 12  2  0
 14 12  1  0
 15  1  1  0
 16 20  1  0
 16 15  1  0
 17 16  2  0
 18 17  1  0
 18 19  1  0
 19 21  1  0
 19 20  2  0
 21 23  1  0
 22 21  1  0
 22 23  1  0
 23 24  1  0
 24 26  1  0
 25 24  2  0
  2 27  1  0
  3 28  1  0
  8 29  1  0
  9 30  1  0
 14 31  1  0
 17 32  1  0
 21 33  1  6
 22 34  1  0
 22 35  1  0
 23 36  1  1
 26 37  1  0
M  ISO  8  27  14  28  14  29  14  30  14  31   3  32  14  33  13  34  13
M  ISO  3  35  13  36  13  37   3
M  END
>  <minimizedAffinity>  (1) 
-5.78070545

>  <minimizedRMSD>  (1) 
0.323405385

$$$$
