
     RDKit          3D

 35 38  0  0  1  0  0  0  0  0999 V2000
   40.5410   21.8910   37.2440 O   0  0  0  0  0  0  0  0  0  0  0  0
   39.6030   22.8620   37.2360 C   0  0  0  0  0  0  0  0  0  0  0  0
   39.0120   23.2060   38.4560 C   0  0  0  0  0  0  0  0  0  0  0  0
   38.0460   24.2040   38.4510 C   0  0  0  0  0  0  0  0  0  0  0  0
   37.7120   24.8040   37.2880 N   0  0  0  0  0  0  0  0  0  0  0  0
   38.3200   24.4340   36.1130 C   0  0  0  0  0  0  0  0  0  0  0  0
   39.2460   23.4830   36.0770 N   0  0  0  0  0  0  0  0  0  0  0  0
   37.9310   25.1050   34.9420 N   0  0  0  0  0  0  0  0  0  0  0  0
   37.4280   26.3520   35.1630 C   0  0  0  0  0  0  0  0  0  0  0  0
   37.0520   26.8910   33.9200 C   0  0  0  0  0  0  0  0  0  0  0  0
   37.3380   25.9610   32.9940 N   0  0  0  0  0  0  0  0  0  0  0  0
   37.8650   24.8910   33.6060 C   0  0  0  0  0  0  0  0  0  0  0  0
   38.4690   23.3130   33.0300 S   0  0  0  0  0  0  0  0  0  0  0  0
   41.8390   22.1650   36.7930 C   0  0  0  0  0  0  0  0  0  0  0  0
   42.4530   21.1320   36.1340 C   0  0  0  0  0  0  0  0  0  0  0  0
   44.0450   21.8620   35.7340 S   0  0  0  0  0  0  0  0  0  0  0  0
   43.6140   23.5270   36.5560 C   0  0  0  0  0  0  0  0  0  0  0  0
   42.5660   23.2480   36.8980 N   0  0  0  0  0  0  0  0  0  0  0  0
   44.6040   24.6570   36.5770 C   0  0  2  0  0  0  0  0  0  0  0  0
   46.0000   24.3710   36.3430 C   0  0  0  0  0  0  0  0  0  0  0  0
   45.7240   24.4470   37.7250 C   0  0  1  0  0  0  0  0  0  0  0  0
   46.2090   25.7770   38.3230 C   0  0  0  0  0  0  0  0  0  0  0  0
   47.2590   26.3980   37.7950 O   0  0  0  0  0  0  0  0  0  0  0  0
   45.5340   26.3370   39.4240 O   0  0  0  0  0  0  0  0  0  0  0  0
   39.3029   22.7023   39.3896 H   0  0  0  0  0  0  0  0  0  0  0  0
   37.5558   24.5040   39.3889 H   0  0  0  0  0  0  0  0  0  0  0  0
   37.3330   26.8486   36.1399 H   0  0  0  0  0  0  0  0  0  0  0  0
   36.6095   27.8820   33.7407 H   0  0  0  0  0  0  0  0  0  0  0  0
   38.7725   22.5201   34.1052 H   0  0  0  0  0  0  0  0  0  0  0  0
   42.0725   20.1246   35.9098 H   0  0  0  0  0  0  0  0  0  0  0  0
   43.9013   25.4157   36.2021 H   0  0  0  0  0  0  0  0  0  0  0  0
   46.2696   23.3937   35.9161 H   0  0  0  0  0  0  0  0  0  0  0  0
   46.7491   24.8909   35.7278 H   0  0  0  0  0  0  0  0  0  0  0  0
   45.8475   23.8058   38.6103 H   0  0  0  0  0  0  0  0  0  0  0  0
   45.8442   27.1937   39.8113 H   0  0  0  0  0  0  0  0  0  0  0  0
  2  1  1  0
  2  3  2  0
  4  3  1  0
  5  4  2  0
  6  5  1  0
  7  6  2  0
  7  2  1  0
  8  9  1  0
  8  6  1  0
 10  9  2  0
 11 12  2  0
 11 10  1  0
 12  8  1  0
 13 12  1  0
 14 18  1  0
 14  1  1  0
 15 14  2  0
 16 15  1  0
 16 17  1  0
 17 19  1  0
 17 18  2  0
 19 21  1  0
 20 19  1  0
 20 21  1  0
 21 22  1  0
 22 24  1  0
 23 22  2  0
  3 25  1  0
  4 26  1  0
  9 27  1  0
 10 28  1  0
 13 29  1  0
 15 30  1  0
 19 31  1  6
 20 32  1  0
 20 33  1  0
 21 34  1  1
 24 35  1  0
M  ISO  8  25  14  26  14  27  14  28  14  29  11  30  14  31  13  32  13
M  ISO  3  33  13  34  13  35   3
M  END
>  <minimizedAffinity>  (1) 
-5.76433659

>  <minimizedRMSD>  (1) 
0.0346229151

$$$$
