
     RDKit          3D

 36 39  0  0  1  0  0  0  0  0999 V2000
   40.4810   21.9120   37.1920 O   0  0  0  0  0  0  0  0  0  0  0  0
   39.5640   22.8950   37.2090 C   0  0  0  0  0  0  0  0  0  0  0  0
   38.9930   23.2300   38.4490 C   0  0  0  0  0  0  0  0  0  0  0  0
   38.0480   24.2380   38.4760 C   0  0  0  0  0  0  0  0  0  0  0  0
   37.7070   24.8580   37.3360 N   0  0  0  0  0  0  0  0  0  0  0  0
   38.2960   24.4970   36.1270 C   0  0  0  0  0  0  0  0  0  0  0  0
   39.2020   23.5390   36.0680 N   0  0  0  0  0  0  0  0  0  0  0  0
   37.8850   25.2110   34.9870 N   0  0  0  0  0  0  0  0  0  0  0  0
   37.4120   26.4530   35.2470 C   0  0  0  0  0  0  0  0  0  0  0  0
   37.0350   27.0310   34.0180 C   0  0  0  0  0  0  0  0  0  0  0  0
   37.3010   26.1030   33.0720 N   0  0  0  0  0  0  0  0  0  0  0  0
   37.8080   25.0220   33.6670 C   0  0  0  0  0  0  0  0  0  0  0  0
   38.2500   23.7660   33.0820 C   0  0  0  0  0  0  0  0  0  0  0  0
   37.5560   22.7490   32.9480 O   0  0  0  0  0  0  0  0  0  0  0  0
   41.7930   22.1790   36.7640 C   0  0  0  0  0  0  0  0  0  0  0  0
   42.4220   21.1410   36.1310 C   0  0  0  0  0  0  0  0  0  0  0  0
   44.0200   21.8700   35.7600 S   0  0  0  0  0  0  0  0  0  0  0  0
   43.5730   23.5380   36.5520 C   0  0  0  0  0  0  0  0  0  0  0  0
   42.5190   23.2580   36.8710 N   0  0  0  0  0  0  0  0  0  0  0  0
   44.5600   24.6760   36.5810 C   0  0  2  0  0  0  0  0  0  0  0  0
   45.9550   24.3850   36.3300 C   0  0  0  0  0  0  0  0  0  0  0  0
   45.6960   24.4450   37.7150 C   0  0  1  0  0  0  0  0  0  0  0  0
   46.1850   25.7650   38.3260 C   0  0  0  0  0  0  0  0  0  0  0  0
   47.2380   26.3870   37.8010 O   0  0  0  0  0  0  0  0  0  0  0  0
   45.5140   26.3160   39.4350 O   0  0  0  0  0  0  0  0  0  0  0  0
   39.2893   22.7059   39.3696 H   0  0  0  0  0  0  0  0  0  0  0  0
   37.5781   24.5304   39.4266 H   0  0  0  0  0  0  0  0  0  0  0  0
   37.3358   26.9251   36.2376 H   0  0  0  0  0  0  0  0  0  0  0  0
   36.6106   28.0336   33.8607 H   0  0  0  0  0  0  0  0  0  0  0  0
   39.2903   23.7149   32.7281 H   0  0  0  0  0  0  0  0  0  0  0  0
   42.0483   20.1305   35.9090 H   0  0  0  0  0  0  0  0  0  0  0  0
   43.8553   25.4431   36.2274 H   0  0  0  0  0  0  0  0  0  0  0  0
   46.2149   23.4117   35.8883 H   0  0  0  0  0  0  0  0  0  0  0  0
   46.7002   24.9092   35.7136 H   0  0  0  0  0  0  0  0  0  0  0  0
   45.8310   23.7910   38.5891 H   0  0  0  0  0  0  0  0  0  0  0  0
   45.8280   27.1675   39.8306 H   0  0  0  0  0  0  0  0  0  0  0  0
  1  2  1  0
  2  3  2  0
  3  4  1  0
  5  4  2  0
  6  5  1  0
  7  6  2  0
  7  2  1  0
  8  9  1  0
  8  6  1  0
 10  9  2  0
 11 12  2  0
 11 10  1  0
 12  8  1  0
 13 12  1  0
 14 13  2  0
 15 19  1  0
 15  1  1  0
 16 15  2  0
 17 16  1  0
 17 18  1  0
 18 20  1  0
 18 19  2  0
 20 22  1  0
 21 20  1  0
 21 22  1  0
 22 23  1  0
 23 25  1  0
 24 23  2  0
  3 26  1  0
  4 27  1  0
  9 28  1  0
 10 29  1  0
 13 30  1  0
 16 31  1  0
 20 32  1  6
 21 33  1  0
 21 34  1  0
 22 35  1  1
 25 36  1  0
M  ISO  8  26  14  27  14  28  14  29  14  30   6  31  14  32  13  33  13
M  ISO  3  34  13  35  13  36   3
M  END
>  <minimizedAffinity>  (1) 
-5.68171549

>  <minimizedRMSD>  (1) 
0.132324904

$$$$
