
     RDKit          3D

 23 24  0  0  0  0  0  0  0  0999 V2000
   38.4930   24.4910   36.1180 C   0  0  0  0  0  0  0  0  0  0  0  0
   39.6940   23.7340   36.0400 C   0  0  0  0  0  0  0  0  0  0  0  0
   40.0090   22.9590   37.1600 C   0  0  0  0  0  0  0  0  0  0  0  0
   39.1810   22.9610   38.2380 N   0  0  0  0  0  0  0  0  0  0  0  0
   38.0460   23.7100   38.2440 C   0  0  0  0  0  0  0  0  0  0  0  0
   37.7090   24.4640   37.1970 N   0  0  0  0  0  0  0  0  0  0  0  0
   38.1040   25.3060   35.0170 N   0  0  0  0  0  0  0  0  0  0  0  0
   37.6510   24.8300   33.8460 C   0  0  0  0  0  0  0  0  0  0  0  0
   37.2960   25.6960   32.8320 C   0  0  0  0  0  0  0  0  0  0  0  0
   37.3780   27.0670   32.9500 C   0  0  0  0  0  0  0  0  0  0  0  0
   37.0690   27.8830   32.0610 O   0  0  0  0  0  0  0  0  0  0  0  0
   37.8370   27.5130   34.1410 N   0  0  0  0  0  0  0  0  0  0  0  0
   38.1840   26.6460   35.1310 C   0  0  0  0  0  0  0  0  0  0  0  0
   38.6100   27.1170   36.2320 O   0  0  0  0  0  0  0  0  0  0  0  0
   41.2600   22.1950   37.0300 C   0  0  0  0  0  0  0  0  0  0  0  0
   42.3270   23.0770   37.0520 F   0  0  0  0  0  0  0  0  0  0  0  0
   41.2630   21.6270   35.7760 F   0  0  0  0  0  0  0  0  0  0  0  0
   41.4420   21.2840   38.0280 F   0  0  0  0  0  0  0  0  0  0  0  0
   40.3387   23.7569   35.1490 H   0  0  0  0  0  0  0  0  0  0  0  0
   37.3934   23.6936   39.1294 H   0  0  0  0  0  0  0  0  0  0  0  0
   37.5624   23.7441   33.6942 H   0  0  0  0  0  0  0  0  0  0  0  0
   36.9304   25.2724   31.8850 H   0  0  0  0  0  0  0  0  0  0  0  0
   37.9256   28.5265   34.3018 H   0  0  0  0  0  0  0  0  0  0  0  0
  1  6  1  0
  2  1  2  0
  2  3  1  0
  3  4  2  0
  4  5  1  0
  6  5  2  0
  7 13  1  0
  7  1  1  0
  8  7  1  0
  9 10  1  0
  9  8  2  0
 10 12  1  0
 11 10  2  0
 12 13  1  0
 13 14  2  0
 15 16  1  0
 15  3  1  0
 15 18  1  0
 17 15  1  0
  2 19  1  0
  5 20  1  0
  8 21  1  0
  9 22  1  0
 12 23  1  0
M  ISO  5  19  14  20  14  21  14  22  14  23   9
M  END
>  <minimizedAffinity>  (1) 
-4.88923216

>  <minimizedRMSD>  (1) 
6.67290926

$$$$
