
     RDKit          3D

 43 46  0  0  0  0  0  0  0  0999 V2000
   44.4560   24.0830   36.2370 C   0  0  0  0  0  0  0  0  0  0  0  0
   44.0420   24.9160   37.2900 C   0  0  0  0  0  0  0  0  0  0  0  0
   45.6550   25.3930   38.0880 S   0  0  0  0  0  0  0  0  0  0  0  0
   46.6040   24.3540   36.8160 C   0  0  0  0  0  0  0  0  0  0  0  0
   45.7480   23.9710   36.2230 N   0  0  0  0  0  0  0  0  0  0  0  0
   48.0370   24.1700   36.7210 N   0  0  0  0  0  0  0  0  0  0  0  0
   48.4920   23.0610   37.3260 C   0  0  0  0  0  0  0  0  0  0  0  0
   49.8620   23.0430   37.1400 C   0  0  0  0  0  0  0  0  0  0  0  0
   50.1640   24.1460   36.4310 N   0  0  0  0  0  0  0  0  0  0  0  0
   49.0510   24.8380   36.1720 C   0  0  0  0  0  0  0  0  0  0  0  0
   48.8180   26.0700   35.4620 C   0  0  0  0  0  0  0  0  0  0  0  0
   48.8180   26.1130   34.2150 O   0  0  0  0  0  0  0  0  0  0  0  0
   48.5920   27.2040   36.2290 O   0  0  0  0  0  0  0  0  0  0  0  0
   43.1990   23.3810   35.1820 S   0  0  0  0  0  0  0  0  0  0  0  0
   40.2600   22.5230   37.7670 C   0  0  0  0  0  0  0  0  0  0  0  0
   39.2000   23.3060   37.3140 C   0  0  0  0  0  0  0  0  0  0  0  0
   39.4210   24.0950   36.1990 C   0  0  0  0  0  0  0  0  0  0  0  0
   40.6340   24.1090   35.5650 N   0  0  0  0  0  0  0  0  0  0  0  0
   41.6450   23.3110   36.0610 C   0  0  0  0  0  0  0  0  0  0  0  0
   41.4350   22.5360   37.1520 N   0  0  0  0  0  0  0  0  0  0  0  0
   38.3970   25.0060   35.5710 C   0  0  0  0  0  0  0  0  0  0  0  0
   38.4880   26.3970   36.0920 C   0  0  0  0  0  0  0  0  0  0  0  0
   39.0210   27.2320   34.9790 C   0  0  0  0  0  0  0  0  0  0  0  0
   38.5930   26.5180   33.7220 C   0  0  0  0  0  0  0  0  0  0  0  0
   38.5560   25.0460   34.0770 C   0  0  0  0  0  0  0  0  0  0  0  0
   37.8660   23.3410   37.9420 C   0  0  0  0  0  0  0  0  0  0  0  0
   37.9390   22.4920   39.0610 F   0  0  0  0  0  0  0  0  0  0  0  0
   36.8590   22.9240   37.1460 F   0  0  0  0  0  0  0  0  0  0  0  0
   37.6140   24.5940   38.5340 F   0  0  0  0  0  0  0  0  0  0  0  0
   43.0209   25.2121   37.5722 H   0  0  0  0  0  0  0  0  0  0  0  0
   47.8919   22.3128   37.8645 H   0  0  0  0  0  0  0  0  0  0  0  0
   50.5658   22.2783   37.5004 H   0  0  0  0  0  0  0  0  0  0  0  0
   48.4268   28.0749   35.7882 H   0  0  0  0  0  0  0  0  0  0  0  0
   40.1197   21.8827   38.6504 H   0  0  0  0  0  0  0  0  0  0  0  0
   37.4132   24.5909   35.8354 H   0  0  0  0  0  0  0  0  0  0  0  0
   37.4927   26.7558   36.3932 H   0  0  0  0  0  0  0  0  0  0  0  0
   39.1409   26.4487   36.9758 H   0  0  0  0  0  0  0  0  0  0  0  0
   38.5922   28.2444   35.0146 H   0  0  0  0  0  0  0  0  0  0  0  0
   40.1129   27.3523   35.0366 H   0  0  0  0  0  0  0  0  0  0  0  0
   39.3163   26.6991   32.9132 H   0  0  0  0  0  0  0  0  0  0  0  0
   37.6147   26.8740   33.3668 H   0  0  0  0  0  0  0  0  0  0  0  0
   37.7054   24.5516   33.5850 H   0  0  0  0  0  0  0  0  0  0  0  0
   39.4632   24.5197   33.7454 H   0  0  0  0  0  0  0  0  0  0  0  0
  1  2  2  0
  2  3  1  0
  4  3  1  0
  5  1  1  0
  5  4  2  0
  6  4  1  0
  6  7  1  0
  8  7  2  0
  9  8  1  0
 10  9  2  0
 10  6  1  0
 11 10  1  0
 11 13  1  0
 12 11  2  0
 14 19  1  0
 14  1  1  0
 16 15  2  0
 16 26  1  0
 17 16  1  0
 18 19  1  0
 18 17  2  0
 19 20  2  0
 20 15  1  0
 21 22  1  0
 21 17  1  0
 23 22  1  0
 24 25  1  0
 24 23  1  0
 25 21  1  0
 26 29  1  0
 26 27  1  0
 28 26  1  0
  2 30  1  0
  7 31  1  0
  8 32  1  0
 13 33  1  0
 15 34  1  0
 21 35  1  0
 22 36  1  0
 22 37  1  0
 23 38  1  0
 23 39  1  0
 24 40  1  0
 24 41  1  0
 25 42  1  0
 25 43  1  0
M  ISO  8  30  14  31  14  32  14  33   3  34  14  35  13  36  13  37  13
M  ISO  6  38  13  39  13  40  13  41  13  42  13  43  13
M  END
>  <minimizedAffinity>  (1) 
-5.5442481

>  <minimizedRMSD>  (1) 
3.40854669

$$$$
