
     RDKit          3D

 26 27  0  0  0  0  0  0  0  0999 V2000
   41.0790   22.1650   36.4940 C   0  0  0  0  0  0  0  0  0  0  0  0
   40.3670   22.6700   37.6080 C   0  0  0  0  0  0  0  0  0  0  0  0
   39.0630   23.0980   37.3870 C   0  0  0  0  0  0  0  0  0  0  0  0
   38.5420   23.0140   36.1270 N   0  0  0  0  0  0  0  0  0  0  0  0
   39.2680   22.5210   35.0860 C   0  0  0  0  0  0  0  0  0  0  0  0
   40.5290   22.1000   35.2760 N   0  0  0  0  0  0  0  0  0  0  0  0
   42.4520   21.6990   36.6630 C   0  0  0  0  0  0  0  0  0  0  0  0
   42.6120   20.2500   37.0120 C   0  0  0  0  0  0  0  0  0  0  0  0
   44.0730   19.9790   36.6340 C   0  0  0  0  0  0  0  0  0  0  0  0
   44.5680   21.2090   35.9180 C   0  0  0  0  0  0  0  0  0  0  0  0
   43.2490   21.7540   35.3520 C   0  0  0  0  0  0  0  0  0  0  0  0
   38.3620   23.6140   38.5680 C   0  0  0  0  0  0  0  0  0  0  0  0
   37.8750   24.8770   38.2980 F   0  0  0  0  0  0  0  0  0  0  0  0
   39.3220   23.7820   39.5500 F   0  0  0  0  0  0  0  0  0  0  0  0
   37.3200   22.8360   38.9710 F   0  0  0  0  0  0  0  0  0  0  0  0
   40.8260   22.7216   38.6063 H   0  0  0  0  0  0  0  0  0  0  0  0
   38.8189   22.4672   34.0833 H   0  0  0  0  0  0  0  0  0  0  0  0
   42.7954   22.3664   37.4671 H   0  0  0  0  0  0  0  0  0  0  0  0
   42.4401   20.0778   38.0848 H   0  0  0  0  0  0  0  0  0  0  0  0
   41.8959   19.5925   36.4973 H   0  0  0  0  0  0  0  0  0  0  0  0
   44.6721   19.7998   37.5389 H   0  0  0  0  0  0  0  0  0  0  0  0
   44.1586   19.0872   35.9958 H   0  0  0  0  0  0  0  0  0  0  0  0
   45.0371   21.9217   36.6123 H   0  0  0  0  0  0  0  0  0  0  0  0
   45.3459   21.0183   35.1641 H   0  0  0  0  0  0  0  0  0  0  0  0
   43.3486   22.7776   34.9618 H   0  0  0  0  0  0  0  0  0  0  0  0
   42.8219   21.2186   34.4912 H   0  0  0  0  0  0  0  0  0  0  0  0
  1  7  1  0
  1  2  2  0
  3  2  1  0
  3 12  1  0
  4  3  2  0
  5  6  2  0
  5  4  1  0
  6  1  1  0
  7  8  1  0
  9  8  1  0
 10  9  1  0
 11 10  1  0
 11  7  1  0
 12 15  1  0
 12 14  1  0
 13 12  1  0
  2 16  1  0
  5 17  1  0
  7 18  1  0
  8 19  1  0
  8 20  1  0
  9 21  1  0
  9 22  1  0
 10 23  1  0
 10 24  1  0
 11 25  1  0
 11 26  1  0
M  ISO  8  16  14  17  14  18  13  19  13  20  13  21  13  22  13  23  13
M  ISO  3  24  13  25  13  26  13
M  END
>  <minimizedAffinity>  (1) 
-4.59527826

>  <minimizedRMSD>  (1) 
0.214803636

$$$$
