
     RDKit          3D

 22 23  0  0  0  0  0  0  0  0999 V2000
   37.9970   22.3520   35.8770 C   0  0  0  0  0  0  0  0  0  0  0  0
   39.3710   22.0280   35.9230 C   0  0  0  0  0  0  0  0  0  0  0  0
   40.0880   22.4180   37.0610 C   0  0  0  0  0  0  0  0  0  0  0  0
   39.4270   23.0760   38.0400 N   0  0  0  0  0  0  0  0  0  0  0  0
   38.1090   23.3680   37.9600 C   0  0  0  0  0  0  0  0  0  0  0  0
   37.4050   23.0050   36.8820 N   0  0  0  0  0  0  0  0  0  0  0  0
   37.2320   21.9540   34.6990 C   0  0  0  0  0  0  0  0  0  0  0  0
   37.5210   22.5280   33.4810 C   0  0  0  0  0  0  0  0  0  0  0  0
   36.7590   22.1140   32.3800 C   0  0  0  0  0  0  0  0  0  0  0  0
   35.7590   21.1600   32.5400 C   0  0  0  0  0  0  0  0  0  0  0  0
   35.5070   20.6180   33.7640 C   0  0  0  0  0  0  0  0  0  0  0  0
   36.2540   21.0360   34.7960 N   0  0  0  0  0  0  0  0  0  0  0  0
   41.5020   22.0600   37.0610 C   0  0  0  0  0  0  0  0  0  0  0  0
   41.7910   21.3400   35.9120 F   0  0  0  0  0  0  0  0  0  0  0  0
   41.6940   21.1640   38.0980 F   0  0  0  0  0  0  0  0  0  0  0  0
   42.3470   23.1220   37.1350 F   0  0  0  0  0  0  0  0  0  0  0  0
   39.8590   21.4901   35.0969 H   0  0  0  0  0  0  0  0  0  0  0  0
   37.6148   23.9051   38.7830 H   0  0  0  0  0  0  0  0  0  0  0  0
   38.3168   23.2802   33.3766 H   0  0  0  0  0  0  0  0  0  0  0  0
   36.9521   22.5446   31.3864 H   0  0  0  0  0  0  0  0  0  0  0  0
   35.1664   20.8405   31.6701 H   0  0  0  0  0  0  0  0  0  0  0  0
   34.7182   19.8637   33.9010 H   0  0  0  0  0  0  0  0  0  0  0  0
  1  2  2  0
  1  6  1  0
  2  3  1  0
  3  4  2  0
  5  4  1  0
  6  5  2  0
  7 12  1  0
  7  1  1  0
  8  7  2  0
  9 10  2  0
  9  8  1  0
 10 11  1  0
 11 12  2  0
 13  3  1  0
 13 16  1  0
 13 15  1  0
 14 13  1  0
  2 17  1  0
  5 18  1  0
  8 19  1  0
  9 20  1  0
 10 21  1  0
 11 22  1  0
M  ISO  6  17  14  18  14  19  14  20  14  21  14  22  14
M  END
>  <minimizedAffinity>  (1) 
-4.55034018

>  <minimizedRMSD>  (1) 
5.97101688

$$$$
