
     RDKit          3D

 27 28  0  0  0  0  0  0  0  0999 V2000
   38.3800   24.3650   36.1740 C   0  0  0  0  0  0  0  0  0  0  0  0
   39.5640   23.6010   36.0620 C   0  0  0  0  0  0  0  0  0  0  0  0
   39.9970   22.9340   37.2070 C   0  0  0  0  0  0  0  0  0  0  0  0
   39.2770   23.0490   38.3430 N   0  0  0  0  0  0  0  0  0  0  0  0
   38.1380   23.7980   38.4050 C   0  0  0  0  0  0  0  0  0  0  0  0
   37.7030   24.4450   37.3250 N   0  0  0  0  0  0  0  0  0  0  0  0
   37.9140   25.0570   35.0200 N   0  0  0  0  0  0  0  0  0  0  0  0
   38.0300   24.4690   33.7010 C   0  0  0  0  0  0  0  0  0  0  0  0
   37.2130   25.2970   32.7440 C   0  0  0  0  0  0  0  0  0  0  0  0
   37.6310   26.6790   32.7250 N   0  0  0  0  0  0  0  0  0  0  0  0
   37.6220   27.2950   34.0100 C   0  0  0  0  0  0  0  0  0  0  0  0
   37.3190   26.3580   35.1520 C   0  0  0  0  0  0  0  0  0  0  0  0
   41.2200   22.1630   37.0560 C   0  0  0  0  0  0  0  0  0  0  0  0
   42.3070   23.0160   36.9960 F   0  0  0  0  0  0  0  0  0  0  0  0
   41.1750   21.5740   35.7920 F   0  0  0  0  0  0  0  0  0  0  0  0
   41.4410   21.2420   38.0310 F   0  0  0  0  0  0  0  0  0  0  0  0
   40.1186   23.5357   35.1143 H   0  0  0  0  0  0  0  0  0  0  0  0
   37.5778   23.8676   39.3491 H   0  0  0  0  0  0  0  0  0  0  0  0
   39.0838   24.4666   33.3856 H   0  0  0  0  0  0  0  0  0  0  0  0
   37.6648   23.4315   33.7137 H   0  0  0  0  0  0  0  0  0  0  0  0
   37.3223   24.8798   31.7321 H   0  0  0  0  0  0  0  0  0  0  0  0
   36.1657   25.2653   33.0789 H   0  0  0  0  0  0  0  0  0  0  0  0
   38.5887   26.7245   32.3487 H   0  0  0  0  0  0  0  0  0  0  0  0
   38.6128   27.7397   34.1845 H   0  0  0  0  0  0  0  0  0  0  0  0
   36.8124   28.0395   33.9937 H   0  0  0  0  0  0  0  0  0  0  0  0
   36.2279   26.2335   35.2159 H   0  0  0  0  0  0  0  0  0  0  0  0
   37.7498   26.8123   36.0565 H   0  0  0  0  0  0  0  0  0  0  0  0
  1  6  1  0
  2  1  2  0
  2  3  1  0
  3  4  2  0
  4  5  1  0
  6  5  2  0
  7 12  1  0
  7  1  1  0
  8  7  1  0
  9  8  1  0
 10  9  1  0
 10 11  1  0
 11 12  1  0
 13  3  1  0
 13 16  1  0
 14 13  1  0
 15 13  1  0
  2 17  1  0
  5 18  1  0
  8 19  1  0
  8 20  1  0
  9 21  1  0
  9 22  1  0
 10 23  1  0
 11 24  1  0
 11 25  1  0
 12 26  1  0
 12 27  1  0
M  ISO  8  17  14  18  14  19  13  20  13  21  13  22  13  23   5  24  13
M  ISO  3  25  13  26  13  27  13
M  END
>  <minimizedAffinity>  (1) 
-4.53644371

>  <minimizedRMSD>  (1) 
6.04944468

$$$$
