
     RDKit          3D

 22 22  0  0  0  0  0  0  0  0999 V2000
   40.8370   22.1990   36.2210 C   0  0  0  0  0  0  0  0  0  0  0  0
   40.2300   22.6900   37.4190 C   0  0  0  0  0  0  0  0  0  0  0  0
   38.8950   23.1300   37.2850 C   0  0  0  0  0  0  0  0  0  0  0  0
   38.2870   23.0660   36.0840 N   0  0  0  0  0  0  0  0  0  0  0  0
   38.9060   22.5940   34.9820 C   0  0  0  0  0  0  0  0  0  0  0  0
   40.1660   22.1650   35.0530 N   0  0  0  0  0  0  0  0  0  0  0  0
   38.3040   23.6280   38.5350 C   0  0  0  0  0  0  0  0  0  0  0  0
   37.8300   24.9020   38.3450 F   0  0  0  0  0  0  0  0  0  0  0  0
   39.3190   23.7230   39.4630 F   0  0  0  0  0  0  0  0  0  0  0  0
   37.2710   22.8420   39.0010 F   0  0  0  0  0  0  0  0  0  0  0  0
   42.2400   21.7230   36.3070 C   0  0  0  0  0  0  0  0  0  0  0  0
   43.2270   22.8730   36.5170 C   0  0  0  0  0  0  0  0  0  0  0  0
   42.4610   20.6920   37.3600 C   0  0  0  0  0  0  0  0  0  0  0  0
   40.7662   22.7227   38.3789 H   0  0  0  0  0  0  0  0  0  0  0  0
   38.3694   22.5631   34.0223 H   0  0  0  0  0  0  0  0  0  0  0  0
   42.4286   21.2507   35.3316 H   0  0  0  0  0  0  0  0  0  0  0  0
   43.3708   23.0406   37.5946 H   0  0  0  0  0  0  0  0  0  0  0  0
   44.1914   22.6177   36.0537 H   0  0  0  0  0  0  0  0  0  0  0  0
   42.8284   23.7876   36.0537 H   0  0  0  0  0  0  0  0  0  0  0  0
   42.3618   21.1549   38.3529 H   0  0  0  0  0  0  0  0  0  0  0  0
   41.7140   19.8918   37.2522 H   0  0  0  0  0  0  0  0  0  0  0  0
   43.4704   20.2683   37.2522 H   0  0  0  0  0  0  0  0  0  0  0  0
  1 11  1  0
  1  2  2  0
  3  2  1  0
  3  7  1  0
  4  3  2  0
  5  6  2  0
  5  4  1  0
  6  1  1  0
  7 10  1  0
  7  9  1  0
  8  7  1  0
 11 12  1  0
 11 13  1  0
  2 14  1  0
  5 15  1  0
 11 16  1  0
 12 17  1  0
 12 18  1  0
 12 19  1  0
 13 20  1  0
 13 21  1  0
 13 22  1  0
M  ISO  8  14  14  15  14  16   8  17   8  18   8  19   8  20   8  21   8
M  ISO  1  22   8
M  END
>  <minimizedAffinity>  (1) 
-4.39818048

>  <minimizedRMSD>  (1) 
0.531123936

$$$$
