
     RDKit          3D

 20 21  0  0  0  0  0  0  0  0999 V2000
   41.1790   22.2150   36.5560 C   0  0  0  0  0  0  0  0  0  0  0  0
   40.4330   22.7440   37.6400 C   0  0  0  0  0  0  0  0  0  0  0  0
   39.1030   23.0670   37.3810 C   0  0  0  0  0  0  0  0  0  0  0  0
   38.6020   22.8620   36.1330 N   0  0  0  0  0  0  0  0  0  0  0  0
   39.3620   22.3500   35.1270 C   0  0  0  0  0  0  0  0  0  0  0  0
   40.6470   22.0300   35.3500 N   0  0  0  0  0  0  0  0  0  0  0  0
   38.3530   23.6130   38.5170 C   0  0  0  0  0  0  0  0  0  0  0  0
   37.8570   24.8480   38.2080 F   0  0  0  0  0  0  0  0  0  0  0  0
   39.2680   23.7890   39.5430 F   0  0  0  0  0  0  0  0  0  0  0  0
   37.3040   22.8120   38.9120 F   0  0  0  0  0  0  0  0  0  0  0  0
   42.6160   21.8490   36.7750 C   0  0  0  0  0  0  0  0  0  0  0  0
   43.6200   22.9770   36.4580 C   0  0  0  0  0  0  0  0  0  0  0  0
   43.5350   21.7610   35.6150 C   0  0  0  0  0  0  0  0  0  0  0  0
   40.8814   22.8915   38.6336 H   0  0  0  0  0  0  0  0  0  0  0  0
   38.9232   22.1980   34.1298 H   0  0  0  0  0  0  0  0  0  0  0  0
   42.3858   21.1732   37.6118 H   0  0  0  0  0  0  0  0  0  0  0  0
   43.2633   23.9437   36.0730 H   0  0  0  0  0  0  0  0  0  0  0  0
   44.4176   23.4967   37.0092 H   0  0  0  0  0  0  0  0  0  0  0  0
   43.1296   21.8354   34.5951 H   0  0  0  0  0  0  0  0  0  0  0  0
   44.2695   21.0136   35.2805 H   0  0  0  0  0  0  0  0  0  0  0  0
  1 11  1  0
  1  2  2  0
  3  2  1  0
  3  7  1  0
  4  3  2  0
  5  6  2  0
  5  4  1  0
  6  1  1  0
  7 10  1  0
  7  9  1  0
  8  7  1  0
 12 11  1  0
 13 12  1  0
 13 11  1  0
  2 14  1  0
  5 15  1  0
 11 16  1  0
 12 17  1  0
 12 18  1  0
 13 19  1  0
 13 20  1  0
M  ISO  7  14  14  15  14  16  13  17  13  18  13  19  13  20  13
M  END
>  <minimizedAffinity>  (1) 
-4.2966857

>  <minimizedRMSD>  (1) 
0.255373478

$$$$
