
     RDKit          3D

 20 21  0  0  0  0  0  0  0  0999 V2000
   40.6820   22.2810   36.1620 C   0  0  0  0  0  0  0  0  0  0  0  0
   40.0320   22.5810   37.3830 C   0  0  0  0  0  0  0  0  0  0  0  0
   38.9480   23.4510   37.3170 C   0  0  0  0  0  0  0  0  0  0  0  0
   38.5730   23.9580   36.1160 N   0  0  0  0  0  0  0  0  0  0  0  0
   39.2260   23.6420   34.9720 C   0  0  0  0  0  0  0  0  0  0  0  0
   40.2750   22.8060   35.0020 N   0  0  0  0  0  0  0  0  0  0  0  0
   41.8060   21.3850   36.1970 N   0  0  0  0  0  0  0  0  0  0  0  0
   42.5030   21.0050   35.1100 C   0  0  0  0  0  0  0  0  0  0  0  0
   43.4780   20.1590   35.5870 C   0  0  0  0  0  0  0  0  0  0  0  0
   43.3370   20.0560   36.9370 N   0  0  0  0  0  0  0  0  0  0  0  0
   42.3080   20.8100   37.3240 C   0  0  0  0  0  0  0  0  0  0  0  0
   38.3120   23.7290   38.6070 C   0  0  0  0  0  0  0  0  0  0  0  0
   37.7620   25.0010   38.5830 F   0  0  0  0  0  0  0  0  0  0  0  0
   39.3000   23.7780   39.5600 F   0  0  0  0  0  0  0  0  0  0  0  0
   37.3070   22.8380   38.9250 F   0  0  0  0  0  0  0  0  0  0  0  0
   40.3672   22.1478   38.3369 H   0  0  0  0  0  0  0  0  0  0  0  0
   38.8951   24.0722   34.0152 H   0  0  0  0  0  0  0  0  0  0  0  0
   42.3305   21.3057   34.0660 H   0  0  0  0  0  0  0  0  0  0  0  0
   44.2422   19.6517   34.9799 H   0  0  0  0  0  0  0  0  0  0  0  0
   41.9377   20.9415   38.3514 H   0  0  0  0  0  0  0  0  0  0  0  0
  1  7  1  0
  1  2  2  0
  3  2  1  0
  3 12  1  0
  4  3  2  0
  5  6  2  0
  5  4  1  0
  6  1  1  0
  7 11  1  0
  8  9  2  0
  8  7  1  0
  9 10  1  0
 10 11  2  0
 12 15  1  0
 12 14  1  0
 13 12  1  0
  2 16  1  0
  5 17  1  0
  8 18  1  0
  9 19  1  0
 11 20  1  0
M  ISO  5  16  14  17  14  18  14  19  14  20  14
M  END
>  <minimizedAffinity>  (1) 
-4.24348783

>  <minimizedRMSD>  (1) 
1.09875035

$$$$
