
     RDKit          3D

 17 17  0  0  0  0  0  0  0  0999 V2000
   38.2930   24.8100   35.0800 C   0  0  0  0  0  0  0  0  0  0  0  0
   38.2840   24.7980   36.5000 C   0  0  0  0  0  0  0  0  0  0  0  0
   38.1150   23.5540   37.1240 C   0  0  0  0  0  0  0  0  0  0  0  0
   37.9710   22.4480   36.3690 N   0  0  0  0  0  0  0  0  0  0  0  0
   37.9880   22.5190   34.9990 C   0  0  0  0  0  0  0  0  0  0  0  0
   38.1480   23.6930   34.3720 N   0  0  0  0  0  0  0  0  0  0  0  0
   38.1130   23.5990   38.5870 C   0  0  0  0  0  0  0  0  0  0  0  0
   37.2530   22.6350   39.0710 F   0  0  0  0  0  0  0  0  0  0  0  0
   37.5910   24.8190   38.9580 F   0  0  0  0  0  0  0  0  0  0  0  0
   39.3630   23.4030   39.1330 F   0  0  0  0  0  0  0  0  0  0  0  0
   38.4550   25.9970   34.4050 O   0  0  0  0  0  0  0  0  0  0  0  0
   39.4820   26.9170   34.6550 C   0  0  0  0  0  0  0  0  0  0  0  0
   39.8510   27.6390   33.5380 F   0  0  0  0  0  0  0  0  0  0  0  0
   38.9870   27.8070   35.6160 F   0  0  0  0  0  0  0  0  0  0  0  0
   40.6180   26.2970   35.1550 F   0  0  0  0  0  0  0  0  0  0  0  0
   38.4041   25.7226   37.0837 H   0  0  0  0  0  0  0  0  0  0  0  0
   37.8687   21.5997   34.4068 H   0  0  0  0  0  0  0  0  0  0  0  0
  1  2  2  0
  2  3  1  0
  3  7  1  0
  4  3  2  0
  5  4  1  0
  6  5  2  0
  6  1  1  0
  7  9  1  0
  7  8  1  0
  7 10  1  0
 11 12  1  0
 11  1  1  0
 12 15  1  0
 12 14  1  0
 13 12  1  0
  2 16  1  0
  5 17  1  0
M  ISO  2  16  14  17  14
M  END
>  <minimizedAffinity>  (1) 
-4.65528917

>  <minimizedRMSD>  (1) 
5.0032649

$$$$
