
     RDKit          3D

 17 17  0  0  0  0  0  0  0  0999 V2000
   41.0420   22.1700   36.5600 C   0  0  0  0  0  0  0  0  0  0  0  0
   40.3060   22.6860   37.6590 C   0  0  0  0  0  0  0  0  0  0  0  0
   39.0080   23.1290   37.3940 C   0  0  0  0  0  0  0  0  0  0  0  0
   38.5100   23.0530   36.1380 N   0  0  0  0  0  0  0  0  0  0  0  0
   39.2690   22.5430   35.1130 C   0  0  0  0  0  0  0  0  0  0  0  0
   40.5220   22.1090   35.3300 N   0  0  0  0  0  0  0  0  0  0  0  0
   38.2960   23.6530   38.5540 C   0  0  0  0  0  0  0  0  0  0  0  0
   37.8270   24.9220   38.2830 F   0  0  0  0  0  0  0  0  0  0  0  0
   39.2440   23.8180   39.5610 F   0  0  0  0  0  0  0  0  0  0  0  0
   37.2530   22.8590   38.9570 F   0  0  0  0  0  0  0  0  0  0  0  0
   42.3280   21.7150   36.7300 O   0  0  0  0  0  0  0  0  0  0  0  0
   42.6430   20.4060   37.0610 C   0  0  0  0  0  0  0  0  0  0  0  0
   43.2010   19.5690   36.2980 O   0  0  0  0  0  0  0  0  0  0  0  0
   42.3040   19.9980   38.3550 O   0  0  0  0  0  0  0  0  0  0  0  0
   40.7369   22.7346   38.6699 H   0  0  0  0  0  0  0  0  0  0  0  0
   38.8448   22.4891   34.0995 H   0  0  0  0  0  0  0  0  0  0  0  0
   42.5033   19.0745   38.6510 H   0  0  0  0  0  0  0  0  0  0  0  0
  1 11  1  0
  1  2  2  0
  3  2  1  0
  3  7  1  0
  4  3  2  0
  5  6  2  0
  5  4  1  0
  6  1  1  0
  7 10  1  0
  7  9  1  0
  8  7  1  0
 11 12  1  0
 12 14  1  0
 13 12  2  0
  2 15  1  0
  5 16  1  0
 14 17  1  0
M  ISO  3  15  14  16  14  17   3
M  END
>  <minimizedAffinity>  (1) 
-4.56948709

>  <minimizedRMSD>  (1) 
0.709082246

$$$$
