
     RDKit          3D

 22 23  0  0  0  0  0  0  0  0999 V2000
   41.2690   22.2690   36.6450 C   0  0  0  0  0  0  0  0  0  0  0  0
   40.4530   22.7800   37.6880 C   0  0  0  0  0  0  0  0  0  0  0  0
   39.1110   23.0530   37.3840 C   0  0  0  0  0  0  0  0  0  0  0  0
   38.6700   22.8190   36.1390 N   0  0  0  0  0  0  0  0  0  0  0  0
   39.4860   22.3270   35.1660 C   0  0  0  0  0  0  0  0  0  0  0  0
   40.7550   22.0640   35.4330 N   0  0  0  0  0  0  0  0  0  0  0  0
   38.3270   23.5770   38.4950 C   0  0  0  0  0  0  0  0  0  0  0  0
   37.7800   24.7980   38.1540 F   0  0  0  0  0  0  0  0  0  0  0  0
   39.2020   23.8230   39.5410 F   0  0  0  0  0  0  0  0  0  0  0  0
   37.3050   22.7520   38.8830 F   0  0  0  0  0  0  0  0  0  0  0  0
   42.5800   21.9880   36.8780 O   0  0  0  0  0  0  0  0  0  0  0  0
   43.6220   22.6370   36.2900 C   0  0  0  0  0  0  0  0  0  0  0  0
   44.6210   22.4090   35.3760 C   0  0  0  0  0  0  0  0  0  0  0  0
   45.5580   23.3330   34.9860 C   0  0  0  0  0  0  0  0  0  0  0  0
   45.4910   24.5500   35.5420 N   0  0  0  0  0  0  0  0  0  0  0  0
   44.5240   24.8050   36.4410 C   0  0  0  0  0  0  0  0  0  0  0  0
   43.5860   23.8930   36.8350 N   0  0  0  0  0  0  0  0  0  0  0  0
   40.8574   22.9552   38.6959 H   0  0  0  0  0  0  0  0  0  0  0  0
   39.0892   22.1478   34.1558 H   0  0  0  0  0  0  0  0  0  0  0  0
   44.6745   21.4088   34.9213 H   0  0  0  0  0  0  0  0  0  0  0  0
   46.3332   23.0841   34.2463 H   0  0  0  0  0  0  0  0  0  0  0  0
   44.4858   25.8099   36.8867 H   0  0  0  0  0  0  0  0  0  0  0  0
  1 11  1  0
  1  2  2  0
  3  2  1  0
  3  7  1  0
  4  3  2  0
  5  6  2  0
  5  4  1  0
  6  1  1  0
  7 10  1  0
  7  9  1  0
  8  7  1  0
 12 17  1  0
 12 11  1  0
 13 12  2  0
 14 13  1  0
 14 15  2  0
 15 16  1  0
 16 17  2  0
  2 18  1  0
  5 19  1  0
 13 20  1  0
 14 21  1  0
 16 22  1  0
M  ISO  5  18  14  19  14  20  14  21  14  22  14
M  END
>  <minimizedAffinity>  (1) 
-4.46320248

>  <minimizedRMSD>  (1) 
2.24066424

$$$$
