
     RDKit          3D

 18 18  0  0  0  0  0  0  0  0999 V2000
   41.1630   22.1640   36.6350 C   0  0  0  0  0  0  0  0  0  0  0  0
   40.4020   22.7060   37.6910 C   0  0  0  0  0  0  0  0  0  0  0  0
   39.0880   23.0900   37.4090 C   0  0  0  0  0  0  0  0  0  0  0  0
   38.6050   22.9260   36.1490 N   0  0  0  0  0  0  0  0  0  0  0  0
   39.4000   22.3920   35.1730 C   0  0  0  0  0  0  0  0  0  0  0  0
   40.6550   22.0170   35.4070 N   0  0  0  0  0  0  0  0  0  0  0  0
   38.3510   23.6400   38.5430 C   0  0  0  0  0  0  0  0  0  0  0  0
   37.8590   24.8710   38.2280 F   0  0  0  0  0  0  0  0  0  0  0  0
   39.2480   23.8190   39.5650 F   0  0  0  0  0  0  0  0  0  0  0  0
   37.2780   22.8360   38.9120 F   0  0  0  0  0  0  0  0  0  0  0  0
   42.4690   21.7670   36.8510 O   0  0  0  0  0  0  0  0  0  0  0  0
   42.8780   20.4470   36.8320 C   0  0  0  0  0  0  0  0  0  0  0  0
   42.4860   19.7750   38.0410 N   0  0  0  0  0  0  0  0  0  0  0  0
   43.5120   19.7310   35.9880 O   0  0  0  0  0  0  0  0  0  0  0  0
   40.8265   22.8223   38.6991 H   0  0  0  0  0  0  0  0  0  0  0  0
   38.9882   22.2683   34.1605 H   0  0  0  0  0  0  0  0  0  0  0  0
   42.7200   18.7812   38.1769 H   0  0  0  0  0  0  0  0  0  0  0  0
   41.9712   20.2874   38.7713 H   0  0  0  0  0  0  0  0  0  0  0  0
  1 11  1  0
  1  2  2  0
  3  2  1  0
  3  7  1  0
  4  3  2  0
  5  6  2  0
  5  4  1  0
  6  1  1  0
  7 10  1  0
  7  9  1  0
  8  7  1  0
 12 11  1  0
 12 13  1  0
 14 12  2  0
  2 15  1  0
  5 16  1  0
 13 17  1  0
 13 18  1  0
M  ISO  2  15  14  16  14
M  END
>  <minimizedAffinity>  (1) 
-4.46177483

>  <minimizedRMSD>  (1) 
1.27912796

$$$$
