
     RDKit          3D

 33 35  0  0  0  0  0  0  0  0999 V2000
   44.6930   24.0300   36.5540 C   0  0  0  0  0  0  0  0  0  0  0  0
   44.1440   24.9310   37.4860 C   0  0  0  0  0  0  0  0  0  0  0  0
   45.6680   25.6240   38.3110 S   0  0  0  0  0  0  0  0  0  0  0  0
   46.7670   24.5450   37.2190 C   0  0  0  0  0  0  0  0  0  0  0  0
   45.9830   24.0330   36.6290 N   0  0  0  0  0  0  0  0  0  0  0  0
   48.2100   24.4680   37.2190 N   0  0  0  0  0  0  0  0  0  0  0  0
   48.7130   23.4630   37.9680 C   0  0  0  0  0  0  0  0  0  0  0  0
   50.0820   23.5220   37.8650 C   0  0  0  0  0  0  0  0  0  0  0  0
   50.3520   24.5730   37.0490 N   0  0  0  0  0  0  0  0  0  0  0  0
   49.2130   25.1420   36.6610 C   0  0  0  0  0  0  0  0  0  0  0  0
   48.9330   26.2780   35.8030 C   0  0  0  0  0  0  0  0  0  0  0  0
   48.9220   26.1640   34.5620 O   0  0  0  0  0  0  0  0  0  0  0  0
   48.6800   27.4880   36.4460 O   0  0  0  0  0  0  0  0  0  0  0  0
   43.5600   23.1060   35.5050 S   0  0  0  0  0  0  0  0  0  0  0  0
   40.3370   22.4510   37.7670 C   0  0  0  0  0  0  0  0  0  0  0  0
   39.3680   23.3080   37.1900 C   0  0  0  0  0  0  0  0  0  0  0  0
   39.7320   24.0800   36.1010 C   0  0  0  0  0  0  0  0  0  0  0  0
   41.0240   23.9670   35.6390 N   0  0  0  0  0  0  0  0  0  0  0  0
   41.9200   23.1340   36.2220 C   0  0  0  0  0  0  0  0  0  0  0  0
   41.5740   22.3850   37.2750 N   0  0  0  0  0  0  0  0  0  0  0  0
   37.9790   23.4010   37.7040 C   0  0  0  0  0  0  0  0  0  0  0  0
   37.9360   22.6360   38.8850 F   0  0  0  0  0  0  0  0  0  0  0  0
   37.0430   22.9260   36.8600 F   0  0  0  0  0  0  0  0  0  0  0  0
   37.7170   24.6960   38.1750 F   0  0  0  0  0  0  0  0  0  0  0  0
   38.8670   25.0300   35.3880 C   0  0  0  0  0  0  0  0  0  0  0  0
   37.8050   24.4390   34.7240 F   0  0  0  0  0  0  0  0  0  0  0  0
   39.6010   25.6260   34.3340 F   0  0  0  0  0  0  0  0  0  0  0  0
   38.4670   26.1050   36.1450 F   0  0  0  0  0  0  0  0  0  0  0  0
   43.0869   25.1664   37.6788 H   0  0  0  0  0  0  0  0  0  0  0  0
   48.1341   22.7326   38.5522 H   0  0  0  0  0  0  0  0  0  0  0  0
   50.8111   22.8534   38.3460 H   0  0  0  0  0  0  0  0  0  0  0  0
   48.4824   28.2993   35.9142 H   0  0  0  0  0  0  0  0  0  0  0  0
   40.0647   21.8309   38.6338 H   0  0  0  0  0  0  0  0  0  0  0  0
  1  5  1  0
  1  2  2  0
  2  3  1  0
  4  6  1  0
  4  3  1  0
  5  4  2  0
  6  7  1  0
  8  7  2  0
  9  8  1  0
 10  9  2  0
 10  6  1  0
 11 13  1  0
 11 10  1  0
 12 11  2  0
 14 19  1  0
 14  1  1  0
 16 21  1  0
 16 15  2  0
 17 16  1  0
 18 17  2  0
 18 19  1  0
 19 20  2  0
 20 15  1  0
 21 24  1  0
 21 22  1  0
 23 21  1  0
 25 17  1  0
 25 28  1  0
 26 25  1  0
 27 25  1  0
  2 29  1  0
  7 30  1  0
  8 31  1  0
 13 32  1  0
 15 33  1  0
M  ISO  5  29  14  30  14  31  14  32   3  33  14
M  END
>  <minimizedAffinity>  (1) 
-5.08425522

>  <minimizedRMSD>  (1) 
3.80940628

$$$$
