
     RDKit          3D

 20 20  0  0  0  0  0  0  0  0999 V2000
   41.2010   22.1600   36.6460 C   0  0  0  0  0  0  0  0  0  0  0  0
   40.4310   22.7030   37.7060 C   0  0  0  0  0  0  0  0  0  0  0  0
   39.1110   23.0680   37.3970 C   0  0  0  0  0  0  0  0  0  0  0  0
   38.6440   22.8910   36.1360 N   0  0  0  0  0  0  0  0  0  0  0  0
   39.4500   22.3600   35.1680 C   0  0  0  0  0  0  0  0  0  0  0  0
   40.7060   22.0030   35.4230 N   0  0  0  0  0  0  0  0  0  0  0  0
   38.3690   23.6150   38.5180 C   0  0  0  0  0  0  0  0  0  0  0  0
   37.8490   24.8440   38.1860 F   0  0  0  0  0  0  0  0  0  0  0  0
   39.2500   23.8070   39.5520 F   0  0  0  0  0  0  0  0  0  0  0  0
   37.3020   22.8060   38.8930 F   0  0  0  0  0  0  0  0  0  0  0  0
   42.5150   21.7760   36.8760 O   0  0  0  0  0  0  0  0  0  0  0  0
   43.6090   22.2730   36.1660 C   0  0  0  0  0  0  0  0  0  0  0  0
   43.8540   23.7210   36.6080 C   0  0  0  0  0  0  0  0  0  0  0  0
   40.8460   22.8314   38.7166 H   0  0  0  0  0  0  0  0  0  0  0  0
   39.0499   22.2244   34.1523 H   0  0  0  0  0  0  0  0  0  0  0  0
   43.3960   22.2446   35.0872 H   0  0  0  0  0  0  0  0  0  0  0  0
   44.5003   21.6602   36.3663 H   0  0  0  0  0  0  0  0  0  0  0  0
   43.8627   23.7725   37.7068 H   0  0  0  0  0  0  0  0  0  0  0  0
   44.8231   24.0647   36.2171 H   0  0  0  0  0  0  0  0  0  0  0  0
   43.0519   24.3644   36.2171 H   0  0  0  0  0  0  0  0  0  0  0  0
  1 11  1  0
  1  2  2  0
  3  2  1  0
  3  7  1  0
  4  3  2  0
  5  6  2  0
  5  4  1  0
  6  1  1  0
  7 10  1  0
  7  9  1  0
  8  7  1  0
 12 13  1  0
 12 11  1  0
  2 14  1  0
  5 15  1  0
 12 16  1  0
 12 17  1  0
 13 18  1  0
 13 19  1  0
 13 20  1  0
M  ISO  7  14  14  15  14  16   8  17   8  18   8  19   8  20   8
M  END
>  <minimizedAffinity>  (1) 
-4.06137753

>  <minimizedRMSD>  (1) 
0.786034584

$$$$
