
     RDKit          3D

 26 26  0  0  0  0  0  0  0  0999 V2000
   40.5970   22.2310   36.0210 C   0  0  0  0  0  0  0  0  0  0  0  0
   40.0410   22.6300   37.2600 C   0  0  0  0  0  0  0  0  0  0  0  0
   38.8050   23.2510   37.2550 C   0  0  0  0  0  0  0  0  0  0  0  0
   38.1790   23.4510   36.0680 N   0  0  0  0  0  0  0  0  0  0  0  0
   38.7570   23.0460   34.8890 C   0  0  0  0  0  0  0  0  0  0  0  0
   39.9470   22.4470   34.8810 N   0  0  0  0  0  0  0  0  0  0  0  0
   38.2870   23.6380   38.5620 C   0  0  0  0  0  0  0  0  0  0  0  0
   37.8110   24.9350   38.5070 F   0  0  0  0  0  0  0  0  0  0  0  0
   39.3630   23.6780   39.4270 F   0  0  0  0  0  0  0  0  0  0  0  0
   37.2810   22.8230   39.0110 F   0  0  0  0  0  0  0  0  0  0  0  0
   41.8290   21.6060   35.9800 O   0  0  0  0  0  0  0  0  0  0  0  0
   43.0240   22.2610   35.6840 C   0  0  0  0  0  0  0  0  0  0  0  0
   43.0570   23.5600   36.4860 C   0  0  0  0  0  0  0  0  0  0  0  0
   43.0160   22.5540   34.1960 C   0  0  0  0  0  0  0  0  0  0  0  0
   44.2170   21.4090   35.9990 C   0  0  0  0  0  0  0  0  0  0  0  0
   40.5782   22.4508   38.2030 H   0  0  0  0  0  0  0  0  0  0  0  0
   38.2301   23.2187   33.9390 H   0  0  0  0  0  0  0  0  0  0  0  0
   43.0511   23.3274   37.5611 H   0  0  0  0  0  0  0  0  0  0  0  0
   43.9697   24.1214   36.2373 H   0  0  0  0  0  0  0  0  0  0  0  0
   42.1740   24.1670   36.2373 H   0  0  0  0  0  0  0  0  0  0  0  0
   42.9863   23.6420   34.0367 H   0  0  0  0  0  0  0  0  0  0  0  0
   43.9258   22.1408   33.7360 H   0  0  0  0  0  0  0  0  0  0  0  0
   42.1301   22.0917   33.7360 H   0  0  0  0  0  0  0  0  0  0  0  0
   44.3314   21.3273   37.0900 H   0  0  0  0  0  0  0  0  0  0  0  0
   44.0754   20.4065   35.5691 H   0  0  0  0  0  0  0  0  0  0  0  0
   45.1194   21.8682   35.5691 H   0  0  0  0  0  0  0  0  0  0  0  0
  1  2  2  0
  3  2  1  0
  3  7  1  0
  4  3  2  0
  5  4  1  0
  6  5  2  0
  6  1  1  0
  7 10  1  0
  7  9  1  0
  8  7  1  0
 11  1  1  0
 12 11  1  0
 12 15  1  0
 12 13  1  0
 14 12  1  0
  2 16  1  0
  5 17  1  0
 13 18  1  0
 13 19  1  0
 13 20  1  0
 14 21  1  0
 14 22  1  0
 14 23  1  0
 15 24  1  0
 15 25  1  0
 15 26  1  0
M  ISO  8  16  14  17  14  18   8  19   8  20   8  21   8  22   8  23   8
M  ISO  3  24   8  25   8  26   8
M  END
>  <minimizedAffinity>  (1) 
-4.06055927

>  <minimizedRMSD>  (1) 
2.15063238

$$$$
