
     RDKit          3D

 32 34  0  0  0  0  0  0  0  0999 V2000
   44.9340   24.2520   36.8580 C   0  0  0  0  0  0  0  0  0  0  0  0
   44.2350   25.1270   37.6810 C   0  0  0  0  0  0  0  0  0  0  0  0
   45.6140   25.8900   38.6760 S   0  0  0  0  0  0  0  0  0  0  0  0
   46.8860   24.8510   37.7600 C   0  0  0  0  0  0  0  0  0  0  0  0
   46.2050   24.3020   37.0870 N   0  0  0  0  0  0  0  0  0  0  0  0
   48.3190   24.8430   37.9500 N   0  0  0  0  0  0  0  0  0  0  0  0
   48.7580   23.8710   38.7860 C   0  0  0  0  0  0  0  0  0  0  0  0
   50.1290   23.9880   38.8670 C   0  0  0  0  0  0  0  0  0  0  0  0
   50.4570   25.0410   38.0650 N   0  0  0  0  0  0  0  0  0  0  0  0
   49.3550   25.5480   37.5160 C   0  0  0  0  0  0  0  0  0  0  0  0
   49.1420   26.6530   36.6020 C   0  0  0  0  0  0  0  0  0  0  0  0
   48.9810   26.4620   35.3810 O   0  0  0  0  0  0  0  0  0  0  0  0
   49.1270   27.9330   37.1560 O   0  0  0  0  0  0  0  0  0  0  0  0
   43.9970   23.2580   35.6870 S   0  0  0  0  0  0  0  0  0  0  0  0
   40.5150   22.5770   37.5030 C   0  0  0  0  0  0  0  0  0  0  0  0
   39.5890   23.3180   36.7710 C   0  0  0  0  0  0  0  0  0  0  0  0
   40.0900   24.0260   35.7030 C   0  0  0  0  0  0  0  0  0  0  0  0
   41.4160   24.0040   35.3820 N   0  0  0  0  0  0  0  0  0  0  0  0
   42.2770   23.2660   36.1280 C   0  0  0  0  0  0  0  0  0  0  0  0
   41.8000   22.5770   37.1630 N   0  0  0  0  0  0  0  0  0  0  0  0
   38.1480   23.3860   37.0690 C   0  0  0  0  0  0  0  0  0  0  0  0
   38.0000   22.8760   38.3740 F   0  0  0  0  0  0  0  0  0  0  0  0
   37.3810   22.6640   36.2370 F   0  0  0  0  0  0  0  0  0  0  0  0
   37.7300   24.7300   37.2080 F   0  0  0  0  0  0  0  0  0  0  0  0
   39.3150   24.8470   34.8060 C   0  0  0  0  0  0  0  0  0  0  0  0
   38.4790   24.8630   33.8900 O   0  0  0  0  0  0  0  0  0  0  0  0
   43.1530   25.3187   37.7318 H   0  0  0  0  0  0  0  0  0  0  0  0
   48.1355   23.1265   39.3040 H   0  0  0  0  0  0  0  0  0  0  0  0
   50.8156   23.3622   39.4560 H   0  0  0  0  0  0  0  0  0  0  0  0
   48.9852   28.7221   36.5752 H   0  0  0  0  0  0  0  0  0  0  0  0
   40.1798   21.9874   38.3690 H   0  0  0  0  0  0  0  0  0  0  0  0
   39.5720   25.8939   35.0252 H   0  0  0  0  0  0  0  0  0  0  0  0
  1  5  1  0
  1  2  2  0
  2  3  1  0
  4  6  1  0
  4  3  1  0
  5  4  2  0
  6  7  1  0
  7  8  2  0
  9  8  1  0
 10  6  1  0
 10  9  2  0
 11 13  1  0
 11 10  1  0
 12 11  2  0
 14 19  1  0
 14  1  1  0
 16 21  1  0
 16 15  2  0
 17 16  1  0
 18 17  2  0
 18 19  1  0
 19 20  2  0
 20 15  1  0
 21 24  1  0
 21 22  1  0
 23 21  1  0
 25 17  1  0
 26 25  2  0
  2 27  1  0
  7 28  1  0
  8 29  1  0
 13 30  1  0
 15 31  1  0
 25 32  1  0
M  ISO  6  27  14  28  14  29  14  30   3  31  14  32   6
M  END
>  <minimizedAffinity>  (1) 
-5.08337975

>  <minimizedRMSD>  (1) 
4.54045868

$$$$
