
     RDKit          3D

 37 40  0  0  0  0  0  0  0  0999 V2000
   42.3760   21.8700   35.0510 C   0  0  0  0  0  0  0  0  0  0  0  0
   42.6440   20.5430   35.2590 C   0  0  0  0  0  0  0  0  0  0  0  0
   43.8790   20.1000   35.6230 C   0  0  0  0  0  0  0  0  0  0  0  0
   44.8910   21.0090   35.7890 C   0  0  0  0  0  0  0  0  0  0  0  0
   44.6580   22.3500   35.5890 C   0  0  0  0  0  0  0  0  0  0  0  0
   43.4250   22.6830   35.2360 N   0  0  0  0  0  0  0  0  0  0  0  0
   45.8200   23.1960   35.8000 C   0  0  0  0  0  0  0  0  0  0  0  0
   46.9450   23.0340   35.0890 N   0  0  0  0  0  0  0  0  0  0  0  0
   48.0520   23.7690   35.2240 C   0  0  0  0  0  0  0  0  0  0  0  0
   48.1190   24.7680   36.1210 N   0  0  0  0  0  0  0  0  0  0  0  0
   47.0300   25.0280   36.9040 C   0  0  0  0  0  0  0  0  0  0  0  0
   47.0650   26.0440   37.8340 C   0  0  0  0  0  0  0  0  0  0  0  0
   45.9710   26.3160   38.6300 C   0  0  0  0  0  0  0  0  0  0  0  0
   44.8420   25.5220   38.4520 C   0  0  0  0  0  0  0  0  0  0  0  0
   44.8660   24.5220   37.5090 C   0  0  0  0  0  0  0  0  0  0  0  0
   45.9350   24.2250   36.7010 C   0  0  0  0  0  0  0  0  0  0  0  0
   41.2840   22.5830   34.6950 O   0  0  0  0  0  0  0  0  0  0  0  0
   40.0190   22.5780   35.2030 C   0  0  0  0  0  0  0  0  0  0  0  0
   39.7820   23.0490   36.5200 C   0  0  0  0  0  0  0  0  0  0  0  0
   38.4700   23.0140   36.9720 C   0  0  0  0  0  0  0  0  0  0  0  0
   37.4930   22.5480   36.1700 N   0  0  0  0  0  0  0  0  0  0  0  0
   37.7690   22.1060   34.9110 C   0  0  0  0  0  0  0  0  0  0  0  0
   39.0050   22.1250   34.4480 N   0  0  0  0  0  0  0  0  0  0  0  0
   38.2780   23.5070   38.3340 C   0  0  0  0  0  0  0  0  0  0  0  0
   37.9330   24.8480   38.3090 F   0  0  0  0  0  0  0  0  0  0  0  0
   39.4980   23.4520   38.9620 F   0  0  0  0  0  0  0  0  0  0  0  0
   37.3130   22.8300   39.0420 F   0  0  0  0  0  0  0  0  0  0  0  0
   41.8341   19.8104   35.1275 H   0  0  0  0  0  0  0  0  0  0  0  0
   44.0619   19.0270   35.7817 H   0  0  0  0  0  0  0  0  0  0  0  0
   45.8935   20.6651   36.0833 H   0  0  0  0  0  0  0  0  0  0  0  0
   48.9245   23.5530   34.5899 H   0  0  0  0  0  0  0  0  0  0  0  0
   47.9783   26.6472   37.9436 H   0  0  0  0  0  0  0  0  0  0  0  0
   45.9905   27.1262   39.3738 H   0  0  0  0  0  0  0  0  0  0  0  0
   43.9406   25.6926   39.0590 H   0  0  0  0  0  0  0  0  0  0  0  0
   43.9577   23.9124   37.3930 H   0  0  0  0  0  0  0  0  0  0  0  0
   40.5994   23.4243   37.1532 H   0  0  0  0  0  0  0  0  0  0  0  0
   36.9544   21.7299   34.2746 H   0  0  0  0  0  0  0  0  0  0  0  0
  1  6  1  0
  1  2  2  0
  2  3  1  0
  3  4  2  0
  5  4  1  0
  5  7  1  0
  6  5  2  0
  7 16  2  0
  8  9  2  0
  8  7  1  0
  9 10  1  0
 10 11  2  0
 11 12  1  0
 12 13  2  0
 14 13  1  0
 15 14  2  0
 16 11  1  0
 16 15  1  0
 17  1  1  0
 17 18  1  0
 18 19  2  0
 19 20  1  0
 20 24  1  0
 21 20  2  0
 22 21  1  0
 23 22  2  0
 23 18  1  0
 24 26  1  0
 24 27  1  0
 25 24  1  0
  2 28  1  0
  3 29  1  0
  4 30  1  0
  9 31  1  0
 12 32  1  0
 13 33  1  0
 14 34  1  0
 15 35  1  0
 19 36  1  0
 22 37  1  0
M  ISO  8  28  14  29  14  30  14  31  14  32  14  33  14  34  14  35  14
M  ISO  2  36  14  37  14
M  END
>  <minimizedAffinity>  (1) 
-5.68159103

>  <minimizedRMSD>  (1) 
3.06148934

$$$$
