
     RDKit          3D

 34 37  0  0  0  0  0  0  0  0999 V2000
   43.0770   21.2140   36.4260 C   0  0  0  0  0  0  0  0  0  0  0  0
   42.8020   19.9260   36.8760 C   0  0  0  0  0  0  0  0  0  0  0  0
   43.7710   18.9670   36.9930 C   0  0  0  0  0  0  0  0  0  0  0  0
   45.0590   19.2980   36.6490 C   0  0  0  0  0  0  0  0  0  0  0  0
   45.3450   20.5630   36.2040 C   0  0  0  0  0  0  0  0  0  0  0  0
   44.3610   21.5180   36.0920 N   0  0  0  0  0  0  0  0  0  0  0  0
   46.7160   20.7880   35.8790 N   0  0  0  0  0  0  0  0  0  0  0  0
   47.5260   19.8520   35.3180 C   0  0  0  0  0  0  0  0  0  0  0  0
   48.7240   20.4440   35.1700 N   0  0  0  0  0  0  0  0  0  0  0  0
   48.7210   21.7000   35.6040 C   0  0  0  0  0  0  0  0  0  0  0  0
   49.6140   22.7480   35.7040 C   0  0  0  0  0  0  0  0  0  0  0  0
   49.2250   23.9270   36.2260 N   0  0  0  0  0  0  0  0  0  0  0  0
   47.9500   24.1210   36.6680 C   0  0  0  0  0  0  0  0  0  0  0  0
   47.0340   23.1220   36.5920 N   0  0  0  0  0  0  0  0  0  0  0  0
   47.4250   21.9340   36.0670 C   0  0  0  0  0  0  0  0  0  0  0  0
   42.3070   22.3020   36.2310 O   0  0  0  0  0  0  0  0  0  0  0  0
   40.9470   22.4650   36.2250 C   0  0  0  0  0  0  0  0  0  0  0  0
   40.3020   22.9530   37.3750 C   0  0  0  0  0  0  0  0  0  0  0  0
   38.9160   23.0960   37.3010 C   0  0  0  0  0  0  0  0  0  0  0  0
   38.2660   22.7750   36.1730 N   0  0  0  0  0  0  0  0  0  0  0  0
   38.9300   22.3040   35.0790 C   0  0  0  0  0  0  0  0  0  0  0  0
   40.2430   22.1550   35.1100 N   0  0  0  0  0  0  0  0  0  0  0  0
   38.2940   23.6050   38.5200 C   0  0  0  0  0  0  0  0  0  0  0  0
   37.7990   24.8720   38.3220 F   0  0  0  0  0  0  0  0  0  0  0  0
   39.2840   23.7310   39.4650 F   0  0  0  0  0  0  0  0  0  0  0  0
   37.2590   22.8200   38.9780 F   0  0  0  0  0  0  0  0  0  0  0  0
   41.7674   19.6695   37.1477 H   0  0  0  0  0  0  0  0  0  0  0  0
   43.5249   17.9572   37.3532 H   0  0  0  0  0  0  0  0  0  0  0  0
   45.8603   18.5488   36.7305 H   0  0  0  0  0  0  0  0  0  0  0  0
   47.2568   18.8218   35.0418 H   0  0  0  0  0  0  0  0  0  0  0  0
   50.6493   22.6194   35.3553 H   0  0  0  0  0  0  0  0  0  0  0  0
   47.6611   25.0950   37.0897 H   0  0  0  0  0  0  0  0  0  0  0  0
   40.8616   23.2091   38.2868 H   0  0  0  0  0  0  0  0  0  0  0  0
   38.3708   22.0471   34.1672 H   0  0  0  0  0  0  0  0  0  0  0  0
  1  2  2  0
  2  3  1  0
  4  3  2  0
  5  4  1  0
  6  5  2  0
  6  1  1  0
  7 15  1  0
  7  5  1  0
  8  7  1  0
  9  8  2  0
  9 10  1  0
 10 11  2  0
 10 15  1  0
 11 12  1  0
 12 13  2  0
 14 13  1  0
 15 14  2  0
 16  1  1  0
 17 16  1  0
 17 18  2  0
 19 18  1  0
 19 23  1  0
 20 19  2  0
 21 22  2  0
 21 20  1  0
 22 17  1  0
 23 26  1  0
 23 25  1  0
 24 23  1  0
  2 27  1  0
  3 28  1  0
  4 29  1  0
  8 30  1  0
 11 31  1  0
 13 32  1  0
 18 33  1  0
 21 34  1  0
M  ISO  8  27  14  28  14  29  14  30  14  31  14  32  14  33  14  34  14
M  END
>  <minimizedAffinity>  (1) 
-4.95471191

>  <minimizedRMSD>  (1) 
0.4884471

$$$$
