
     RDKit          3D

 36 38  0  0  0  0  0  0  0  0999 V2000
   43.0760   21.2000   36.4480 C   0  0  0  0  0  0  0  0  0  0  0  0
   42.8170   19.9340   36.9530 C   0  0  0  0  0  0  0  0  0  0  0  0
   43.7660   18.9500   37.0620 C   0  0  0  0  0  0  0  0  0  0  0  0
   45.0330   19.2360   36.6500 C   0  0  0  0  0  0  0  0  0  0  0  0
   45.3240   20.4850   36.1430 C   0  0  0  0  0  0  0  0  0  0  0  0
   44.3520   21.4540   36.0450 N   0  0  0  0  0  0  0  0  0  0  0  0
   46.6670   20.7930   35.7050 N   0  0  0  0  0  0  0  0  0  0  0  0
   47.4420   21.8670   36.2980 C   0  0  0  0  0  0  0  0  0  0  0  0
   48.7600   21.2900   36.7460 C   0  0  0  0  0  0  0  0  0  0  0  0
   49.2440   20.2860   35.9470 O   0  0  0  0  0  0  0  0  0  0  0  0
   48.7390   20.3220   34.6510 C   0  0  0  0  0  0  0  0  0  0  0  0
   47.2410   20.0010   34.6450 C   0  0  0  0  0  0  0  0  0  0  0  0
   42.3080   22.2830   36.2590 O   0  0  0  0  0  0  0  0  0  0  0  0
   40.9560   22.4540   36.2270 C   0  0  0  0  0  0  0  0  0  0  0  0
   40.3090   22.9380   37.3910 C   0  0  0  0  0  0  0  0  0  0  0  0
   38.9230   23.0940   37.3080 C   0  0  0  0  0  0  0  0  0  0  0  0
   38.2870   22.7910   36.1680 N   0  0  0  0  0  0  0  0  0  0  0  0
   38.9610   22.3280   35.0760 C   0  0  0  0  0  0  0  0  0  0  0  0
   40.2710   22.1620   35.1020 N   0  0  0  0  0  0  0  0  0  0  0  0
   38.2970   23.5930   38.5260 C   0  0  0  0  0  0  0  0  0  0  0  0
   37.8060   24.8690   38.3170 F   0  0  0  0  0  0  0  0  0  0  0  0
   39.2900   23.7370   39.4680 F   0  0  0  0  0  0  0  0  0  0  0  0
   37.2610   22.8230   38.9720 F   0  0  0  0  0  0  0  0  0  0  0  0
   41.7931   19.7068   37.2845 H   0  0  0  0  0  0  0  0  0  0  0  0
   43.5122   17.9603   37.4695 H   0  0  0  0  0  0  0  0  0  0  0  0
   45.8217   18.4725   36.7216 H   0  0  0  0  0  0  0  0  0  0  0  0
   47.6136   22.6594   35.5546 H   0  0  0  0  0  0  0  0  0  0  0  0
   46.9033   22.3038   37.1519 H   0  0  0  0  0  0  0  0  0  0  0  0
   49.5018   22.1020   36.7641 H   0  0  0  0  0  0  0  0  0  0  0  0
   48.5850   20.8439   37.7361 H   0  0  0  0  0  0  0  0  0  0  0  0
   48.8948   21.3264   34.2304 H   0  0  0  0  0  0  0  0  0  0  0  0
   49.2647   19.5691   34.0453 H   0  0  0  0  0  0  0  0  0  0  0  0
   46.7943   20.2739   33.6775 H   0  0  0  0  0  0  0  0  0  0  0  0
   47.0557   18.9272   34.7951 H   0  0  0  0  0  0  0  0  0  0  0  0
   40.8666   23.1775   38.3085 H   0  0  0  0  0  0  0  0  0  0  0  0
   38.4039   22.0888   34.1582 H   0  0  0  0  0  0  0  0  0  0  0  0
  1  2  2  0
  2  3  1  0
  4  3  2  0
  5  4  1  0
  6  5  2  0
  6  1  1  0
  7  5  1  0
  7  8  1  0
  8  9  1  0
 10  9  1  0
 11 10  1  0
 12 11  1  0
 12  7  1  0
 13  1  1  0
 14 13  1  0
 14 15  2  0
 16 15  1  0
 16 20  1  0
 17 16  2  0
 18 19  2  0
 18 17  1  0
 19 14  1  0
 20 23  1  0
 20 22  1  0
 21 20  1  0
  2 24  1  0
  3 25  1  0
  4 26  1  0
  8 27  1  0
  8 28  1  0
  9 29  1  0
  9 30  1  0
 11 31  1  0
 11 32  1  0
 12 33  1  0
 12 34  1  0
 15 35  1  0
 18 36  1  0
M  ISO  8  24  14  25  14  26  14  27  13  28  13  29  13  30  13  31  13
M  ISO  5  32  13  33  13  34  13  35  14  36  14
M  END
>  <minimizedAffinity>  (1) 
-4.71751213

>  <minimizedRMSD>  (1) 
0.231137514

$$$$
