
     RDKit          3D

 35 36  0  0  0  0  0  0  0  0999 V2000
   42.3180   22.2630   36.2620 O   0  0  0  0  0  0  0  0  0  0  0  0
   43.0820   21.1830   36.4510 C   0  0  0  0  0  0  0  0  0  0  0  0
   42.8080   19.9170   36.9560 C   0  0  0  0  0  0  0  0  0  0  0  0
   43.7440   18.9170   37.0750 C   0  0  0  0  0  0  0  0  0  0  0  0
   45.0190   19.1910   36.6670 C   0  0  0  0  0  0  0  0  0  0  0  0
   45.3140   20.4460   36.1610 C   0  0  0  0  0  0  0  0  0  0  0  0
   44.3520   21.4220   36.0580 N   0  0  0  0  0  0  0  0  0  0  0  0
   46.7330   20.6330   35.7490 C   0  0  0  0  0  0  0  0  0  0  0  0
   47.5550   19.6560   36.5780 C   0  0  0  0  0  0  0  0  0  0  0  0
   47.1370   22.0140   36.2020 C   0  0  0  0  0  0  0  0  0  0  0  0
   46.9900   20.3570   34.3020 C   0  0  0  0  0  0  0  0  0  0  0  0
   40.9690   22.4470   36.2400 C   0  0  0  0  0  0  0  0  0  0  0  0
   40.3170   22.9330   37.3940 C   0  0  0  0  0  0  0  0  0  0  0  0
   38.9370   23.0980   37.3000 C   0  0  0  0  0  0  0  0  0  0  0  0
   38.2980   22.8030   36.1660 N   0  0  0  0  0  0  0  0  0  0  0  0
   38.9710   22.3350   35.0750 C   0  0  0  0  0  0  0  0  0  0  0  0
   40.2790   22.1600   35.1100 N   0  0  0  0  0  0  0  0  0  0  0  0
   38.3030   23.6030   38.5170 C   0  0  0  0  0  0  0  0  0  0  0  0
   37.8110   24.8770   38.3100 F   0  0  0  0  0  0  0  0  0  0  0  0
   39.2920   23.7340   39.4750 F   0  0  0  0  0  0  0  0  0  0  0  0
   37.2690   22.8230   38.9720 F   0  0  0  0  0  0  0  0  0  0  0  0
   41.7791   19.7022   37.2803 H   0  0  0  0  0  0  0  0  0  0  0  0
   43.4761   17.9316   37.4840 H   0  0  0  0  0  0  0  0  0  0  0  0
   45.8029   18.4228   36.7397 H   0  0  0  0  0  0  0  0  0  0  0  0
   47.3894   19.8528   37.6475 H   0  0  0  0  0  0  0  0  0  0  0  0
   47.2475   18.6264   36.3428 H   0  0  0  0  0  0  0  0  0  0  0  0
   48.6220   19.7828   36.3428 H   0  0  0  0  0  0  0  0  0  0  0  0
   47.1478   22.0508   37.3013 H   0  0  0  0  0  0  0  0  0  0  0  0
   48.1409   22.2470   35.8175 H   0  0  0  0  0  0  0  0  0  0  0  0
   46.4169   22.7513   35.8175 H   0  0  0  0  0  0  0  0  0  0  0  0
   47.7369   19.5549   34.2087 H   0  0  0  0  0  0  0  0  0  0  0  0
   46.0538   20.0445   33.8164 H   0  0  0  0  0  0  0  0  0  0  0  0
   47.3684   21.2686   33.8164 H   0  0  0  0  0  0  0  0  0  0  0  0
   40.8682   23.1684   38.3164 H   0  0  0  0  0  0  0  0  0  0  0  0
   38.4164   22.1005   34.1544 H   0  0  0  0  0  0  0  0  0  0  0  0
  1  2  1  0
  2  3  2  0
  3  4  1  0
  5  4  2  0
  6  5  1  0
  7  6  2  0
  7  2  1  0
  8  6  1  0
  8 10  1  0
  8  9  1  0
 11  8  1  0
 12  1  1  0
 12 13  2  0
 14 13  1  0
 14 18  1  0
 15 14  2  0
 16 17  2  0
 16 15  1  0
 17 12  1  0
 18 21  1  0
 18 20  1  0
 19 18  1  0
  3 22  1  0
  4 23  1  0
  5 24  1  0
  9 25  1  0
  9 26  1  0
  9 27  1  0
 10 28  1  0
 10 29  1  0
 10 30  1  0
 11 31  1  0
 11 32  1  0
 11 33  1  0
 13 34  1  0
 16 35  1  0
M  ISO  8  22  14  23  14  24  14  25   8  26   8  27   8  28   8  29   8
M  ISO  6  30   8  31   8  32   8  33   8  34  14  35  14
M  END
>  <minimizedAffinity>  (1) 
-4.57562637

>  <minimizedRMSD>  (1) 
0.207714558

$$$$
