
     RDKit          3D

 26 27  0  0  0  0  0  0  0  0999 V2000
   41.0220   22.4560   36.2830 C   0  0  0  0  0  0  0  0  0  0  0  0
   40.3540   22.9490   37.4300 C   0  0  0  0  0  0  0  0  0  0  0  0
   38.9730   23.0900   37.3260 C   0  0  0  0  0  0  0  0  0  0  0  0
   38.3530   22.7610   36.1760 N   0  0  0  0  0  0  0  0  0  0  0  0
   39.0390   22.2910   35.1030 C   0  0  0  0  0  0  0  0  0  0  0  0
   40.3500   22.1400   35.1510 N   0  0  0  0  0  0  0  0  0  0  0  0
   38.3170   23.5970   38.5160 C   0  0  0  0  0  0  0  0  0  0  0  0
   37.8190   24.8650   38.2920 F   0  0  0  0  0  0  0  0  0  0  0  0
   39.2840   23.7380   39.4920 F   0  0  0  0  0  0  0  0  0  0  0  0
   37.2750   22.8120   38.9630 F   0  0  0  0  0  0  0  0  0  0  0  0
   42.3840   22.2970   36.3280 O   0  0  0  0  0  0  0  0  0  0  0  0
   43.1500   21.2080   36.4920 C   0  0  0  0  0  0  0  0  0  0  0  0
   42.9160   19.9590   37.0580 C   0  0  0  0  0  0  0  0  0  0  0  0
   43.8630   18.9730   37.1200 C   0  0  0  0  0  0  0  0  0  0  0  0
   45.1050   19.2350   36.5930 C   0  0  0  0  0  0  0  0  0  0  0  0
   45.3540   20.4580   36.0310 C   0  0  0  0  0  0  0  0  0  0  0  0
   44.3920   21.4400   35.9780 N   0  0  0  0  0  0  0  0  0  0  0  0
   46.7300   20.6270   35.4950 C   0  0  0  0  0  0  0  0  0  0  0  0
   40.8961   23.2063   38.3519 H   0  0  0  0  0  0  0  0  0  0  0  0
   38.4960   22.0327   34.1819 H   0  0  0  0  0  0  0  0  0  0  0  0
   41.9198   19.7536   37.4767 H   0  0  0  0  0  0  0  0  0  0  0  0
   43.6367   17.9990   37.5783 H   0  0  0  0  0  0  0  0  0  0  0  0
   45.8928   18.4678   36.6226 H   0  0  0  0  0  0  0  0  0  0  0  0
   47.4406   20.7143   36.3301 H   0  0  0  0  0  0  0  0  0  0  0  0
   46.9933   19.7544   34.8791 H   0  0  0  0  0  0  0  0  0  0  0  0
   46.7744   21.5373   34.8791 H   0  0  0  0  0  0  0  0  0  0  0  0
  1 11  1  0
  1  2  2  0
  3  2  1  0
  3  7  1  0
  4  3  2  0
  5  6  2  0
  5  4  1  0
  6  1  1  0
  7 10  1  0
  7  9  1  0
  8  7  1  0
 11 12  1  0
 12 13  2  0
 13 14  1  0
 15 14  2  0
 16 15  1  0
 17 16  2  0
 17 12  1  0
 18 16  1  0
  2 19  1  0
  5 20  1  0
 13 21  1  0
 14 22  1  0
 15 23  1  0
 18 24  1  0
 18 25  1  0
 18 26  1  0
M  ISO  8  19  14  20  14  21  14  22  14  23  14  24   8  25   8  26   8
M  END
>  <minimizedAffinity>  (1) 
-4.4981308

>  <minimizedRMSD>  (1) 
0.0349089913

$$$$
