
     RDKit          3D

 31 33  0  0  0  0  0  0  0  0999 V2000
   43.0880   21.2140   36.4380 C   0  0  0  0  0  0  0  0  0  0  0  0
   42.8400   19.9500   36.9280 C   0  0  0  0  0  0  0  0  0  0  0  0
   43.7950   18.9780   37.0380 C   0  0  0  0  0  0  0  0  0  0  0  0
   45.0700   19.2800   36.6370 C   0  0  0  0  0  0  0  0  0  0  0  0
   45.3490   20.5280   36.1450 C   0  0  0  0  0  0  0  0  0  0  0  0
   44.3700   21.4700   36.0510 N   0  0  0  0  0  0  0  0  0  0  0  0
   46.7120   20.8840   35.7050 C   0  0  0  0  0  0  0  0  0  0  0  0
   47.4210   21.9090   36.2280 C   0  0  0  0  0  0  0  0  0  0  0  0
   48.6960   22.2510   35.8250 C   0  0  0  0  0  0  0  0  0  0  0  0
   49.2600   21.5000   34.8380 N   0  0  0  0  0  0  0  0  0  0  0  0
   48.5690   20.4750   34.3040 C   0  0  0  0  0  0  0  0  0  0  0  0
   47.3170   20.1760   34.7330 N   0  0  0  0  0  0  0  0  0  0  0  0
   42.3110   22.2860   36.2520 O   0  0  0  0  0  0  0  0  0  0  0  0
   40.9640   22.4540   36.2310 C   0  0  0  0  0  0  0  0  0  0  0  0
   40.3120   22.9480   37.3880 C   0  0  0  0  0  0  0  0  0  0  0  0
   38.9270   23.1000   37.3050 C   0  0  0  0  0  0  0  0  0  0  0  0
   38.2860   22.7840   36.1730 N   0  0  0  0  0  0  0  0  0  0  0  0
   38.9620   22.3080   35.0760 C   0  0  0  0  0  0  0  0  0  0  0  0
   40.2680   22.1530   35.1220 N   0  0  0  0  0  0  0  0  0  0  0  0
   38.2950   23.6100   38.5130 C   0  0  0  0  0  0  0  0  0  0  0  0
   37.8000   24.8760   38.3150 F   0  0  0  0  0  0  0  0  0  0  0  0
   39.2820   23.7360   39.4780 F   0  0  0  0  0  0  0  0  0  0  0  0
   37.2640   22.8190   38.9750 F   0  0  0  0  0  0  0  0  0  0  0  0
   41.8156   19.7096   37.2488 H   0  0  0  0  0  0  0  0  0  0  0  0
   43.5473   17.9831   37.4365 H   0  0  0  0  0  0  0  0  0  0  0  0
   45.8658   18.5241   36.7097 H   0  0  0  0  0  0  0  0  0  0  0  0
   46.9532   22.5074   37.0237 H   0  0  0  0  0  0  0  0  0  0  0  0
   49.2343   23.0946   36.2816 H   0  0  0  0  0  0  0  0  0  0  0  0
   49.0269   19.8704   33.5072 H   0  0  0  0  0  0  0  0  0  0  0  0
   40.8681   23.1985   38.3034 H   0  0  0  0  0  0  0  0  0  0  0  0
   38.4110   22.0561   34.1579 H   0  0  0  0  0  0  0  0  0  0  0  0
  1  2  2  0
  2  3  1  0
  4  3  2  0
  5  4  1  0
  6  5  2  0
  6  1  1  0
  7  5  1  0
  7  8  2  0
  9  8  1  0
 10  9  2  0
 11 12  2  0
 11 10  1  0
 12  7  1  0
 13  1  1  0
 14 13  1  0
 14 15  2  0
 16 15  1  0
 16 20  1  0
 17 16  2  0
 18 19  2  0
 18 17  1  0
 19 14  1  0
 20 23  1  0
 20 22  1  0
 21 20  1  0
  2 24  1  0
  3 25  1  0
  4 26  1  0
  8 27  1  0
  9 28  1  0
 11 29  1  0
 15 30  1  0
 18 31  1  0
M  ISO  8  24  14  25  14  26  14  27  14  28  14  29  14  30  14  31  14
M  END
>  <minimizedAffinity>  (1) 
-4.47331238

>  <minimizedRMSD>  (1) 
0.461834013

$$$$
