
     RDKit          3D

 31 33  0  0  0  0  0  0  0  0999 V2000
   43.1030   21.1970   36.4550 C   0  0  0  0  0  0  0  0  0  0  0  0
   42.8420   19.9300   36.9650 C   0  0  0  0  0  0  0  0  0  0  0  0
   43.7800   18.9370   37.0700 C   0  0  0  0  0  0  0  0  0  0  0  0
   45.0560   19.2350   36.6380 C   0  0  0  0  0  0  0  0  0  0  0  0
   45.3420   20.4760   36.1310 C   0  0  0  0  0  0  0  0  0  0  0  0
   44.3790   21.4410   36.0410 N   0  0  0  0  0  0  0  0  0  0  0  0
   46.7220   20.7430   35.6830 C   0  0  0  0  0  0  0  0  0  0  0  0
   47.5190   21.6860   36.2970 C   0  0  0  0  0  0  0  0  0  0  0  0
   48.7900   21.8330   35.7730 C   0  0  0  0  0  0  0  0  0  0  0  0
   49.2150   21.0960   34.7290 N   0  0  0  0  0  0  0  0  0  0  0  0
   48.4200   20.1790   34.1420 C   0  0  0  0  0  0  0  0  0  0  0  0
   47.1810   20.0270   34.6430 N   0  0  0  0  0  0  0  0  0  0  0  0
   42.3390   22.2840   36.2720 O   0  0  0  0  0  0  0  0  0  0  0  0
   40.9840   22.4540   36.2470 C   0  0  0  0  0  0  0  0  0  0  0  0
   40.3230   22.9350   37.4040 C   0  0  0  0  0  0  0  0  0  0  0  0
   38.9400   23.0860   37.3090 C   0  0  0  0  0  0  0  0  0  0  0  0
   38.3120   22.7820   36.1730 N   0  0  0  0  0  0  0  0  0  0  0  0
   38.9950   22.3210   35.0810 C   0  0  0  0  0  0  0  0  0  0  0  0
   40.3010   22.1600   35.1170 N   0  0  0  0  0  0  0  0  0  0  0  0
   38.3060   23.5860   38.5310 C   0  0  0  0  0  0  0  0  0  0  0  0
   37.8060   24.8680   38.3060 F   0  0  0  0  0  0  0  0  0  0  0  0
   39.2930   23.7380   39.4780 F   0  0  0  0  0  0  0  0  0  0  0  0
   37.2680   22.8230   38.9630 F   0  0  0  0  0  0  0  0  0  0  0  0
   41.8190   19.7115   37.3052 H   0  0  0  0  0  0  0  0  0  0  0  0
   43.5275   17.9479   37.4798 H   0  0  0  0  0  0  0  0  0  0  0  0
   45.8472   18.4734   36.7007 H   0  0  0  0  0  0  0  0  0  0  0  0
   47.1657   22.2838   37.1502 H   0  0  0  0  0  0  0  0  0  0  0  0
   49.4718   22.5711   36.2205 H   0  0  0  0  0  0  0  0  0  0  0  0
   48.7701   19.5798   33.2885 H   0  0  0  0  0  0  0  0  0  0  0  0
   40.8708   23.1762   38.3269 H   0  0  0  0  0  0  0  0  0  0  0  0
   38.4447   22.0813   34.1592 H   0  0  0  0  0  0  0  0  0  0  0  0
  1  2  2  0
  2  3  1  0
  4  3  2  0
  5  4  1  0
  6  5  2  0
  6  1  1  0
  7  5  1  0
  7  8  2  0
  9  8  1  0
 10  9  2  0
 11 12  2  0
 11 10  1  0
 12  7  1  0
 13  1  1  0
 14 13  1  0
 14 15  2  0
 16 15  1  0
 16 20  1  0
 17 16  2  0
 18 19  2  0
 18 17  1  0
 19 14  1  0
 20 23  1  0
 20 22  1  0
 21 20  1  0
  2 24  1  0
  3 25  1  0
  4 26  1  0
  8 27  1  0
  9 28  1  0
 11 29  1  0
 15 30  1  0
 18 31  1  0
M  ISO  8  24  14  25  14  26  14  27  14  28  14  29  14  30  14  31  14
M  END
>  <minimizedAffinity>  (1) 
-4.46248484

>  <minimizedRMSD>  (1) 
0.239708111

$$$$
