
     RDKit          3D

 24 25  0  0  0  0  0  0  0  0999 V2000
   41.0290   22.4630   36.2830 C   0  0  0  0  0  0  0  0  0  0  0  0
   40.3550   22.9540   37.4260 C   0  0  0  0  0  0  0  0  0  0  0  0
   38.9700   23.0890   37.3180 C   0  0  0  0  0  0  0  0  0  0  0  0
   38.3460   22.7600   36.1720 N   0  0  0  0  0  0  0  0  0  0  0  0
   39.0350   22.2930   35.0990 C   0  0  0  0  0  0  0  0  0  0  0  0
   40.3480   22.1490   35.1580 N   0  0  0  0  0  0  0  0  0  0  0  0
   38.3160   23.5950   38.5170 C   0  0  0  0  0  0  0  0  0  0  0  0
   37.8150   24.8620   38.2940 F   0  0  0  0  0  0  0  0  0  0  0  0
   39.2860   23.7370   39.4890 F   0  0  0  0  0  0  0  0  0  0  0  0
   37.2750   22.8120   38.9620 F   0  0  0  0  0  0  0  0  0  0  0  0
   42.3850   22.3100   36.3270 O   0  0  0  0  0  0  0  0  0  0  0  0
   43.1530   21.2110   36.4920 C   0  0  0  0  0  0  0  0  0  0  0  0
   42.9240   19.9680   37.0730 C   0  0  0  0  0  0  0  0  0  0  0  0
   43.8750   18.9880   37.1240 C   0  0  0  0  0  0  0  0  0  0  0  0
   45.1060   19.2510   36.5740 C   0  0  0  0  0  0  0  0  0  0  0  0
   45.3490   20.4700   35.9980 C   0  0  0  0  0  0  0  0  0  0  0  0
   44.3880   21.4520   35.9500 N   0  0  0  0  0  0  0  0  0  0  0  0
   46.9960   20.6760   35.3230 S   0  0  0  0  0  0  0  0  0  0  0  0
   40.8931   23.2151   38.3492 H   0  0  0  0  0  0  0  0  0  0  0  0
   38.4975   22.0329   34.1752 H   0  0  0  0  0  0  0  0  0  0  0  0
   41.9351   19.7653   37.5101 H   0  0  0  0  0  0  0  0  0  0  0  0
   43.6608   18.0160   37.5923 H   0  0  0  0  0  0  0  0  0  0  0  0
   45.8948   18.4846   36.5960 H   0  0  0  0  0  0  0  0  0  0  0  0
   47.8986   20.7889   36.3475 H   0  0  0  0  0  0  0  0  0  0  0  0
  1 11  1  0
  1  2  2  0
  3  2  1  0
  3  7  1  0
  4  3  2  0
  5  6  2  0
  5  4  1  0
  6  1  1  0
  7 10  1  0
  7  9  1  0
  8  7  1  0
 11 12  1  0
 12 13  2  0
 13 14  1  0
 15 14  2  0
 16 15  1  0
 17 16  2  0
 17 12  1  0
 18 16  1  0
  2 19  1  0
  5 20  1  0
 13 21  1  0
 14 22  1  0
 15 23  1  0
 18 24  1  0
M  ISO  6  19  14  20  14  21  14  22  14  23  14  24  11
M  END
>  <minimizedAffinity>  (1) 
-4.46115446

>  <minimizedRMSD>  (1) 
0.00850698631

$$$$
