
     RDKit          3D

 30 32  0  0  0  0  0  0  0  0999 V2000
   43.0900   21.2130   36.4450 C   0  0  0  0  0  0  0  0  0  0  0  0
   42.8260   19.9390   36.9410 C   0  0  0  0  0  0  0  0  0  0  0  0
   43.7690   18.9450   37.0510 C   0  0  0  0  0  0  0  0  0  0  0  0
   45.0500   19.2610   36.6360 C   0  0  0  0  0  0  0  0  0  0  0  0
   45.3360   20.5070   36.1460 C   0  0  0  0  0  0  0  0  0  0  0  0
   44.3710   21.4640   36.0530 N   0  0  0  0  0  0  0  0  0  0  0  0
   46.7230   20.7680   35.7240 C   0  0  0  0  0  0  0  0  0  0  0  0
   47.5790   21.6770   36.3140 C   0  0  0  0  0  0  0  0  0  0  0  0
   48.7750   21.5850   35.5900 C   0  0  0  0  0  0  0  0  0  0  0  0
   48.5580   20.6170   34.6050 C   0  0  0  0  0  0  0  0  0  0  0  0
   47.3080   20.1760   34.7510 O   0  0  0  0  0  0  0  0  0  0  0  0
   42.3220   22.2930   36.2620 O   0  0  0  0  0  0  0  0  0  0  0  0
   40.9670   22.4600   36.2370 C   0  0  0  0  0  0  0  0  0  0  0  0
   40.3100   22.9450   37.3760 C   0  0  0  0  0  0  0  0  0  0  0  0
   38.9340   23.0960   37.2970 C   0  0  0  0  0  0  0  0  0  0  0  0
   38.2900   22.7840   36.1690 N   0  0  0  0  0  0  0  0  0  0  0  0
   38.9620   22.3140   35.0780 C   0  0  0  0  0  0  0  0  0  0  0  0
   40.2730   22.1560   35.1150 N   0  0  0  0  0  0  0  0  0  0  0  0
   38.3000   23.6040   38.5120 C   0  0  0  0  0  0  0  0  0  0  0  0
   37.8060   24.8760   38.3120 F   0  0  0  0  0  0  0  0  0  0  0  0
   39.2870   23.7340   39.4720 F   0  0  0  0  0  0  0  0  0  0  0  0
   37.2650   22.8200   38.9700 F   0  0  0  0  0  0  0  0  0  0  0  0
   41.7991   19.7141   37.2649 H   0  0  0  0  0  0  0  0  0  0  0  0
   43.5180   17.9504   37.4482 H   0  0  0  0  0  0  0  0  0  0  0  0
   45.8460   18.5045   36.7002 H   0  0  0  0  0  0  0  0  0  0  0  0
   47.3669   22.3338   37.1705 H   0  0  0  0  0  0  0  0  0  0  0  0
   49.6979   22.1584   35.7618 H   0  0  0  0  0  0  0  0  0  0  0  0
   49.2838   20.2813   33.8496 H   0  0  0  0  0  0  0  0  0  0  0  0
   40.8625   23.1952   38.2937 H   0  0  0  0  0  0  0  0  0  0  0  0
   38.4078   22.0649   34.1610 H   0  0  0  0  0  0  0  0  0  0  0  0
  1  2  2  0
  2  3  1  0
  4  3  2  0
  5  4  1  0
  6  5  2  0
  6  1  1  0
  7  5  1  0
  7  8  2  0
  9  8  1  0
 10 11  1  0
 10  9  2  0
 11  7  1  0
 12  1  1  0
 13 12  1  0
 13 14  2  0
 15 14  1  0
 15 19  1  0
 16 15  2  0
 17 18  2  0
 17 16  1  0
 18 13  1  0
 19 22  1  0
 19 21  1  0
 20 19  1  0
  2 23  1  0
  3 24  1  0
  4 25  1  0
  8 26  1  0
  9 27  1  0
 10 28  1  0
 14 29  1  0
 17 30  1  0
M  ISO  8  23  14  24  14  25  14  26  14  27  14  28  14  29  14  30  14
M  END
>  <minimizedAffinity>  (1) 
-4.44401932

>  <minimizedRMSD>  (1) 
0.289972454

$$$$
