
     RDKit          3D

 32 34  0  0  0  0  0  0  0  0999 V2000
   43.4850   22.6030   33.9740 C   0  0  0  0  0  0  0  0  0  0  0  0
   43.3500   23.9370   34.4050 C   0  0  0  0  0  0  0  0  0  0  0  0
   45.0010   24.6650   33.9520 S   0  0  0  0  0  0  0  0  0  0  0  0
   45.5670   22.9960   33.2540 C   0  0  0  0  0  0  0  0  0  0  0  0
   44.6520   22.3980   33.4500 N   0  0  0  0  0  0  0  0  0  0  0  0
   46.8450   22.6780   32.6530 N   0  0  0  0  0  0  0  0  0  0  0  0
   47.7340   22.1350   33.5130 C   0  0  0  0  0  0  0  0  0  0  0  0
   48.8870   21.8930   32.7920 C   0  0  0  0  0  0  0  0  0  0  0  0
   48.6320   22.3050   31.5260 N   0  0  0  0  0  0  0  0  0  0  0  0
   47.3830   22.7840   31.4440 C   0  0  0  0  0  0  0  0  0  0  0  0
   46.6270   23.3360   30.3530 C   0  0  0  0  0  0  0  0  0  0  0  0
   46.0670   22.5940   29.5210 O   0  0  0  0  0  0  0  0  0  0  0  0
   46.5530   24.7290   30.2730 O   0  0  0  0  0  0  0  0  0  0  0  0
   42.0900   21.4930   34.2160 S   0  0  0  0  0  0  0  0  0  0  0  0
   40.5330   22.4530   37.7660 C   0  0  0  0  0  0  0  0  0  0  0  0
   39.3490   23.1170   37.4390 C   0  0  0  0  0  0  0  0  0  0  0  0
   39.0510   23.2550   36.0940 C   0  0  0  0  0  0  0  0  0  0  0  0
   39.9020   22.7520   35.1400 N   0  0  0  0  0  0  0  0  0  0  0  0
   41.0440   22.1140   35.5140 C   0  0  0  0  0  0  0  0  0  0  0  0
   41.3280   21.9820   36.8140 N   0  0  0  0  0  0  0  0  0  0  0  0
   37.8840   23.9060   35.6020 N   0  0  0  0  0  0  0  0  0  0  0  0
   38.4070   23.6730   38.4400 C   0  0  0  0  0  0  0  0  0  0  0  0
   39.1390   23.8170   39.6290 F   0  0  0  0  0  0  0  0  0  0  0  0
   37.3170   22.9310   38.6470 F   0  0  0  0  0  0  0  0  0  0  0  0
   38.0990   25.0290   38.1210 F   0  0  0  0  0  0  0  0  0  0  0  0
   42.4889   24.4238   34.8862 H   0  0  0  0  0  0  0  0  0  0  0  0
   47.5712   21.9260   34.5806 H   0  0  0  0  0  0  0  0  0  0  0  0
   49.8228   21.4546   33.1689 H   0  0  0  0  0  0  0  0  0  0  0  0
   46.0438   25.1563   29.5393 H   0  0  0  0  0  0  0  0  0  0  0  0
   40.8091   22.3192   38.8224 H   0  0  0  0  0  0  0  0  0  0  0  0
   37.7217   23.9746   34.5872 H   0  0  0  0  0  0  0  0  0  0  0  0
   37.2022   24.3083   36.2609 H   0  0  0  0  0  0  0  0  0  0  0  0
  1 14  1  0
  1  2  2  0
  3  2  1  0
  4  5  2  0
  4  3  1  0
  5  1  1  0
  6  4  1  0
  6  7  1  0
  8  7  2  0
  9  8  1  0
 10  9  2  0
 10  6  1  0
 11 10  1  0
 12 11  2  0
 13 11  1  0
 14 19  1  0
 16 15  2  0
 16 22  1  0
 17 16  1  0
 18 19  1  0
 18 17  2  0
 19 20  2  0
 20 15  1  0
 21 17  1  0
 22 24  1  0
 22 23  1  0
 25 22  1  0
  2 26  1  0
  7 27  1  0
  8 28  1  0
 13 29  1  0
 15 30  1  0
 21 31  1  0
 21 32  1  0
M  ISO  5  26  14  27  14  28  14  29   3  30  14
M  END
>  <minimizedAffinity>  (1) 
-3.78111649

>  <minimizedRMSD>  (1) 
0.134447604

$$$$
