
     RDKit          3D

 28 30  0  0  0  0  0  0  0  0999 V2000
   43.1200   21.1940   36.4920 C   0  0  0  0  0  0  0  0  0  0  0  0
   42.8730   19.9360   37.0360 C   0  0  0  0  0  0  0  0  0  0  0  0
   43.8370   18.9740   37.0980 C   0  0  0  0  0  0  0  0  0  0  0  0
   45.0840   19.2420   36.6160 C   0  0  0  0  0  0  0  0  0  0  0  0
   45.3500   20.4720   36.0780 C   0  0  0  0  0  0  0  0  0  0  0  0
   44.3800   21.4450   36.0120 N   0  0  0  0  0  0  0  0  0  0  0  0
   46.7140   20.6630   35.5890 C   0  0  0  0  0  0  0  0  0  0  0  0
   47.4520   20.3010   34.5580 N   0  0  0  0  0  0  0  0  0  0  0  0
   48.6520   20.8170   34.7020 O   0  0  0  0  0  0  0  0  0  0  0  0
   48.7150   21.5170   35.8150 C   0  0  0  0  0  0  0  0  0  0  0  0
   47.4950   21.4220   36.3760 N   0  0  0  0  0  0  0  0  0  0  0  0
   42.3630   22.2960   36.3130 O   0  0  0  0  0  0  0  0  0  0  0  0
   41.0110   22.4580   36.2760 C   0  0  0  0  0  0  0  0  0  0  0  0
   40.3430   22.9390   37.4250 C   0  0  0  0  0  0  0  0  0  0  0  0
   38.9550   23.0840   37.3190 C   0  0  0  0  0  0  0  0  0  0  0  0
   38.3280   22.7700   36.1740 N   0  0  0  0  0  0  0  0  0  0  0  0
   39.0200   22.3070   35.0900 C   0  0  0  0  0  0  0  0  0  0  0  0
   40.3300   22.1590   35.1530 N   0  0  0  0  0  0  0  0  0  0  0  0
   38.3070   23.5850   38.5300 C   0  0  0  0  0  0  0  0  0  0  0  0
   37.8090   24.8630   38.3010 F   0  0  0  0  0  0  0  0  0  0  0  0
   39.2850   23.7400   39.4820 F   0  0  0  0  0  0  0  0  0  0  0  0
   37.2700   22.8210   38.9630 F   0  0  0  0  0  0  0  0  0  0  0  0
   41.8698   19.7118   37.4275 H   0  0  0  0  0  0  0  0  0  0  0  0
   43.6106   17.9895   37.5334 H   0  0  0  0  0  0  0  0  0  0  0  0
   45.8710   18.4747   36.6593 H   0  0  0  0  0  0  0  0  0  0  0  0
   49.5845   22.0659   36.2057 H   0  0  0  0  0  0  0  0  0  0  0  0
   40.8837   23.1856   38.3506 H   0  0  0  0  0  0  0  0  0  0  0  0
   38.4837   22.0571   34.1627 H   0  0  0  0  0  0  0  0  0  0  0  0
  1  2  2  0
  2  3  1  0
  4  3  2  0
  5  4  1  0
  6  5  2  0
  6  1  1  0
  7  5  1  0
  7 11  1  0
  8  9  1  0
  8  7  2  0
  9 10  1  0
 10 11  2  0
 12  1  1  0
 13 12  1  0
 13 14  2  0
 15 14  1  0
 15 19  1  0
 16 15  2  0
 17 18  2  0
 17 16  1  0
 18 13  1  0
 19 22  1  0
 19 21  1  0
 20 19  1  0
  2 23  1  0
  3 24  1  0
  4 25  1  0
 10 26  1  0
 14 27  1  0
 17 28  1  0
M  ISO  6  23  14  24  14  25  14  26  14  27  14  28  14
M  END
>  <minimizedAffinity>  (1) 
-4.43623018

>  <minimizedRMSD>  (1) 
0.125240535

$$$$
