
     RDKit          3D

 30 32  0  0  0  0  0  0  0  0999 V2000
   43.1140   21.2310   36.4490 C   0  0  0  0  0  0  0  0  0  0  0  0
   42.8740   19.9690   36.9760 C   0  0  0  0  0  0  0  0  0  0  0  0
   43.8320   18.9980   37.0730 C   0  0  0  0  0  0  0  0  0  0  0  0
   45.0880   19.2870   36.6290 C   0  0  0  0  0  0  0  0  0  0  0  0
   45.3550   20.5340   36.1000 C   0  0  0  0  0  0  0  0  0  0  0  0
   44.3730   21.4950   36.0130 N   0  0  0  0  0  0  0  0  0  0  0  0
   46.7240   20.8400   35.6200 C   0  0  0  0  0  0  0  0  0  0  0  0
   47.6230   21.6420   36.2880 C   0  0  0  0  0  0  0  0  0  0  0  0
   48.7410   21.6770   35.5420 N   0  0  0  0  0  0  0  0  0  0  0  0
   48.4970   20.9130   34.4620 C   0  0  0  0  0  0  0  0  0  0  0  0
   47.2560   20.3780   34.4760 N   0  0  0  0  0  0  0  0  0  0  0  0
   42.3360   22.3140   36.2620 O   0  0  0  0  0  0  0  0  0  0  0  0
   40.9880   22.4670   36.2400 C   0  0  0  0  0  0  0  0  0  0  0  0
   40.3180   22.9460   37.3930 C   0  0  0  0  0  0  0  0  0  0  0  0
   38.9390   23.0820   37.3140 C   0  0  0  0  0  0  0  0  0  0  0  0
   38.3050   22.7650   36.1780 N   0  0  0  0  0  0  0  0  0  0  0  0
   38.9850   22.3080   35.0900 C   0  0  0  0  0  0  0  0  0  0  0  0
   40.2980   22.1620   35.1180 N   0  0  0  0  0  0  0  0  0  0  0  0
   38.2920   23.5770   38.5260 C   0  0  0  0  0  0  0  0  0  0  0  0
   37.8050   24.8660   38.3050 F   0  0  0  0  0  0  0  0  0  0  0  0
   39.2890   23.7390   39.4760 F   0  0  0  0  0  0  0  0  0  0  0  0
   37.2570   22.8170   38.9680 F   0  0  0  0  0  0  0  0  0  0  0  0
   41.8599   19.7382   37.3343 H   0  0  0  0  0  0  0  0  0  0  0  0
   43.5956   18.0111   37.4975 H   0  0  0  0  0  0  0  0  0  0  0  0
   45.8844   18.5308   36.6918 H   0  0  0  0  0  0  0  0  0  0  0  0
   47.4580   22.1549   37.2470 H   0  0  0  0  0  0  0  0  0  0  0  0
   49.2267   20.7426   33.6567 H   0  0  0  0  0  0  0  0  0  0  0  0
   46.8207   19.7615   33.7750 H   0  0  0  0  0  0  0  0  0  0  0  0
   40.8674   23.1993   38.3117 H   0  0  0  0  0  0  0  0  0  0  0  0
   38.4321   22.0563   34.1729 H   0  0  0  0  0  0  0  0  0  0  0  0
  1  2  2  0
  2  3  1  0
  4  3  2  0
  5  4  1  0
  6  5  2  0
  6  1  1  0
  7  5  1  0
  7  8  2  0
  9  8  1  0
 10 11  1  0
 10  9  2  0
 11  7  1  0
 12  1  1  0
 13 12  1  0
 13 14  2  0
 15 14  1  0
 15 19  1  0
 16 15  2  0
 17 18  2  0
 17 16  1  0
 18 13  1  0
 19 22  1  0
 19 21  1  0
 20 19  1  0
  2 23  1  0
  3 24  1  0
  4 25  1  0
  8 26  1  0
 10 27  1  0
 11 28  1  0
 14 29  1  0
 17 30  1  0
M  ISO  8  23  14  24  14  25  14  26  14  27  14  28   9  29  14  30  14
M  END
>  <minimizedAffinity>  (1) 
-4.41732645

>  <minimizedRMSD>  (1) 
0.176008865

$$$$
