
     RDKit          3D

 26 27  0  0  0  0  0  0  0  0999 V2000
   42.3400   22.2600   36.2850 O   0  0  0  0  0  0  0  0  0  0  0  0
   43.1060   21.1840   36.4580 C   0  0  0  0  0  0  0  0  0  0  0  0
   42.8410   19.9100   36.9520 C   0  0  0  0  0  0  0  0  0  0  0  0
   43.7600   18.8990   37.0640 C   0  0  0  0  0  0  0  0  0  0  0  0
   45.0450   19.1950   36.6460 C   0  0  0  0  0  0  0  0  0  0  0  0
   45.3390   20.4510   36.1500 C   0  0  0  0  0  0  0  0  0  0  0  0
   44.3790   21.4210   36.0620 N   0  0  0  0  0  0  0  0  0  0  0  0
   46.7310   20.7100   35.7170 C   0  0  0  0  0  0  0  0  0  0  0  0
   47.0920   20.1930   34.6430 O   0  0  0  0  0  0  0  0  0  0  0  0
   47.5790   21.4900   36.4810 O   0  0  0  0  0  0  0  0  0  0  0  0
   40.9920   22.4430   36.2620 C   0  0  0  0  0  0  0  0  0  0  0  0
   40.3280   22.9300   37.4150 C   0  0  0  0  0  0  0  0  0  0  0  0
   38.9520   23.0880   37.3130 C   0  0  0  0  0  0  0  0  0  0  0  0
   38.3170   22.7860   36.1670 N   0  0  0  0  0  0  0  0  0  0  0  0
   39.0020   22.3170   35.0780 C   0  0  0  0  0  0  0  0  0  0  0  0
   40.3110   22.1540   35.1380 N   0  0  0  0  0  0  0  0  0  0  0  0
   38.3060   23.5950   38.5290 C   0  0  0  0  0  0  0  0  0  0  0  0
   37.8210   24.8760   38.2920 F   0  0  0  0  0  0  0  0  0  0  0  0
   39.2860   23.7380   39.4790 F   0  0  0  0  0  0  0  0  0  0  0  0
   37.2700   22.8200   38.9640 F   0  0  0  0  0  0  0  0  0  0  0  0
   41.8123   19.6975   37.2785 H   0  0  0  0  0  0  0  0  0  0  0  0
   43.4912   17.9098   37.4631 H   0  0  0  0  0  0  0  0  0  0  0  0
   45.8332   18.4303   36.7084 H   0  0  0  0  0  0  0  0  0  0  0  0
   48.5072   21.6544   36.1786 H   0  0  0  0  0  0  0  0  0  0  0  0
   40.8725   23.1698   38.3402 H   0  0  0  0  0  0  0  0  0  0  0  0
   38.4607   22.0755   34.1513 H   0  0  0  0  0  0  0  0  0  0  0  0
  1  2  1  0
  2  3  2  0
  3  4  1  0
  5  4  2  0
  6  5  1  0
  7  6  2  0
  7  2  1  0
  8  6  1  0
  8 10  1  0
  9  8  2  0
 11  1  1  0
 11 12  2  0
 13 12  1  0
 13 17  1  0
 14 13  2  0
 15 16  2  0
 15 14  1  0
 16 11  1  0
 17 20  1  0
 17 19  1  0
 18 17  1  0
  3 21  1  0
  4 22  1  0
  5 23  1  0
 10 24  1  0
 12 25  1  0
 15 26  1  0
M  ISO  6  21  14  22  14  23  14  24   3  25  14  26  14
M  END
>  <minimizedAffinity>  (1) 
-4.38062668

>  <minimizedRMSD>  (1) 
0.174100503

$$$$
