
     RDKit          3D

 25 26  0  0  0  0  0  0  0  0999 V2000
   42.3560   22.2590   36.2950 O   0  0  0  0  0  0  0  0  0  0  0  0
   43.1150   21.1790   36.4680 C   0  0  0  0  0  0  0  0  0  0  0  0
   42.8480   19.9070   36.9650 C   0  0  0  0  0  0  0  0  0  0  0  0
   43.7810   18.9090   37.0670 C   0  0  0  0  0  0  0  0  0  0  0  0
   45.0500   19.1840   36.6540 C   0  0  0  0  0  0  0  0  0  0  0  0
   45.3500   20.4450   36.1530 C   0  0  0  0  0  0  0  0  0  0  0  0
   44.3850   21.4220   36.0660 N   0  0  0  0  0  0  0  0  0  0  0  0
   46.7380   20.7240   35.7090 C   0  0  0  0  0  0  0  0  0  0  0  0
   47.4860   21.4030   36.4310 O   0  0  0  0  0  0  0  0  0  0  0  0
   41.0070   22.4390   36.2700 C   0  0  0  0  0  0  0  0  0  0  0  0
   40.3360   22.9220   37.4210 C   0  0  0  0  0  0  0  0  0  0  0  0
   38.9520   23.0810   37.3190 C   0  0  0  0  0  0  0  0  0  0  0  0
   38.3350   22.7810   36.1720 N   0  0  0  0  0  0  0  0  0  0  0  0
   39.0200   22.3180   35.0860 C   0  0  0  0  0  0  0  0  0  0  0  0
   40.3290   22.1500   35.1310 N   0  0  0  0  0  0  0  0  0  0  0  0
   38.3060   23.5790   38.5260 C   0  0  0  0  0  0  0  0  0  0  0  0
   37.8200   24.8660   38.3010 F   0  0  0  0  0  0  0  0  0  0  0  0
   39.2970   23.7420   39.4830 F   0  0  0  0  0  0  0  0  0  0  0  0
   37.2670   22.8200   38.9640 F   0  0  0  0  0  0  0  0  0  0  0  0
   41.8223   19.6889   37.2972 H   0  0  0  0  0  0  0  0  0  0  0  0
   43.5149   17.9200   37.4684 H   0  0  0  0  0  0  0  0  0  0  0  0
   45.8319   18.4129   36.7167 H   0  0  0  0  0  0  0  0  0  0  0  0
   47.1016   20.3323   34.7476 H   0  0  0  0  0  0  0  0  0  0  0  0
   40.8779   23.1598   38.3483 H   0  0  0  0  0  0  0  0  0  0  0  0
   38.4742   22.0816   34.1607 H   0  0  0  0  0  0  0  0  0  0  0  0
  1  2  1  0
  2  3  2  0
  3  4  1  0
  5  4  2  0
  6  5  1  0
  7  6  2  0
  7  2  1  0
  8  6  1  0
  8  9  2  0
 10  1  1  0
 10 11  2  0
 12 11  1  0
 12 16  1  0
 13 12  2  0
 14 15  2  0
 14 13  1  0
 15 10  1  0
 16 19  1  0
 16 18  1  0
 17 16  1  0
  3 20  1  0
  4 21  1  0
  5 22  1  0
  8 23  1  0
 11 24  1  0
 14 25  1  0
M  ISO  6  20  14  21  14  22  14  23   6  24  14  25  14
M  END
>  <minimizedAffinity>  (1) 
-4.3495841

>  <minimizedRMSD>  (1) 
0.132548824

$$$$
