
     RDKit          3D

 42 46  0  0  0  0  0  0  0  0999 V2000
   40.7590   23.2390   35.2760 C   0  0  0  0  0  0  0  0  0  0  0  0
   39.9940   23.5180   36.4340 C   0  0  0  0  0  0  0  0  0  0  0  0
   38.7040   22.9770   36.4490 C   0  0  0  0  0  0  0  0  0  0  0  0
   38.2670   22.2480   35.4080 N   0  0  0  0  0  0  0  0  0  0  0  0
   39.0550   22.0180   34.3230 C   0  0  0  0  0  0  0  0  0  0  0  0
   40.2840   22.5040   34.2530 N   0  0  0  0  0  0  0  0  0  0  0  0
   38.5750   21.2440   33.2290 N   0  0  0  0  0  0  0  0  0  0  0  0
   39.3900   20.5880   32.3750 C   0  0  0  0  0  0  0  0  0  0  0  0
   38.6970   19.9290   31.4260 N   0  0  0  0  0  0  0  0  0  0  0  0
   37.4090   20.1520   31.6570 C   0  0  0  0  0  0  0  0  0  0  0  0
   36.1950   19.7940   31.0920 C   0  0  0  0  0  0  0  0  0  0  0  0
   35.0090   20.2190   31.6080 N   0  0  0  0  0  0  0  0  0  0  0  0
   35.0210   21.0080   32.6960 C   0  0  0  0  0  0  0  0  0  0  0  0
   36.1700   21.4040   33.3090 N   0  0  0  0  0  0  0  0  0  0  0  0
   37.3290   20.9730   32.7830 C   0  0  0  0  0  0  0  0  0  0  0  0
   37.9270   23.2650   37.6370 C   0  0  0  0  0  0  0  0  0  0  0  0
   37.6270   24.6040   37.7250 F   0  0  0  0  0  0  0  0  0  0  0  0
   38.7330   22.9930   38.7230 F   0  0  0  0  0  0  0  0  0  0  0  0
   36.7430   22.5470   37.7200 F   0  0  0  0  0  0  0  0  0  0  0  0
   36.2740   18.9510   29.9370 N   0  0  0  0  0  0  0  0  0  0  0  0
   42.0260   23.7320   35.1870 O   0  0  0  0  0  0  0  0  0  0  0  0
   43.2320   23.2240   35.4510 C   0  0  0  0  0  0  0  0  0  0  0  0
   43.6970   21.9190   35.4800 C   0  0  0  0  0  0  0  0  0  0  0  0
   44.9970   21.5840   35.7790 C   0  0  0  0  0  0  0  0  0  0  0  0
   45.8700   22.6100   36.0620 C   0  0  0  0  0  0  0  0  0  0  0  0
   45.4280   23.8970   36.0370 C   0  0  0  0  0  0  0  0  0  0  0  0
   44.1250   24.2100   35.7360 N   0  0  0  0  0  0  0  0  0  0  0  0
   46.4160   24.8780   36.3460 N   0  0  0  0  0  0  0  0  0  0  0  0
   47.4270   25.3600   35.5790 C   0  0  0  0  0  0  0  0  0  0  0  0
   48.1160   26.2730   36.2690 N   0  0  0  0  0  0  0  0  0  0  0  0
   47.5350   26.3610   37.4680 C   0  0  0  0  0  0  0  0  0  0  0  0
   46.4870   25.5030   37.5190 N   0  0  0  0  0  0  0  0  0  0  0  0
   40.3876   24.1199   37.2663 H   0  0  0  0  0  0  0  0  0  0  0  0
   40.4877   20.5913   32.4457 H   0  0  0  0  0  0  0  0  0  0  0  0
   34.0602   21.3487   33.1092 H   0  0  0  0  0  0  0  0  0  0  0  0
   37.1925   18.6523   29.5793 H   0  0  0  0  0  0  0  0  0  0  0  0
   35.4123   18.6434   29.4640 H   0  0  0  0  0  0  0  0  0  0  0  0
   42.9892   21.1084   35.2519 H   0  0  0  0  0  0  0  0  0  0  0  0
   45.3270   20.5347   35.7915 H   0  0  0  0  0  0  0  0  0  0  0  0
   46.9197   22.3908   36.3071 H   0  0  0  0  0  0  0  0  0  0  0  0
   47.6454   25.0468   34.5474 H   0  0  0  0  0  0  0  0  0  0  0  0
   47.8559   27.0244   38.2846 H   0  0  0  0  0  0  0  0  0  0  0  0
  1  2  2  0
  2  3  1  0
  3 16  1  0
  4  3  2  0
  5  4  1  0
  6  5  2  0
  6  1  1  0
  7  5  1  0
  8  7  1  0
  9 10  1  0
  9  8  2  0
 10 15  2  0
 11 12  2  0
 11 10  1  0
 12 13  1  0
 13 14  2  0
 15  7  1  0
 15 14  1  0
 16 19  1  0
 16 17  1  0
 16 18  1  0
 20 11  1  0
 21  1  1  0
 21 22  1  0
 22 23  2  0
 22 27  1  0
 23 24  1  0
 24 25  2  0
 26 25  1  0
 26 28  1  0
 27 26  2  0
 28 32  1  0
 29 30  2  0
 29 28  1  0
 30 31  1  0
 31 32  2  0
  2 33  1  0
  8 34  1  0
 13 35  1  0
 20 36  1  0
 20 37  1  0
 23 38  1  0
 24 39  1  0
 25 40  1  0
 29 41  1  0
 31 42  1  0
M  ISO  8  33  14  34  14  35  14  38  14  39  14  40  14  41  14  42  14
M  END
>  <minimizedAffinity>  (1) 
-6.44889545

>  <minimizedRMSD>  (1) 
2.72627234

$$$$
