
     RDKit          3D

 39 42  0  0  0  0  0  0  0  0999 V2000
   40.4210   22.4090   35.7120 C   0  0  0  0  0  0  0  0  0  0  0  0
   40.0170   22.9210   36.9690 C   0  0  0  0  0  0  0  0  0  0  0  0
   38.6350   23.0510   37.1630 C   0  0  0  0  0  0  0  0  0  0  0  0
   37.7840   22.6970   36.1860 N   0  0  0  0  0  0  0  0  0  0  0  0
   38.2270   22.2090   34.9960 C   0  0  0  0  0  0  0  0  0  0  0  0
   39.5230   22.0690   34.7670 N   0  0  0  0  0  0  0  0  0  0  0  0
   37.2220   21.8530   34.0000 C   0  0  0  0  0  0  0  0  0  0  0  0
   37.2470   22.5250   32.7720 C   0  0  0  0  0  0  0  0  0  0  0  0
   36.2700   22.1630   31.8370 C   0  0  0  0  0  0  0  0  0  0  0  0
   35.3560   21.1840   32.1680 C   0  0  0  0  0  0  0  0  0  0  0  0
   35.3420   20.5280   33.3830 C   0  0  0  0  0  0  0  0  0  0  0  0
   36.3000   20.8760   34.3140 C   0  0  0  0  0  0  0  0  0  0  0  0
   38.2500   23.5780   38.4570 C   0  0  0  0  0  0  0  0  0  0  0  0
   37.8230   24.8790   38.3620 F   0  0  0  0  0  0  0  0  0  0  0  0
   39.3730   23.5960   39.2430 F   0  0  0  0  0  0  0  0  0  0  0  0
   37.2430   22.8480   39.0750 F   0  0  0  0  0  0  0  0  0  0  0  0
   41.7390   22.2530   35.4470 O   0  0  0  0  0  0  0  0  0  0  0  0
   42.6630   21.3900   35.8770 C   0  0  0  0  0  0  0  0  0  0  0  0
   42.5660   20.1940   36.5690 C   0  0  0  0  0  0  0  0  0  0  0  0
   43.6530   19.4330   36.9290 C   0  0  0  0  0  0  0  0  0  0  0  0
   44.8980   19.9050   36.5720 C   0  0  0  0  0  0  0  0  0  0  0  0
   45.0120   21.0790   35.8900 C   0  0  0  0  0  0  0  0  0  0  0  0
   43.9110   21.8210   35.5420 N   0  0  0  0  0  0  0  0  0  0  0  0
   46.3450   21.4530   35.5820 N   0  0  0  0  0  0  0  0  0  0  0  0
   47.1920   20.9830   34.6360 C   0  0  0  0  0  0  0  0  0  0  0  0
   48.3610   21.6380   34.7130 N   0  0  0  0  0  0  0  0  0  0  0  0
   48.2380   22.5250   35.7150 C   0  0  0  0  0  0  0  0  0  0  0  0
   47.0070   22.4030   36.2380 N   0  0  0  0  0  0  0  0  0  0  0  0
   40.7439   23.1998   37.7461 H   0  0  0  0  0  0  0  0  0  0  0  0
   37.9972   23.2991   32.5527 H   0  0  0  0  0  0  0  0  0  0  0  0
   36.2316   22.6521   30.8525 H   0  0  0  0  0  0  0  0  0  0  0  0
   34.5954   20.9105   31.4219 H   0  0  0  0  0  0  0  0  0  0  0  0
   34.5921   19.7536   33.6018 H   0  0  0  0  0  0  0  0  0  0  0  0
   36.3279   20.3798   35.2953 H   0  0  0  0  0  0  0  0  0  0  0  0
   41.5643   19.8333   36.8457 H   0  0  0  0  0  0  0  0  0  0  0  0
   43.5342   18.4876   37.4786 H   0  0  0  0  0  0  0  0  0  0  0  0
   45.7996   19.3337   36.8378 H   0  0  0  0  0  0  0  0  0  0  0  0
   46.9579   20.1862   33.9147 H   0  0  0  0  0  0  0  0  0  0  0  0
   49.0130   23.2303   36.0496 H   0  0  0  0  0  0  0  0  0  0  0  0
  1  2  2  0
  2  3  1  0
  3 13  1  0
  4  3  2  0
  5  4  1  0
  6  5  2  0
  6  1  1  0
  7 12  1  0
  7  5  1  0
  8  7  2  0
  9 10  2  0
  9  8  1  0
 10 11  1  0
 11 12  2  0
 13 16  1  0
 13 15  1  0
 14 13  1  0
 17  1  1  0
 17 18  1  0
 18 19  2  0
 19 20  1  0
 21 20  2  0
 22 21  1  0
 23 18  1  0
 23 22  2  0
 24 22  1  0
 24 28  1  0
 25 26  2  0
 25 24  1  0
 26 27  1  0
 27 28  2  0
  2 29  1  0
  8 30  1  0
  9 31  1  0
 10 32  1  0
 11 33  1  0
 12 34  1  0
 19 35  1  0
 20 36  1  0
 21 37  1  0
 25 38  1  0
 27 39  1  0
M  ISO  8  29  14  30  14  31  14  32  14  33  14  34  14  35  14  36  14
M  ISO  3  37  14  38  14  39  14
M  END
>  <minimizedAffinity>  (1) 
-5.8744483

>  <minimizedRMSD>  (1) 
0.908466876

$$$$
