
     RDKit          3D

 42 45  0  0  0  0  0  0  0  0999 V2000
   42.3010   22.2830   36.2790 O   0  0  0  0  0  0  0  0  0  0  0  0
   43.0740   21.2040   36.4570 C   0  0  0  0  0  0  0  0  0  0  0  0
   42.8020   19.9530   36.9800 C   0  0  0  0  0  0  0  0  0  0  0  0
   43.7290   18.9490   37.0900 C   0  0  0  0  0  0  0  0  0  0  0  0
   45.0000   19.2200   36.6450 C   0  0  0  0  0  0  0  0  0  0  0  0
   45.2890   20.4580   36.1220 C   0  0  0  0  0  0  0  0  0  0  0  0
   44.3420   21.4460   36.0240 N   0  0  0  0  0  0  0  0  0  0  0  0
   46.6430   20.6210   35.6930 N   0  0  0  0  0  0  0  0  0  0  0  0
   47.2560   20.1630   34.5840 C   0  0  0  0  0  0  0  0  0  0  0  0
   48.5420   20.5590   34.5920 N   0  0  0  0  0  0  0  0  0  0  0  0
   48.7150   21.2700   35.7200 C   0  0  0  0  0  0  0  0  0  0  0  0
   47.5430   21.3100   36.4030 N   0  0  0  0  0  0  0  0  0  0  0  0
   40.9660   22.4790   36.2340 C   0  0  0  0  0  0  0  0  0  0  0  0
   40.2870   22.9290   37.3810 C   0  0  0  0  0  0  0  0  0  0  0  0
   38.9110   23.1140   37.2760 C   0  0  0  0  0  0  0  0  0  0  0  0
   38.3000   22.8550   36.0990 N   0  0  0  0  0  0  0  0  0  0  0  0
   38.9980   22.4200   35.0140 C   0  0  0  0  0  0  0  0  0  0  0  0
   40.3130   22.2370   35.0910 N   0  0  0  0  0  0  0  0  0  0  0  0
   38.2770   22.1660   33.7960 N   0  0  0  0  0  0  0  0  0  0  0  0
   37.0360   21.4310   33.9150 C   0  0  0  0  0  0  0  0  0  0  0  0
   36.1570   21.7780   32.7380 C   0  0  0  0  0  0  0  0  0  0  0  0
   36.4760   23.0240   32.2020 O   0  0  0  0  0  0  0  0  0  0  0  0
   37.7260   23.0460   31.6210 C   0  0  0  0  0  0  0  0  0  0  0  0
   38.8370   22.6580   32.5520 C   0  0  0  0  0  0  0  0  0  0  0  0
   38.2390   23.5800   38.4770 C   0  0  0  0  0  0  0  0  0  0  0  0
   37.6660   24.8110   38.2750 F   0  0  0  0  0  0  0  0  0  0  0  0
   39.2000   23.7410   39.4410 F   0  0  0  0  0  0  0  0  0  0  0  0
   37.2500   22.7090   38.9200 F   0  0  0  0  0  0  0  0  0  0  0  0
   41.7787   19.7511   37.3293 H   0  0  0  0  0  0  0  0  0  0  0  0
   43.4665   17.9694   37.5159 H   0  0  0  0  0  0  0  0  0  0  0  0
   45.7830   18.4499   36.7069 H   0  0  0  0  0  0  0  0  0  0  0  0
   46.7802   19.5604   33.7963 H   0  0  0  0  0  0  0  0  0  0  0  0
   49.6556   21.7433   36.0382 H   0  0  0  0  0  0  0  0  0  0  0  0
   40.8212   23.1266   38.3221 H   0  0  0  0  0  0  0  0  0  0  0  0
   37.2436   20.3508   33.9169 H   0  0  0  0  0  0  0  0  0  0  0  0
   36.5295   21.6977   34.8543 H   0  0  0  0  0  0  0  0  0  0  0  0
   36.2864   21.0120   31.9592 H   0  0  0  0  0  0  0  0  0  0  0  0
   35.1151   21.8140   33.0889 H   0  0  0  0  0  0  0  0  0  0  0  0
   37.7255   22.3465   30.7721 H   0  0  0  0  0  0  0  0  0  0  0  0
   37.9162   24.0847   31.3128 H   0  0  0  0  0  0  0  0  0  0  0  0
   39.4461   21.8689   32.0869 H   0  0  0  0  0  0  0  0  0  0  0  0
   39.4673   23.5361   32.7561 H   0  0  0  0  0  0  0  0  0  0  0  0
  1  2  1  0
  2  3  2  0
  3  4  1  0
  5  4  2  0
  6  5  1  0
  7  6  2  0
  7  2  1  0
  8  6  1  0
  8 12  1  0
  9 10  2  0
  9  8  1  0
 10 11  1  0
 11 12  2  0
 13  1  1  0
 13 14  2  0
 15 14  1  0
 15 25  1  0
 16 15  2  0
 17 18  2  0
 17 16  1  0
 18 13  1  0
 19 20  1  0
 19 17  1  0
 21 20  1  0
 22 21  1  0
 23 22  1  0
 23 24  1  0
 24 19  1  0
 25 28  1  0
 25 27  1  0
 26 25  1  0
  3 29  1  0
  4 30  1  0
  5 31  1  0
  9 32  1  0
 11 33  1  0
 14 34  1  0
 20 35  1  0
 20 36  1  0
 21 37  1  0
 21 38  1  0
 23 39  1  0
 23 40  1  0
 24 41  1  0
 24 42  1  0
M  ISO  8  29  14  30  14  31  14  32  14  33  14  34  14  35  13  36  13
M  ISO  6  37  13  38  13  39  13  40  13  41  13  42  13
M  END
>  <minimizedAffinity>  (1) 
-5.61105347

>  <minimizedRMSD>  (1) 
0.151822507

$$$$
