
     RDKit          3D

 37 40  0  0  0  0  0  0  0  0999 V2000
   40.5100   22.4530   35.8290 C   0  0  0  0  0  0  0  0  0  0  0  0
   40.0780   22.9520   37.0880 C   0  0  0  0  0  0  0  0  0  0  0  0
   38.6980   23.0900   37.2600 C   0  0  0  0  0  0  0  0  0  0  0  0
   37.8720   22.7540   36.2560 N   0  0  0  0  0  0  0  0  0  0  0  0
   38.3410   22.2810   35.0710 C   0  0  0  0  0  0  0  0  0  0  0  0
   39.6290   22.1320   34.8570 N   0  0  0  0  0  0  0  0  0  0  0  0
   37.3580   21.9440   34.0460 C   0  0  0  0  0  0  0  0  0  0  0  0
   36.3670   21.0170   34.2940 C   0  0  0  0  0  0  0  0  0  0  0  0
   35.4400   20.7010   33.3220 C   0  0  0  0  0  0  0  0  0  0  0  0
   35.5180   21.3130   32.1260 N   0  0  0  0  0  0  0  0  0  0  0  0
   36.4860   22.2320   31.8510 C   0  0  0  0  0  0  0  0  0  0  0  0
   37.3700   22.5120   32.8250 N   0  0  0  0  0  0  0  0  0  0  0  0
   38.2780   23.5980   38.5460 C   0  0  0  0  0  0  0  0  0  0  0  0
   37.8260   24.8880   38.4530 F   0  0  0  0  0  0  0  0  0  0  0  0
   39.3990   23.6490   39.3490 F   0  0  0  0  0  0  0  0  0  0  0  0
   37.2940   22.8390   39.1510 F   0  0  0  0  0  0  0  0  0  0  0  0
   41.8390   22.3000   35.6050 O   0  0  0  0  0  0  0  0  0  0  0  0
   42.7340   21.3850   35.9890 C   0  0  0  0  0  0  0  0  0  0  0  0
   42.5900   20.1760   36.6590 C   0  0  0  0  0  0  0  0  0  0  0  0
   43.6410   19.3500   36.9750 C   0  0  0  0  0  0  0  0  0  0  0  0
   44.8990   19.7610   36.5980 C   0  0  0  0  0  0  0  0  0  0  0  0
   45.0600   20.9480   35.9370 C   0  0  0  0  0  0  0  0  0  0  0  0
   43.9920   21.7570   35.6320 N   0  0  0  0  0  0  0  0  0  0  0  0
   46.4030   21.2640   35.6010 N   0  0  0  0  0  0  0  0  0  0  0  0
   47.1910   20.7710   34.6230 C   0  0  0  0  0  0  0  0  0  0  0  0
   48.3940   21.3680   34.6850 N   0  0  0  0  0  0  0  0  0  0  0  0
   48.3480   22.2280   35.6990 C   0  0  0  0  0  0  0  0  0  0  0  0
   47.1270   22.1770   36.2770 N   0  0  0  0  0  0  0  0  0  0  0  0
   40.7909   23.2151   37.8833 H   0  0  0  0  0  0  0  0  0  0  0  0
   36.3152   20.5248   35.2764 H   0  0  0  0  0  0  0  0  0  0  0  0
   34.6506   19.9613   33.5214 H   0  0  0  0  0  0  0  0  0  0  0  0
   36.5421   22.7259   30.8697 H   0  0  0  0  0  0  0  0  0  0  0  0
   41.5773   19.8629   36.9528 H   0  0  0  0  0  0  0  0  0  0  0  0
   43.4837   18.4001   37.5069 H   0  0  0  0  0  0  0  0  0  0  0  0
   45.7743   19.1358   36.8279 H   0  0  0  0  0  0  0  0  0  0  0  0
   46.8964   20.0036   33.8921 H   0  0  0  0  0  0  0  0  0  0  0  0
   49.1751   22.8794   36.0176 H   0  0  0  0  0  0  0  0  0  0  0  0
  1  2  2  0
  2  3  1  0
  3 13  1  0
  4  3  2  0
  5  4  1  0
  6  5  2  0
  6  1  1  0
  7  8  2  0
  7  5  1  0
  9  8  1  0
 10  9  2  0
 11 10  1  0
 11 12  2  0
 12  7  1  0
 13 16  1  0
 13 15  1  0
 14 13  1  0
 17  1  1  0
 17 18  1  0
 18 19  2  0
 19 20  1  0
 21 20  2  0
 22 21  1  0
 23 22  2  0
 23 18  1  0
 24 22  1  0
 24 28  1  0
 25 26  2  0
 25 24  1  0
 26 27  1  0
 27 28  2  0
  2 29  1  0
  8 30  1  0
  9 31  1  0
 11 32  1  0
 19 33  1  0
 20 34  1  0
 21 35  1  0
 25 36  1  0
 27 37  1  0
M  ISO  8  29  14  30  14  31  14  32  14  33  14  34  14  35  14  36  14
M  ISO  1  37  14
M  END
>  <minimizedAffinity>  (1) 
-5.58245373

>  <minimizedRMSD>  (1) 
0.730348408

$$$$
