
     RDKit          3D

 35 38  0  0  0  0  0  0  0  0999 V2000
   41.8880   22.3030   35.6980 O   0  0  0  0  0  0  0  0  0  0  0  0
   42.7450   21.3560   36.0640 C   0  0  0  0  0  0  0  0  0  0  0  0
   42.5600   20.1530   36.7520 C   0  0  0  0  0  0  0  0  0  0  0  0
   43.5720   19.2790   37.0530 C   0  0  0  0  0  0  0  0  0  0  0  0
   44.8390   19.6250   36.6440 C   0  0  0  0  0  0  0  0  0  0  0  0
   45.0420   20.7950   35.9720 C   0  0  0  0  0  0  0  0  0  0  0  0
   44.0140   21.6540   35.6820 N   0  0  0  0  0  0  0  0  0  0  0  0
   46.3930   21.0460   35.6010 N   0  0  0  0  0  0  0  0  0  0  0  0
   47.1410   20.5240   34.6070 C   0  0  0  0  0  0  0  0  0  0  0  0
   48.3730   21.0580   34.6340 N   0  0  0  0  0  0  0  0  0  0  0  0
   48.3870   21.9180   35.6540 C   0  0  0  0  0  0  0  0  0  0  0  0
   47.1770   21.9170   36.2530 N   0  0  0  0  0  0  0  0  0  0  0  0
   40.5620   22.4840   35.8910 C   0  0  0  0  0  0  0  0  0  0  0  0
   40.0980   22.9490   37.1510 C   0  0  0  0  0  0  0  0  0  0  0  0
   38.7070   23.1140   37.2790 C   0  0  0  0  0  0  0  0  0  0  0  0
   37.9130   22.8340   36.2380 N   0  0  0  0  0  0  0  0  0  0  0  0
   38.4050   22.3900   35.0510 C   0  0  0  0  0  0  0  0  0  0  0  0
   39.7020   22.2180   34.8750 N   0  0  0  0  0  0  0  0  0  0  0  0
   37.4720   22.1210   34.0100 N   0  0  0  0  0  0  0  0  0  0  0  0
   37.3430   22.7950   32.8490 C   0  0  0  0  0  0  0  0  0  0  0  0
   36.3590   22.2570   32.1140 N   0  0  0  0  0  0  0  0  0  0  0  0
   35.8520   21.2350   32.8010 C   0  0  0  0  0  0  0  0  0  0  0  0
   36.5540   21.1690   33.9670 N   0  0  0  0  0  0  0  0  0  0  0  0
   38.2600   23.5870   38.5670 C   0  0  0  0  0  0  0  0  0  0  0  0
   37.7940   24.8860   38.4770 F   0  0  0  0  0  0  0  0  0  0  0  0
   39.3720   23.6590   39.3840 F   0  0  0  0  0  0  0  0  0  0  0  0
   37.2770   22.8100   39.1440 F   0  0  0  0  0  0  0  0  0  0  0  0
   41.5402   19.8921   37.0712 H   0  0  0  0  0  0  0  0  0  0  0  0
   43.3796   18.3427   37.5973 H   0  0  0  0  0  0  0  0  0  0  0  0
   45.6878   18.9590   36.8585 H   0  0  0  0  0  0  0  0  0  0  0  0
   46.7936   19.7729   33.8823 H   0  0  0  0  0  0  0  0  0  0  0  0
   49.2481   22.5309   35.9587 H   0  0  0  0  0  0  0  0  0  0  0  0
   40.7877   23.1676   37.9796 H   0  0  0  0  0  0  0  0  0  0  0  0
   37.9548   23.6587   32.5492 H   0  0  0  0  0  0  0  0  0  0  0  0
   35.0294   20.5748   32.4889 H   0  0  0  0  0  0  0  0  0  0  0  0
  1 13  1  0
  1  2  1  0
  2  3  2  0
  3  4  1  0
  5  4  2  0
  6  5  1  0
  7  6  2  0
  7  2  1  0
  8  6  1  0
  8 12  1  0
  9 10  2  0
  9  8  1  0
 10 11  1  0
 11 12  2  0
 13 14  2  0
 14 15  1  0
 15 24  1  0
 16 15  2  0
 17 16  1  0
 18 17  2  0
 18 13  1  0
 19 17  1  0
 20 19  1  0
 21 22  1  0
 21 20  2  0
 22 23  2  0
 23 19  1  0
 24 27  1  0
 24 26  1  0
 25 24  1  0
  3 28  1  0
  4 29  1  0
  5 30  1  0
  9 31  1  0
 11 32  1  0
 14 33  1  0
 20 34  1  0
 22 35  1  0
M  ISO  8  28  14  29  14  30  14  31  14  32  14  33  14  34  14  35  14
M  END
>  <minimizedAffinity>  (1) 
-5.56717491

>  <minimizedRMSD>  (1) 
0.578155994

$$$$
