
     RDKit          3D

 43 46  0  0  0  0  0  0  0  0999 V2000
   40.9720   22.4370   36.2170 C   0  0  0  0  0  0  0  0  0  0  0  0
   40.3020   22.9160   37.3750 C   0  0  0  0  0  0  0  0  0  0  0  0
   38.9160   23.0610   37.2660 C   0  0  0  0  0  0  0  0  0  0  0  0
   38.3080   22.7480   36.1060 N   0  0  0  0  0  0  0  0  0  0  0  0
   39.0050   22.2950   35.0350 C   0  0  0  0  0  0  0  0  0  0  0  0
   40.3030   22.1380   35.0750 N   0  0  0  0  0  0  0  0  0  0  0  0
   38.2390   22.0020   33.8730 N   0  0  0  0  0  0  0  0  0  0  0  0
   38.7840   22.1320   32.5340 C   0  0  0  0  0  0  0  0  0  0  0  0
   38.9800   20.7230   32.0110 C   0  0  0  0  0  0  0  0  0  0  0  0
   37.7920   19.9730   32.2850 N   0  0  0  0  0  0  0  0  0  0  0  0
   36.6320   20.8050   32.5980 C   0  0  0  0  0  0  0  0  0  0  0  0
   36.8600   21.5530   33.9120 C   0  0  0  0  0  0  0  0  0  0  0  0
   38.2490   23.5490   38.4520 C   0  0  0  0  0  0  0  0  0  0  0  0
   37.6810   24.7760   38.2330 F   0  0  0  0  0  0  0  0  0  0  0  0
   39.2130   23.7250   39.4200 F   0  0  0  0  0  0  0  0  0  0  0  0
   37.2550   22.7020   38.9230 F   0  0  0  0  0  0  0  0  0  0  0  0
   42.3230   22.2760   36.2650 O   0  0  0  0  0  0  0  0  0  0  0  0
   43.1100   21.2160   36.4440 C   0  0  0  0  0  0  0  0  0  0  0  0
   42.8620   19.9540   36.9760 C   0  0  0  0  0  0  0  0  0  0  0  0
   43.8110   18.9660   37.0840 C   0  0  0  0  0  0  0  0  0  0  0  0
   45.0750   19.2570   36.6340 C   0  0  0  0  0  0  0  0  0  0  0  0
   45.3370   20.4950   36.1060 C   0  0  0  0  0  0  0  0  0  0  0  0
   44.3710   21.4660   36.0090 N   0  0  0  0  0  0  0  0  0  0  0  0
   46.6820   20.6840   35.6720 N   0  0  0  0  0  0  0  0  0  0  0  0
   47.3080   20.2330   34.5620 C   0  0  0  0  0  0  0  0  0  0  0  0
   48.5850   20.6560   34.5610 N   0  0  0  0  0  0  0  0  0  0  0  0
   48.7430   21.3720   35.6750 C   0  0  0  0  0  0  0  0  0  0  0  0
   47.5780   21.3920   36.3600 N   0  0  0  0  0  0  0  0  0  0  0  0
   40.8420   23.1583   38.3022 H   0  0  0  0  0  0  0  0  0  0  0  0
   38.0824   22.6824   31.8899 H   0  0  0  0  0  0  0  0  0  0  0  0
   39.7326   22.6888   32.5427 H   0  0  0  0  0  0  0  0  0  0  0  0
   39.8393   20.2556   32.5141 H   0  0  0  0  0  0  0  0  0  0  0  0
   39.1739   20.7439   30.9284 H   0  0  0  0  0  0  0  0  0  0  0  0
   37.5692   19.4025   31.4569 H   0  0  0  0  0  0  0  0  0  0  0  0
   36.4769   21.5325   31.7876 H   0  0  0  0  0  0  0  0  0  0  0  0
   35.7451   20.1622   32.6993 H   0  0  0  0  0  0  0  0  0  0  0  0
   36.6991   20.8818   34.7685 H   0  0  0  0  0  0  0  0  0  0  0  0
   36.1616   22.3951   34.0267 H   0  0  0  0  0  0  0  0  0  0  0  0
   41.8446   19.7341   37.3316 H   0  0  0  0  0  0  0  0  0  0  0  0
   43.5680   17.9828   37.5132 H   0  0  0  0  0  0  0  0  0  0  0  0
   45.8724   18.5019   36.6966 H   0  0  0  0  0  0  0  0  0  0  0  0
   46.8442   19.6147   33.7793 H   0  0  0  0  0  0  0  0  0  0  0  0
   49.6741   21.8678   35.9870 H   0  0  0  0  0  0  0  0  0  0  0  0
  1 17  1  0
  1  2  2  0
  3  2  1  0
  3 13  1  0
  4  3  2  0
  5  6  2  0
  5  4  1  0
  6  1  1  0
  7 12  1  0
  7  5  1  0
  8  7  1  0
  9 10  1  0
  9  8  1  0
 10 11  1  0
 11 12  1  0
 13 16  1  0
 13 15  1  0
 14 13  1  0
 17 18  1  0
 18 19  2  0
 19 20  1  0
 21 20  2  0
 22 21  1  0
 23 22  2  0
 23 18  1  0
 24 22  1  0
 24 28  1  0
 25 24  1  0
 26 25  2  0
 26 27  1  0
 27 28  2  0
  2 29  1  0
  8 30  1  0
  8 31  1  0
  9 32  1  0
  9 33  1  0
 10 34  1  0
 11 35  1  0
 11 36  1  0
 12 37  1  0
 12 38  1  0
 19 39  1  0
 20 40  1  0
 21 41  1  0
 25 42  1  0
 27 43  1  0
M  ISO  8  29  14  30  13  31  13  32  13  33  13  34   5  35  13  36  13
M  ISO  7  37  13  38  13  39  14  40  14  41  14  42  14  43  14
M  END
>  <minimizedAffinity>  (1) 
-5.54565716

>  <minimizedRMSD>  (1) 
0.0788584501

$$$$
