
     RDKit          3D

 37 40  0  0  0  0  0  0  0  0999 V2000
   40.4870   22.4550   35.8570 C   0  0  0  0  0  0  0  0  0  0  0  0
   40.0110   22.9260   37.1000 C   0  0  0  0  0  0  0  0  0  0  0  0
   38.6280   23.0380   37.2310 C   0  0  0  0  0  0  0  0  0  0  0  0
   37.8400   22.7040   36.2070 N   0  0  0  0  0  0  0  0  0  0  0  0
   38.3480   22.2520   35.0230 C   0  0  0  0  0  0  0  0  0  0  0  0
   39.6550   22.1320   34.8570 N   0  0  0  0  0  0  0  0  0  0  0  0
   37.4520   21.8970   33.9280 C   0  0  0  0  0  0  0  0  0  0  0  0
   36.3340   21.1080   34.0930 C   0  0  0  0  0  0  0  0  0  0  0  0
   35.4650   20.7510   33.0870 C   0  0  0  0  0  0  0  0  0  0  0  0
   35.7460   21.2170   31.8570 N   0  0  0  0  0  0  0  0  0  0  0  0
   36.8380   21.9980   31.6480 C   0  0  0  0  0  0  0  0  0  0  0  0
   37.6770   22.3290   32.6730 N   0  0  0  0  0  0  0  0  0  0  0  0
   38.1630   23.5230   38.5120 C   0  0  0  0  0  0  0  0  0  0  0  0
   37.6480   24.7910   38.4230 F   0  0  0  0  0  0  0  0  0  0  0  0
   39.2770   23.6340   39.3350 F   0  0  0  0  0  0  0  0  0  0  0  0
   37.2210   22.7110   39.1220 F   0  0  0  0  0  0  0  0  0  0  0  0
   41.8310   22.3210   35.6590 O   0  0  0  0  0  0  0  0  0  0  0  0
   42.7280   21.4040   36.0210 C   0  0  0  0  0  0  0  0  0  0  0  0
   42.5870   20.1830   36.6860 C   0  0  0  0  0  0  0  0  0  0  0  0
   43.6420   19.3610   36.9760 C   0  0  0  0  0  0  0  0  0  0  0  0
   44.8990   19.7730   36.5860 C   0  0  0  0  0  0  0  0  0  0  0  0
   45.0510   20.9670   35.9340 C   0  0  0  0  0  0  0  0  0  0  0  0
   43.9830   21.7700   35.6560 N   0  0  0  0  0  0  0  0  0  0  0  0
   46.3930   21.2840   35.5850 N   0  0  0  0  0  0  0  0  0  0  0  0
   47.1620   20.8050   34.5810 C   0  0  0  0  0  0  0  0  0  0  0  0
   48.3730   21.3940   34.6360 N   0  0  0  0  0  0  0  0  0  0  0  0
   48.3440   22.2330   35.6700 C   0  0  0  0  0  0  0  0  0  0  0  0
   47.1270   22.1720   36.2620 N   0  0  0  0  0  0  0  0  0  0  0  0
   40.6945   23.1902   37.9204 H   0  0  0  0  0  0  0  0  0  0  0  0
   36.1199   20.7353   35.1056 H   0  0  0  0  0  0  0  0  0  0  0  0
   34.5864   20.1175   33.2790 H   0  0  0  0  0  0  0  0  0  0  0  0
   37.0499   22.3703   30.6348 H   0  0  0  0  0  0  0  0  0  0  0  0
   41.5785   19.8671   36.9913 H   0  0  0  0  0  0  0  0  0  0  0  0
   43.4928   18.4061   37.5012 H   0  0  0  0  0  0  0  0  0  0  0  0
   45.7764   19.1444   36.7981 H   0  0  0  0  0  0  0  0  0  0  0  0
   46.8495   20.0555   33.8390 H   0  0  0  0  0  0  0  0  0  0  0  0
   49.1772   22.8746   35.9926 H   0  0  0  0  0  0  0  0  0  0  0  0
  1  2  2  0
  2  3  1  0
  3 13  1  0
  4  3  2  0
  5  4  1  0
  6  5  2  0
  6  1  1  0
  7  8  2  0
  7  5  1  0
  9  8  1  0
 10  9  2  0
 11 10  1  0
 11 12  2  0
 12  7  1  0
 13 16  1  0
 13 15  1  0
 14 13  1  0
 17  1  1  0
 17 18  1  0
 18 19  2  0
 19 20  1  0
 21 20  2  0
 22 21  1  0
 23 22  2  0
 23 18  1  0
 24 22  1  0
 24 28  1  0
 25 26  2  0
 25 24  1  0
 26 27  1  0
 27 28  2  0
  2 29  1  0
  8 30  1  0
  9 31  1  0
 11 32  1  0
 19 33  1  0
 20 34  1  0
 21 35  1  0
 25 36  1  0
 27 37  1  0
M  ISO  8  29  14  30  14  31  14  32  14  33  14  34  14  35  14  36  14
M  ISO  1  37  14
M  END
>  <minimizedAffinity>  (1) 
-5.54052734

>  <minimizedRMSD>  (1) 
0.723970413

$$$$
