
     RDKit          3D

 42 45  0  0  0  0  0  0  0  0999 V2000
   40.8460   22.5720   36.5120 C   0  0  0  0  0  0  0  0  0  0  0  0
   40.2710   23.1760   37.6440 C   0  0  0  0  0  0  0  0  0  0  0  0
   38.8730   23.2740   37.6680 C   0  0  0  0  0  0  0  0  0  0  0  0
   38.1690   22.8010   36.6390 N   0  0  0  0  0  0  0  0  0  0  0  0
   38.7680   22.2230   35.5600 C   0  0  0  0  0  0  0  0  0  0  0  0
   40.0880   22.1140   35.5060 N   0  0  0  0  0  0  0  0  0  0  0  0
   36.4030   20.7760   32.3860 C   0  0  0  0  0  0  0  0  0  0  0  0
   35.8440   20.8300   33.6640 C   0  0  0  0  0  0  0  0  0  0  0  0
   36.6360   21.3110   34.7060 C   0  0  0  0  0  0  0  0  0  0  0  0
   37.9490   21.7210   34.4580 C   0  0  0  0  0  0  0  0  0  0  0  0
   38.4750   21.6540   33.1720 C   0  0  0  0  0  0  0  0  0  0  0  0
   37.6990   21.1790   32.1320 C   0  0  0  0  0  0  0  0  0  0  0  0
   35.3730   20.1690   31.1280 S   0  0  0  0  0  0  0  0  0  0  0  0
   34.2170   19.4800   31.7980 O   0  0  0  0  0  0  0  0  0  0  0  0
   36.1590   19.1670   30.3200 O   0  0  0  0  0  0  0  0  0  0  0  0
   38.3130   23.9000   38.8470 C   0  0  0  0  0  0  0  0  0  0  0  0
   37.9820   25.2080   38.6080 F   0  0  0  0  0  0  0  0  0  0  0  0
   39.3020   23.9150   39.8160 F   0  0  0  0  0  0  0  0  0  0  0  0
   37.1880   23.2500   39.3410 F   0  0  0  0  0  0  0  0  0  0  0  0
   42.1960   22.4510   36.4350 O   0  0  0  0  0  0  0  0  0  0  0  0
   43.0280   21.3990   36.5270 C   0  0  0  0  0  0  0  0  0  0  0  0
   42.8380   20.1010   37.0220 C   0  0  0  0  0  0  0  0  0  0  0  0
   43.8290   19.1540   37.0270 C   0  0  0  0  0  0  0  0  0  0  0  0
   45.0510   19.4980   36.5250 C   0  0  0  0  0  0  0  0  0  0  0  0
   45.2530   20.7570   36.0390 C   0  0  0  0  0  0  0  0  0  0  0  0
   44.2540   21.7030   36.0360 N   0  0  0  0  0  0  0  0  0  0  0  0
   46.5660   21.0050   35.5420 N   0  0  0  0  0  0  0  0  0  0  0  0
   47.1430   20.6290   34.3910 C   0  0  0  0  0  0  0  0  0  0  0  0
   48.4060   21.0960   34.3510 N   0  0  0  0  0  0  0  0  0  0  0  0
   48.6010   21.7590   35.4850 C   0  0  0  0  0  0  0  0  0  0  0  0
   47.4770   21.7140   36.2310 N   0  0  0  0  0  0  0  0  0  0  0  0
   40.8891   23.5538   38.4717 H   0  0  0  0  0  0  0  0  0  0  0  0
   34.8093   20.5028   33.8438 H   0  0  0  0  0  0  0  0  0  0  0  0
   36.2266   21.3679   35.7254 H   0  0  0  0  0  0  0  0  0  0  0  0
   39.5087   21.9791   32.9830 H   0  0  0  0  0  0  0  0  0  0  0  0
   38.1092   21.1225   31.1129 H   0  0  0  0  0  0  0  0  0  0  0  0
   34.9255   21.1696   30.3062 H   0  0  0  0  0  0  0  0  0  0  0  0
   41.8504   19.8308   37.4240 H   0  0  0  0  0  0  0  0  0  0  0  0
   43.6447   18.1450   37.4244 H   0  0  0  0  0  0  0  0  0  0  0  0
   45.8695   18.7633   36.5123 H   0  0  0  0  0  0  0  0  0  0  0  0
   46.6603   20.0325   33.6028 H   0  0  0  0  0  0  0  0  0  0  0  0
   49.5339   22.2662   35.7719 H   0  0  0  0  0  0  0  0  0  0  0  0
  1  2  2  0
  2  3  1  0
  3 16  1  0
  4  3  2  0
  5  4  1  0
  6  5  2  0
  6  1  1  0
  7  8  2  0
  8  9  1  0
 10  9  2  0
 10  5  1  0
 11 10  1  0
 12  7  1  0
 12 11  2  0
 13 14  2  0
 13  7  1  0
 15 13  2  0
 16 19  1  0
 16 18  1  0
 17 16  1  0
 20  1  1  0
 20 21  1  0
 21 22  2  0
 22 23  1  0
 24 23  2  0
 25 24  1  0
 26 25  2  0
 26 21  1  0
 27 25  1  0
 27 31  1  0
 28 27  1  0
 29 28  2  0
 29 30  1  0
 30 31  2  0
  2 32  1  0
  8 33  1  0
  9 34  1  0
 11 35  1  0
 12 36  1  0
 13 37  1  0
 22 38  1  0
 23 39  1  0
 24 40  1  0
 28 41  1  0
 30 42  1  0
M  ISO  8  32  14  33  14  34  14  35  14  36  14  37  11  38  14  39  14
M  ISO  3  40  14  41  14  42  14
M  END
>  <minimizedAffinity>  (1) 
-5.48817348

>  <minimizedRMSD>  (1) 
0.739807129

$$$$
