
     RDKit          3D

 36 39  0  0  0  0  0  0  0  0999 V2000
   41.9460   22.3620   35.6830 O   0  0  0  0  0  0  0  0  0  0  0  0
   42.7820   21.3920   36.0560 C   0  0  0  0  0  0  0  0  0  0  0  0
   42.5590   20.1910   36.7350 C   0  0  0  0  0  0  0  0  0  0  0  0
   43.5540   19.2950   37.0420 C   0  0  0  0  0  0  0  0  0  0  0  0
   44.8380   19.6190   36.6490 C   0  0  0  0  0  0  0  0  0  0  0  0
   45.0700   20.7870   35.9870 C   0  0  0  0  0  0  0  0  0  0  0  0
   44.0530   21.6690   35.6910 N   0  0  0  0  0  0  0  0  0  0  0  0
   46.4260   21.0110   35.6340 N   0  0  0  0  0  0  0  0  0  0  0  0
   47.1720   20.4580   34.6450 C   0  0  0  0  0  0  0  0  0  0  0  0
   48.4150   20.9740   34.6870 N   0  0  0  0  0  0  0  0  0  0  0  0
   48.4350   21.8480   35.7040 C   0  0  0  0  0  0  0  0  0  0  0  0
   47.2170   21.8730   36.2870 N   0  0  0  0  0  0  0  0  0  0  0  0
   40.6110   22.5700   35.8510 C   0  0  0  0  0  0  0  0  0  0  0  0
   40.1400   22.9920   37.1180 C   0  0  0  0  0  0  0  0  0  0  0  0
   38.7550   23.1860   37.2160 C   0  0  0  0  0  0  0  0  0  0  0  0
   37.9730   22.9700   36.1480 N   0  0  0  0  0  0  0  0  0  0  0  0
   38.4880   22.5630   34.9540 C   0  0  0  0  0  0  0  0  0  0  0  0
   39.7810   22.3660   34.8020 N   0  0  0  0  0  0  0  0  0  0  0  0
   37.6420   22.3400   33.8320 N   0  0  0  0  0  0  0  0  0  0  0  0
   36.8640   21.3350   33.4130 C   0  0  0  0  0  0  0  0  0  0  0  0
   36.2770   21.7380   32.2100 C   0  0  0  0  0  0  0  0  0  0  0  0
   36.7320   22.9980   31.9430 N   0  0  0  0  0  0  0  0  0  0  0  0
   37.5770   23.3720   32.9450 C   0  0  0  0  0  0  0  0  0  0  0  0
   38.2870   23.6160   38.5160 C   0  0  0  0  0  0  0  0  0  0  0  0
   37.8170   24.9030   38.4790 F   0  0  0  0  0  0  0  0  0  0  0  0
   39.3720   23.6230   39.3620 F   0  0  0  0  0  0  0  0  0  0  0  0
   37.2830   22.8090   39.0370 F   0  0  0  0  0  0  0  0  0  0  0  0
   41.5301   19.9499   37.0404 H   0  0  0  0  0  0  0  0  0  0  0  0
   43.3374   18.3592   37.5781 H   0  0  0  0  0  0  0  0  0  0  0  0
   45.6712   18.9356   36.8700 H   0  0  0  0  0  0  0  0  0  0  0  0
   46.8177   19.7072   33.9233 H   0  0  0  0  0  0  0  0  0  0  0  0
   49.3035   22.4479   36.0135 H   0  0  0  0  0  0  0  0  0  0  0  0
   40.8165   23.1568   37.9696 H   0  0  0  0  0  0  0  0  0  0  0  0
   36.7142   20.3708   33.9209 H   0  0  0  0  0  0  0  0  0  0  0  0
   35.5798   21.1509   31.5942 H   0  0  0  0  0  0  0  0  0  0  0  0
   38.1091   24.3316   33.0231 H   0  0  0  0  0  0  0  0  0  0  0  0
  1 13  1  0
  1  2  1  0
  2  3  2  0
  3  4  1  0
  5  4  2  0
  6  5  1  0
  7  6  2  0
  7  2  1  0
  8  6  1  0
  8 12  1  0
  9 10  2  0
  9  8  1  0
 10 11  1  0
 11 12  2  0
 13 14  2  0
 14 15  1  0
 15 24  1  0
 16 15  2  0
 17 16  1  0
 18 17  2  0
 18 13  1  0
 19 17  1  0
 20 19  1  0
 21 20  2  0
 22 21  1  0
 22 23  2  0
 23 19  1  0
 24 27  1  0
 24 26  1  0
 25 24  1  0
  3 28  1  0
  4 29  1  0
  5 30  1  0
  9 31  1  0
 11 32  1  0
 14 33  1  0
 20 34  1  0
 21 35  1  0
 23 36  1  0
M  ISO  8  28  14  29  14  30  14  31  14  32  14  33  14  34  14  35  14
M  ISO  1  36  14
M  END
>  <minimizedAffinity>  (1) 
-5.48785686

>  <minimizedRMSD>  (1) 
0.559808314

$$$$
