
     RDKit          3D

 36 39  0  0  0  0  0  0  0  0999 V2000
   41.7150   22.1910   35.4370 O   0  0  0  0  0  0  0  0  0  0  0  0
   42.6340   21.3380   35.8770 C   0  0  0  0  0  0  0  0  0  0  0  0
   42.5210   20.1690   36.6430 C   0  0  0  0  0  0  0  0  0  0  0  0
   43.5920   19.3940   37.0150 C   0  0  0  0  0  0  0  0  0  0  0  0
   44.8330   19.7990   36.6050 C   0  0  0  0  0  0  0  0  0  0  0  0
   44.9620   20.9350   35.8590 C   0  0  0  0  0  0  0  0  0  0  0  0
   43.8810   21.7000   35.4960 N   0  0  0  0  0  0  0  0  0  0  0  0
   46.3060   21.2540   35.4940 N   0  0  0  0  0  0  0  0  0  0  0  0
   47.1030   20.7140   34.5470 C   0  0  0  0  0  0  0  0  0  0  0  0
   48.2960   21.3440   34.5700 N   0  0  0  0  0  0  0  0  0  0  0  0
   48.2270   22.2660   35.5280 C   0  0  0  0  0  0  0  0  0  0  0  0
   47.0050   22.2230   36.1070 N   0  0  0  0  0  0  0  0  0  0  0  0
   40.3940   22.3720   35.7020 C   0  0  0  0  0  0  0  0  0  0  0  0
   40.0120   22.8910   36.9660 C   0  0  0  0  0  0  0  0  0  0  0  0
   38.6420   23.0530   37.1770 C   0  0  0  0  0  0  0  0  0  0  0  0
   37.7780   22.7230   36.2060 N   0  0  0  0  0  0  0  0  0  0  0  0
   38.1990   22.2270   35.0050 C   0  0  0  0  0  0  0  0  0  0  0  0
   39.4830   22.0550   34.7570 N   0  0  0  0  0  0  0  0  0  0  0  0
   37.2500   21.8700   33.9520 C   0  0  0  0  0  0  0  0  0  0  0  0
   36.1860   20.9680   33.8550 C   0  0  0  0  0  0  0  0  0  0  0  0
   35.6840   21.1150   32.5740 C   0  0  0  0  0  0  0  0  0  0  0  0
   36.4640   22.0950   31.9550 C   0  0  0  0  0  0  0  0  0  0  0  0
   37.3720   22.5100   32.8030 O   0  0  0  0  0  0  0  0  0  0  0  0
   38.2730   23.5810   38.4710 C   0  0  0  0  0  0  0  0  0  0  0  0
   37.8410   24.8770   38.3780 F   0  0  0  0  0  0  0  0  0  0  0  0
   39.4190   23.5970   39.2440 F   0  0  0  0  0  0  0  0  0  0  0  0
   37.2860   22.8450   39.1130 F   0  0  0  0  0  0  0  0  0  0  0  0
   41.5170   19.8547   36.9644 H   0  0  0  0  0  0  0  0  0  0  0  0
   43.4576   18.4841   37.6184 H   0  0  0  0  0  0  0  0  0  0  0  0
   45.7230   19.2117   36.8753 H   0  0  0  0  0  0  0  0  0  0  0  0
   46.8251   19.8945   33.8679 H   0  0  0  0  0  0  0  0  0  0  0  0
   49.0377   22.9557   35.8056 H   0  0  0  0  0  0  0  0  0  0  0  0
   40.7535   23.1509   37.7359 H   0  0  0  0  0  0  0  0  0  0  0  0
   35.8231   20.2832   34.6356 H   0  0  0  0  0  0  0  0  0  0  0  0
   34.8384   20.5686   32.1308 H   0  0  0  0  0  0  0  0  0  0  0  0
   36.3365   22.4584   30.9246 H   0  0  0  0  0  0  0  0  0  0  0  0
  1 13  1  0
  1  2  1  0
  2  3  2  0
  3  4  1  0
  5  4  2  0
  6  5  1  0
  7  6  2  0
  7  2  1  0
  8  6  1  0
  8 12  1  0
  9 10  2  0
  9  8  1  0
 10 11  1  0
 11 12  2  0
 13 14  2  0
 14 15  1  0
 15 24  1  0
 16 15  2  0
 17 16  1  0
 18 17  2  0
 18 13  1  0
 19 17  1  0
 20 19  2  0
 21 20  1  0
 22 21  2  0
 22 23  1  0
 23 19  1  0
 24 27  1  0
 24 26  1  0
 25 24  1  0
  3 28  1  0
  4 29  1  0
  5 30  1  0
  9 31  1  0
 11 32  1  0
 14 33  1  0
 20 34  1  0
 21 35  1  0
 22 36  1  0
M  ISO  8  28  14  29  14  30  14  31  14  32  14  33  14  34  14  35  14
M  ISO  1  36  14
M  END
>  <minimizedAffinity>  (1) 
-5.404603

>  <minimizedRMSD>  (1) 
0.82123059

$$$$
