
     RDKit          3D

 36 38  0  0  0  0  0  0  0  0999 V2000
   41.0090   22.4340   36.2840 C   0  0  0  0  0  0  0  0  0  0  0  0
   40.3520   22.9400   37.4380 C   0  0  0  0  0  0  0  0  0  0  0  0
   38.9610   23.1020   37.3210 C   0  0  0  0  0  0  0  0  0  0  0  0
   38.3480   22.7850   36.1760 N   0  0  0  0  0  0  0  0  0  0  0  0
   39.0340   22.3050   35.1050 C   0  0  0  0  0  0  0  0  0  0  0  0
   40.3390   22.1320   35.1560 N   0  0  0  0  0  0  0  0  0  0  0  0
   38.3030   21.9930   33.9230 N   0  0  0  0  0  0  0  0  0  0  0  0
   36.9430   21.5600   33.9940 C   0  0  0  0  0  0  0  0  0  0  0  0
   36.4450   21.1340   35.1030 N   0  0  0  0  0  0  0  0  0  0  0  0
   36.1750   21.6220   32.7920 N   0  0  0  0  0  0  0  0  0  0  0  0
   35.4380   20.8250   35.1090 H   0  0  0  0  0  0  0  0  0  0  0  0
   38.3130   23.6170   38.5060 C   0  0  0  0  0  0  0  0  0  0  0  0
   37.8150   24.8890   38.2930 F   0  0  0  0  0  0  0  0  0  0  0  0
   39.2760   23.7370   39.4840 F   0  0  0  0  0  0  0  0  0  0  0  0
   37.2740   22.8180   38.9620 F   0  0  0  0  0  0  0  0  0  0  0  0
   42.3560   22.2500   36.3210 O   0  0  0  0  0  0  0  0  0  0  0  0
   43.1330   21.1840   36.4790 C   0  0  0  0  0  0  0  0  0  0  0  0
   42.8750   19.9130   37.0000 C   0  0  0  0  0  0  0  0  0  0  0  0
   43.8210   18.9220   37.0850 C   0  0  0  0  0  0  0  0  0  0  0  0
   45.0820   19.2100   36.6300 C   0  0  0  0  0  0  0  0  0  0  0  0
   45.3530   20.4470   36.1190 C   0  0  0  0  0  0  0  0  0  0  0  0
   44.3960   21.4310   36.0380 N   0  0  0  0  0  0  0  0  0  0  0  0
   46.7010   20.6280   35.6780 N   0  0  0  0  0  0  0  0  0  0  0  0
   47.3160   20.1870   34.5550 C   0  0  0  0  0  0  0  0  0  0  0  0
   48.5950   20.6060   34.5750 N   0  0  0  0  0  0  0  0  0  0  0  0
   48.7680   21.2970   35.6970 C   0  0  0  0  0  0  0  0  0  0  0  0
   47.6030   21.3170   36.3880 N   0  0  0  0  0  0  0  0  0  0  0  0
   40.8960   23.1883   38.3613 H   0  0  0  0  0  0  0  0  0  0  0  0
   38.7609   22.0807   33.0046 H   0  0  0  0  0  0  0  0  0  0  0  0
   35.1901   21.3206   32.7940 H   0  0  0  0  0  0  0  0  0  0  0  0
   36.6059   21.9681   31.9228 H   0  0  0  0  0  0  0  0  0  0  0  0
   41.8592   19.6951   37.3614 H   0  0  0  0  0  0  0  0  0  0  0  0
   43.5767   17.9340   37.5024 H   0  0  0  0  0  0  0  0  0  0  0  0
   45.8729   18.4469   36.6765 H   0  0  0  0  0  0  0  0  0  0  0  0
   46.8488   19.5872   33.7600 H   0  0  0  0  0  0  0  0  0  0  0  0
   49.7064   21.7757   36.0137 H   0  0  0  0  0  0  0  0  0  0  0  0
  1 16  1  0
  1  2  2  0
  3  2  1  0
  3 12  1  0
  4  3  2  0
  5  6  2  0
  5  4  1  0
  6  1  1  0
  7  8  1  0
  7  5  1  0
  8  9  2  0
  9 11  1  0
 10  8  1  0
 12 15  1  0
 12 14  1  0
 13 12  1  0
 16 17  1  0
 17 18  2  0
 18 19  1  0
 20 19  2  0
 21 20  1  0
 22 21  2  0
 22 17  1  0
 23 21  1  0
 23 27  1  0
 24 25  2  0
 24 23  1  0
 25 26  1  0
 26 27  2  0
  2 28  1  0
  7 29  1  0
 10 30  1  0
 10 31  1  0
 18 32  1  0
 19 33  1  0
 20 34  1  0
 24 35  1  0
 26 36  1  0
M  ISO  6  28  14  32  14  33  14  34  14  35  14  36  14
M  END
>  <minimizedAffinity>  (1) 
-5.35423899

>  <minimizedRMSD>  (1) 
0.0518988222

$$$$
