
     RDKit          3D

 35 38  0  0  0  0  0  0  0  0999 V2000
   41.7890   22.2630   35.5060 O   0  0  0  0  0  0  0  0  0  0  0  0
   42.6780   21.3640   35.9320 C   0  0  0  0  0  0  0  0  0  0  0  0
   42.5470   20.1810   36.6520 C   0  0  0  0  0  0  0  0  0  0  0  0
   43.5980   19.3680   37.0060 C   0  0  0  0  0  0  0  0  0  0  0  0
   44.8580   19.7680   36.6100 C   0  0  0  0  0  0  0  0  0  0  0  0
   45.0110   20.9320   35.8960 C   0  0  0  0  0  0  0  0  0  0  0  0
   43.9410   21.7160   35.5630 N   0  0  0  0  0  0  0  0  0  0  0  0
   46.3500   21.2320   35.5480 N   0  0  0  0  0  0  0  0  0  0  0  0
   47.1480   20.7080   34.5900 C   0  0  0  0  0  0  0  0  0  0  0  0
   48.3500   21.3040   34.6280 N   0  0  0  0  0  0  0  0  0  0  0  0
   48.2980   22.2060   35.6190 C   0  0  0  0  0  0  0  0  0  0  0  0
   47.0740   22.1630   36.1840 N   0  0  0  0  0  0  0  0  0  0  0  0
   40.4560   22.4230   35.7430 C   0  0  0  0  0  0  0  0  0  0  0  0
   40.0390   22.9250   36.9870 C   0  0  0  0  0  0  0  0  0  0  0  0
   38.6550   23.0690   37.1770 C   0  0  0  0  0  0  0  0  0  0  0  0
   37.8160   22.7310   36.1910 N   0  0  0  0  0  0  0  0  0  0  0  0
   38.2820   22.2490   35.0030 C   0  0  0  0  0  0  0  0  0  0  0  0
   39.5660   22.0980   34.7810 N   0  0  0  0  0  0  0  0  0  0  0  0
   37.3420   21.8780   33.9190 C   0  0  0  0  0  0  0  0  0  0  0  0
   37.4690   22.3570   32.6240 C   0  0  0  0  0  0  0  0  0  0  0  0
   36.0380   21.5550   31.7780 S   0  0  0  0  0  0  0  0  0  0  0  0
   35.5240   20.6960   33.3980 C   0  0  0  0  0  0  0  0  0  0  0  0
   36.3310   21.0620   34.1660 N   0  0  0  0  0  0  0  0  0  0  0  0
   38.2530   23.5890   38.4700 C   0  0  0  0  0  0  0  0  0  0  0  0
   37.8260   24.8870   38.3730 F   0  0  0  0  0  0  0  0  0  0  0  0
   39.3810   23.6020   39.2740 F   0  0  0  0  0  0  0  0  0  0  0  0
   37.2580   22.8360   39.0810 F   0  0  0  0  0  0  0  0  0  0  0  0
   41.5356   19.8756   36.9585 H   0  0  0  0  0  0  0  0  0  0  0  0
   43.4416   18.4417   37.5783 H   0  0  0  0  0  0  0  0  0  0  0  0
   45.7366   19.1573   36.8650 H   0  0  0  0  0  0  0  0  0  0  0  0
   46.8563   19.9141   33.8867 H   0  0  0  0  0  0  0  0  0  0  0  0
   49.1194   22.8721   35.9217 H   0  0  0  0  0  0  0  0  0  0  0  0
   40.7606   23.1920   37.7731 H   0  0  0  0  0  0  0  0  0  0  0  0
   38.2262   23.0383   32.2086 H   0  0  0  0  0  0  0  0  0  0  0  0
   34.6744   20.0192   33.5716 H   0  0  0  0  0  0  0  0  0  0  0  0
  1 13  1  0
  1  2  1  0
  2  3  2  0
  3  4  1  0
  5  4  2  0
  6  5  1  0
  7  6  2  0
  7  2  1  0
  8  6  1  0
  8 12  1  0
  9 10  2  0
  9  8  1  0
 10 11  1  0
 11 12  2  0
 13 14  2  0
 14 15  1  0
 15 24  1  0
 16 15  2  0
 17 16  1  0
 18 17  2  0
 18 13  1  0
 19 23  1  0
 19 17  1  0
 20 19  2  0
 21 20  1  0
 21 22  1  0
 22 23  2  0
 24 27  1  0
 24 26  1  0
 25 24  1  0
  3 28  1  0
  4 29  1  0
  5 30  1  0
  9 31  1  0
 11 32  1  0
 14 33  1  0
 20 34  1  0
 22 35  1  0
M  ISO  8  28  14  29  14  30  14  31  14  32  14  33  14  34  14  35  14
M  END
>  <minimizedAffinity>  (1) 
-5.35402775

>  <minimizedRMSD>  (1) 
0.788399458

$$$$
