
     RDKit          3D

 34 37  0  0  0  0  0  0  0  0999 V2000
   42.2110   22.3190   36.1680 O   0  0  0  0  0  0  0  0  0  0  0  0
   43.0290   21.2790   36.3750 C   0  0  0  0  0  0  0  0  0  0  0  0
   42.8050   20.0250   36.9230 C   0  0  0  0  0  0  0  0  0  0  0  0
   43.7860   19.0730   37.0550 C   0  0  0  0  0  0  0  0  0  0  0  0
   45.0430   19.3940   36.6170 C   0  0  0  0  0  0  0  0  0  0  0  0
   45.2810   20.6170   36.0760 C   0  0  0  0  0  0  0  0  0  0  0  0
   44.2900   21.5650   35.9490 N   0  0  0  0  0  0  0  0  0  0  0  0
   46.6260   20.8410   35.6530 N   0  0  0  0  0  0  0  0  0  0  0  0
   47.2680   20.3870   34.5460 C   0  0  0  0  0  0  0  0  0  0  0  0
   48.5360   20.8540   34.5620 N   0  0  0  0  0  0  0  0  0  0  0  0
   48.6640   21.5830   35.6660 C   0  0  0  0  0  0  0  0  0  0  0  0
   47.4940   21.5830   36.3470 N   0  0  0  0  0  0  0  0  0  0  0  0
   40.8660   22.4710   36.2030 C   0  0  0  0  0  0  0  0  0  0  0  0
   40.2620   22.9530   37.3940 C   0  0  0  0  0  0  0  0  0  0  0  0
   38.8610   23.0860   37.3570 C   0  0  0  0  0  0  0  0  0  0  0  0
   38.1910   22.7640   36.2420 N   0  0  0  0  0  0  0  0  0  0  0  0
   38.8290   22.3090   35.1310 C   0  0  0  0  0  0  0  0  0  0  0  0
   40.1420   22.1650   35.1110 N   0  0  0  0  0  0  0  0  0  0  0  0
   38.0780   21.9650   33.9290 C   0  0  0  0  0  0  0  0  0  0  0  0
   38.3140   22.0470   32.6080 N   0  0  0  0  0  0  0  0  0  0  0  0
   37.2620   21.5820   31.9650 O   0  0  0  0  0  0  0  0  0  0  0  0
   36.3410   21.1970   32.8080 C   0  0  0  0  0  0  0  0  0  0  0  0
   36.8340   21.4290   34.0530 N   0  0  0  0  0  0  0  0  0  0  0  0
   38.2600   23.5770   38.5790 C   0  0  0  0  0  0  0  0  0  0  0  0
   37.7040   24.8200   38.3960 F   0  0  0  0  0  0  0  0  0  0  0  0
   39.2740   23.7450   39.4950 F   0  0  0  0  0  0  0  0  0  0  0  0
   37.2870   22.7310   39.0970 F   0  0  0  0  0  0  0  0  0  0  0  0
   41.7901   19.7804   37.2696 H   0  0  0  0  0  0  0  0  0  0  0  0
   43.5699   18.0889   37.4963 H   0  0  0  0  0  0  0  0  0  0  0  0
   45.8595   18.6620   36.7032 H   0  0  0  0  0  0  0  0  0  0  0  0
   46.8294   19.7464   33.7667 H   0  0  0  0  0  0  0  0  0  0  0  0
   49.5799   22.1060   35.9783 H   0  0  0  0  0  0  0  0  0  0  0  0
   40.8507   23.2062   38.2880 H   0  0  0  0  0  0  0  0  0  0  0  0
   35.3588   20.7689   32.5588 H   0  0  0  0  0  0  0  0  0  0  0  0
  1 13  1  0
  1  2  1  0
  2  3  2  0
  3  4  1  0
  5  4  2  0
  6  5  1  0
  7  6  2  0
  7  2  1  0
  8  6  1  0
  8 12  1  0
  9 10  2  0
  9  8  1  0
 10 11  1  0
 11 12  2  0
 13 14  2  0
 15 14  1  0
 15 24  1  0
 16 15  2  0
 17 16  1  0
 18 17  2  0
 18 13  1  0
 19 23  1  0
 19 17  1  0
 20 19  2  0
 21 20  1  0
 21 22  1  0
 22 23  2  0
 24 27  1  0
 24 26  1  0
 25 24  1  0
  3 28  1  0
  4 29  1  0
  5 30  1  0
  9 31  1  0
 11 32  1  0
 14 33  1  0
 22 34  1  0
M  ISO  7  28  14  29  14  30  14  31  14  32  14  33  14  34  14
M  END
>  <minimizedAffinity>  (1) 
-5.27407217

>  <minimizedRMSD>  (1) 
0.205315441

$$$$
