
     RDKit          3D

 25 26  0  0  0  0  0  0  0  0999 V2000
   38.0830   24.9200   33.7070 C   0  0  0  0  0  0  0  0  0  0  0  0
   37.0990   25.2190   32.7540 C   0  0  0  0  0  0  0  0  0  0  0  0
   36.6650   24.1870   31.9260 C   0  0  0  0  0  0  0  0  0  0  0  0
   37.2120   22.9530   32.0820 N   0  0  0  0  0  0  0  0  0  0  0  0
   38.1580   22.7000   33.0090 C   0  0  0  0  0  0  0  0  0  0  0  0
   38.5830   23.6850   33.8120 N   0  0  0  0  0  0  0  0  0  0  0  0
   36.5260   26.5080   32.5890 N   0  0  0  0  0  0  0  0  0  0  0  0
   36.6700   27.5180   33.6080 C   0  0  0  0  0  0  0  0  0  0  0  0
   36.2810   28.8770   33.2090 C   0  0  0  0  0  0  0  0  0  0  0  0
   36.4730   29.2500   31.7850 C   0  0  0  0  0  0  0  0  0  0  0  0
   36.6230   28.0780   30.8550 C   0  0  0  0  0  0  0  0  0  0  0  0
   35.7740   26.9510   31.4550 C   0  0  0  0  0  0  0  0  0  0  0  0
   38.4483   25.7123   34.3770 H   0  0  0  0  0  0  0  0  0  0  0  0
   35.8951   24.3671   31.1613 H   0  0  0  0  0  0  0  0  0  0  0  0
   38.5794   21.6885   33.1057 H   0  0  0  0  0  0  0  0  0  0  0  0
   36.0473   27.2252   34.4662 H   0  0  0  0  0  0  0  0  0  0  0  0
   37.7449   27.5658   33.8369 H   0  0  0  0  0  0  0  0  0  0  0  0
   35.2123   28.9961   33.4405 H   0  0  0  0  0  0  0  0  0  0  0  0
   36.9577   29.5399   33.7681 H   0  0  0  0  0  0  0  0  0  0  0  0
   35.6009   29.8373   31.4618 H   0  0  0  0  0  0  0  0  0  0  0  0
   37.4134   29.8181   31.7314 H   0  0  0  0  0  0  0  0  0  0  0  0
   37.6775   27.7711   30.7939 H   0  0  0  0  0  0  0  0  0  0  0  0
   36.2967   28.3288   29.8349 H   0  0  0  0  0  0  0  0  0  0  0  0
   34.7880   27.3281   31.7643 H   0  0  0  0  0  0  0  0  0  0  0  0
   35.5812   26.1413   30.7359 H   0  0  0  0  0  0  0  0  0  0  0  0
  1  6  2  0
  2  1  1  0
  3  4  1  0
  3  2  2  0
  4  5  2  0
  5  6  1  0
  7  2  1  0
  7  8  1  0
  9  8  1  0
 10  9  1  0
 11 12  1  0
 11 10  1  0
 12  7  1  0
  1 13  1  0
  3 14  1  0
  5 15  1  0
  8 16  1  0
  8 17  1  0
  9 18  1  0
  9 19  1  0
 10 20  1  0
 10 21  1  0
 11 22  1  0
 11 23  1  0
 12 24  1  0
 12 25  1  0
M  ISO  8  13  14  14  14  15  14  16  13  17  13  18  13  19  13  20  13
M  ISO  5  21  13  22  13  23  13  24  13  25  13
M  END
>  <minimizedAffinity>  (1) 
-2.8617413

>  <minimizedRMSD>  (1) 
7.94051933

$$$$
