
     RDKit          3D

 39 42  0  0  1  0  0  0  0  0999 V2000
   37.7380   27.5140   33.2200 N   0  0  0  0  0  0  0  0  0  0  0  0
   38.8760   27.5030   32.3270 C   0  0  0  0  0  0  0  0  0  0  0  0
   40.0400   26.7400   32.8050 C   0  0  0  0  0  0  0  0  0  0  0  0
   40.2690   26.7320   34.2720 C   0  0  0  0  0  0  0  0  0  0  0  0
   39.0620   27.0490   35.0800 C   0  0  0  0  0  0  0  0  0  0  0  0
   37.8380   26.5930   34.3110 C   0  0  2  0  0  0  0  0  0  0  0  0
   37.8540   25.2060   33.9460 N   0  0  0  0  0  0  0  0  0  0  0  0
   38.5760   24.1900   34.5060 C   0  0  0  0  0  0  0  0  0  0  0  0
   38.2700   23.0460   33.8310 N   0  0  0  0  0  0  0  0  0  0  0  0
   37.3730   23.3320   32.8650 C   0  0  0  0  0  0  0  0  0  0  0  0
   36.7950   22.4800   31.9540 C   0  0  0  0  0  0  0  0  0  0  0  0
   37.0190   21.2560   31.8750 O   0  0  0  0  0  0  0  0  0  0  0  0
   35.9180   22.9800   31.0690 N   0  0  0  0  0  0  0  0  0  0  0  0
   35.6510   24.2980   31.1240 C   0  0  0  0  0  0  0  0  0  0  0  0
   34.7550   25.0630   30.2910 N   0  0  0  0  0  0  0  0  0  0  0  0
   36.2300   25.1110   32.0250 N   0  0  0  0  0  0  0  0  0  0  0  0
   37.1180   24.6870   32.9430 C   0  0  0  0  0  0  0  0  0  0  0  0
   36.3400   28.9200   31.7360 C   0  0  0  0  0  0  0  0  0  0  0  0
   36.6550   28.3840   32.9800 C   0  0  0  0  0  0  0  0  0  0  0  0
   35.8330   28.7490   34.0290 C   0  0  0  0  0  0  0  0  0  0  0  0
   34.7860   29.5910   33.7970 N   0  0  0  0  0  0  0  0  0  0  0  0
   34.5230   30.0820   32.5810 C   0  0  0  0  0  0  0  0  0  0  0  0
   35.3070   29.7410   31.5480 N   0  0  0  0  0  0  0  0  0  0  0  0
   39.1936   28.5440   32.1676 H   0  0  0  0  0  0  0  0  0  0  0  0
   38.5383   27.0011   31.4083 H   0  0  0  0  0  0  0  0  0  0  0  0
   39.9119   25.6967   32.4809 H   0  0  0  0  0  0  0  0  0  0  0  0
   40.9169   27.2469   32.3759 H   0  0  0  0  0  0  0  0  0  0  0  0
   40.6237   25.7314   34.5601 H   0  0  0  0  0  0  0  0  0  0  0  0
   41.0051   27.5223   34.4808 H   0  0  0  0  0  0  0  0  0  0  0  0
   39.1120   26.5228   36.0447 H   0  0  0  0  0  0  0  0  0  0  0  0
   39.0077   28.1312   35.2696 H   0  0  0  0  0  0  0  0  0  0  0  0
   36.9288   26.6205   34.9295 H   0  0  0  0  0  0  0  0  0  0  0  0
   39.2772   24.2792   35.3489 H   0  0  0  0  0  0  0  0  0  0  0  0
   35.4641   22.3744   30.3704 H   0  0  0  0  0  0  0  0  0  0  0  0
   34.6463   26.0755   30.4457 H   0  0  0  0  0  0  0  0  0  0  0  0
   34.2241   24.5966   29.5416 H   0  0  0  0  0  0  0  0  0  0  0  0
   36.9685   28.6558   30.8727 H   0  0  0  0  0  0  0  0  0  0  0  0
   36.0216   28.3638   35.0419 H   0  0  0  0  0  0  0  0  0  0  0  0
   33.6703   30.7602   32.4295 H   0  0  0  0  0  0  0  0  0  0  0  0
  1  6  1  0
  2  3  1  0
  2  1  1  0
  3  4  1  0
  4  5  1  0
  6  5  1  0
  7  6  1  0
  7  8  1  0
  9  8  2  0
 10 17  2  0
 10  9  1  0
 11 10  1  0
 12 11  2  0
 13 14  1  0
 13 11  1  0
 14 16  2  0
 15 14  1  0
 16 17  1  0
 17  7  1  0
 18 19  2  0
 19  1  1  0
 19 20  1  0
 21 20  2  0
 22 21  1  0
 23 18  1  0
 23 22  2  0
  2 24  1  0
  2 25  1  0
  3 26  1  0
  3 27  1  0
  4 28  1  0
  4 29  1  0
  5 30  1  0
  5 31  1  0
  6 32  1  1
  8 33  1  0
 13 34  1  0
 15 35  1  0
 15 36  1  0
 18 37  1  0
 20 38  1  0
 22 39  1  0
M  ISO  8  24  13  25  13  26  13  27  13  28  13  29  13  30  13  31  13
M  ISO  6  32  13  33  14  34   9  37  14  38  14  39  14
M  END
>  <minimizedAffinity>  (1) 
-5.36253119

>  <minimizedRMSD>  (1) 
6.21037388

$$$$
