
     RDKit          3D

 39 42  0  0  1  0  0  0  0  0999 V2000
   36.7360   26.3750   32.3550 N   0  0  0  0  0  0  0  0  0  0  0  0
   35.6820   27.1330   31.6230 C   0  0  0  0  0  0  0  0  0  0  0  0
   35.6560   28.5790   31.9360 C   0  0  0  0  0  0  0  0  0  0  0  0
   35.8800   28.9210   33.3580 C   0  0  0  0  0  0  0  0  0  0  0  0
   36.6840   27.8650   34.0840 C   0  0  0  0  0  0  0  0  0  0  0  0
   37.5910   27.1820   33.0960 C   0  0  1  0  0  0  0  0  0  0  0  0
   38.9740   27.0390   33.3750 C   0  0  0  0  0  0  0  0  0  0  0  0
   39.5390   26.6940   34.5760 N   0  0  0  0  0  0  0  0  0  0  0  0
   40.8170   26.5590   34.8380 C   0  0  0  0  0  0  0  0  0  0  0  0
   41.7800   26.7480   33.9270 N   0  0  0  0  0  0  0  0  0  0  0  0
   41.3870   27.0940   32.6920 C   0  0  0  0  0  0  0  0  0  0  0  0
   42.3340   27.3090   31.7170 C   0  0  0  0  0  0  0  0  0  0  0  0
   41.9620   27.6740   30.4410 C   0  0  0  0  0  0  0  0  0  0  0  0
   40.6250   27.8190   30.1560 C   0  0  0  0  0  0  0  0  0  0  0  0
   39.7300   27.5950   31.1570 C   0  0  0  0  0  0  0  0  0  0  0  0
   40.0370   27.2230   32.4650 C   0  0  0  0  0  0  0  0  0  0  0  0
   37.4480   24.0030   32.8000 C   0  0  0  0  0  0  0  0  0  0  0  0
   36.6640   24.9770   32.1900 C   0  0  0  0  0  0  0  0  0  0  0  0
   35.7170   24.5090   31.3100 C   0  0  0  0  0  0  0  0  0  0  0  0
   35.5820   23.1830   31.0720 N   0  0  0  0  0  0  0  0  0  0  0  0
   36.3790   22.2790   31.7000 C   0  0  0  0  0  0  0  0  0  0  0  0
   37.3000   22.7080   32.5550 N   0  0  0  0  0  0  0  0  0  0  0  0
   34.7030   26.7046   31.8840 H   0  0  0  0  0  0  0  0  0  0  0  0
   35.9105   27.0427   30.5508 H   0  0  0  0  0  0  0  0  0  0  0  0
   36.4398   29.0700   31.3406 H   0  0  0  0  0  0  0  0  0  0  0  0
   34.6397   28.9245   31.6959 H   0  0  0  0  0  0  0  0  0  0  0  0
   36.4224   29.8765   33.4106 H   0  0  0  0  0  0  0  0  0  0  0  0
   34.8966   28.9891   33.8461 H   0  0  0  0  0  0  0  0  0  0  0  0
   37.2865   28.3371   34.8740 H   0  0  0  0  0  0  0  0  0  0  0  0
   36.0071   27.1284   34.5414 H   0  0  0  0  0  0  0  0  0  0  0  0
   38.1691   27.7246   32.3335 H   0  0  0  0  0  0  0  0  0  0  0  0
   41.1131   26.2759   35.8589 H   0  0  0  0  0  0  0  0  0  0  0  0
   43.4003   27.1882   31.9588 H   0  0  0  0  0  0  0  0  0  0  0  0
   42.7217   27.8463   29.6643 H   0  0  0  0  0  0  0  0  0  0  0  0
   40.2884   28.1074   29.1492 H   0  0  0  0  0  0  0  0  0  0  0  0
   38.6651   27.7191   30.9108 H   0  0  0  0  0  0  0  0  0  0  0  0
   38.2220   24.3198   33.5145 H   0  0  0  0  0  0  0  0  0  0  0  0
   35.0594   25.2223   30.7917 H   0  0  0  0  0  0  0  0  0  0  0  0
   36.2624   21.2032   31.5021 H   0  0  0  0  0  0  0  0  0  0  0  0
  1  6  1  0
  2  3  1  0
  2  1  1  0
  3  4  1  0
  4  5  1  0
  6  7  1  0
  6  5  1  0
  7  8  2  0
  8  9  1  0
 10  9  2  0
 11 10  1  0
 12 11  2  0
 13 12  1  0
 14 13  2  0
 14 15  1  0
 15 16  2  0
 16 11  1  0
 16  7  1  0
 18  1  1  0
 18 17  2  0
 19 18  1  0
 20 19  2  0
 20 21  1  0
 21 22  2  0
 22 17  1  0
  2 23  1  0
  2 24  1  0
  3 25  1  0
  3 26  1  0
  4 27  1  0
  4 28  1  0
  5 29  1  0
  5 30  1  0
  6 31  1  6
  9 32  1  0
 12 33  1  0
 13 34  1  0
 14 35  1  0
 15 36  1  0
 17 37  1  0
 19 38  1  0
 21 39  1  0
M  ISO  8  23  13  24  13  25  13  26  13  27  13  28  13  29  13  30  13
M  ISO  8  31  13  32  14  33  14  34  14  35  14  36  14  37  14  38  14
M  ISO  1  39  14
M  END
>  <minimizedAffinity>  (1) 
-4.98561859

>  <minimizedRMSD>  (1) 
6.15131664

$$$$
