
     RDKit          3D

 40 42  0  0  1  0  0  0  0  0999 V2000
   38.7660   25.3720   33.6420 N   0  0  0  0  0  0  0  0  0  0  0  0
   39.8140   26.3300   33.9470 C   0  0  0  0  0  0  0  0  0  0  0  0
   39.7030   27.0070   35.2360 C   0  0  0  0  0  0  0  0  0  0  0  0
   38.3120   27.3020   35.7020 C   0  0  0  0  0  0  0  0  0  0  0  0
   37.2600   26.4480   35.0570 C   0  0  0  0  0  0  0  0  0  0  0  0
   37.9220   25.1220   34.7440 C   0  0  2  0  0  0  0  0  0  0  0  0
   39.5670   25.0620   31.3160 C   0  0  0  0  0  0  0  0  0  0  0  0
   38.6650   24.8010   32.3540 C   0  0  0  0  0  0  0  0  0  0  0  0
   37.6140   23.9410   32.0970 C   0  0  0  0  0  0  0  0  0  0  0  0
   37.4890   23.3830   30.8630 N   0  0  0  0  0  0  0  0  0  0  0  0
   38.3750   23.6520   29.8800 C   0  0  0  0  0  0  0  0  0  0  0  0
   39.4080   24.4900   30.1130 N   0  0  0  0  0  0  0  0  0  0  0  0
   38.5600   24.5350   35.8870 N   0  0  0  0  0  0  0  0  0  0  0  0
   37.6220   24.2300   36.9480 C   0  0  0  0  0  0  0  0  0  0  0  0
   38.4010   23.8400   38.1840 C   0  0  0  0  0  0  0  0  0  0  0  0
   39.4800   22.8450   37.9540 C   0  0  0  0  0  0  0  0  0  0  0  0
   40.2890   23.1260   36.7020 C   0  0  0  0  0  0  0  0  0  0  0  0
   39.2800   23.3330   35.5920 C   0  0  0  0  0  0  0  0  0  0  0  0
   40.7752   25.7954   33.9286 H   0  0  0  0  0  0  0  0  0  0  0  0
   39.7257   27.1202   33.1869 H   0  0  0  0  0  0  0  0  0  0  0  0
   40.1843   26.3707   35.9933 H   0  0  0  0  0  0  0  0  0  0  0  0
   40.1852   27.9863   35.1002 H   0  0  0  0  0  0  0  0  0  0  0  0
   38.2697   27.1412   36.7894 H   0  0  0  0  0  0  0  0  0  0  0  0
   38.0951   28.3428   35.4199 H   0  0  0  0  0  0  0  0  0  0  0  0
   36.4154   26.2989   35.7458 H   0  0  0  0  0  0  0  0  0  0  0  0
   36.8633   26.9215   34.1469 H   0  0  0  0  0  0  0  0  0  0  0  0
   37.1905   24.3454   34.4760 H   0  0  0  0  0  0  0  0  0  0  0  0
   40.4140   25.7424   31.4883 H   0  0  0  0  0  0  0  0  0  0  0  0
   36.8831   23.7093   32.8857 H   0  0  0  0  0  0  0  0  0  0  0  0
   38.2553   23.1886   28.8896 H   0  0  0  0  0  0  0  0  0  0  0  0
   37.0051   25.1150   37.1628 H   0  0  0  0  0  0  0  0  0  0  0  0
   36.9646   23.4029   36.6419 H   0  0  0  0  0  0  0  0  0  0  0  0
   38.8579   24.7495   38.6013 H   0  0  0  0  0  0  0  0  0  0  0  0
   37.6810   23.3631   38.8653 H   0  0  0  0  0  0  0  0  0  0  0  0
   40.1585   22.8574   38.8198 H   0  0  0  0  0  0  0  0  0  0  0  0
   39.0000   21.8641   37.8221 H   0  0  0  0  0  0  0  0  0  0  0  0
   40.9002   24.0306   36.8367 H   0  0  0  0  0  0  0  0  0  0  0  0
   40.9772   22.2991   36.4724 H   0  0  0  0  0  0  0  0  0  0  0  0
   38.5867   22.4800   35.5501 H   0  0  0  0  0  0  0  0  0  0  0  0
   39.7847   23.4116   34.6178 H   0  0  0  0  0  0  0  0  0  0  0  0
  1  2  1  0
  1  6  1  0
  2  3  1  0
  3  4  1  0
  5  4  1  0
  6  5  1  0
  6 13  1  0
  7  8  2  0
  8  1  1  0
  9  8  1  0
 10  9  2  0
 11 12  2  0
 11 10  1  0
 12  7  1  0
 13 14  1  0
 14 15  1  0
 16 15  1  0
 17 16  1  0
 18 13  1  0
 18 17  1  0
  2 19  1  0
  2 20  1  0
  3 21  1  0
  3 22  1  0
  4 23  1  0
  4 24  1  0
  5 25  1  0
  5 26  1  0
  6 27  1  6
  7 28  1  0
  9 29  1  0
 11 30  1  0
 14 31  1  0
 14 32  1  0
 15 33  1  0
 15 34  1  0
 16 35  1  0
 16 36  1  0
 17 37  1  0
 17 38  1  0
 18 39  1  0
 18 40  1  0
M  ISO  8  19  13  20  13  21  13  22  13  23  13  24  13  25  13  26  13
M  ISO  8  27  13  28  14  29  14  30  14  31  13  32  13  33  13  34  13
M  ISO  6  35  13  36  13  37  13  38  13  39  13  40  13
M  END
>  <minimizedAffinity>  (1) 
-4.80483913

>  <minimizedRMSD>  (1) 
5.7998209

$$$$
