
     RDKit          3D

 36 38  0  0  1  0  0  0  0  0999 V2000
   39.0660   24.9960   34.7500 N   0  0  0  0  0  0  0  0  0  0  0  0
   39.2860   26.4020   34.5680 C   0  0  0  0  0  0  0  0  0  0  0  0
   39.6210   26.8170   33.1940 C   0  0  0  0  0  0  0  0  0  0  0  0
   40.4320   25.8560   32.3970 C   0  0  0  0  0  0  0  0  0  0  0  0
   40.3710   24.4450   32.9040 C   0  0  0  0  0  0  0  0  0  0  0  0
   39.0020   24.2470   33.5330 C   0  0  2  0  0  0  0  0  0  0  0  0
   37.9100   24.5690   32.6630 N   0  0  0  0  0  0  0  0  0  0  0  0
   37.1030   25.6220   32.9150 C   0  0  0  0  0  0  0  0  0  0  0  0
   36.0310   25.9810   32.1080 C   0  0  0  0  0  0  0  0  0  0  0  0
   35.7530   25.2400   30.9810 C   0  0  0  0  0  0  0  0  0  0  0  0
   34.6840   25.5190   30.0890 N   0  0  0  0  0  0  0  0  0  0  0  0
   36.5610   24.1930   30.7340 N   0  0  0  0  0  0  0  0  0  0  0  0
   37.5840   23.8950   31.5560 C   0  0  0  0  0  0  0  0  0  0  0  0
   38.2770   22.8940   31.2310 O   0  0  0  0  0  0  0  0  0  0  0  0
   38.0120   24.9170   36.9990 C   0  0  0  0  0  0  0  0  0  0  0  0
   38.9390   24.4400   36.0460 C   0  0  0  0  0  0  0  0  0  0  0  0
   39.7490   23.3820   36.4150 C   0  0  0  0  0  0  0  0  0  0  0  0
   39.6020   22.8670   37.6740 N   0  0  0  0  0  0  0  0  0  0  0  0
   38.7090   23.3470   38.5570 C   0  0  0  0  0  0  0  0  0  0  0  0
   37.9290   24.3660   38.2020 N   0  0  0  0  0  0  0  0  0  0  0  0
   38.3692   26.9306   34.8681 H   0  0  0  0  0  0  0  0  0  0  0  0
   40.1628   26.6536   35.1828 H   0  0  0  0  0  0  0  0  0  0  0  0
   38.6772   26.9874   32.6553 H   0  0  0  0  0  0  0  0  0  0  0  0
   40.2488   27.7138   33.3019 H   0  0  0  0  0  0  0  0  0  0  0  0
   41.4809   26.1868   32.4178 H   0  0  0  0  0  0  0  0  0  0  0  0
   40.0124   25.8492   31.3802 H   0  0  0  0  0  0  0  0  0  0  0  0
   40.5075   23.7399   32.0708 H   0  0  0  0  0  0  0  0  0  0  0  0
   41.1671   24.2623   33.6408 H   0  0  0  0  0  0  0  0  0  0  0  0
   38.7810   23.1891   33.7381 H   0  0  0  0  0  0  0  0  0  0  0  0
   37.3059   26.2294   33.8094 H   0  0  0  0  0  0  0  0  0  0  0  0
   35.4089   26.8504   32.3671 H   0  0  0  0  0  0  0  0  0  0  0  0
   34.5332   24.9221   29.2632 H   0  0  0  0  0  0  0  0  0  0  0  0
   34.0594   26.3182   30.2677 H   0  0  0  0  0  0  0  0  0  0  0  0
   37.3503   25.7566   36.7397 H   0  0  0  0  0  0  0  0  0  0  0  0
   40.4902   22.9663   35.7165 H   0  0  0  0  0  0  0  0  0  0  0  0
   38.6239   22.9035   39.5600 H   0  0  0  0  0  0  0  0  0  0  0  0
  1 16  1  0
  2  1  1  0
  3  2  1  0
  4  5  1  0
  4  3  1  0
  5  6  1  0
  6  1  1  0
  7  8  1  0
  7  6  1  0
  9  8  2  0
 10  9  1  0
 11 10  1  0
 12 10  2  0
 12 13  1  0
 13  7  1  0
 14 13  2  0
 15 20  2  0
 16 17  2  0
 16 15  1  0
 17 18  1  0
 18 19  2  0
 20 19  1  0
  2 21  1  0
  2 22  1  0
  3 23  1  0
  3 24  1  0
  4 25  1  0
  4 26  1  0
  5 27  1  0
  5 28  1  0
  6 29  1  1
  8 30  1  0
  9 31  1  0
 11 32  1  0
 11 33  1  0
 15 34  1  0
 17 35  1  0
 19 36  1  0
M  ISO  8  21  13  22  13  23  13  24  13  25  13  26  13  27  13  28  13
M  ISO  6  29  13  30  14  31  14  34  14  35  14  36  14
M  END
>  <minimizedAffinity>  (1) 
-4.80210543

>  <minimizedRMSD>  (1) 
4.94313097

$$$$
