
     RDKit          3D

 33 35  0  0  1  0  0  0  0  0999 V2000
   38.7830   25.5320   34.9110 N   0  0  0  0  0  0  0  0  0  0  0  0
   39.8190   26.5320   34.7220 C   0  0  0  0  0  0  0  0  0  0  0  0
   39.9570   27.0530   33.3550 C   0  0  0  0  0  0  0  0  0  0  0  0
   39.6050   26.1540   32.2390 C   0  0  0  0  0  0  0  0  0  0  0  0
   38.7910   24.9590   32.6500 C   0  0  0  0  0  0  0  0  0  0  0  0
   37.9070   25.4410   33.8070 C   0  0  2  0  0  0  0  0  0  0  0  0
   37.9350   25.0740   37.2010 C   0  0  0  0  0  0  0  0  0  0  0  0
   38.7370   24.7770   36.1030 C   0  0  0  0  0  0  0  0  0  0  0  0
   39.5420   23.6610   36.2120 C   0  0  0  0  0  0  0  0  0  0  0  0
   39.5290   22.9180   37.3370 N   0  0  0  0  0  0  0  0  0  0  0  0
   38.7280   23.2460   38.3860 C   0  0  0  0  0  0  0  0  0  0  0  0
   37.9320   24.3330   38.3060 N   0  0  0  0  0  0  0  0  0  0  0  0
   37.1560   26.6570   33.4940 C   0  0  0  0  0  0  0  0  0  0  0  0
   36.8510   27.4120   34.6230 C   0  0  0  0  0  0  0  0  0  0  0  0
   36.1380   28.6030   34.5050 C   0  0  0  0  0  0  0  0  0  0  0  0
   35.7280   29.0450   33.2980 N   0  0  0  0  0  0  0  0  0  0  0  0
   36.0360   28.2880   32.2050 C   0  0  0  0  0  0  0  0  0  0  0  0
   36.7250   27.1410   32.3150 N   0  0  0  0  0  0  0  0  0  0  0  0
   39.5961   27.3799   35.3864 H   0  0  0  0  0  0  0  0  0  0  0  0
   40.7695   26.0270   34.9488 H   0  0  0  0  0  0  0  0  0  0  0  0
   39.3141   27.9420   33.2759 H   0  0  0  0  0  0  0  0  0  0  0  0
   41.0350   27.2359   33.2349 H   0  0  0  0  0  0  0  0  0  0  0  0
   40.5365   25.7956   31.7766 H   0  0  0  0  0  0  0  0  0  0  0  0
   38.9843   26.7380   31.5435 H   0  0  0  0  0  0  0  0  0  0  0  0
   38.1700   24.6105   31.8116 H   0  0  0  0  0  0  0  0  0  0  0  0
   39.4295   24.1149   32.9496 H   0  0  0  0  0  0  0  0  0  0  0  0
   37.0867   24.7432   34.0310 H   0  0  0  0  0  0  0  0  0  0  0  0
   37.2784   25.9552   37.1534 H   0  0  0  0  0  0  0  0  0  0  0  0
   40.1979   23.3762   35.3762 H   0  0  0  0  0  0  0  0  0  0  0  0
   38.7289   22.6279   39.2959 H   0  0  0  0  0  0  0  0  0  0  0  0
   37.1753   27.0657   35.6154 H   0  0  0  0  0  0  0  0  0  0  0  0
   35.9066   29.1898   35.4062 H   0  0  0  0  0  0  0  0  0  0  0  0
   35.7118   28.6259   31.2096 H   0  0  0  0  0  0  0  0  0  0  0  0
  1  8  1  0
  2  1  1  0
  3  2  1  0
  4  5  1  0
  4  3  1  0
  5  6  1  0
  6  1  1  0
  7 12  2  0
  8  9  2  0
  8  7  1  0
  9 10  1  0
 10 11  2  0
 12 11  1  0
 13  6  1  0
 13 14  2  0
 15 14  1  0
 16 15  2  0
 17 18  2  0
 17 16  1  0
 18 13  1  0
  2 19  1  0
  2 20  1  0
  3 21  1  0
  3 22  1  0
  4 23  1  0
  4 24  1  0
  5 25  1  0
  5 26  1  0
  6 27  1  1
  7 28  1  0
  9 29  1  0
 11 30  1  0
 14 31  1  0
 15 32  1  0
 17 33  1  0
M  ISO  8  19  13  20  13  21  13  22  13  23  13  24  13  25  13  26  13
M  ISO  7  27  13  28  14  29  14  30  14  31  14  32  14  33  14
M  END
>  <minimizedAffinity>  (1) 
-4.60718441

>  <minimizedRMSD>  (1) 
4.21671295

$$$$
