
     RDKit          3D

 46 49  0  0  0  0  0  0  0  0999 V2000
   39.9750   22.1700   37.0710 C   0  0  0  0  0  0  0  0  0  0  0  0
   39.0950   23.2810   37.0120 C   0  0  0  0  0  0  0  0  0  0  0  0
   39.2660   24.1730   35.9840 C   0  0  0  0  0  0  0  0  0  0  0  0
   40.2700   23.9500   35.0710 N   0  0  0  0  0  0  0  0  0  0  0  0
   41.0880   22.8870   35.1530 C   0  0  0  0  0  0  0  0  0  0  0  0
   40.9200   22.0160   36.1590 N   0  0  0  0  0  0  0  0  0  0  0  0
   38.0150   23.5120   38.0020 C   0  0  0  0  0  0  0  0  0  0  0  0
   38.3210   22.6940   39.1140 F   0  0  0  0  0  0  0  0  0  0  0  0
   36.7920   23.2280   37.5630 F   0  0  0  0  0  0  0  0  0  0  0  0
   38.1490   24.8000   38.5750 F   0  0  0  0  0  0  0  0  0  0  0  0
   38.4910   25.3700   35.7260 C   0  0  0  0  0  0  0  0  0  0  0  0
   37.2650   25.5710   35.5430 O   0  0  0  0  0  0  0  0  0  0  0  0
   38.9720   26.6390   35.6180 O   0  0  0  0  0  0  0  0  0  0  0  0
   39.4110   27.3020   34.4780 C   0  0  0  0  0  0  0  0  0  0  0  0
   38.8780   26.7370   33.1900 C   0  0  0  0  0  0  0  0  0  0  0  0
   39.9930   26.8310   32.1800 C   0  0  0  0  0  0  0  0  0  0  0  0
   41.2680   27.0690   32.9180 C   0  0  0  0  0  0  0  0  0  0  0  0
   40.9100   27.0960   34.3670 C   0  0  0  0  0  0  0  0  0  0  0  0
   42.3440   22.7310   33.8960 S   0  0  0  0  0  0  0  0  0  0  0  0
   43.7150   23.8130   34.2640 C   0  0  0  0  0  0  0  0  0  0  0  0
   44.2290   24.5910   33.2290 C   0  0  0  0  0  0  0  0  0  0  0  0
   45.5940   25.5150   34.0780 S   0  0  0  0  0  0  0  0  0  0  0  0
   45.2090   24.6630   35.7060 C   0  0  0  0  0  0  0  0  0  0  0  0
   44.3590   24.0250   35.3760 N   0  0  0  0  0  0  0  0  0  0  0  0
   45.8600   24.8290   36.9810 N   0  0  0  0  0  0  0  0  0  0  0  0
   45.2490   25.6950   37.8130 C   0  0  0  0  0  0  0  0  0  0  0  0
   45.9930   25.7360   38.9760 C   0  0  0  0  0  0  0  0  0  0  0  0
   47.0320   24.8830   38.7930 N   0  0  0  0  0  0  0  0  0  0  0  0
   46.9500   24.3340   37.5820 C   0  0  0  0  0  0  0  0  0  0  0  0
   47.7780   23.3800   36.8890 C   0  0  0  0  0  0  0  0  0  0  0  0
   47.3770   22.2050   36.7050 O   0  0  0  0  0  0  0  0  0  0  0  0
   49.0170   23.8050   36.4420 O   0  0  0  0  0  0  0  0  0  0  0  0
   39.8707   21.4322   37.8802 H   0  0  0  0  0  0  0  0  0  0  0  0
   39.0761   28.3434   34.5932 H   0  0  0  0  0  0  0  0  0  0  0  0
   38.5818   25.6870   33.3307 H   0  0  0  0  0  0  0  0  0  0  0  0
   37.9908   27.2926   32.8520 H   0  0  0  0  0  0  0  0  0  0  0  0
   39.8009   27.6650   31.4890 H   0  0  0  0  0  0  0  0  0  0  0  0
   40.0582   25.9007   31.5966 H   0  0  0  0  0  0  0  0  0  0  0  0
   41.9827   26.2574   32.7166 H   0  0  0  0  0  0  0  0  0  0  0  0
   41.7437   28.0099   32.6044 H   0  0  0  0  0  0  0  0  0  0  0  0
   41.1914   26.1428   34.8385 H   0  0  0  0  0  0  0  0  0  0  0  0
   41.4455   27.9104   34.8769 H   0  0  0  0  0  0  0  0  0  0  0  0
   43.9077   24.6436   32.1783 H   0  0  0  0  0  0  0  0  0  0  0  0
   44.3301   26.2628   37.6050 H   0  0  0  0  0  0  0  0  0  0  0  0
   45.7847   26.3397   39.8717 H   0  0  0  0  0  0  0  0  0  0  0  0
   49.6124   23.1764   35.9620 H   0  0  0  0  0  0  0  0  0  0  0  0
  2  1  2  0
  2  7  1  0
  3  2  1  0
  4  5  1  0
  4  3  2  0
  5  6  2  0
  6  1  1  0
  7 10  1  0
  7  8  1  0
  9  7  1  0
 11  3  1  0
 12 11  2  0
 13 11  1  0
 14 13  1  0
 15 14  1  0
 16 17  1  0
 16 15  1  0
 17 18  1  0
 18 14  1  0
 19 20  1  0
 19  5  1  0
 20 24  1  0
 21 22  1  0
 21 20  2  0
 22 23  1  0
 23 25  1  0
 24 23  2  0
 25 29  1  0
 25 26  1  0
 26 27  2  0
 28 27  1  0
 29 28  2  0
 30 29  1  0
 31 30  2  0
 32 30  1  0
  1 33  1  0
 14 34  1  0
 15 35  1  0
 15 36  1  0
 16 37  1  0
 16 38  1  0
 17 39  1  0
 17 40  1  0
 18 41  1  0
 18 42  1  0
 21 43  1  0
 26 44  1  0
 27 45  1  0
 32 46  1  0
M  ISO  8  33  14  34  13  35  13  36  13  37  13  38  13  39  13  40  13
M  ISO  6  41  13  42  13  43  14  44  14  45  14  46   3
M  END
>  <minimizedAffinity>  (1) 
-5.5954833

>  <minimizedRMSD>  (1) 
2.21674323

$$$$
