
     RDKit          3D

 38 40  0  0  1  0  0  0  0  0999 V2000
   38.3780   24.9450   34.0920 N   0  0  0  0  0  0  0  0  0  0  0  0
   37.7700   25.0840   35.3890 C   0  0  0  0  0  0  0  0  0  0  0  0
   37.8430   26.4270   35.9740 C   0  0  0  0  0  0  0  0  0  0  0  0
   39.0430   27.2380   35.6450 C   0  0  0  0  0  0  0  0  0  0  0  0
   39.7380   26.8120   34.3970 C   0  0  0  0  0  0  0  0  0  0  0  0
   38.7480   26.1820   33.4720 C   0  0  2  0  0  0  0  0  0  0  0  0
   37.5690   26.9410   33.1750 N   0  0  0  0  0  0  0  0  0  0  0  0
   37.1460   28.0040   33.9250 C   0  0  0  0  0  0  0  0  0  0  0  0
   36.0360   28.7480   33.6890 C   0  0  0  0  0  0  0  0  0  0  0  0
   35.6490   29.8900   34.5580 C   0  0  0  0  0  0  0  0  0  0  0  0
   35.2380   28.4430   32.6120 C   0  0  0  0  0  0  0  0  0  0  0  0
   34.2110   29.0830   32.3410 O   0  0  0  0  0  0  0  0  0  0  0  0
   35.6270   27.4030   31.8540 N   0  0  0  0  0  0  0  0  0  0  0  0
   36.7320   26.7090   32.1410 C   0  0  0  0  0  0  0  0  0  0  0  0
   36.9810   25.7640   31.3570 O   0  0  0  0  0  0  0  0  0  0  0  0
   37.8570   22.5320   33.8960 C   0  0  0  0  0  0  0  0  0  0  0  0
   38.5790   23.6680   33.5200 C   0  0  0  0  0  0  0  0  0  0  0  0
   39.5280   23.4990   32.5380 C   0  0  0  0  0  0  0  0  0  0  0  0
   39.7060   22.2600   32.0000 N   0  0  0  0  0  0  0  0  0  0  0  0
   38.9940   21.1890   32.3870 C   0  0  0  0  0  0  0  0  0  0  0  0
   38.0720   21.3310   33.3350 N   0  0  0  0  0  0  0  0  0  0  0  0
   36.7086   24.8100   35.2980 H   0  0  0  0  0  0  0  0  0  0  0  0
   38.3382   24.4267   36.0637 H   0  0  0  0  0  0  0  0  0  0  0  0
   36.9597   26.9867   35.6328 H   0  0  0  0  0  0  0  0  0  0  0  0
   37.8954   26.2644   37.0607 H   0  0  0  0  0  0  0  0  0  0  0  0
   38.7306   28.2860   35.5266 H   0  0  0  0  0  0  0  0  0  0  0  0
   39.7570   27.1000   36.4703 H   0  0  0  0  0  0  0  0  0  0  0  0
   40.1897   27.6889   33.9101 H   0  0  0  0  0  0  0  0  0  0  0  0
   40.5266   26.0858   34.6434 H   0  0  0  0  0  0  0  0  0  0  0  0
   39.2341   26.0803   32.4905 H   0  0  0  0  0  0  0  0  0  0  0  0
   37.7593   28.2798   34.7955 H   0  0  0  0  0  0  0  0  0  0  0  0
   35.7481   29.5974   35.6137 H   0  0  0  0  0  0  0  0  0  0  0  0
   36.3069   30.7471   34.3517 H   0  0  0  0  0  0  0  0  0  0  0  0
   34.6056   30.1706   34.3517 H   0  0  0  0  0  0  0  0  0  0  0  0
   35.0617   27.1359   31.0355 H   0  0  0  0  0  0  0  0  0  0  0  0
   37.0877   22.6246   34.6768 H   0  0  0  0  0  0  0  0  0  0  0  0
   40.1331   24.3504   32.1930 H   0  0  0  0  0  0  0  0  0  0  0  0
   39.1712   20.2063   31.9255 H   0  0  0  0  0  0  0  0  0  0  0  0
  1  2  1  0
  2  3  1  0
  4  3  1  0
  5  4  1  0
  6  1  1  0
  6  5  1  0
  7  6  1  0
  7  8  1  0
  9  8  2  0
  9 10  1  0
 11  9  1  0
 12 11  2  0
 13 14  1  0
 13 11  1  0
 14  7  1  0
 15 14  2  0
 17 16  2  0
 17  1  1  0
 18 17  1  0
 19 20  1  0
 19 18  2  0
 20 21  2  0
 21 16  1  0
  2 22  1  0
  2 23  1  0
  3 24  1  0
  3 25  1  0
  4 26  1  0
  4 27  1  0
  5 28  1  0
  5 29  1  0
  6 30  1  6
  8 31  1  0
 10 32  1  0
 10 33  1  0
 10 34  1  0
 13 35  1  0
 16 36  1  0
 18 37  1  0
 20 38  1  0
M  ISO  8  22  13  23  13  24  13  25  13  26  13  27  13  28  13  29  13
M  ISO  8  30  13  31  14  32   8  33   8  34   8  35   9  36  14  37  14
M  ISO  1  38  14
M  END
>  <minimizedAffinity>  (1) 
-4.59707022

>  <minimizedRMSD>  (1) 
3.81584334

$$$$
