
     RDKit          3D

 38 40  0  0  1  0  0  0  0  0999 V2000
   37.7820   25.7260   33.7510 N   0  0  0  0  0  0  0  0  0  0  0  0
   37.2040   27.0010   34.0900 C   0  0  0  0  0  0  0  0  0  0  0  0
   37.7290   27.6620   35.2890 C   0  0  0  0  0  0  0  0  0  0  0  0
   38.3720   26.8330   36.3180 C   0  0  0  0  0  0  0  0  0  0  0  0
   38.6920   25.4410   35.8850 C   0  0  0  0  0  0  0  0  0  0  0  0
   38.9820   25.4280   34.4290 C   0  0  2  0  0  0  0  0  0  0  0  0
   36.2260   25.2940   31.8670 C   0  0  0  0  0  0  0  0  0  0  0  0
   37.1430   24.8700   32.8160 C   0  0  0  0  0  0  0  0  0  0  0  0
   37.4370   23.5190   32.8630 C   0  0  0  0  0  0  0  0  0  0  0  0
   36.8260   22.6740   31.9900 N   0  0  0  0  0  0  0  0  0  0  0  0
   35.9390   23.1330   31.0850 C   0  0  0  0  0  0  0  0  0  0  0  0
   35.6380   24.4470   31.0220 N   0  0  0  0  0  0  0  0  0  0  0  0
   40.2470   25.8880   33.8990 C   0  0  0  0  0  0  0  0  0  0  0  0
   40.4610   27.2770   33.4380 C   0  0  0  0  0  0  0  0  0  0  0  0
   41.9750   27.2590   33.1560 C   0  0  0  0  0  0  0  0  0  0  0  0
   42.5980   26.3760   34.1890 C   0  0  0  0  0  0  0  0  0  0  0  0
   41.4040   25.7630   34.8770 C   0  0  0  0  0  0  0  0  0  0  0  0
   37.3656   27.6778   33.2380 H   0  0  0  0  0  0  0  0  0  0  0  0
   36.1479   26.7903   34.3140 H   0  0  0  0  0  0  0  0  0  0  0  0
   38.4726   28.4003   34.9544 H   0  0  0  0  0  0  0  0  0  0  0  0
   36.8363   28.0681   35.7872 H   0  0  0  0  0  0  0  0  0  0  0  0
   39.3102   27.3235   36.6167 H   0  0  0  0  0  0  0  0  0  0  0  0
   37.6495   26.7443   37.1427 H   0  0  0  0  0  0  0  0  0  0  0  0
   39.5718   25.0788   36.4370 H   0  0  0  0  0  0  0  0  0  0  0  0
   37.8326   24.7865   36.0928 H   0  0  0  0  0  0  0  0  0  0  0  0
   39.3077   24.4083   34.1759 H   0  0  0  0  0  0  0  0  0  0  0  0
   35.9755   26.3635   31.8093 H   0  0  0  0  0  0  0  0  0  0  0  0
   38.1574   23.1323   33.5988 H   0  0  0  0  0  0  0  0  0  0  0  0
   35.4557   22.4297   30.3909 H   0  0  0  0  0  0  0  0  0  0  0  0
   40.2079   25.2162   33.0288 H   0  0  0  0  0  0  0  0  0  0  0  0
   39.8825   27.4950   32.5281 H   0  0  0  0  0  0  0  0  0  0  0  0
   40.1408   28.0483   34.1539 H   0  0  0  0  0  0  0  0  0  0  0  0
   42.1677   26.8585   32.1498 H   0  0  0  0  0  0  0  0  0  0  0  0
   42.3960   28.2743   33.1998 H   0  0  0  0  0  0  0  0  0  0  0  0
   43.2251   25.6025   33.7216 H   0  0  0  0  0  0  0  0  0  0  0  0
   43.2638   26.9174   34.8772 H   0  0  0  0  0  0  0  0  0  0  0  0
   41.1786   26.3054   35.8070 H   0  0  0  0  0  0  0  0  0  0  0  0
   41.5904   24.7135   35.1486 H   0  0  0  0  0  0  0  0  0  0  0  0
  1  2  1  0
  1  6  1  0
  2  3  1  0
  3  4  1  0
  5  4  1  0
  6  5  1  0
  7  8  2  0
  8  9  1  0
  8  1  1  0
 10  9  2  0
 11 10  1  0
 12 11  2  0
 12  7  1  0
 13  6  1  0
 13 17  1  0
 14 13  1  0
 15 14  1  0
 15 16  1  0
 16 17  1  0
  2 18  1  0
  2 19  1  0
  3 20  1  0
  3 21  1  0
  4 22  1  0
  4 23  1  0
  5 24  1  0
  5 25  1  0
  6 26  1  6
  7 27  1  0
  9 28  1  0
 11 29  1  0
 13 30  1  0
 14 31  1  0
 14 32  1  0
 15 33  1  0
 15 34  1  0
 16 35  1  0
 16 36  1  0
 17 37  1  0
 17 38  1  0
M  ISO  8  18  13  19  13  20  13  21  13  22  13  23  13  24  13  25  13
M  ISO  8  26  13  27  14  28  14  29  14  30  13  31  13  32  13  33  13
M  ISO  5  34  13  35  13  36  13  37  13  38  13
M  END
>  <minimizedAffinity>  (1) 
-4.45117474

>  <minimizedRMSD>  (1) 
5.4643693

$$$$
