
     RDKit          3D

 28 29  0  0  1  0  0  0  0  0999 V2000
   38.4840   25.3050   33.7760 N   0  0  0  0  0  0  0  0  0  0  0  0
   39.4390   24.4900   34.4530 C   0  0  0  0  0  0  0  0  0  0  0  0
   40.6690   25.1620   34.9320 C   0  0  0  0  0  0  0  0  0  0  0  0
   40.9940   26.5010   34.4300 C   0  0  0  0  0  0  0  0  0  0  0  0
   39.9470   27.1300   33.5910 C   0  0  0  0  0  0  0  0  0  0  0  0
   38.6100   26.6790   34.0680 C   0  0  2  0  0  0  0  0  0  0  0  0
   37.4060   23.3870   32.6060 C   0  0  0  0  0  0  0  0  0  0  0  0
   37.5230   24.7390   32.8960 C   0  0  0  0  0  0  0  0  0  0  0  0
   36.6190   25.5830   32.2600 C   0  0  0  0  0  0  0  0  0  0  0  0
   35.7010   25.0690   31.4160 N   0  0  0  0  0  0  0  0  0  0  0  0
   35.6290   23.7430   31.1660 C   0  0  0  0  0  0  0  0  0  0  0  0
   36.4850   22.9170   31.7660 N   0  0  0  0  0  0  0  0  0  0  0  0
   38.1290   27.1870   35.3650 C   0  0  0  0  0  0  0  0  0  0  0  0
   39.1770   27.4990   36.2440 F   0  0  0  0  0  0  0  0  0  0  0  0
   37.2290   28.2190   35.3170 F   0  0  0  0  0  0  0  0  0  0  0  0
   37.4490   26.1730   36.0630 F   0  0  0  0  0  0  0  0  0  0  0  0
   38.9391   24.0478   35.3274 H   0  0  0  0  0  0  0  0  0  0  0  0
   39.7815   23.7630   33.7019 H   0  0  0  0  0  0  0  0  0  0  0  0
   40.5874   25.2400   36.0262 H   0  0  0  0  0  0  0  0  0  0  0  0
   41.4811   24.5315   34.5408 H   0  0  0  0  0  0  0  0  0  0  0  0
   41.1749   27.1548   35.2960 H   0  0  0  0  0  0  0  0  0  0  0  0
   41.8738   26.3792   33.7811 H   0  0  0  0  0  0  0  0  0  0  0  0
   40.0851   26.8299   32.5418 H   0  0  0  0  0  0  0  0  0  0  0  0
   40.0188   28.2252   33.6648 H   0  0  0  0  0  0  0  0  0  0  0  0
   37.8314   27.2069   33.4979 H   0  0  0  0  0  0  0  0  0  0  0  0
   38.0975   22.6790   33.0862 H   0  0  0  0  0  0  0  0  0  0  0  0
   36.6525   26.6669   32.4448 H   0  0  0  0  0  0  0  0  0  0  0  0
   34.8706   23.3492   30.4734 H   0  0  0  0  0  0  0  0  0  0  0  0
  1  6  1  0
  1  2  1  0
  2  3  1  0
  4  3  1  0
  5  6  1  0
  5  4  1  0
  6 13  1  0
  7  8  2  0
  8  1  1  0
  9  8  1  0
 10  9  2  0
 11 10  1  0
 11 12  2  0
 12  7  1  0
 13 16  1  0
 13 14  1  0
 15 13  1  0
  2 17  1  0
  2 18  1  0
  3 19  1  0
  3 20  1  0
  4 21  1  0
  4 22  1  0
  5 23  1  0
  5 24  1  0
  6 25  1  6
  7 26  1  0
  9 27  1  0
 11 28  1  0
M  ISO  8  17  13  18  13  19  13  20  13  21  13  22  13  23  13  24  13
M  ISO  4  25  13  26  14  27  14  28  14
M  END
>  <minimizedAffinity>  (1) 
-4.35476494

>  <minimizedRMSD>  (1) 
4.37623119

$$$$
