
     RDKit          3D

 32 33  0  0  1  0  0  0  0  0999 V2000
   37.1800   26.5270   33.5960 N   0  0  0  0  0  0  0  0  0  0  0  0
   36.5680   27.7430   34.0860 C   0  0  0  0  0  0  0  0  0  0  0  0
   36.2220   28.7430   33.0630 C   0  0  0  0  0  0  0  0  0  0  0  0
   37.0360   28.7740   31.8340 C   0  0  0  0  0  0  0  0  0  0  0  0
   37.9070   27.5630   31.6380 C   0  0  0  0  0  0  0  0  0  0  0  0
   37.0870   26.3830   32.1870 C   0  0  2  0  0  0  0  0  0  0  0  0
   37.7390   25.7330   35.8800 C   0  0  0  0  0  0  0  0  0  0  0  0
   37.7960   25.6200   34.4920 C   0  0  0  0  0  0  0  0  0  0  0  0
   38.5080   24.5530   33.9790 C   0  0  0  0  0  0  0  0  0  0  0  0
   39.1070   23.6800   34.8300 N   0  0  0  0  0  0  0  0  0  0  0  0
   39.0250   23.8290   36.1590 C   0  0  0  0  0  0  0  0  0  0  0  0
   38.3370   24.8590   36.6970 N   0  0  0  0  0  0  0  0  0  0  0  0
   35.7570   26.5180   31.6310 N   0  0  0  0  0  0  0  0  0  0  0  0
   35.2340   25.3020   31.0540 C   0  0  0  0  0  0  0  0  0  0  0  0
   35.5830   24.1230   31.5070 N   0  0  0  0  0  0  0  0  0  0  0  0
   34.3040   25.3310   29.9500 N   0  0  0  0  0  0  0  0  0  0  0  0
   35.2010   23.2480   31.0860 H   0  0  0  0  0  0  0  0  0  0  0  0
   35.6435   27.4665   34.6140 H   0  0  0  0  0  0  0  0  0  0  0  0
   37.3236   28.2205   34.7271 H   0  0  0  0  0  0  0  0  0  0  0  0
   35.1799   28.5591   32.7626 H   0  0  0  0  0  0  0  0  0  0  0  0
   36.4102   29.7129   33.5465 H   0  0  0  0  0  0  0  0  0  0  0  0
   36.3565   28.8528   30.9726 H   0  0  0  0  0  0  0  0  0  0  0  0
   37.7120   29.6370   31.9254 H   0  0  0  0  0  0  0  0  0  0  0  0
   38.1280   27.4156   30.5706 H   0  0  0  0  0  0  0  0  0  0  0  0
   38.8746   27.6652   32.1512 H   0  0  0  0  0  0  0  0  0  0  0  0
   37.4240   25.3700   31.9218 H   0  0  0  0  0  0  0  0  0  0  0  0
   37.1811   26.5727   36.3202 H   0  0  0  0  0  0  0  0  0  0  0  0
   38.5891   24.4117   32.8911 H   0  0  0  0  0  0  0  0  0  0  0  0
   39.5237   23.1042   36.8193 H   0  0  0  0  0  0  0  0  0  0  0  0
   35.2305   27.4031   31.6457 H   0  0  0  0  0  0  0  0  0  0  0  0
   33.9984   26.2330   29.5576 H   0  0  0  0  0  0  0  0  0  0  0  0
   33.9462   24.4497   29.5548 H   0  0  0  0  0  0  0  0  0  0  0  0
  1  2  1  0
  1  8  1  0
  3  2  1  0
  4  3  1  0
  5  4  1  0
  5  6  1  0
  6  1  1  0
  7 12  2  0
  8  7  1  0
  9  8  2  0
  9 10  1  0
 10 11  2  0
 11 12  1  0
 13  6  1  0
 14 15  2  0
 14 13  1  0
 16 14  1  0
 17 15  1  0
  2 18  1  0
  2 19  1  0
  3 20  1  0
  3 21  1  0
  4 22  1  0
  4 23  1  0
  5 24  1  0
  5 25  1  0
  6 26  1  1
  7 27  1  0
  9 28  1  0
 11 29  1  0
 13 30  1  0
 16 31  1  0
 16 32  1  0
M  ISO  8  18  13  19  13  20  13  21  13  22  13  23  13  24  13  25  13
M  ISO  4  26  13  27  14  28  14  29  14
M  END
>  <minimizedAffinity>  (1) 
-4.27371407

>  <minimizedRMSD>  (1) 
2.27461481

$$$$
