
     RDKit          3D

 37 38  0  0  1  0  0  0  0  0999 V2000
   38.1870   24.5230   34.7830 N   0  0  0  0  0  0  0  0  0  0  0  0
   38.0710   23.3000   34.0650 C   0  0  0  0  0  0  0  0  0  0  0  0
   39.1080   22.2740   34.2830 C   0  0  0  0  0  0  0  0  0  0  0  0
   40.3430   22.6490   34.9800 C   0  0  0  0  0  0  0  0  0  0  0  0
   40.3280   23.9910   35.5750 C   0  0  0  0  0  0  0  0  0  0  0  0
   38.9410   24.3910   35.9640 C   0  0  2  0  0  0  0  0  0  0  0  0
   37.1260   25.9190   33.0330 C   0  0  0  0  0  0  0  0  0  0  0  0
   37.5940   25.7240   34.3180 C   0  0  0  0  0  0  0  0  0  0  0  0
   37.4630   26.7930   35.1800 C   0  0  0  0  0  0  0  0  0  0  0  0
   36.8990   27.9540   34.7450 N   0  0  0  0  0  0  0  0  0  0  0  0
   36.4630   28.0870   33.4900 C   0  0  0  0  0  0  0  0  0  0  0  0
   36.5770   27.0720   32.6390 N   0  0  0  0  0  0  0  0  0  0  0  0
   38.3870   23.8070   37.1820 C   0  0  0  0  0  0  0  0  0  0  0  0
   39.4500   22.9440   37.9130 C   0  0  0  0  0  0  0  0  0  0  0  0
   37.2650   22.8180   37.0930 C   0  0  0  0  0  0  0  0  0  0  0  0
   37.9830   24.8170   38.2330 C   0  0  0  0  0  0  0  0  0  0  0  0
   38.0741   23.5472   32.9931 H   0  0  0  0  0  0  0  0  0  0  0  0
   37.1449   22.8430   34.4438 H   0  0  0  0  0  0  0  0  0  0  0  0
   38.6430   21.4639   34.8640 H   0  0  0  0  0  0  0  0  0  0  0  0
   39.4449   22.0190   33.2674 H   0  0  0  0  0  0  0  0  0  0  0  0
   40.5175   21.9194   35.7845 H   0  0  0  0  0  0  0  0  0  0  0  0
   41.1390   22.6545   34.2208 H   0  0  0  0  0  0  0  0  0  0  0  0
   40.9674   23.9945   36.4701 H   0  0  0  0  0  0  0  0  0  0  0  0
   40.7028   24.7081   34.8298 H   0  0  0  0  0  0  0  0  0  0  0  0
   38.9192   25.3894   36.4253 H   0  0  0  0  0  0  0  0  0  0  0  0
   37.2082   25.0957   32.3081 H   0  0  0  0  0  0  0  0  0  0  0  0
   37.8141   26.7078   36.2190 H   0  0  0  0  0  0  0  0  0  0  0  0
   36.0106   29.0341   33.1610 H   0  0  0  0  0  0  0  0  0  0  0  0
   39.3219   23.0480   39.0006 H   0  0  0  0  0  0  0  0  0  0  0  0
   39.3246   21.8889   37.6283 H   0  0  0  0  0  0  0  0  0  0  0  0
   40.4568   23.2835   37.6283 H   0  0  0  0  0  0  0  0  0  0  0  0
   36.9442   22.5352   38.1065 H   0  0  0  0  0  0  0  0  0  0  0  0
   36.4196   23.2701   36.5536 H   0  0  0  0  0  0  0  0  0  0  0  0
   37.6074   21.9226   36.5536 H   0  0  0  0  0  0  0  0  0  0  0  0
   38.1527   24.3928   39.2336 H   0  0  0  0  0  0  0  0  0  0  0  0
   38.5852   25.7299   38.1149 H   0  0  0  0  0  0  0  0  0  0  0  0
   36.9173   25.0628   38.1149 H   0  0  0  0  0  0  0  0  0  0  0  0
  1  6  1  0
  2  3  1  0
  2  1  1  0
  3  4  1  0
  4  5  1  0
  5  6  1  0
  6 13  1  0
  7  8  2  0
  8  1  1  0
  8  9  1  0
 10  9  2  0
 11 10  1  0
 12  7  1  0
 12 11  2  0
 13 14  1  0
 13 16  1  0
 15 13  1  0
  2 17  1  0
  2 18  1  0
  3 19  1  0
  3 20  1  0
  4 21  1  0
  4 22  1  0
  5 23  1  0
  5 24  1  0
  6 25  1  1
  7 26  1  0
  9 27  1  0
 11 28  1  0
 14 29  1  0
 14 30  1  0
 14 31  1  0
 15 32  1  0
 15 33  1  0
 15 34  1  0
 16 35  1  0
 16 36  1  0
 16 37  1  0
M  ISO  8  17  13  18  13  19  13  20  13  21  13  22  13  23  13  24  13
M  ISO  8  25  13  26  14  27  14  28  14  29   8  30   8  31   8  32   8
M  ISO  5  33   8  34   8  35   8  36   8  37   8
M  END
>  <minimizedAffinity>  (1) 
-4.25391197

>  <minimizedRMSD>  (1) 
6.25196075

$$$$
