
     RDKit          3D

 33 35  0  0  1  0  0  0  0  0999 V2000
   37.5250   26.7640   33.2710 N   0  0  0  0  0  0  0  0  0  0  0  0
   37.3470   25.5690   32.4680 C   0  0  0  0  0  0  0  0  0  0  0  0
   38.5500   24.7430   32.3060 C   0  0  0  0  0  0  0  0  0  0  0  0
   39.8550   25.4200   32.3370 C   0  0  0  0  0  0  0  0  0  0  0  0
   39.8250   26.8070   32.8930 C   0  0  0  0  0  0  0  0  0  0  0  0
   38.7610   26.8020   33.9920 C   0  0  2  0  0  0  0  0  0  0  0  0
   35.7060   28.0900   32.1960 C   0  0  0  0  0  0  0  0  0  0  0  0
   36.5330   27.7690   33.2940 C   0  0  0  0  0  0  0  0  0  0  0  0
   36.3440   28.4990   34.4520 C   0  0  0  0  0  0  0  0  0  0  0  0
   35.3970   29.4750   34.4860 N   0  0  0  0  0  0  0  0  0  0  0  0
   34.6350   29.7450   33.4140 C   0  0  0  0  0  0  0  0  0  0  0  0
   34.7980   29.0530   32.2900 N   0  0  0  0  0  0  0  0  0  0  0  0
   38.9020   25.6740   34.9240 C   0  0  0  0  0  0  0  0  0  0  0  0
   37.7990   25.5170   35.7680 C   0  0  0  0  0  0  0  0  0  0  0  0
   37.8100   24.4820   36.7060 C   0  0  0  0  0  0  0  0  0  0  0  0
   38.8410   23.6260   36.8350 N   0  0  0  0  0  0  0  0  0  0  0  0
   39.8890   23.8180   35.9930 C   0  0  0  0  0  0  0  0  0  0  0  0
   39.9350   24.7930   35.0730 N   0  0  0  0  0  0  0  0  0  0  0  0
   36.5709   24.9513   32.9435 H   0  0  0  0  0  0  0  0  0  0  0  0
   37.0747   25.9149   31.4599 H   0  0  0  0  0  0  0  0  0  0  0  0
   38.4686   24.2314   31.3356 H   0  0  0  0  0  0  0  0  0  0  0  0
   38.5569   24.0869   33.1889 H   0  0  0  0  0  0  0  0  0  0  0  0
   40.5388   24.8182   32.9536 H   0  0  0  0  0  0  0  0  0  0  0  0
   40.1831   25.5112   31.2910 H   0  0  0  0  0  0  0  0  0  0  0  0
   40.8066   27.0708   33.3135 H   0  0  0  0  0  0  0  0  0  0  0  0
   39.5929   27.5471   32.1130 H   0  0  0  0  0  0  0  0  0  0  0  0
   38.8411   27.6822   34.6468 H   0  0  0  0  0  0  0  0  0  0  0  0
   35.8155   27.5358   31.2522 H   0  0  0  0  0  0  0  0  0  0  0  0
   36.9564   28.2919   35.3420 H   0  0  0  0  0  0  0  0  0  0  0  0
   33.8755   30.5390   33.4654 H   0  0  0  0  0  0  0  0  0  0  0  0
   36.9372   26.1967   35.6948 H   0  0  0  0  0  0  0  0  0  0  0  0
   36.9393   24.3613   37.3673 H   0  0  0  0  0  0  0  0  0  0  0  0
   40.7484   23.1357   36.0697 H   0  0  0  0  0  0  0  0  0  0  0  0
  1  8  1  0
  1  6  1  0
  2  1  1  0
  3  4  1  0
  3  2  1  0
  4  5  1  0
  5  6  1  0
  6 13  1  0
  7 12  2  0
  7  8  1  0
  8  9  2  0
  9 10  1  0
 11 10  2  0
 12 11  1  0
 13 18  1  0
 13 14  2  0
 14 15  1  0
 15 16  2  0
 17 16  1  0
 18 17  2  0
  2 19  1  0
  2 20  1  0
  3 21  1  0
  3 22  1  0
  4 23  1  0
  4 24  1  0
  5 25  1  0
  5 26  1  0
  6 27  1  1
  7 28  1  0
  9 29  1  0
 11 30  1  0
 14 31  1  0
 15 32  1  0
 17 33  1  0
M  ISO  8  19  13  20  13  21  13  22  13  23  13  24  13  25  13  26  13
M  ISO  7  27  13  28  14  29  14  30  14  31  14  32  14  33  14
M  END
>  <minimizedAffinity>  (1) 
-4.07384491

>  <minimizedRMSD>  (1) 
6.0008173

$$$$
