
     RDKit          3D

 42 44  0  0  0  0  0  0  0  0999 V2000
   42.2270   25.3460   33.1150 S   0  0  0  0  0  0  0  0  0  0  0  0
   43.6200   26.0690   33.9730 C   0  0  0  0  0  0  0  0  0  0  0  0
   44.2470   27.1880   33.4200 C   0  0  0  0  0  0  0  0  0  0  0  0
   45.5870   27.5450   34.6450 S   0  0  0  0  0  0  0  0  0  0  0  0
   45.0480   26.0870   35.7110 C   0  0  0  0  0  0  0  0  0  0  0  0
   44.1960   25.7310   35.0840 N   0  0  0  0  0  0  0  0  0  0  0  0
   45.6150   25.6260   36.9540 N   0  0  0  0  0  0  0  0  0  0  0  0
   44.9850   26.0810   38.0610 C   0  0  0  0  0  0  0  0  0  0  0  0
   45.6520   25.5480   39.1450 C   0  0  0  0  0  0  0  0  0  0  0  0
   46.6520   24.7960   38.6510 N   0  0  0  0  0  0  0  0  0  0  0  0
   46.6360   24.8390   37.3110 C   0  0  0  0  0  0  0  0  0  0  0  0
   47.4670   24.2290   36.3050 C   0  0  0  0  0  0  0  0  0  0  0  0
   47.2870   23.0360   35.9780 O   0  0  0  0  0  0  0  0  0  0  0  0
   48.4540   25.0130   35.7280 O   0  0  0  0  0  0  0  0  0  0  0  0
   38.8170   25.2830   35.1950 C   0  0  0  0  0  0  0  0  0  0  0  0
   39.0260   24.2310   36.1190 C   0  0  0  0  0  0  0  0  0  0  0  0
   40.2320   23.5630   36.0710 C   0  0  0  0  0  0  0  0  0  0  0  0
   41.1610   23.9510   35.1350 N   0  0  0  0  0  0  0  0  0  0  0  0
   40.9230   24.9610   34.2710 C   0  0  0  0  0  0  0  0  0  0  0  0
   39.7640   25.6060   34.3130 N   0  0  0  0  0  0  0  0  0  0  0  0
   38.0100   23.8270   37.1220 C   0  0  0  0  0  0  0  0  0  0  0  0
   36.8360   24.5520   36.8040 F   0  0  0  0  0  0  0  0  0  0  0  0
   38.3490   24.0830   38.3860 F   0  0  0  0  0  0  0  0  0  0  0  0
   37.5990   22.4920   36.8830 F   0  0  0  0  0  0  0  0  0  0  0  0
   40.6520   22.4660   36.9160 C   0  0  0  0  0  0  0  0  0  0  0  0
   40.4480   22.2140   38.1290 O   0  0  0  0  0  0  0  0  0  0  0  0
   41.4150   21.4030   36.5380 O   0  0  0  0  0  0  0  0  0  0  0  0
   42.6820   21.0320   36.9760 C   0  0  0  0  0  0  0  0  0  0  0  0
   42.9210   19.5410   36.8100 C   0  0  0  0  0  0  0  0  0  0  0  0
   43.7610   21.7070   36.1200 C   0  0  0  0  0  0  0  0  0  0  0  0
   44.0049   27.7228   32.4897 H   0  0  0  0  0  0  0  0  0  0  0  0
   44.1101   26.7471   38.0913 H   0  0  0  0  0  0  0  0  0  0  0  0
   45.4125   25.7071   40.2068 H   0  0  0  0  0  0  0  0  0  0  0  0
   49.0462   24.6310   35.0327 H   0  0  0  0  0  0  0  0  0  0  0  0
   37.8672   25.8378   35.2045 H   0  0  0  0  0  0  0  0  0  0  0  0
   42.7359   21.3279   38.0341 H   0  0  0  0  0  0  0  0  0  0  0  0
   42.9966   19.0692   37.8008 H   0  0  0  0  0  0  0  0  0  0  0  0
   42.0829   19.0949   36.2545 H   0  0  0  0  0  0  0  0  0  0  0  0
   43.8565   19.3792   36.2545 H   0  0  0  0  0  0  0  0  0  0  0  0
   44.5096   22.1753   36.7759 H   0  0  0  0  0  0  0  0  0  0  0  0
   44.2499   20.9535   35.4851 H   0  0  0  0  0  0  0  0  0  0  0  0
   43.2973   22.4763   35.4851 H   0  0  0  0  0  0  0  0  0  0  0  0
  1  2  1  0
  1 19  1  0
  2  6  1  0
  3  2  2  0
  3  4  1  0
  4  5  1  0
  5  7  1  0
  6  5  2  0
  7 11  1  0
  7  8  1  0
  8  9  2  0
 10  9  1  0
 11 10  2  0
 12 11  1  0
 13 12  2  0
 14 12  1  0
 15 16  2  0
 16 21  1  0
 17 16  1  0
 17 25  1  0
 18 17  2  0
 19 20  2  0
 19 18  1  0
 20 15  1  0
 21 23  1  0
 22 21  1  0
 24 21  1  0
 25 26  2  0
 27 25  1  0
 27 28  1  0
 29 28  1  0
 30 28  1  0
  3 31  1  0
  8 32  1  0
  9 33  1  0
 14 34  1  0
 15 35  1  0
 28 36  1  0
 29 37  1  0
 29 38  1  0
 29 39  1  0
 30 40  1  0
 30 41  1  0
 30 42  1  0
M  ISO  8  31  14  32  14  33  14  34   3  35  14  36   8  37   8  38   8
M  ISO  4  39   8  40   8  41   8  42   8
M  END
>  <minimizedAffinity>  (1) 
-5.22007465

>  <minimizedRMSD>  (1) 
4.00986576

$$$$
