
     RDKit          3D

 37 39  0  0  1  0  0  0  0  0999 V2000
   38.5610   27.0920   33.0680 N   0  0  0  0  0  0  0  0  0  0  0  0
   38.1770   27.2800   34.4570 C   0  0  0  0  0  0  0  0  0  0  0  0
   36.7800   27.6380   34.6960 C   0  0  0  0  0  0  0  0  0  0  0  0
   36.1290   28.4880   33.6560 C   0  0  0  0  0  0  0  0  0  0  0  0
   36.8200   28.4500   32.3140 C   0  0  0  0  0  0  0  0  0  0  0  0
   37.4440   27.0550   32.2000 C   0  0  2  0  0  0  0  0  0  0  0  0
   40.9940   27.2640   33.5690 C   0  0  0  0  0  0  0  0  0  0  0  0
   39.9220   26.9720   32.7170 C   0  0  0  0  0  0  0  0  0  0  0  0
   40.2390   26.5360   31.4440 C   0  0  0  0  0  0  0  0  0  0  0  0
   41.5330   26.4100   31.0710 N   0  0  0  0  0  0  0  0  0  0  0  0
   42.5400   26.7060   31.9340 C   0  0  0  0  0  0  0  0  0  0  0  0
   42.2550   27.1290   33.1710 N   0  0  0  0  0  0  0  0  0  0  0  0
   36.4990   26.0210   32.4540 N   0  0  0  0  0  0  0  0  0  0  0  0
   35.3990   26.1270   31.5210 C   0  0  0  0  0  0  0  0  0  0  0  0
   35.3360   24.8370   30.7350 C   0  0  0  0  0  0  0  0  0  0  0  0
   35.9880   23.8540   31.6560 C   0  0  0  0  0  0  0  0  0  0  0  0
   37.0510   24.7100   32.3120 C   0  0  0  0  0  0  0  0  0  0  0  0
   38.3791   26.3401   34.9916 H   0  0  0  0  0  0  0  0  0  0  0  0
   38.7665   28.1379   34.8126 H   0  0  0  0  0  0  0  0  0  0  0  0
   36.2035   26.7046   34.7753 H   0  0  0  0  0  0  0  0  0  0  0  0
   36.7854   28.2470   35.6120 H   0  0  0  0  0  0  0  0  0  0  0  0
   35.0940   28.1402   33.5226 H   0  0  0  0  0  0  0  0  0  0  0  0
   36.1827   29.5269   34.0134 H   0  0  0  0  0  0  0  0  0  0  0  0
   36.0925   28.6106   31.5047 H   0  0  0  0  0  0  0  0  0  0  0  0
   37.5808   29.2400   32.2299 H   0  0  0  0  0  0  0  0  0  0  0  0
   37.7754   26.8077   31.1807 H   0  0  0  0  0  0  0  0  0  0  0  0
   40.7879   27.6132   34.5915 H   0  0  0  0  0  0  0  0  0  0  0  0
   39.4367   26.2909   30.7325 H   0  0  0  0  0  0  0  0  0  0  0  0
   43.5876   26.5981   31.6163 H   0  0  0  0  0  0  0  0  0  0  0  0
   34.4569   26.2784   32.0684 H   0  0  0  0  0  0  0  0  0  0  0  0
   35.5481   26.9824   30.8457 H   0  0  0  0  0  0  0  0  0  0  0  0
   34.2946   24.5520   30.5245 H   0  0  0  0  0  0  0  0  0  0  0  0
   35.8249   24.9023   29.7518 H   0  0  0  0  0  0  0  0  0  0  0  0
   35.2743   23.4630   32.3961 H   0  0  0  0  0  0  0  0  0  0  0  0
   36.3824   22.9604   31.1501 H   0  0  0  0  0  0  0  0  0  0  0  0
   37.3109   24.3000   33.2991 H   0  0  0  0  0  0  0  0  0  0  0  0
   37.9683   24.7325   31.7053 H   0  0  0  0  0  0  0  0  0  0  0  0
  1  2  1  0
  2  3  1  0
  4  3  1  0
  5  4  1  0
  6  5  1  0
  6 13  1  0
  6  1  1  0
  8  1  1  0
  8  7  2  0
  9  8  1  0
 10  9  2  0
 10 11  1  0
 11 12  2  0
 12  7  1  0
 13 14  1  0
 15 14  1  0
 15 16  1  0
 16 17  1  0
 17 13  1  0
  2 18  1  0
  2 19  1  0
  3 20  1  0
  3 21  1  0
  4 22  1  0
  4 23  1  0
  5 24  1  0
  5 25  1  0
  6 26  1  6
  7 27  1  0
  9 28  1  0
 11 29  1  0
 14 30  1  0
 14 31  1  0
 15 32  1  0
 15 33  1  0
 16 34  1  0
 16 35  1  0
 17 36  1  0
 17 37  1  0
M  ISO  8  18  13  19  13  20  13  21  13  22  13  23  13  24  13  25  13
M  ISO  8  26  13  27  14  28  14  29  14  30  13  31  13  32  13  33  13
M  ISO  4  34  13  35  13  36  13  37  13
M  END
>  <minimizedAffinity>  (1) 
-3.81724691

>  <minimizedRMSD>  (1) 
3.57730556

$$$$
