
     RDKit          3D

 28 29  0  0  1  0  0  0  0  0999 V2000
   37.5040   25.2140   32.3780 N   0  0  0  0  0  0  0  0  0  0  0  0
   38.6240   25.6610   31.5690 C   0  0  0  0  0  0  0  0  0  0  0  0
   38.9080   27.1030   31.6320 C   0  0  0  0  0  0  0  0  0  0  0  0
   37.7390   28.0000   31.8240 C   0  0  0  0  0  0  0  0  0  0  0  0
   36.4800   27.3040   32.2870 C   0  0  0  0  0  0  0  0  0  0  0  0
   37.0080   26.2210   33.2520 C   0  0  2  0  0  0  0  0  0  0  0  0
   37.4500   22.8080   33.0030 C   0  0  0  0  0  0  0  0  0  0  0  0
   37.0210   23.8900   32.2420 C   0  0  0  0  0  0  0  0  0  0  0  0
   36.0540   23.6310   31.2880 C   0  0  0  0  0  0  0  0  0  0  0  0
   35.5780   22.3780   31.1390 N   0  0  0  0  0  0  0  0  0  0  0  0
   36.0240   21.3510   31.9020 C   0  0  0  0  0  0  0  0  0  0  0  0
   36.9580   21.5840   32.8270 N   0  0  0  0  0  0  0  0  0  0  0  0
   38.0390   26.7850   34.1680 C   0  0  0  0  0  0  0  0  0  0  0  0
   37.5340   27.1240   35.2920 O   0  0  0  0  0  0  0  0  0  0  0  0
   39.0100   27.3150   35.0260 O   0  0  0  0  0  0  0  0  0  0  0  0
   38.4115   25.4018   30.5213 H   0  0  0  0  0  0  0  0  0  0  0  0
   39.5135   25.1574   31.9755 H   0  0  0  0  0  0  0  0  0  0  0  0
   39.5999   27.2713   32.4704 H   0  0  0  0  0  0  0  0  0  0  0  0
   39.3163   27.3633   30.6443 H   0  0  0  0  0  0  0  0  0  0  0  0
   38.0078   28.7577   32.5748 H   0  0  0  0  0  0  0  0  0  0  0  0
   37.5118   28.4307   30.8377 H   0  0  0  0  0  0  0  0  0  0  0  0
   35.8114   28.0046   32.8086 H   0  0  0  0  0  0  0  0  0  0  0  0
   35.8870   26.8902   31.4581 H   0  0  0  0  0  0  0  0  0  0  0  0
   36.2460   25.8149   33.9335 H   0  0  0  0  0  0  0  0  0  0  0  0
   38.2187   22.9686   33.7732 H   0  0  0  0  0  0  0  0  0  0  0  0
   35.6742   24.4446   30.6525 H   0  0  0  0  0  0  0  0  0  0  0  0
   35.6212   20.3372   31.7609 H   0  0  0  0  0  0  0  0  0  0  0  0
   38.7918   27.4829   35.9769 H   0  0  0  0  0  0  0  0  0  0  0  0
  1  6  1  0
  2  3  1  0
  2  1  1  0
  3  4  1  0
  4  5  1  0
  5  6  1  0
  6 13  1  0
  8  1  1  0
  8  7  2  0
  9  8  1  0
 10  9  2  0
 10 11  1  0
 11 12  2  0
 12  7  1  0
 13 15  1  0
 13 14  2  0
  2 16  1  0
  2 17  1  0
  3 18  1  0
  3 19  1  0
  4 20  1  0
  4 21  1  0
  5 22  1  0
  5 23  1  0
  6 24  1  1
  7 25  1  0
  9 26  1  0
 11 27  1  0
 15 28  1  0
M  ISO  8  16  13  17  13  18  13  19  13  20  13  21  13  22  13  23  13
M  ISO  5  24  13  25  14  26  14  27  14  28   3
M  END
>  <minimizedAffinity>  (1) 
-3.48656631

>  <minimizedRMSD>  (1) 
3.28754711

$$$$
