
     RDKit          3D

 26 27  0  0  1  0  0  0  0  0999 V2000
   35.7820   28.4370   32.8810 N   0  0  0  0  0  0  0  0  0  0  0  0
   35.9950   28.7990   34.2700 C   0  0  0  0  0  0  0  0  0  0  0  0
   35.5270   30.1370   34.6530 C   0  0  0  0  0  0  0  0  0  0  0  0
   35.6170   31.1880   33.6160 C   0  0  0  0  0  0  0  0  0  0  0  0
   35.7340   30.6660   32.2060 C   0  0  0  0  0  0  0  0  0  0  0  0
   34.9480   29.3510   32.1910 C   0  0  2  0  0  0  0  0  0  0  0  0
   37.6830   26.8330   32.6680 C   0  0  0  0  0  0  0  0  0  0  0  0
   36.3860   27.2650   32.3390 C   0  0  0  0  0  0  0  0  0  0  0  0
   35.6570   26.5130   31.4410 C   0  0  0  0  0  0  0  0  0  0  0  0
   36.2350   25.3860   30.9190 N   0  0  0  0  0  0  0  0  0  0  0  0
   37.4750   25.0050   31.2570 C   0  0  0  0  0  0  0  0  0  0  0  0
   38.1800   25.7300   32.1230 N   0  0  0  0  0  0  0  0  0  0  0  0
   33.3110   29.4860   32.8960 S   0  0  0  0  0  0  0  0  0  0  0  0
   35.4689   28.0637   34.8965 H   0  0  0  0  0  0  0  0  0  0  0  0
   37.0852   28.8068   34.4165 H   0  0  0  0  0  0  0  0  0  0  0  0
   34.4715   30.0498   34.9502 H   0  0  0  0  0  0  0  0  0  0  0  0
   36.2020   30.4629   35.4581 H   0  0  0  0  0  0  0  0  0  0  0  0
   34.7122   31.8105   33.6781 H   0  0  0  0  0  0  0  0  0  0  0  0
   36.5403   31.7503   33.8194 H   0  0  0  0  0  0  0  0  0  0  0  0
   35.2990   31.3822   31.4934 H   0  0  0  0  0  0  0  0  0  0  0  0
   36.7833   30.5181   31.9109 H   0  0  0  0  0  0  0  0  0  0  0  0
   34.7339   29.0185   31.1645 H   0  0  0  0  0  0  0  0  0  0  0  0
   38.2886   27.4122   33.3806 H   0  0  0  0  0  0  0  0  0  0  0  0
   34.6383   26.8106   31.1517 H   0  0  0  0  0  0  0  0  0  0  0  0
   37.9096   24.0942   30.8193 H   0  0  0  0  0  0  0  0  0  0  0  0
   33.4005   29.4786   34.2631 H   0  0  0  0  0  0  0  0  0  0  0  0
  1  2  1  0
  2  3  1  0
  4  3  1  0
  5  4  1  0
  6  5  1  0
  6  1  1  0
  6 13  1  0
  8  7  2  0
  8  1  1  0
  9  8  1  0
 10 11  1  0
 10  9  2  0
 11 12  2  0
 12  7  1  0
  2 14  1  0
  2 15  1  0
  3 16  1  0
  3 17  1  0
  4 18  1  0
  4 19  1  0
  5 20  1  0
  5 21  1  0
  6 22  1  6
  7 23  1  0
  9 24  1  0
 11 25  1  0
 13 26  1  0
M  ISO  8  14  13  15  13  16  13  17  13  18  13  19  13  20  13  21  13
M  ISO  5  22  13  23  14  24  14  25  14  26  11
M  END
>  <minimizedAffinity>  (1) 
-3.21382022

>  <minimizedRMSD>  (1) 
2.50774765

$$$$
