
     RDKit          3D

 26 27  0  0  1  0  0  0  0  0999 V2000
   36.5900   26.5410   32.5680 N   0  0  0  0  0  0  0  0  0  0  0  0
   36.7170   27.5660   33.5850 C   0  0  0  0  0  0  0  0  0  0  0  0
   36.3320   28.9140   33.1540 C   0  0  0  0  0  0  0  0  0  0  0  0
   36.6450   29.2760   31.7380 C   0  0  0  0  0  0  0  0  0  0  0  0
   36.8340   28.0840   30.8290 C   0  0  0  0  0  0  0  0  0  0  0  0
   35.9110   26.9910   31.3880 C   0  0  2  0  0  0  0  0  0  0  0  0
   38.0320   24.9290   33.7750 C   0  0  0  0  0  0  0  0  0  0  0  0
   37.1060   25.2490   32.7870 C   0  0  0  0  0  0  0  0  0  0  0  0
   36.6750   24.2080   31.9650 C   0  0  0  0  0  0  0  0  0  0  0  0
   37.1710   22.9610   32.1700 N   0  0  0  0  0  0  0  0  0  0  0  0
   38.0610   22.6970   33.1340 C   0  0  0  0  0  0  0  0  0  0  0  0
   38.4800   23.6810   33.9240 N   0  0  0  0  0  0  0  0  0  0  0  0
   34.6740   27.5350   31.7070 O   0  0  0  0  0  0  0  0  0  0  0  0
   36.0794   27.2841   34.4359 H   0  0  0  0  0  0  0  0  0  0  0  0
   37.7858   27.6170   33.8401 H   0  0  0  0  0  0  0  0  0  0  0  0
   35.2449   29.0111   33.2914 H   0  0  0  0  0  0  0  0  0  0  0  0
   36.9332   29.5994   33.7695 H   0  0  0  0  0  0  0  0  0  0  0  0
   35.8168   29.8837   31.3447 H   0  0  0  0  0  0  0  0  0  0  0  0
   37.5999   29.8219   31.7515 H   0  0  0  0  0  0  0  0  0  0  0  0
   37.8816   27.7489   30.8473 H   0  0  0  0  0  0  0  0  0  0  0  0
   36.5931   28.3260   29.7833 H   0  0  0  0  0  0  0  0  0  0  0  0
   35.7212   26.1745   30.6758 H   0  0  0  0  0  0  0  0  0  0  0  0
   38.4014   25.7191   34.4453 H   0  0  0  0  0  0  0  0  0  0  0  0
   35.9450   24.3943   31.1635 H   0  0  0  0  0  0  0  0  0  0  0  0
   38.4427   21.6746   33.2716 H   0  0  0  0  0  0  0  0  0  0  0  0
   34.5763   27.5780   32.6912 H   0  0  0  0  0  0  0  0  0  0  0  0
  1  8  1  0
  1  2  1  0
  3  2  1  0
  4  3  1  0
  5  6  1  0
  5  4  1  0
  6 13  1  0
  6  1  1  0
  7 12  2  0
  8  7  1  0
  9 10  1  0
  9  8  2  0
 10 11  2  0
 11 12  1  0
  2 14  1  0
  2 15  1  0
  3 16  1  0
  3 17  1  0
  4 18  1  0
  4 19  1  0
  5 20  1  0
  5 21  1  0
  6 22  1  6
  7 23  1  0
  9 24  1  0
 11 25  1  0
 13 26  1  0
M  ISO  8  14  13  15  13  16  13  17  13  18  13  19  13  20  13  21  13
M  ISO  5  22  13  23  14  24  14  25  14  26   3
M  END
>  <minimizedAffinity>  (1) 
-2.75565219

>  <minimizedRMSD>  (1) 
0.131912857

$$$$
