
     RDKit          3D

 46 49  0  0  1  0  0  0  0  0999 V2000
   37.7340   25.8590   33.8520 N   0  0  0  0  0  0  0  0  0  0  0  0
   37.8420   27.2680   34.1720 C   0  0  0  0  0  0  0  0  0  0  0  0
   38.4660   27.6050   35.4430 C   0  0  0  0  0  0  0  0  0  0  0  0
   38.3240   26.6320   36.5530 C   0  0  0  0  0  0  0  0  0  0  0  0
   37.8420   25.2720   36.1160 C   0  0  0  0  0  0  0  0  0  0  0  0
   38.4830   25.0610   34.7300 C   0  0  2  0  0  0  0  0  0  0  0  0
   39.9040   25.2210   34.7480 N   0  0  0  0  0  0  0  0  0  0  0  0
   40.6980   26.2660   34.4830 C   0  0  0  0  0  0  0  0  0  0  0  0
   41.9780   25.8830   34.6540 C   0  0  0  0  0  0  0  0  0  0  0  0
   41.9650   24.6000   35.0260 N   0  0  0  0  0  0  0  0  0  0  0  0
   40.6810   24.1900   35.0840 C   0  0  0  0  0  0  0  0  0  0  0  0
   40.7050   22.8330   35.4820 N   0  0  0  0  0  0  0  0  0  0  0  0
   41.7030   21.7690   35.6520 C   0  0  0  0  0  0  0  0  0  0  0  0
   41.7670   21.4940   37.1250 C   0  0  0  0  0  0  0  0  0  0  0  0
   40.6520   21.8040   37.9210 N   0  0  0  0  0  0  0  0  0  0  0  0
   39.4560   22.2880   37.3670 C   0  0  0  0  0  0  0  0  0  0  0  0
   39.3850   22.2960   35.8600 C   0  0  0  0  0  0  0  0  0  0  0  0
   36.1790   26.2400   31.9710 C   0  0  0  0  0  0  0  0  0  0  0  0
   36.9410   25.4160   32.7740 C   0  0  0  0  0  0  0  0  0  0  0  0
   36.9140   24.0760   32.4840 C   0  0  0  0  0  0  0  0  0  0  0  0
   36.1680   23.5970   31.4530 N   0  0  0  0  0  0  0  0  0  0  0  0
   35.4350   24.4640   30.6960 C   0  0  0  0  0  0  0  0  0  0  0  0
   35.4480   25.7870   30.9640 N   0  0  0  0  0  0  0  0  0  0  0  0
   38.4302   27.7464   33.3750 H   0  0  0  0  0  0  0  0  0  0  0  0
   36.8050   27.6250   34.2562 H   0  0  0  0  0  0  0  0  0  0  0  0
   39.5419   27.7385   35.2570 H   0  0  0  0  0  0  0  0  0  0  0  0
   37.9339   28.5039   35.7876 H   0  0  0  0  0  0  0  0  0  0  0  0
   39.3048   26.5128   37.0366 H   0  0  0  0  0  0  0  0  0  0  0  0
   37.5624   27.0361   37.2361 H   0  0  0  0  0  0  0  0  0  0  0  0
   38.1761   24.4963   36.8208 H   0  0  0  0  0  0  0  0  0  0  0  0
   36.7443   25.2086   36.0827 H   0  0  0  0  0  0  0  0  0  0  0  0
   38.4272   24.0240   34.3673 H   0  0  0  0  0  0  0  0  0  0  0  0
   40.3619   27.2678   34.1774 H   0  0  0  0  0  0  0  0  0  0  0  0
   42.8700   26.5111   34.5132 H   0  0  0  0  0  0  0  0  0  0  0  0
   41.3941   20.8646   35.1074 H   0  0  0  0  0  0  0  0  0  0  0  0
   42.6839   22.0694   35.2552 H   0  0  0  0  0  0  0  0  0  0  0  0
   41.9603   20.4178   37.2447 H   0  0  0  0  0  0  0  0  0  0  0  0
   42.5505   22.1751   37.4886 H   0  0  0  0  0  0  0  0  0  0  0  0
   40.4077   20.9395   38.4249 H   0  0  0  0  0  0  0  0  0  0  0  0
   38.6333   21.6604   37.7401 H   0  0  0  0  0  0  0  0  0  0  0  0
   39.3902   23.3422   37.6742 H   0  0  0  0  0  0  0  0  0  0  0  0
   38.5737   22.9477   35.5036 H   0  0  0  0  0  0  0  0  0  0  0  0
   39.1723   21.3081   35.4255 H   0  0  0  0  0  0  0  0  0  0  0  0
   36.1788   27.3206   32.1764 H   0  0  0  0  0  0  0  0  0  0  0  0
   37.5050   23.3778   33.0949 H   0  0  0  0  0  0  0  0  0  0  0  0
   34.8290   24.0820   29.8612 H   0  0  0  0  0  0  0  0  0  0  0  0
  1  2  1  0
  1  6  1  0
  2  3  1  0
  3  4  1  0
  5  4  1  0
  6  7  1  0
  6  5  1  0
  7 11  1  0
  8  9  2  0
  8  7  1  0
  9 10  1  0
 10 11  2  0
 11 12  1  0
 12 13  1  0
 12 17  1  0
 13 14  1  0
 14 15  1  0
 16 15  1  0
 17 16  1  0
 18 19  2  0
 19  1  1  0
 20 19  1  0
 21 20  2  0
 22 23  2  0
 22 21  1  0
 23 18  1  0
  2 24  1  0
  2 25  1  0
  3 26  1  0
  3 27  1  0
  4 28  1  0
  4 29  1  0
  5 30  1  0
  5 31  1  0
  6 32  1  6
  8 33  1  0
  9 34  1  0
 13 35  1  0
 13 36  1  0
 14 37  1  0
 14 38  1  0
 15 39  1  0
 16 40  1  0
 16 41  1  0
 17 42  1  0
 17 43  1  0
 18 44  1  0
 20 45  1  0
 22 46  1  0
M  ISO  8  24  13  25  13  26  13  27  13  28  13  29  13  30  13  31  13
M  ISO  8  32  13  33  14  34  14  35  13  36  13  37  13  38  13  39   5
M  ISO  7  40  13  41  13  42  13  43  13  44  14  45  14  46  14
M  END
>  <minimizedAffinity>  (1) 
-5.74959373

>  <minimizedRMSD>  (1) 
4.28184557

$$$$
