
     RDKit          3D

 46 50  0  0  1  0  0  0  0  0999 V2000
   37.5380   25.1180   33.3050 N   0  0  0  0  0  0  0  0  0  0  0  0
   37.0710   26.4560   32.9820 C   0  0  0  0  0  0  0  0  0  0  0  0
   37.5060   27.5420   33.8590 C   0  0  0  0  0  0  0  0  0  0  0  0
   37.7160   27.1660   35.3000 C   0  0  0  0  0  0  0  0  0  0  0  0
   37.8190   25.6990   35.5500 C   0  0  0  0  0  0  0  0  0  0  0  0
   38.5180   25.1190   34.3050 C   0  0  2  0  0  0  0  0  0  0  0  0
   39.7580   25.7700   34.0100 N   0  0  0  0  0  0  0  0  0  0  0  0
   40.4810   26.6640   34.7280 C   0  0  0  0  0  0  0  0  0  0  0  0
   41.5780   26.9830   34.0010 C   0  0  0  0  0  0  0  0  0  0  0  0
   41.5180   26.2890   32.8620 N   0  0  0  0  0  0  0  0  0  0  0  0
   40.3980   25.5410   32.8640 C   0  0  0  0  0  0  0  0  0  0  0  0
   40.3130   24.7740   31.6730 N   0  0  0  0  0  0  0  0  0  0  0  0
   40.4430   23.5090   31.2780 C   0  0  0  0  0  0  0  0  0  0  0  0
   40.2150   23.4100   29.9590 N   0  0  0  0  0  0  0  0  0  0  0  0
   39.9340   24.6120   29.4770 C   0  0  0  0  0  0  0  0  0  0  0  0
   39.6380   24.9700   28.1810 C   0  0  0  0  0  0  0  0  0  0  0  0
   39.6000   24.1250   27.2450 O   0  0  0  0  0  0  0  0  0  0  0  0
   39.3830   26.2620   27.9200 N   0  0  0  0  0  0  0  0  0  0  0  0
   39.4320   27.1360   28.9450 C   0  0  0  0  0  0  0  0  0  0  0  0
   39.1750   28.5330   28.7560 N   0  0  0  0  0  0  0  0  0  0  0  0
   39.7230   26.7750   30.2060 N   0  0  0  0  0  0  0  0  0  0  0  0
   39.9920   25.4800   30.5480 C   0  0  0  0  0  0  0  0  0  0  0  0
   36.0970   24.0660   31.5860 C   0  0  0  0  0  0  0  0  0  0  0  0
   37.0040   24.0000   32.6380 C   0  0  0  0  0  0  0  0  0  0  0  0
   37.3980   22.7500   33.0400 C   0  0  0  0  0  0  0  0  0  0  0  0
   36.9230   21.6380   32.4370 N   0  0  0  0  0  0  0  0  0  0  0  0
   36.0330   21.7490   31.4040 C   0  0  0  0  0  0  0  0  0  0  0  0
   35.6270   22.9800   30.9880 N   0  0  0  0  0  0  0  0  0  0  0  0
   37.4179   26.6918   31.9651 H   0  0  0  0  0  0  0  0  0  0  0  0
   35.9784   26.4132   33.1017 H   0  0  0  0  0  0  0  0  0  0  0  0
   38.4574   27.9325   33.4686 H   0  0  0  0  0  0  0  0  0  0  0  0
   36.6892   28.2788   33.8551 H   0  0  0  0  0  0  0  0  0  0  0  0
   38.6468   27.6393   35.6460 H   0  0  0  0  0  0  0  0  0  0  0  0
   36.8266   27.5137   35.8459 H   0  0  0  0  0  0  0  0  0  0  0  0
   38.4164   25.5036   36.4527 H   0  0  0  0  0  0  0  0  0  0  0  0
   36.8320   25.2421   35.7147 H   0  0  0  0  0  0  0  0  0  0  0  0
   38.8745   24.0878   34.4447 H   0  0  0  0  0  0  0  0  0  0  0  0
   40.2232   27.0590   35.7217 H   0  0  0  0  0  0  0  0  0  0  0  0
   42.3724   27.6848   34.2948 H   0  0  0  0  0  0  0  0  0  0  0  0
   40.7001   22.6669   31.9374 H   0  0  0  0  0  0  0  0  0  0  0  0
   39.1568   26.5759   26.9654 H   0  0  0  0  0  0  0  0  0  0  0  0
   39.2195   29.1779   29.5579 H   0  0  0  0  0  0  0  0  0  0  0  0
   38.9458   28.8922   27.8183 H   0  0  0  0  0  0  0  0  0  0  0  0
   35.7579   25.0529   31.2381 H   0  0  0  0  0  0  0  0  0  0  0  0
   38.1142   22.6504   33.8689 H   0  0  0  0  0  0  0  0  0  0  0  0
   35.6462   20.8453   30.9104 H   0  0  0  0  0  0  0  0  0  0  0  0
  1  6  1  0
  2  1  1  0
  2  3  1  0
  3  4  1  0
  4  5  1  0
  6  5  1  0
  7  6  1  0
  7  8  1  0
  9  8  2  0
 10 11  2  0
 10  9  1  0
 11  7  1  0
 12 11  1  0
 13 12  1  0
 14 13  2  0
 15 14  1  0
 15 22  2  0
 16 15  1  0
 17 16  2  0
 18 16  1  0
 18 19  1  0
 19 21  2  0
 20 19  1  0
 21 22  1  0
 22 12  1  0
 23 24  2  0
 24 25  1  0
 24  1  1  0
 26 25  2  0
 27 26  1  0
 28 27  2  0
 28 23  1  0
  2 29  1  0
  2 30  1  0
  3 31  1  0
  3 32  1  0
  4 33  1  0
  4 34  1  0
  5 35  1  0
  5 36  1  0
  6 37  1  1
  8 38  1  0
  9 39  1  0
 13 40  1  0
 18 41  1  0
 20 42  1  0
 20 43  1  0
 23 44  1  0
 25 45  1  0
 27 46  1  0
M  ISO  8  29  13  30  13  31  13  32  13  33  13  34  13  35  13  36  13
M  ISO  8  37  13  38  14  39  14  40  14  41   9  44  14  45  14  46  14
M  END
>  <minimizedAffinity>  (1) 
-5.29557323

>  <minimizedRMSD>  (1) 
2.60803413

$$$$
