
     RDKit          3D

 47 50  0  0  1  0  0  0  0  0999 V2000
   37.7710   25.4050   33.7130 N   0  0  0  0  0  0  0  0  0  0  0  0
   37.3430   26.7490   34.0620 C   0  0  0  0  0  0  0  0  0  0  0  0
   37.9950   27.3790   35.2060 C   0  0  0  0  0  0  0  0  0  0  0  0
   38.4520   26.4520   36.2910 C   0  0  0  0  0  0  0  0  0  0  0  0
   38.5120   25.0130   35.8940 C   0  0  0  0  0  0  0  0  0  0  0  0
   38.9250   25.0240   34.4070 C   0  0  2  0  0  0  0  0  0  0  0  0
   40.1340   25.7680   34.1770 N   0  0  0  0  0  0  0  0  0  0  0  0
   40.3220   27.0530   33.8170 C   0  0  0  0  0  0  0  0  0  0  0  0
   41.6670   27.2410   33.7290 C   0  0  0  0  0  0  0  0  0  0  0  0
   42.2570   26.0920   34.0320 N   0  0  0  0  0  0  0  0  0  0  0  0
   41.3170   25.1620   34.3150 C   0  0  0  0  0  0  0  0  0  0  0  0
   41.9680   23.9370   34.6360 N   0  0  0  0  0  0  0  0  0  0  0  0
   43.3450   23.8070   35.1550 C   0  0  0  0  0  0  0  0  0  0  0  0
   43.2570   23.2750   36.5620 C   0  0  0  0  0  0  0  0  0  0  0  0
   41.8620   22.8820   36.9790 C   0  0  0  0  0  0  0  0  0  0  0  0
   41.2230   22.0200   35.9420 C   0  0  0  0  0  0  0  0  0  0  0  0
   41.4050   22.5820   34.5370 C   0  0  0  0  0  0  0  0  0  0  0  0
   36.1310   25.1720   31.8750 C   0  0  0  0  0  0  0  0  0  0  0  0
   37.0520   24.6470   32.7780 C   0  0  0  0  0  0  0  0  0  0  0  0
   37.2590   23.2950   32.7280 C   0  0  0  0  0  0  0  0  0  0  0  0
   36.5970   22.5120   31.8400 N   0  0  0  0  0  0  0  0  0  0  0  0
   35.7030   23.0850   30.9750 C   0  0  0  0  0  0  0  0  0  0  0  0
   35.4780   24.4230   31.0030 N   0  0  0  0  0  0  0  0  0  0  0  0
   37.5187   27.3906   33.1859 H   0  0  0  0  0  0  0  0  0  0  0  0
   36.2888   26.6438   34.3580 H   0  0  0  0  0  0  0  0  0  0  0  0
   38.8758   27.9231   34.8344 H   0  0  0  0  0  0  0  0  0  0  0  0
   37.2312   28.0228   35.6666 H   0  0  0  0  0  0  0  0  0  0  0  0
   39.4586   26.7632   36.6070 H   0  0  0  0  0  0  0  0  0  0  0  0
   37.7063   26.5227   37.0966 H   0  0  0  0  0  0  0  0  0  0  0  0
   39.2582   24.4763   36.4983 H   0  0  0  0  0  0  0  0  0  0  0  0
   37.5511   24.5012   36.0515 H   0  0  0  0  0  0  0  0  0  0  0  0
   39.2402   24.0432   34.0214 H   0  0  0  0  0  0  0  0  0  0  0  0
   39.5402   27.8040   33.6305 H   0  0  0  0  0  0  0  0  0  0  0  0
   42.1742   28.1780   33.4556 H   0  0  0  0  0  0  0  0  0  0  0  0
   43.9179   23.1097   34.5261 H   0  0  0  0  0  0  0  0  0  0  0  0
   43.8543   24.7819   35.1433 H   0  0  0  0  0  0  0  0  0  0  0  0
   43.9043   22.3889   36.6387 H   0  0  0  0  0  0  0  0  0  0  0  0
   43.5741   24.0879   37.2318 H   0  0  0  0  0  0  0  0  0  0  0  0
   41.9117   22.3281   37.9280 H   0  0  0  0  0  0  0  0  0  0  0  0
   41.2595   23.7943   37.0998 H   0  0  0  0  0  0  0  0  0  0  0  0
   41.6762   21.0186   35.9848 H   0  0  0  0  0  0  0  0  0  0  0  0
   40.1442   21.9795   36.1533 H   0  0  0  0  0  0  0  0  0  0  0  0
   40.4315   22.6229   34.0265 H   0  0  0  0  0  0  0  0  0  0  0  0
   42.0854   21.9364   33.9623 H   0  0  0  0  0  0  0  0  0  0  0  0
   35.9388   26.2550   31.8878 H   0  0  0  0  0  0  0  0  0  0  0  0
   37.9770   22.8339   33.4222 H   0  0  0  0  0  0  0  0  0  0  0  0
   35.1632   22.4558   30.2520 H   0  0  0  0  0  0  0  0  0  0  0  0
  1  2  1  0
  1  6  1  0
  2  3  1  0
  3  4  1  0
  5  4  1  0
  6  5  1  0
  7 11  1  0
  7  6  1  0
  8  7  1  0
  9  8  2  0
  9 10  1  0
 10 11  2  0
 11 12  1  0
 12 13  1  0
 13 14  1  0
 14 15  1  0
 16 15  1  0
 17 12  1  0
 17 16  1  0
 18 19  2  0
 19  1  1  0
 20 19  1  0
 21 20  2  0
 22 23  2  0
 22 21  1  0
 23 18  1  0
  2 24  1  0
  2 25  1  0
  3 26  1  0
  3 27  1  0
  4 28  1  0
  4 29  1  0
  5 30  1  0
  5 31  1  0
  6 32  1  6
  8 33  1  0
  9 34  1  0
 13 35  1  0
 13 36  1  0
 14 37  1  0
 14 38  1  0
 15 39  1  0
 15 40  1  0
 16 41  1  0
 16 42  1  0
 17 43  1  0
 17 44  1  0
 18 45  1  0
 20 46  1  0
 22 47  1  0
M  ISO  8  24  13  25  13  26  13  27  13  28  13  29  13  30  13  31  13
M  ISO  8  32  13  33  14  34  14  35  13  36  13  37  13  38  13  39  13
M  ISO  8  40  13  41  13  42  13  43  13  44  13  45  14  46  14  47  14
M  END
>  <minimizedAffinity>  (1) 
-5.19295454

>  <minimizedRMSD>  (1) 
3.70033169

$$$$
