
     RDKit          3D

 39 42  0  0  1  0  0  0  0  0999 V2000
   37.8180   25.5360   33.7560 N   0  0  0  0  0  0  0  0  0  0  0  0
   37.3880   26.8990   33.9650 C   0  0  0  0  0  0  0  0  0  0  0  0
   37.9960   27.6320   35.0790 C   0  0  0  0  0  0  0  0  0  0  0  0
   38.3800   26.7930   36.2670 C   0  0  0  0  0  0  0  0  0  0  0  0
   38.4370   25.3290   36.0000 C   0  0  0  0  0  0  0  0  0  0  0  0
   38.9250   25.1950   34.5420 C   0  0  2  0  0  0  0  0  0  0  0  0
   40.1480   25.9000   34.3050 N   0  0  0  0  0  0  0  0  0  0  0  0
   40.3930   27.0610   33.6470 C   0  0  0  0  0  0  0  0  0  0  0  0
   41.7270   27.2920   33.7010 C   0  0  0  0  0  0  0  0  0  0  0  0
   42.2790   26.2850   34.3840 N   0  0  0  0  0  0  0  0  0  0  0  0
   41.3080   25.4290   34.7580 C   0  0  0  0  0  0  0  0  0  0  0  0
   41.8790   24.3660   35.5020 N   0  0  0  0  0  0  0  0  0  0  0  0
   40.9840   23.4010   35.8720 C   0  0  0  0  0  0  0  0  0  0  0  0
   41.6410   22.4380   36.5920 C   0  0  0  0  0  0  0  0  0  0  0  0
   42.9240   22.8260   36.6540 N   0  0  0  0  0  0  0  0  0  0  0  0
   43.0660   23.9870   35.9970 C   0  0  0  0  0  0  0  0  0  0  0  0
   36.2170   25.1640   31.9040 C   0  0  0  0  0  0  0  0  0  0  0  0
   37.1430   24.6990   32.8460 C   0  0  0  0  0  0  0  0  0  0  0  0
   37.4010   23.3540   32.8680 C   0  0  0  0  0  0  0  0  0  0  0  0
   36.7770   22.5180   32.0070 N   0  0  0  0  0  0  0  0  0  0  0  0
   35.8770   23.0090   31.0990 C   0  0  0  0  0  0  0  0  0  0  0  0
   35.6070   24.3370   31.0590 N   0  0  0  0  0  0  0  0  0  0  0  0
   37.6049   27.4590   33.0434 H   0  0  0  0  0  0  0  0  0  0  0  0
   36.3221   26.8222   34.2256 H   0  0  0  0  0  0  0  0  0  0  0  0
   38.9042   28.1270   34.7047 H   0  0  0  0  0  0  0  0  0  0  0  0
   37.2278   28.3331   35.4372 H   0  0  0  0  0  0  0  0  0  0  0  0
   39.3734   27.1181   36.6099 H   0  0  0  0  0  0  0  0  0  0  0  0
   37.5931   26.9418   37.0210 H   0  0  0  0  0  0  0  0  0  0  0  0
   39.1422   24.8398   36.6880 H   0  0  0  0  0  0  0  0  0  0  0  0
   37.4588   24.8484   36.1490 H   0  0  0  0  0  0  0  0  0  0  0  0
   39.2379   24.1755   34.2724 H   0  0  0  0  0  0  0  0  0  0  0  0
   39.6432   27.7000   33.1576 H   0  0  0  0  0  0  0  0  0  0  0  0
   42.2577   28.1503   33.2633 H   0  0  0  0  0  0  0  0  0  0  0  0
   39.9108   23.3981   35.6308 H   0  0  0  0  0  0  0  0  0  0  0  0
   41.2042   21.5290   37.0312 H   0  0  0  0  0  0  0  0  0  0  0  0
   44.0091   24.5415   35.8823 H   0  0  0  0  0  0  0  0  0  0  0  0
   35.9884   26.2392   31.8617 H   0  0  0  0  0  0  0  0  0  0  0  0
   38.1228   22.9497   33.5930 H   0  0  0  0  0  0  0  0  0  0  0  0
   35.3724   22.3248   30.4010 H   0  0  0  0  0  0  0  0  0  0  0  0
  1  2  1  0
  1  6  1  0
  2  3  1  0
  3  4  1  0
  5  4  1  0
  6  5  1  0
  7  6  1  0
  7 11  1  0
  8  9  2  0
  8  7  1  0
  9 10  1  0
 10 11  2  0
 11 12  1  0
 12 13  1  0
 12 16  1  0
 13 14  2  0
 14 15  1  0
 16 15  2  0
 17 18  2  0
 18 19  1  0
 18  1  1  0
 20 19  2  0
 21 20  1  0
 22 21  2  0
 22 17  1  0
  2 23  1  0
  2 24  1  0
  3 25  1  0
  3 26  1  0
  4 27  1  0
  4 28  1  0
  5 29  1  0
  5 30  1  0
  6 31  1  6
  8 32  1  0
  9 33  1  0
 13 34  1  0
 14 35  1  0
 16 36  1  0
 17 37  1  0
 19 38  1  0
 21 39  1  0
M  ISO  8  23  13  24  13  25  13  26  13  27  13  28  13  29  13  30  13
M  ISO  8  31  13  32  14  33  14  34  14  35  14  36  14  37  14  38  14
M  ISO  1  39  14
M  END
>  <minimizedAffinity>  (1) 
-5.17415857

>  <minimizedRMSD>  (1) 
3.66181254

$$$$
