
     RDKit          3D

 45 49  0  0  1  0  0  0  0  0999 V2000
   37.7140   25.7370   33.7190 N   0  0  0  0  0  0  0  0  0  0  0  0
   38.2210   27.0470   34.0950 C   0  0  0  0  0  0  0  0  0  0  0  0
   38.9940   27.1310   35.3300 C   0  0  0  0  0  0  0  0  0  0  0  0
   38.6070   26.1550   36.4070 C   0  0  0  0  0  0  0  0  0  0  0  0
   37.7590   25.0210   35.9370 C   0  0  0  0  0  0  0  0  0  0  0  0
   38.2440   24.7090   34.5080 C   0  0  2  0  0  0  0  0  0  0  0  0
   39.6560   24.4820   34.4350 N   0  0  0  0  0  0  0  0  0  0  0  0
   40.5790   24.3720   35.4200 C   0  0  0  0  0  0  0  0  0  0  0  0
   41.7800   24.1730   34.8270 C   0  0  0  0  0  0  0  0  0  0  0  0
   41.5810   24.1640   33.5040 N   0  0  0  0  0  0  0  0  0  0  0  0
   40.2750   24.3510   33.2620 C   0  0  0  0  0  0  0  0  0  0  0  0
   40.0170   24.3280   31.8620 N   0  0  0  0  0  0  0  0  0  0  0  0
   39.6540   23.4320   30.9300 C   0  0  0  0  0  0  0  0  0  0  0  0
   39.5570   24.0440   29.7520 N   0  0  0  0  0  0  0  0  0  0  0  0
   39.8500   25.3490   29.8770 C   0  0  0  0  0  0  0  0  0  0  0  0
   39.8660   26.3240   28.9020 C   0  0  0  0  0  0  0  0  0  0  0  0
   40.1990   27.5650   29.3060 N   0  0  0  0  0  0  0  0  0  0  0  0
   40.4910   27.7820   30.6020 C   0  0  0  0  0  0  0  0  0  0  0  0
   40.4670   26.8130   31.5320 N   0  0  0  0  0  0  0  0  0  0  0  0
   40.1400   25.5260   31.2120 C   0  0  0  0  0  0  0  0  0  0  0  0
   39.5420   25.9980   27.5480 N   0  0  0  0  0  0  0  0  0  0  0  0
   36.2380   26.6840   31.9690 C   0  0  0  0  0  0  0  0  0  0  0  0
   36.7900   25.6080   32.6620 C   0  0  0  0  0  0  0  0  0  0  0  0
   36.4080   24.3480   32.2850 C   0  0  0  0  0  0  0  0  0  0  0  0
   35.5240   24.1660   31.2710 N   0  0  0  0  0  0  0  0  0  0  0  0
   35.0040   25.2480   30.6130 C   0  0  0  0  0  0  0  0  0  0  0  0
   35.3710   26.5000   30.9750 N   0  0  0  0  0  0  0  0  0  0  0  0
   38.8649   27.4007   33.2763 H   0  0  0  0  0  0  0  0  0  0  0  0
   37.3244   27.6574   34.2782 H   0  0  0  0  0  0  0  0  0  0  0  0
   40.0511   26.9574   35.0800 H   0  0  0  0  0  0  0  0  0  0  0  0
   38.7928   28.1303   35.7433 H   0  0  0  0  0  0  0  0  0  0  0  0
   39.5281   25.7387   36.8409 H   0  0  0  0  0  0  0  0  0  0  0  0
   38.0041   26.7159   37.1363 H   0  0  0  0  0  0  0  0  0  0  0  0
   37.8932   24.1448   36.5884 H   0  0  0  0  0  0  0  0  0  0  0  0
   36.6890   25.2753   35.9584 H   0  0  0  0  0  0  0  0  0  0  0  0
   37.8815   23.7454   34.1207 H   0  0  0  0  0  0  0  0  0  0  0  0
   40.3883   24.4330   36.5016 H   0  0  0  0  0  0  0  0  0  0  0  0
   42.7443   24.0424   35.3400 H   0  0  0  0  0  0  0  0  0  0  0  0
   39.4668   22.3633   31.1111 H   0  0  0  0  0  0  0  0  0  0  0  0
   40.7622   28.8013   30.9143 H   0  0  0  0  0  0  0  0  0  0  0  0
   39.2944   25.0304   27.2964 H   0  0  0  0  0  0  0  0  0  0  0  0
   39.5562   26.7308   26.8243 H   0  0  0  0  0  0  0  0  0  0  0  0
   36.5249   27.7082   32.2494 H   0  0  0  0  0  0  0  0  0  0  0  0
   36.8219   23.4741   32.8095 H   0  0  0  0  0  0  0  0  0  0  0  0
   34.2885   25.1003   29.7907 H   0  0  0  0  0  0  0  0  0  0  0  0
  1  2  1  0
  1  6  1  0
  2  3  1  0
  3  4  1  0
  5  4  1  0
  6  5  1  0
  7  6  1  0
  7  8  1  0
  9  8  2  0
 10  9  1  0
 11 10  2  0
 11  7  1  0
 12 11  1  0
 13 12  1  0
 14 15  1  0
 14 13  2  0
 15 20  2  0
 16 17  2  0
 16 15  1  0
 17 18  1  0
 18 19  2  0
 20 19  1  0
 20 12  1  0
 21 16  1  0
 22 23  2  0
 23  1  1  0
 24 23  1  0
 25 24  2  0
 26 27  2  0
 26 25  1  0
 27 22  1  0
  2 28  1  0
  2 29  1  0
  3 30  1  0
  3 31  1  0
  4 32  1  0
  4 33  1  0
  5 34  1  0
  5 35  1  0
  6 36  1  6
  8 37  1  0
  9 38  1  0
 13 39  1  0
 18 40  1  0
 21 41  1  0
 21 42  1  0
 22 43  1  0
 24 44  1  0
 26 45  1  0
M  ISO  8  28  13  29  13  30  13  31  13  32  13  33  13  34  13  35  13
M  ISO  8  36  13  37  14  38  14  39  14  40  14  43  14  44  14  45  14
M  END
>  <minimizedAffinity>  (1) 
-5.15078211

>  <minimizedRMSD>  (1) 
2.5627799

$$$$
