
     RDKit          3D

 43 46  0  0  1  0  0  0  0  0999 V2000
   37.5320   26.1580   33.6580 N   0  0  0  0  0  0  0  0  0  0  0  0
   37.2860   27.3670   34.4200 C   0  0  0  0  0  0  0  0  0  0  0  0
   38.0860   27.5680   35.6310 C   0  0  0  0  0  0  0  0  0  0  0  0
   38.4830   26.3150   36.3530 C   0  0  0  0  0  0  0  0  0  0  0  0
   38.3370   25.0600   35.5510 C   0  0  0  0  0  0  0  0  0  0  0  0
   38.6630   25.4650   34.1010 C   0  0  2  0  0  0  0  0  0  0  0  0
   39.9430   26.1200   33.9830 N   0  0  0  0  0  0  0  0  0  0  0  0
   40.9520   26.2370   34.8620 C   0  0  0  0  0  0  0  0  0  0  0  0
   41.9290   26.9580   34.2610 C   0  0  0  0  0  0  0  0  0  0  0  0
   41.5020   27.2640   33.0340 N   0  0  0  0  0  0  0  0  0  0  0  0
   40.2730   26.7480   32.8530 C   0  0  0  0  0  0  0  0  0  0  0  0
   39.8190   27.0540   31.5430 N   0  0  0  0  0  0  0  0  0  0  0  0
   38.7900   27.8120   31.1250 C   0  0  0  0  0  0  0  0  0  0  0  0
   38.5410   27.9860   29.7790 C   0  0  0  0  0  0  0  0  0  0  0  0
   39.3240   27.4000   28.8050 C   0  0  0  0  0  0  0  0  0  0  0  0
   39.0170   27.6160   27.4320 N   0  0  0  0  0  0  0  0  0  0  0  0
   40.3710   26.6290   29.2230 N   0  0  0  0  0  0  0  0  0  0  0  0
   40.5800   26.4850   30.5600 C   0  0  0  0  0  0  0  0  0  0  0  0
   41.5880   25.7410   30.7950 O   0  0  0  0  0  0  0  0  0  0  0  0
   35.7610   26.6590   31.9980 C   0  0  0  0  0  0  0  0  0  0  0  0
   36.6740   25.7940   32.6010 C   0  0  0  0  0  0  0  0  0  0  0  0
   36.7320   24.5130   32.1220 C   0  0  0  0  0  0  0  0  0  0  0  0
   35.9370   24.1100   31.1080 N   0  0  0  0  0  0  0  0  0  0  0  0
   35.0540   24.9880   30.5410 C   0  0  0  0  0  0  0  0  0  0  0  0
   34.9780   26.2660   30.9990 N   0  0  0  0  0  0  0  0  0  0  0  0
   37.4729   28.2222   33.7538 H   0  0  0  0  0  0  0  0  0  0  0  0
   36.2497   27.2724   34.7764 H   0  0  0  0  0  0  0  0  0  0  0  0
   39.0048   28.1017   35.3464 H   0  0  0  0  0  0  0  0  0  0  0  0
   37.4468   28.1305   36.3275 H   0  0  0  0  0  0  0  0  0  0  0  0
   39.5374   26.4106   36.6514 H   0  0  0  0  0  0  0  0  0  0  0  0
   37.7989   26.2188   37.2090 H   0  0  0  0  0  0  0  0  0  0  0  0
   39.0413   24.2926   35.9045 H   0  0  0  0  0  0  0  0  0  0  0  0
   37.3281   24.6309   35.6403 H   0  0  0  0  0  0  0  0  0  0  0  0
   38.8284   24.6119   33.4266 H   0  0  0  0  0  0  0  0  0  0  0  0
   40.9799   25.8239   35.8811 H   0  0  0  0  0  0  0  0  0  0  0  0
   42.8962   27.2394   34.7030 H   0  0  0  0  0  0  0  0  0  0  0  0
   38.1386   28.2995   31.8653 H   0  0  0  0  0  0  0  0  0  0  0  0
   37.6904   28.6124   29.4721 H   0  0  0  0  0  0  0  0  0  0  0  0
   38.2150   28.2070   27.1704 H   0  0  0  0  0  0  0  0  0  0  0  0
   39.5968   27.1813   26.7001 H   0  0  0  0  0  0  0  0  0  0  0  0
   35.6871   27.6953   32.3595 H   0  0  0  0  0  0  0  0  0  0  0  0
   37.4386   23.7996   32.5711 H   0  0  0  0  0  0  0  0  0  0  0  0
   34.4058   24.6601   29.7149 H   0  0  0  0  0  0  0  0  0  0  0  0
  1  6  1  0
  1  2  1  0
  2  3  1  0
  3  4  1  0
  5  4  1  0
  6  5  1  0
  7  6  1  0
  7  8  1  0
  9  8  2  0
 10  9  1  0
 11 10  2  0
 11  7  1  0
 12 11  1  0
 13 12  1  0
 14 13  2  0
 15 17  2  0
 15 14  1  0
 16 15  1  0
 17 18  1  0
 18 19  2  0
 18 12  1  0
 20 21  2  0
 21  1  1  0
 22 21  1  0
 23 22  2  0
 24 25  2  0
 24 23  1  0
 25 20  1  0
  2 26  1  0
  2 27  1  0
  3 28  1  0
  3 29  1  0
  4 30  1  0
  4 31  1  0
  5 32  1  0
  5 33  1  0
  6 34  1  6
  8 35  1  0
  9 36  1  0
 13 37  1  0
 14 38  1  0
 16 39  1  0
 16 40  1  0
 20 41  1  0
 22 42  1  0
 24 43  1  0
M  ISO  8  26  13  27  13  28  13  29  13  30  13  31  13  32  13  33  13
M  ISO  8  34  13  35  14  36  14  37  14  38  14  41  14  42  14  43  14
M  END
>  <minimizedAffinity>  (1) 
-5.0759244

>  <minimizedRMSD>  (1) 
1.03890228

$$$$
