
     RDKit          3D

 26 26  0  0  1  0  0  0  0  0999 V2000
   38.7730   25.6530   34.9050 C   0  0  2  0  0  0  0  0  0  0  0  0
   39.6050   22.9360   37.2170 C   0  0  0  0  0  0  0  0  0  0  0  0
   38.7790   23.2030   38.3560 C   0  0  0  0  0  0  0  0  0  0  0  0
   37.9480   24.3200   38.3010 C   0  0  0  0  0  0  0  0  0  0  0  0
   37.9830   25.0850   37.1540 N   0  0  0  0  0  0  0  0  0  0  0  0
   38.7700   24.8030   36.1090 C   0  0  0  0  0  0  0  0  0  0  0  0
   39.5690   23.7360   36.1500 N   0  0  0  0  0  0  0  0  0  0  0  0
   39.3790   26.9900   35.2590 C   0  0  0  0  0  0  0  0  0  0  0  0
   37.3930   25.8990   34.3470 C   0  0  0  0  0  0  0  0  0  0  0  0
   37.2820   25.6900   32.9370 N   0  0  0  0  0  0  0  0  0  0  0  0
   36.8450   26.7040   32.0340 C   0  0  0  0  0  0  0  0  0  0  0  0
   37.0470   27.9150   32.4850 N   0  0  0  0  0  0  0  0  0  0  0  0
   36.2690   26.2760   30.8040 N   0  0  0  0  0  0  0  0  0  0  0  0
   36.7500   28.7080   31.8700 H   0  0  0  0  0  0  0  0  0  0  0  0
   39.3538   25.1213   34.1369 H   0  0  0  0  0  0  0  0  0  0  0  0
   40.2750   22.0636   37.2219 H   0  0  0  0  0  0  0  0  0  0  0  0
   38.7998   22.5505   39.2413 H   0  0  0  0  0  0  0  0  0  0  0  0
   37.2884   24.5820   39.1414 H   0  0  0  0  0  0  0  0  0  0  0  0
   39.4258   27.0932   36.3531 H   0  0  0  0  0  0  0  0  0  0  0  0
   40.3944   27.0546   34.8409 H   0  0  0  0  0  0  0  0  0  0  0  0
   38.7583   27.7962   34.8409 H   0  0  0  0  0  0  0  0  0  0  0  0
   36.6910   25.2193   34.8522 H   0  0  0  0  0  0  0  0  0  0  0  0
   37.1654   26.9601   34.5268 H   0  0  0  0  0  0  0  0  0  0  0  0
   37.5288   24.7654   32.5560 H   0  0  0  0  0  0  0  0  0  0  0  0
   36.1811   25.2705   30.5988 H   0  0  0  0  0  0  0  0  0  0  0  0
   35.9403   26.9719   30.1195 H   0  0  0  0  0  0  0  0  0  0  0  0
  1  8  1  0
  1  6  1  0
  2  3  2  0
  4  3  1  0
  5  4  2  0
  6  7  2  0
  6  5  1  0
  7  2  1  0
  9  1  1  0
 10  9  1  0
 11 12  2  0
 11 10  1  0
 13 11  1  0
 14 12  1  0
  1 15  1  6
  2 16  1  0
  3 17  1  0
  4 18  1  0
  8 19  1  0
  8 20  1  0
  8 21  1  0
  9 22  1  0
  9 23  1  0
 10 24  1  0
 13 25  1  0
 13 26  1  0
M  ISO  8  15   8  16  14  17  14  18  14  19   8  20   8  21   8  22   8
M  ISO  1  23   8
M  END
>  <minimizedAffinity>  (1) 
-3.84443331

>  <minimizedRMSD>  (1) 
2.08739805

$$$$
