
     RDKit          3D

 38 40  0  0  1  0  0  0  0  0999 V2000
   38.0060   25.7600   33.3330 N   0  0  0  0  0  0  0  0  0  0  0  0
   38.9800   26.8080   33.1200 C   0  0  0  0  0  0  0  0  0  0  0  0
   39.9360   27.0660   34.1880 C   0  0  0  0  0  0  0  0  0  0  0  0
   39.4320   26.8200   35.5850 C   0  0  0  0  0  0  0  0  0  0  0  0
   38.1690   26.0160   35.6520 C   0  0  0  0  0  0  0  0  0  0  0  0
   38.2730   25.0090   34.4860 C   0  0  2  0  0  0  0  0  0  0  0  0
   36.2150   26.6230   31.8620 C   0  0  0  0  0  0  0  0  0  0  0  0
   36.9270   25.5910   32.4400 C   0  0  0  0  0  0  0  0  0  0  0  0
   36.5460   24.3050   32.1180 C   0  0  0  0  0  0  0  0  0  0  0  0
   35.5180   24.0860   31.2730 N   0  0  0  0  0  0  0  0  0  0  0  0
   34.8380   25.1380   30.7210 C   0  0  0  0  0  0  0  0  0  0  0  0
   35.2070   26.4100   31.0320 N   0  0  0  0  0  0  0  0  0  0  0  0
   39.4910   24.2410   34.5170 N   0  0  0  0  0  0  0  0  0  0  0  0
   40.4620   24.1000   33.5970 C   0  0  0  0  0  0  0  0  0  0  0  0
   41.3790   23.2510   34.1110 C   0  0  0  0  0  0  0  0  0  0  0  0
   40.9640   22.9000   35.3050 N   0  0  0  0  0  0  0  0  0  0  0  0
   39.7880   23.4980   35.6020 C   0  0  0  0  0  0  0  0  0  0  0  0
   39.2720   23.2190   36.9640 C   0  0  0  0  0  0  0  0  0  0  0  0
   40.3070   22.5640   37.8950 C   0  0  0  0  0  0  0  0  0  0  0  0
   39.5550   26.5452   32.2198 H   0  0  0  0  0  0  0  0  0  0  0  0
   38.3863   27.7311   33.0470 H   0  0  0  0  0  0  0  0  0  0  0  0
   40.8095   26.4178   34.0243 H   0  0  0  0  0  0  0  0  0  0  0  0
   40.1638   28.1408   34.1350 H   0  0  0  0  0  0  0  0  0  0  0  0
   40.2126   26.2825   36.1433 H   0  0  0  0  0  0  0  0  0  0  0  0
   39.2012   27.8058   36.0149 H   0  0  0  0  0  0  0  0  0  0  0  0
   38.0979   25.4874   36.6140 H   0  0  0  0  0  0  0  0  0  0  0  0
   37.2724   26.6483   35.5727 H   0  0  0  0  0  0  0  0  0  0  0  0
   37.5391   24.1916   34.5434 H   0  0  0  0  0  0  0  0  0  0  0  0
   36.4959   27.6595   32.1001 H   0  0  0  0  0  0  0  0  0  0  0  0
   37.0851   23.4510   32.5540 H   0  0  0  0  0  0  0  0  0  0  0  0
   34.0002   24.9564   30.0317 H   0  0  0  0  0  0  0  0  0  0  0  0
   40.5021   24.5851   32.6106 H   0  0  0  0  0  0  0  0  0  0  0  0
   42.3037   22.9157   33.6186 H   0  0  0  0  0  0  0  0  0  0  0  0
   38.9512   24.1695   37.4153 H   0  0  0  0  0  0  0  0  0  0  0  0
   38.4419   22.5057   36.8536 H   0  0  0  0  0  0  0  0  0  0  0  0
   40.0234   22.7435   38.9425 H   0  0  0  0  0  0  0  0  0  0  0  0
   40.3385   21.4812   37.7041 H   0  0  0  0  0  0  0  0  0  0  0  0
   41.2991   22.9990   37.7041 H   0  0  0  0  0  0  0  0  0  0  0  0
  1  6  1  0
  2  1  1  0
  2  3  1  0
  3  4  1  0
  4  5  1  0
  6 13  1  0
  6  5  1  0
  7  8  2  0
  8  1  1  0
  9  8  1  0
 10  9  2  0
 11 12  2  0
 11 10  1  0
 12  7  1  0
 13 17  1  0
 14 15  2  0
 14 13  1  0
 15 16  1  0
 16 17  2  0
 17 18  1  0
 18 19  1  0
  2 20  1  0
  2 21  1  0
  3 22  1  0
  3 23  1  0
  4 24  1  0
  4 25  1  0
  5 26  1  0
  5 27  1  0
  6 28  1  1
  7 29  1  0
  9 30  1  0
 11 31  1  0
 14 32  1  0
 15 33  1  0
 18 34  1  0
 18 35  1  0
 19 36  1  0
 19 37  1  0
 19 38  1  0
M  ISO  8  20  13  21  13  22  13  23  13  24  13  25  13  26  13  27  13
M  ISO  8  28  13  29  14  30  14  31  14  32  14  33  14  34   8  35   8
M  ISO  3  36   8  37   8  38   8
M  END
>  <minimizedAffinity>  (1) 
-4.57491112

>  <minimizedRMSD>  (1) 
3.35973167

$$$$
