
     RDKit          3D

 42 45  0  0  1  0  0  0  0  0999 V2000
   37.6640   25.8800   33.7900 N   0  0  0  0  0  0  0  0  0  0  0  0
   37.7920   27.1830   34.4250 C   0  0  0  0  0  0  0  0  0  0  0  0
   38.5580   27.2410   35.6670 C   0  0  0  0  0  0  0  0  0  0  0  0
   38.4880   26.0110   36.5310 C   0  0  0  0  0  0  0  0  0  0  0  0
   37.9830   24.7950   35.8340 C   0  0  0  0  0  0  0  0  0  0  0  0
   38.4890   24.9190   34.3820 C   0  0  2  0  0  0  0  0  0  0  0  0
   36.1770   26.7450   32.0120 C   0  0  0  0  0  0  0  0  0  0  0  0
   36.7820   25.6970   32.7120 C   0  0  0  0  0  0  0  0  0  0  0  0
   36.4940   24.4190   32.3110 C   0  0  0  0  0  0  0  0  0  0  0  0
   35.6520   24.1940   31.2720 N   0  0  0  0  0  0  0  0  0  0  0  0
   35.0790   25.2460   30.6100 C   0  0  0  0  0  0  0  0  0  0  0  0
   35.3520   26.5230   30.9940 N   0  0  0  0  0  0  0  0  0  0  0  0
   39.9130   25.1080   34.3080 N   0  0  0  0  0  0  0  0  0  0  0  0
   40.8820   24.8650   35.2080 C   0  0  0  0  0  0  0  0  0  0  0  0
   42.0610   25.2270   34.6350 C   0  0  0  0  0  0  0  0  0  0  0  0
   41.7930   25.6800   33.4040 N   0  0  0  0  0  0  0  0  0  0  0  0
   40.4620   25.6060   33.2000 C   0  0  0  0  0  0  0  0  0  0  0  0
   40.1620   26.0820   31.8580 C   0  0  0  0  0  0  0  0  0  0  0  0
   40.0700   27.3860   31.4170 C   0  0  0  0  0  0  0  0  0  0  0  0
   39.7990   27.7450   30.1350 C   0  0  0  0  0  0  0  0  0  0  0  0
   39.6040   26.7590   29.2080 C   0  0  0  0  0  0  0  0  0  0  0  0
   39.6680   25.4140   29.5090 C   0  0  0  0  0  0  0  0  0  0  0  0
   39.9470   25.1510   30.8340 C   0  0  0  0  0  0  0  0  0  0  0  0
   38.2767   27.8577   33.7040 H   0  0  0  0  0  0  0  0  0  0  0  0
   36.7672   27.4661   34.7070 H   0  0  0  0  0  0  0  0  0  0  0  0
   39.6129   27.4123   35.4065 H   0  0  0  0  0  0  0  0  0  0  0  0
   38.1096   28.0517   36.2600 H   0  0  0  0  0  0  0  0  0  0  0  0
   39.4995   25.7968   36.9065 H   0  0  0  0  0  0  0  0  0  0  0  0
   37.7695   26.2328   37.3338 H   0  0  0  0  0  0  0  0  0  0  0  0
   38.3843   23.8859   36.3056 H   0  0  0  0  0  0  0  0  0  0  0  0
   36.8866   24.7205   35.8814 H   0  0  0  0  0  0  0  0  0  0  0  0
   38.3988   23.9921   33.7966 H   0  0  0  0  0  0  0  0  0  0  0  0
   36.3896   27.7817   32.3120 H   0  0  0  0  0  0  0  0  0  0  0  0
   36.9501   23.5673   32.8368 H   0  0  0  0  0  0  0  0  0  0  0  0
   34.3974   25.0594   29.7670 H   0  0  0  0  0  0  0  0  0  0  0  0
   40.7465   24.4511   36.2181 H   0  0  0  0  0  0  0  0  0  0  0  0
   43.0559   25.1597   35.0994 H   0  0  0  0  0  0  0  0  0  0  0  0
   40.2265   28.1888   32.1526 H   0  0  0  0  0  0  0  0  0  0  0  0
   39.7378   28.8054   29.8491 H   0  0  0  0  0  0  0  0  0  0  0  0
   39.3852   27.0526   28.1707 H   0  0  0  0  0  0  0  0  0  0  0  0
   39.5108   24.6234   28.7605 H   0  0  0  0  0  0  0  0  0  0  0  0
   40.0075   24.0902   31.1186 H   0  0  0  0  0  0  0  0  0  0  0  0
  1  6  1  0
  1  2  1  0
  2  3  1  0
  3  4  1  0
  5  4  1  0
  6  5  1  0
  7  8  2  0
  8  1  1  0
  9  8  1  0
 10  9  2  0
 11 12  2  0
 11 10  1  0
 12  7  1  0
 13  6  1  0
 13 14  1  0
 15 14  2  0
 16 15  1  0
 17 16  2  0
 17 13  1  0
 18 17  1  0
 19 18  2  0
 20 19  1  0
 21 22  1  0
 21 20  2  0
 22 23  2  0
 23 18  1  0
  2 24  1  0
  2 25  1  0
  3 26  1  0
  3 27  1  0
  4 28  1  0
  4 29  1  0
  5 30  1  0
  5 31  1  0
  6 32  1  6
  7 33  1  0
  9 34  1  0
 11 35  1  0
 14 36  1  0
 15 37  1  0
 19 38  1  0
 20 39  1  0
 21 40  1  0
 22 41  1  0
 23 42  1  0
M  ISO  8  24  13  25  13  26  13  27  13  28  13  29  13  30  13  31  13
M  ISO  8  32  13  33  14  34  14  35  14  36  14  37  14  38  14  39  14
M  ISO  3  40  14  41  14  42  14
M  END
>  <minimizedAffinity>  (1) 
-4.5191865

>  <minimizedRMSD>  (1) 
1.5507952

$$$$
