
     RDKit          3D

 42 45  0  0  1  0  0  0  0  0999 V2000
   37.6580   25.8900   33.7640 N   0  0  0  0  0  0  0  0  0  0  0  0
   37.7620   27.2050   34.3810 C   0  0  0  0  0  0  0  0  0  0  0  0
   38.5320   27.2990   35.6160 C   0  0  0  0  0  0  0  0  0  0  0  0
   38.5050   26.0800   36.4970 C   0  0  0  0  0  0  0  0  0  0  0  0
   38.0210   24.8410   35.8200 C   0  0  0  0  0  0  0  0  0  0  0  0
   38.5110   24.9550   34.3620 C   0  0  2  0  0  0  0  0  0  0  0  0
   36.1510   26.6900   31.9730 C   0  0  0  0  0  0  0  0  0  0  0  0
   36.7750   25.6710   32.6960 C   0  0  0  0  0  0  0  0  0  0  0  0
   36.5050   24.3810   32.3220 C   0  0  0  0  0  0  0  0  0  0  0  0
   35.6670   24.1150   31.2940 N   0  0  0  0  0  0  0  0  0  0  0  0
   35.0770   25.1420   30.6130 C   0  0  0  0  0  0  0  0  0  0  0  0
   35.3270   26.4250   30.9610 N   0  0  0  0  0  0  0  0  0  0  0  0
   39.9320   25.1820   34.2750 N   0  0  0  0  0  0  0  0  0  0  0  0
   40.9060   25.0290   35.1860 C   0  0  0  0  0  0  0  0  0  0  0  0
   42.0740   25.3890   34.5980 C   0  0  0  0  0  0  0  0  0  0  0  0
   41.7910   25.7520   33.3440 N   0  0  0  0  0  0  0  0  0  0  0  0
   40.4680   25.6270   33.1360 C   0  0  0  0  0  0  0  0  0  0  0  0
   40.1560   26.0060   31.7630 C   0  0  0  0  0  0  0  0  0  0  0  0
   40.0820   27.3670   31.4370 C   0  0  0  0  0  0  0  0  0  0  0  0
   39.7900   27.9090   30.2190 C   0  0  0  0  0  0  0  0  0  0  0  0
   39.5480   27.0100   29.2230 C   0  0  0  0  0  0  0  0  0  0  0  0
   39.5960   25.6500   29.4400 C   0  0  0  0  0  0  0  0  0  0  0  0
   39.8970   25.1700   30.6970 C   0  0  0  0  0  0  0  0  0  0  0  0
   38.2279   27.8795   33.6476 H   0  0  0  0  0  0  0  0  0  0  0  0
   36.7327   27.4685   34.6659 H   0  0  0  0  0  0  0  0  0  0  0  0
   39.5798   27.4978   35.3465 H   0  0  0  0  0  0  0  0  0  0  0  0
   38.0614   28.1023   36.2018 H   0  0  0  0  0  0  0  0  0  0  0  0
   39.5264   25.8963   36.8616 H   0  0  0  0  0  0  0  0  0  0  0  0
   37.7926   26.2939   37.3074 H   0  0  0  0  0  0  0  0  0  0  0  0
   38.4469   23.9480   36.3007 H   0  0  0  0  0  0  0  0  0  0  0  0
   36.9269   24.7430   35.8781 H   0  0  0  0  0  0  0  0  0  0  0  0
   38.4379   24.0176   33.7910 H   0  0  0  0  0  0  0  0  0  0  0  0
   36.3450   27.7377   32.2463 H   0  0  0  0  0  0  0  0  0  0  0  0
   36.9767   23.5492   32.8657 H   0  0  0  0  0  0  0  0  0  0  0  0
   34.3953   24.9244   29.7776 H   0  0  0  0  0  0  0  0  0  0  0  0
   40.7799   24.6762   36.2202 H   0  0  0  0  0  0  0  0  0  0  0  0
   43.0692   25.3831   35.0666 H   0  0  0  0  0  0  0  0  0  0  0  0
   40.2813   28.0770   32.2532 H   0  0  0  0  0  0  0  0  0  0  0  0
   39.7525   28.9957   30.0525 H   0  0  0  0  0  0  0  0  0  0  0  0
   39.3072   27.3814   28.2160 H   0  0  0  0  0  0  0  0  0  0  0  0
   39.3952   24.9510   28.6147 H   0  0  0  0  0  0  0  0  0  0  0  0
   39.9318   24.0820   30.8552 H   0  0  0  0  0  0  0  0  0  0  0  0
  1  6  1  0
  1  2  1  0
  2  3  1  0
  3  4  1  0
  5  4  1  0
  6  5  1  0
  7  8  2  0
  8  1  1  0
  9  8  1  0
 10  9  2  0
 11 12  2  0
 11 10  1  0
 12  7  1  0
 13  6  1  0
 13 14  1  0
 15 14  2  0
 16 15  1  0
 17 16  2  0
 17 13  1  0
 18 17  1  0
 19 18  2  0
 20 19  1  0
 21 22  1  0
 21 20  2  0
 22 23  2  0
 23 18  1  0
  2 24  1  0
  2 25  1  0
  3 26  1  0
  3 27  1  0
  4 28  1  0
  4 29  1  0
  5 30  1  0
  5 31  1  0
  6 32  1  6
  7 33  1  0
  9 34  1  0
 11 35  1  0
 14 36  1  0
 15 37  1  0
 19 38  1  0
 20 39  1  0
 21 40  1  0
 22 41  1  0
 23 42  1  0
M  ISO  8  24  13  25  13  26  13  27  13  28  13  29  13  30  13  31  13
M  ISO  8  32  13  33  14  34  14  35  14  36  14  37  14  38  14  39  14
M  ISO  3  40  14  41  14  42  14
M  END
>  <minimizedAffinity>  (1) 
-4.51452065

>  <minimizedRMSD>  (1) 
1.46158516

$$$$
