
     RDKit          3D

 39 42  0  0  1  0  0  0  0  0999 V2000
   37.7090   25.5160   33.5940 N   0  0  0  0  0  0  0  0  0  0  0  0
   37.1760   26.8170   33.9110 C   0  0  0  0  0  0  0  0  0  0  0  0
   37.8260   27.5470   34.9900 C   0  0  0  0  0  0  0  0  0  0  0  0
   38.4570   26.7220   36.0780 C   0  0  0  0  0  0  0  0  0  0  0  0
   38.6250   25.2940   35.7180 C   0  0  0  0  0  0  0  0  0  0  0  0
   38.9520   25.2780   34.1930 C   0  0  2  0  0  0  0  0  0  0  0  0
   36.0510   25.0690   31.8170 C   0  0  0  0  0  0  0  0  0  0  0  0
   37.0030   24.6390   32.7580 C   0  0  0  0  0  0  0  0  0  0  0  0
   37.2850   23.2900   32.8150 C   0  0  0  0  0  0  0  0  0  0  0  0
   36.6390   22.4260   31.9670 N   0  0  0  0  0  0  0  0  0  0  0  0
   35.7210   22.8910   31.0670 C   0  0  0  0  0  0  0  0  0  0  0  0
   35.4340   24.2200   31.0030 N   0  0  0  0  0  0  0  0  0  0  0  0
   40.0570   26.1040   33.8490 N   0  0  0  0  0  0  0  0  0  0  0  0
   41.1330   26.4930   34.5860 C   0  0  0  0  0  0  0  0  0  0  0  0
   41.8600   27.3350   33.8170 C   0  0  0  0  0  0  0  0  0  0  0  0
   41.2370   27.4490   32.6500 N   0  0  0  0  0  0  0  0  0  0  0  0
   40.1210   26.6740   32.6780 C   0  0  0  0  0  0  0  0  0  0  0  0
   39.6990   26.9730   31.3710 C   0  0  0  0  0  0  0  0  0  0  0  0
   39.7980   25.8200   30.5550 C   0  0  0  0  0  0  0  0  0  0  0  0
   39.6480   26.0270   29.2160 N   0  0  0  0  0  0  0  0  0  0  0  0
   39.4390   27.3700   29.0800 C   0  0  0  0  0  0  0  0  0  0  0  0
   39.4930   27.7650   30.3470 N   0  0  0  0  0  0  0  0  0  0  0  0
   37.2436   27.4346   33.0033 H   0  0  0  0  0  0  0  0  0  0  0  0
   36.1517   26.6301   34.2658 H   0  0  0  0  0  0  0  0  0  0  0  0
   38.6152   28.1697   34.5434 H   0  0  0  0  0  0  0  0  0  0  0  0
   37.0211   28.1110   35.4841 H   0  0  0  0  0  0  0  0  0  0  0  0
   39.4481   27.1428   36.3031 H   0  0  0  0  0  0  0  0  0  0  0  0
   37.7803   26.7588   36.9444 H   0  0  0  0  0  0  0  0  0  0  0  0
   39.4509   24.8485   36.2919 H   0  0  0  0  0  0  0  0  0  0  0  0
   37.7214   24.7093   35.9453 H   0  0  0  0  0  0  0  0  0  0  0  0
   39.3517   24.3280   33.8086 H   0  0  0  0  0  0  0  0  0  0  0  0
   35.8100   26.1404   31.7530 H   0  0  0  0  0  0  0  0  0  0  0  0
   38.0233   22.9091   33.5359 H   0  0  0  0  0  0  0  0  0  0  0  0
   35.2119   22.1879   30.3914 H   0  0  0  0  0  0  0  0  0  0  0  0
   41.3674   26.1810   35.6144 H   0  0  0  0  0  0  0  0  0  0  0  0
   42.7966   27.8344   34.1057 H   0  0  0  0  0  0  0  0  0  0  0  0
   39.9842   24.8205   30.9750 H   0  0  0  0  0  0  0  0  0  0  0  0
   39.2715   27.9631   28.1689 H   0  0  0  0  0  0  0  0  0  0  0  0
   39.3633   28.7686   30.5392 H   0  0  0  0  0  0  0  0  0  0  0  0
  1  2  1  0
  1  6  1  0
  2  3  1  0
  3  4  1  0
  5  4  1  0
  6  5  1  0
  7  8  2  0
  8  9  1  0
  8  1  1  0
 10  9  2  0
 11 10  1  0
 12 11  2  0
 12  7  1  0
 13  6  1  0
 13 14  1  0
 15 14  2  0
 16 17  2  0
 16 15  1  0
 17 13  1  0
 18 17  1  0
 19 18  2  0
 20 19  1  0
 21 20  2  0
 21 22  1  0
 22 18  1  0
  2 23  1  0
  2 24  1  0
  3 25  1  0
  3 26  1  0
  4 27  1  0
  4 28  1  0
  5 29  1  0
  5 30  1  0
  6 31  1  6
  7 32  1  0
  9 33  1  0
 11 34  1  0
 14 35  1  0
 15 36  1  0
 19 37  1  0
 21 38  1  0
 22 39  1  0
M  ISO  8  23  13  24  13  25  13  26  13  27  13  28  13  29  13  30  13
M  ISO  8  31  13  32  14  33  14  34  14  35  14  36  14  37  14  38  14
M  ISO  1  39   9
M  END
>  <minimizedAffinity>  (1) 
-4.50105619

>  <minimizedRMSD>  (1) 
0.215681806

$$$$
