
     RDKit          3D

 37 40  0  0  1  0  0  0  0  0999 V2000
   37.5590   26.0490   33.6040 N   0  0  0  0  0  0  0  0  0  0  0  0
   37.2590   27.3010   34.2550 C   0  0  0  0  0  0  0  0  0  0  0  0
   38.0330   27.6370   35.4580 C   0  0  0  0  0  0  0  0  0  0  0  0
   38.4670   26.4600   36.2860 C   0  0  0  0  0  0  0  0  0  0  0  0
   38.3790   25.1460   35.5970 C   0  0  0  0  0  0  0  0  0  0  0  0
   38.7080   25.4330   34.1180 C   0  0  2  0  0  0  0  0  0  0  0  0
   35.8980   26.3670   31.7990 C   0  0  0  0  0  0  0  0  0  0  0  0
   36.7280   25.5720   32.5740 C   0  0  0  0  0  0  0  0  0  0  0  0
   36.7350   24.2110   32.3070 C   0  0  0  0  0  0  0  0  0  0  0  0
   35.9520   23.7070   31.3230 N   0  0  0  0  0  0  0  0  0  0  0  0
   35.1510   24.5270   30.5860 C   0  0  0  0  0  0  0  0  0  0  0  0
   35.1320   25.8570   30.8340 N   0  0  0  0  0  0  0  0  0  0  0  0
   39.9530   26.1220   33.9540 N   0  0  0  0  0  0  0  0  0  0  0  0
   40.9840   26.3040   34.8030 C   0  0  0  0  0  0  0  0  0  0  0  0
   41.9300   27.0350   34.1680 C   0  0  0  0  0  0  0  0  0  0  0  0
   41.4720   27.2920   32.9370 N   0  0  0  0  0  0  0  0  0  0  0  0
   40.2580   26.7300   32.8090 C   0  0  0  0  0  0  0  0  0  0  0  0
   39.6810   26.9470   31.4890 C   0  0  0  0  0  0  0  0  0  0  0  0
   39.0270   27.8890   30.7910 N   0  0  0  0  0  0  0  0  0  0  0  0
   38.7740   27.4650   29.5900 O   0  0  0  0  0  0  0  0  0  0  0  0
   39.2460   26.2510   29.4590 C   0  0  0  0  0  0  0  0  0  0  0  0
   39.8170   25.8990   30.6250 N   0  0  0  0  0  0  0  0  0  0  0  0
   37.4244   28.1032   33.5208 H   0  0  0  0  0  0  0  0  0  0  0  0
   36.2220   27.1954   34.6065 H   0  0  0  0  0  0  0  0  0  0  0  0
   38.9345   28.1823   35.1420 H   0  0  0  0  0  0  0  0  0  0  0  0
   37.3634   28.2311   36.0972 H   0  0  0  0  0  0  0  0  0  0  0  0
   39.5133   26.6197   36.5856 H   0  0  0  0  0  0  0  0  0  0  0  0
   37.7739   26.4092   37.1387 H   0  0  0  0  0  0  0  0  0  0  0  0
   39.1067   24.4394   36.0225 H   0  0  0  0  0  0  0  0  0  0  0  0
   37.3844   24.6905   35.7127 H   0  0  0  0  0  0  0  0  0  0  0  0
   38.9104   24.5267   33.5284 H   0  0  0  0  0  0  0  0  0  0  0  0
   35.8704   27.4507   31.9856 H   0  0  0  0  0  0  0  0  0  0  0  0
   37.3776   23.5395   32.8954 H   0  0  0  0  0  0  0  0  0  0  0  0
   34.5195   24.1074   29.7890 H   0  0  0  0  0  0  0  0  0  0  0  0
   41.0459   25.9242   35.8335 H   0  0  0  0  0  0  0  0  0  0  0  0
   42.8951   27.3576   34.5858 H   0  0  0  0  0  0  0  0  0  0  0  0
   39.1862   25.6281   28.5543 H   0  0  0  0  0  0  0  0  0  0  0  0
  1  6  1  0
  1  2  1  0
  2  3  1  0
  3  4  1  0
  5  4  1  0
  6  5  1  0
  7  8  2  0
  8  1  1  0
  9  8  1  0
 10  9  2  0
 11 12  2  0
 11 10  1  0
 12  7  1  0
 13  6  1  0
 13 14  1  0
 15 14  2  0
 16 15  1  0
 17 16  2  0
 17 13  1  0
 18 17  1  0
 19 18  2  0
 20 19  1  0
 21 20  1  0
 21 22  2  0
 22 18  1  0
  2 23  1  0
  2 24  1  0
  3 25  1  0
  3 26  1  0
  4 27  1  0
  4 28  1  0
  5 29  1  0
  5 30  1  0
  6 31  1  6
  7 32  1  0
  9 33  1  0
 11 34  1  0
 14 35  1  0
 15 36  1  0
 21 37  1  0
M  ISO  8  23  13  24  13  25  13  26  13  27  13  28  13  29  13  30  13
M  ISO  7  31  13  32  14  33  14  34  14  35  14  36  14  37  14
M  END
>  <minimizedAffinity>  (1) 
-4.40737295

>  <minimizedRMSD>  (1) 
0.957180142

$$$$
