
     RDKit          3D

 33 35  0  0  1  0  0  0  0  0999 V2000
   37.7310   25.4730   33.5550 N   0  0  0  0  0  0  0  0  0  0  0  0
   37.1920   26.8040   33.8360 C   0  0  0  0  0  0  0  0  0  0  0  0
   37.8460   27.5590   34.8970 C   0  0  0  0  0  0  0  0  0  0  0  0
   38.4600   26.7760   36.0060 C   0  0  0  0  0  0  0  0  0  0  0  0
   38.6140   25.3090   35.7030 C   0  0  0  0  0  0  0  0  0  0  0  0
   38.9450   25.2410   34.2150 C   0  0  2  0  0  0  0  0  0  0  0  0
   36.0540   24.9900   31.7830 C   0  0  0  0  0  0  0  0  0  0  0  0
   37.0220   24.6000   32.6990 C   0  0  0  0  0  0  0  0  0  0  0  0
   37.3030   23.2630   32.7680 C   0  0  0  0  0  0  0  0  0  0  0  0
   36.6550   22.3770   31.9720 N   0  0  0  0  0  0  0  0  0  0  0  0
   35.7170   22.8060   31.0920 C   0  0  0  0  0  0  0  0  0  0  0  0
   35.4240   24.1150   31.0050 N   0  0  0  0  0  0  0  0  0  0  0  0
   40.0600   26.0800   33.8270 N   0  0  0  0  0  0  0  0  0  0  0  0
   41.0210   26.6320   34.5860 C   0  0  0  0  0  0  0  0  0  0  0  0
   41.8320   27.3280   33.7510 C   0  0  0  0  0  0  0  0  0  0  0  0
   41.3600   27.1920   32.5210 N   0  0  0  0  0  0  0  0  0  0  0  0
   40.2620   26.4210   32.5510 C   0  0  0  0  0  0  0  0  0  0  0  0
   39.6180   26.1580   31.3580 O   0  0  0  0  0  0  0  0  0  0  0  0
   37.2638   27.3958   32.9115 H   0  0  0  0  0  0  0  0  0  0  0  0
   36.1647   26.6335   34.1904 H   0  0  0  0  0  0  0  0  0  0  0  0
   38.6430   28.1593   34.4340 H   0  0  0  0  0  0  0  0  0  0  0  0
   37.0416   28.1412   35.3702 H   0  0  0  0  0  0  0  0  0  0  0  0
   39.4562   27.1932   36.2147 H   0  0  0  0  0  0  0  0  0  0  0  0
   37.7808   26.8551   36.8676 H   0  0  0  0  0  0  0  0  0  0  0  0
   39.4298   24.8753   36.3000 H   0  0  0  0  0  0  0  0  0  0  0  0
   37.7048   24.7406   35.9486 H   0  0  0  0  0  0  0  0  0  0  0  0
   39.3362   24.2561   33.9203 H   0  0  0  0  0  0  0  0  0  0  0  0
   35.8003   26.0570   31.6983 H   0  0  0  0  0  0  0  0  0  0  0  0
   38.0630   22.9027   33.4770 H   0  0  0  0  0  0  0  0  0  0  0  0
   35.1953   22.0822   30.4486 H   0  0  0  0  0  0  0  0  0  0  0  0
   41.1295   26.5376   35.6766 H   0  0  0  0  0  0  0  0  0  0  0  0
   42.7230   27.9030   34.0432 H   0  0  0  0  0  0  0  0  0  0  0  0
   38.8055   25.5925   31.3483 H   0  0  0  0  0  0  0  0  0  0  0  0
  1  2  1  0
  1  6  1  0
  2  3  1  0
  3  4  1  0
  5  4  1  0
  6  5  1  0
  7  8  2  0
  8  9  1  0
  8  1  1  0
 10  9  2  0
 11 10  1  0
 12 11  2  0
 12  7  1  0
 13  6  1  0
 13 14  1  0
 15 14  2  0
 16 17  2  0
 16 15  1  0
 17 13  1  0
 18 17  1  0
  2 19  1  0
  2 20  1  0
  3 21  1  0
  3 22  1  0
  4 23  1  0
  4 24  1  0
  5 25  1  0
  5 26  1  0
  6 27  1  1
  7 28  1  0
  9 29  1  0
 11 30  1  0
 14 31  1  0
 15 32  1  0
 18 33  1  0
M  ISO  8  19  13  20  13  21  13  22  13  23  13  24  13  25  13  26  13
M  ISO  7  27  13  28  14  29  14  30  14  31  14  32  14  33   3
M  END
>  <minimizedAffinity>  (1) 
-4.12101173

>  <minimizedRMSD>  (1) 
0.211110011

$$$$
