
     RDKit          3D

 37 40  0  0  1  0  0  0  0  0999 V2000
   36.8840   22.9870   31.8480 C   0  0  1  0  0  0  0  0  0  0  0  0
   35.8750   23.9060   31.2960 C   0  0  0  0  0  0  0  0  0  0  0  0
   36.2880   25.2780   31.8010 C   0  0  0  0  0  0  0  0  0  0  0  0
   37.4630   25.0740   32.7150 C   0  0  0  0  0  0  0  0  0  0  0  0
   37.2780   23.6260   33.1690 C   0  0  2  0  0  0  0  0  0  0  0  0
   38.5650   23.2040   33.6520 N   0  0  0  0  0  0  0  0  0  0  0  0
   39.7150   22.9370   33.0130 C   0  0  0  0  0  0  0  0  0  0  0  0
   40.6230   22.5760   33.9670 N   0  0  0  0  0  0  0  0  0  0  0  0
   40.0340   22.6200   35.1740 C   0  0  0  0  0  0  0  0  0  0  0  0
   40.5630   22.3390   36.4120 C   0  0  0  0  0  0  0  0  0  0  0  0
   41.7540   21.9780   36.5700 O   0  0  0  0  0  0  0  0  0  0  0  0
   39.7950   22.4480   37.4980 N   0  0  0  0  0  0  0  0  0  0  0  0
   38.5190   22.8360   37.3240 C   0  0  0  0  0  0  0  0  0  0  0  0
   37.5650   23.0030   38.3750 N   0  0  0  0  0  0  0  0  0  0  0  0
   38.0000   23.1120   36.1070 N   0  0  0  0  0  0  0  0  0  0  0  0
   38.7140   23.0240   34.9690 C   0  0  0  0  0  0  0  0  0  0  0  0
   35.4570   20.0190   33.5020 C   0  0  0  0  0  0  0  0  0  0  0  0
   35.4160   19.0620   32.4440 C   0  0  0  0  0  0  0  0  0  0  0  0
   35.8830   19.4460   31.1740 C   0  0  0  0  0  0  0  0  0  0  0  0
   36.3520   20.7100   31.0120 N   0  0  0  0  0  0  0  0  0  0  0  0
   36.3700   21.5880   32.0560 C   0  0  0  0  0  0  0  0  0  0  0  0
   35.9310   21.2630   33.3020 N   0  0  0  0  0  0  0  0  0  0  0  0
   37.7272   22.8605   31.1530 H   0  0  0  0  0  0  0  0  0  0  0  0
   34.8707   23.6443   31.6606 H   0  0  0  0  0  0  0  0  0  0  0  0
   35.8282   23.8627   30.1978 H   0  0  0  0  0  0  0  0  0  0  0  0
   36.5740   25.9213   30.9558 H   0  0  0  0  0  0  0  0  0  0  0  0
   35.4580   25.7673   32.3317 H   0  0  0  0  0  0  0  0  0  0  0  0
   38.4133   25.2039   32.1765 H   0  0  0  0  0  0  0  0  0  0  0  0
   37.5035   25.7935   33.5461 H   0  0  0  0  0  0  0  0  0  0  0  0
   36.5526   23.4025   33.9651 H   0  0  0  0  0  0  0  0  0  0  0  0
   39.8920   22.9974   31.9290 H   0  0  0  0  0  0  0  0  0  0  0  0
   40.1664   22.2422   38.4364 H   0  0  0  0  0  0  0  0  0  0  0  0
   36.6047   23.3042   38.1558 H   0  0  0  0  0  0  0  0  0  0  0  0
   37.8377   22.8222   39.3516 H   0  0  0  0  0  0  0  0  0  0  0  0
   35.0941   19.7345   34.5007 H   0  0  0  0  0  0  0  0  0  0  0  0
   35.0281   18.0474   32.6178 H   0  0  0  0  0  0  0  0  0  0  0  0
   35.8686   18.7388   30.3316 H   0  0  0  0  0  0  0  0  0  0  0  0
  1 21  1  0
  1  5  1  0
  2  3  1  0
  2  1  1  0
  3  4  1  0
  4  5  1  0
  5  6  1  0
  6 16  1  0
  7  6  1  0
  7  8  2  0
  8  9  1  0
  9 10  1  0
 10 11  2  0
 10 12  1  0
 13 12  1  0
 13 14  1  0
 15 13  2  0
 16  9  2  0
 16 15  1  0
 18 17  2  0
 19 18  1  0
 20 19  2  0
 20 21  1  0
 21 22  2  0
 22 17  1  0
  1 23  1  6
  2 24  1  0
  2 25  1  0
  3 26  1  0
  3 27  1  0
  4 28  1  0
  4 29  1  0
  5 30  1  1
  7 31  1  0
 12 32  1  0
 14 33  1  0
 14 34  1  0
 17 35  1  0
 18 36  1  0
 19 37  1  0
M  ISO  8  23  13  24  13  25  13  26  13  27  13  28  13  29  13  30  13
M  ISO  5  31  14  32   9  35  14  36  14  37  14
M  END
>  <minimizedAffinity>  (1) 
-5.47395086

>  <minimizedRMSD>  (1) 
4.90238905

$$$$
