
     RDKit          3D

 36 38  0  0  1  0  0  0  0  0999 V2000
   38.2970   25.2190   35.4720 C   0  0  1  0  0  0  0  0  0  0  0  0
   38.2770   26.5390   36.1260 C   0  0  0  0  0  0  0  0  0  0  0  0
   37.7210   27.4720   35.0650 C   0  0  0  0  0  0  0  0  0  0  0  0
   37.7040   26.7060   33.7660 C   0  0  0  0  0  0  0  0  0  0  0  0
   38.6110   25.5210   34.0330 C   0  0  2  0  0  0  0  0  0  0  0  0
   38.3400   24.4950   33.0930 N   0  0  0  0  0  0  0  0  0  0  0  0
   37.2530   23.7340   32.9420 C   0  0  0  0  0  0  0  0  0  0  0  0
   37.0810   22.7650   32.0020 C   0  0  0  0  0  0  0  0  0  0  0  0
   35.8290   21.9710   31.9170 C   0  0  0  0  0  0  0  0  0  0  0  0
   38.1100   22.5350   31.1170 C   0  0  0  0  0  0  0  0  0  0  0  0
   38.0040   21.6470   30.2230 O   0  0  0  0  0  0  0  0  0  0  0  0
   39.2110   23.2960   31.2590 N   0  0  0  0  0  0  0  0  0  0  0  0
   39.3460   24.2460   32.2010 C   0  0  0  0  0  0  0  0  0  0  0  0
   40.4700   24.8500   32.1610 O   0  0  0  0  0  0  0  0  0  0  0  0
   39.8310   22.6650   37.6420 C   0  0  0  0  0  0  0  0  0  0  0  0
   41.1560   22.5660   37.1130 C   0  0  0  0  0  0  0  0  0  0  0  0
   41.5220   23.3750   36.0210 C   0  0  0  0  0  0  0  0  0  0  0  0
   40.5710   24.2180   35.5300 N   0  0  0  0  0  0  0  0  0  0  0  0
   39.3170   24.2840   36.0620 C   0  0  0  0  0  0  0  0  0  0  0  0
   38.9630   23.5090   37.1090 N   0  0  0  0  0  0  0  0  0  0  0  0
   37.3379   24.6971   35.6048 H   0  0  0  0  0  0  0  0  0  0  0  0
   37.6265   26.5251   37.0129 H   0  0  0  0  0  0  0  0  0  0  0  0
   39.2712   26.8488   36.4803 H   0  0  0  0  0  0  0  0  0  0  0  0
   36.7005   27.7829   35.3331 H   0  0  0  0  0  0  0  0  0  0  0  0
   38.3389   28.3778   34.9774 H   0  0  0  0  0  0  0  0  0  0  0  0
   38.0957   27.3217   32.9429 H   0  0  0  0  0  0  0  0  0  0  0  0
   36.6902   26.4058   33.4624 H   0  0  0  0  0  0  0  0  0  0  0  0
   39.6925   25.6758   33.9053 H   0  0  0  0  0  0  0  0  0  0  0  0
   36.4211   23.9060   33.6409 H   0  0  0  0  0  0  0  0  0  0  0  0
   35.4697   21.7432   32.9314 H   0  0  0  0  0  0  0  0  0  0  0  0
   35.0639   22.5493   31.3783 H   0  0  0  0  0  0  0  0  0  0  0  0
   36.0259   21.0324   31.3783 H   0  0  0  0  0  0  0  0  0  0  0  0
   39.9950   23.1419   30.6090 H   0  0  0  0  0  0  0  0  0  0  0  0
   39.5327   22.0374   38.4947 H   0  0  0  0  0  0  0  0  0  0  0  0
   41.8805   21.8658   37.5544 H   0  0  0  0  0  0  0  0  0  0  0  0
   42.5303   23.3287   35.5837 H   0  0  0  0  0  0  0  0  0  0  0  0
  1 19  1  0
  1  2  1  0
  3  2  1  0
  4  5  1  0
  4  3  1  0
  5  1  1  0
  6  5  1  0
  7  6  1  0
  8  7  2  0
  9  8  1  0
 10 12  1  0
 10  8  1  0
 11 10  2  0
 12 13  1  0
 13  6  1  0
 14 13  2  0
 16 15  2  0
 17 16  1  0
 18 17  2  0
 18 19  1  0
 19 20  2  0
 20 15  1  0
  1 21  1  6
  2 22  1  0
  2 23  1  0
  3 24  1  0
  3 25  1  0
  4 26  1  0
  4 27  1  0
  5 28  1  1
  7 29  1  0
  9 30  1  0
  9 31  1  0
  9 32  1  0
 12 33  1  0
 15 34  1  0
 16 35  1  0
 17 36  1  0
M  ISO  8  21  13  22  13  23  13  24  13  25  13  26  13  27  13  28  13
M  ISO  8  29  14  30   8  31   8  32   8  33   9  34  14  35  14  36  14
M  END
>  <minimizedAffinity>  (1) 
-4.55759192

>  <minimizedRMSD>  (1) 
4.44272614

$$$$
