
     RDKit          3D

 33 35  0  0  1  0  0  0  0  0999 V2000
   38.9110   23.3650   34.3190 C   0  0  1  0  0  0  0  0  0  0  0  0
   37.6620   22.8810   33.7140 C   0  0  0  0  0  0  0  0  0  0  0  0
   37.6200   23.5520   32.3540 C   0  0  0  0  0  0  0  0  0  0  0  0
   38.7050   24.5920   32.3320 C   0  0  0  0  0  0  0  0  0  0  0  0
   39.0390   24.7940   33.8080 C   0  0  2  0  0  0  0  0  0  0  0  0
   39.9300   22.7430   37.8100 C   0  0  0  0  0  0  0  0  0  0  0  0
   38.8670   23.3470   38.5500 C   0  0  0  0  0  0  0  0  0  0  0  0
   37.8060   23.9590   37.8550 C   0  0  0  0  0  0  0  0  0  0  0  0
   37.8690   23.9330   36.4940 N   0  0  0  0  0  0  0  0  0  0  0  0
   38.8980   23.3480   35.8220 C   0  0  0  0  0  0  0  0  0  0  0  0
   39.9140   22.7620   36.4860 N   0  0  0  0  0  0  0  0  0  0  0  0
   40.3780   25.3040   33.9150 N   0  0  0  0  0  0  0  0  0  0  0  0
   41.3490   24.6780   33.2390 C   0  0  0  0  0  0  0  0  0  0  0  0
   42.6500   25.1450   33.3210 C   0  0  0  0  0  0  0  0  0  0  0  0
   42.8280   26.2600   34.1290 C   0  0  0  0  0  0  0  0  0  0  0  0
   43.9670   26.7560   34.2660 O   0  0  0  0  0  0  0  0  0  0  0  0
   41.8370   26.8480   34.7800 N   0  0  0  0  0  0  0  0  0  0  0  0
   40.5670   26.3690   34.6810 C   0  0  0  0  0  0  0  0  0  0  0  0
   39.6350   26.9370   35.3070 O   0  0  0  0  0  0  0  0  0  0  0  0
   39.7541   22.7143   34.0438 H   0  0  0  0  0  0  0  0  0  0  0  0
   37.6789   21.7862   33.6081 H   0  0  0  0  0  0  0  0  0  0  0  0
   36.7792   23.1167   34.3265 H   0  0  0  0  0  0  0  0  0  0  0  0
   37.7957   22.8086   31.5624 H   0  0  0  0  0  0  0  0  0  0  0  0
   36.6367   24.0129   32.1786 H   0  0  0  0  0  0  0  0  0  0  0  0
   39.5833   24.2315   31.7764 H   0  0  0  0  0  0  0  0  0  0  0  0
   38.3954   25.5220   31.8328 H   0  0  0  0  0  0  0  0  0  0  0  0
   38.4119   25.5073   34.3630 H   0  0  0  0  0  0  0  0  0  0  0  0
   40.7637   22.2610   38.3416 H   0  0  0  0  0  0  0  0  0  0  0  0
   38.8774   23.3340   39.6499 H   0  0  0  0  0  0  0  0  0  0  0  0
   36.9675   24.4347   38.3848 H   0  0  0  0  0  0  0  0  0  0  0  0
   41.1149   23.7979   32.6221 H   0  0  0  0  0  0  0  0  0  0  0  0
   43.4828   24.6669   32.7845 H   0  0  0  0  0  0  0  0  0  0  0  0
   42.0282   27.6736   35.3654 H   0  0  0  0  0  0  0  0  0  0  0  0
  1 10  1  0
  2  1  1  0
  3  2  1  0
  4  3  1  0
  4  5  1  0
  5 12  1  0
  5  1  1  0
  6  7  2  0
  8  7  1  0
  9  8  2  0
 10 11  2  0
 10  9  1  0
 11  6  1  0
 12 18  1  0
 13 14  2  0
 13 12  1  0
 14 15  1  0
 15 16  2  0
 15 17  1  0
 18 17  1  0
 18 19  2  0
  1 20  1  6
  2 21  1  0
  2 22  1  0
  3 23  1  0
  3 24  1  0
  4 25  1  0
  4 26  1  0
  5 27  1  1
  6 28  1  0
  7 29  1  0
  8 30  1  0
 13 31  1  0
 14 32  1  0
 17 33  1  0
M  ISO  8  20  13  21  13  22  13  23  13  24  13  25  13  26  13  27  13
M  ISO  6  28  14  29  14  30  14  31  14  32  14  33   9
M  END
>  <minimizedAffinity>  (1) 
-4.53431177

>  <minimizedRMSD>  (1) 
2.03770113

$$$$
