
     RDKit          3D

 30 32  0  0  1  0  0  0  0  0999 V2000
   38.5620   25.2810   34.9050 C   0  0  1  0  0  0  0  0  0  0  0  0
   37.4040   26.1820   34.8130 C   0  0  0  0  0  0  0  0  0  0  0  0
   37.8340   27.2640   33.8390 C   0  0  0  0  0  0  0  0  0  0  0  0
   39.2690   27.0040   33.4950 C   0  0  0  0  0  0  0  0  0  0  0  0
   39.7560   26.2050   34.6990 C   0  0  2  0  0  0  0  0  0  0  0  0
   39.5760   22.8120   37.4450 C   0  0  0  0  0  0  0  0  0  0  0  0
   38.8720   23.2580   38.6070 C   0  0  0  0  0  0  0  0  0  0  0  0
   38.0510   24.3980   38.5090 C   0  0  0  0  0  0  0  0  0  0  0  0
   37.9790   25.0150   37.2970 N   0  0  0  0  0  0  0  0  0  0  0  0
   38.6660   24.5560   36.2150 C   0  0  0  0  0  0  0  0  0  0  0  0
   39.4570   23.4630   36.2930 N   0  0  0  0  0  0  0  0  0  0  0  0
   40.9700   25.4890   34.4020 N   0  0  0  0  0  0  0  0  0  0  0  0
   41.0640   24.6860   33.3490 C   0  0  0  0  0  0  0  0  0  0  0  0
   42.3250   24.1300   33.3000 C   0  0  0  0  0  0  0  0  0  0  0  0
   42.9990   24.6310   34.3730 N   0  0  0  0  0  0  0  0  0  0  0  0
   42.1440   25.4640   35.0340 C   0  0  0  0  0  0  0  0  0  0  0  0
   38.4904   24.4720   34.1632 H   0  0  0  0  0  0  0  0  0  0  0  0
   36.5235   25.6443   34.4315 H   0  0  0  0  0  0  0  0  0  0  0  0
   37.1179   26.5933   35.7923 H   0  0  0  0  0  0  0  0  0  0  0  0
   37.2148   27.2215   32.9308 H   0  0  0  0  0  0  0  0  0  0  0  0
   37.7136   28.2621   34.2853 H   0  0  0  0  0  0  0  0  0  0  0  0
   39.3560   26.4187   32.5677 H   0  0  0  0  0  0  0  0  0  0  0  0
   39.8496   27.9202   33.3121 H   0  0  0  0  0  0  0  0  0  0  0  0
   40.0235   26.8010   35.5840 H   0  0  0  0  0  0  0  0  0  0  0  0
   40.2211   21.9230   37.5054 H   0  0  0  0  0  0  0  0  0  0  0  0
   38.9701   22.7197   39.5613 H   0  0  0  0  0  0  0  0  0  0  0  0
   37.4902   24.7751   39.3769 H   0  0  0  0  0  0  0  0  0  0  0  0
   40.2582   24.4934   32.6254 H   0  0  0  0  0  0  0  0  0  0  0  0
   42.7088   23.4253   32.5476 H   0  0  0  0  0  0  0  0  0  0  0  0
   42.3858   26.0278   35.9471 H   0  0  0  0  0  0  0  0  0  0  0  0
  1 10  1  0
  2  1  1  0
  3  2  1  0
  4  3  1  0
  4  5  1  0
  5  1  1  0
  6  7  2  0
  8  7  1  0
  9  8  2  0
 10 11  2  0
 10  9  1  0
 11  6  1  0
 12  5  1  0
 12 16  1  0
 13 12  1  0
 14 13  2  0
 14 15  1  0
 15 16  2  0
  1 17  1  6
  2 18  1  0
  2 19  1  0
  3 20  1  0
  3 21  1  0
  4 22  1  0
  4 23  1  0
  5 24  1  1
  6 25  1  0
  7 26  1  0
  8 27  1  0
 13 28  1  0
 14 29  1  0
 16 30  1  0
M  ISO  8  17  13  18  13  19  13  20  13  21  13  22  13  23  13  24  13
M  ISO  6  25  14  26  14  27  14  28  14  29  14  30  14
M  END
>  <minimizedAffinity>  (1) 
-3.97064281

>  <minimizedRMSD>  (1) 
0.586947143

$$$$
