
     RDKit          3D

 32 33  0  0  1  0  0  0  0  0999 V2000
   38.4900   25.3330   34.8240 C   0  0  1  0  0  0  0  0  0  0  0  0
   37.2370   26.0990   34.7140 C   0  0  0  0  0  0  0  0  0  0  0  0
   37.5790   27.2700   33.8050 C   0  0  0  0  0  0  0  0  0  0  0  0
   39.0590   27.1510   33.4890 C   0  0  0  0  0  0  0  0  0  0  0  0
   39.5780   26.3850   34.6860 C   0  0  2  0  0  0  0  0  0  0  0  0
   39.5620   22.8410   37.3270 C   0  0  0  0  0  0  0  0  0  0  0  0
   38.8830   23.2800   38.5050 C   0  0  0  0  0  0  0  0  0  0  0  0
   38.0600   24.4200   38.4400 C   0  0  0  0  0  0  0  0  0  0  0  0
   37.9710   25.0360   37.2300 N   0  0  0  0  0  0  0  0  0  0  0  0
   38.6270   24.5960   36.1310 C   0  0  0  0  0  0  0  0  0  0  0  0
   39.4150   23.5060   36.1850 N   0  0  0  0  0  0  0  0  0  0  0  0
   40.9230   25.7890   34.4540 C   0  0  0  0  0  0  0  0  0  0  0  0
   40.9910   24.8430   33.2800 C   0  0  0  0  0  0  0  0  0  0  0  0
   42.0000   26.8300   34.2450 C   0  0  0  0  0  0  0  0  0  0  0  0
   38.5379   24.5444   34.0586 H   0  0  0  0  0  0  0  0  0  0  0  0
   36.4427   25.4816   34.2691 H   0  0  0  0  0  0  0  0  0  0  0  0
   36.8631   26.4286   35.6946 H   0  0  0  0  0  0  0  0  0  0  0  0
   36.9872   27.2181   32.8792 H   0  0  0  0  0  0  0  0  0  0  0  0
   37.3514   28.2306   34.2903 H   0  0  0  0  0  0  0  0  0  0  0  0
   39.2244   26.5930   32.5556 H   0  0  0  0  0  0  0  0  0  0  0  0
   39.5575   28.1191   33.3329 H   0  0  0  0  0  0  0  0  0  0  0  0
   39.7414   26.9995   35.5836 H   0  0  0  0  0  0  0  0  0  0  0  0
   40.2076   21.9512   37.3649 H   0  0  0  0  0  0  0  0  0  0  0  0
   39.0021   22.7332   39.4520 H   0  0  0  0  0  0  0  0  0  0  0  0
   37.5173   24.7933   39.3210 H   0  0  0  0  0  0  0  0  0  0  0  0
   41.1011   25.2256   35.3818 H   0  0  0  0  0  0  0  0  0  0  0  0
   41.0654   23.8085   33.6465 H   0  0  0  0  0  0  0  0  0  0  0  0
   40.0828   24.9511   32.6689 H   0  0  0  0  0  0  0  0  0  0  0  0
   41.8744   25.0799   32.6689 H   0  0  0  0  0  0  0  0  0  0  0  0
   42.3642   27.1820   35.2215 H   0  0  0  0  0  0  0  0  0  0  0  0
   42.8338   26.3868   33.6808 H   0  0  0  0  0  0  0  0  0  0  0  0
   41.5854   27.6784   33.6808 H   0  0  0  0  0  0  0  0  0  0  0  0
  1 10  1  0
  2  1  1  0
  3  2  1  0
  4  3  1  0
  4  5  1  0
  5  1  1  0
  6  7  2  0
  8  7  1  0
  9  8  2  0
 10 11  2  0
 10  9  1  0
 11  6  1  0
 12  5  1  0
 13 12  1  0
 14 12  1  0
  1 15  1  6
  2 16  1  0
  2 17  1  0
  3 18  1  0
  3 19  1  0
  4 20  1  0
  4 21  1  0
  5 22  1  1
  6 23  1  0
  7 24  1  0
  8 25  1  0
 12 26  1  0
 13 27  1  0
 13 28  1  0
 13 29  1  0
 14 30  1  0
 14 31  1  0
 14 32  1  0
M  ISO  8  15  13  16  13  17  13  18  13  19  13  20  13  21  13  22  13
M  ISO  8  23  14  24  14  25  14  26   8  27   8  28   8  29   8  30   8
M  ISO  2  31   8  32   8
M  END
>  <minimizedAffinity>  (1) 
-3.95187306

>  <minimizedRMSD>  (1) 
0.469750464

$$$$
