
     RDKit          3D

 26 27  0  0  1  0  0  0  0  0999 V2000
   38.9230   25.2330   34.7120 C   0  0  1  0  0  0  0  0  0  0  0  0
   37.5980   25.6410   34.2160 C   0  0  0  0  0  0  0  0  0  0  0  0
   37.8900   26.8190   33.3050 C   0  0  0  0  0  0  0  0  0  0  0  0
   39.3300   27.2050   33.5230 C   0  0  0  0  0  0  0  0  0  0  0  0
   39.6920   26.5390   34.8240 C   0  0  2  0  0  0  0  0  0  0  0  0
   39.6470   22.8280   37.4150 C   0  0  0  0  0  0  0  0  0  0  0  0
   38.7860   23.2790   38.4630 C   0  0  0  0  0  0  0  0  0  0  0  0
   37.9610   24.4000   38.2390 C   0  0  0  0  0  0  0  0  0  0  0  0
   38.0520   24.9770   37.0140 N   0  0  0  0  0  0  0  0  0  0  0  0
   38.8700   24.5320   36.0450 C   0  0  0  0  0  0  0  0  0  0  0  0
   39.6630   23.4610   36.2480 N   0  0  0  0  0  0  0  0  0  0  0  0
   41.1620   26.1880   34.7750 C   0  0  0  0  0  0  0  0  0  0  0  0
   39.3901   24.5021   34.0355 H   0  0  0  0  0  0  0  0  0  0  0  0
   37.1219   24.8228   33.6557 H   0  0  0  0  0  0  0  0  0  0  0  0
   36.9038   25.8985   35.0295 H   0  0  0  0  0  0  0  0  0  0  0  0
   37.2313   27.6630   33.5575 H   0  0  0  0  0  0  0  0  0  0  0  0
   37.7124   26.5521   32.2527 H   0  0  0  0  0  0  0  0  0  0  0  0
   39.9629   26.8331   32.7038 H   0  0  0  0  0  0  0  0  0  0  0  0
   39.4771   28.2948   33.5497 H   0  0  0  0  0  0  0  0  0  0  0  0
   39.4832   27.1396   35.7216 H   0  0  0  0  0  0  0  0  0  0  0  0
   40.2972   21.9554   37.5755 H   0  0  0  0  0  0  0  0  0  0  0  0
   38.7674   22.7582   39.4317 H   0  0  0  0  0  0  0  0  0  0  0  0
   37.2817   24.7854   39.0136 H   0  0  0  0  0  0  0  0  0  0  0  0
   41.5511   26.0951   35.7997 H   0  0  0  0  0  0  0  0  0  0  0  0
   41.2935   25.2332   34.2448 H   0  0  0  0  0  0  0  0  0  0  0  0
   41.7107   26.9804   34.2448 H   0  0  0  0  0  0  0  0  0  0  0  0
  1  5  1  0
  1 10  1  0
  2  1  1  0
  3  4  1  0
  3  2  1  0
  4  5  1  0
  6  7  2  0
  8  7  1  0
  9  8  2  0
 10 11  2  0
 10  9  1  0
 11  6  1  0
 12  5  1  0
  1 13  1  6
  2 14  1  0
  2 15  1  0
  3 16  1  0
  3 17  1  0
  4 18  1  0
  4 19  1  0
  5 20  1  1
  6 21  1  0
  7 22  1  0
  8 23  1  0
 12 24  1  0
 12 25  1  0
 12 26  1  0
M  ISO  8  13  13  14  13  15  13  16  13  17  13  18  13  19  13  20  13
M  ISO  6  21  14  22  14  23  14  24   8  25   8  26   8
M  END
>  <minimizedAffinity>  (1) 
-3.90242052

>  <minimizedRMSD>  (1) 
0.410858303

$$$$
