
     RDKit          3D

 26 28  0  0  0  0  0  0  0  0999 V2000
   37.0550   21.8850   34.6380 C   0  0  0  0  0  0  0  0  0  0  0  0
   36.2180   20.7920   34.7090 C   0  0  0  0  0  0  0  0  0  0  0  0
   35.4490   20.3290   33.6680 C   0  0  0  0  0  0  0  0  0  0  0  0
   35.4880   20.9680   32.4570 C   0  0  0  0  0  0  0  0  0  0  0  0
   36.3010   22.0630   32.3230 C   0  0  0  0  0  0  0  0  0  0  0  0
   36.3220   22.6910   31.0950 C   0  0  0  0  0  0  0  0  0  0  0  0
   37.1120   23.7910   30.8850 C   0  0  0  0  0  0  0  0  0  0  0  0
   37.8830   24.2410   31.9570 C   0  0  0  0  0  0  0  0  0  0  0  0
   37.8200   23.5750   33.1570 C   0  0  0  0  0  0  0  0  0  0  0  0
   37.0490   22.4830   33.3980 C   0  0  0  0  0  0  0  0  0  0  0  0
   40.0180   22.1730   36.6490 C   0  0  0  0  0  0  0  0  0  0  0  0
   39.7010   22.9460   37.7650 C   0  0  0  0  0  0  0  0  0  0  0  0
   38.3890   23.3910   37.8220 C   0  0  0  0  0  0  0  0  0  0  0  0
   37.5550   23.0540   36.8300 N   0  0  0  0  0  0  0  0  0  0  0  0
   37.8410   22.3250   35.7730 C   0  0  0  0  0  0  0  0  0  0  0  0
   39.1010   21.9030   35.7270 N   0  0  0  0  0  0  0  0  0  0  0  0
   36.1615   20.2524   35.6659 H   0  0  0  0  0  0  0  0  0  0  0  0
   34.8046   19.4484   33.8069 H   0  0  0  0  0  0  0  0  0  0  0  0
   34.8811   20.6106   31.6121 H   0  0  0  0  0  0  0  0  0  0  0  0
   35.6980   22.3048   30.2756 H   0  0  0  0  0  0  0  0  0  0  0  0
   37.1372   24.2990   29.9097 H   0  0  0  0  0  0  0  0  0  0  0  0
   38.5346   25.1199   31.8427 H   0  0  0  0  0  0  0  0  0  0  0  0
   38.4394   23.9539   33.9833 H   0  0  0  0  0  0  0  0  0  0  0  0
   41.0394   21.7822   36.5307 H   0  0  0  0  0  0  0  0  0  0  0  0
   40.4390   23.1858   38.5447 H   0  0  0  0  0  0  0  0  0  0  0  0
   38.0408   24.0075   38.6638 H   0  0  0  0  0  0  0  0  0  0  0  0
  1  2  2  0
  1 15  1  0
  3  2  1  0
  4  3  2  0
  5  4  1  0
  5 10  2  0
  6  5  1  0
  7  6  2  0
  7  8  1  0
  8  9  2  0
  9 10  1  0
 10  1  1  0
 11 12  2  0
 12 13  1  0
 14 13  2  0
 15 14  1  0
 16 15  2  0
 16 11  1  0
  2 17  1  0
  3 18  1  0
  4 19  1  0
  6 20  1  0
  7 21  1  0
  8 22  1  0
  9 23  1  0
 11 24  1  0
 12 25  1  0
 13 26  1  0
M  ISO  8  17  14  18  14  19  14  20  14  21  14  22  14  23  14  24  14
M  ISO  2  25  14  26  14
M  END
>  <minimizedAffinity>  (1) 
-4.68953896

>  <minimizedRMSD>  (1) 
2.61590886

$$$$
