
     RDKit          3D

 36 39  0  0  1  0  0  0  0  0999 V2000
   39.1330   25.2140   34.8320 C   0  0  1  0  0  0  0  0  0  0  0  0
   38.0810   26.1780   34.5530 C   0  0  0  0  0  0  0  0  0  0  0  0
   38.7040   27.1820   33.6050 C   0  0  0  0  0  0  0  0  0  0  0  0
   40.1980   26.9190   33.5910 C   0  0  0  0  0  0  0  0  0  0  0  0
   40.4250   26.0050   34.7590 C   0  0  2  0  0  0  0  0  0  0  0  0
   39.6310   22.7710   37.5370 C   0  0  0  0  0  0  0  0  0  0  0  0
   38.7270   23.2580   38.5510 C   0  0  0  0  0  0  0  0  0  0  0  0
   37.9520   24.4210   38.2970 C   0  0  0  0  0  0  0  0  0  0  0  0
   38.1380   24.9930   37.0790 N   0  0  0  0  0  0  0  0  0  0  0  0
   38.9950   24.5080   36.1500 C   0  0  0  0  0  0  0  0  0  0  0  0
   39.7480   23.3970   36.3670 N   0  0  0  0  0  0  0  0  0  0  0  0
   41.5340   25.0960   34.4360 C   0  0  0  0  0  0  0  0  0  0  0  0
   41.5170   24.2940   33.4980 O   0  0  0  0  0  0  0  0  0  0  0  0
   45.7780   26.9760   35.1510 N   0  0  0  0  0  0  0  0  0  0  0  0
   45.1060   27.6000   34.1780 C   0  0  0  0  0  0  0  0  0  0  0  0
   43.9230   26.9820   34.0680 N   0  0  0  0  0  0  0  0  0  0  0  0
   43.7930   25.9660   34.9410 C   0  0  0  0  0  0  0  0  0  0  0  0
   42.7800   25.0520   35.2050 C   0  0  0  0  0  0  0  0  0  0  0  0
   43.1020   24.1960   36.1920 N   0  0  0  0  0  0  0  0  0  0  0  0
   44.2380   24.1770   36.8690 C   0  0  0  0  0  0  0  0  0  0  0  0
   45.2100   25.0680   36.6020 N   0  0  0  0  0  0  0  0  0  0  0  0
   45.0120   25.9830   35.6340 C   0  0  0  0  0  0  0  0  0  0  0  0
   39.0912   24.3940   34.1000 H   0  0  0  0  0  0  0  0  0  0  0  0
   37.2200   25.6833   34.0798 H   0  0  0  0  0  0  0  0  0  0  0  0
   37.7071   26.6558   35.4706 H   0  0  0  0  0  0  0  0  0  0  0  0
   38.2893   27.0536   32.5943 H   0  0  0  0  0  0  0  0  0  0  0  0
   38.4918   28.2108   33.9313 H   0  0  0  0  0  0  0  0  0  0  0  0
   40.4992   26.4327   32.6514 H   0  0  0  0  0  0  0  0  0  0  0  0
   40.7881   27.8446   33.6611 H   0  0  0  0  0  0  0  0  0  0  0  0
   40.6700   26.5280   35.6952 H   0  0  0  0  0  0  0  0  0  0  0  0
   40.2317   21.8705   37.7329 H   0  0  0  0  0  0  0  0  0  0  0  0
   38.6388   22.7326   39.5133 H   0  0  0  0  0  0  0  0  0  0  0  0
   37.2486   24.8308   39.0368 H   0  0  0  0  0  0  0  0  0  0  0  0
   46.7253   27.2164   35.4763 H   0  0  0  0  0  0  0  0  0  0  0  0
   45.4571   28.4558   33.5827 H   0  0  0  0  0  0  0  0  0  0  0  0
   44.3895   23.4255   37.6579 H   0  0  0  0  0  0  0  0  0  0  0  0
  1 10  1  0
  2  1  1  0
  3  2  1  0
  4  3  1  0
  4  5  1  0
  5  1  1  0
  6  7  2  0
  8  7  1  0
  9  8  2  0
 10 11  2  0
 10  9  1  0
 11  6  1  0
 12  5  1  0
 12 18  1  0
 13 12  2  0
 14 22  1  0
 15 14  1  0
 16 15  2  0
 16 17  1  0
 17 18  1  0
 17 22  2  0
 18 19  2  0
 19 20  1  0
 21 20  2  0
 22 21  1  0
  1 23  1  6
  2 24  1  0
  2 25  1  0
  3 26  1  0
  3 27  1  0
  4 28  1  0
  4 29  1  0
  5 30  1  1
  6 31  1  0
  7 32  1  0
  8 33  1  0
 14 34  1  0
 15 35  1  0
 20 36  1  0
M  ISO  8  23  13  24  13  25  13  26  13  27  13  28  13  29  13  30  13
M  ISO  6  31  14  32  14  33  14  34   9  35  14  36  14
M  END
>  <minimizedAffinity>  (1) 
-5.06661463

>  <minimizedRMSD>  (1) 
3.92842484

$$$$
