
     RDKit          3D

 37 39  0  0  1  0  0  0  0  0999 V2000
   38.7400   25.2640   34.9170 C   0  0  1  0  0  0  0  0  0  0  0  0
   37.5160   26.0030   34.6570 C   0  0  0  0  0  0  0  0  0  0  0  0
   37.9240   27.1400   33.7410 C   0  0  0  0  0  0  0  0  0  0  0  0
   39.4420   27.1650   33.6980 C   0  0  0  0  0  0  0  0  0  0  0  0
   39.8600   26.2800   34.8290 C   0  0  2  0  0  0  0  0  0  0  0  0
   39.6120   22.8380   37.5510 C   0  0  0  0  0  0  0  0  0  0  0  0
   38.7950   23.2810   38.6530 C   0  0  0  0  0  0  0  0  0  0  0  0
   37.9490   24.4090   38.4850 C   0  0  0  0  0  0  0  0  0  0  0  0
   37.9900   24.9850   37.2560 N   0  0  0  0  0  0  0  0  0  0  0  0
   38.7670   24.5440   36.2430 C   0  0  0  0  0  0  0  0  0  0  0  0
   39.5790   23.4740   36.3820 N   0  0  0  0  0  0  0  0  0  0  0  0
   41.1060   25.5750   34.4570 C   0  0  0  0  0  0  0  0  0  0  0  0
   42.1730   25.8390   35.0340 O   0  0  0  0  0  0  0  0  0  0  0  0
   41.1000   24.5630   33.4070 N   0  0  0  0  0  0  0  0  0  0  0  0
   40.9400   23.1460   33.0290 C   0  0  0  0  0  0  0  0  0  0  0  0
   39.8700   23.1690   31.9340 C   0  0  0  0  0  0  0  0  0  0  0  0
   40.0540   24.5320   31.2910 C   0  0  0  0  0  0  0  0  0  0  0  0
   41.3600   24.9370   31.9990 C   0  0  0  0  0  0  0  0  0  0  0  0
   38.8379   24.4552   34.1779 H   0  0  0  0  0  0  0  0  0  0  0  0
   36.7736   25.3582   34.1640 H   0  0  0  0  0  0  0  0  0  0  0  0
   37.0523   26.3692   35.5849 H   0  0  0  0  0  0  0  0  0  0  0  0
   37.5218   26.9722   32.7310 H   0  0  0  0  0  0  0  0  0  0  0  0
   37.5297   28.0979   34.1110 H   0  0  0  0  0  0  0  0  0  0  0  0
   39.8109   26.7719   32.7391 H   0  0  0  0  0  0  0  0  0  0  0  0
   39.8477   28.1833   33.7900 H   0  0  0  0  0  0  0  0  0  0  0  0
   40.0342   26.8286   35.7664 H   0  0  0  0  0  0  0  0  0  0  0  0
   40.2696   21.9653   37.6774 H   0  0  0  0  0  0  0  0  0  0  0  0
   38.8267   22.7498   39.6157 H   0  0  0  0  0  0  0  0  0  0  0  0
   37.3063   24.7891   39.2928 H   0  0  0  0  0  0  0  0  0  0  0  0
   41.8849   22.7360   32.6429 H   0  0  0  0  0  0  0  0  0  0  0  0
   40.6572   22.5113   33.8818 H   0  0  0  0  0  0  0  0  0  0  0  0
   40.0368   22.3635   31.2037 H   0  0  0  0  0  0  0  0  0  0  0  0
   38.8534   23.0116   32.3235 H   0  0  0  0  0  0  0  0  0  0  0  0
   40.1769   24.4635   30.2000 H   0  0  0  0  0  0  0  0  0  0  0  0
   39.2122   25.2316   31.3999 H   0  0  0  0  0  0  0  0  0  0  0  0
   42.2188   24.3818   31.5938 H   0  0  0  0  0  0  0  0  0  0  0  0
   41.6132   25.9997   31.8706 H   0  0  0  0  0  0  0  0  0  0  0  0
  1 10  1  0
  2  1  1  0
  3  2  1  0
  4  3  1  0
  4  5  1  0
  5  1  1  0
  6  7  2  0
  8  7  1  0
  9  8  2  0
 10 11  2  0
 10  9  1  0
 11  6  1  0
 12  5  1  0
 12 13  2  0
 14 12  1  0
 15 14  1  0
 16 15  1  0
 17 16  1  0
 17 18  1  0
 18 14  1  0
  1 19  1  6
  2 20  1  0
  2 21  1  0
  3 22  1  0
  3 23  1  0
  4 24  1  0
  4 25  1  0
  5 26  1  1
  6 27  1  0
  7 28  1  0
  8 29  1  0
 15 30  1  0
 15 31  1  0
 16 32  1  0
 16 33  1  0
 17 34  1  0
 17 35  1  0
 18 36  1  0
 18 37  1  0
M  ISO  8  19  13  20  13  21  13  22  13  23  13  24  13  25  13  26  13
M  ISO  8  27  14  28  14  29  14  30  13  31  13  32  13  33  13  34  13
M  ISO  3  35  13  36  13  37  13
M  END
>  <minimizedAffinity>  (1) 
-4.2817421

>  <minimizedRMSD>  (1) 
0.323974311

$$$$
