
     RDKit          3D

 26 27  0  0  1  0  0  0  0  0999 V2000
   38.6420   25.6560   35.0120 C   0  0  2  0  0  0  0  0  0  0  0  0
   39.6270   22.9380   37.2610 C   0  0  0  0  0  0  0  0  0  0  0  0
   38.8380   23.1730   38.4290 C   0  0  0  0  0  0  0  0  0  0  0  0
   37.9650   24.2830   38.4250 C   0  0  0  0  0  0  0  0  0  0  0  0
   37.9510   25.0470   37.2860 N   0  0  0  0  0  0  0  0  0  0  0  0
   38.7130   24.7880   36.2100 C   0  0  0  0  0  0  0  0  0  0  0  0
   39.5360   23.7480   36.2050 N   0  0  0  0  0  0  0  0  0  0  0  0
   39.4710   26.8970   35.2530 C   0  0  0  0  0  0  0  0  0  0  0  0
   37.2340   26.1040   34.6830 C   0  0  0  0  0  0  0  0  0  0  0  0
   37.3460   27.5780   34.2860 C   0  0  0  0  0  0  0  0  0  0  0  0
   36.6670   28.0020   33.0060 C   0  0  0  0  0  0  0  0  0  0  0  0
   36.1980   28.4720   34.3700 C   0  0  0  0  0  0  0  0  0  0  0  0
   39.0174   25.0592   34.1677 H   0  0  0  0  0  0  0  0  0  0  0  0
   40.3160   22.0810   37.2324 H   0  0  0  0  0  0  0  0  0  0  0  0
   38.9085   22.5100   39.3039 H   0  0  0  0  0  0  0  0  0  0  0  0
   37.3294   24.5224   39.2902 H   0  0  0  0  0  0  0  0  0  0  0  0
   39.5802   27.0605   36.3353 H   0  0  0  0  0  0  0  0  0  0  0  0
   40.4648   26.7678   34.7995 H   0  0  0  0  0  0  0  0  0  0  0  0
   38.9711   27.7656   34.7995 H   0  0  0  0  0  0  0  0  0  0  0  0
   36.8292   25.5125   33.8486 H   0  0  0  0  0  0  0  0  0  0  0  0
   36.5556   25.9659   35.5378 H   0  0  0  0  0  0  0  0  0  0  0  0
   38.3643   27.6314   34.6985 H   0  0  0  0  0  0  0  0  0  0  0  0
   37.1643   28.7007   32.3172 H   0  0  0  0  0  0  0  0  0  0  0  0
   36.2115   27.4915   32.1446 H   0  0  0  0  0  0  0  0  0  0  0  0
   35.2456   28.1029   34.7784 H   0  0  0  0  0  0  0  0  0  0  0  0
   36.0174   29.4559   34.8276 H   0  0  0  0  0  0  0  0  0  0  0  0
  1  8  1  0
  1  6  1  0
  2  3  2  0
  4  3  1  0
  5  4  2  0
  6  5  1  0
  7  6  2  0
  7  2  1  0
  9  1  1  0
 10 12  1  0
 10  9  1  0
 11 10  1  0
 11 12  1  0
  1 13  1  6
  2 14  1  0
  3 15  1  0
  4 16  1  0
  8 17  1  0
  8 18  1  0
  8 19  1  0
  9 20  1  0
  9 21  1  0
 10 22  1  0
 11 23  1  0
 11 24  1  0
 12 25  1  0
 12 26  1  0
M  ISO  8  13   8  14  14  15  14  16  14  17   8  18   8  19   8  20   8
M  ISO  6  21   8  22  13  23  13  24  13  25  13  26  13
M  END
>  <minimizedAffinity>  (1) 
-3.80980992

>  <minimizedRMSD>  (1) 
1.11988664

$$$$
