
     RDKit          3D

 33 35  0  0  1  0  0  0  0  0999 V2000
   38.7620   25.2490   34.9160 C   0  0  1  0  0  0  0  0  0  0  0  0
   37.5360   25.9770   34.6300 C   0  0  0  0  0  0  0  0  0  0  0  0
   37.9430   27.1110   33.7160 C   0  0  0  0  0  0  0  0  0  0  0  0
   39.4650   27.1160   33.6500 C   0  0  0  0  0  0  0  0  0  0  0  0
   39.8740   26.2650   34.8220 C   0  0  2  0  0  0  0  0  0  0  0  0
   39.5900   22.8300   37.5670 C   0  0  0  0  0  0  0  0  0  0  0  0
   38.7890   23.3100   38.6650 C   0  0  0  0  0  0  0  0  0  0  0  0
   37.9710   24.4570   38.4960 C   0  0  0  0  0  0  0  0  0  0  0  0
   38.0150   25.0270   37.2630 N   0  0  0  0  0  0  0  0  0  0  0  0
   38.7780   24.5490   36.2540 C   0  0  0  0  0  0  0  0  0  0  0  0
   39.5690   23.4550   36.3890 N   0  0  0  0  0  0  0  0  0  0  0  0
   41.1320   25.5760   34.4810 C   0  0  0  0  0  0  0  0  0  0  0  0
   42.1990   25.7870   35.0790 O   0  0  0  0  0  0  0  0  0  0  0  0
   41.2410   24.5820   33.4050 C   0  0  0  0  0  0  0  0  0  0  0  0
   41.7280   23.3140   33.6570 C   0  0  0  0  0  0  0  0  0  0  0  0
   41.8820   22.2930   32.7510 C   0  0  0  0  0  0  0  0  0  0  0  0
   41.5280   22.5370   31.4820 N   0  0  0  0  0  0  0  0  0  0  0  0
   41.0480   23.7510   31.1770 C   0  0  0  0  0  0  0  0  0  0  0  0
   40.9240   24.6960   32.1070 N   0  0  0  0  0  0  0  0  0  0  0  0
   38.8725   24.4285   34.1917 H   0  0  0  0  0  0  0  0  0  0  0  0
   36.8079   25.3220   34.1291 H   0  0  0  0  0  0  0  0  0  0  0  0
   37.0566   26.3456   35.5489 H   0  0  0  0  0  0  0  0  0  0  0  0
   37.5232   26.9539   32.7115 H   0  0  0  0  0  0  0  0  0  0  0  0
   37.5666   28.0720   34.0965 H   0  0  0  0  0  0  0  0  0  0  0  0
   39.8184   26.6782   32.7047 H   0  0  0  0  0  0  0  0  0  0  0  0
   39.8907   28.1295   33.6891 H   0  0  0  0  0  0  0  0  0  0  0  0
   40.0266   26.8301   35.7533 H   0  0  0  0  0  0  0  0  0  0  0  0
   40.2237   21.9410   37.7017 H   0  0  0  0  0  0  0  0  0  0  0  0
   38.8118   22.7877   39.6328 H   0  0  0  0  0  0  0  0  0  0  0  0
   37.3446   24.8572   39.3068 H   0  0  0  0  0  0  0  0  0  0  0  0
   42.0242   23.0989   34.6943 H   0  0  0  0  0  0  0  0  0  0  0  0
   42.2802   21.3138   33.0553 H   0  0  0  0  0  0  0  0  0  0  0  0
   40.7515   23.9703   30.1407 H   0  0  0  0  0  0  0  0  0  0  0  0
  1 10  1  0
  2  1  1  0
  3  2  1  0
  4  3  1  0
  4  5  1  0
  5  1  1  0
  6  7  2  0
  8  7  1  0
  9  8  2  0
 10 11  2  0
 10  9  1  0
 11  6  1  0
 12  5  1  0
 12 13  2  0
 14 15  2  0
 14 12  1  0
 16 15  1  0
 17 16  2  0
 18 17  1  0
 18 19  2  0
 19 14  1  0
  1 20  1  6
  2 21  1  0
  2 22  1  0
  3 23  1  0
  3 24  1  0
  4 25  1  0
  4 26  1  0
  5 27  1  1
  6 28  1  0
  7 29  1  0
  8 30  1  0
 15 31  1  0
 16 32  1  0
 18 33  1  0
M  ISO  8  20  13  21  13  22  13  23  13  24  13  25  13  26  13  27  13
M  ISO  6  28  14  29  14  30  14  31  14  32  14  33  14
M  END
>  <minimizedAffinity>  (1) 
-4.04209089

>  <minimizedRMSD>  (1) 
0.375853032

$$$$
