
     RDKit          3D

 30 32  0  0  1  0  0  0  0  0999 V2000
   38.7220   25.2990   34.9090 C   0  0  1  0  0  0  0  0  0  0  0  0
   37.4880   26.0190   34.6410 C   0  0  0  0  0  0  0  0  0  0  0  0
   37.8830   27.1510   33.7090 C   0  0  0  0  0  0  0  0  0  0  0  0
   39.3990   27.1900   33.6620 C   0  0  0  0  0  0  0  0  0  0  0  0
   39.8260   26.3440   34.8260 C   0  0  2  0  0  0  0  0  0  0  0  0
   39.6100   22.8380   37.4920 C   0  0  0  0  0  0  0  0  0  0  0  0
   38.8110   23.2800   38.6120 C   0  0  0  0  0  0  0  0  0  0  0  0
   37.9760   24.4190   38.4660 C   0  0  0  0  0  0  0  0  0  0  0  0
   38.0040   25.0130   37.2430 N   0  0  0  0  0  0  0  0  0  0  0  0
   38.7630   24.5710   36.2210 C   0  0  0  0  0  0  0  0  0  0  0  0
   39.5720   23.4850   36.3300 N   0  0  0  0  0  0  0  0  0  0  0  0
   41.0820   25.6540   34.4420 C   0  0  0  0  0  0  0  0  0  0  0  0
   42.1190   25.7030   35.1080 O   0  0  0  0  0  0  0  0  0  0  0  0
   41.1470   24.8560   33.2040 C   0  0  0  0  0  0  0  0  0  0  0  0
   41.8420   25.3080   32.1280 N   0  0  0  0  0  0  0  0  0  0  0  0
   41.7730   24.4600   31.1400 O   0  0  0  0  0  0  0  0  0  0  0  0
   41.0510   23.4370   31.5070 C   0  0  0  0  0  0  0  0  0  0  0  0
   40.6710   23.6800   32.7650 N   0  0  0  0  0  0  0  0  0  0  0  0
   38.8339   24.4903   34.1718 H   0  0  0  0  0  0  0  0  0  0  0  0
   36.7534   25.3588   34.1566 H   0  0  0  0  0  0  0  0  0  0  0  0
   37.0196   26.3906   35.5643 H   0  0  0  0  0  0  0  0  0  0  0  0
   37.4800   26.9674   32.7021 H   0  0  0  0  0  0  0  0  0  0  0  0
   37.4802   28.1094   34.0685 H   0  0  0  0  0  0  0  0  0  0  0  0
   39.7709   26.7686   32.7164 H   0  0  0  0  0  0  0  0  0  0  0  0
   39.7958   28.2144   33.7180 H   0  0  0  0  0  0  0  0  0  0  0  0
   39.9814   26.9043   35.7598 H   0  0  0  0  0  0  0  0  0  0  0  0
   40.2577   21.9557   37.6015 H   0  0  0  0  0  0  0  0  0  0  0  0
   38.8494   22.7389   39.5690 H   0  0  0  0  0  0  0  0  0  0  0  0
   37.3485   24.7957   39.2871 H   0  0  0  0  0  0  0  0  0  0  0  0
   40.8045   22.5519   30.9021 H   0  0  0  0  0  0  0  0  0  0  0  0
  1 10  1  0
  2  1  1  0
  3  2  1  0
  4  3  1  0
  4  5  1  0
  5  1  1  0
  6  7  2  0
  8  7  1  0
  9  8  2  0
 10 11  2  0
 10  9  1  0
 11  6  1  0
 12  5  1  0
 12 13  2  0
 14 12  1  0
 15 14  2  0
 16 17  1  0
 16 15  1  0
 17 18  2  0
 18 14  1  0
  1 19  1  6
  2 20  1  0
  2 21  1  0
  3 22  1  0
  3 23  1  0
  4 24  1  0
  4 25  1  0
  5 26  1  1
  6 27  1  0
  7 28  1  0
  8 29  1  0
 17 30  1  0
M  ISO  8  19  13  20  13  21  13  22  13  23  13  24  13  25  13  26  13
M  ISO  4  27  14  28  14  29  14  30  14
M  END
>  <minimizedAffinity>  (1) 
-4.01719856

>  <minimizedRMSD>  (1) 
0.520096183

$$$$
