
     RDKit          3D

 42 45  0  0  0  0  0  0  0  0999 V2000
   41.6380   22.3890   36.7290 C   0  0  0  0  0  0  0  0  0  0  0  0
   41.7800   21.0280   36.8510 C   0  0  0  0  0  0  0  0  0  0  0  0
   42.9570   20.3430   36.6390 C   0  0  0  0  0  0  0  0  0  0  0  0
   44.0850   21.0240   36.2810 C   0  0  0  0  0  0  0  0  0  0  0  0
   44.0190   22.3850   36.1390 C   0  0  0  0  0  0  0  0  0  0  0  0
   45.1630   23.0660   35.7770 C   0  0  0  0  0  0  0  0  0  0  0  0
   45.1630   24.4210   35.6200 C   0  0  0  0  0  0  0  0  0  0  0  0
   43.9660   25.0860   35.8390 C   0  0  0  0  0  0  0  0  0  0  0  0
   42.8520   24.3740   36.1980 C   0  0  0  0  0  0  0  0  0  0  0  0
   42.8150   23.0230   36.3640 C   0  0  0  0  0  0  0  0  0  0  0  0
   38.7560   23.3590   38.6410 C   0  0  0  0  0  0  0  0  0  0  0  0
   37.9640   24.1670   37.8390 C   0  0  0  0  0  0  0  0  0  0  0  0
   38.4590   24.3850   36.5670 C   0  0  0  0  0  0  0  0  0  0  0  0
   39.6140   23.8220   36.2270 N   0  0  0  0  0  0  0  0  0  0  0  0
   40.3770   23.0590   36.9630 C   0  0  0  0  0  0  0  0  0  0  0  0
   39.8990   22.8490   38.1910 N   0  0  0  0  0  0  0  0  0  0  0  0
   37.7440   25.2290   35.5620 C   0  0  0  0  0  0  0  0  0  0  0  0
   38.1550   26.6450   35.7800 C   0  0  0  0  0  0  0  0  0  0  0  0
   37.8120   27.5380   34.6070 C   0  0  0  0  0  0  0  0  0  0  0  0
   38.6270   27.0200   33.4240 C   0  0  0  0  0  0  0  0  0  0  0  0
   38.0730   25.6690   33.0940 C   0  0  0  0  0  0  0  0  0  0  0  0
   38.1280   24.6890   34.2110 C   0  0  0  0  0  0  0  0  0  0  0  0
   40.8927   20.4445   37.1378 H   0  0  0  0  0  0  0  0  0  0  0  0
   42.9876   19.2499   36.7580 H   0  0  0  0  0  0  0  0  0  0  0  0
   45.0307   20.4889   36.1095 H   0  0  0  0  0  0  0  0  0  0  0  0
   46.0944   22.5046   35.6116 H   0  0  0  0  0  0  0  0  0  0  0  0
   46.0751   24.9639   35.3315 H   0  0  0  0  0  0  0  0  0  0  0  0
   43.9113   26.1787   35.7251 H   0  0  0  0  0  0  0  0  0  0  0  0
   41.9200   24.9342   36.3642 H   0  0  0  0  0  0  0  0  0  0  0  0
   38.4329   23.1357   39.6685 H   0  0  0  0  0  0  0  0  0  0  0  0
   37.0154   24.6008   38.1881 H   0  0  0  0  0  0  0  0  0  0  0  0
   36.6477   25.2003   35.6479 H   0  0  0  0  0  0  0  0  0  0  0  0
   37.6423   27.0268   36.6752 H   0  0  0  0  0  0  0  0  0  0  0  0
   39.2482   26.6596   35.9013 H   0  0  0  0  0  0  0  0  0  0  0  0
   36.7364   27.4785   34.3842 H   0  0  0  0  0  0  0  0  0  0  0  0
   38.0449   28.5910   34.8236 H   0  0  0  0  0  0  0  0  0  0  0  0
   38.5211   27.6962   32.5629 H   0  0  0  0  0  0  0  0  0  0  0  0
   39.6980   26.9649   33.6688 H   0  0  0  0  0  0  0  0  0  0  0  0
   37.0211   25.7925   32.7971 H   0  0  0  0  0  0  0  0  0  0  0  0
   38.7027   25.2612   32.2895 H   0  0  0  0  0  0  0  0  0  0  0  0
   37.4454   23.8608   33.9699 H   0  0  0  0  0  0  0  0  0  0  0  0
   39.1813   24.3832   34.2947 H   0  0  0  0  0  0  0  0  0  0  0  0
  1  2  2  0
  1 15  1  0
  3  2  1  0
  4  3  2  0
  5  4  1  0
  5 10  2  0
  6  5  1  0
  7  6  2  0
  7  8  1  0
  8  9  2  0
  9 10  1  0
 10  1  1  0
 12 11  2  0
 13 12  1  0
 14 13  2  0
 14 15  1  0
 15 16  2  0
 16 11  1  0
 17 18  1  0
 17 13  1  0
 19 18  1  0
 20 19  1  0
 21 20  1  0
 21 22  1  0
 22 17  1  0
  2 23  1  0
  3 24  1  0
  4 25  1  0
  6 26  1  0
  7 27  1  0
  8 28  1  0
  9 29  1  0
 11 30  1  0
 12 31  1  0
 17 32  1  0
 18 33  1  0
 18 34  1  0
 19 35  1  0
 19 36  1  0
 20 37  1  0
 20 38  1  0
 21 39  1  0
 21 40  1  0
 22 41  1  0
 22 42  1  0
M  ISO  8  23  14  24  14  25  14  26  14  27  14  28  14  29  14  30  14
M  ISO  8  31  14  32  13  33  13  34  13  35  13  36  13  37  13  38  13
M  ISO  4  39  13  40  13  41  13  42  13
M  END
>  <minimizedAffinity>  (1) 
-5.93397045

>  <minimizedRMSD>  (1) 
6.1460557

$$$$
