
     RDKit          3D

 26 27  0  0  1  0  0  0  0  0999 V2000
   38.7860   25.2560   34.8730 C   0  0  1  0  0  0  0  0  0  0  0  0
   37.5450   25.9560   34.5760 C   0  0  0  0  0  0  0  0  0  0  0  0
   37.9600   27.1490   33.7180 C   0  0  0  0  0  0  0  0  0  0  0  0
   39.4700   27.1040   33.6040 C   0  0  0  0  0  0  0  0  0  0  0  0
   39.8640   26.3410   34.8530 C   0  0  2  0  0  0  0  0  0  0  0  0
   39.6280   22.8290   37.5140 C   0  0  0  0  0  0  0  0  0  0  0  0
   38.7910   23.2660   38.6030 C   0  0  0  0  0  0  0  0  0  0  0  0
   37.9420   24.3880   38.4200 C   0  0  0  0  0  0  0  0  0  0  0  0
   37.9940   24.9730   37.1950 N   0  0  0  0  0  0  0  0  0  0  0  0
   38.7910   24.5390   36.1910 C   0  0  0  0  0  0  0  0  0  0  0  0
   39.6120   23.4660   36.3420 N   0  0  0  0  0  0  0  0  0  0  0  0
   41.1530   25.6830   34.5280 C   0  0  0  0  0  0  0  0  0  0  0  0
   42.2080   25.7230   35.1130 O   0  0  0  0  0  0  0  0  0  0  0  0
   41.1200   24.9090   33.3690 O   0  0  0  0  0  0  0  0  0  0  0  0
   38.9478   24.4586   34.1328 H   0  0  0  0  0  0  0  0  0  0  0  0
   36.8555   25.3023   34.0217 H   0  0  0  0  0  0  0  0  0  0  0  0
   37.0175   26.2676   35.4896 H   0  0  0  0  0  0  0  0  0  0  0  0
   37.5028   27.0748   32.7203 H   0  0  0  0  0  0  0  0  0  0  0  0
   37.6270   28.0947   34.1706 H   0  0  0  0  0  0  0  0  0  0  0  0
   39.7854   26.5708   32.6950 H   0  0  0  0  0  0  0  0  0  0  0  0
   39.9364   28.0973   33.5284 H   0  0  0  0  0  0  0  0  0  0  0  0
   39.9502   26.9259   35.7806 H   0  0  0  0  0  0  0  0  0  0  0  0
   40.2880   21.9597   37.6510 H   0  0  0  0  0  0  0  0  0  0  0  0
   38.8102   22.7351   39.5662 H   0  0  0  0  0  0  0  0  0  0  0  0
   37.2838   24.7603   39.2189 H   0  0  0  0  0  0  0  0  0  0  0  0
   41.9334   24.4303   33.0702 H   0  0  0  0  0  0  0  0  0  0  0  0
  1 10  1  0
  2  1  1  0
  3  2  1  0
  4  3  1  0
  4  5  1  0
  5  1  1  0
  6  7  2  0
  8  7  1  0
  9  8  2  0
 10 11  2  0
 10  9  1  0
 11  6  1  0
 12  5  1  0
 12 13  2  0
 14 12  1  0
  1 15  1  6
  2 16  1  0
  2 17  1  0
  3 18  1  0
  3 19  1  0
  4 20  1  0
  4 21  1  0
  5 22  1  1
  6 23  1  0
  7 24  1  0
  8 25  1  0
 14 26  1  0
M  ISO  8  15  13  16  13  17  13  18  13  19  13  20  13  21  13  22  13
M  ISO  4  23  14  24  14  25  14  26   3
M  END
>  <minimizedAffinity>  (1) 
-3.98121762

>  <minimizedRMSD>  (1) 
0.0467579924

$$$$
