
     RDKit          3D

 34 36  0  0  1  0  0  0  0  0999 V2000
   38.7710   25.2540   34.8720 C   0  0  1  0  0  0  0  0  0  0  0  0
   37.5300   25.9420   34.5650 C   0  0  0  0  0  0  0  0  0  0  0  0
   37.9310   27.1210   33.6890 C   0  0  0  0  0  0  0  0  0  0  0  0
   39.4420   27.1600   33.6470 C   0  0  0  0  0  0  0  0  0  0  0  0
   39.8600   26.3070   34.8030 C   0  0  2  0  0  0  0  0  0  0  0  0
   39.6250   22.8270   37.5030 C   0  0  0  0  0  0  0  0  0  0  0  0
   38.8000   23.2780   38.5970 C   0  0  0  0  0  0  0  0  0  0  0  0
   37.9580   24.4070   38.4270 C   0  0  0  0  0  0  0  0  0  0  0  0
   38.0060   24.9850   37.1980 N   0  0  0  0  0  0  0  0  0  0  0  0
   38.7900   24.5360   36.1950 C   0  0  0  0  0  0  0  0  0  0  0  0
   39.6020   23.4600   36.3360 N   0  0  0  0  0  0  0  0  0  0  0  0
   41.1350   25.6460   34.4600 C   0  0  0  0  0  0  0  0  0  0  0  0
   42.1080   25.6180   35.2240 O   0  0  0  0  0  0  0  0  0  0  0  0
   41.3310   24.9770   33.1730 C   0  0  0  0  0  0  0  0  0  0  0  0
   41.0610   23.6260   33.0200 C   0  0  0  0  0  0  0  0  0  0  0  0
   41.1990   22.8800   31.8820 C   0  0  0  0  0  0  0  0  0  0  0  0
   41.6530   23.5280   30.7550 C   0  0  0  0  0  0  0  0  0  0  0  0
   41.9320   24.8720   30.8690 C   0  0  0  0  0  0  0  0  0  0  0  0
   41.7640   25.4940   32.0160 N   0  0  0  0  0  0  0  0  0  0  0  0
   38.9164   24.4434   34.1428 H   0  0  0  0  0  0  0  0  0  0  0  0
   36.8435   25.2750   34.0229 H   0  0  0  0  0  0  0  0  0  0  0  0
   37.0050   26.2670   35.4753 H   0  0  0  0  0  0  0  0  0  0  0  0
   37.5300   26.9883   32.6733 H   0  0  0  0  0  0  0  0  0  0  0  0
   37.5294   28.0610   34.0954 H   0  0  0  0  0  0  0  0  0  0  0  0
   39.8174   26.7455   32.6997 H   0  0  0  0  0  0  0  0  0  0  0  0
   39.8404   28.1833   33.7109 H   0  0  0  0  0  0  0  0  0  0  0  0
   39.9910   26.8663   35.7411 H   0  0  0  0  0  0  0  0  0  0  0  0
   40.2781   21.9520   37.6366 H   0  0  0  0  0  0  0  0  0  0  0  0
   38.8237   22.7479   39.5605 H   0  0  0  0  0  0  0  0  0  0  0  0
   37.3124   24.7874   39.2324 H   0  0  0  0  0  0  0  0  0  0  0  0
   40.6956   23.0957   33.9118 H   0  0  0  0  0  0  0  0  0  0  0  0
   40.9574   21.8070   31.8676 H   0  0  0  0  0  0  0  0  0  0  0  0
   41.7874   22.9942   29.8027 H   0  0  0  0  0  0  0  0  0  0  0  0
   42.2981   25.4295   29.9943 H   0  0  0  0  0  0  0  0  0  0  0  0
  1 10  1  0
  2  1  1  0
  3  2  1  0
  4  3  1  0
  4  5  1  0
  5  1  1  0
  6  7  2  0
  8  7  1  0
  9  8  2  0
 10 11  2  0
 10  9  1  0
 11  6  1  0
 12  5  1  0
 12 13  2  0
 14 12  1  0
 15 14  2  0
 16 15  1  0
 17 18  1  0
 17 16  2  0
 18 19  2  0
 19 14  1  0
  1 20  1  6
  2 21  1  0
  2 22  1  0
  3 23  1  0
  3 24  1  0
  4 25  1  0
  4 26  1  0
  5 27  1  1
  6 28  1  0
  7 29  1  0
  8 30  1  0
 15 31  1  0
 16 32  1  0
 17 33  1  0
 18 34  1  0
M  ISO  8  20  13  21  13  22  13  23  13  24  13  25  13  26  13  27  13
M  ISO  7  28  14  29  14  30  14  31  14  32  14  33  14  34  14
M  END
>  <minimizedAffinity>  (1) 
-4.0485239

>  <minimizedRMSD>  (1) 
0.313240856

$$$$
