
     RDKit          3D

 29 31  0  0  0  0  0  0  0  0999 V2000
   37.0980   21.9120   34.1710 C   0  0  0  0  0  0  0  0  0  0  0  0
   36.3710   20.7400   34.2100 C   0  0  0  0  0  0  0  0  0  0  0  0
   35.4610   20.3690   33.2530 C   0  0  0  0  0  0  0  0  0  0  0  0
   35.2230   21.1720   32.1730 C   0  0  0  0  0  0  0  0  0  0  0  0
   35.9120   22.3410   32.0810 C   0  0  0  0  0  0  0  0  0  0  0  0
   35.6680   23.1510   30.9850 C   0  0  0  0  0  0  0  0  0  0  0  0
   36.3180   24.3410   30.8140 C   0  0  0  0  0  0  0  0  0  0  0  0
   37.2360   24.7010   31.7970 C   0  0  0  0  0  0  0  0  0  0  0  0
   37.4500   23.8720   32.8660 C   0  0  0  0  0  0  0  0  0  0  0  0
   36.8200   22.6830   33.0620 C   0  0  0  0  0  0  0  0  0  0  0  0
   40.3520   22.2100   35.6560 C   0  0  0  0  0  0  0  0  0  0  0  0
   40.1920   22.7860   36.9280 C   0  0  0  0  0  0  0  0  0  0  0  0
   38.8790   23.0790   37.2700 C   0  0  0  0  0  0  0  0  0  0  0  0
   37.9050   22.8040   36.4010 N   0  0  0  0  0  0  0  0  0  0  0  0
   38.0470   22.2620   35.2040 C   0  0  0  0  0  0  0  0  0  0  0  0
   39.3080   21.9790   34.8720 N   0  0  0  0  0  0  0  0  0  0  0  0
   38.4200   23.6930   38.5550 C   0  0  0  0  0  0  0  0  0  0  0  0
   37.8910   24.9610   38.2960 F   0  0  0  0  0  0  0  0  0  0  0  0
   37.4060   22.8870   39.0850 F   0  0  0  0  0  0  0  0  0  0  0  0
   39.4150   23.7330   39.5050 F   0  0  0  0  0  0  0  0  0  0  0  0
   36.5310   20.0614   35.0608 H   0  0  0  0  0  0  0  0  0  0  0  0
   34.9185   19.4176   33.3556 H   0  0  0  0  0  0  0  0  0  0  0  0
   34.4955   20.8813   31.4008 H   0  0  0  0  0  0  0  0  0  0  0  0
   34.9326   22.8287   30.2331 H   0  0  0  0  0  0  0  0  0  0  0  0
   36.1252   24.9833   29.9420 H   0  0  0  0  0  0  0  0  0  0  0  0
   37.7880   25.6489   31.7152 H   0  0  0  0  0  0  0  0  0  0  0  0
   38.1844   24.1910   33.6203 H   0  0  0  0  0  0  0  0  0  0  0  0
   41.3606   21.9463   35.3049 H   0  0  0  0  0  0  0  0  0  0  0  0
   41.0397   22.9885   37.5991 H   0  0  0  0  0  0  0  0  0  0  0  0
  1  2  2  0
  1 15  1  0
  3  2  1  0
  4  3  2  0
  5  4  1  0
  5 10  2  0
  6  5  1  0
  7  6  2  0
  7  8  1  0
  8  9  2  0
  9 10  1  0
 10  1  1  0
 11 12  2  0
 12 13  1  0
 13 17  1  0
 14 13  2  0
 15 14  1  0
 16 15  2  0
 16 11  1  0
 17 19  1  0
 17 20  1  0
 18 17  1  0
  2 21  1  0
  3 22  1  0
  4 23  1  0
  6 24  1  0
  7 25  1  0
  8 26  1  0
  9 27  1  0
 11 28  1  0
 12 29  1  0
M  ISO  8  21  14  22  14  23  14  24  14  25  14  26  14  27  14  28  14
M  ISO  1  29  14
M  END
>  <minimizedAffinity>  (1) 
-5.88604593

>  <minimizedRMSD>  (1) 
0.859181106

$$$$
