
     RDKit          3D

 44 47  0  0  1  0  0  0  0  0999 V2000
   38.5630   25.3610   35.0100 C   0  0  1  0  0  0  0  0  0  0  0  0
   37.3290   26.0860   34.8370 C   0  0  0  0  0  0  0  0  0  0  0  0
   37.6910   27.2880   33.9790 C   0  0  0  0  0  0  0  0  0  0  0  0
   39.2030   27.2950   33.8190 C   0  0  0  0  0  0  0  0  0  0  0  0
   39.6890   26.3980   34.9000 C   0  0  2  0  0  0  0  0  0  0  0  0
   39.6040   22.8410   37.4820 C   0  0  0  0  0  0  0  0  0  0  0  0
   38.8610   23.2530   38.6580 C   0  0  0  0  0  0  0  0  0  0  0  0
   38.0200   24.3800   38.5820 C   0  0  0  0  0  0  0  0  0  0  0  0
   37.9740   25.0040   37.3820 N   0  0  0  0  0  0  0  0  0  0  0  0
   38.6870   24.5880   36.3000 C   0  0  0  0  0  0  0  0  0  0  0  0
   39.4970   23.5160   36.3430 N   0  0  0  0  0  0  0  0  0  0  0  0
   40.9090   25.7030   34.4170 C   0  0  0  0  0  0  0  0  0  0  0  0
   41.9780   25.7370   35.0380 O   0  0  0  0  0  0  0  0  0  0  0  0
   40.9280   24.9330   33.1750 C   0  0  0  0  0  0  0  0  0  0  0  0
   41.1370   23.5760   33.1770 C   0  0  0  0  0  0  0  0  0  0  0  0
   41.1670   22.7590   32.0790 C   0  0  0  0  0  0  0  0  0  0  0  0
   40.9700   23.3400   30.8390 C   0  0  0  0  0  0  0  0  0  0  0  0
   40.7600   24.6890   30.8000 C   0  0  0  0  0  0  0  0  0  0  0  0
   40.7480   25.3960   31.9210 N   0  0  0  0  0  0  0  0  0  0  0  0
   40.5420   25.4360   29.6090 N   0  0  0  0  0  0  0  0  0  0  0  0
   41.1400   26.6590   29.5310 C   0  0  0  0  0  0  0  0  0  0  0  0
   40.9720   27.4510   28.3910 C   0  0  0  0  0  0  0  0  0  0  0  0
   40.1750   26.8620   27.4300 C   0  0  0  0  0  0  0  0  0  0  0  0
   39.9980   27.5570   26.3730 O   0  0  0  0  0  0  0  0  0  0  0  0
   39.5690   25.6630   27.4690 N   0  0  0  0  0  0  0  0  0  0  0  0
   39.7820   24.9580   28.6060 C   0  0  0  0  0  0  0  0  0  0  0  0
   39.2380   23.8260   28.6960 O   0  0  0  0  0  0  0  0  0  0  0  0
   38.6099   24.5821   34.2347 H   0  0  0  0  0  0  0  0  0  0  0  0
   36.5815   25.4597   34.3281 H   0  0  0  0  0  0  0  0  0  0  0  0
   36.8890   26.3851   35.7998 H   0  0  0  0  0  0  0  0  0  0  0  0
   37.2092   27.2051   32.9936 H   0  0  0  0  0  0  0  0  0  0  0  0
   37.3466   28.2197   34.4515 H   0  0  0  0  0  0  0  0  0  0  0  0
   39.4924   26.9074   32.8311 H   0  0  0  0  0  0  0  0  0  0  0  0
   39.6290   28.3068   33.8882 H   0  0  0  0  0  0  0  0  0  0  0  0
   39.9186   26.9170   35.8423 H   0  0  0  0  0  0  0  0  0  0  0  0
   40.2622   21.9612   37.5341 H   0  0  0  0  0  0  0  0  0  0  0  0
   38.9536   22.6910   39.5991 H   0  0  0  0  0  0  0  0  0  0  0  0
   37.4361   24.7317   39.4454 H   0  0  0  0  0  0  0  0  0  0  0  0
   41.2957   23.0992   34.1555 H   0  0  0  0  0  0  0  0  0  0  0  0
   41.3418   21.6776   32.1792 H   0  0  0  0  0  0  0  0  0  0  0  0
   40.9820   22.7378   29.9186 H   0  0  0  0  0  0  0  0  0  0  0  0
   41.7558   27.0232   30.3666 H   0  0  0  0  0  0  0  0  0  0  0  0
   41.4293   28.4443   28.2718 H   0  0  0  0  0  0  0  0  0  0  0  0
   38.9886   25.3082   26.6956 H   0  0  0  0  0  0  0  0  0  0  0  0
  1 10  1  0
  2  1  1  0
  3  2  1  0
  4  3  1  0
  4  5  1  0
  5  1  1  0
  6  7  2  0
  8  7  1  0
  9  8  2  0
 10 11  2  0
 10  9  1  0
 11  6  1  0
 12  5  1  0
 12 13  2  0
 14 15  2  0
 14 12  1  0
 16 15  1  0
 17 16  2  0
 18 17  1  0
 18 19  2  0
 19 14  1  0
 20 18  1  0
 21 20  1  0
 22 21  2  0
 23 25  1  0
 23 22  1  0
 24 23  2  0
 25 26  1  0
 26 27  2  0
 26 20  1  0
  1 28  1  6
  2 29  1  0
  2 30  1  0
  3 31  1  0
  3 32  1  0
  4 33  1  0
  4 34  1  0
  5 35  1  1
  6 36  1  0
  7 37  1  0
  8 38  1  0
 15 39  1  0
 16 40  1  0
 17 41  1  0
 21 42  1  0
 22 43  1  0
 25 44  1  0
M  ISO  8  28  13  29  13  30  13  31  13  32  13  33  13  34  13  35  13
M  ISO  8  36  14  37  14  38  14  39  14  40  14  41  14  42  14  43  14
M  ISO  1  44   9
M  END
>  <minimizedAffinity>  (1) 
-5.23913479

>  <minimizedRMSD>  (1) 
1.51498687

$$$$
