
     RDKit          3D

 50 53  0  0  1  0  0  0  0  0999 V2000
   39.0120   25.0560   35.1160 C   0  0  1  0  0  0  0  0  0  0  0  0
   37.7060   25.3150   35.6670 C   0  0  0  0  0  0  0  0  0  0  0  0
   37.5250   26.8220   35.5630 C   0  0  0  0  0  0  0  0  0  0  0  0
   38.8320   27.4090   35.0530 C   0  0  0  0  0  0  0  0  0  0  0  0
   39.8290   26.3390   35.3160 C   0  0  2  0  0  0  0  0  0  0  0  0
   41.1660   22.0860   35.4350 C   0  0  0  0  0  0  0  0  0  0  0  0
   41.0290   21.7700   36.8260 C   0  0  0  0  0  0  0  0  0  0  0  0
   40.2030   22.5630   37.6530 C   0  0  0  0  0  0  0  0  0  0  0  0
   39.5940   23.5940   37.0170 N   0  0  0  0  0  0  0  0  0  0  0  0
   39.7390   23.8710   35.7030 C   0  0  0  0  0  0  0  0  0  0  0  0
   40.5230   23.1220   34.9080 N   0  0  0  0  0  0  0  0  0  0  0  0
   40.8640   26.3970   34.2530 C   0  0  0  0  0  0  0  0  0  0  0  0
   42.0580   26.6020   34.5030 O   0  0  0  0  0  0  0  0  0  0  0  0
   40.5400   26.2160   32.8400 C   0  0  0  0  0  0  0  0  0  0  0  0
   41.2190   25.3160   32.0540 C   0  0  0  0  0  0  0  0  0  0  0  0
   40.9910   25.0630   30.7300 C   0  0  0  0  0  0  0  0  0  0  0  0
   39.9820   25.7740   30.0980 C   0  0  0  0  0  0  0  0  0  0  0  0
   39.2880   26.6790   30.8540 C   0  0  0  0  0  0  0  0  0  0  0  0
   39.5840   26.8520   32.1320 N   0  0  0  0  0  0  0  0  0  0  0  0
   38.1880   27.4880   30.2600 C   0  0  0  0  0  0  0  0  0  0  0  0
   37.4590   28.1050   31.4480 C   0  0  0  0  0  0  0  0  0  0  0  0
   36.3340   29.0070   30.9990 C   0  0  0  0  0  0  0  0  0  0  0  0
   36.8550   30.0950   30.0730 C   0  0  0  0  0  0  0  0  0  0  0  0
   37.5220   29.3980   28.9090 C   0  0  0  0  0  0  0  0  0  0  0  0
   38.6970   28.5930   29.3680 C   0  0  0  0  0  0  0  0  0  0  0  0
   38.8853   24.7851   34.0574 H   0  0  0  0  0  0  0  0  0  0  0  0
   36.9313   24.7919   35.0872 H   0  0  0  0  0  0  0  0  0  0  0  0
   37.6178   24.9594   36.7042 H   0  0  0  0  0  0  0  0  0  0  0  0
   36.7105   27.0542   34.8611 H   0  0  0  0  0  0  0  0  0  0  0  0
   37.2672   27.2483   36.5437 H   0  0  0  0  0  0  0  0  0  0  0  0
   39.0892   28.3273   35.6012 H   0  0  0  0  0  0  0  0  0  0  0  0
   38.7843   27.6938   33.9916 H   0  0  0  0  0  0  0  0  0  0  0  0
   40.3158   26.4132   36.2996 H   0  0  0  0  0  0  0  0  0  0  0  0
   41.8106   21.4639   34.7967 H   0  0  0  0  0  0  0  0  0  0  0  0
   41.5673   20.9095   37.2499 H   0  0  0  0  0  0  0  0  0  0  0  0
   40.0651   22.3607   38.7254 H   0  0  0  0  0  0  0  0  0  0  0  0
   42.0244   24.7435   32.5373 H   0  0  0  0  0  0  0  0  0  0  0  0
   41.5890   24.3190   30.1833 H   0  0  0  0  0  0  0  0  0  0  0  0
   39.7495   25.6171   29.0344 H   0  0  0  0  0  0  0  0  0  0  0  0
   37.5477   26.8518   29.6313 H   0  0  0  0  0  0  0  0  0  0  0  0
   37.0440   27.2988   32.0707 H   0  0  0  0  0  0  0  0  0  0  0  0
   38.1792   28.7094   32.0190 H   0  0  0  0  0  0  0  0  0  0  0  0
   35.5819   28.4078   30.4649 H   0  0  0  0  0  0  0  0  0  0  0  0
   35.8855   29.4809   31.8846 H   0  0  0  0  0  0  0  0  0  0  0  0
   36.0220   30.7175   29.7144 H   0  0  0  0  0  0  0  0  0  0  0  0
   37.5641   30.7524   30.5974 H   0  0  0  0  0  0  0  0  0  0  0  0
   37.8636   30.1529   28.1855 H   0  0  0  0  0  0  0  0  0  0  0  0
   36.7929   28.7193   28.4424 H   0  0  0  0  0  0  0  0  0  0  0  0
   39.2159   28.1618   28.4992 H   0  0  0  0  0  0  0  0  0  0  0  0
   39.4049   29.2309   29.9175 H   0  0  0  0  0  0  0  0  0  0  0  0
  1  5  1  0
  1  2  1  0
  1 10  1  0
  3  2  1  0
  4  5  1  0
  4  3  1  0
  6  7  2  0
  7  8  1  0
  9  8  2  0
 10  9  1  0
 11  6  1  0
 11 10  2  0
 12 13  2  0
 12  5  1  0
 14 12  1  0
 15 14  2  0
 16 15  1  0
 17 16  2  0
 17 18  1  0
 18 19  2  0
 19 14  1  0
 20 18  1  0
 20 21  1  0
 22 21  1  0
 23 22  1  0
 24 25  1  0
 24 23  1  0
 25 20  1  0
  1 26  1  6
  2 27  1  0
  2 28  1  0
  3 29  1  0
  3 30  1  0
  4 31  1  0
  4 32  1  0
  5 33  1  1
  6 34  1  0
  7 35  1  0
  8 36  1  0
 15 37  1  0
 16 38  1  0
 17 39  1  0
 20 40  1  0
 21 41  1  0
 21 42  1  0
 22 43  1  0
 22 44  1  0
 23 45  1  0
 23 46  1  0
 24 47  1  0
 24 48  1  0
 25 49  1  0
 25 50  1  0
M  ISO  8  26  13  27  13  28  13  29  13  30  13  31  13  32  13  33  13
M  ISO  8  34  14  35  14  36  14  37  14  38  14  39  14  40  13  41  13
M  ISO  8  42  13  43  13  44  13  45  13  46  13  47  13  48  13  49  13
M  ISO  1  50  13
M  END
>  <minimizedAffinity>  (1) 
-5.04136658

>  <minimizedRMSD>  (1) 
3.45594692

$$$$
