
     RDKit          3D

 47 50  0  0  1  0  0  0  0  0999 V2000
   38.5300   25.3920   35.0580 C   0  0  1  0  0  0  0  0  0  0  0  0
   37.2900   26.1110   34.9080 C   0  0  0  0  0  0  0  0  0  0  0  0
   37.6410   27.3320   34.0680 C   0  0  0  0  0  0  0  0  0  0  0  0
   39.1540   27.3450   33.8910 C   0  0  0  0  0  0  0  0  0  0  0  0
   39.6500   26.4330   34.9510 C   0  0  2  0  0  0  0  0  0  0  0  0
   39.6060   22.8390   37.4830 C   0  0  0  0  0  0  0  0  0  0  0  0
   38.8890   23.2170   38.6640 C   0  0  0  0  0  0  0  0  0  0  0  0
   38.0280   24.3540   38.6300 C   0  0  0  0  0  0  0  0  0  0  0  0
   37.9690   24.9960   37.4310 N   0  0  0  0  0  0  0  0  0  0  0  0
   38.6690   24.5980   36.3350 C   0  0  0  0  0  0  0  0  0  0  0  0
   39.4830   23.5290   36.3530 N   0  0  0  0  0  0  0  0  0  0  0  0
   40.8660   25.7500   34.4430 C   0  0  0  0  0  0  0  0  0  0  0  0
   41.9700   25.8590   34.9960 O   0  0  0  0  0  0  0  0  0  0  0  0
   40.8450   24.8970   33.2500 C   0  0  0  0  0  0  0  0  0  0  0  0
   41.3650   23.6250   33.2690 C   0  0  0  0  0  0  0  0  0  0  0  0
   41.3890   22.7520   32.2190 C   0  0  0  0  0  0  0  0  0  0  0  0
   40.8420   23.1720   31.0190 C   0  0  0  0  0  0  0  0  0  0  0  0
   40.3190   24.4320   30.9720 C   0  0  0  0  0  0  0  0  0  0  0  0
   40.3460   25.1930   32.0430 N   0  0  0  0  0  0  0  0  0  0  0  0
   39.7300   24.9740   29.7960 N   0  0  0  0  0  0  0  0  0  0  0  0
   39.5910   24.2920   28.5250 C   0  0  0  0  0  0  0  0  0  0  0  0
   40.4550   25.1040   27.5480 C   0  0  0  0  0  0  0  0  0  0  0  0
   39.7940   26.3170   27.3950 O   0  0  0  0  0  0  0  0  0  0  0  0
   39.7420   27.0760   28.5370 C   0  0  0  0  0  0  0  0  0  0  0  0
   39.1890   26.3180   29.7440 C   0  0  0  0  0  0  0  0  0  0  0  0
   38.5742   24.6263   34.2695 H   0  0  0  0  0  0  0  0  0  0  0  0
   36.5426   25.4895   34.3931 H   0  0  0  0  0  0  0  0  0  0  0  0
   36.8538   26.3891   35.8788 H   0  0  0  0  0  0  0  0  0  0  0  0
   37.1484   27.2672   33.0866 H   0  0  0  0  0  0  0  0  0  0  0  0
   37.3003   28.2538   34.5622 H   0  0  0  0  0  0  0  0  0  0  0  0
   39.4338   26.9737   32.8941 H   0  0  0  0  0  0  0  0  0  0  0  0
   39.5798   28.3561   33.9707 H   0  0  0  0  0  0  0  0  0  0  0  0
   39.8862   26.9373   35.8996 H   0  0  0  0  0  0  0  0  0  0  0  0
   40.2700   21.9625   37.5113 H   0  0  0  0  0  0  0  0  0  0  0  0
   39.0014   22.6348   39.5905 H   0  0  0  0  0  0  0  0  0  0  0  0
   37.4544   24.6872   39.5075 H   0  0  0  0  0  0  0  0  0  0  0  0
   41.8020   23.2782   34.2170 H   0  0  0  0  0  0  0  0  0  0  0  0
   41.8282   21.7489   32.3235 H   0  0  0  0  0  0  0  0  0  0  0  0
   40.8292   22.5153   30.1366 H   0  0  0  0  0  0  0  0  0  0  0  0
   39.9571   23.2573   28.5983 H   0  0  0  0  0  0  0  0  0  0  0  0
   38.5422   24.2301   28.1993 H   0  0  0  0  0  0  0  0  0  0  0  0
   41.4609   25.2631   27.9638 H   0  0  0  0  0  0  0  0  0  0  0  0
   40.5863   24.5844   26.5874 H   0  0  0  0  0  0  0  0  0  0  0  0
   40.7601   27.4171   28.7758 H   0  0  0  0  0  0  0  0  0  0  0  0
   39.0587   27.9150   28.3390 H   0  0  0  0  0  0  0  0  0  0  0  0
   39.4642   26.8540   30.6643 H   0  0  0  0  0  0  0  0  0  0  0  0
   38.0946   26.2557   29.6518 H   0  0  0  0  0  0  0  0  0  0  0  0
  1 10  1  0
  2  1  1  0
  3  2  1  0
  4  3  1  0
  4  5  1  0
  5  1  1  0
  6  7  2  0
  8  7  1  0
  9  8  2  0
 10 11  2  0
 10  9  1  0
 11  6  1  0
 12  5  1  0
 12 13  2  0
 14 15  2  0
 14 12  1  0
 16 15  1  0
 17 16  2  0
 18 17  1  0
 18 19  2  0
 19 14  1  0
 20 18  1  0
 21 20  1  0
 22 21  1  0
 23 22  1  0
 23 24  1  0
 24 25  1  0
 25 20  1  0
  1 26  1  6
  2 27  1  0
  2 28  1  0
  3 29  1  0
  3 30  1  0
  4 31  1  0
  4 32  1  0
  5 33  1  1
  6 34  1  0
  7 35  1  0
  8 36  1  0
 15 37  1  0
 16 38  1  0
 17 39  1  0
 21 40  1  0
 21 41  1  0
 22 42  1  0
 22 43  1  0
 24 44  1  0
 24 45  1  0
 25 46  1  0
 25 47  1  0
M  ISO  8  26  13  27  13  28  13  29  13  30  13  31  13  32  13  33  13
M  ISO  8  34  14  35  14  36  14  37  14  38  14  39  14  40  13  41  13
M  ISO  6  42  13  43  13  44  13  45  13  46  13  47  13
M  END
>  <minimizedAffinity>  (1) 
-4.77101946

>  <minimizedRMSD>  (1) 
1.93896544

$$$$
