
     RDKit          3D

 44 47  0  0  1  0  0  0  0  0999 V2000
   38.4230   25.4370   35.1240 C   0  0  1  0  0  0  0  0  0  0  0  0
   37.1880   26.1780   35.0540 C   0  0  0  0  0  0  0  0  0  0  0  0
   37.5130   27.4090   34.2210 C   0  0  0  0  0  0  0  0  0  0  0  0
   39.0120   27.4080   33.9700 C   0  0  0  0  0  0  0  0  0  0  0  0
   39.5490   26.4700   34.9910 C   0  0  2  0  0  0  0  0  0  0  0  0
   39.6020   22.8400   37.4540 C   0  0  0  0  0  0  0  0  0  0  0  0
   38.9140   23.1900   38.6700 C   0  0  0  0  0  0  0  0  0  0  0  0
   38.0460   24.3150   38.6860 C   0  0  0  0  0  0  0  0  0  0  0  0
   37.9540   24.9670   37.5020 N   0  0  0  0  0  0  0  0  0  0  0  0
   38.6110   24.6170   36.3790 C   0  0  0  0  0  0  0  0  0  0  0  0
   39.4340   23.5560   36.3500 N   0  0  0  0  0  0  0  0  0  0  0  0
   40.7380   25.7880   34.4180 C   0  0  0  0  0  0  0  0  0  0  0  0
   41.8260   25.7530   34.9970 O   0  0  0  0  0  0  0  0  0  0  0  0
   40.6960   25.1100   33.1200 C   0  0  0  0  0  0  0  0  0  0  0  0
   40.8780   23.7510   33.0150 C   0  0  0  0  0  0  0  0  0  0  0  0
   40.8470   23.0200   31.8600 C   0  0  0  0  0  0  0  0  0  0  0  0
   40.6130   23.6970   30.6820 C   0  0  0  0  0  0  0  0  0  0  0  0
   40.4290   25.0470   30.7430 C   0  0  0  0  0  0  0  0  0  0  0  0
   40.4790   25.6550   31.9130 N   0  0  0  0  0  0  0  0  0  0  0  0
   40.1760   25.8660   29.5620 C   0  0  0  0  0  0  0  0  0  0  0  0
   39.8500   27.2040   29.6110 C   0  0  0  0  0  0  0  0  0  0  0  0
   39.6120   27.9740   28.4930 C   0  0  0  0  0  0  0  0  0  0  0  0
   39.6990   27.3940   27.2450 C   0  0  0  0  0  0  0  0  0  0  0  0
   40.0210   26.0580   27.1240 C   0  0  0  0  0  0  0  0  0  0  0  0
   40.2470   25.3500   28.2850 C   0  0  0  0  0  0  0  0  0  0  0  0
   38.4206   24.6892   34.3173 H   0  0  0  0  0  0  0  0  0  0  0  0
   36.4045   25.5782   34.5678 H   0  0  0  0  0  0  0  0  0  0  0  0
   36.8086   26.4432   36.0518 H   0  0  0  0  0  0  0  0  0  0  0  0
   36.9719   27.3685   33.2641 H   0  0  0  0  0  0  0  0  0  0  0  0
   37.2091   28.3251   34.7486 H   0  0  0  0  0  0  0  0  0  0  0  0
   39.2378   27.0510   32.9543 H   0  0  0  0  0  0  0  0  0  0  0  0
   39.4537   28.4126   34.0452 H   0  0  0  0  0  0  0  0  0  0  0  0
   39.8325   26.9521   35.9382 H   0  0  0  0  0  0  0  0  0  0  0  0
   40.2742   21.9694   37.4406 H   0  0  0  0  0  0  0  0  0  0  0  0
   39.0595   22.5902   39.5806 H   0  0  0  0  0  0  0  0  0  0  0  0
   37.4950   24.6301   39.5844 H   0  0  0  0  0  0  0  0  0  0  0  0
   41.0663   23.2001   33.9483 H   0  0  0  0  0  0  0  0  0  0  0  0
   41.0031   21.9312   31.8703 H   0  0  0  0  0  0  0  0  0  0  0  0
   40.5758   23.1637   29.7206 H   0  0  0  0  0  0  0  0  0  0  0  0
   39.7756   27.6844   30.5977 H   0  0  0  0  0  0  0  0  0  0  0  0
   39.3556   29.0388   28.5950 H   0  0  0  0  0  0  0  0  0  0  0  0
   39.5114   27.9974   26.3446 H   0  0  0  0  0  0  0  0  0  0  0  0
   40.0946   25.5758   26.1381 H   0  0  0  0  0  0  0  0  0  0  0  0
   40.5053   24.2855   28.1846 H   0  0  0  0  0  0  0  0  0  0  0  0
  1 10  1  0
  2  1  1  0
  3  2  1  0
  4  3  1  0
  4  5  1  0
  5  1  1  0
  6  7  2  0
  7  8  1  0
  9  8  2  0
 10  9  1  0
 11 10  2  0
 11  6  1  0
 12  5  1  0
 12 13  2  0
 14 12  1  0
 15 14  2  0
 16 15  1  0
 17 18  1  0
 17 16  2  0
 18 19  2  0
 19 14  1  0
 20 21  2  0
 20 18  1  0
 22 21  1  0
 23 22  2  0
 24 23  1  0
 24 25  2  0
 25 20  1  0
  1 26  1  6
  2 27  1  0
  2 28  1  0
  3 29  1  0
  3 30  1  0
  4 31  1  0
  4 32  1  0
  5 33  1  1
  6 34  1  0
  7 35  1  0
  8 36  1  0
 15 37  1  0
 16 38  1  0
 17 39  1  0
 21 40  1  0
 22 41  1  0
 23 42  1  0
 24 43  1  0
 25 44  1  0
M  ISO  8  26  13  27  13  28  13  29  13  30  13  31  13  32  13  33  13
M  ISO  8  34  14  35  14  36  14  37  14  38  14  39  14  40  14  41  14
M  ISO  3  42  14  43  14  44  14
M  END
>  <minimizedAffinity>  (1) 
-4.68530941

>  <minimizedRMSD>  (1) 
1.63336349

$$$$
