
     RDKit          3D

 41 44  0  0  1  0  0  0  0  0999 V2000
   38.4150   25.4360   35.1020 C   0  0  1  0  0  0  0  0  0  0  0  0
   37.1860   26.1860   35.0460 C   0  0  0  0  0  0  0  0  0  0  0  0
   37.5040   27.4020   34.1880 C   0  0  0  0  0  0  0  0  0  0  0  0
   39.0060   27.4040   33.9390 C   0  0  0  0  0  0  0  0  0  0  0  0
   39.5450   26.4630   34.9530 C   0  0  2  0  0  0  0  0  0  0  0  0
   39.6000   22.8450   37.4360 C   0  0  0  0  0  0  0  0  0  0  0  0
   38.9180   23.2020   38.6470 C   0  0  0  0  0  0  0  0  0  0  0  0
   38.0530   24.3240   38.6650 C   0  0  0  0  0  0  0  0  0  0  0  0
   37.9560   24.9710   37.4830 N   0  0  0  0  0  0  0  0  0  0  0  0
   38.6070   24.6170   36.3580 C   0  0  0  0  0  0  0  0  0  0  0  0
   39.4310   23.5560   36.3240 N   0  0  0  0  0  0  0  0  0  0  0  0
   40.7240   25.7710   34.3720 C   0  0  0  0  0  0  0  0  0  0  0  0
   41.8250   25.7520   34.9330 O   0  0  0  0  0  0  0  0  0  0  0  0
   40.6560   25.0640   33.0930 C   0  0  0  0  0  0  0  0  0  0  0  0
   40.8900   23.7140   33.0040 C   0  0  0  0  0  0  0  0  0  0  0  0
   40.8440   22.9590   31.8660 C   0  0  0  0  0  0  0  0  0  0  0  0
   40.5350   23.5980   30.6750 C   0  0  0  0  0  0  0  0  0  0  0  0
   40.2980   24.9430   30.7310 C   0  0  0  0  0  0  0  0  0  0  0  0
   40.3660   25.5850   31.8830 N   0  0  0  0  0  0  0  0  0  0  0  0
   39.9640   25.7430   29.5570 C   0  0  0  0  0  0  0  0  0  0  0  0
   39.6650   27.0890   29.5900 C   0  0  0  0  0  0  0  0  0  0  0  0
   39.3920   27.5560   28.3180 C   0  0  0  0  0  0  0  0  0  0  0  0
   39.5360   26.4540   27.5300 N   0  0  0  0  0  0  0  0  0  0  0  0
   39.8720   25.3940   28.2680 N   0  0  0  0  0  0  0  0  0  0  0  0
   38.4028   24.6858   34.2976 H   0  0  0  0  0  0  0  0  0  0  0  0
   36.3877   25.5858   34.5849 H   0  0  0  0  0  0  0  0  0  0  0  0
   36.8294   26.4693   36.0473 H   0  0  0  0  0  0  0  0  0  0  0  0
   36.9645   27.3386   33.2315 H   0  0  0  0  0  0  0  0  0  0  0  0
   37.1935   28.3272   34.6956 H   0  0  0  0  0  0  0  0  0  0  0  0
   39.2332   27.0531   32.9215 H   0  0  0  0  0  0  0  0  0  0  0  0
   39.4453   28.4091   34.0216 H   0  0  0  0  0  0  0  0  0  0  0  0
   39.8401   26.9469   35.8957 H   0  0  0  0  0  0  0  0  0  0  0  0
   40.2706   21.9731   37.4268 H   0  0  0  0  0  0  0  0  0  0  0  0
   39.0664   22.6058   39.5594 H   0  0  0  0  0  0  0  0  0  0  0  0
   37.5066   24.6415   39.5653 H   0  0  0  0  0  0  0  0  0  0  0  0
   41.1384   23.1898   33.9386 H   0  0  0  0  0  0  0  0  0  0  0  0
   41.0458   21.8780   31.8940 H   0  0  0  0  0  0  0  0  0  0  0  0
   40.4828   23.0458   29.7251 H   0  0  0  0  0  0  0  0  0  0  0  0
   39.6464   27.7048   30.5013 H   0  0  0  0  0  0  0  0  0  0  0  0
   39.1218   28.5779   28.0134 H   0  0  0  0  0  0  0  0  0  0  0  0
   39.4041   26.4408   26.5086 H   0  0  0  0  0  0  0  0  0  0  0  0
  1 10  1  0
  2  1  1  0
  3  2  1  0
  4  3  1  0
  4  5  1  0
  5  1  1  0
  6  7  2  0
  7  8  1  0
  9  8  2  0
 10  9  1  0
 11 10  2  0
 11  6  1  0
 12 13  2  0
 12  5  1  0
 14 12  1  0
 15 14  2  0
 16 15  1  0
 17 18  1  0
 17 16  2  0
 18 19  2  0
 19 14  1  0
 20 21  1  0
 20 18  1  0
 22 21  2  0
 23 24  1  0
 23 22  1  0
 24 20  2  0
  1 25  1  6
  2 26  1  0
  2 27  1  0
  3 28  1  0
  3 29  1  0
  4 30  1  0
  4 31  1  0
  5 32  1  1
  6 33  1  0
  7 34  1  0
  8 35  1  0
 15 36  1  0
 16 37  1  0
 17 38  1  0
 21 39  1  0
 22 40  1  0
 23 41  1  0
M  ISO  8  25  13  26  13  27  13  28  13  29  13  30  13  31  13  32  13
M  ISO  8  33  14  34  14  35  14  36  14  37  14  38  14  39  14  40  14
M  ISO  1  41   9
M  END
>  <minimizedAffinity>  (1) 
-4.68520355

>  <minimizedRMSD>  (1) 
1.57540035

$$$$
