
     RDKit          3D

 42 45  0  0  1  0  0  0  0  0999 V2000
   38.3530   25.4870   35.1930 C   0  0  1  0  0  0  0  0  0  0  0  0
   37.1240   26.2380   35.1730 C   0  0  0  0  0  0  0  0  0  0  0  0
   37.4370   27.4880   34.3600 C   0  0  0  0  0  0  0  0  0  0  0  0
   38.9290   27.4780   34.0630 C   0  0  0  0  0  0  0  0  0  0  0  0
   39.4860   26.5100   35.0410 C   0  0  2  0  0  0  0  0  0  0  0  0
   39.5890   22.8390   37.4330 C   0  0  0  0  0  0  0  0  0  0  0  0
   38.9360   23.1670   38.6660 C   0  0  0  0  0  0  0  0  0  0  0  0
   38.0750   24.2840   38.7360 C   0  0  0  0  0  0  0  0  0  0  0  0
   37.9400   24.9740   37.5730 N   0  0  0  0  0  0  0  0  0  0  0  0
   38.5720   24.6380   36.4230 C   0  0  0  0  0  0  0  0  0  0  0  0
   39.3940   23.5760   36.3480 N   0  0  0  0  0  0  0  0  0  0  0  0
   40.6440   25.8240   34.4120 C   0  0  0  0  0  0  0  0  0  0  0  0
   41.7550   25.7700   34.9490 O   0  0  0  0  0  0  0  0  0  0  0  0
   40.5430   25.1670   33.1090 C   0  0  0  0  0  0  0  0  0  0  0  0
   40.6940   23.8100   32.9750 C   0  0  0  0  0  0  0  0  0  0  0  0
   40.6110   23.0970   31.8100 C   0  0  0  0  0  0  0  0  0  0  0  0
   40.3520   23.7920   30.6380 C   0  0  0  0  0  0  0  0  0  0  0  0
   40.1990   25.1460   30.7410 C   0  0  0  0  0  0  0  0  0  0  0  0
   40.2970   25.7350   31.9120 N   0  0  0  0  0  0  0  0  0  0  0  0
   39.9220   26.0260   29.6030 C   0  0  0  0  0  0  0  0  0  0  0  0
   39.3260   27.2610   29.7490 C   0  0  0  0  0  0  0  0  0  0  0  0
   39.0440   28.1260   28.7210 C   0  0  0  0  0  0  0  0  0  0  0  0
   39.3710   27.7500   27.4680 N   0  0  0  0  0  0  0  0  0  0  0  0
   39.9580   26.5410   27.3050 C   0  0  0  0  0  0  0  0  0  0  0  0
   40.2200   25.7190   28.3330 N   0  0  0  0  0  0  0  0  0  0  0  0
   38.3175   24.7548   34.3729 H   0  0  0  0  0  0  0  0  0  0  0  0
   36.3232   25.6558   34.6936 H   0  0  0  0  0  0  0  0  0  0  0  0
   36.7732   26.4822   36.1866 H   0  0  0  0  0  0  0  0  0  0  0  0
   36.8667   27.4770   33.4195 H   0  0  0  0  0  0  0  0  0  0  0  0
   37.1591   28.3937   34.9190 H   0  0  0  0  0  0  0  0  0  0  0  0
   39.1198   27.1451   33.0321 H   0  0  0  0  0  0  0  0  0  0  0  0
   39.3837   28.4758   34.1505 H   0  0  0  0  0  0  0  0  0  0  0  0
   39.8079   26.9688   35.9875 H   0  0  0  0  0  0  0  0  0  0  0  0
   40.2584   21.9674   37.3863 H   0  0  0  0  0  0  0  0  0  0  0  0
   39.1058   22.5477   39.5591 H   0  0  0  0  0  0  0  0  0  0  0  0
   37.5538   24.5733   39.6605 H   0  0  0  0  0  0  0  0  0  0  0  0
   40.9019   23.2401   33.8926 H   0  0  0  0  0  0  0  0  0  0  0  0
   40.7457   22.0053   31.8032 H   0  0  0  0  0  0  0  0  0  0  0  0
   40.2733   23.2766   29.6694 H   0  0  0  0  0  0  0  0  0  0  0  0
   39.0558   27.5773   30.7673 H   0  0  0  0  0  0  0  0  0  0  0  0
   38.5653   29.0974   28.9138 H   0  0  0  0  0  0  0  0  0  0  0  0
   40.2312   26.2195   26.2891 H   0  0  0  0  0  0  0  0  0  0  0  0
  1 10  1  0
  2  1  1  0
  3  2  1  0
  4  3  1  0
  4  5  1  0
  5  1  1  0
  6  7  2  0
  7  8  1  0
  9  8  2  0
 10  9  1  0
 11 10  2  0
 11  6  1  0
 12 13  2  0
 12  5  1  0
 14 12  1  0
 15 14  2  0
 16 15  1  0
 17 18  1  0
 17 16  2  0
 18 19  2  0
 19 14  1  0
 20 21  2  0
 20 18  1  0
 22 21  1  0
 23 22  2  0
 24 23  1  0
 24 25  2  0
 25 20  1  0
  1 26  1  6
  2 27  1  0
  2 28  1  0
  3 29  1  0
  3 30  1  0
  4 31  1  0
  4 32  1  0
  5 33  1  1
  6 34  1  0
  7 35  1  0
  8 36  1  0
 15 37  1  0
 16 38  1  0
 17 39  1  0
 21 40  1  0
 22 41  1  0
 24 42  1  0
M  ISO  8  26  13  27  13  28  13  29  13  30  13  31  13  32  13  33  13
M  ISO  8  34  14  35  14  36  14  37  14  38  14  39  14  40  14  41  14
M  ISO  1  42  14
M  END
>  <minimizedAffinity>  (1) 
-4.67464685

>  <minimizedRMSD>  (1) 
1.73731315

$$$$
