
     RDKit          3D

 41 44  0  0  1  0  0  0  0  0999 V2000
   38.4240   25.4390   35.1140 C   0  0  1  0  0  0  0  0  0  0  0  0
   37.1860   26.1730   35.0460 C   0  0  0  0  0  0  0  0  0  0  0  0
   37.4990   27.4070   34.2160 C   0  0  0  0  0  0  0  0  0  0  0  0
   39.0020   27.4200   33.9760 C   0  0  0  0  0  0  0  0  0  0  0  0
   39.5450   26.4790   34.9870 C   0  0  2  0  0  0  0  0  0  0  0  0
   39.6050   22.8420   37.4410 C   0  0  0  0  0  0  0  0  0  0  0  0
   38.9230   23.1900   38.6560 C   0  0  0  0  0  0  0  0  0  0  0  0
   38.0640   24.3050   38.6750 C   0  0  0  0  0  0  0  0  0  0  0  0
   37.9530   24.9770   37.4970 N   0  0  0  0  0  0  0  0  0  0  0  0
   38.6160   24.6160   36.3670 C   0  0  0  0  0  0  0  0  0  0  0  0
   39.4410   23.5550   36.3270 N   0  0  0  0  0  0  0  0  0  0  0  0
   40.7360   25.8040   34.4100 C   0  0  0  0  0  0  0  0  0  0  0  0
   41.8270   25.7760   34.9860 O   0  0  0  0  0  0  0  0  0  0  0  0
   40.6930   25.1250   33.1130 C   0  0  0  0  0  0  0  0  0  0  0  0
   40.8720   23.7660   33.0080 C   0  0  0  0  0  0  0  0  0  0  0  0
   40.8420   23.0380   31.8530 C   0  0  0  0  0  0  0  0  0  0  0  0
   40.6140   23.7130   30.6640 C   0  0  0  0  0  0  0  0  0  0  0  0
   40.4340   25.0660   30.7370 C   0  0  0  0  0  0  0  0  0  0  0  0
   40.4780   25.6810   31.9030 N   0  0  0  0  0  0  0  0  0  0  0  0
   40.1910   25.8970   29.6070 N   0  0  0  0  0  0  0  0  0  0  0  0
   41.0050   25.6020   28.5890 N   0  0  0  0  0  0  0  0  0  0  0  0
   40.7510   26.4030   27.5400 C   0  0  0  0  0  0  0  0  0  0  0  0
   39.7110   27.2470   27.9410 C   0  0  0  0  0  0  0  0  0  0  0  0
   39.3820   26.9070   29.2390 C   0  0  0  0  0  0  0  0  0  0  0  0
   38.4259   24.6945   34.3042 H   0  0  0  0  0  0  0  0  0  0  0  0
   36.4057   25.5690   34.5599 H   0  0  0  0  0  0  0  0  0  0  0  0
   36.8081   26.4349   36.0453 H   0  0  0  0  0  0  0  0  0  0  0  0
   36.9646   27.3605   33.2557 H   0  0  0  0  0  0  0  0  0  0  0  0
   37.1797   28.3203   34.7393 H   0  0  0  0  0  0  0  0  0  0  0  0
   39.2367   27.0757   32.9580 H   0  0  0  0  0  0  0  0  0  0  0  0
   39.4326   28.4281   34.0673 H   0  0  0  0  0  0  0  0  0  0  0  0
   39.8284   26.9579   35.9359 H   0  0  0  0  0  0  0  0  0  0  0  0
   40.2757   21.9702   37.4296 H   0  0  0  0  0  0  0  0  0  0  0  0
   39.0709   22.5893   39.5656 H   0  0  0  0  0  0  0  0  0  0  0  0
   37.5197   24.6121   39.5802 H   0  0  0  0  0  0  0  0  0  0  0  0
   41.0566   23.2136   33.9412 H   0  0  0  0  0  0  0  0  0  0  0  0
   40.9942   21.9487   31.8658 H   0  0  0  0  0  0  0  0  0  0  0  0
   40.5793   23.1818   29.7014 H   0  0  0  0  0  0  0  0  0  0  0  0
   41.2584   26.3959   26.5640 H   0  0  0  0  0  0  0  0  0  0  0  0
   39.2415   28.0359   27.3350 H   0  0  0  0  0  0  0  0  0  0  0  0
   38.6024   27.3756   29.8575 H   0  0  0  0  0  0  0  0  0  0  0  0
  1 10  1  0
  2  1  1  0
  3  2  1  0
  4  3  1  0
  4  5  1  0
  5  1  1  0
  6  7  2  0
  7  8  1  0
  9  8  2  0
 10  9  1  0
 11 10  2  0
 11  6  1  0
 12 13  2  0
 12  5  1  0
 14 12  1  0
 15 14  2  0
 16 15  1  0
 17 18  1  0
 17 16  2  0
 18 19  2  0
 19 14  1  0
 20 18  1  0
 21 20  1  0
 22 23  1  0
 22 21  2  0
 23 24  2  0
 24 20  1  0
  1 25  1  6
  2 26  1  0
  2 27  1  0
  3 28  1  0
  3 29  1  0
  4 30  1  0
  4 31  1  0
  5 32  1  1
  6 33  1  0
  7 34  1  0
  8 35  1  0
 15 36  1  0
 16 37  1  0
 17 38  1  0
 22 39  1  0
 23 40  1  0
 24 41  1  0
M  ISO  8  25  13  26  13  27  13  28  13  29  13  30  13  31  13  32  13
M  ISO  8  33  14  34  14  35  14  36  14  37  14  38  14  39  14  40  14
M  ISO  1  41  14
M  END
>  <minimizedAffinity>  (1) 
-4.58114433

>  <minimizedRMSD>  (1) 
1.4051429

$$$$
