
     RDKit          3D

 39 42  0  0  1  0  0  0  0  0999 V2000
   38.3350   25.4960   35.1200 C   0  0  1  0  0  0  0  0  0  0  0  0
   37.0930   26.2260   35.1320 C   0  0  0  0  0  0  0  0  0  0  0  0
   37.3710   27.4930   34.3340 C   0  0  0  0  0  0  0  0  0  0  0  0
   38.8620   27.5210   34.0240 C   0  0  0  0  0  0  0  0  0  0  0  0
   39.4460   26.5440   34.9780 C   0  0  2  0  0  0  0  0  0  0  0  0
   39.6520   22.8340   37.2950 C   0  0  0  0  0  0  0  0  0  0  0  0
   39.0010   23.1190   38.5390 C   0  0  0  0  0  0  0  0  0  0  0  0
   38.1100   24.2140   38.6420 C   0  0  0  0  0  0  0  0  0  0  0  0
   37.9490   24.9260   37.4940 N   0  0  0  0  0  0  0  0  0  0  0  0
   38.5840   24.6270   36.3300 C   0  0  0  0  0  0  0  0  0  0  0  0
   39.4310   23.5890   36.2240 N   0  0  0  0  0  0  0  0  0  0  0  0
   40.6130   25.8930   34.3260 C   0  0  0  0  0  0  0  0  0  0  0  0
   41.7330   25.8640   34.8440 O   0  0  0  0  0  0  0  0  0  0  0  0
   40.5080   25.2420   33.0180 C   0  0  0  0  0  0  0  0  0  0  0  0
   40.6760   23.8860   32.8690 C   0  0  0  0  0  0  0  0  0  0  0  0
   40.5890   23.1890   31.7030 C   0  0  0  0  0  0  0  0  0  0  0  0
   40.3070   23.8910   30.5390 C   0  0  0  0  0  0  0  0  0  0  0  0
   40.1370   25.2430   30.6560 C   0  0  0  0  0  0  0  0  0  0  0  0
   40.2400   25.8350   31.8370 N   0  0  0  0  0  0  0  0  0  0  0  0
   39.8370   26.1330   29.5370 C   0  0  0  0  0  0  0  0  0  0  0  0
   39.1740   27.3030   29.4760 N   0  0  0  0  0  0  0  0  0  0  0  0
   39.1470   27.7530   28.2560 O   0  0  0  0  0  0  0  0  0  0  0  0
   39.7810   26.9120   27.4730 C   0  0  0  0  0  0  0  0  0  0  0  0
   40.2260   25.8820   28.2510 N   0  0  0  0  0  0  0  0  0  0  0  0
   38.3035   24.7803   34.2852 H   0  0  0  0  0  0  0  0  0  0  0  0
   36.2944   25.6375   34.6568 H   0  0  0  0  0  0  0  0  0  0  0  0
   36.7551   26.4485   36.1549 H   0  0  0  0  0  0  0  0  0  0  0  0
   36.7930   27.4818   33.3982 H   0  0  0  0  0  0  0  0  0  0  0  0
   37.0778   28.3844   34.9079 H   0  0  0  0  0  0  0  0  0  0  0  0
   39.0511   27.2137   32.9849 H   0  0  0  0  0  0  0  0  0  0  0  0
   39.2971   28.5259   34.1279 H   0  0  0  0  0  0  0  0  0  0  0  0
   39.7667   26.9906   35.9307 H   0  0  0  0  0  0  0  0  0  0  0  0
   40.3426   21.9806   37.2256 H   0  0  0  0  0  0  0  0  0  0  0  0
   39.1942   22.4849   39.4168 H   0  0  0  0  0  0  0  0  0  0  0  0
   37.5889   24.4691   39.5765 H   0  0  0  0  0  0  0  0  0  0  0  0
   40.9022   23.3094   33.7781 H   0  0  0  0  0  0  0  0  0  0  0  0
   40.7381   22.0993   31.6836 H   0  0  0  0  0  0  0  0  0  0  0  0
   40.2241   23.3830   29.5669 H   0  0  0  0  0  0  0  0  0  0  0  0
   39.9272   27.0176   26.3879 H   0  0  0  0  0  0  0  0  0  0  0  0
  1  2  1  0
  1 10  1  0
  3  2  1  0
  4  3  1  0
  4  5  1  0
  5  1  1  0
  6  7  2  0
  7  8  1  0
  9  8  2  0
 10  9  1  0
 11 10  2  0
 11  6  1  0
 12 13  2  0
 12  5  1  0
 14 12  1  0
 15 14  2  0
 16 15  1  0
 17 18  1  0
 17 16  2  0
 18 19  2  0
 19 14  1  0
 20 18  1  0
 21 20  2  0
 22 21  1  0
 23 24  2  0
 23 22  1  0
 24 20  1  0
  1 25  1  6
  2 26  1  0
  2 27  1  0
  3 28  1  0
  3 29  1  0
  4 30  1  0
  4 31  1  0
  5 32  1  1
  6 33  1  0
  7 34  1  0
  8 35  1  0
 15 36  1  0
 16 37  1  0
 17 38  1  0
 23 39  1  0
M  ISO  8  25  13  26  13  27  13  28  13  29  13  30  13  31  13  32  13
M  ISO  7  33  14  34  14  35  14  36  14  37  14  38  14  39  14
M  END
>  <minimizedAffinity>  (1) 
-4.46679544

>  <minimizedRMSD>  (1) 
1.66790676

$$$$
