
     RDKit          3D

 43 45  0  0  1  0  0  0  0  0999 V2000
   38.6210   25.3490   34.9800 C   0  0  1  0  0  0  0  0  0  0  0  0
   37.3940   26.0790   34.7870 C   0  0  0  0  0  0  0  0  0  0  0  0
   37.7740   27.2720   33.9210 C   0  0  0  0  0  0  0  0  0  0  0  0
   39.2930   27.2730   33.7910 C   0  0  0  0  0  0  0  0  0  0  0  0
   39.7530   26.3790   34.8820 C   0  0  2  0  0  0  0  0  0  0  0  0
   39.6020   22.8450   37.4980 C   0  0  0  0  0  0  0  0  0  0  0  0
   38.8510   23.2600   38.6480 C   0  0  0  0  0  0  0  0  0  0  0  0
   38.0100   24.3970   38.5570 C   0  0  0  0  0  0  0  0  0  0  0  0
   37.9890   25.0110   37.3490 N   0  0  0  0  0  0  0  0  0  0  0  0
   38.7180   24.5850   36.2810 C   0  0  0  0  0  0  0  0  0  0  0  0
   39.5220   23.5090   36.3470 N   0  0  0  0  0  0  0  0  0  0  0  0
   40.9780   25.6740   34.4240 C   0  0  0  0  0  0  0  0  0  0  0  0
   42.0560   25.7670   35.0190 O   0  0  0  0  0  0  0  0  0  0  0  0
   40.9850   24.8190   33.2350 C   0  0  0  0  0  0  0  0  0  0  0  0
   41.3750   23.5030   33.2960 C   0  0  0  0  0  0  0  0  0  0  0  0
   41.4100   22.6240   32.2520 C   0  0  0  0  0  0  0  0  0  0  0  0
   41.0200   23.0800   31.0030 C   0  0  0  0  0  0  0  0  0  0  0  0
   40.6280   24.3860   30.9110 C   0  0  0  0  0  0  0  0  0  0  0  0
   40.6280   25.1570   31.9780 N   0  0  0  0  0  0  0  0  0  0  0  0
   40.2030   24.9240   29.5910 C   0  0  0  0  0  0  0  0  0  0  0  0
   39.3680   26.1970   29.7660 C   0  0  0  0  0  0  0  0  0  0  0  0
   39.3310   23.9470   28.8320 C   0  0  0  0  0  0  0  0  0  0  0  0
   38.6784   24.5663   34.2093 H   0  0  0  0  0  0  0  0  0  0  0  0
   36.6483   25.4525   34.2756 H   0  0  0  0  0  0  0  0  0  0  0  0
   36.9447   26.3894   35.7419 H   0  0  0  0  0  0  0  0  0  0  0  0
   37.3113   27.1784   32.9274 H   0  0  0  0  0  0  0  0  0  0  0  0
   37.4216   28.2101   34.3745 H   0  0  0  0  0  0  0  0  0  0  0  0
   39.6007   26.8816   32.8101 H   0  0  0  0  0  0  0  0  0  0  0  0
   39.7213   28.2834   33.8658 H   0  0  0  0  0  0  0  0  0  0  0  0
   39.9684   26.9023   35.8253 H   0  0  0  0  0  0  0  0  0  0  0  0
   40.2552   21.9628   37.5687 H   0  0  0  0  0  0  0  0  0  0  0  0
   38.9274   22.7005   39.5920 H   0  0  0  0  0  0  0  0  0  0  0  0
   37.4146   24.7568   39.4091 H   0  0  0  0  0  0  0  0  0  0  0  0
   41.6887   23.1216   34.2789 H   0  0  0  0  0  0  0  0  0  0  0  0
   41.7382   21.5843   32.3980 H   0  0  0  0  0  0  0  0  0  0  0  0
   41.0257   22.4193   30.1235 H   0  0  0  0  0  0  0  0  0  0  0  0
   41.1316   25.1202   29.0349 H   0  0  0  0  0  0  0  0  0  0  0  0
   39.2332   26.4026   30.8382 H   0  0  0  0  0  0  0  0  0  0  0  0
   39.8867   27.0437   29.2927 H   0  0  0  0  0  0  0  0  0  0  0  0
   38.3847   26.0585   29.2927 H   0  0  0  0  0  0  0  0  0  0  0  0
   38.7735   23.3223   29.5454 H   0  0  0  0  0  0  0  0  0  0  0  0
   38.6228   24.5024   28.1995 H   0  0  0  0  0  0  0  0  0  0  0  0
   39.9630   23.3063   28.1995 H   0  0  0  0  0  0  0  0  0  0  0  0
  1 10  1  0
  2  1  1  0
  3  2  1  0
  4  3  1  0
  4  5  1  0
  5  1  1  0
  6  7  2  0
  8  7  1  0
  9  8  2  0
 10 11  2  0
 10  9  1  0
 11  6  1  0
 12  5  1  0
 12 13  2  0
 14 15  2  0
 14 12  1  0
 16 15  1  0
 17 16  2  0
 18 17  1  0
 18 19  2  0
 19 14  1  0
 20 21  1  0
 20 18  1  0
 22 20  1  0
  1 23  1  6
  2 24  1  0
  2 25  1  0
  3 26  1  0
  3 27  1  0
  4 28  1  0
  4 29  1  0
  5 30  1  1
  6 31  1  0
  7 32  1  0
  8 33  1  0
 15 34  1  0
 16 35  1  0
 17 36  1  0
 20 37  1  0
 21 38  1  0
 21 39  1  0
 21 40  1  0
 22 41  1  0
 22 42  1  0
 22 43  1  0
M  ISO  8  23  13  24  13  25  13  26  13  27  13  28  13  29  13  30  13
M  ISO  8  31  14  32  14  33  14  34  14  35  14  36  14  37   8  38   8
M  ISO  5  39   8  40   8  41   8  42   8  43   8
M  END
>  <minimizedAffinity>  (1) 
-4.25764799

>  <minimizedRMSD>  (1) 
1.1153121

$$$$
