
     RDKit          3D

 40 42  0  0  1  0  0  0  0  0999 V2000
   38.4590   25.4110   35.0930 C   0  0  1  0  0  0  0  0  0  0  0  0
   37.2260   26.1480   34.9890 C   0  0  0  0  0  0  0  0  0  0  0  0
   37.5640   27.3680   34.1440 C   0  0  0  0  0  0  0  0  0  0  0  0
   39.0710   27.3700   33.9270 C   0  0  0  0  0  0  0  0  0  0  0  0
   39.5880   26.4420   34.9620 C   0  0  2  0  0  0  0  0  0  0  0  0
   39.5950   22.8440   37.4760 C   0  0  0  0  0  0  0  0  0  0  0  0
   38.8900   23.2190   38.6800 C   0  0  0  0  0  0  0  0  0  0  0  0
   38.0330   24.3430   38.6640 C   0  0  0  0  0  0  0  0  0  0  0  0
   37.9570   24.9800   37.4720 N   0  0  0  0  0  0  0  0  0  0  0  0
   38.6250   24.6100   36.3620 C   0  0  0  0  0  0  0  0  0  0  0  0
   39.4440   23.5430   36.3620 N   0  0  0  0  0  0  0  0  0  0  0  0
   40.7830   25.7510   34.4160 C   0  0  0  0  0  0  0  0  0  0  0  0
   41.9010   25.8430   34.9390 O   0  0  0  0  0  0  0  0  0  0  0  0
   40.7200   24.9150   33.2200 C   0  0  0  0  0  0  0  0  0  0  0  0
   41.2020   23.6290   33.2190 C   0  0  0  0  0  0  0  0  0  0  0  0
   41.1890   22.7600   32.1610 C   0  0  0  0  0  0  0  0  0  0  0  0
   40.6410   23.2010   30.9690 C   0  0  0  0  0  0  0  0  0  0  0  0
   40.1520   24.4770   30.9360 C   0  0  0  0  0  0  0  0  0  0  0  0
   40.2120   25.2390   32.0130 N   0  0  0  0  0  0  0  0  0  0  0  0
   39.5290   25.1270   29.7490 C   0  0  0  0  0  0  0  0  0  0  0  0
   38.9350   26.4620   30.1840 C   0  0  0  0  0  0  0  0  0  0  0  0
   38.4711   24.6508   34.2980 H   0  0  0  0  0  0  0  0  0  0  0  0
   36.4527   25.5397   34.4972 H   0  0  0  0  0  0  0  0  0  0  0  0
   36.8280   26.4272   35.9757 H   0  0  0  0  0  0  0  0  0  0  0  0
   37.0451   27.3100   33.1758 H   0  0  0  0  0  0  0  0  0  0  0  0
   37.2438   28.2909   34.6498 H   0  0  0  0  0  0  0  0  0  0  0  0
   39.3206   27.0082   32.9186 H   0  0  0  0  0  0  0  0  0  0  0  0
   39.5073   28.3766   34.0074 H   0  0  0  0  0  0  0  0  0  0  0  0
   39.8574   26.9355   35.9075 H   0  0  0  0  0  0  0  0  0  0  0  0
   40.2630   21.9701   37.4851 H   0  0  0  0  0  0  0  0  0  0  0  0
   39.0192   22.6340   39.6026 H   0  0  0  0  0  0  0  0  0  0  0  0
   37.4720   24.6740   39.5504 H   0  0  0  0  0  0  0  0  0  0  0  0
   41.6407   23.2618   34.1585 H   0  0  0  0  0  0  0  0  0  0  0  0
   41.6007   21.7443   32.2553 H   0  0  0  0  0  0  0  0  0  0  0  0
   40.6006   22.5502   30.0831 H   0  0  0  0  0  0  0  0  0  0  0  0
   38.7347   24.4811   29.3466 H   0  0  0  0  0  0  0  0  0  0  0  0
   40.2859   25.2883   28.9673 H   0  0  0  0  0  0  0  0  0  0  0  0
   38.9124   26.5127   31.2826 H   0  0  0  0  0  0  0  0  0  0  0  0
   39.5526   27.2834   29.7916 H   0  0  0  0  0  0  0  0  0  0  0  0
   37.9114   26.5531   29.7916 H   0  0  0  0  0  0  0  0  0  0  0  0
  1 10  1  0
  2  1  1  0
  3  2  1  0
  4  3  1  0
  4  5  1  0
  5  1  1  0
  6  7  2  0
  8  7  1  0
  9  8  2  0
 10  9  1  0
 11 10  2  0
 11  6  1  0
 12 13  2  0
 12  5  1  0
 14 12  1  0
 15 14  2  0
 16 15  1  0
 17 16  2  0
 18 17  1  0
 18 19  2  0
 19 14  1  0
 20 21  1  0
 20 18  1  0
  1 22  1  6
  2 23  1  0
  2 24  1  0
  3 25  1  0
  3 26  1  0
  4 27  1  0
  4 28  1  0
  5 29  1  1
  6 30  1  0
  7 31  1  0
  8 32  1  0
 15 33  1  0
 16 34  1  0
 17 35  1  0
 20 36  1  0
 20 37  1  0
 21 38  1  0
 21 39  1  0
 21 40  1  0
M  ISO  8  22  13  23  13  24  13  25  13  26  13  27  13  28  13  29  13
M  ISO  8  30  14  31  14  32  14  33  14  34  14  35  14  36   8  37   8
M  ISO  3  38   8  39   8  40   8
M  END
>  <minimizedAffinity>  (1) 
-4.10457802

>  <minimizedRMSD>  (1) 
1.1017977

$$$$
