
     RDKit          3D

 37 39  0  0  1  0  0  0  0  0999 V2000
   38.7540   25.2580   34.8610 C   0  0  1  0  0  0  0  0  0  0  0  0
   37.5220   25.9400   34.5580 C   0  0  0  0  0  0  0  0  0  0  0  0
   37.9240   27.1230   33.6890 C   0  0  0  0  0  0  0  0  0  0  0  0
   39.4460   27.1670   33.6590 C   0  0  0  0  0  0  0  0  0  0  0  0
   39.8590   26.3210   34.8060 C   0  0  2  0  0  0  0  0  0  0  0  0
   39.6050   22.8310   37.4960 C   0  0  0  0  0  0  0  0  0  0  0  0
   38.8070   23.2900   38.6010 C   0  0  0  0  0  0  0  0  0  0  0  0
   37.9770   24.4310   38.4390 C   0  0  0  0  0  0  0  0  0  0  0  0
   38.0170   25.0030   37.2050 N   0  0  0  0  0  0  0  0  0  0  0  0
   38.7870   24.5350   36.1860 C   0  0  0  0  0  0  0  0  0  0  0  0
   39.5790   23.4560   36.3220 N   0  0  0  0  0  0  0  0  0  0  0  0
   41.1340   25.6430   34.4560 C   0  0  0  0  0  0  0  0  0  0  0  0
   42.1040   25.6170   35.2190 O   0  0  0  0  0  0  0  0  0  0  0  0
   41.3220   24.9590   33.1720 C   0  0  0  0  0  0  0  0  0  0  0  0
   41.0710   23.6150   33.0300 C   0  0  0  0  0  0  0  0  0  0  0  0
   41.2060   22.8910   31.8820 C   0  0  0  0  0  0  0  0  0  0  0  0
   41.6360   23.5480   30.7370 C   0  0  0  0  0  0  0  0  0  0  0  0
   41.8940   24.8860   30.8520 C   0  0  0  0  0  0  0  0  0  0  0  0
   41.7330   25.5070   32.0100 N   0  0  0  0  0  0  0  0  0  0  0  0
   42.3620   25.7460   29.7320 C   0  0  0  0  0  0  0  0  0  0  0  0
   38.8865   24.4538   34.1223 H   0  0  0  0  0  0  0  0  0  0  0  0
   36.8373   25.2749   34.0114 H   0  0  0  0  0  0  0  0  0  0  0  0
   36.9942   26.2595   35.4687 H   0  0  0  0  0  0  0  0  0  0  0  0
   37.5311   26.9921   32.6699 H   0  0  0  0  0  0  0  0  0  0  0  0
   37.5154   28.0604   34.0944 H   0  0  0  0  0  0  0  0  0  0  0  0
   39.8293   26.7559   32.7134 H   0  0  0  0  0  0  0  0  0  0  0  0
   39.8387   28.1921   33.7295 H   0  0  0  0  0  0  0  0  0  0  0  0
   39.9944   26.8794   35.7440 H   0  0  0  0  0  0  0  0  0  0  0  0
   40.2480   21.9477   37.6239 H   0  0  0  0  0  0  0  0  0  0  0  0
   38.8393   22.7610   39.5649 H   0  0  0  0  0  0  0  0  0  0  0  0
   37.3479   24.8235   39.2515 H   0  0  0  0  0  0  0  0  0  0  0  0
   40.7298   23.0735   33.9246 H   0  0  0  0  0  0  0  0  0  0  0  0
   40.9801   21.8146   31.8638 H   0  0  0  0  0  0  0  0  0  0  0  0
   41.7632   23.0171   29.7820 H   0  0  0  0  0  0  0  0  0  0  0  0
   42.8506   26.6438   30.1385 H   0  0  0  0  0  0  0  0  0  0  0  0
   43.0796   25.1858   29.1147 H   0  0  0  0  0  0  0  0  0  0  0  0
   41.5018   26.0444   29.1147 H   0  0  0  0  0  0  0  0  0  0  0  0
  1 10  1  0
  2  1  1  0
  3  2  1  0
  4  3  1  0
  4  5  1  0
  5  1  1  0
  6  7  2  0
  8  7  1  0
  9  8  2  0
 10 11  2  0
 10  9  1  0
 11  6  1  0
 12  5  1  0
 12 13  2  0
 14 12  1  0
 15 14  2  0
 16 15  1  0
 17 18  1  0
 17 16  2  0
 18 19  2  0
 19 14  1  0
 20 18  1  0
  1 21  1  6
  2 22  1  0
  2 23  1  0
  3 24  1  0
  3 25  1  0
  4 26  1  0
  4 27  1  0
  5 28  1  1
  6 29  1  0
  7 30  1  0
  8 31  1  0
 15 32  1  0
 16 33  1  0
 17 34  1  0
 20 35  1  0
 20 36  1  0
 20 37  1  0
M  ISO  8  21  13  22  13  23  13  24  13  25  13  26  13  27  13  28  13
M  ISO  8  29  14  30  14  31  14  32  14  33  14  34  14  35   8  36   8
M  ISO  1  37   8
M  END
>  <minimizedAffinity>  (1) 
-4.10065317

>  <minimizedRMSD>  (1) 
0.0172048844

$$$$
