
     RDKit          3D

 35 37  0  0  1  0  0  0  0  0999 V2000
   38.7540   25.2570   34.8610 C   0  0  1  0  0  0  0  0  0  0  0  0
   37.5210   25.9380   34.5580 C   0  0  0  0  0  0  0  0  0  0  0  0
   37.9260   27.1180   33.6850 C   0  0  0  0  0  0  0  0  0  0  0  0
   39.4480   27.1640   33.6580 C   0  0  0  0  0  0  0  0  0  0  0  0
   39.8580   26.3190   34.8070 C   0  0  2  0  0  0  0  0  0  0  0  0
   39.6060   22.8310   37.5020 C   0  0  0  0  0  0  0  0  0  0  0  0
   38.8040   23.2930   38.6040 C   0  0  0  0  0  0  0  0  0  0  0  0
   37.9770   24.4280   38.4370 C   0  0  0  0  0  0  0  0  0  0  0  0
   38.0140   25.0020   37.2070 N   0  0  0  0  0  0  0  0  0  0  0  0
   38.7860   24.5350   36.1880 C   0  0  0  0  0  0  0  0  0  0  0  0
   39.5790   23.4570   36.3260 N   0  0  0  0  0  0  0  0  0  0  0  0
   41.1330   25.6420   34.4580 C   0  0  0  0  0  0  0  0  0  0  0  0
   42.1020   25.6150   35.2240 O   0  0  0  0  0  0  0  0  0  0  0  0
   41.3270   24.9600   33.1790 C   0  0  0  0  0  0  0  0  0  0  0  0
   41.0640   23.6200   33.0300 C   0  0  0  0  0  0  0  0  0  0  0  0
   41.2050   22.8930   31.8810 C   0  0  0  0  0  0  0  0  0  0  0  0
   41.6560   23.5510   30.7470 C   0  0  0  0  0  0  0  0  0  0  0  0
   41.9270   24.8870   30.8640 C   0  0  0  0  0  0  0  0  0  0  0  0
   41.7580   25.5030   32.0200 N   0  0  0  0  0  0  0  0  0  0  0  0
   42.5170   25.9160   29.5260 S   0  0  0  0  0  0  0  0  0  0  0  0
   38.8876   24.4535   34.1217 H   0  0  0  0  0  0  0  0  0  0  0  0
   36.8352   25.2720   34.0138 H   0  0  0  0  0  0  0  0  0  0  0  0
   36.9925   26.2595   35.4676 H   0  0  0  0  0  0  0  0  0  0  0  0
   37.5359   26.9826   32.6654 H   0  0  0  0  0  0  0  0  0  0  0  0
   37.5163   28.0566   34.0866 H   0  0  0  0  0  0  0  0  0  0  0  0
   39.8341   26.7526   32.7137 H   0  0  0  0  0  0  0  0  0  0  0  0
   39.8399   28.1894   33.7280 H   0  0  0  0  0  0  0  0  0  0  0  0
   39.9910   26.8772   35.7455 H   0  0  0  0  0  0  0  0  0  0  0  0
   40.2502   21.9489   37.6323 H   0  0  0  0  0  0  0  0  0  0  0  0
   38.8340   22.7669   39.5696 H   0  0  0  0  0  0  0  0  0  0  0  0
   37.3463   24.8194   39.2488 H   0  0  0  0  0  0  0  0  0  0  0  0
   40.7060   23.0809   33.9195 H   0  0  0  0  0  0  0  0  0  0  0  0
   40.9680   21.8191   31.8568 H   0  0  0  0  0  0  0  0  0  0  0  0
   41.7904   23.0208   29.7926 H   0  0  0  0  0  0  0  0  0  0  0  0
   43.1484   27.0173   30.0411 H   0  0  0  0  0  0  0  0  0  0  0  0
  1 10  1  0
  2  1  1  0
  3  2  1  0
  4  3  1  0
  4  5  1  0
  5  1  1  0
  6  7  2  0
  8  7  1  0
  9  8  2  0
 10 11  2  0
 10  9  1  0
 11  6  1  0
 12  5  1  0
 12 13  2  0
 14 12  1  0
 15 14  2  0
 16 15  1  0
 17 18  1  0
 17 16  2  0
 18 19  2  0
 19 14  1  0
 20 18  1  0
  1 21  1  6
  2 22  1  0
  2 23  1  0
  3 24  1  0
  3 25  1  0
  4 26  1  0
  4 27  1  0
  5 28  1  1
  6 29  1  0
  7 30  1  0
  8 31  1  0
 15 32  1  0
 16 33  1  0
 17 34  1  0
 20 35  1  0
M  ISO  8  21  13  22  13  23  13  24  13  25  13  26  13  27  13  28  13
M  ISO  7  29  14  30  14  31  14  32  14  33  14  34  14  35  11
M  END
>  <minimizedAffinity>  (1) 
-4.09795666

>  <minimizedRMSD>  (1) 
0.00695962179

$$$$
