
     RDKit          3D

 35 37  0  0  0  0  0  0  0  0999 V2000
   37.1650   21.8850   34.7350 C   0  0  0  0  0  0  0  0  0  0  0  0
   36.2780   20.8390   34.8460 C   0  0  0  0  0  0  0  0  0  0  0  0
   35.4750   20.3850   33.8300 C   0  0  0  0  0  0  0  0  0  0  0  0
   35.5240   20.9800   32.6070 C   0  0  0  0  0  0  0  0  0  0  0  0
   36.3810   22.0210   32.4330 C   0  0  0  0  0  0  0  0  0  0  0  0
   36.4290   22.6260   31.1820 C   0  0  0  0  0  0  0  0  0  0  0  0
   37.2720   23.6810   30.9400 C   0  0  0  0  0  0  0  0  0  0  0  0
   38.0750   24.1190   31.9930 C   0  0  0  0  0  0  0  0  0  0  0  0
   37.9920   23.4900   33.2050 C   0  0  0  0  0  0  0  0  0  0  0  0
   37.1730   22.4480   33.4810 C   0  0  0  0  0  0  0  0  0  0  0  0
   37.7940   23.3230   37.9650 C   0  0  0  0  0  0  0  0  0  0  0  0
   39.1700   23.2730   38.1840 C   0  0  0  0  0  0  0  0  0  0  0  0
   39.9290   22.7140   37.1680 C   0  0  0  0  0  0  0  0  0  0  0  0
   39.2850   22.2730   36.0700 N   0  0  0  0  0  0  0  0  0  0  0  0
   37.9840   22.3140   35.8490 C   0  0  0  0  0  0  0  0  0  0  0  0
   37.2740   22.8550   36.8350 N   0  0  0  0  0  0  0  0  0  0  0  0
   41.4100   22.5550   37.1840 C   0  0  0  0  0  0  0  0  0  0  0  0
   41.8410   21.1210   37.2960 C   0  0  0  0  0  0  0  0  0  0  0  0
   42.0260   23.1910   35.9310 C   0  0  0  0  0  0  0  0  0  0  0  0
   36.2075   20.3303   35.8187 H   0  0  0  0  0  0  0  0  0  0  0  0
   34.7920   19.5405   34.0040 H   0  0  0  0  0  0  0  0  0  0  0  0
   34.8875   20.6282   31.7817 H   0  0  0  0  0  0  0  0  0  0  0  0
   35.7816   22.2533   30.3745 H   0  0  0  0  0  0  0  0  0  0  0  0
   37.3131   24.1635   29.9523 H   0  0  0  0  0  0  0  0  0  0  0  0
   38.7678   24.9614   31.8504 H   0  0  0  0  0  0  0  0  0  0  0  0
   38.6386   23.8581   34.0152 H   0  0  0  0  0  0  0  0  0  0  0  0
   37.1341   23.7529   38.7329 H   0  0  0  0  0  0  0  0  0  0  0  0
   39.6265   23.6549   39.1091 H   0  0  0  0  0  0  0  0  0  0  0  0
   41.7751   23.0730   38.0831 H   0  0  0  0  0  0  0  0  0  0  0  0
   41.9240   20.8449   38.3576 H   0  0  0  0  0  0  0  0  0  0  0  0
   41.0972   20.4753   36.8062 H   0  0  0  0  0  0  0  0  0  0  0  0
   42.8175   20.9923   36.8062 H   0  0  0  0  0  0  0  0  0  0  0  0
   42.7625   23.9514   36.2301 H   0  0  0  0  0  0  0  0  0  0  0  0
   42.5237   22.4139   35.3323 H   0  0  0  0  0  0  0  0  0  0  0  0
   41.2334   23.6637   35.3323 H   0  0  0  0  0  0  0  0  0  0  0  0
  1  2  2  0
  1 15  1  0
  3  2  1  0
  4  3  2  0
  5  4  1  0
  5 10  2  0
  6  5  1  0
  7  6  2  0
  7  8  1  0
  8  9  2  0
  9 10  1  0
 10  1  1  0
 11 12  2  0
 13 17  1  0
 13 12  1  0
 14 13  2  0
 15 14  1  0
 15 16  2  0
 16 11  1  0
 17 18  1  0
 19 17  1  0
  2 20  1  0
  3 21  1  0
  4 22  1  0
  6 23  1  0
  7 24  1  0
  8 25  1  0
  9 26  1  0
 11 27  1  0
 12 28  1  0
 17 29  1  0
 18 30  1  0
 18 31  1  0
 18 32  1  0
 19 33  1  0
 19 34  1  0
 19 35  1  0
M  ISO  8  20  14  21  14  22  14  23  14  24  14  25  14  26  14  27  14
M  ISO  8  28  14  29   8  30   8  31   8  32   8  33   8  34   8  35   8
M  END
>  <minimizedAffinity>  (1) 
-5.56254625

>  <minimizedRMSD>  (1) 
2.55060053

$$$$
