
     RDKit          3D

 50 54  0  0  1  0  0  0  0  0999 V2000
   40.5780   25.3710   34.2920 C   0  0  0  0  0  0  0  0  0  0  0  0
   41.7880   25.4080   34.4890 O   0  0  0  0  0  0  0  0  0  0  0  0
   38.3440   25.5320   35.2930 C   0  0  1  0  0  0  0  0  0  0  0  0
   37.2590   26.4600   35.3040 C   0  0  0  0  0  0  0  0  0  0  0  0
   37.7110   27.5860   34.3670 C   0  0  0  0  0  0  0  0  0  0  0  0
   39.1380   27.2820   33.9330 C   0  0  0  0  0  0  0  0  0  0  0  0
   39.6210   26.3040   34.9600 C   0  0  2  0  0  0  0  0  0  0  0  0
   39.4220   22.9190   37.6600 C   0  0  0  0  0  0  0  0  0  0  0  0
   38.8190   23.3570   38.8860 C   0  0  0  0  0  0  0  0  0  0  0  0
   38.0500   24.5310   38.8950 C   0  0  0  0  0  0  0  0  0  0  0  0
   37.9510   25.1600   37.7010 N   0  0  0  0  0  0  0  0  0  0  0  0
   38.5320   24.7210   36.5630 C   0  0  0  0  0  0  0  0  0  0  0  0
   39.2680   23.6050   36.5310 N   0  0  0  0  0  0  0  0  0  0  0  0
   40.1100   24.3440   33.3480 C   0  0  0  0  0  0  0  0  0  0  0  0
   40.5950   23.0480   33.4230 C   0  0  0  0  0  0  0  0  0  0  0  0
   40.2340   22.0110   32.6210 C   0  0  0  0  0  0  0  0  0  0  0  0
   39.2900   22.2550   31.6290 C   0  0  0  0  0  0  0  0  0  0  0  0
   38.8010   23.5180   31.5360 C   0  0  0  0  0  0  0  0  0  0  0  0
   39.2090   24.4730   32.3610 N   0  0  0  0  0  0  0  0  0  0  0  0
   38.8130   21.2700   30.7160 N   0  0  0  0  0  0  0  0  0  0  0  0
   39.2460   21.0110   29.4620 C   0  0  0  0  0  0  0  0  0  0  0  0
   38.4920   19.9820   28.9720 N   0  0  0  0  0  0  0  0  0  0  0  0
   37.6010   19.6190   29.9330 C   0  0  0  0  0  0  0  0  0  0  0  0
   36.6450   18.6470   29.9120 C   0  0  0  0  0  0  0  0  0  0  0  0
   35.8670   18.4630   30.9930 N   0  0  0  0  0  0  0  0  0  0  0  0
   36.0450   19.2520   32.0930 C   0  0  0  0  0  0  0  0  0  0  0  0
   37.0010   20.2240   32.1140 N   0  0  0  0  0  0  0  0  0  0  0  0
   37.7910   20.4200   31.0360 C   0  0  0  0  0  0  0  0  0  0  0  0
   36.4800   17.8480   28.7680 N   0  0  0  0  0  0  0  0  0  0  0  0
   37.7890   23.9710   30.5440 C   0  0  0  0  0  0  0  0  0  0  0  0
   36.6600   23.1440   30.5740 F   0  0  0  0  0  0  0  0  0  0  0  0
   37.3290   25.2420   30.8170 F   0  0  0  0  0  0  0  0  0  0  0  0
   38.3200   23.8340   29.2750 F   0  0  0  0  0  0  0  0  0  0  0  0
   38.1017   24.7766   34.5310 H   0  0  0  0  0  0  0  0  0  0  0  0
   36.3389   25.9876   34.9294 H   0  0  0  0  0  0  0  0  0  0  0  0
   37.0287   26.8239   36.3162 H   0  0  0  0  0  0  0  0  0  0  0  0
   37.0526   27.6279   33.4868 H   0  0  0  0  0  0  0  0  0  0  0  0
   37.6632   28.5574   34.8809 H   0  0  0  0  0  0  0  0  0  0  0  0
   39.1556   26.8359   32.9277 H   0  0  0  0  0  0  0  0  0  0  0  0
   39.7665   28.1828   33.8735 H   0  0  0  0  0  0  0  0  0  0  0  0
   40.1140   26.7583   35.8321 H   0  0  0  0  0  0  0  0  0  0  0  0
   40.0234   21.9979   37.6537 H   0  0  0  0  0  0  0  0  0  0  0  0
   38.9582   22.7778   39.8107 H   0  0  0  0  0  0  0  0  0  0  0  0
   37.5637   24.9117   39.8053 H   0  0  0  0  0  0  0  0  0  0  0  0
   41.3412   22.8388   34.2037 H   0  0  0  0  0  0  0  0  0  0  0  0
   40.6742   21.0115   32.7524 H   0  0  0  0  0  0  0  0  0  0  0  0
   40.0569   21.5330   28.9328 H   0  0  0  0  0  0  0  0  0  0  0  0
   35.4070   19.1011   32.9763 H   0  0  0  0  0  0  0  0  0  0  0  0
   35.7578   17.1138   28.7524 H   0  0  0  0  0  0  0  0  0  0  0  0
   37.0813   17.9965   27.9450 H   0  0  0  0  0  0  0  0  0  0  0  0
  1  2  2  0
  1  7  1  0
  3  4  1  0
  3 12  1  0
  5  4  1  0
  6  5  1  0
  6  7  1  0
  7  3  1  0
  8  9  2  0
  9 10  1  0
 11 10  2  0
 12 11  1  0
 13 12  2  0
 13  8  1  0
 14 15  2  0
 14  1  1  0
 16 15  1  0
 17 16  2  0
 18 17  1  0
 18 19  2  0
 19 14  1  0
 20 28  1  0
 20 17  1  0
 21 20  1  0
 22 21  2  0
 22 23  1  0
 23 28  2  0
 24 23  1  0
 24 25  2  0
 25 26  1  0
 26 27  2  0
 28 27  1  0
 29 24  1  0
 30 31  1  0
 30 32  1  0
 30 18  1  0
 33 30  1  0
  3 34  1  6
  4 35  1  0
  4 36  1  0
  5 37  1  0
  5 38  1  0
  6 39  1  0
  6 40  1  0
  7 41  1  1
  8 42  1  0
  9 43  1  0
 10 44  1  0
 15 45  1  0
 16 46  1  0
 21 47  1  0
 26 48  1  0
 29 49  1  0
 29 50  1  0
M  ISO  8  34  13  35  13  36  13  37  13  38  13  39  13  40  13  41  13
M  ISO  7  42  14  43  14  44  14  45  14  46  14  47  14  48  14
M  END
>  <minimizedAffinity>  (1) 
-5.70676184

>  <minimizedRMSD>  (1) 
1.79160249

$$$$
