
     RDKit          3D

 48 51  0  0  1  0  0  0  0  0999 V2000
   40.3100   25.0740   33.9480 C   0  0  0  0  0  0  0  0  0  0  0  0
   41.5340   25.1390   33.9270 O   0  0  0  0  0  0  0  0  0  0  0  0
   38.1830   25.3870   35.1340 C   0  0  1  0  0  0  0  0  0  0  0  0
   37.1480   26.3690   35.1960 C   0  0  0  0  0  0  0  0  0  0  0  0
   37.5520   27.4190   34.1550 C   0  0  0  0  0  0  0  0  0  0  0  0
   38.9210   27.0310   33.6190 C   0  0  0  0  0  0  0  0  0  0  0  0
   39.4580   26.0830   34.6470 C   0  0  2  0  0  0  0  0  0  0  0  0
   39.4720   22.9230   37.5550 C   0  0  0  0  0  0  0  0  0  0  0  0
   38.8750   23.3730   38.7810 C   0  0  0  0  0  0  0  0  0  0  0  0
   38.0450   24.5010   38.7740 C   0  0  0  0  0  0  0  0  0  0  0  0
   37.8820   25.0740   37.5640 N   0  0  0  0  0  0  0  0  0  0  0  0
   38.4510   24.6330   36.4240 C   0  0  0  0  0  0  0  0  0  0  0  0
   39.2480   23.5570   36.4070 N   0  0  0  0  0  0  0  0  0  0  0  0
   39.7140   23.9320   33.2370 C   0  0  0  0  0  0  0  0  0  0  0  0
   40.4720   22.8120   32.9410 C   0  0  0  0  0  0  0  0  0  0  0  0
   40.0290   21.6910   32.2990 C   0  0  0  0  0  0  0  0  0  0  0  0
   38.7030   21.6560   31.9000 C   0  0  0  0  0  0  0  0  0  0  0  0
   37.9400   22.7450   32.1790 C   0  0  0  0  0  0  0  0  0  0  0  0
   38.4510   23.7930   32.8080 N   0  0  0  0  0  0  0  0  0  0  0  0
   38.1000   20.5550   31.2210 N   0  0  0  0  0  0  0  0  0  0  0  0
   37.4150   19.7220   32.0280 C   0  0  0  0  0  0  0  0  0  0  0  0
   36.7720   18.6070   31.5260 C   0  0  0  0  0  0  0  0  0  0  0  0
   36.8740   18.4050   30.1790 C   0  0  0  0  0  0  0  0  0  0  0  0
   36.2230   17.2650   29.6310 N   0  0  0  0  0  0  0  0  0  0  0  0
   37.5680   19.2520   29.3780 N   0  0  0  0  0  0  0  0  0  0  0  0
   38.1930   20.3450   29.8950 C   0  0  0  0  0  0  0  0  0  0  0  0
   38.8490   21.1640   29.2000 O   0  0  0  0  0  0  0  0  0  0  0  0
   36.5020   22.8860   31.8310 C   0  0  0  0  0  0  0  0  0  0  0  0
   35.7170   22.0130   32.5910 F   0  0  0  0  0  0  0  0  0  0  0  0
   36.0250   24.1500   32.1090 F   0  0  0  0  0  0  0  0  0  0  0  0
   36.3200   22.5030   30.5150 F   0  0  0  0  0  0  0  0  0  0  0  0
   37.8397   24.6070   34.4385 H   0  0  0  0  0  0  0  0  0  0  0  0
   36.1745   25.9243   34.9421 H   0  0  0  0  0  0  0  0  0  0  0  0
   37.0389   26.7986   36.2027 H   0  0  0  0  0  0  0  0  0  0  0  0
   36.8190   27.4358   33.3350 H   0  0  0  0  0  0  0  0  0  0  0  0
   37.5841   28.4206   34.6085 H   0  0  0  0  0  0  0  0  0  0  0  0
   38.8319   26.5369   32.6403 H   0  0  0  0  0  0  0  0  0  0  0  0
   39.5761   27.9007   33.4623 H   0  0  0  0  0  0  0  0  0  0  0  0
   40.0496   26.5566   35.4443 H   0  0  0  0  0  0  0  0  0  0  0  0
   40.1260   22.0386   37.5652 H   0  0  0  0  0  0  0  0  0  0  0  0
   39.0685   22.8347   39.7205 H   0  0  0  0  0  0  0  0  0  0  0  0
   37.5638   24.8891   39.6839 H   0  0  0  0  0  0  0  0  0  0  0  0
   41.5273   22.8263   33.2512 H   0  0  0  0  0  0  0  0  0  0  0  0
   40.7031   20.8436   32.1051 H   0  0  0  0  0  0  0  0  0  0  0  0
   37.3667   19.9334   33.1064 H   0  0  0  0  0  0  0  0  0  0  0  0
   36.2091   17.9200   32.1751 H   0  0  0  0  0  0  0  0  0  0  0  0
   36.2765   17.0780   28.6195 H   0  0  0  0  0  0  0  0  0  0  0  0
   35.6982   16.6266   30.2457 H   0  0  0  0  0  0  0  0  0  0  0  0
  1  7  1  0
  2  1  2  0
  3  4  1  0
  3 12  1  0
  5  4  1  0
  6  5  1  0
  6  7  1  0
  7  3  1  0
  8  9  2  0
 10  9  1  0
 11 10  2  0
 12 11  1  0
 13 12  2  0
 13  8  1  0
 14  1  1  0
 15 14  2  0
 16 15  1  0
 17 18  1  0
 17 16  2  0
 18 19  2  0
 19 14  1  0
 20 17  1  0
 20 21  1  0
 22 21  2  0
 23 22  1  0
 24 23  1  0
 25 26  1  0
 25 23  2  0
 26 20  1  0
 27 26  2  0
 28 30  1  0
 28 18  1  0
 28 29  1  0
 31 28  1  0
  3 32  1  6
  4 33  1  0
  4 34  1  0
  5 35  1  0
  5 36  1  0
  6 37  1  0
  6 38  1  0
  7 39  1  1
  8 40  1  0
  9 41  1  0
 10 42  1  0
 15 43  1  0
 16 44  1  0
 21 45  1  0
 22 46  1  0
 24 47  1  0
 24 48  1  0
M  ISO  8  32  13  33  13  34  13  35  13  36  13  37  13  38  13  39  13
M  ISO  7  40  14  41  14  42  14  43  14  44  14  45  14  46  14
M  END
>  <minimizedAffinity>  (1) 
-5.69238043

>  <minimizedRMSD>  (1) 
2.07186508

$$$$
