
     RDKit          3D

 50 53  0  0  1  0  0  0  0  0999 V2000
   40.6890   24.8380   34.2670 C   0  0  0  0  0  0  0  0  0  0  0  0
   41.8870   24.6320   34.4370 O   0  0  0  0  0  0  0  0  0  0  0  0
   38.5680   25.4320   35.3430 C   0  0  1  0  0  0  0  0  0  0  0  0
   37.6850   26.5540   35.3840 C   0  0  0  0  0  0  0  0  0  0  0  0
   38.2860   27.5520   34.3880 C   0  0  0  0  0  0  0  0  0  0  0  0
   39.6220   26.9830   33.9210 C   0  0  0  0  0  0  0  0  0  0  0  0
   39.9530   25.9440   34.9470 C   0  0  2  0  0  0  0  0  0  0  0  0
   39.5070   22.8580   37.8130 C   0  0  0  0  0  0  0  0  0  0  0  0
   38.7550   23.2570   38.9660 C   0  0  0  0  0  0  0  0  0  0  0  0
   37.9310   24.3960   38.8940 C   0  0  0  0  0  0  0  0  0  0  0  0
   37.9350   25.0230   37.6970 N   0  0  0  0  0  0  0  0  0  0  0  0
   38.6560   24.6210   36.6260 C   0  0  0  0  0  0  0  0  0  0  0  0
   39.4430   23.5440   36.6760 N   0  0  0  0  0  0  0  0  0  0  0  0
   40.0140   23.9220   33.3410 C   0  0  0  0  0  0  0  0  0  0  0  0
   40.1490   22.5480   33.4740 C   0  0  0  0  0  0  0  0  0  0  0  0
   39.5600   21.6040   32.6830 C   0  0  0  0  0  0  0  0  0  0  0  0
   38.7490   22.0470   31.6450 C   0  0  0  0  0  0  0  0  0  0  0  0
   38.6030   23.3910   31.4970 C   0  0  0  0  0  0  0  0  0  0  0  0
   39.2120   24.2400   32.3110 N   0  0  0  0  0  0  0  0  0  0  0  0
   37.4740   19.1220   28.8310 C   0  0  0  0  0  0  0  0  0  0  0  0
   38.7040   19.7440   28.8030 C   0  0  0  0  0  0  0  0  0  0  0  0
   39.0470   20.6910   29.7750 C   0  0  0  0  0  0  0  0  0  0  0  0
   38.1590   21.0340   30.8040 C   0  0  0  0  0  0  0  0  0  0  0  0
   36.9410   20.4050   30.8130 C   0  0  0  0  0  0  0  0  0  0  0  0
   36.6140   19.4740   29.8510 C   0  0  0  0  0  0  0  0  0  0  0  0
   37.0160   17.9340   27.6320 S   0  0  0  0  0  0  0  0  0  0  0  0
   35.9090   18.5650   26.7990 O   0  0  0  0  0  0  0  0  0  0  0  0
   36.4510   16.7380   28.3470 O   0  0  0  0  0  0  0  0  0  0  0  0
   37.7600   24.0170   30.4610 C   0  0  0  0  0  0  0  0  0  0  0  0
   36.4440   23.5340   30.4920 F   0  0  0  0  0  0  0  0  0  0  0  0
   37.6340   25.3860   30.6700 F   0  0  0  0  0  0  0  0  0  0  0  0
   38.2320   23.7240   29.2100 F   0  0  0  0  0  0  0  0  0  0  0  0
   38.1533   24.7277   34.6068 H   0  0  0  0  0  0  0  0  0  0  0  0
   36.6701   26.2615   35.0768 H   0  0  0  0  0  0  0  0  0  0  0  0
   37.5925   26.9767   36.3953 H   0  0  0  0  0  0  0  0  0  0  0  0
   37.6106   27.6787   33.5291 H   0  0  0  0  0  0  0  0  0  0  0  0
   38.4269   28.5351   34.8609 H   0  0  0  0  0  0  0  0  0  0  0  0
   39.5265   26.5303   32.9230 H   0  0  0  0  0  0  0  0  0  0  0  0
   40.4021   27.7535   33.8325 H   0  0  0  0  0  0  0  0  0  0  0  0
   40.5586   26.3090   35.7896 H   0  0  0  0  0  0  0  0  0  0  0  0
   40.1495   21.9670   37.8699 H   0  0  0  0  0  0  0  0  0  0  0  0
   38.8212   22.6782   39.8991 H   0  0  0  0  0  0  0  0  0  0  0  0
   37.3306   24.7482   39.7458 H   0  0  0  0  0  0  0  0  0  0  0  0
   40.7893   22.1857   34.2918 H   0  0  0  0  0  0  0  0  0  0  0  0
   39.7216   20.5306   32.8610 H   0  0  0  0  0  0  0  0  0  0  0  0
   39.4229   19.4936   28.0090 H   0  0  0  0  0  0  0  0  0  0  0  0
   40.0334   21.1759   29.7305 H   0  0  0  0  0  0  0  0  0  0  0  0
   36.2128   20.6474   31.6010 H   0  0  0  0  0  0  0  0  0  0  0  0
   35.6266   18.9915   29.8982 H   0  0  0  0  0  0  0  0  0  0  0  0
   38.0798   17.5566   26.8555 H   0  0  0  0  0  0  0  0  0  0  0  0
  1  2  2  0
  1  7  1  0
  3  4  1  0
  3 12  1  0
  5  4  1  0
  6  5  1  0
  6  7  1  0
  7  3  1  0
  8  9  2  0
 10  9  1  0
 11 10  2  0
 12 13  2  0
 12 11  1  0
 13  8  1  0
 14 15  2  0
 14  1  1  0
 16 15  1  0
 17 16  2  0
 18 17  1  0
 18 19  2  0
 19 14  1  0
 20 25  2  0
 21 20  1  0
 21 22  2  0
 22 23  1  0
 23 24  2  0
 23 17  1  0
 25 24  1  0
 26 28  2  0
 26 20  1  0
 27 26  2  0
 29 30  1  0
 29 31  1  0
 29 18  1  0
 32 29  1  0
  3 33  1  6
  4 34  1  0
  4 35  1  0
  5 36  1  0
  5 37  1  0
  6 38  1  0
  6 39  1  0
  7 40  1  1
  8 41  1  0
  9 42  1  0
 10 43  1  0
 15 44  1  0
 16 45  1  0
 21 46  1  0
 22 47  1  0
 24 48  1  0
 25 49  1  0
 26 50  1  0
M  ISO  8  33  13  34  13  35  13  36  13  37  13  38  13  39  13  40  13
M  ISO  8  41  14  42  14  43  14  44  14  45  14  46  14  47  14  48  14
M  ISO  2  49  14  50  11
M  END
>  <minimizedAffinity>  (1) 
-5.40952015

>  <minimizedRMSD>  (1) 
1.57436967

$$$$
