
     RDKit          3D

 44 48  0  0  1  0  0  0  0  0999 V2000
   39.7040   22.6400   34.8240 C   0  0  0  0  0  0  0  0  0  0  0  0
   39.3990   23.9610   35.0310 C   0  0  0  0  0  0  0  0  0  0  0  0
   38.1830   24.3690   34.5460 C   0  0  0  0  0  0  0  0  0  0  0  0
   37.4400   23.4560   33.9320 N   0  0  0  0  0  0  0  0  0  0  0  0
   37.6720   22.2000   33.7060 C   0  0  0  0  0  0  0  0  0  0  0  0
   38.8420   21.8640   34.1900 N   0  0  0  0  0  0  0  0  0  0  0  0
   36.9640   21.1240   33.0670 C   0  0  0  0  0  0  0  0  0  0  0  0
   35.9150   20.4670   33.7000 C   0  0  0  0  0  0  0  0  0  0  0  0
   35.1990   19.4320   33.1510 C   0  0  0  0  0  0  0  0  0  0  0  0
   35.5130   18.9900   31.8960 C   0  0  0  0  0  0  0  0  0  0  0  0
   36.5310   19.5940   31.2250 C   0  0  0  0  0  0  0  0  0  0  0  0
   36.8400   19.1380   29.9520 C   0  0  0  0  0  0  0  0  0  0  0  0
   37.8560   19.7040   29.2190 C   0  0  0  0  0  0  0  0  0  0  0  0
   38.5580   20.7460   29.8010 C   0  0  0  0  0  0  0  0  0  0  0  0
   38.2200   21.1660   31.0630 C   0  0  0  0  0  0  0  0  0  0  0  0
   37.2270   20.6340   31.8140 C   0  0  0  0  0  0  0  0  0  0  0  0
   37.6340   25.6800   34.4350 C   0  0  0  0  0  0  0  0  0  0  0  0
   37.1590   26.8140   34.3380 N   0  0  0  0  0  0  0  0  0  0  0  0
   36.6480   27.9260   34.3700 C   0  0  0  0  0  0  0  0  0  0  0  0
   36.9970   28.1680   33.1000 N   0  0  0  0  0  0  0  0  0  0  0  0
   37.6860   27.2100   32.4020 C   0  0  0  0  0  0  0  0  0  0  0  0
   38.0450   27.6350   31.0900 C   0  0  0  0  0  0  0  0  0  0  0  0
   38.7940   26.7520   30.3780 C   0  0  0  0  0  0  0  0  0  0  0  0
   39.2270   25.5180   30.8030 C   0  0  0  0  0  0  0  0  0  0  0  0
   38.7830   25.2750   32.0990 C   0  0  0  0  0  0  0  0  0  0  0  0
   37.9990   25.9890   33.0640 C   0  0  0  0  0  0  0  0  0  0  0  0
   40.6592   22.2292   35.1830 H   0  0  0  0  0  0  0  0  0  0  0  0
   40.0837   24.6470   35.5511 H   0  0  0  0  0  0  0  0  0  0  0  0
   35.6393   20.7997   34.7116 H   0  0  0  0  0  0  0  0  0  0  0  0
   34.3801   18.9627   33.7159 H   0  0  0  0  0  0  0  0  0  0  0  0
   34.9532   18.1616   31.4373 H   0  0  0  0  0  0  0  0  0  0  0  0
   36.2612   18.3079   29.5209 H   0  0  0  0  0  0  0  0  0  0  0  0
   38.1017   19.3431   28.2094 H   0  0  0  0  0  0  0  0  0  0  0  0
   39.3800   21.2332   29.2561 H   0  0  0  0  0  0  0  0  0  0  0  0
   38.7981   21.9956   31.4961 H   0  0  0  0  0  0  0  0  0  0  0  0
   38.6458   26.0932   34.3106 H   0  0  0  0  0  0  0  0  0  0  0  0
   36.6034   26.5463   33.5130 H   0  0  0  0  0  0  0  0  0  0  0  0
   35.5604   27.9083   34.5340 H   0  0  0  0  0  0  0  0  0  0  0  0
   36.9442   28.6351   35.1570 H   0  0  0  0  0  0  0  0  0  0  0  0
   36.7509   29.0628   32.6531 H   0  0  0  0  0  0  0  0  0  0  0  0
   37.7376   28.6092   30.6821 H   0  0  0  0  0  0  0  0  0  0  0  0
   39.0825   27.0547   29.3606 H   0  0  0  0  0  0  0  0  0  0  0  0
   39.8359   24.8238   30.2052 H   0  0  0  0  0  0  0  0  0  0  0  0
   39.1144   24.2959   32.4752 H   0  0  0  0  0  0  0  0  0  0  0  0
  1  2  2  0
  3  2  1  0
  4  3  2  0
  5  4  1  0
  5  6  2  0
  6  1  1  0
  7  8  2  0
  7  5  1  0
  9  8  1  0
 10  9  2  0
 11 16  2  0
 11 10  1  0
 12 11  1  0
 13 14  1  0
 13 12  2  0
 14 15  2  0
 15 16  1  0
 16  7  1  0
 17  3  1  0
 18 19  1  0
 18 17  1  0
 20 19  1  0
 21 26  2  0
 21 20  1  0
 22 21  1  0
 23 24  1  0
 23 22  2  0
 24 25  2  0
 25 26  1  0
 26 17  1  0
  1 27  1  0
  2 28  1  0
  8 29  1  0
  9 30  1  0
 10 31  1  0
 12 32  1  0
 13 33  1  0
 14 34  1  0
 15 35  1  0
 17 36  1  0
 18 37  1  0
 19 38  1  0
 19 39  1  0
 20 40  1  0
 22 41  1  0
 23 42  1  0
 24 43  1  0
 25 44  1  0
M  ISO  8  27  14  28  14  29  14  30  14  31  14  32  14  33  14  34  14
M  ISO  8  35  14  36  13  37   5  38  13  39  13  41  14  42  14  43  14
M  ISO  1  44  14
M  END
>  <minimizedAffinity>  (1) 
-5.55579567

>  <minimizedRMSD>  (1) 
4.34305096

$$$$
