
     RDKit          3D

 44 47  0  0  1  0  0  0  0  0999 V2000
   37.8930   25.1870   34.6200 C   0  0  1  0  0  0  0  0  0  0  0  0
   37.2020   26.4310   34.5200 C   0  0  0  0  0  0  0  0  0  0  0  0
   37.9170   27.1790   33.3900 C   0  0  0  0  0  0  0  0  0  0  0  0
   39.1070   26.3320   32.9590 C   0  0  0  0  0  0  0  0  0  0  0  0
   39.3200   25.4020   34.1100 C   0  0  2  0  0  0  0  0  0  0  0  0
   37.7290   22.7100   37.3470 C   0  0  0  0  0  0  0  0  0  0  0  0
   37.9760   23.5290   38.5030 C   0  0  0  0  0  0  0  0  0  0  0  0
   38.1920   24.9040   38.3450 C   0  0  0  0  0  0  0  0  0  0  0  0
   38.1430   25.3380   37.0690 N   0  0  0  0  0  0  0  0  0  0  0  0
   37.9090   24.5560   36.0000 C   0  0  0  0  0  0  0  0  0  0  0  0
   37.7010   23.2390   36.1270 N   0  0  0  0  0  0  0  0  0  0  0  0
   39.8340   24.1070   33.5750 C   0  0  0  0  0  0  0  0  0  0  0  0
   41.0260   23.8380   33.5090 O   0  0  0  0  0  0  0  0  0  0  0  0
   38.9160   23.0660   33.0870 C   0  0  0  0  0  0  0  0  0  0  0  0
   39.3110   21.7390   33.0670 C   0  0  0  0  0  0  0  0  0  0  0  0
   38.5380   20.6950   32.6440 C   0  0  0  0  0  0  0  0  0  0  0  0
   37.2590   20.9500   32.1950 C   0  0  0  0  0  0  0  0  0  0  0  0
   36.8570   22.2580   32.2080 C   0  0  0  0  0  0  0  0  0  0  0  0
   37.6630   23.2160   32.6330 N   0  0  0  0  0  0  0  0  0  0  0  0
   35.5180   22.7390   31.7690 C   0  0  0  0  0  0  0  0  0  0  0  0
   35.2480   22.3400   30.4540 F   0  0  0  0  0  0  0  0  0  0  0  0
   34.5030   22.2040   32.5320 F   0  0  0  0  0  0  0  0  0  0  0  0
   35.5220   24.1200   31.7460 F   0  0  0  0  0  0  0  0  0  0  0  0
   36.3210   19.9310   31.7120 C   0  0  0  0  0  0  0  0  0  0  0  0
   36.5650   18.4830   31.8990 C   0  0  0  0  0  0  0  0  0  0  0  0
   35.5890   19.1580   32.7870 C   0  0  0  0  0  0  0  0  0  0  0  0
   37.3369   24.4632   34.0061 H   0  0  0  0  0  0  0  0  0  0  0  0
   36.1434   26.2684   34.2694 H   0  0  0  0  0  0  0  0  0  0  0  0
   37.2140   26.9927   35.4657 H   0  0  0  0  0  0  0  0  0  0  0  0
   37.2313   27.3218   32.5418 H   0  0  0  0  0  0  0  0  0  0  0  0
   38.2512   28.1693   33.7328 H   0  0  0  0  0  0  0  0  0  0  0  0
   38.8770   25.7721   32.0405 H   0  0  0  0  0  0  0  0  0  0  0  0
   39.9976   26.9357   32.7302 H   0  0  0  0  0  0  0  0  0  0  0  0
   40.0207   25.7724   34.8728 H   0  0  0  0  0  0  0  0  0  0  0  0
   37.5608   21.6303   37.4736 H   0  0  0  0  0  0  0  0  0  0  0  0
   37.9952   23.0780   39.5061 H   0  0  0  0  0  0  0  0  0  0  0  0
   38.3861   25.5761   39.1939 H   0  0  0  0  0  0  0  0  0  0  0  0
   40.3269   21.5072   33.4194 H   0  0  0  0  0  0  0  0  0  0  0  0
   38.9295   19.6672   32.6612 H   0  0  0  0  0  0  0  0  0  0  0  0
   36.0774   20.5349   30.8255 H   0  0  0  0  0  0  0  0  0  0  0  0
   36.2109   17.7674   31.1423 H   0  0  0  0  0  0  0  0  0  0  0  0
   37.4623   17.8695   32.0675 H   0  0  0  0  0  0  0  0  0  0  0  0
   35.8300   19.3238   33.8474 H   0  0  0  0  0  0  0  0  0  0  0  0
   34.5341   18.9982   33.0548 H   0  0  0  0  0  0  0  0  0  0  0  0
  1 10  1  0
  2  1  1  0
  3  2  1  0
  4  3  1  0
  4  5  1  0
  5  1  1  0
  6  7  2  0
  8  7  1  0
  9  8  2  0
 10 11  2  0
 10  9  1  0
 11  6  1  0
 12  5  1  0
 13 12  2  0
 14 12  1  0
 15 14  2  0
 16 15  1  0
 17 18  1  0
 17 16  2  0
 18 19  2  0
 19 14  1  0
 20 18  1  0
 20 22  1  0
 21 20  1  0
 23 20  1  0
 24 25  1  0
 24 17  1  0
 24 26  1  0
 25 26  1  0
  1 27  1  6
  2 28  1  0
  2 29  1  0
  3 30  1  0
  3 31  1  0
  4 32  1  0
  4 33  1  0
  5 34  1  1
  6 35  1  0
  7 36  1  0
  8 37  1  0
 15 38  1  0
 16 39  1  0
 24 40  1  0
 25 41  1  0
 25 42  1  0
 26 43  1  0
 26 44  1  0
M  ISO  8  27  13  28  13  29  13  30  13  31  13  32  13  33  13  34  13
M  ISO  8  35  14  36  14  37  14  38  14  39  14  40  13  41  13  42  13
M  ISO  2  43  13  44  13
M  END
>  <minimizedAffinity>  (1) 
-5.105299

>  <minimizedRMSD>  (1) 
2.7912581

$$$$
