
     RDKit          3D

 50 53  0  0  1  0  0  0  0  0999 V2000
   38.9730   25.2370   35.1810 C   0  0  1  0  0  0  0  0  0  0  0  0
   38.7130   26.6390   35.1910 C   0  0  0  0  0  0  0  0  0  0  0  0
   39.9330   27.2620   34.5040 C   0  0  0  0  0  0  0  0  0  0  0  0
   40.9320   26.1460   34.2400 C   0  0  0  0  0  0  0  0  0  0  0  0
   40.4950   25.0440   35.1560 C   0  0  2  0  0  0  0  0  0  0  0  0
   37.1930   22.6250   37.0800 C   0  0  0  0  0  0  0  0  0  0  0  0
   37.3290   23.0890   38.4260 C   0  0  0  0  0  0  0  0  0  0  0  0
   38.0150   24.2830   38.6810 C   0  0  0  0  0  0  0  0  0  0  0  0
   38.5100   24.9180   37.5820 N   0  0  0  0  0  0  0  0  0  0  0  0
   38.3590   24.4440   36.3210 C   0  0  0  0  0  0  0  0  0  0  0  0
   37.7080   23.3060   36.0590 N   0  0  0  0  0  0  0  0  0  0  0  0
   40.7940   23.7440   34.4900 C   0  0  0  0  0  0  0  0  0  0  0  0
   41.8110   23.0960   34.7160 O   0  0  0  0  0  0  0  0  0  0  0  0
   39.8730   23.1530   33.5080 C   0  0  0  0  0  0  0  0  0  0  0  0
   39.5220   21.8180   33.5890 C   0  0  0  0  0  0  0  0  0  0  0  0
   38.6730   21.1690   32.7360 C   0  0  0  0  0  0  0  0  0  0  0  0
   38.1040   21.8870   31.7020 C   0  0  0  0  0  0  0  0  0  0  0  0
   38.4400   23.2030   31.6090 C   0  0  0  0  0  0  0  0  0  0  0  0
   39.2690   23.7630   32.4700 N   0  0  0  0  0  0  0  0  0  0  0  0
   37.1840   21.3090   30.7260 C   0  0  0  0  0  0  0  0  0  0  0  0
   37.9420   20.2410   29.9620 C   0  0  0  0  0  0  0  0  0  0  0  0
   37.4500   18.9250   30.5710 C   0  0  0  0  0  0  0  0  0  0  0  0
   36.0020   19.2080   30.8070 C   0  0  0  0  0  0  0  0  0  0  0  0
   35.9710   20.6370   31.3190 C   0  0  0  0  0  0  0  0  0  0  0  0
   37.9290   24.1350   30.5680 C   0  0  0  0  0  0  0  0  0  0  0  0
   36.5320   24.0800   30.4800 F   0  0  0  0  0  0  0  0  0  0  0  0
   38.2220   25.4510   30.8640 F   0  0  0  0  0  0  0  0  0  0  0  0
   38.3940   23.7390   29.3320 F   0  0  0  0  0  0  0  0  0  0  0  0
   38.4827   24.8314   34.2837 H   0  0  0  0  0  0  0  0  0  0  0  0
   37.7935   26.8676   34.6322 H   0  0  0  0  0  0  0  0  0  0  0  0
   38.5624   27.0286   36.2086 H   0  0  0  0  0  0  0  0  0  0  0  0
   39.6314   27.7279   33.5543 H   0  0  0  0  0  0  0  0  0  0  0  0
   40.3808   28.0384   35.1417 H   0  0  0  0  0  0  0  0  0  0  0  0
   40.8878   25.8220   33.1897 H   0  0  0  0  0  0  0  0  0  0  0  0
   41.9717   26.4576   34.4186 H   0  0  0  0  0  0  0  0  0  0  0  0
   40.9707   25.0541   36.1478 H   0  0  0  0  0  0  0  0  0  0  0  0
   36.6523   21.6872   36.8848 H   0  0  0  0  0  0  0  0  0  0  0  0
   36.8971   22.5112   39.2564 H   0  0  0  0  0  0  0  0  0  0  0  0
   38.1452   24.6806   39.6983 H   0  0  0  0  0  0  0  0  0  0  0  0
   39.9622   21.2294   34.4074 H   0  0  0  0  0  0  0  0  0  0  0  0
   38.4484   20.1005   32.8699 H   0  0  0  0  0  0  0  0  0  0  0  0
   36.8233   22.1446   30.1082 H   0  0  0  0  0  0  0  0  0  0  0  0
   39.0268   20.3553   30.1038 H   0  0  0  0  0  0  0  0  0  0  0  0
   37.7683   20.2948   28.8771 H   0  0  0  0  0  0  0  0  0  0  0  0
   37.5836   18.0871   29.8710 H   0  0  0  0  0  0  0  0  0  0  0  0
   37.9953   18.6276   31.4788 H   0  0  0  0  0  0  0  0  0  0  0  0
   35.4309   19.1181   29.8712 H   0  0  0  0  0  0  0  0  0  0  0  0
   35.5482   18.5002   31.5163 H   0  0  0  0  0  0  0  0  0  0  0  0
   36.0228   20.6520   32.4177 H   0  0  0  0  0  0  0  0  0  0  0  0
   35.0415   21.1509   31.0329 H   0  0  0  0  0  0  0  0  0  0  0  0
  1  2  1  0
  1 10  1  0
  3  2  1  0
  4  3  1  0
  4  5  1  0
  5  1  1  0
  6  7  2  0
  7  8  1  0
  9  8  2  0
 10  9  1  0
 11 10  2  0
 11  6  1  0
 12 13  2  0
 12  5  1  0
 14 15  2  0
 14 12  1  0
 16 15  1  0
 17 16  2  0
 18 17  1  0
 18 19  2  0
 19 14  1  0
 20 24  1  0
 20 17  1  0
 21 22  1  0
 21 20  1  0
 22 23  1  0
 23 24  1  0
 25 27  1  0
 25 18  1  0
 26 25  1  0
 28 25  1  0
  1 29  1  6
  2 30  1  0
  2 31  1  0
  3 32  1  0
  3 33  1  0
  4 34  1  0
  4 35  1  0
  5 36  1  1
  6 37  1  0
  7 38  1  0
  8 39  1  0
 15 40  1  0
 16 41  1  0
 20 42  1  0
 21 43  1  0
 21 44  1  0
 22 45  1  0
 22 46  1  0
 23 47  1  0
 23 48  1  0
 24 49  1  0
 24 50  1  0
M  ISO  8  29  13  30  13  31  13  32  13  33  13  34  13  35  13  36  13
M  ISO  8  37  14  38  14  39  14  40  14  41  14  42  13  43  13  44  13
M  ISO  6  45  13  46  13  47  13  48  13  49  13  50  13
M  END
>  <minimizedAffinity>  (1) 
-4.9883647

>  <minimizedRMSD>  (1) 
2.22149253

$$$$
