
     RDKit          3D

 44 47  0  0  1  0  0  0  0  0999 V2000
   38.3670   25.4320   35.2600 C   0  0  1  0  0  0  0  0  0  0  0  0
   37.3200   26.4000   35.2570 C   0  0  0  0  0  0  0  0  0  0  0  0
   37.7940   27.4770   34.2750 C   0  0  0  0  0  0  0  0  0  0  0  0
   39.2130   27.1200   33.8540 C   0  0  0  0  0  0  0  0  0  0  0  0
   39.6700   26.1470   34.8950 C   0  0  2  0  0  0  0  0  0  0  0  0
   39.4430   22.8960   37.7150 C   0  0  0  0  0  0  0  0  0  0  0  0
   38.7990   23.3480   38.9150 C   0  0  0  0  0  0  0  0  0  0  0  0
   38.0050   24.5030   38.8760 C   0  0  0  0  0  0  0  0  0  0  0  0
   37.9220   25.1000   37.6650 N   0  0  0  0  0  0  0  0  0  0  0  0
   38.5410   24.6510   36.5520 C   0  0  0  0  0  0  0  0  0  0  0  0
   39.3030   23.5520   36.5650 N   0  0  0  0  0  0  0  0  0  0  0  0
   40.5890   25.1670   34.2480 C   0  0  0  0  0  0  0  0  0  0  0  0
   41.7910   25.1250   34.4800 O   0  0  0  0  0  0  0  0  0  0  0  0
   40.0950   24.1840   33.2810 C   0  0  0  0  0  0  0  0  0  0  0  0
   40.4920   22.8590   33.3520 C   0  0  0  0  0  0  0  0  0  0  0  0
   40.0930   21.8560   32.5260 C   0  0  0  0  0  0  0  0  0  0  0  0
   39.1980   22.1630   31.4980 C   0  0  0  0  0  0  0  0  0  0  0  0
   38.7970   23.4580   31.4100 C   0  0  0  0  0  0  0  0  0  0  0  0
   39.2340   24.3770   32.2570 N   0  0  0  0  0  0  0  0  0  0  0  0
   38.7090   21.1620   30.5830 C   0  0  0  0  0  0  0  0  0  0  0  0
   37.6340   20.3480   30.9060 C   0  0  0  0  0  0  0  0  0  0  0  0
   37.3240   19.4590   29.8980 C   0  0  0  0  0  0  0  0  0  0  0  0
   38.2720   19.7820   28.9510 C   0  0  0  0  0  0  0  0  0  0  0  0
   39.0160   20.7380   29.3880 O   0  0  0  0  0  0  0  0  0  0  0  0
   37.8580   23.9740   30.3870 C   0  0  0  0  0  0  0  0  0  0  0  0
   36.6250   23.3520   30.4680 F   0  0  0  0  0  0  0  0  0  0  0  0
   37.6030   25.3300   30.5660 F   0  0  0  0  0  0  0  0  0  0  0  0
   38.3660   23.7220   29.1200 F   0  0  0  0  0  0  0  0  0  0  0  0
   38.0865   24.6664   34.5217 H   0  0  0  0  0  0  0  0  0  0  0  0
   36.3762   25.9505   34.9148 H   0  0  0  0  0  0  0  0  0  0  0  0
   37.1241   26.8065   36.2602 H   0  0  0  0  0  0  0  0  0  0  0  0
   37.1352   27.4985   33.3944 H   0  0  0  0  0  0  0  0  0  0  0  0
   37.7683   28.4702   34.7472 H   0  0  0  0  0  0  0  0  0  0  0  0
   39.2191   26.6560   32.8566 H   0  0  0  0  0  0  0  0  0  0  0  0
   39.8669   28.0019   33.7850 H   0  0  0  0  0  0  0  0  0  0  0  0
   40.1893   26.6025   35.7511 H   0  0  0  0  0  0  0  0  0  0  0  0
   40.0649   21.9892   37.7459 H   0  0  0  0  0  0  0  0  0  0  0  0
   38.9270   22.7937   39.8565 H   0  0  0  0  0  0  0  0  0  0  0  0
   37.4879   24.8946   39.7644 H   0  0  0  0  0  0  0  0  0  0  0  0
   41.1973   22.5931   34.1531 H   0  0  0  0  0  0  0  0  0  0  0  0
   40.4648   20.8299   32.6632 H   0  0  0  0  0  0  0  0  0  0  0  0
   37.0891   20.4049   31.8599 H   0  0  0  0  0  0  0  0  0  0  0  0
   36.5322   18.6964   29.8600 H   0  0  0  0  0  0  0  0  0  0  0  0
   38.3772   19.2963   27.9697 H   0  0  0  0  0  0  0  0  0  0  0  0
  1 10  1  0
  2  1  1  0
  3  2  1  0
  4  3  1  0
  4  5  1  0
  5  1  1  0
  6  7  2  0
  8  7  1  0
  9  8  2  0
 10 11  2  0
 10  9  1  0
 11  6  1  0
 12 13  2  0
 12  5  1  0
 14 15  2  0
 14 12  1  0
 16 15  1  0
 17 16  2  0
 18 17  1  0
 18 19  2  0
 19 14  1  0
 20 21  2  0
 20 17  1  0
 22 21  1  0
 23 24  1  0
 23 22  2  0
 24 20  1  0
 25 26  1  0
 25 27  1  0
 25 18  1  0
 28 25  1  0
  1 29  1  6
  2 30  1  0
  2 31  1  0
  3 32  1  0
  3 33  1  0
  4 34  1  0
  4 35  1  0
  5 36  1  1
  6 37  1  0
  7 38  1  0
  8 39  1  0
 15 40  1  0
 16 41  1  0
 21 42  1  0
 22 43  1  0
 23 44  1  0
M  ISO  8  29  13  30  13  31  13  32  13  33  13  34  13  35  13  36  13
M  ISO  8  37  14  38  14  39  14  40  14  41  14  42  14  43  14  44  14
M  END
>  <minimizedAffinity>  (1) 
-4.92117691

>  <minimizedRMSD>  (1) 
0.85942781

$$$$
