
     RDKit          3D

 50 53  0  0  1  0  0  0  0  0999 V2000
   38.4320   25.3460   35.2050 C   0  0  1  0  0  0  0  0  0  0  0  0
   37.4240   26.3560   35.1650 C   0  0  0  0  0  0  0  0  0  0  0  0
   37.9320   27.3670   34.1310 C   0  0  0  0  0  0  0  0  0  0  0  0
   39.3330   26.9340   33.7180 C   0  0  0  0  0  0  0  0  0  0  0  0
   39.7600   25.9950   34.8050 C   0  0  2  0  0  0  0  0  0  0  0  0
   39.4650   22.9100   37.7750 C   0  0  0  0  0  0  0  0  0  0  0  0
   38.7820   23.4060   38.9420 C   0  0  0  0  0  0  0  0  0  0  0  0
   37.9790   24.5550   38.8410 C   0  0  0  0  0  0  0  0  0  0  0  0
   37.9240   25.1060   37.6100 N   0  0  0  0  0  0  0  0  0  0  0  0
   38.5790   24.6140   36.5270 C   0  0  0  0  0  0  0  0  0  0  0  0
   39.3470   23.5250   36.6010 N   0  0  0  0  0  0  0  0  0  0  0  0
   40.6330   24.9470   34.1970 C   0  0  0  0  0  0  0  0  0  0  0  0
   41.8510   24.9440   34.3210 O   0  0  0  0  0  0  0  0  0  0  0  0
   40.0710   23.8460   33.4060 C   0  0  0  0  0  0  0  0  0  0  0  0
   40.4450   22.5370   33.6560 C   0  0  0  0  0  0  0  0  0  0  0  0
   39.9840   21.4360   32.9970 C   0  0  0  0  0  0  0  0  0  0  0  0
   39.0540   21.6270   31.9760 C   0  0  0  0  0  0  0  0  0  0  0  0
   38.6780   22.9060   31.7170 C   0  0  0  0  0  0  0  0  0  0  0  0
   39.1740   23.9190   32.4070 N   0  0  0  0  0  0  0  0  0  0  0  0
   38.5130   20.5450   31.2310 N   0  0  0  0  0  0  0  0  0  0  0  0
   38.8170   20.0230   29.9140 C   0  0  0  0  0  0  0  0  0  0  0  0
   37.4710   19.5960   29.3280 C   0  0  0  0  0  0  0  0  0  0  0  0
   37.1190   18.4100   29.9710 O   0  0  0  0  0  0  0  0  0  0  0  0
   37.4850   18.4080   31.3080 C   0  0  0  0  0  0  0  0  0  0  0  0
   37.4580   19.8110   31.8970 C   0  0  0  0  0  0  0  0  0  0  0  0
   37.7040   23.2930   30.6740 C   0  0  0  0  0  0  0  0  0  0  0  0
   36.5450   22.5080   30.7240 F   0  0  0  0  0  0  0  0  0  0  0  0
   37.2540   24.5950   30.8510 F   0  0  0  0  0  0  0  0  0  0  0  0
   38.2580   23.0830   29.4250 F   0  0  0  0  0  0  0  0  0  0  0  0
   38.1198   24.5603   34.5013 H   0  0  0  0  0  0  0  0  0  0  0  0
   36.4596   25.9302   34.8508 H   0  0  0  0  0  0  0  0  0  0  0  0
   37.2540   26.8156   36.1498 H   0  0  0  0  0  0  0  0  0  0  0  0
   37.2673   27.3741   33.2545 H   0  0  0  0  0  0  0  0  0  0  0  0
   37.9494   28.3812   34.5565 H   0  0  0  0  0  0  0  0  0  0  0  0
   39.3125   26.4215   32.7449 H   0  0  0  0  0  0  0  0  0  0  0  0
   40.0205   27.7846   33.6003 H   0  0  0  0  0  0  0  0  0  0  0  0
   40.3013   26.4709   35.6360 H   0  0  0  0  0  0  0  0  0  0  0  0
   40.0928   22.0104   37.8554 H   0  0  0  0  0  0  0  0  0  0  0  0
   38.8883   22.8885   39.9068 H   0  0  0  0  0  0  0  0  0  0  0  0
   37.4359   24.9740   39.7009 H   0  0  0  0  0  0  0  0  0  0  0  0
   41.1795   22.3701   34.4577 H   0  0  0  0  0  0  0  0  0  0  0  0
   40.3351   20.4280   33.2627 H   0  0  0  0  0  0  0  0  0  0  0  0
   39.2800   20.8007   29.2888 H   0  0  0  0  0  0  0  0  0  0  0  0
   39.5285   19.1853   29.9594 H   0  0  0  0  0  0  0  0  0  0  0  0
   36.7120   20.3699   29.5154 H   0  0  0  0  0  0  0  0  0  0  0  0
   37.5376   19.4542   28.2392 H   0  0  0  0  0  0  0  0  0  0  0  0
   36.7849   17.7715   31.8690 H   0  0  0  0  0  0  0  0  0  0  0  0
   38.5124   18.0223   31.3835 H   0  0  0  0  0  0  0  0  0  0  0  0
   37.6437   19.7740   32.9806 H   0  0  0  0  0  0  0  0  0  0  0  0
   36.4791   20.2906   31.7495 H   0  0  0  0  0  0  0  0  0  0  0  0
  1 10  1  0
  2  1  1  0
  3  2  1  0
  4  3  1  0
  4  5  1  0
  5  1  1  0
  6  7  2  0
  8  7  1  0
  9  8  2  0
 10 11  2  0
 10  9  1  0
 11  6  1  0
 12 13  2  0
 12  5  1  0
 14 15  2  0
 14 12  1  0
 16 15  1  0
 17 16  2  0
 18 17  1  0
 18 19  2  0
 19 14  1  0
 20 25  1  0
 20 17  1  0
 21 20  1  0
 22 21  1  0
 22 23  1  0
 23 24  1  0
 24 25  1  0
 26 27  1  0
 26 28  1  0
 26 18  1  0
 29 26  1  0
  1 30  1  6
  2 31  1  0
  2 32  1  0
  3 33  1  0
  3 34  1  0
  4 35  1  0
  4 36  1  0
  5 37  1  1
  6 38  1  0
  7 39  1  0
  8 40  1  0
 15 41  1  0
 16 42  1  0
 21 43  1  0
 21 44  1  0
 22 45  1  0
 22 46  1  0
 24 47  1  0
 24 48  1  0
 25 49  1  0
 25 50  1  0
M  ISO  8  30  13  31  13  32  13  33  13  34  13  35  13  36  13  37  13
M  ISO  8  38  14  39  14  40  14  41  14  42  14  43  13  44  13  45  13
M  ISO  5  46  13  47  13  48  13  49  13  50  13
M  END
>  <minimizedAffinity>  (1) 
-4.90791798

>  <minimizedRMSD>  (1) 
1.45918596

$$$$
