
     RDKit          3D

 33 36  0  0  0  0  0  0  0  0999 V2000
   37.0790   21.8330   34.4810 C   0  0  0  0  0  0  0  0  0  0  0  0
   36.2410   20.7370   34.5960 C   0  0  0  0  0  0  0  0  0  0  0  0
   35.3330   20.3420   33.6440 C   0  0  0  0  0  0  0  0  0  0  0  0
   35.2130   21.0450   32.4860 C   0  0  0  0  0  0  0  0  0  0  0  0
   36.0060   22.1330   32.3060 C   0  0  0  0  0  0  0  0  0  0  0  0
   35.8770   22.8450   31.1250 C   0  0  0  0  0  0  0  0  0  0  0  0
   36.6480   23.9580   30.8760 C   0  0  0  0  0  0  0  0  0  0  0  0
   37.5570   24.3360   31.8530 C   0  0  0  0  0  0  0  0  0  0  0  0
   37.6560   23.6020   33.0160 C   0  0  0  0  0  0  0  0  0  0  0  0
   36.9130   22.5090   33.2840 C   0  0  0  0  0  0  0  0  0  0  0  0
   38.0820   23.1920   37.6380 C   0  0  0  0  0  0  0  0  0  0  0  0
   39.4560   23.0490   37.7480 C   0  0  0  0  0  0  0  0  0  0  0  0
   40.0750   22.4450   36.6680 C   0  0  0  0  0  0  0  0  0  0  0  0
   39.3130   22.0580   35.6280 N   0  0  0  0  0  0  0  0  0  0  0  0
   38.0120   22.1940   35.5200 C   0  0  0  0  0  0  0  0  0  0  0  0
   37.4400   22.7710   36.5600 N   0  0  0  0  0  0  0  0  0  0  0  0
   41.5150   22.2090   36.6060 C   0  0  0  0  0  0  0  0  0  0  0  0
   42.4370   23.2450   36.4360 C   0  0  0  0  0  0  0  0  0  0  0  0
   43.6740   22.6350   36.4290 C   0  0  0  0  0  0  0  0  0  0  0  0
   43.5210   21.3140   36.5840 N   0  0  0  0  0  0  0  0  0  0  0  0
   42.2100   21.0610   36.6920 N   0  0  0  0  0  0  0  0  0  0  0  0
   36.3071   20.1389   35.5168 H   0  0  0  0  0  0  0  0  0  0  0  0
   34.7030   19.4572   33.8182 H   0  0  0  0  0  0  0  0  0  0  0  0
   34.4913   20.7399   31.7139 H   0  0  0  0  0  0  0  0  0  0  0  0
   35.1455   22.5153   30.3726 H   0  0  0  0  0  0  0  0  0  0  0  0
   36.5471   24.5253   29.9390 H   0  0  0  0  0  0  0  0  0  0  0  0
   38.1965   25.2180   31.7006 H   0  0  0  0  0  0  0  0  0  0  0  0
   38.3859   23.9280   33.7716 H   0  0  0  0  0  0  0  0  0  0  0  0
   37.5177   23.6615   38.4572 H   0  0  0  0  0  0  0  0  0  0  0  0
   40.0149   23.3914   38.6314 H   0  0  0  0  0  0  0  0  0  0  0  0
   42.2221   24.3186   36.3303 H   0  0  0  0  0  0  0  0  0  0  0  0
   44.6372   23.1536   36.3139 H   0  0  0  0  0  0  0  0  0  0  0  0
   44.2776   20.6157   36.6148 H   0  0  0  0  0  0  0  0  0  0  0  0
  1  2  2  0
  1 15  1  0
  3  2  1  0
  4  3  2  0
  5  4  1  0
  5 10  2  0
  6  5  1  0
  7  6  2  0
  7  8  1  0
  8  9  2  0
  9 10  1  0
 10  1  1  0
 11 12  2  0
 13 12  1  0
 14 13  2  0
 15 14  1  0
 15 16  2  0
 16 11  1  0
 17 13  1  0
 17 21  2  0
 18 17  1  0
 19 18  2  0
 19 20  1  0
 20 21  1  0
  2 22  1  0
  3 23  1  0
  4 24  1  0
  6 25  1  0
  7 26  1  0
  8 27  1  0
  9 28  1  0
 11 29  1  0
 12 30  1  0
 18 31  1  0
 19 32  1  0
 20 33  1  0
M  ISO  8  22  14  23  14  24  14  25  14  26  14  27  14  28  14  29  14
M  ISO  4  30  14  31  14  32  14  33   9
M  END
>  <minimizedAffinity>  (1) 
-5.50671721

>  <minimizedRMSD>  (1) 
3.58384132

$$$$
