
     RDKit          3D

 43 46  0  0  1  0  0  0  0  0999 V2000
   38.3490   25.4530   35.2640 C   0  0  1  0  0  0  0  0  0  0  0  0
   37.2890   26.4110   35.2660 C   0  0  0  0  0  0  0  0  0  0  0  0
   37.7530   27.4990   34.2930 C   0  0  0  0  0  0  0  0  0  0  0  0
   39.1770   27.1620   33.8690 C   0  0  0  0  0  0  0  0  0  0  0  0
   39.6440   26.1840   34.9030 C   0  0  2  0  0  0  0  0  0  0  0  0
   39.4300   22.8970   37.6930 C   0  0  0  0  0  0  0  0  0  0  0  0
   38.8020   23.3550   38.9070 C   0  0  0  0  0  0  0  0  0  0  0  0
   38.0220   24.5180   38.8780 C   0  0  0  0  0  0  0  0  0  0  0  0
   37.9290   25.1200   37.6720 N   0  0  0  0  0  0  0  0  0  0  0  0
   38.5290   24.6670   36.5520 C   0  0  0  0  0  0  0  0  0  0  0  0
   39.2800   23.5590   36.5480 N   0  0  0  0  0  0  0  0  0  0  0  0
   40.5720   25.2190   34.2490 C   0  0  0  0  0  0  0  0  0  0  0  0
   41.7810   25.2040   34.4740 O   0  0  0  0  0  0  0  0  0  0  0  0
   40.0880   24.2270   33.2910 C   0  0  0  0  0  0  0  0  0  0  0  0
   40.5120   22.9150   33.3660 C   0  0  0  0  0  0  0  0  0  0  0  0
   40.1140   21.8970   32.5410 C   0  0  0  0  0  0  0  0  0  0  0  0
   39.1990   22.1820   31.5240 C   0  0  0  0  0  0  0  0  0  0  0  0
   38.7780   23.4650   31.4380 C   0  0  0  0  0  0  0  0  0  0  0  0
   39.2110   24.3980   32.2770 N   0  0  0  0  0  0  0  0  0  0  0  0
   38.6970   21.1650   30.6110 C   0  0  0  0  0  0  0  0  0  0  0  0
   39.5440   20.7990   29.5160 C   0  0  0  0  0  0  0  0  0  0  0  0
   38.5350   19.5030   28.6190 S   0  0  0  0  0  0  0  0  0  0  0  0
   37.1460   19.6930   29.8990 C   0  0  0  0  0  0  0  0  0  0  0  0
   37.6050   20.4660   30.5370 N   0  0  0  0  0  0  0  0  0  0  0  0
   37.8280   23.9630   30.4230 C   0  0  0  0  0  0  0  0  0  0  0  0
   36.5990   23.3420   30.5140 F   0  0  0  0  0  0  0  0  0  0  0  0
   37.5540   25.3190   30.5960 F   0  0  0  0  0  0  0  0  0  0  0  0
   38.3300   23.7230   29.1480 F   0  0  0  0  0  0  0  0  0  0  0  0
   38.0789   24.6882   34.5209 H   0  0  0  0  0  0  0  0  0  0  0  0
   36.3508   25.9534   34.9189 H   0  0  0  0  0  0  0  0  0  0  0  0
   37.0863   26.8082   36.2716 H   0  0  0  0  0  0  0  0  0  0  0  0
   37.0945   27.5199   33.4121 H   0  0  0  0  0  0  0  0  0  0  0  0
   37.7172   28.4877   34.7738 H   0  0  0  0  0  0  0  0  0  0  0  0
   39.1890   26.7071   32.8676 H   0  0  0  0  0  0  0  0  0  0  0  0
   39.8211   28.0516   33.8078 H   0  0  0  0  0  0  0  0  0  0  0  0
   40.1588   26.6385   35.7623 H   0  0  0  0  0  0  0  0  0  0  0  0
   40.0439   21.9845   37.7132 H   0  0  0  0  0  0  0  0  0  0  0  0
   38.9339   22.7972   39.8459 H   0  0  0  0  0  0  0  0  0  0  0  0
   37.5206   24.9133   39.7737 H   0  0  0  0  0  0  0  0  0  0  0  0
   41.2331   22.6655   34.1583 H   0  0  0  0  0  0  0  0  0  0  0  0
   40.5057   20.8780   32.6758 H   0  0  0  0  0  0  0  0  0  0  0  0
   40.5427   21.1849   29.2639 H   0  0  0  0  0  0  0  0  0  0  0  0
   36.1741   19.1841   29.9799 H   0  0  0  0  0  0  0  0  0  0  0  0
  1  2  1  0
  1 10  1  0
  3  2  1  0
  4  3  1  0
  4  5  1  0
  5  1  1  0
  6  7  2  0
  8  7  1  0
  9  8  2  0
 10  9  1  0
 11 10  2  0
 11  6  1  0
 12 13  2  0
 12  5  1  0
 14 15  2  0
 14 12  1  0
 16 15  1  0
 17 16  2  0
 18 17  1  0
 18 19  2  0
 19 14  1  0
 20 17  1  0
 21 20  2  0
 22 21  1  0
 22 23  1  0
 23 24  2  0
 24 20  1  0
 25 26  1  0
 25 27  1  0
 25 18  1  0
 28 25  1  0
  1 29  1  6
  2 30  1  0
  2 31  1  0
  3 32  1  0
  3 33  1  0
  4 34  1  0
  4 35  1  0
  5 36  1  1
  6 37  1  0
  7 38  1  0
  8 39  1  0
 15 40  1  0
 16 41  1  0
 21 42  1  0
 23 43  1  0
M  ISO  8  29  13  30  13  31  13  32  13  33  13  34  13  35  13  36  13
M  ISO  7  37  14  38  14  39  14  40  14  41  14  42  14  43  14
M  END
>  <minimizedAffinity>  (1) 
-4.86303282

>  <minimizedRMSD>  (1) 
0.811345875

$$$$
