
     RDKit          3D

 39 41  0  0  1  0  0  0  0  0999 V2000
   38.2330   25.3280   35.1630 C   0  0  1  0  0  0  0  0  0  0  0  0
   37.3130   26.4140   35.2690 C   0  0  0  0  0  0  0  0  0  0  0  0
   37.7580   27.4050   34.1930 C   0  0  0  0  0  0  0  0  0  0  0  0
   39.0490   26.8710   33.5780 C   0  0  0  0  0  0  0  0  0  0  0  0
   39.5420   25.8790   34.5850 C   0  0  2  0  0  0  0  0  0  0  0  0
   39.5910   22.9030   37.5850 C   0  0  0  0  0  0  0  0  0  0  0  0
   38.9200   23.2740   38.7930 C   0  0  0  0  0  0  0  0  0  0  0  0
   38.0100   24.3430   38.7730 C   0  0  0  0  0  0  0  0  0  0  0  0
   37.8410   24.9490   37.5650 N   0  0  0  0  0  0  0  0  0  0  0  0
   38.5000   24.5600   36.4420 C   0  0  0  0  0  0  0  0  0  0  0  0
   39.3700   23.5480   36.4410 N   0  0  0  0  0  0  0  0  0  0  0  0
   40.2360   24.7800   33.8540 C   0  0  0  0  0  0  0  0  0  0  0  0
   41.4570   24.6770   33.8130 O   0  0  0  0  0  0  0  0  0  0  0  0
   39.4810   23.7440   33.1340 C   0  0  0  0  0  0  0  0  0  0  0  0
   39.9560   22.4460   33.0590 C   0  0  0  0  0  0  0  0  0  0  0  0
   39.3340   21.4020   32.4260 C   0  0  0  0  0  0  0  0  0  0  0  0
   38.1300   21.6490   31.8020 C   0  0  0  0  0  0  0  0  0  0  0  0
   37.6420   22.9200   31.8600 C   0  0  0  0  0  0  0  0  0  0  0  0
   38.3010   23.8770   32.4920 N   0  0  0  0  0  0  0  0  0  0  0  0
   36.3670   23.3610   31.2510 C   0  0  0  0  0  0  0  0  0  0  0  0
   35.6340   22.2810   30.7560 F   0  0  0  0  0  0  0  0  0  0  0  0
   35.5390   23.9680   32.1790 F   0  0  0  0  0  0  0  0  0  0  0  0
   36.6280   24.1830   30.1660 F   0  0  0  0  0  0  0  0  0  0  0  0
   37.3880   20.6090   31.1050 C   0  0  0  0  0  0  0  0  0  0  0  0
   37.8620   20.1730   30.0280 O   0  0  0  0  0  0  0  0  0  0  0  0
   37.7644   24.5817   34.5046 H   0  0  0  0  0  0  0  0  0  0  0  0
   36.2849   26.0715   35.0798 H   0  0  0  0  0  0  0  0  0  0  0  0
   37.3119   26.8624   36.2734 H   0  0  0  0  0  0  0  0  0  0  0  0
   36.9815   27.4914   33.4186 H   0  0  0  0  0  0  0  0  0  0  0  0
   37.9218   28.4012   34.6298 H   0  0  0  0  0  0  0  0  0  0  0  0
   38.8503   26.3831   32.6124 H   0  0  0  0  0  0  0  0  0  0  0  0
   39.7811   27.6653   33.3704 H   0  0  0  0  0  0  0  0  0  0  0  0
   40.2289   26.2941   35.3372 H   0  0  0  0  0  0  0  0  0  0  0  0
   40.3052   22.0665   37.6016 H   0  0  0  0  0  0  0  0  0  0  0  0
   39.1150   22.7275   39.7275 H   0  0  0  0  0  0  0  0  0  0  0  0
   37.4692   24.6695   39.6735 H   0  0  0  0  0  0  0  0  0  0  0  0
   40.9169   22.2341   33.5506 H   0  0  0  0  0  0  0  0  0  0  0  0
   39.7819   20.3973   32.4161 H   0  0  0  0  0  0  0  0  0  0  0  0
   36.4426   20.2179   31.5090 H   0  0  0  0  0  0  0  0  0  0  0  0
  1  2  1  0
  1 10  1  0
  3  2  1  0
  4  3  1  0
  4  5  1  0
  5  1  1  0
  6  7  2  0
  8  7  1  0
  9  8  2  0
 10  9  1  0
 11 10  2  0
 11  6  1  0
 12  5  1  0
 13 12  2  0
 14 12  1  0
 15 14  2  0
 16 15  1  0
 17 18  1  0
 17 16  2  0
 18 19  2  0
 19 14  1  0
 20 18  1  0
 20 22  1  0
 21 20  1  0
 23 20  1  0
 24 17  1  0
 25 24  2  0
  1 26  1  6
  2 27  1  0
  2 28  1  0
  3 29  1  0
  3 30  1  0
  4 31  1  0
  4 32  1  0
  5 33  1  1
  6 34  1  0
  7 35  1  0
  8 36  1  0
 15 37  1  0
 16 38  1  0
 24 39  1  0
M  ISO  8  26  13  27  13  28  13  29  13  30  13  31  13  32  13  33  13
M  ISO  6  34  14  35  14  36  14  37  14  38  14  39   6
M  END
>  <minimizedAffinity>  (1) 
-4.83294058

>  <minimizedRMSD>  (1) 
1.55833435

$$$$
