
     RDKit          3D

 32 35  0  0  0  0  0  0  0  0999 V2000
   37.8220   25.8420   33.6240 C   0  0  0  0  0  0  0  0  0  0  0  0
   37.4290   26.1970   34.8900 C   0  0  0  0  0  0  0  0  0  0  0  0
   38.2200   26.8660   35.7930 C   0  0  0  0  0  0  0  0  0  0  0  0
   39.4910   27.2220   35.4460 C   0  0  0  0  0  0  0  0  0  0  0  0
   39.9520   26.9000   34.1950 C   0  0  0  0  0  0  0  0  0  0  0  0
   41.2440   27.2680   33.8620 C   0  0  0  0  0  0  0  0  0  0  0  0
   41.7630   26.9770   32.6390 C   0  0  0  0  0  0  0  0  0  0  0  0
   40.9430   26.2970   31.7390 C   0  0  0  0  0  0  0  0  0  0  0  0
   39.6690   25.9520   32.1120 C   0  0  0  0  0  0  0  0  0  0  0  0
   39.1210   26.2320   33.3350 C   0  0  0  0  0  0  0  0  0  0  0  0
   35.3500   25.5450   31.0450 C   0  0  0  0  0  0  0  0  0  0  0  0
   35.1380   24.1760   30.8120 C   0  0  0  0  0  0  0  0  0  0  0  0
   35.8940   23.3320   31.5930 C   0  0  0  0  0  0  0  0  0  0  0  0
   36.7270   23.8790   32.4660 N   0  0  0  0  0  0  0  0  0  0  0  0
   36.9520   25.1400   32.7130 C   0  0  0  0  0  0  0  0  0  0  0  0
   36.2250   25.9420   31.9620 N   0  0  0  0  0  0  0  0  0  0  0  0
   35.8210   21.8770   31.5020 C   0  0  0  0  0  0  0  0  0  0  0  0
   34.9540   21.1440   32.4700 C   0  0  0  0  0  0  0  0  0  0  0  0
   35.1650   19.4080   31.9960 S   0  0  0  0  0  0  0  0  0  0  0  0
   36.3580   19.8990   30.6000 C   0  0  0  0  0  0  0  0  0  0  0  0
   36.4220   21.0260   30.6620 N   0  0  0  0  0  0  0  0  0  0  0  0
   36.4098   25.9273   35.2039 H   0  0  0  0  0  0  0  0  0  0  0  0
   37.8303   27.1135   36.7914 H   0  0  0  0  0  0  0  0  0  0  0  0
   40.1353   27.7585   36.1581 H   0  0  0  0  0  0  0  0  0  0  0  0
   41.8608   27.8043   34.5981 H   0  0  0  0  0  0  0  0  0  0  0  0
   42.7896   27.2667   32.3702 H   0  0  0  0  0  0  0  0  0  0  0  0
   41.3155   26.0390   30.7366 H   0  0  0  0  0  0  0  0  0  0  0  0
   39.0469   25.4152   31.3807 H   0  0  0  0  0  0  0  0  0  0  0  0
   34.7884   26.2921   30.4650 H   0  0  0  0  0  0  0  0  0  0  0  0
   34.4224   23.8069   30.0626 H   0  0  0  0  0  0  0  0  0  0  0  0
   34.3343   21.5587   33.2787 H   0  0  0  0  0  0  0  0  0  0  0  0
   36.8718   19.2344   29.8898 H   0  0  0  0  0  0  0  0  0  0  0  0
  1  2  2  0
  2  3  1  0
  4  3  2  0
  5  4  1  0
  6  5  2  0
  7  6  1  0
  8  9  1  0
  8  7  2  0
  9 10  2  0
 10  1  1  0
 10  5  1  0
 11 16  2  0
 12 11  1  0
 12 13  2  0
 13 14  1  0
 14 15  2  0
 15  1  1  0
 16 15  1  0
 17 13  1  0
 17 18  2  0
 19 18  1  0
 20 21  2  0
 20 19  1  0
 21 17  1  0
  2 22  1  0
  3 23  1  0
  4 24  1  0
  6 25  1  0
  7 26  1  0
  8 27  1  0
  9 28  1  0
 11 29  1  0
 12 30  1  0
 18 31  1  0
 20 32  1  0
M  ISO  8  22  14  23  14  24  14  25  14  26  14  27  14  28  14  29  14
M  ISO  3  30  14  31  14  32  14
M  END
>  <minimizedAffinity>  (1) 
-5.50605488

>  <minimizedRMSD>  (1) 
7.11968803

$$$$
