
     RDKit          3D

 38 40  0  0  1  0  0  0  0  0999 V2000
   38.4000   25.4030   35.1150 C   0  0  1  0  0  0  0  0  0  0  0  0
   37.2200   26.2050   35.0600 C   0  0  0  0  0  0  0  0  0  0  0  0
   37.5910   27.3780   34.1470 C   0  0  0  0  0  0  0  0  0  0  0  0
   39.0740   27.2520   33.8200 C   0  0  0  0  0  0  0  0  0  0  0  0
   39.5970   26.3260   34.8740 C   0  0  2  0  0  0  0  0  0  0  0  0
   39.5760   22.8740   37.5290 C   0  0  0  0  0  0  0  0  0  0  0  0
   38.8980   23.2700   38.7280 C   0  0  0  0  0  0  0  0  0  0  0  0
   38.0480   24.3850   38.7070 C   0  0  0  0  0  0  0  0  0  0  0  0
   37.9520   24.9950   37.5070 N   0  0  0  0  0  0  0  0  0  0  0  0
   38.5960   24.6080   36.3930 C   0  0  0  0  0  0  0  0  0  0  0  0
   39.4100   23.5480   36.3950 N   0  0  0  0  0  0  0  0  0  0  0  0
   40.7030   25.5210   34.2720 C   0  0  0  0  0  0  0  0  0  0  0  0
   41.8740   25.6360   34.6100 O   0  0  0  0  0  0  0  0  0  0  0  0
   40.4400   24.5290   33.2200 C   0  0  0  0  0  0  0  0  0  0  0  0
   41.1760   23.3630   33.1540 C   0  0  0  0  0  0  0  0  0  0  0  0
   41.0190   22.3690   32.2310 C   0  0  0  0  0  0  0  0  0  0  0  0
   40.0420   22.5200   31.2670 C   0  0  0  0  0  0  0  0  0  0  0  0
   39.3030   23.6670   31.3130 C   0  0  0  0  0  0  0  0  0  0  0  0
   39.5220   24.5810   32.2430 N   0  0  0  0  0  0  0  0  0  0  0  0
   38.2070   24.0120   30.3660 C   0  0  0  0  0  0  0  0  0  0  0  0
   37.1600   23.0870   30.4490 F   0  0  0  0  0  0  0  0  0  0  0  0
   37.6450   25.2380   30.6540 F   0  0  0  0  0  0  0  0  0  0  0  0
   38.6900   23.9140   29.0730 F   0  0  0  0  0  0  0  0  0  0  0  0
   39.7680   21.6120   30.2780 O   0  0  0  0  0  0  0  0  0  0  0  0
   38.2980   24.6316   34.3375 H   0  0  0  0  0  0  0  0  0  0  0  0
   36.3814   25.6332   34.6359 H   0  0  0  0  0  0  0  0  0  0  0  0
   36.8962   26.5389   36.0568 H   0  0  0  0  0  0  0  0  0  0  0  0
   36.9975   27.3363   33.2218 H   0  0  0  0  0  0  0  0  0  0  0  0
   37.3838   28.3370   34.6444 H   0  0  0  0  0  0  0  0  0  0  0  0
   39.2188   26.8248   32.8167 H   0  0  0  0  0  0  0  0  0  0  0  0
   39.5912   28.2228   33.8132 H   0  0  0  0  0  0  0  0  0  0  0  0
   39.9705   26.8254   35.7801 H   0  0  0  0  0  0  0  0  0  0  0  0
   40.2434   21.9998   37.5472 H   0  0  0  0  0  0  0  0  0  0  0  0
   39.0436   22.7027   39.6591 H   0  0  0  0  0  0  0  0  0  0  0  0
   37.5035   24.7343   39.5967 H   0  0  0  0  0  0  0  0  0  0  0  0
   41.9594   23.2219   33.9132 H   0  0  0  0  0  0  0  0  0  0  0  0
   41.6543   21.4713   32.2548 H   0  0  0  0  0  0  0  0  0  0  0  0
   40.2877   20.7714   30.2200 H   0  0  0  0  0  0  0  0  0  0  0  0
  1 10  1  0
  2  1  1  0
  3  2  1  0
  4  3  1  0
  4  5  1  0
  5  1  1  0
  6  7  2  0
  8  7  1  0
  9  8  2  0
 10 11  2  0
 10  9  1  0
 11  6  1  0
 12 13  2  0
 12  5  1  0
 14 12  1  0
 15 14  2  0
 16 15  1  0
 17 18  1  0
 17 16  2  0
 18 19  2  0
 19 14  1  0
 20 21  1  0
 20 22  1  0
 20 18  1  0
 23 20  1  0
 24 17  1  0
  1 25  1  6
  2 26  1  0
  2 27  1  0
  3 28  1  0
  3 29  1  0
  4 30  1  0
  4 31  1  0
  5 32  1  1
  6 33  1  0
  7 34  1  0
  8 35  1  0
 15 36  1  0
 16 37  1  0
 24 38  1  0
M  ISO  8  25  13  26  13  27  13  28  13  29  13  30  13  31  13  32  13
M  ISO  6  33  14  34  14  35  14  36  14  37  14  38   3
M  END
>  <minimizedAffinity>  (1) 
-4.66034842

>  <minimizedRMSD>  (1) 
0.0670425594

$$$$
