
     RDKit          3D

 40 42  0  0  1  0  0  0  0  0999 V2000
   38.4010   25.4020   35.1950 C   0  0  1  0  0  0  0  0  0  0  0  0
   37.3060   26.3200   35.1780 C   0  0  0  0  0  0  0  0  0  0  0  0
   37.7410   27.4270   34.2110 C   0  0  0  0  0  0  0  0  0  0  0  0
   39.1900   27.1540   33.8290 C   0  0  0  0  0  0  0  0  0  0  0  0
   39.6720   26.1950   34.8710 C   0  0  2  0  0  0  0  0  0  0  0  0
   39.5110   22.8760   37.6410 C   0  0  0  0  0  0  0  0  0  0  0  0
   38.8460   23.3110   38.8390 C   0  0  0  0  0  0  0  0  0  0  0  0
   38.0290   24.4500   38.8000 C   0  0  0  0  0  0  0  0  0  0  0  0
   37.9410   25.0530   37.5960 N   0  0  0  0  0  0  0  0  0  0  0  0
   38.5760   24.6240   36.4840 C   0  0  0  0  0  0  0  0  0  0  0  0
   39.3620   23.5370   36.5000 N   0  0  0  0  0  0  0  0  0  0  0  0
   40.6580   25.2730   34.2420 C   0  0  0  0  0  0  0  0  0  0  0  0
   41.8540   25.2850   34.5230 O   0  0  0  0  0  0  0  0  0  0  0  0
   40.2470   24.2840   33.2330 C   0  0  0  0  0  0  0  0  0  0  0  0
   40.7710   23.0000   33.2380 C   0  0  0  0  0  0  0  0  0  0  0  0
   40.4590   22.0020   32.3660 C   0  0  0  0  0  0  0  0  0  0  0  0
   39.5360   22.2840   31.3820 C   0  0  0  0  0  0  0  0  0  0  0  0
   39.0010   23.5310   31.3470 C   0  0  0  0  0  0  0  0  0  0  0  0
   39.3590   24.4410   32.2310 N   0  0  0  0  0  0  0  0  0  0  0  0
   37.9990   23.9890   30.3590 C   0  0  0  0  0  0  0  0  0  0  0  0
   36.8150   23.2740   30.4590 F   0  0  0  0  0  0  0  0  0  0  0  0
   37.6440   25.3160   30.5750 F   0  0  0  0  0  0  0  0  0  0  0  0
   38.4890   23.7960   29.0770 F   0  0  0  0  0  0  0  0  0  0  0  0
   39.1610   21.2560   30.4440 C   0  0  0  0  0  0  0  0  0  0  0  0
   39.8900   20.9410   29.4940 O   0  0  0  0  0  0  0  0  0  0  0  0
   38.0880   20.4180   30.2840 O   0  0  0  0  0  0  0  0  0  0  0  0
   38.1872   24.6275   34.4437 H   0  0  0  0  0  0  0  0  0  0  0  0
   36.3917   25.8265   34.8167 H   0  0  0  0  0  0  0  0  0  0  0  0
   37.0745   26.7101   36.1801 H   0  0  0  0  0  0  0  0  0  0  0  0
   37.1062   27.4126   33.3128 H   0  0  0  0  0  0  0  0  0  0  0  0
   37.6432   28.4158   34.6830 H   0  0  0  0  0  0  0  0  0  0  0  0
   39.2508   26.7039   32.8271 H   0  0  0  0  0  0  0  0  0  0  0  0
   39.7948   28.0720   33.7905 H   0  0  0  0  0  0  0  0  0  0  0  0
   40.1426   26.6714   35.7437 H   0  0  0  0  0  0  0  0  0  0  0  0
   40.1523   21.9828   37.6705 H   0  0  0  0  0  0  0  0  0  0  0  0
   38.9770   22.7547   39.7789 H   0  0  0  0  0  0  0  0  0  0  0  0
   37.4979   24.8251   39.6873 H   0  0  0  0  0  0  0  0  0  0  0  0
   41.5081   22.7658   34.0202 H   0  0  0  0  0  0  0  0  0  0  0  0
   40.9256   21.0089   32.4438 H   0  0  0  0  0  0  0  0  0  0  0  0
   38.0688   19.7769   29.5299 H   0  0  0  0  0  0  0  0  0  0  0  0
  1 10  1  0
  2  1  1  0
  3  2  1  0
  4  3  1  0
  4  5  1  0
  5  1  1  0
  6  7  2  0
  8  7  1  0
  9  8  2  0
 10 11  2  0
 10  9  1  0
 11  6  1  0
 12 13  2  0
 12  5  1  0
 14 15  2  0
 14 12  1  0
 16 15  1  0
 17 16  2  0
 18 17  1  0
 18 19  2  0
 19 14  1  0
 20 21  1  0
 20 22  1  0
 20 18  1  0
 23 20  1  0
 24 17  1  0
 25 24  2  0
 26 24  1  0
  1 27  1  6
  2 28  1  0
  2 29  1  0
  3 30  1  0
  3 31  1  0
  4 32  1  0
  4 33  1  0
  5 34  1  1
  6 35  1  0
  7 36  1  0
  8 37  1  0
 15 38  1  0
 16 39  1  0
 26 40  1  0
M  ISO  8  27  13  28  13  29  13  30  13  31  13  32  13  33  13  34  13
M  ISO  6  35  14  36  14  37  14  38  14  39  14  40   3
M  END
>  <minimizedAffinity>  (1) 
-4.59097719

>  <minimizedRMSD>  (1) 
0.554536939

$$$$
