
     RDKit          3D

 43 45  0  0  1  0  0  0  0  0999 V2000
   38.3940   25.4000   35.1420 C   0  0  1  0  0  0  0  0  0  0  0  0
   37.2640   26.2700   35.1150 C   0  0  0  0  0  0  0  0  0  0  0  0
   37.6640   27.4180   34.1770 C   0  0  0  0  0  0  0  0  0  0  0  0
   39.1280   27.2200   33.8210 C   0  0  0  0  0  0  0  0  0  0  0  0
   39.6240   26.2670   34.8600 C   0  0  2  0  0  0  0  0  0  0  0  0
   39.5660   22.8770   37.5520 C   0  0  0  0  0  0  0  0  0  0  0  0
   38.8920   23.2740   38.7600 C   0  0  0  0  0  0  0  0  0  0  0  0
   38.0430   24.3950   38.7260 C   0  0  0  0  0  0  0  0  0  0  0  0
   37.9330   25.0160   37.5330 N   0  0  0  0  0  0  0  0  0  0  0  0
   38.5860   24.6150   36.4120 C   0  0  0  0  0  0  0  0  0  0  0  0
   39.4030   23.5450   36.4220 N   0  0  0  0  0  0  0  0  0  0  0  0
   40.6710   25.4020   34.2330 C   0  0  0  0  0  0  0  0  0  0  0  0
   41.8660   25.4770   34.5410 O   0  0  0  0  0  0  0  0  0  0  0  0
   40.3350   24.4060   33.2040 C   0  0  0  0  0  0  0  0  0  0  0  0
   40.9800   23.2030   33.1540 C   0  0  0  0  0  0  0  0  0  0  0  0
   40.7580   22.2190   32.2420 C   0  0  0  0  0  0  0  0  0  0  0  0
   39.7960   22.4310   31.2690 C   0  0  0  0  0  0  0  0  0  0  0  0
   39.1390   23.6230   31.3020 C   0  0  0  0  0  0  0  0  0  0  0  0
   39.4150   24.5260   32.2210 N   0  0  0  0  0  0  0  0  0  0  0  0
   38.0690   24.0330   30.3450 C   0  0  0  0  0  0  0  0  0  0  0  0
   36.9500   23.2080   30.4550 F   0  0  0  0  0  0  0  0  0  0  0  0
   37.6360   25.3210   30.5960 F   0  0  0  0  0  0  0  0  0  0  0  0
   38.5380   23.8810   29.0590 F   0  0  0  0  0  0  0  0  0  0  0  0
   39.4600   21.4960   30.2040 C   0  0  0  0  0  0  0  0  0  0  0  0
   38.6030   20.3200   30.5970 C   0  0  0  0  0  0  0  0  0  0  0  0
   38.2293   24.6226   34.3814 H   0  0  0  0  0  0  0  0  0  0  0  0
   36.3805   25.7432   34.7253 H   0  0  0  0  0  0  0  0  0  0  0  0
   36.9992   26.6322   36.1193 H   0  0  0  0  0  0  0  0  0  0  0  0
   37.0480   27.3920   33.2660 H   0  0  0  0  0  0  0  0  0  0  0  0
   37.5096   28.3918   34.6647 H   0  0  0  0  0  0  0  0  0  0  0  0
   39.2313   26.7898   32.8139 H   0  0  0  0  0  0  0  0  0  0  0  0
   39.6928   28.1638   33.8064 H   0  0  0  0  0  0  0  0  0  0  0  0
   40.0421   26.7539   35.7534 H   0  0  0  0  0  0  0  0  0  0  0  0
   40.2302   22.0003   37.5687 H   0  0  0  0  0  0  0  0  0  0  0  0
   39.0382   22.7107   39.6935 H   0  0  0  0  0  0  0  0  0  0  0  0
   37.5017   24.7442   39.6176 H   0  0  0  0  0  0  0  0  0  0  0  0
   41.7470   23.0133   33.9193 H   0  0  0  0  0  0  0  0  0  0  0  0
   41.3280   21.2788   32.2764 H   0  0  0  0  0  0  0  0  0  0  0  0
   40.4016   21.1027   29.7932 H   0  0  0  0  0  0  0  0  0  0  0  0
   38.8582   22.0719   29.4856 H   0  0  0  0  0  0  0  0  0  0  0  0
   38.5538   20.2525   31.6938 H   0  0  0  0  0  0  0  0  0  0  0  0
   37.5890   20.4536   30.1920 H   0  0  0  0  0  0  0  0  0  0  0  0
   39.0407   19.3957   30.1920 H   0  0  0  0  0  0  0  0  0  0  0  0
  1 10  1  0
  2  1  1  0
  3  2  1  0
  4  3  1  0
  4  5  1  0
  5  1  1  0
  6  7  2  0
  8  7  1  0
  9  8  2  0
 10 11  2  0
 10  9  1  0
 11  6  1  0
 12 13  2  0
 12  5  1  0
 14 12  1  0
 15 14  2  0
 16 15  1  0
 17 18  1  0
 17 16  2  0
 18 19  2  0
 19 14  1  0
 20 21  1  0
 20 22  1  0
 20 18  1  0
 23 20  1  0
 24 25  1  0
 24 17  1  0
  1 26  1  6
  2 27  1  0
  2 28  1  0
  3 29  1  0
  3 30  1  0
  4 31  1  0
  4 32  1  0
  5 33  1  1
  6 34  1  0
  7 35  1  0
  8 36  1  0
 15 37  1  0
 16 38  1  0
 24 39  1  0
 24 40  1  0
 25 41  1  0
 25 42  1  0
 25 43  1  0
M  ISO  8  26  13  27  13  28  13  29  13  30  13  31  13  32  13  33  13
M  ISO  8  34  14  35  14  36  14  37  14  38  14  39   8  40   8  41   8
M  ISO  2  42   8  43   8
M  END
>  <minimizedAffinity>  (1) 
-4.57497931

>  <minimizedRMSD>  (1) 
0.306067646

$$$$
