
     RDKit          3D

 18 19  0  0  0  0  0  0  0  0999 V2000
   39.9640   22.6690   37.4120 C   0  0  0  0  0  0  0  0  0  0  0  0
   39.2710   23.3420   38.4280 C   0  0  0  0  0  0  0  0  0  0  0  0
   37.8780   23.5140   38.2740 C   0  0  0  0  0  0  0  0  0  0  0  0
   37.2950   23.0110   37.1420 N   0  0  0  0  0  0  0  0  0  0  0  0
   38.0110   22.3680   36.1890 C   0  0  0  0  0  0  0  0  0  0  0  0
   39.3330   22.1960   36.3180 N   0  0  0  0  0  0  0  0  0  0  0  0
   37.2760   21.8780   35.0280 C   0  0  0  0  0  0  0  0  0  0  0  0
   36.2070   21.0050   35.1700 C   0  0  0  0  0  0  0  0  0  0  0  0
   35.5570   20.5800   34.0390 C   0  0  0  0  0  0  0  0  0  0  0  0
   35.9580   21.0100   32.8130 N   0  0  0  0  0  0  0  0  0  0  0  0
   37.0070   21.8660   32.6810 C   0  0  0  0  0  0  0  0  0  0  0  0
   37.6570   22.2910   33.8040 N   0  0  0  0  0  0  0  0  0  0  0  0
   41.0499   22.5231   37.5096 H   0  0  0  0  0  0  0  0  0  0  0  0
   39.7955   23.7237   39.3164 H   0  0  0  0  0  0  0  0  0  0  0  0
   37.2814   24.0345   39.0377 H   0  0  0  0  0  0  0  0  0  0  0  0
   35.8883   20.6619   36.1654 H   0  0  0  0  0  0  0  0  0  0  0  0
   34.7066   19.8875   34.1245 H   0  0  0  0  0  0  0  0  0  0  0  0
   37.3262   22.2100   31.6861 H   0  0  0  0  0  0  0  0  0  0  0  0
  1  2  2  0
  3  2  1  0
  4  3  2  0
  5  6  2  0
  5  4  1  0
  6  1  1  0
  7  8  2  0
  7  5  1  0
  9  8  1  0
 10  9  2  0
 11 10  1  0
 11 12  2  0
 12  7  1  0
  1 13  1  0
  2 14  1  0
  3 15  1  0
  8 16  1  0
  9 17  1  0
 11 18  1  0
M  ISO  6  13  14  14  14  15  14  16  14  17  14  18  14
M  END
>  <minimizedAffinity>  (1) 
-3.72638178

>  <minimizedRMSD>  (1) 
1.33632255

$$$$
