
     RDKit          3D

 28 30  0  0  0  0  0  0  0  0999 V2000
   37.4220   22.0060   35.0400 C   0  0  0  0  0  0  0  0  0  0  0  0
   36.3380   21.1280   35.1020 C   0  0  0  0  0  0  0  0  0  0  0  0
   35.7730   20.7470   33.9000 C   0  0  0  0  0  0  0  0  0  0  0  0
   36.2610   21.2170   32.7190 N   0  0  0  0  0  0  0  0  0  0  0  0
   37.3100   22.0670   32.6890 C   0  0  0  0  0  0  0  0  0  0  0  0
   37.8830   22.4540   33.8630 N   0  0  0  0  0  0  0  0  0  0  0  0
   37.8760   22.6000   31.4990 N   0  0  0  0  0  0  0  0  0  0  0  0
   38.8580   21.9070   30.8530 C   0  0  0  0  0  0  0  0  0  0  0  0
   39.3980   22.4510   29.6870 C   0  0  0  0  0  0  0  0  0  0  0  0
   38.9500   23.6660   29.1920 C   0  0  0  0  0  0  0  0  0  0  0  0
   39.4600   24.1260   28.1380 O   0  0  0  0  0  0  0  0  0  0  0  0
   37.9820   24.2950   29.8760 N   0  0  0  0  0  0  0  0  0  0  0  0
   37.4400   23.7960   31.0060 C   0  0  0  0  0  0  0  0  0  0  0  0
   36.5390   24.3610   31.6590 O   0  0  0  0  0  0  0  0  0  0  0  0
   39.9460   22.7090   37.6220 C   0  0  0  0  0  0  0  0  0  0  0  0
   39.1950   23.3350   38.6160 C   0  0  0  0  0  0  0  0  0  0  0  0
   37.8020   23.5130   38.3850 C   0  0  0  0  0  0  0  0  0  0  0  0
   37.3090   23.0520   37.1980 N   0  0  0  0  0  0  0  0  0  0  0  0
   38.0740   22.4550   36.2700 C   0  0  0  0  0  0  0  0  0  0  0  0
   39.3950   22.2750   36.4660 N   0  0  0  0  0  0  0  0  0  0  0  0
   35.9519   20.7570   36.0629 H   0  0  0  0  0  0  0  0  0  0  0  0
   34.9179   20.0550   33.8972 H   0  0  0  0  0  0  0  0  0  0  0  0
   39.2155   20.9423   31.2422 H   0  0  0  0  0  0  0  0  0  0  0  0
   40.1911   21.9076   29.1525 H   0  0  0  0  0  0  0  0  0  0  0  0
   37.6375   25.1990   29.5225 H   0  0  0  0  0  0  0  0  0  0  0  0
   41.0242   22.5631   37.7838 H   0  0  0  0  0  0  0  0  0  0  0  0
   39.6642   23.6803   39.5491 H   0  0  0  0  0  0  0  0  0  0  0  0
   37.1528   23.9993   39.1280 H   0  0  0  0  0  0  0  0  0  0  0  0
  1  2  2  0
  1 19  1  0
  3  2  1  0
  4  3  2  0
  5  4  1  0
  5  6  2  0
  6  1  1  0
  7  5  1  0
  8  7  1  0
  9  8  2  0
 10  9  1  0
 10 12  1  0
 11 10  2  0
 12 13  1  0
 13  7  1  0
 13 14  2  0
 15 16  2  0
 17 16  1  0
 18 17  2  0
 19 20  2  0
 19 18  1  0
 20 15  1  0
  2 21  1  0
  3 22  1  0
  8 23  1  0
  9 24  1  0
 12 25  1  0
 15 26  1  0
 16 27  1  0
 17 28  1  0
M  ISO  8  21  14  22  14  23  14  24  14  25   9  26  14  27  14  28  14
M  END
>  <minimizedAffinity>  (1) 
-5.21047068

>  <minimizedRMSD>  (1) 
0.409705371

$$$$
