
     RDKit          3D

 32 35  0  0  0  0  0  0  0  0999 V2000
   37.3540   21.6430   34.9540 C   0  0  0  0  0  0  0  0  0  0  0  0
   36.0680   21.1160   35.0610 C   0  0  0  0  0  0  0  0  0  0  0  0
   35.5010   20.5590   33.9390 C   0  0  0  0  0  0  0  0  0  0  0  0
   36.1960   20.5300   32.7580 N   0  0  0  0  0  0  0  0  0  0  0  0
   37.4420   21.0460   32.6790 C   0  0  0  0  0  0  0  0  0  0  0  0
   38.0110   21.6010   33.7880 N   0  0  0  0  0  0  0  0  0  0  0  0
   38.1420   20.9930   31.4000 C   0  0  0  0  0  0  0  0  0  0  0  0
   39.2640   21.7350   31.1470 C   0  0  0  0  0  0  0  0  0  0  0  0
   39.6150   21.4130   29.8670 N   0  0  0  0  0  0  0  0  0  0  0  0
   38.7480   20.5110   29.3470 C   0  0  0  0  0  0  0  0  0  0  0  0
   38.7100   19.9110   28.1050 C   0  0  0  0  0  0  0  0  0  0  0  0
   37.6840   19.0110   27.8560 C   0  0  0  0  0  0  0  0  0  0  0  0
   36.7090   18.7050   28.8070 C   0  0  0  0  0  0  0  0  0  0  0  0
   36.7870   19.3330   30.0420 C   0  0  0  0  0  0  0  0  0  0  0  0
   37.7980   20.2260   30.3060 C   0  0  0  0  0  0  0  0  0  0  0  0
   39.9050   22.7360   37.3690 C   0  0  0  0  0  0  0  0  0  0  0  0
   39.1220   23.4150   38.3280 C   0  0  0  0  0  0  0  0  0  0  0  0
   37.7370   23.4800   38.1220 C   0  0  0  0  0  0  0  0  0  0  0  0
   37.2250   22.8830   37.0040 N   0  0  0  0  0  0  0  0  0  0  0  0
   38.0030   22.2450   36.1120 C   0  0  0  0  0  0  0  0  0  0  0  0
   39.3250   22.1730   36.2940 N   0  0  0  0  0  0  0  0  0  0  0  0
   35.5224   21.1449   36.0157 H   0  0  0  0  0  0  0  0  0  0  0  0
   34.4870   20.1356   33.9893 H   0  0  0  0  0  0  0  0  0  0  0  0
   39.7715   22.4365   31.8255 H   0  0  0  0  0  0  0  0  0  0  0  0
   40.4266   21.8021   29.3662 H   0  0  0  0  0  0  0  0  0  0  0  0
   39.4665   20.1383   27.3394 H   0  0  0  0  0  0  0  0  0  0  0  0
   37.6370   18.5203   26.8726 H   0  0  0  0  0  0  0  0  0  0  0  0
   35.9044   17.9887   28.5845 H   0  0  0  0  0  0  0  0  0  0  0  0
   36.0350   19.1148   30.8146 H   0  0  0  0  0  0  0  0  0  0  0  0
   40.9948   22.6671   37.5018 H   0  0  0  0  0  0  0  0  0  0  0  0
   39.5854   23.8794   39.2110 H   0  0  0  0  0  0  0  0  0  0  0  0
   37.0815   23.9962   38.8389 H   0  0  0  0  0  0  0  0  0  0  0  0
  1  2  2  0
  1 20  1  0
  3  2  1  0
  4  3  2  0
  5  4  1  0
  5  6  2  0
  6  1  1  0
  7  5  1  0
  8  7  2  0
  9  8  1  0
 10  9  1  0
 10 15  2  0
 11 10  1  0
 12 11  2  0
 12 13  1  0
 13 14  2  0
 14 15  1  0
 15  7  1  0
 16 17  2  0
 18 17  1  0
 19 18  2  0
 20 21  2  0
 20 19  1  0
 21 16  1  0
  2 22  1  0
  3 23  1  0
  8 24  1  0
  9 25  1  0
 11 26  1  0
 12 27  1  0
 13 28  1  0
 14 29  1  0
 16 30  1  0
 17 31  1  0
 18 32  1  0
M  ISO  8  22  14  23  14  24  14  25   9  26  14  27  14  28  14  29  14
M  ISO  3  30  14  31  14  32  14
M  END
>  <minimizedAffinity>  (1) 
-4.96775389

>  <minimizedRMSD>  (1) 
1.24974883

$$$$
