
     RDKit          3D

 29 32  0  0  0  0  0  0  0  0999 V2000
   37.3960   21.8580   35.1230 C   0  0  0  0  0  0  0  0  0  0  0  0
   36.2390   21.1100   35.2280 C   0  0  0  0  0  0  0  0  0  0  0  0
   35.6670   20.6270   34.0820 C   0  0  0  0  0  0  0  0  0  0  0  0
   36.2400   20.8890   32.8680 N   0  0  0  0  0  0  0  0  0  0  0  0
   37.3720   21.6200   32.7760 C   0  0  0  0  0  0  0  0  0  0  0  0
   37.9560   22.1110   33.9150 N   0  0  0  0  0  0  0  0  0  0  0  0
   37.9850   21.9040   31.5210 N   0  0  0  0  0  0  0  0  0  0  0  0
   38.2630   20.9720   30.5860 C   0  0  0  0  0  0  0  0  0  0  0  0
   38.8470   21.4830   29.4760 N   0  0  0  0  0  0  0  0  0  0  0  0
   38.9480   22.8090   29.7140 C   0  0  0  0  0  0  0  0  0  0  0  0
   39.4340   23.9210   29.0290 C   0  0  0  0  0  0  0  0  0  0  0  0
   39.3990   25.1620   29.5390 N   0  0  0  0  0  0  0  0  0  0  0  0
   38.8670   25.3570   30.7790 C   0  0  0  0  0  0  0  0  0  0  0  0
   38.3820   24.3040   31.4830 N   0  0  0  0  0  0  0  0  0  0  0  0
   38.4190   23.0490   30.9650 C   0  0  0  0  0  0  0  0  0  0  0  0
   39.9240   22.7650   37.6370 C   0  0  0  0  0  0  0  0  0  0  0  0
   39.1730   23.4680   38.5760 C   0  0  0  0  0  0  0  0  0  0  0  0
   37.7800   23.6280   38.3350 C   0  0  0  0  0  0  0  0  0  0  0  0
   37.2670   23.0780   37.1890 N   0  0  0  0  0  0  0  0  0  0  0  0
   38.0580   22.4040   36.3150 C   0  0  0  0  0  0  0  0  0  0  0  0
   39.3670   22.2460   36.5300 N   0  0  0  0  0  0  0  0  0  0  0  0
   35.7877   20.9072   36.2104 H   0  0  0  0  0  0  0  0  0  0  0  0
   34.7461   20.0279   34.1375 H   0  0  0  0  0  0  0  0  0  0  0  0
   38.0376   19.9028   30.7127 H   0  0  0  0  0  0  0  0  0  0  0  0
   39.8648   23.7754   28.0274 H   0  0  0  0  0  0  0  0  0  0  0  0
   38.8311   26.3689   31.2088 H   0  0  0  0  0  0  0  0  0  0  0  0
   41.0026   22.6311   37.8064 H   0  0  0  0  0  0  0  0  0  0  0  0
   39.6432   23.8873   39.4777 H   0  0  0  0  0  0  0  0  0  0  0  0
   37.1380   24.1732   39.0425 H   0  0  0  0  0  0  0  0  0  0  0  0
  1  2  2  0
  1 20  1  0
  3  2  1  0
  4  3  2  0
  5  4  1  0
  5  6  2  0
  6  1  1  0
  7  5  1  0
  8  7  1  0
  9 10  1  0
  9  8  2  0
 10 15  2  0
 11 12  2  0
 11 10  1  0
 12 13  1  0
 13 14  2  0
 15 14  1  0
 15  7  1  0
 16 17  2  0
 18 17  1  0
 19 18  2  0
 20 21  2  0
 20 19  1  0
 21 16  1  0
  2 22  1  0
  3 23  1  0
  8 24  1  0
 11 25  1  0
 13 26  1  0
 16 27  1  0
 17 28  1  0
 18 29  1  0
M  ISO  8  22  14  23  14  24  14  25  14  26  14  27  14  28  14  29  14
M  END
>  <minimizedAffinity>  (1) 
-4.87838173

>  <minimizedRMSD>  (1) 
0.722830892

$$$$
