
     RDKit          3D

 25 27  0  0  0  0  0  0  0  0999 V2000
   37.3940   21.9510   35.0290 C   0  0  0  0  0  0  0  0  0  0  0  0
   36.2970   21.1070   35.0950 C   0  0  0  0  0  0  0  0  0  0  0  0
   35.7220   20.7150   33.9060 C   0  0  0  0  0  0  0  0  0  0  0  0
   36.2170   21.1430   32.7200 N   0  0  0  0  0  0  0  0  0  0  0  0
   37.2880   21.9670   32.6700 C   0  0  0  0  0  0  0  0  0  0  0  0
   37.8780   22.3720   33.8350 N   0  0  0  0  0  0  0  0  0  0  0  0
   37.8710   22.4630   31.4710 N   0  0  0  0  0  0  0  0  0  0  0  0
   38.8060   21.7980   30.7970 C   0  0  0  0  0  0  0  0  0  0  0  0
   39.1050   22.6090   29.7070 C   0  0  0  0  0  0  0  0  0  0  0  0
   38.3550   23.7180   29.7560 N   0  0  0  0  0  0  0  0  0  0  0  0
   37.5850   23.6170   30.8660 C   0  0  0  0  0  0  0  0  0  0  0  0
   39.9540   22.6990   37.5640 C   0  0  0  0  0  0  0  0  0  0  0  0
   39.1950   23.3470   38.5650 C   0  0  0  0  0  0  0  0  0  0  0  0
   37.8130   23.5090   38.3360 C   0  0  0  0  0  0  0  0  0  0  0  0
   37.3030   23.0290   37.1640 N   0  0  0  0  0  0  0  0  0  0  0  0
   38.0680   22.4190   36.2420 C   0  0  0  0  0  0  0  0  0  0  0  0
   39.3870   22.2510   36.4340 N   0  0  0  0  0  0  0  0  0  0  0  0
   35.8998   20.7626   36.0613 H   0  0  0  0  0  0  0  0  0  0  0  0
   34.8493   20.0455   33.9200 H   0  0  0  0  0  0  0  0  0  0  0  0
   39.2460   20.8213   31.0469 H   0  0  0  0  0  0  0  0  0  0  0  0
   39.8432   22.3757   28.9256 H   0  0  0  0  0  0  0  0  0  0  0  0
   36.8497   24.3595   31.2096 H   0  0  0  0  0  0  0  0  0  0  0  0
   41.0345   22.5589   37.7152 H   0  0  0  0  0  0  0  0  0  0  0  0
   39.6657   23.7120   39.4898 H   0  0  0  0  0  0  0  0  0  0  0  0
   37.1680   24.0051   39.0762 H   0  0  0  0  0  0  0  0  0  0  0  0
  1  2  2  0
  1 16  1  0
  3  2  1  0
  4  3  2  0
  5  4  1  0
  5  6  2  0
  6  1  1  0
  7  5  1  0
  8  7  1  0
  9 10  1  0
  9  8  2  0
 10 11  2  0
 11  7  1  0
 12 13  2  0
 14 13  1  0
 15 14  2  0
 16 17  2  0
 16 15  1  0
 17 12  1  0
  2 18  1  0
  3 19  1  0
  8 20  1  0
  9 21  1  0
 11 22  1  0
 12 23  1  0
 13 24  1  0
 14 25  1  0
M  ISO  8  18  14  19  14  20  14  21  14  22  14  23  14  24  14  25  14
M  END
>  <minimizedAffinity>  (1) 
-4.45995617

>  <minimizedRMSD>  (1) 
0.301729351

$$$$
