
     RDKit          3D

 25 27  0  0  0  0  0  0  0  0999 V2000
   37.1270   21.8550   34.7910 C   0  0  0  0  0  0  0  0  0  0  0  0
   36.2170   20.8260   34.9490 C   0  0  0  0  0  0  0  0  0  0  0  0
   35.4580   20.4650   33.8580 C   0  0  0  0  0  0  0  0  0  0  0  0
   35.6040   21.1030   32.6680 N   0  0  0  0  0  0  0  0  0  0  0  0
   36.5030   22.1090   32.5370 C   0  0  0  0  0  0  0  0  0  0  0  0
   37.2680   22.4870   33.6020 N   0  0  0  0  0  0  0  0  0  0  0  0
   40.0180   22.4980   36.9800 C   0  0  0  0  0  0  0  0  0  0  0  0
   39.4430   23.1740   38.0550 C   0  0  0  0  0  0  0  0  0  0  0  0
   38.0560   23.3950   38.0050 C   0  0  0  0  0  0  0  0  0  0  0  0
   37.3480   22.9430   36.9130 N   0  0  0  0  0  0  0  0  0  0  0  0
   37.9690   22.2940   35.9040 C   0  0  0  0  0  0  0  0  0  0  0  0
   39.2970   22.0650   35.9210 N   0  0  0  0  0  0  0  0  0  0  0  0
   36.6870   22.8330   31.2380 C   0  0  0  0  0  0  0  0  0  0  0  0
   35.9130   24.0940   31.0410 C   0  0  0  0  0  0  0  0  0  0  0  0
   37.4200   24.1160   31.1930 C   0  0  0  0  0  0  0  0  0  0  0  0
   36.1030   20.3123   35.9150 H   0  0  0  0  0  0  0  0  0  0  0  0
   34.7249   19.6503   33.9515 H   0  0  0  0  0  0  0  0  0  0  0  0
   41.1016   22.3092   36.9937 H   0  0  0  0  0  0  0  0  0  0  0  0
   40.0487   23.5195   38.9057 H   0  0  0  0  0  0  0  0  0  0  0  0
   37.5439   23.9204   38.8246 H   0  0  0  0  0  0  0  0  0  0  0  0
   36.7994   21.8836   30.6940 H   0  0  0  0  0  0  0  0  0  0  0  0
   35.2702   24.4799   31.8459 H   0  0  0  0  0  0  0  0  0  0  0  0
   35.1944   24.4649   30.2953 H   0  0  0  0  0  0  0  0  0  0  0  0
   38.0570   24.3561   30.3290 H   0  0  0  0  0  0  0  0  0  0  0  0
   38.1284   24.6321   31.8577 H   0  0  0  0  0  0  0  0  0  0  0  0
  1  2  2  0
  1 11  1  0
  3  2  1  0
  4  3  2  0
  5  4  1  0
  5  6  2  0
  6  1  1  0
  7  8  2  0
  9  8  1  0
 10  9  2  0
 11 12  2  0
 11 10  1  0
 12  7  1  0
 13  5  1  0
 14 15  1  0
 14 13  1  0
 15 13  1  0
  2 16  1  0
  3 17  1  0
  7 18  1  0
  8 19  1  0
  9 20  1  0
 13 21  1  0
 14 22  1  0
 14 23  1  0
 15 24  1  0
 15 25  1  0
M  ISO  8  16  14  17  14  18  14  19  14  20  14  21  13  22  13  23  13
M  ISO  2  24  13  25  13
M  END
>  <minimizedAffinity>  (1) 
-4.28964901

>  <minimizedRMSD>  (1) 
0.963074684

$$$$
