
     RDKit          3D

 21 22  0  0  0  0  0  0  0  0999 V2000
   37.1670   21.8560   34.8420 C   0  0  0  0  0  0  0  0  0  0  0  0
   36.1700   20.8930   34.9830 C   0  0  0  0  0  0  0  0  0  0  0  0
   35.4880   20.5150   33.8440 C   0  0  0  0  0  0  0  0  0  0  0  0
   35.7850   21.0650   32.6370 N   0  0  0  0  0  0  0  0  0  0  0  0
   36.7570   21.9990   32.5250 C   0  0  0  0  0  0  0  0  0  0  0  0
   37.4540   22.3990   33.6340 N   0  0  0  0  0  0  0  0  0  0  0  0
   39.9110   22.6160   37.1630 C   0  0  0  0  0  0  0  0  0  0  0  0
   39.2550   23.2510   38.2140 C   0  0  0  0  0  0  0  0  0  0  0  0
   37.8600   23.4120   38.1130 C   0  0  0  0  0  0  0  0  0  0  0  0
   37.2410   22.9330   36.9820 N   0  0  0  0  0  0  0  0  0  0  0  0
   37.9410   22.3200   35.9880 C   0  0  0  0  0  0  0  0  0  0  0  0
   39.2620   22.1660   36.0810 N   0  0  0  0  0  0  0  0  0  0  0  0
   37.1450   22.6450   31.2740 C   0  0  0  0  0  0  0  0  0  0  0  0
   38.0570   22.2240   30.5160 O   0  0  0  0  0  0  0  0  0  0  0  0
   36.5070   23.8040   30.8310 O   0  0  0  0  0  0  0  0  0  0  0  0
   35.9357   20.4516   35.9629 H   0  0  0  0  0  0  0  0  0  0  0  0
   34.6930   19.7580   33.9141 H   0  0  0  0  0  0  0  0  0  0  0  0
   41.0008   22.4789   37.2232 H   0  0  0  0  0  0  0  0  0  0  0  0
   39.8075   23.6144   39.0930 H   0  0  0  0  0  0  0  0  0  0  0  0
   37.2849   23.9040   38.9112 H   0  0  0  0  0  0  0  0  0  0  0  0
   36.7843   24.2273   29.9801 H   0  0  0  0  0  0  0  0  0  0  0  0
  1  2  2  0
  1 11  1  0
  3  2  1  0
  4  3  2  0
  5  4  1  0
  5  6  2  0
  6  1  1  0
  7  8  2  0
  9  8  1  0
 10  9  2  0
 11 12  2  0
 11 10  1  0
 12  7  1  0
 13  5  1  0
 14 13  2  0
 15 13  1  0
  2 16  1  0
  3 17  1  0
  7 18  1  0
  8 19  1  0
  9 20  1  0
 15 21  1  0
M  ISO  6  16  14  17  14  18  14  19  14  20  14  21   3
M  END
>  <minimizedAffinity>  (1) 
-4.14870644

>  <minimizedRMSD>  (1) 
0.614598572

$$$$
