
     RDKit          3D

 24 25  0  0  0  0  0  0  0  0999 V2000
   37.1810   21.8850   34.9060 C   0  0  0  0  0  0  0  0  0  0  0  0
   36.2130   20.9140   35.0250 C   0  0  0  0  0  0  0  0  0  0  0  0
   35.5160   20.5210   33.9220 C   0  0  0  0  0  0  0  0  0  0  0  0
   35.7780   21.0900   32.7160 N   0  0  0  0  0  0  0  0  0  0  0  0
   36.7300   22.0450   32.5980 C   0  0  0  0  0  0  0  0  0  0  0  0
   37.4370   22.4480   33.7000 N   0  0  0  0  0  0  0  0  0  0  0  0
   39.9530   22.6050   37.2160 C   0  0  0  0  0  0  0  0  0  0  0  0
   39.2940   23.2510   38.2670 C   0  0  0  0  0  0  0  0  0  0  0  0
   37.8890   23.4330   38.1660 C   0  0  0  0  0  0  0  0  0  0  0  0
   37.2770   22.9600   37.0390 N   0  0  0  0  0  0  0  0  0  0  0  0
   37.9580   22.3440   36.0560 C   0  0  0  0  0  0  0  0  0  0  0  0
   39.2750   22.1700   36.1470 N   0  0  0  0  0  0  0  0  0  0  0  0
   37.0080   22.6620   31.2660 C   0  0  0  0  0  0  0  0  0  0  0  0
   36.0690   23.8280   31.0650 C   0  0  0  0  0  0  0  0  0  0  0  0
   36.0033   20.4582   36.0039 H   0  0  0  0  0  0  0  0  0  0  0  0
   34.7421   19.7440   34.0077 H   0  0  0  0  0  0  0  0  0  0  0  0
   41.0411   22.4526   37.2685 H   0  0  0  0  0  0  0  0  0  0  0  0
   39.8484   23.6082   39.1474 H   0  0  0  0  0  0  0  0  0  0  0  0
   37.3174   23.9336   38.9614 H   0  0  0  0  0  0  0  0  0  0  0  0
   38.0491   23.0155   31.2322 H   0  0  0  0  0  0  0  0  0  0  0  0
   36.8563   21.9180   30.4701 H   0  0  0  0  0  0  0  0  0  0  0  0
   35.7545   24.2185   32.0441 H   0  0  0  0  0  0  0  0  0  0  0  0
   36.5839   24.6206   30.5023 H   0  0  0  0  0  0  0  0  0  0  0  0
   35.1848   23.4940   30.5023 H   0  0  0  0  0  0  0  0  0  0  0  0
  1  2  2  0
  1 11  1  0
  3  2  1  0
  4  3  2  0
  5  4  1  0
  5  6  2  0
  6  1  1  0
  7  8  2  0
  9  8  1  0
 10  9  2  0
 11 12  2  0
 11 10  1  0
 12  7  1  0
 13  5  1  0
 14 13  1  0
  2 15  1  0
  3 16  1  0
  7 17  1  0
  8 18  1  0
  9 19  1  0
 13 20  1  0
 13 21  1  0
 14 22  1  0
 14 23  1  0
 14 24  1  0
M  ISO  8  15  14  16  14  17  14  18  14  19  14  20   8  21   8  22   8
M  ISO  2  23   8  24   8
M  END
>  <minimizedAffinity>  (1) 
-4.13717365

>  <minimizedRMSD>  (1) 
0.499368876

$$$$
