
     RDKit          3D

 19 20  0  0  0  0  0  0  0  0999 V2000
   37.2450   21.8860   35.0040 C   0  0  0  0  0  0  0  0  0  0  0  0
   36.2000   20.9750   35.1520 C   0  0  0  0  0  0  0  0  0  0  0  0
   35.5440   20.5780   34.0100 C   0  0  0  0  0  0  0  0  0  0  0  0
   35.9060   21.0580   32.7960 N   0  0  0  0  0  0  0  0  0  0  0  0
   36.9220   21.9410   32.6690 C   0  0  0  0  0  0  0  0  0  0  0  0
   37.5950   22.3570   33.7850 N   0  0  0  0  0  0  0  0  0  0  0  0
   39.9640   22.6500   37.3590 C   0  0  0  0  0  0  0  0  0  0  0  0
   39.2770   23.3200   38.3940 C   0  0  0  0  0  0  0  0  0  0  0  0
   37.8890   23.4930   38.2590 C   0  0  0  0  0  0  0  0  0  0  0  0
   37.2950   23.0010   37.1290 N   0  0  0  0  0  0  0  0  0  0  0  0
   38.0000   22.3650   36.1630 C   0  0  0  0  0  0  0  0  0  0  0  0
   39.3140   22.1940   36.2790 N   0  0  0  0  0  0  0  0  0  0  0  0
   37.4670   22.6270   31.1100 S   0  0  0  0  0  0  0  0  0  0  0  0
   35.9120   20.5896   36.1412 H   0  0  0  0  0  0  0  0  0  0  0  0
   34.7135   19.8604   34.0836 H   0  0  0  0  0  0  0  0  0  0  0  0
   41.0507   22.4996   37.4400 H   0  0  0  0  0  0  0  0  0  0  0  0
   39.8116   23.6952   39.2791 H   0  0  0  0  0  0  0  0  0  0  0  0
   37.3009   24.0058   39.0344 H   0  0  0  0  0  0  0  0  0  0  0  0
   38.3066   23.6838   31.3447 H   0  0  0  0  0  0  0  0  0  0  0  0
  1  2  2  0
  1 11  1  0
  3  2  1  0
  4  3  2  0
  5  4  1  0
  5  6  2  0
  6  1  1  0
  7  8  2  0
  9  8  1  0
 10  9  2  0
 11 12  2  0
 11 10  1  0
 12  7  1  0
 13  5  1  0
  2 14  1  0
  3 15  1  0
  7 16  1  0
  8 17  1  0
  9 18  1  0
 13 19  1  0
M  ISO  6  14  14  15  14  16  14  17  14  18  14  19  11
M  END
>  <minimizedAffinity>  (1) 
-3.94211459

>  <minimizedRMSD>  (1) 
0.072785832

$$$$
