
     RDKit          3D

 19 20  0  0  0  0  0  0  0  0999 V2000
   37.2100   21.8470   34.9170 C   0  0  0  0  0  0  0  0  0  0  0  0
   36.1650   20.9360   35.0890 C   0  0  0  0  0  0  0  0  0  0  0  0
   35.5090   20.5190   33.9490 C   0  0  0  0  0  0  0  0  0  0  0  0
   35.8720   20.9830   32.7210 N   0  0  0  0  0  0  0  0  0  0  0  0
   36.8870   21.8650   32.5850 C   0  0  0  0  0  0  0  0  0  0  0  0
   37.5450   22.2840   33.6990 N   0  0  0  0  0  0  0  0  0  0  0  0
   39.9510   22.6310   37.2470 C   0  0  0  0  0  0  0  0  0  0  0  0
   39.2620   23.2810   38.2940 C   0  0  0  0  0  0  0  0  0  0  0  0
   37.8680   23.4350   38.1750 C   0  0  0  0  0  0  0  0  0  0  0  0
   37.2610   22.9460   37.0530 N   0  0  0  0  0  0  0  0  0  0  0  0
   37.9550   22.3350   36.0780 C   0  0  0  0  0  0  0  0  0  0  0  0
   39.2880   22.1740   36.1670 N   0  0  0  0  0  0  0  0  0  0  0  0
   37.3010   22.3680   31.3830 O   0  0  0  0  0  0  0  0  0  0  0  0
   35.8788   20.5687   36.0856 H   0  0  0  0  0  0  0  0  0  0  0  0
   34.6801   19.8008   34.0332 H   0  0  0  0  0  0  0  0  0  0  0  0
   41.0407   22.4963   37.3139 H   0  0  0  0  0  0  0  0  0  0  0  0
   39.7993   23.6563   39.1774 H   0  0  0  0  0  0  0  0  0  0  0  0
   37.2844   23.9345   38.9624 H   0  0  0  0  0  0  0  0  0  0  0  0
   38.0519   23.0123   31.3482 H   0  0  0  0  0  0  0  0  0  0  0  0
  1  2  2  0
  1 11  1  0
  3  2  1  0
  4  3  2  0
  5  4  1  0
  5  6  2  0
  6  1  1  0
  7  8  2  0
  9  8  1  0
 10  9  2  0
 11 12  2  0
 11 10  1  0
 12  7  1  0
 13  5  1  0
  2 14  1  0
  3 15  1  0
  7 16  1  0
  8 17  1  0
  9 18  1  0
 13 19  1  0
M  ISO  6  14  14  15  14  16  14  17  14  18  14  19   3
M  END
>  <minimizedAffinity>  (1) 
-3.93040848

>  <minimizedRMSD>  (1) 
0.142323866

$$$$
