
     RDKit          3D

 39 42  0  0  0  0  0  0  0  0999 V2000
   37.2890   22.4660   32.6460 C   0  0  0  0  0  0  0  0  0  0  0  0
   36.7760   21.2700   32.1990 C   0  0  0  0  0  0  0  0  0  0  0  0
   35.7400   21.1430   31.3130 C   0  0  0  0  0  0  0  0  0  0  0  0
   35.1410   22.2640   30.8110 C   0  0  0  0  0  0  0  0  0  0  0  0
   35.5990   23.4820   31.2120 C   0  0  0  0  0  0  0  0  0  0  0  0
   34.9860   24.6110   30.6970 C   0  0  0  0  0  0  0  0  0  0  0  0
   35.3900   25.8640   31.0520 C   0  0  0  0  0  0  0  0  0  0  0  0
   36.4430   25.9600   31.9510 C   0  0  0  0  0  0  0  0  0  0  0  0
   37.0260   24.8170   32.4400 C   0  0  0  0  0  0  0  0  0  0  0  0
   36.6440   23.5670   32.1050 C   0  0  0  0  0  0  0  0  0  0  0  0
   40.6010   21.7910   33.8610 C   0  0  0  0  0  0  0  0  0  0  0  0
   40.7420   22.4030   35.1000 C   0  0  0  0  0  0  0  0  0  0  0  0
   39.6140   23.0930   35.5410 C   0  0  0  0  0  0  0  0  0  0  0  0
   38.5310   23.1070   34.7590 N   0  0  0  0  0  0  0  0  0  0  0  0
   38.3890   22.5310   33.5850 C   0  0  0  0  0  0  0  0  0  0  0  0
   39.4660   21.8790   33.1770 N   0  0  0  0  0  0  0  0  0  0  0  0
   39.5600   23.8170   36.8420 C   0  0  0  0  0  0  0  0  0  0  0  0
   39.5570   22.8300   38.0150 C   0  0  0  0  0  0  0  0  0  0  0  0
   39.0190   23.6510   39.1660 C   0  0  0  0  0  0  0  0  0  0  0  0
   37.8710   24.3690   38.4970 C   0  0  0  0  0  0  0  0  0  0  0  0
   38.2830   24.5740   37.0490 C   0  0  0  0  0  0  0  0  0  0  0  0
   37.2329   20.3458   32.5826 H   0  0  0  0  0  0  0  0  0  0  0  0
   35.3921   20.1453   31.0073 H   0  0  0  0  0  0  0  0  0  0  0  0
   34.3069   22.1841   30.0984 H   0  0  0  0  0  0  0  0  0  0  0  0
   34.1548   24.4949   29.9859 H   0  0  0  0  0  0  0  0  0  0  0  0
   34.9019   26.7610   30.6431 H   0  0  0  0  0  0  0  0  0  0  0  0
   36.8088   26.9470   32.2703 H   0  0  0  0  0  0  0  0  0  0  0  0
   37.8582   24.9275   33.1508 H   0  0  0  0  0  0  0  0  0  0  0  0
   41.4438   21.2238   33.4392 H   0  0  0  0  0  0  0  0  0  0  0  0
   41.6707   22.3475   35.6869 H   0  0  0  0  0  0  0  0  0  0  0  0
   40.4337   24.4845   36.8099 H   0  0  0  0  0  0  0  0  0  0  0  0
   38.9023   21.9714   37.8047 H   0  0  0  0  0  0  0  0  0  0  0  0
   40.5506   22.4048   38.2197 H   0  0  0  0  0  0  0  0  0  0  0  0
   38.6700   23.0112   39.9900 H   0  0  0  0  0  0  0  0  0  0  0  0
   39.7597   24.3170   39.6327 H   0  0  0  0  0  0  0  0  0  0  0  0
   36.9572   23.7591   38.5504 H   0  0  0  0  0  0  0  0  0  0  0  0
   37.6562   25.3278   38.9914 H   0  0  0  0  0  0  0  0  0  0  0  0
   38.4423   25.6441   36.8500 H   0  0  0  0  0  0  0  0  0  0  0  0
   37.5000   24.2149   36.3649 H   0  0  0  0  0  0  0  0  0  0  0  0
  1 15  1  0
  2  1  2  0
  3  2  1  0
  4  5  1  0
  4  3  2  0
  5 10  2  0
  6  7  2  0
  6  5  1  0
  7  8  1  0
  8  9  2  0
 10  9  1  0
 10  1  1  0
 11 12  2  0
 12 13  1  0
 13 17  1  0
 14 13  2  0
 15 14  1  0
 16 15  2  0
 16 11  1  0
 17 21  1  0
 17 18  1  0
 18 19  1  0
 20 19  1  0
 21 20  1  0
  2 22  1  0
  3 23  1  0
  4 24  1  0
  6 25  1  0
  7 26  1  0
  8 27  1  0
  9 28  1  0
 11 29  1  0
 12 30  1  0
 17 31  1  0
 18 32  1  0
 18 33  1  0
 19 34  1  0
 19 35  1  0
 20 36  1  0
 20 37  1  0
 21 38  1  0
 21 39  1  0
M  ISO  8  22  14  23  14  24  14  25  14  26  14  27  14  28  14  29  14
M  ISO  8  30  14  31  13  32  13  33  13  34  13  35  13  36  13  37  13
M  ISO  2  38  13  39  13
M  END
>  <minimizedAffinity>  (1) 
-5.19127083

>  <minimizedRMSD>  (1) 
2.53694248

$$$$
