
     RDKit          3D

 39 43  0  0  0  0  0  0  0  0999 V2000
   38.2310   25.2900   31.6920 C   0  0  0  0  0  0  0  0  0  0  0  0
   39.4720   25.3740   31.0460 C   0  0  0  0  0  0  0  0  0  0  0  0
   39.4470   26.5550   30.3000 C   0  0  0  0  0  0  0  0  0  0  0  0
   38.2450   27.1230   30.5090 N   0  0  0  0  0  0  0  0  0  0  0  0
   37.5110   26.3840   31.3350 N   0  0  0  0  0  0  0  0  0  0  0  0
   37.8910   28.3490   29.8910 C   0  0  0  0  0  0  0  0  0  0  0  0
   38.2940   28.6050   28.6180 N   0  0  0  0  0  0  0  0  0  0  0  0
   37.9800   29.7630   27.9910 C   0  0  0  0  0  0  0  0  0  0  0  0
   37.2480   30.7350   28.5800 N   0  0  0  0  0  0  0  0  0  0  0  0
   36.8190   30.5250   29.8580 C   0  0  0  0  0  0  0  0  0  0  0  0
   36.0690   31.4860   30.5040 C   0  0  0  0  0  0  0  0  0  0  0  0
   35.6170   31.2970   31.8150 C   0  0  0  0  0  0  0  0  0  0  0  0
   35.9620   30.0910   32.4300 C   0  0  0  0  0  0  0  0  0  0  0  0
   36.7070   29.1330   31.7900 C   0  0  0  0  0  0  0  0  0  0  0  0
   37.1440   29.3420   30.4960 C   0  0  0  0  0  0  0  0  0  0  0  0
   38.0590   23.0510   34.6380 C   0  0  0  0  0  0  0  0  0  0  0  0
   37.4490   21.9430   34.0970 C   0  0  0  0  0  0  0  0  0  0  0  0
   37.1090   21.9620   32.7700 C   0  0  0  0  0  0  0  0  0  0  0  0
   37.3690   23.0470   32.0150 N   0  0  0  0  0  0  0  0  0  0  0  0
   37.9730   24.1430   32.5520 C   0  0  0  0  0  0  0  0  0  0  0  0
   38.3150   24.1300   33.8770 N   0  0  0  0  0  0  0  0  0  0  0  0
   39.9380   22.7360   37.7930 C   0  0  0  0  0  0  0  0  0  0  0  0
   39.0460   23.2460   38.7310 C   0  0  0  0  0  0  0  0  0  0  0  0
   37.8080   23.6890   38.2490 C   0  0  0  0  0  0  0  0  0  0  0  0
   37.5370   23.6050   36.9200 N   0  0  0  0  0  0  0  0  0  0  0  0
   38.4470   23.0970   36.0430 C   0  0  0  0  0  0  0  0  0  0  0  0
   39.6360   22.6670   36.4770 N   0  0  0  0  0  0  0  0  0  0  0  0
   40.3006   24.6536   31.1130 H   0  0  0  0  0  0  0  0  0  0  0  0
   40.2549   26.9457   29.6638 H   0  0  0  0  0  0  0  0  0  0  0  0
   38.3345   29.9192   26.9615 H   0  0  0  0  0  0  0  0  0  0  0  0
   35.8212   32.4198   29.9780 H   0  0  0  0  0  0  0  0  0  0  0  0
   35.0197   32.0602   32.3354 H   0  0  0  0  0  0  0  0  0  0  0  0
   35.6256   29.9035   33.4604 H   0  0  0  0  0  0  0  0  0  0  0  0
   36.9571   28.1957   32.3086 H   0  0  0  0  0  0  0  0  0  0  0  0
   37.2384   21.0594   34.7175 H   0  0  0  0  0  0  0  0  0  0  0  0
   36.6207   21.0859   32.3182 H   0  0  0  0  0  0  0  0  0  0  0  0
   40.9207   22.3773   38.1331 H   0  0  0  0  0  0  0  0  0  0  0  0
   39.3009   23.2987   39.7998 H   0  0  0  0  0  0  0  0  0  0  0  0
   37.0599   24.1022   38.9416 H   0  0  0  0  0  0  0  0  0  0  0  0
  1 20  1  0
  2  1  1  0
  3  4  1  0
  3  2  2  0
  4  5  1  0
  5  1  2  0
  6 15  1  0
  6  4  1  0
  7  6  2  0
  8  9  2  0
  8  7  1  0
  9 10  1  0
 10 15  2  0
 10 11  1  0
 11 12  2  0
 12 13  1  0
 14 13  2  0
 15 14  1  0
 16 26  1  0
 17 16  2  0
 18 17  1  0
 19 20  1  0
 19 18  2  0
 20 21  2  0
 21 16  1  0
 22 23  2  0
 24 23  1  0
 25 24  2  0
 26 27  2  0
 26 25  1  0
 27 22  1  0
  2 28  1  0
  3 29  1  0
  8 30  1  0
 11 31  1  0
 12 32  1  0
 13 33  1  0
 14 34  1  0
 17 35  1  0
 18 36  1  0
 22 37  1  0
 23 38  1  0
 24 39  1  0
M  ISO  8  28  14  29  14  30  14  31  14  32  14  33  14  34  14  35  14
M  ISO  4  36  14  37  14  38  14  39  14
M  END
>  <minimizedAffinity>  (1) 
-6.19655943

>  <minimizedRMSD>  (1) 
2.61990523

$$$$
