
     RDKit          3D

 32 35  0  0  0  0  0  0  0  0999 V2000
   37.9720   22.9500   34.7100 C   0  0  0  0  0  0  0  0  0  0  0  0
   37.3450   21.8270   34.2200 C   0  0  0  0  0  0  0  0  0  0  0  0
   36.9590   21.7960   32.9010 C   0  0  0  0  0  0  0  0  0  0  0  0
   37.2000   22.8720   32.1000 N   0  0  0  0  0  0  0  0  0  0  0  0
   37.8150   23.9730   32.5850 C   0  0  0  0  0  0  0  0  0  0  0  0
   38.2080   24.0170   33.9050 N   0  0  0  0  0  0  0  0  0  0  0  0
   39.9680   22.7380   37.7950 C   0  0  0  0  0  0  0  0  0  0  0  0
   39.0950   23.2850   38.7460 C   0  0  0  0  0  0  0  0  0  0  0  0
   37.8460   23.7120   38.2960 C   0  0  0  0  0  0  0  0  0  0  0  0
   37.5110   23.5870   36.9720 N   0  0  0  0  0  0  0  0  0  0  0  0
   38.4030   23.0450   36.0910 C   0  0  0  0  0  0  0  0  0  0  0  0
   39.5990   22.6340   36.5050 N   0  0  0  0  0  0  0  0  0  0  0  0
   38.0420   25.0850   31.6770 C   0  0  0  0  0  0  0  0  0  0  0  0
   39.0810   24.9790   30.7440 C   0  0  0  0  0  0  0  0  0  0  0  0
   39.0700   26.1690   30.0160 C   0  0  0  0  0  0  0  0  0  0  0  0
   38.0740   26.9360   30.5000 N   0  0  0  0  0  0  0  0  0  0  0  0
   37.4430   26.3070   31.4980 N   0  0  0  0  0  0  0  0  0  0  0  0
   37.7400   28.2330   30.0190 C   0  0  0  0  0  0  0  0  0  0  0  0
   37.0940   29.3450   30.5460 C   0  0  0  0  0  0  0  0  0  0  0  0
   37.1070   30.2800   29.5310 C   0  0  0  0  0  0  0  0  0  0  0  0
   37.7460   29.7190   28.4430 C   0  0  0  0  0  0  0  0  0  0  0  0
   38.1120   28.4930   28.7700 O   0  0  0  0  0  0  0  0  0  0  0  0
   37.1551   20.9647   34.8760 H   0  0  0  0  0  0  0  0  0  0  0  0
   36.4574   20.9059   32.4935 H   0  0  0  0  0  0  0  0  0  0  0  0
   40.9642   22.3905   38.1063 H   0  0  0  0  0  0  0  0  0  0  0  0
   39.3834   23.3737   39.8038 H   0  0  0  0  0  0  0  0  0  0  0  0
   37.1278   24.1501   39.0047 H   0  0  0  0  0  0  0  0  0  0  0  0
   39.7670   24.1293   30.6119 H   0  0  0  0  0  0  0  0  0  0  0  0
   39.7520   26.4334   29.1945 H   0  0  0  0  0  0  0  0  0  0  0  0
   36.6655   29.4558   31.5531 H   0  0  0  0  0  0  0  0  0  0  0  0
   36.6829   31.2938   29.5801 H   0  0  0  0  0  0  0  0  0  0  0  0
   37.9198   30.2080   27.4731 H   0  0  0  0  0  0  0  0  0  0  0  0
  1 11  1  0
  2  1  2  0
  3  2  1  0
  4  5  1  0
  4  3  2  0
  5  6  2  0
  6  1  1  0
  7  8  2  0
  9  8  1  0
 10  9  2  0
 11 12  2  0
 11 10  1  0
 12  7  1  0
 13  5  1  0
 14 13  1  0
 15 16  1  0
 15 14  2  0
 16 17  1  0
 17 13  2  0
 18 16  1  0
 18 19  2  0
 20 19  1  0
 21 22  1  0
 21 20  2  0
 22 18  1  0
  2 23  1  0
  3 24  1  0
  7 25  1  0
  8 26  1  0
  9 27  1  0
 14 28  1  0
 15 29  1  0
 19 30  1  0
 20 31  1  0
 21 32  1  0
M  ISO  8  23  14  24  14  25  14  26  14  27  14  28  14  29  14  30  14
M  ISO  2  31  14  32  14
M  END
>  <minimizedAffinity>  (1) 
-4.97137976

>  <minimizedRMSD>  (1) 
2.22772098

$$$$
