
     RDKit          3D

 29 31  0  0  0  0  0  0  0  0999 V2000
   37.1000   21.9150   34.6100 C   0  0  0  0  0  0  0  0  0  0  0  0
   36.2590   20.8330   34.7010 C   0  0  0  0  0  0  0  0  0  0  0  0
   35.4670   20.3690   33.6800 C   0  0  0  0  0  0  0  0  0  0  0  0
   35.4870   21.0000   32.4610 C   0  0  0  0  0  0  0  0  0  0  0  0
   36.3010   22.0800   32.3070 C   0  0  0  0  0  0  0  0  0  0  0  0
   36.3140   22.7100   31.0740 C   0  0  0  0  0  0  0  0  0  0  0  0
   37.1010   23.7960   30.8430 C   0  0  0  0  0  0  0  0  0  0  0  0
   37.9020   24.2560   31.8970 C   0  0  0  0  0  0  0  0  0  0  0  0
   37.8560   23.5970   33.1020 C   0  0  0  0  0  0  0  0  0  0  0  0
   37.0760   22.5090   33.3600 C   0  0  0  0  0  0  0  0  0  0  0  0
   40.0620   22.1090   36.6290 C   0  0  0  0  0  0  0  0  0  0  0  0
   39.8080   22.9640   37.6930 C   0  0  0  0  0  0  0  0  0  0  0  0
   38.5240   23.5030   37.7050 C   0  0  0  0  0  0  0  0  0  0  0  0
   37.6750   23.1740   36.7370 N   0  0  0  0  0  0  0  0  0  0  0  0
   37.9100   22.3600   35.7180 C   0  0  0  0  0  0  0  0  0  0  0  0
   39.1400   21.8420   35.7070 N   0  0  0  0  0  0  0  0  0  0  0  0
   37.9870   24.4490   38.7320 C   0  0  0  0  0  0  0  0  0  0  0  0
   36.2169   20.2993   35.6619 H   0  0  0  0  0  0  0  0  0  0  0  0
   34.8186   19.4946   33.8382 H   0  0  0  0  0  0  0  0  0  0  0  0
   34.8613   20.6420   31.6301 H   0  0  0  0  0  0  0  0  0  0  0  0
   35.6756   22.3251   30.2652 H   0  0  0  0  0  0  0  0  0  0  0  0
   37.1082   24.2954   29.8629 H   0  0  0  0  0  0  0  0  0  0  0  0
   38.5564   25.1298   31.7620 H   0  0  0  0  0  0  0  0  0  0  0  0
   38.4933   23.9738   33.9156 H   0  0  0  0  0  0  0  0  0  0  0  0
   41.0531   21.6391   36.5457 H   0  0  0  0  0  0  0  0  0  0  0  0
   40.5587   23.1964   38.4627 H   0  0  0  0  0  0  0  0  0  0  0  0
   38.2069   24.0617   39.7378 H   0  0  0  0  0  0  0  0  0  0  0  0
   38.4607   25.4338   38.6067 H   0  0  0  0  0  0  0  0  0  0  0  0
   36.8986   24.5471   38.6067 H   0  0  0  0  0  0  0  0  0  0  0  0
  1  2  2  0
  1 15  1  0
  3  2  1  0
  4  3  2  0
  5  4  1  0
  5 10  2  0
  6  5  1  0
  7  6  2  0
  7  8  1  0
  8  9  2  0
  9 10  1  0
 10  1  1  0
 11 12  2  0
 12 13  1  0
 13 17  1  0
 14 13  2  0
 15 14  1  0
 16 15  2  0
 16 11  1  0
  2 18  1  0
  3 19  1  0
  4 20  1  0
  6 21  1  0
  7 22  1  0
  8 23  1  0
  9 24  1  0
 11 25  1  0
 12 26  1  0
 17 27  1  0
 17 28  1  0
 17 29  1  0
M  ISO  8  18  14  19  14  20  14  21  14  22  14  23  14  24  14  25  14
M  ISO  4  26  14  27   8  28   8  29   8
M  END
>  <minimizedAffinity>  (1) 
-5.14998198

>  <minimizedRMSD>  (1) 
0.117661178

$$$$
