
     RDKit          3D

 32 35  0  0  0  0  0  0  0  0999 V2000
   37.4840   21.9170   34.9110 C   0  0  0  0  0  0  0  0  0  0  0  0
   36.3160   21.1710   34.9120 C   0  0  0  0  0  0  0  0  0  0  0  0
   35.7910   20.7440   33.7210 C   0  0  0  0  0  0  0  0  0  0  0  0
   36.4180   21.0570   32.5670 N   0  0  0  0  0  0  0  0  0  0  0  0
   37.5620   21.7870   32.5560 C   0  0  0  0  0  0  0  0  0  0  0  0
   38.0930   22.2170   33.7400 N   0  0  0  0  0  0  0  0  0  0  0  0
   38.1880   22.0880   31.2660 C   0  0  0  0  0  0  0  0  0  0  0  0
   38.6160   21.0420   30.4700 C   0  0  0  0  0  0  0  0  0  0  0  0
   39.1630   21.6050   29.3230 C   0  0  0  0  0  0  0  0  0  0  0  0
   39.0530   22.9440   29.4570 N   0  0  0  0  0  0  0  0  0  0  0  0
   38.4690   23.2540   30.6210 N   0  0  0  0  0  0  0  0  0  0  0  0
   40.0980   25.7580   27.4770 N   0  0  0  0  0  0  0  0  0  0  0  0
   39.7380   25.2670   28.6720 N   0  0  0  0  0  0  0  0  0  0  0  0
   39.4710   23.9520   28.5440 C   0  0  0  0  0  0  0  0  0  0  0  0
   39.6840   23.6450   27.2030 C   0  0  0  0  0  0  0  0  0  0  0  0
   40.0790   24.7790   26.5260 C   0  0  0  0  0  0  0  0  0  0  0  0
   39.9120   22.7410   37.5460 C   0  0  0  0  0  0  0  0  0  0  0  0
   39.1040   23.3410   38.5180 C   0  0  0  0  0  0  0  0  0  0  0  0
   37.7460   23.4440   38.2320 C   0  0  0  0  0  0  0  0  0  0  0  0
   37.2620   22.9680   37.0490 N   0  0  0  0  0  0  0  0  0  0  0  0
   38.0830   22.3930   36.1370 C   0  0  0  0  0  0  0  0  0  0  0  0
   39.3950   22.2830   36.3890 N   0  0  0  0  0  0  0  0  0  0  0  0
   35.8154   20.9242   35.8599 H   0  0  0  0  0  0  0  0  0  0  0  0
   34.8651   20.1503   33.7049 H   0  0  0  0  0  0  0  0  0  0  0  0
   38.5385   19.9692   30.7003 H   0  0  0  0  0  0  0  0  0  0  0  0
   39.6008   21.0643   28.4710 H   0  0  0  0  0  0  0  0  0  0  0  0
   40.3539   26.7400   27.3009 H   0  0  0  0  0  0  0  0  0  0  0  0
   39.5566   22.6496   26.7524 H   0  0  0  0  0  0  0  0  0  0  0  0
   40.3242   24.8738   25.4579 H   0  0  0  0  0  0  0  0  0  0  0  0
   40.9919   22.6411   37.7302 H   0  0  0  0  0  0  0  0  0  0  0  0
   39.5228   23.7140   39.4643 H   0  0  0  0  0  0  0  0  0  0  0  0
   37.0638   23.9087   38.9591 H   0  0  0  0  0  0  0  0  0  0  0  0
  1  2  2  0
  1 21  1  0
  3  2  1  0
  4  3  2  0
  5  4  1  0
  5  6  2  0
  6  1  1  0
  7  5  1  0
  8  7  1  0
  9 10  1  0
  9  8  2  0
 10 11  1  0
 11  7  2  0
 12 13  1  0
 14 13  2  0
 14 10  1  0
 15 14  1  0
 16 15  2  0
 16 12  1  0
 17 18  2  0
 19 18  1  0
 20 19  2  0
 21 22  2  0
 21 20  1  0
 22 17  1  0
  2 23  1  0
  3 24  1  0
  8 25  1  0
  9 26  1  0
 12 27  1  0
 15 28  1  0
 16 29  1  0
 17 30  1  0
 18 31  1  0
 19 32  1  0
M  ISO  8  23  14  24  14  25  14  26  14  27   9  28  14  29  14  30  14
M  ISO  2  31  14  32  14
M  END
>  <minimizedAffinity>  (1) 
-4.86905432

>  <minimizedRMSD>  (1) 
1.32438171

$$$$
