
     RDKit          3D

 30 33  0  0  0  0  0  0  0  0999 V2000
   37.4940   21.9200   34.9030 C   0  0  0  0  0  0  0  0  0  0  0  0
   36.3340   21.1830   34.8990 C   0  0  0  0  0  0  0  0  0  0  0  0
   35.8050   20.7650   33.7120 C   0  0  0  0  0  0  0  0  0  0  0  0
   36.4290   21.0820   32.5460 N   0  0  0  0  0  0  0  0  0  0  0  0
   37.5680   21.8080   32.5500 C   0  0  0  0  0  0  0  0  0  0  0  0
   38.1050   22.2310   33.7430 N   0  0  0  0  0  0  0  0  0  0  0  0
   38.1920   22.1190   31.2630 C   0  0  0  0  0  0  0  0  0  0  0  0
   38.7200   21.0630   30.5060 C   0  0  0  0  0  0  0  0  0  0  0  0
   39.2460   21.6260   29.3440 C   0  0  0  0  0  0  0  0  0  0  0  0
   39.0300   22.9510   29.4310 N   0  0  0  0  0  0  0  0  0  0  0  0
   38.4050   23.2610   30.5630 N   0  0  0  0  0  0  0  0  0  0  0  0
   39.4140   23.9040   28.4470 C   0  0  0  0  0  0  0  0  0  0  0  0
   39.5620   23.8610   27.1100 N   0  0  0  0  0  0  0  0  0  0  0  0
   39.9460   25.0500   26.6830 O   0  0  0  0  0  0  0  0  0  0  0  0
   40.0500   25.8680   27.7260 C   0  0  0  0  0  0  0  0  0  0  0  0
   39.7200   25.1620   28.8290 N   0  0  0  0  0  0  0  0  0  0  0  0
   39.9120   22.7380   37.5460 C   0  0  0  0  0  0  0  0  0  0  0  0
   39.1190   23.3320   38.5140 C   0  0  0  0  0  0  0  0  0  0  0  0
   37.7390   23.4430   38.2320 C   0  0  0  0  0  0  0  0  0  0  0  0
   37.2610   22.9680   37.0430 N   0  0  0  0  0  0  0  0  0  0  0  0
   38.1000   22.3900   36.1280 C   0  0  0  0  0  0  0  0  0  0  0  0
   39.3950   22.2870   36.3920 N   0  0  0  0  0  0  0  0  0  0  0  0
   35.8349   20.9315   35.8464 H   0  0  0  0  0  0  0  0  0  0  0  0
   34.8774   20.1739   33.6987 H   0  0  0  0  0  0  0  0  0  0  0  0
   38.7193   19.9968   30.7767 H   0  0  0  0  0  0  0  0  0  0  0  0
   39.7401   21.0921   28.5189 H   0  0  0  0  0  0  0  0  0  0  0  0
   40.3499   26.9259   27.6960 H   0  0  0  0  0  0  0  0  0  0  0  0
   40.9919   22.6332   37.7273 H   0  0  0  0  0  0  0  0  0  0  0  0
   39.5443   23.7005   39.4592 H   0  0  0  0  0  0  0  0  0  0  0  0
   37.0575   23.9062   38.9607 H   0  0  0  0  0  0  0  0  0  0  0  0
  1 21  1  0
  2  1  2  0
  3  2  1  0
  4  5  1  0
  4  3  2  0
  5  6  2  0
  6  1  1  0
  7  5  1  0
  8  7  1  0
  9 10  1  0
  9  8  2  0
 10 11  1  0
 11  7  2  0
 12 16  1  0
 12 10  1  0
 13 12  2  0
 14 13  1  0
 14 15  1  0
 15 16  2  0
 17 18  2  0
 19 18  1  0
 20 19  2  0
 21 22  2  0
 21 20  1  0
 22 17  1  0
  2 23  1  0
  3 24  1  0
  8 25  1  0
  9 26  1  0
 15 27  1  0
 17 28  1  0
 18 29  1  0
 19 30  1  0
M  ISO  8  23  14  24  14  25  14  26  14  27  14  28  14  29  14  30  14
M  END
>  <minimizedAffinity>  (1) 
-4.85561132

>  <minimizedRMSD>  (1) 
1.29101503

$$$$
