
     RDKit          3D

 28 30  0  0  0  0  0  0  0  0999 V2000
   37.1740   21.9700   34.3470 C   0  0  0  0  0  0  0  0  0  0  0  0
   36.3630   20.8520   34.3880 C   0  0  0  0  0  0  0  0  0  0  0  0
   35.4690   20.5020   33.4040 C   0  0  0  0  0  0  0  0  0  0  0  0
   35.3380   21.2770   32.2950 C   0  0  0  0  0  0  0  0  0  0  0  0
   36.1090   22.4030   32.1820 C   0  0  0  0  0  0  0  0  0  0  0  0
   35.9710   23.1840   31.0540 C   0  0  0  0  0  0  0  0  0  0  0  0
   36.7090   24.3170   30.8800 C   0  0  0  0  0  0  0  0  0  0  0  0
   37.6050   24.6490   31.8900 C   0  0  0  0  0  0  0  0  0  0  0  0
   37.7160   23.8490   32.9960 C   0  0  0  0  0  0  0  0  0  0  0  0
   36.9910   22.7130   33.1930 C   0  0  0  0  0  0  0  0  0  0  0  0
   40.3800   22.1450   35.9470 C   0  0  0  0  0  0  0  0  0  0  0  0
   40.1880   22.7360   37.2060 C   0  0  0  0  0  0  0  0  0  0  0  0
   38.8880   23.0820   37.4980 C   0  0  0  0  0  0  0  0  0  0  0  0
   37.9390   22.8370   36.5900 N   0  0  0  0  0  0  0  0  0  0  0  0
   38.0960   22.2890   35.4120 C   0  0  0  0  0  0  0  0  0  0  0  0
   39.3540   21.9530   35.1260 N   0  0  0  0  0  0  0  0  0  0  0  0
   38.5670   23.6940   38.7570 C   0  0  0  0  0  0  0  0  0  0  0  0
   37.9700   24.7890   38.8780 O   0  0  0  0  0  0  0  0  0  0  0  0
   36.4379   20.1970   35.2685 H   0  0  0  0  0  0  0  0  0  0  0  0
   34.8588   19.5934   33.5143 H   0  0  0  0  0  0  0  0  0  0  0  0
   34.6254   21.0045   31.5025 H   0  0  0  0  0  0  0  0  0  0  0  0
   35.2502   22.8866   30.2781 H   0  0  0  0  0  0  0  0  0  0  0  0
   36.6004   24.9408   29.9805 H   0  0  0  0  0  0  0  0  0  0  0  0
   38.2243   25.5537   31.8008 H   0  0  0  0  0  0  0  0  0  0  0  0
   38.4360   24.1424   33.7742 H   0  0  0  0  0  0  0  0  0  0  0  0
   41.3900   21.8380   35.6377 H   0  0  0  0  0  0  0  0  0  0  0  0
   41.0165   22.9100   37.9083 H   0  0  0  0  0  0  0  0  0  0  0  0
   38.8648   23.1668   39.6754 H   0  0  0  0  0  0  0  0  0  0  0  0
  1  2  2  0
  1 15  1  0
  3  2  1  0
  4  3  2  0
  5  4  1  0
  5 10  2  0
  6  5  1  0
  7  6  2  0
  7  8  1  0
  8  9  2  0
  9 10  1  0
 10  1  1  0
 11 12  2  0
 12 13  1  0
 13 17  1  0
 14 13  2  0
 15 14  1  0
 16 15  2  0
 16 11  1  0
 17 18  2  0
  2 19  1  0
  3 20  1  0
  4 21  1  0
  6 22  1  0
  7 23  1  0
  8 24  1  0
  9 25  1  0
 11 26  1  0
 12 27  1  0
 17 28  1  0
M  ISO  8  19  14  20  14  21  14  22  14  23  14  24  14  25  14  26  14
M  ISO  2  27  14  28   6
M  END
>  <minimizedAffinity>  (1) 
-5.11094189

>  <minimizedRMSD>  (1) 
0.572632134

$$$$
