
     RDKit          3D

 37 40  0  0  1  0  0  0  0  0999 V2000
   37.5040   21.9450   34.8630 C   0  0  0  0  0  0  0  0  0  0  0  0
   36.3580   21.1960   34.8470 C   0  0  0  0  0  0  0  0  0  0  0  0
   35.8490   20.7940   33.6350 C   0  0  0  0  0  0  0  0  0  0  0  0
   36.4770   21.1390   32.4920 N   0  0  0  0  0  0  0  0  0  0  0  0
   37.6150   21.8830   32.5030 C   0  0  0  0  0  0  0  0  0  0  0  0
   38.1280   22.2860   33.7020 N   0  0  0  0  0  0  0  0  0  0  0  0
   39.9220   22.7180   37.5330 C   0  0  0  0  0  0  0  0  0  0  0  0
   39.1200   23.3210   38.4930 C   0  0  0  0  0  0  0  0  0  0  0  0
   37.7620   23.4500   38.2060 C   0  0  0  0  0  0  0  0  0  0  0  0
   37.2780   22.9880   37.0110 N   0  0  0  0  0  0  0  0  0  0  0  0
   38.1040   22.4070   36.1060 C   0  0  0  0  0  0  0  0  0  0  0  0
   39.4110   22.2740   36.3650 N   0  0  0  0  0  0  0  0  0  0  0  0
   38.2350   22.2160   31.2270 C   0  0  0  0  0  0  0  0  0  0  0  0
   38.7840   21.1960   30.4590 C   0  0  0  0  0  0  0  0  0  0  0  0
   39.2980   21.7900   29.3160 C   0  0  0  0  0  0  0  0  0  0  0  0
   39.0580   23.1120   29.4140 N   0  0  0  0  0  0  0  0  0  0  0  0
   38.4200   23.3930   30.5540 N   0  0  0  0  0  0  0  0  0  0  0  0
   39.2000   25.4080   28.7540 N   0  0  0  0  0  0  0  0  0  0  0  0
   40.4960   25.9980   29.0370 C   0  0  0  0  0  0  0  0  0  0  0  0
   41.3530   25.3800   27.9510 C   0  0  0  0  0  0  0  0  0  0  0  0
   40.9310   23.9230   28.0490 C   0  0  0  0  0  0  0  0  0  0  0  0
   39.4630   24.0490   28.3870 C   0  0  1  0  0  0  0  0  0  0  0  0
   35.8545   20.9213   35.7856 H   0  0  0  0  0  0  0  0  0  0  0  0
   34.9297   20.1911   33.5972 H   0  0  0  0  0  0  0  0  0  0  0  0
   40.9979   22.5995   37.7287 H   0  0  0  0  0  0  0  0  0  0  0  0
   39.5400   23.6828   39.4431 H   0  0  0  0  0  0  0  0  0  0  0  0
   37.0841   23.9194   38.9340 H   0  0  0  0  0  0  0  0  0  0  0  0
   38.8065   20.1251   30.7092 H   0  0  0  0  0  0  0  0  0  0  0  0
   39.8061   21.2780   28.4856 H   0  0  0  0  0  0  0  0  0  0  0  0
   38.5990   25.4442   29.5897 H   0  0  0  0  0  0  0  0  0  0  0  0
   40.4661   27.0942   28.9502 H   0  0  0  0  0  0  0  0  0  0  0  0
   40.8610   25.8102   30.0576 H   0  0  0  0  0  0  0  0  0  0  0  0
   42.4254   25.5058   28.1610 H   0  0  0  0  0  0  0  0  0  0  0  0
   41.2181   25.8270   26.9550 H   0  0  0  0  0  0  0  0  0  0  0  0
   41.0785   23.3981   27.0937 H   0  0  0  0  0  0  0  0  0  0  0  0
   41.5086   23.3400   28.7815 H   0  0  0  0  0  0  0  0  0  0  0  0
   38.8593   23.7892   27.5049 H   0  0  0  0  0  0  0  0  0  0  0  0
  1 11  1  0
  2  1  2  0
  3  2  1  0
  4  5  1  0
  4  3  2  0
  5  6  2  0
  6  1  1  0
  7  8  2  0
  9  8  1  0
 10  9  2  0
 11 12  2  0
 11 10  1  0
 12  7  1  0
 13  5  1  0
 14 13  1  0
 15 16  1  0
 15 14  2  0
 16 17  1  0
 17 13  2  0
 18 19  1  0
 20 21  1  0
 20 19  1  0
 22 21  1  0
 22 18  1  0
 22 16  1  0
  2 23  1  0
  3 24  1  0
  7 25  1  0
  8 26  1  0
  9 27  1  0
 14 28  1  0
 15 29  1  0
 18 30  1  0
 19 31  1  0
 19 32  1  0
 20 33  1  0
 20 34  1  0
 21 35  1  0
 21 36  1  0
 22 37  1  6
M  ISO  8  23  14  24  14  25  14  26  14  27  14  28  14  29  14  30   5
M  ISO  7  31  13  32  13  33  13  34  13  35  13  36  13  37  13
M  END
>  <minimizedAffinity>  (1) 
-4.53449202

>  <minimizedRMSD>  (1) 
1.25828791

$$$$
