
     RDKit          3D

 32 35  0  0  0  0  0  0  0  0999 V2000
   37.9030   22.5690   34.7080 C   0  0  0  0  0  0  0  0  0  0  0  0
   37.0300   21.5430   34.4010 C   0  0  0  0  0  0  0  0  0  0  0  0
   36.6460   21.3740   33.0920 C   0  0  0  0  0  0  0  0  0  0  0  0
   37.1170   22.2000   32.1360 N   0  0  0  0  0  0  0  0  0  0  0  0
   37.9760   23.2110   32.4390 C   0  0  0  0  0  0  0  0  0  0  0  0
   38.3660   23.3900   33.7400 N   0  0  0  0  0  0  0  0  0  0  0  0
   39.9340   22.7340   37.7720 C   0  0  0  0  0  0  0  0  0  0  0  0
   39.0700   23.3220   38.6800 C   0  0  0  0  0  0  0  0  0  0  0  0
   37.7890   23.6570   38.2220 C   0  0  0  0  0  0  0  0  0  0  0  0
   37.4470   23.3950   36.9210 N   0  0  0  0  0  0  0  0  0  0  0  0
   38.3550   22.8110   36.0780 C   0  0  0  0  0  0  0  0  0  0  0  0
   39.5810   22.4820   36.4910 N   0  0  0  0  0  0  0  0  0  0  0  0
   38.4440   24.0630   31.3580 C   0  0  0  0  0  0  0  0  0  0  0  0
   38.8150   23.4790   30.1550 C   0  0  0  0  0  0  0  0  0  0  0  0
   39.2170   24.5040   29.3080 C   0  0  0  0  0  0  0  0  0  0  0  0
   39.0840   25.6620   30.0030 N   0  0  0  0  0  0  0  0  0  0  0  0
   38.6230   25.4150   31.2310 N   0  0  0  0  0  0  0  0  0  0  0  0
   39.4030   26.9740   29.4720 C   0  0  0  0  0  0  0  0  0  0  0  0
   38.7590   28.1330   30.1890 C   0  0  0  0  0  0  0  0  0  0  0  0
   40.2630   27.8920   30.2520 C   0  0  0  0  0  0  0  0  0  0  0  0
   36.6500   20.8750   35.1880 H   0  0  0  0  0  0  0  0  0  0  0  0
   35.9529   20.5630   32.8238 H   0  0  0  0  0  0  0  0  0  0  0  0
   40.9463   22.4614   38.1052 H   0  0  0  0  0  0  0  0  0  0  0  0
   39.3766   23.5181   39.7181 H   0  0  0  0  0  0  0  0  0  0  0  0
   37.0630   24.1269   38.9018 H   0  0  0  0  0  0  0  0  0  0  0  0
   38.7946   22.4053   29.9167 H   0  0  0  0  0  0  0  0  0  0  0  0
   39.5744   24.3975   28.2731 H   0  0  0  0  0  0  0  0  0  0  0  0
   39.4530   26.6071   28.4362 H   0  0  0  0  0  0  0  0  0  0  0  0
   38.3574   28.9835   29.6187 H   0  0  0  0  0  0  0  0  0  0  0  0
   37.9496   28.2517   30.9244 H   0  0  0  0  0  0  0  0  0  0  0  0
   40.7256   27.5484   31.1890 H   0  0  0  0  0  0  0  0  0  0  0  0
   41.1561   28.4951   30.0313 H   0  0  0  0  0  0  0  0  0  0  0  0
  1 11  1  0
  2  1  2  0
  3  2  1  0
  4  5  1  0
  4  3  2  0
  5  6  2  0
  6  1  1  0
  7  8  2  0
  9  8  1  0
 10  9  2  0
 11 12  2  0
 11 10  1  0
 12  7  1  0
 13  5  1  0
 14 13  1  0
 15 16  1  0
 15 14  2  0
 16 17  1  0
 17 13  2  0
 18 16  1  0
 18 19  1  0
 18 20  1  0
 19 20  1  0
  2 21  1  0
  3 22  1  0
  7 23  1  0
  8 24  1  0
  9 25  1  0
 14 26  1  0
 15 27  1  0
 18 28  1  0
 19 29  1  0
 19 30  1  0
 20 31  1  0
 20 32  1  0
M  ISO  8  21  14  22  14  23  14  24  14  25  14  26  14  27  14  28  13
M  ISO  4  29  13  30  13  31  13  32  13
M  END
>  <minimizedAffinity>  (1) 
-4.34202576

>  <minimizedRMSD>  (1) 
1.19581139

$$$$
