
     RDKit          3D

 34 36  0  0  0  0  0  0  0  0999 V2000
   37.9060   22.6230   34.6670 C   0  0  0  0  0  0  0  0  0  0  0  0
   37.0560   21.5960   34.3370 C   0  0  0  0  0  0  0  0  0  0  0  0
   36.6660   21.4500   33.0270 C   0  0  0  0  0  0  0  0  0  0  0  0
   37.1150   22.3040   32.0850 N   0  0  0  0  0  0  0  0  0  0  0  0
   37.9530   23.3140   32.4180 C   0  0  0  0  0  0  0  0  0  0  0  0
   38.3530   23.4760   33.7260 N   0  0  0  0  0  0  0  0  0  0  0  0
   39.9230   22.7250   37.7400 C   0  0  0  0  0  0  0  0  0  0  0  0
   39.0630   23.3160   38.6480 C   0  0  0  0  0  0  0  0  0  0  0  0
   37.7900   23.6750   38.1850 C   0  0  0  0  0  0  0  0  0  0  0  0
   37.4790   23.4220   36.8820 N   0  0  0  0  0  0  0  0  0  0  0  0
   38.3600   22.8400   36.0350 C   0  0  0  0  0  0  0  0  0  0  0  0
   39.5740   22.4920   36.4570 N   0  0  0  0  0  0  0  0  0  0  0  0
   38.4100   24.2140   31.3580 C   0  0  0  0  0  0  0  0  0  0  0  0
   38.9540   23.6600   30.1960 C   0  0  0  0  0  0  0  0  0  0  0  0
   39.3070   24.7020   29.3570 C   0  0  0  0  0  0  0  0  0  0  0  0
   38.9740   25.8490   30.0180 N   0  0  0  0  0  0  0  0  0  0  0  0
   38.4430   25.5670   31.2020 N   0  0  0  0  0  0  0  0  0  0  0  0
   39.1900   27.1580   29.4630 C   0  0  0  0  0  0  0  0  0  0  0  0
   40.1860   27.9310   30.3160 C   0  0  0  0  0  0  0  0  0  0  0  0
   39.7330   26.9890   28.0600 C   0  0  0  0  0  0  0  0  0  0  0  0
   36.6930   20.9013   35.1088 H   0  0  0  0  0  0  0  0  0  0  0  0
   35.9849   20.6332   32.7460 H   0  0  0  0  0  0  0  0  0  0  0  0
   40.9292   22.4339   38.0761 H   0  0  0  0  0  0  0  0  0  0  0  0
   39.3657   23.4966   39.6900 H   0  0  0  0  0  0  0  0  0  0  0  0
   37.0594   24.1494   38.8566 H   0  0  0  0  0  0  0  0  0  0  0  0
   39.0791   22.5875   29.9860 H   0  0  0  0  0  0  0  0  0  0  0  0
   39.7635   24.6223   28.3594 H   0  0  0  0  0  0  0  0  0  0  0  0
   38.2452   27.7209   29.4416 H   0  0  0  0  0  0  0  0  0  0  0  0
   39.9668   27.7609   31.3804 H   0  0  0  0  0  0  0  0  0  0  0  0
   41.2061   27.5858   30.0920 H   0  0  0  0  0  0  0  0  0  0  0  0
   40.1048   29.0049   30.0920 H   0  0  0  0  0  0  0  0  0  0  0  0
   40.7822   26.6624   28.1098 H   0  0  0  0  0  0  0  0  0  0  0  0
   39.1388   26.2333   27.5254 H   0  0  0  0  0  0  0  0  0  0  0  0
   39.6726   27.9484   27.5254 H   0  0  0  0  0  0  0  0  0  0  0  0
  1 11  1  0
  2  1  2  0
  3  2  1  0
  4  5  1  0
  4  3  2  0
  5  6  2  0
  6  1  1  0
  7  8  2  0
  9  8  1  0
 10  9  2  0
 11 12  2  0
 11 10  1  0
 12  7  1  0
 13  5  1  0
 14 13  1  0
 15 16  1  0
 15 14  2  0
 16 17  1  0
 17 13  2  0
 18 16  1  0
 18 19  1  0
 20 18  1  0
  2 21  1  0
  3 22  1  0
  7 23  1  0
  8 24  1  0
  9 25  1  0
 14 26  1  0
 15 27  1  0
 18 28  1  0
 19 29  1  0
 19 30  1  0
 19 31  1  0
 20 32  1  0
 20 33  1  0
 20 34  1  0
M  ISO  8  21  14  22  14  23  14  24  14  25  14  26  14  27  14  28   8
M  ISO  6  29   8  30   8  31   8  32   8  33   8  34   8
M  END
>  <minimizedAffinity>  (1) 
-4.29859972

>  <minimizedRMSD>  (1) 
1.23489976

$$$$
