
     RDKit          3D

 31 33  0  0  0  0  0  0  0  0999 V2000
   37.5340   21.9750   34.8350 C   0  0  0  0  0  0  0  0  0  0  0  0
   36.4020   21.2080   34.8020 C   0  0  0  0  0  0  0  0  0  0  0  0
   35.8930   20.8280   33.5850 C   0  0  0  0  0  0  0  0  0  0  0  0
   36.5060   21.2060   32.4380 N   0  0  0  0  0  0  0  0  0  0  0  0
   37.6270   21.9630   32.4700 C   0  0  0  0  0  0  0  0  0  0  0  0
   38.1390   22.3470   33.6880 N   0  0  0  0  0  0  0  0  0  0  0  0
   39.9280   22.7110   37.5410 C   0  0  0  0  0  0  0  0  0  0  0  0
   39.1160   23.3050   38.4950 C   0  0  0  0  0  0  0  0  0  0  0  0
   37.7650   23.4430   38.1930 C   0  0  0  0  0  0  0  0  0  0  0  0
   37.2880   22.9980   36.9920 N   0  0  0  0  0  0  0  0  0  0  0  0
   38.1340   22.4180   36.0860 C   0  0  0  0  0  0  0  0  0  0  0  0
   39.4220   22.2850   36.3690 N   0  0  0  0  0  0  0  0  0  0  0  0
   38.2510   22.3450   31.2070 C   0  0  0  0  0  0  0  0  0  0  0  0
   38.7830   21.3410   30.4050 C   0  0  0  0  0  0  0  0  0  0  0  0
   39.3130   21.9440   29.2730 C   0  0  0  0  0  0  0  0  0  0  0  0
   39.0880   23.2790   29.4230 N   0  0  0  0  0  0  0  0  0  0  0  0
   38.4590   23.5240   30.5680 N   0  0  0  0  0  0  0  0  0  0  0  0
   39.5120   24.2210   28.4220 C   0  0  0  0  0  0  0  0  0  0  0  0
   39.5620   23.4880   27.0880 C   0  0  0  0  0  0  0  0  0  0  0  0
   35.9076   20.9007   35.7353 H   0  0  0  0  0  0  0  0  0  0  0  0
   34.9821   20.2130   33.5412 H   0  0  0  0  0  0  0  0  0  0  0  0
   41.0017   22.5861   37.7451 H   0  0  0  0  0  0  0  0  0  0  0  0
   39.5247   23.6541   39.4547 H   0  0  0  0  0  0  0  0  0  0  0  0
   37.0825   23.9090   38.9189 H   0  0  0  0  0  0  0  0  0  0  0  0
   38.7836   20.2638   30.6277 H   0  0  0  0  0  0  0  0  0  0  0  0
   39.8121   21.4463   28.4285 H   0  0  0  0  0  0  0  0  0  0  0  0
   38.7964   25.0545   28.3649 H   0  0  0  0  0  0  0  0  0  0  0  0
   40.5012   24.6313   28.6735 H   0  0  0  0  0  0  0  0  0  0  0  0
   39.6359   22.4052   27.2671 H   0  0  0  0  0  0  0  0  0  0  0  0
   38.6471   23.7036   26.5167 H   0  0  0  0  0  0  0  0  0  0  0  0
   40.4392   23.8258   26.5167 H   0  0  0  0  0  0  0  0  0  0  0  0
  1 11  1  0
  2  1  2  0
  3  2  1  0
  4  5  1  0
  4  3  2  0
  5  6  2  0
  6  1  1  0
  7  8  2  0
  9  8  1  0
 10  9  2  0
 11 12  2  0
 11 10  1  0
 12  7  1  0
 13  5  1  0
 14 13  1  0
 15 16  1  0
 15 14  2  0
 16 17  1  0
 17 13  2  0
 18 16  1  0
 19 18  1  0
  2 20  1  0
  3 21  1  0
  7 22  1  0
  8 23  1  0
  9 24  1  0
 14 25  1  0
 15 26  1  0
 18 27  1  0
 18 28  1  0
 19 29  1  0
 19 30  1  0
 19 31  1  0
M  ISO  8  20  14  21  14  22  14  23  14  24  14  25  14  26  14  27   8
M  ISO  4  28   8  29   8  30   8  31   8
M  END
>  <minimizedAffinity>  (1) 
-4.23329067

>  <minimizedRMSD>  (1) 
0.981845498

$$$$
