
     RDKit          3D

 28 30  0  0  0  0  0  0  0  0999 V2000
   37.0900   21.9150   34.6240 C   0  0  0  0  0  0  0  0  0  0  0  0
   36.2520   20.8290   34.7130 C   0  0  0  0  0  0  0  0  0  0  0  0
   35.4670   20.3640   33.6800 C   0  0  0  0  0  0  0  0  0  0  0  0
   35.4900   20.9910   32.4730 C   0  0  0  0  0  0  0  0  0  0  0  0
   36.3010   22.0740   32.3250 C   0  0  0  0  0  0  0  0  0  0  0  0
   36.3200   22.7090   31.0890 C   0  0  0  0  0  0  0  0  0  0  0  0
   37.1050   23.7980   30.8620 C   0  0  0  0  0  0  0  0  0  0  0  0
   37.8900   24.2480   31.9210 C   0  0  0  0  0  0  0  0  0  0  0  0
   37.8460   23.5990   33.1230 C   0  0  0  0  0  0  0  0  0  0  0  0
   37.0750   22.5140   33.3750 C   0  0  0  0  0  0  0  0  0  0  0  0
   40.0550   22.1140   36.6430 C   0  0  0  0  0  0  0  0  0  0  0  0
   39.7740   22.9480   37.7170 C   0  0  0  0  0  0  0  0  0  0  0  0
   38.4900   23.4740   37.7520 C   0  0  0  0  0  0  0  0  0  0  0  0
   37.6500   23.1380   36.7660 N   0  0  0  0  0  0  0  0  0  0  0  0
   37.8880   22.3550   35.7410 C   0  0  0  0  0  0  0  0  0  0  0  0
   39.1310   21.8580   35.7250 N   0  0  0  0  0  0  0  0  0  0  0  0
   37.9660   24.3350   38.7300 N   0  0  0  0  0  0  0  0  0  0  0  0
   36.2047   20.2950   35.6735 H   0  0  0  0  0  0  0  0  0  0  0  0
   34.8219   19.4860   33.8315 H   0  0  0  0  0  0  0  0  0  0  0  0
   34.8695   20.6322   31.6386 H   0  0  0  0  0  0  0  0  0  0  0  0
   35.6870   22.3233   30.2763 H   0  0  0  0  0  0  0  0  0  0  0  0
   37.1187   24.3011   29.8839 H   0  0  0  0  0  0  0  0  0  0  0  0
   38.5434   25.1232   31.7903 H   0  0  0  0  0  0  0  0  0  0  0  0
   38.4772   23.9823   33.9382 H   0  0  0  0  0  0  0  0  0  0  0  0
   41.0532   21.6609   36.5520 H   0  0  0  0  0  0  0  0  0  0  0  0
   40.5214   23.1773   38.4908 H   0  0  0  0  0  0  0  0  0  0  0  0
   36.9935   24.6664   38.6567 H   0  0  0  0  0  0  0  0  0  0  0  0
   38.5542   24.6350   39.5205 H   0  0  0  0  0  0  0  0  0  0  0  0
  1  2  2  0
  1 15  1  0
  3  2  1  0
  4  3  2  0
  5  4  1  0
  5 10  2  0
  6  5  1  0
  7  6  2  0
  7  8  1  0
  8  9  2  0
  9 10  1  0
 10  1  1  0
 11 12  2  0
 12 13  1  0
 13 17  1  0
 14 13  2  0
 15 14  1  0
 16 15  2  0
 16 11  1  0
  2 18  1  0
  3 19  1  0
  4 20  1  0
  6 21  1  0
  7 22  1  0
  8 23  1  0
  9 24  1  0
 11 25  1  0
 12 26  1  0
 17 27  1  0
 17 28  1  0
M  ISO  8  18  14  19  14  20  14  21  14  22  14  23  14  24  14  25  14
M  ISO  1  26  14
M  END
>  <minimizedAffinity>  (1) 
-5.09250879

>  <minimizedRMSD>  (1) 
0.0874667764

$$$$
