
     RDKit          3D

 45 49  0  0  0  0  0  0  0  0999 V2000
   38.2160   22.2080   31.2290 C   0  0  0  0  0  0  0  0  0  0  0  0
   38.7600   21.1670   30.4730 C   0  0  0  0  0  0  0  0  0  0  0  0
   39.2860   21.7470   29.3220 C   0  0  0  0  0  0  0  0  0  0  0  0
   39.0450   23.0900   29.4220 N   0  0  0  0  0  0  0  0  0  0  0  0
   38.4140   23.3540   30.5500 N   0  0  0  0  0  0  0  0  0  0  0  0
   37.5060   21.9490   34.8680 C   0  0  0  0  0  0  0  0  0  0  0  0
   36.3480   21.2040   34.8570 C   0  0  0  0  0  0  0  0  0  0  0  0
   35.8300   20.8060   33.6530 C   0  0  0  0  0  0  0  0  0  0  0  0
   36.4460   21.1400   32.4940 N   0  0  0  0  0  0  0  0  0  0  0  0
   37.5870   21.8750   32.5120 C   0  0  0  0  0  0  0  0  0  0  0  0
   38.1200   22.2820   33.7100 N   0  0  0  0  0  0  0  0  0  0  0  0
   39.9270   22.7170   37.5360 C   0  0  0  0  0  0  0  0  0  0  0  0
   39.1270   23.3170   38.4850 C   0  0  0  0  0  0  0  0  0  0  0  0
   37.7600   23.4560   38.2100 C   0  0  0  0  0  0  0  0  0  0  0  0
   37.2850   22.9950   37.0210 N   0  0  0  0  0  0  0  0  0  0  0  0
   38.1190   22.4080   36.1120 C   0  0  0  0  0  0  0  0  0  0  0  0
   39.4060   22.2760   36.3710 N   0  0  0  0  0  0  0  0  0  0  0  0
   39.4680   23.9790   28.3780 C   0  0  0  0  0  0  0  0  0  0  0  0
   39.6110   23.1980   27.1020 C   0  0  0  0  0  0  0  0  0  0  0  0
   40.0230   24.1710   26.0430 C   0  0  0  0  0  0  0  0  0  0  0  0
   40.3970   25.5040   26.2520 C   0  0  0  0  0  0  0  0  0  0  0  0
   40.7140   26.1300   25.1050 N   0  0  0  0  0  0  0  0  0  0  0  0
   40.5510   25.2120   24.1380 C   0  0  0  0  0  0  0  0  0  0  0  0
   40.7340   25.3040   22.7760 C   0  0  0  0  0  0  0  0  0  0  0  0
   40.5120   24.2400   21.9500 C   0  0  0  0  0  0  0  0  0  0  0  0
   40.0920   23.0470   22.5100 C   0  0  0  0  0  0  0  0  0  0  0  0
   39.8980   22.9240   23.8830 C   0  0  0  0  0  0  0  0  0  0  0  0
   40.1350   24.0260   24.6840 C   0  0  0  0  0  0  0  0  0  0  0  0
   38.7707   20.0988   30.7356 H   0  0  0  0  0  0  0  0  0  0  0  0
   39.7945   21.2284   28.4959 H   0  0  0  0  0  0  0  0  0  0  0  0
   35.8477   20.9332   35.7985 H   0  0  0  0  0  0  0  0  0  0  0  0
   34.9058   20.2100   33.6273 H   0  0  0  0  0  0  0  0  0  0  0  0
   41.0029   22.5961   37.7303 H   0  0  0  0  0  0  0  0  0  0  0  0
   39.5509   23.6774   39.4339 H   0  0  0  0  0  0  0  0  0  0  0  0
   37.0853   23.9277   38.9396 H   0  0  0  0  0  0  0  0  0  0  0  0
   38.7188   24.7730   28.2430 H   0  0  0  0  0  0  0  0  0  0  0  0
   40.4322   24.4359   28.6454 H   0  0  0  0  0  0  0  0  0  0  0  0
   40.3783   22.4185   27.2192 H   0  0  0  0  0  0  0  0  0  0  0  0
   38.6664   22.7014   26.8355 H   0  0  0  0  0  0  0  0  0  0  0  0
   40.4279   25.9841   27.2412 H   0  0  0  0  0  0  0  0  0  0  0  0
   41.0178   27.1076   24.9917 H   0  0  0  0  0  0  0  0  0  0  0  0
   41.0674   26.2587   22.3430 H   0  0  0  0  0  0  0  0  0  0  0  0
   40.6636   24.3293   20.8642 H   0  0  0  0  0  0  0  0  0  0  0  0
   39.9080   22.1799   21.8587 H   0  0  0  0  0  0  0  0  0  0  0  0
   39.5638   21.9718   24.3208 H   0  0  0  0  0  0  0  0  0  0  0  0
  1 10  1  0
  2  1  1  0
  3  4  1  0
  3  2  2  0
  4  5  1  0
  5  1  2  0
  6 16  1  0
  7  6  2  0
  8  7  1  0
  9 10  1  0
  9  8  2  0
 10 11  2  0
 11  6  1  0
 12 13  2  0
 14 13  1  0
 15 14  2  0
 16 17  2  0
 16 15  1  0
 17 12  1  0
 18  4  1  0
 19 18  1  0
 20 21  2  0
 20 19  1  0
 22 21  1  0
 23 28  2  0
 23 22  1  0
 24 23  1  0
 25 26  1  0
 25 24  2  0
 26 27  2  0
 27 28  1  0
 28 20  1  0
  2 29  1  0
  3 30  1  0
  7 31  1  0
  8 32  1  0
 12 33  1  0
 13 34  1  0
 14 35  1  0
 18 36  1  0
 18 37  1  0
 19 38  1  0
 19 39  1  0
 21 40  1  0
 22 41  1  0
 24 42  1  0
 25 43  1  0
 26 44  1  0
 27 45  1  0
M  ISO  8  29  14  30  14  31  14  32  14  33  14  34  14  35  14  36   8
M  ISO  8  37   8  38   8  39   8  40  14  41   9  42  14  43  14  44  14
M  ISO  1  45  14
M  END
>  <minimizedAffinity>  (1) 
-5.17829227

>  <minimizedRMSD>  (1) 
1.15095103

$$$$
