
     RDKit          3D

 41 44  0  0  0  0  0  0  0  0999 V2000
   40.0480   24.9280   31.6760 C   0  0  0  0  0  0  0  0  0  0  0  0
   41.2950   24.4590   31.2520 C   0  0  0  0  0  0  0  0  0  0  0  0
   41.6430   23.4010   32.0680 C   0  0  0  0  0  0  0  0  0  0  0  0
   40.6260   23.2540   32.9460 N   0  0  0  0  0  0  0  0  0  0  0  0
   39.6720   24.1600   32.7190 N   0  0  0  0  0  0  0  0  0  0  0  0
   37.9460   27.8680   30.8170 C   0  0  0  0  0  0  0  0  0  0  0  0
   38.4050   28.1570   29.5560 C   0  0  0  0  0  0  0  0  0  0  0  0
   39.4010   27.3760   29.0120 C   0  0  0  0  0  0  0  0  0  0  0  0
   39.9150   26.3420   29.7080 N   0  0  0  0  0  0  0  0  0  0  0  0
   39.4560   26.0630   30.9570 C   0  0  0  0  0  0  0  0  0  0  0  0
   38.4660   26.8360   31.5040 N   0  0  0  0  0  0  0  0  0  0  0  0
   35.5750   29.2470   33.2750 C   0  0  0  0  0  0  0  0  0  0  0  0
   34.9070   30.1940   32.5320 C   0  0  0  0  0  0  0  0  0  0  0  0
   35.2770   30.3500   31.1900 C   0  0  0  0  0  0  0  0  0  0  0  0
   36.2720   29.5750   30.6660 N   0  0  0  0  0  0  0  0  0  0  0  0
   36.9010   28.6530   31.4450 C   0  0  0  0  0  0  0  0  0  0  0  0
   36.5500   28.5020   32.7240 N   0  0  0  0  0  0  0  0  0  0  0  0
   40.6060   22.2430   33.9800 C   0  0  0  0  0  0  0  0  0  0  0  0
   41.3870   22.8140   35.1570 C   0  0  0  0  0  0  0  0  0  0  0  0
   40.3920   23.0320   36.2180 N   0  0  0  0  0  0  0  0  0  0  0  0
   39.3910   23.9170   36.0620 C   0  0  0  0  0  0  0  0  0  0  0  0
   38.4220   24.1790   37.0060 C   0  0  0  0  0  0  0  0  0  0  0  0
   38.4780   23.4890   38.1920 C   0  0  0  0  0  0  0  0  0  0  0  0
   37.5890   23.7460   39.0280 O   0  0  0  0  0  0  0  0  0  0  0  0
   39.4790   22.6100   38.3370 N   0  0  0  0  0  0  0  0  0  0  0  0
   40.4120   22.3730   37.4030 C   0  0  0  0  0  0  0  0  0  0  0  0
   41.3100   21.5420   37.6080 O   0  0  0  0  0  0  0  0  0  0  0  0
   41.8910   24.8603   30.4191 H   0  0  0  0  0  0  0  0  0  0  0  0
   42.5623   22.7993   32.0144 H   0  0  0  0  0  0  0  0  0  0  0  0
   37.9838   28.9997   28.9883 H   0  0  0  0  0  0  0  0  0  0  0  0
   39.7794   27.5975   28.0032 H   0  0  0  0  0  0  0  0  0  0  0  0
   35.3083   29.0978   34.3317 H   0  0  0  0  0  0  0  0  0  0  0  0
   34.1097   30.8074   32.9770 H   0  0  0  0  0  0  0  0  0  0  0  0
   34.7678   31.0943   30.5602 H   0  0  0  0  0  0  0  0  0  0  0  0
   39.5701   22.0266   34.2802 H   0  0  0  0  0  0  0  0  0  0  0  0
   41.0516   21.3019   33.6254 H   0  0  0  0  0  0  0  0  0  0  0  0
   42.1555   22.1013   35.4908 H   0  0  0  0  0  0  0  0  0  0  0  0
   41.9088   23.7444   34.8885 H   0  0  0  0  0  0  0  0  0  0  0  0
   39.3425   24.4711   35.1130 H   0  0  0  0  0  0  0  0  0  0  0  0
   37.6290   24.9172   36.8157 H   0  0  0  0  0  0  0  0  0  0  0  0
   39.5354   22.0837   39.2206 H   0  0  0  0  0  0  0  0  0  0  0  0
  1  5  2  0
  2  1  1  0
  2  3  2  0
  3  4  1  0
  4 18  1  0
  5  4  1  0
  6 16  1  0
  6 11  1  0
  7  6  2  0
  8  7  1  0
  8  9  2  0
  9 10  1  0
 10 11  2  0
 10  1  1  0
 13 12  2  0
 14 13  1  0
 15 14  2  0
 15 16  1  0
 16 17  2  0
 17 12  1  0
 18 19  1  0
 19 20  1  0
 20 26  1  0
 21 20  1  0
 21 22  2  0
 22 23  1  0
 23 25  1  0
 23 24  2  0
 26 27  2  0
 26 25  1  0
  2 28  1  0
  3 29  1  0
  7 30  1  0
  8 31  1  0
 12 32  1  0
 13 33  1  0
 14 34  1  0
 18 35  1  0
 18 36  1  0
 19 37  1  0
 19 38  1  0
 21 39  1  0
 22 40  1  0
 25 41  1  0
M  ISO  8  28  14  29  14  30  14  31  14  32  14  33  14  34  14  35   8
M  ISO  6  36   8  37   8  38   8  39  14  40  14  41   9
M  END
>  <minimizedAffinity>  (1) 
-5.11112547

>  <minimizedRMSD>  (1) 
9.27945042

$$$$
