
     RDKit          3D

 44 47  0  0  0  0  0  0  0  0999 V2000
   38.2600   21.8920   31.0760 C   0  0  0  0  0  0  0  0  0  0  0  0
   38.7130   20.7850   30.3460 C   0  0  0  0  0  0  0  0  0  0  0  0
   39.2890   21.2700   29.1770 C   0  0  0  0  0  0  0  0  0  0  0  0
   39.1760   22.6150   29.2240 N   0  0  0  0  0  0  0  0  0  0  0  0
   38.5700   22.9780   30.3440 N   0  0  0  0  0  0  0  0  0  0  0  0
   37.5130   21.8520   34.7100 C   0  0  0  0  0  0  0  0  0  0  0  0
   36.3070   21.1970   34.7240 C   0  0  0  0  0  0  0  0  0  0  0  0
   35.7630   20.7790   33.5290 C   0  0  0  0  0  0  0  0  0  0  0  0
   36.4100   21.0140   32.3630 N   0  0  0  0  0  0  0  0  0  0  0  0
   37.6060   21.6660   32.3600 C   0  0  0  0  0  0  0  0  0  0  0  0
   38.1500   22.0820   33.5420 N   0  0  0  0  0  0  0  0  0  0  0  0
   39.9950   22.6340   37.3220 C   0  0  0  0  0  0  0  0  0  0  0  0
   39.2260   23.2580   38.2780 C   0  0  0  0  0  0  0  0  0  0  0  0
   37.8670   23.4040   38.0170 C   0  0  0  0  0  0  0  0  0  0  0  0
   37.3330   22.9330   36.8390 N   0  0  0  0  0  0  0  0  0  0  0  0
   38.1490   22.3220   35.9290 C   0  0  0  0  0  0  0  0  0  0  0  0
   39.4490   22.1840   36.1800 N   0  0  0  0  0  0  0  0  0  0  0  0
   39.6650   23.4730   28.1790 C   0  0  0  0  0  0  0  0  0  0  0  0
   39.6950   24.8830   28.7290 C   0  0  0  0  0  0  0  0  0  0  0  0
   39.9610   25.7470   27.5670 N   0  0  0  0  0  0  0  0  0  0  0  0
   40.4680   25.2850   26.4110 C   0  0  0  0  0  0  0  0  0  0  0  0
   40.6900   26.1570   25.3660 C   0  0  0  0  0  0  0  0  0  0  0  0
   41.2520   25.6830   24.0680 C   0  0  0  0  0  0  0  0  0  0  0  0
   40.3960   27.4990   25.4970 C   0  0  0  0  0  0  0  0  0  0  0  0
   40.6110   28.2730   24.5210 O   0  0  0  0  0  0  0  0  0  0  0  0
   39.8880   27.9600   26.6570 N   0  0  0  0  0  0  0  0  0  0  0  0
   39.6840   27.0700   27.6600 C   0  0  0  0  0  0  0  0  0  0  0  0
   39.2090   27.5090   28.7390 O   0  0  0  0  0  0  0  0  0  0  0  0
   38.6287   19.7291   30.6425 H   0  0  0  0  0  0  0  0  0  0  0  0
   39.7465   20.6754   28.3725 H   0  0  0  0  0  0  0  0  0  0  0  0
   35.7836   21.0089   35.6730 H   0  0  0  0  0  0  0  0  0  0  0  0
   34.7978   20.2515   33.5222 H   0  0  0  0  0  0  0  0  0  0  0  0
   41.0731   22.5018   37.4958 H   0  0  0  0  0  0  0  0  0  0  0  0
   39.6696   23.6278   39.2142 H   0  0  0  0  0  0  0  0  0  0  0  0
   37.2172   23.8975   38.7547 H   0  0  0  0  0  0  0  0  0  0  0  0
   38.9956   23.4234   27.3075 H   0  0  0  0  0  0  0  0  0  0  0  0
   40.6691   23.1599   27.8570 H   0  0  0  0  0  0  0  0  0  0  0  0
   38.7278   25.1390   29.1863 H   0  0  0  0  0  0  0  0  0  0  0  0
   40.4583   25.0019   29.5121 H   0  0  0  0  0  0  0  0  0  0  0  0
   40.7047   24.2166   26.2991 H   0  0  0  0  0  0  0  0  0  0  0  0
   42.0799   24.9847   24.2601 H   0  0  0  0  0  0  0  0  0  0  0  0
   40.4662   25.1708   23.4934 H   0  0  0  0  0  0  0  0  0  0  0  0
   41.6243   26.5439   23.4934 H   0  0  0  0  0  0  0  0  0  0  0  0
   39.6616   28.9575   26.7782 H   0  0  0  0  0  0  0  0  0  0  0  0
  1 10  1  0
  2  1  1  0
  3  4  1  0
  3  2  2  0
  4  5  1  0
  5  1  2  0
  6  7  2  0
  6 16  1  0
  8  7  1  0
  9  8  2  0
 10  9  1  0
 10 11  2  0
 11  6  1  0
 12 13  2  0
 14 13  1  0
 15 14  2  0
 16 17  2  0
 16 15  1  0
 17 12  1  0
 18 19  1  0
 18  4  1  0
 20 27  1  0
 20 19  1  0
 21 20  1  0
 22 24  1  0
 22 21  2  0
 23 22  1  0
 24 26  1  0
 25 24  2  0
 26 27  1  0
 27 28  2  0
  2 29  1  0
  3 30  1  0
  7 31  1  0
  8 32  1  0
 12 33  1  0
 13 34  1  0
 14 35  1  0
 18 36  1  0
 18 37  1  0
 19 38  1  0
 19 39  1  0
 21 40  1  0
 23 41  1  0
 23 42  1  0
 23 43  1  0
 26 44  1  0
M  ISO  8  29  14  30  14  31  14  32  14  33  14  34  14  35  14  36   8
M  ISO  8  37   8  38   8  39   8  40  14  41   8  42   8  43   8  44   9
M  END
>  <minimizedAffinity>  (1) 
-4.89701414

>  <minimizedRMSD>  (1) 
1.26960206

$$$$
