
     RDKit          3D

 47 50  0  0  0  0  0  0  0  0999 V2000
   38.2580   22.1260   31.1320 C   0  0  0  0  0  0  0  0  0  0  0  0
   38.7840   21.0720   30.3770 C   0  0  0  0  0  0  0  0  0  0  0  0
   39.3170   21.6230   29.2240 C   0  0  0  0  0  0  0  0  0  0  0  0
   39.1050   22.9540   29.3100 N   0  0  0  0  0  0  0  0  0  0  0  0
   38.4770   23.2610   30.4400 N   0  0  0  0  0  0  0  0  0  0  0  0
   37.5210   21.9020   34.7730 C   0  0  0  0  0  0  0  0  0  0  0  0
   36.3620   21.1870   34.7620 C   0  0  0  0  0  0  0  0  0  0  0  0
   35.8390   20.7890   33.5580 C   0  0  0  0  0  0  0  0  0  0  0  0
   36.4640   21.1020   32.3990 N   0  0  0  0  0  0  0  0  0  0  0  0
   37.6230   21.8180   32.4190 C   0  0  0  0  0  0  0  0  0  0  0  0
   38.1460   22.2160   33.6160 N   0  0  0  0  0  0  0  0  0  0  0  0
   39.9720   22.6450   37.4390 C   0  0  0  0  0  0  0  0  0  0  0  0
   39.1900   23.2760   38.3800 C   0  0  0  0  0  0  0  0  0  0  0  0
   37.8300   23.4420   38.0970 C   0  0  0  0  0  0  0  0  0  0  0  0
   37.3350   22.9800   36.9130 N   0  0  0  0  0  0  0  0  0  0  0  0
   38.1430   22.3620   36.0100 C   0  0  0  0  0  0  0  0  0  0  0  0
   39.4390   22.2030   36.2810 N   0  0  0  0  0  0  0  0  0  0  0  0
   39.5230   23.8790   28.2750 C   0  0  0  0  0  0  0  0  0  0  0  0
   40.0620   23.0550   27.1340 C   0  0  0  0  0  0  0  0  0  0  0  0
   39.3000   23.2400   25.8540 C   0  0  0  0  0  0  0  0  0  0  0  0
   40.1540   24.0920   24.9390 C   0  0  0  0  0  0  0  0  0  0  0  0
   40.4380   23.4240   23.6110 C   0  0  0  0  0  0  0  0  0  0  0  0
   41.0310   22.0630   23.8720 C   0  0  0  0  0  0  0  0  0  0  0  0
   40.1370   21.1880   24.6880 C   0  0  0  0  0  0  0  0  0  0  0  0
   38.9310   21.9730   25.1610 C   0  0  0  0  0  0  0  0  0  0  0  0
   38.7757   20.0060   30.6484 H   0  0  0  0  0  0  0  0  0  0  0  0
   39.8133   21.0848   28.4030 H   0  0  0  0  0  0  0  0  0  0  0  0
   35.8534   20.9327   35.7036 H   0  0  0  0  0  0  0  0  0  0  0  0
   34.9037   20.2105   33.5342 H   0  0  0  0  0  0  0  0  0  0  0  0
   41.0448   22.4993   37.6336 H   0  0  0  0  0  0  0  0  0  0  0  0
   39.6210   23.6384   39.3249 H   0  0  0  0  0  0  0  0  0  0  0  0
   37.1677   23.9393   38.8209 H   0  0  0  0  0  0  0  0  0  0  0  0
   38.6650   24.4778   27.9354 H   0  0  0  0  0  0  0  0  0  0  0  0
   40.2899   24.5701   28.6547 H   0  0  0  0  0  0  0  0  0  0  0  0
   41.1097   23.3420   26.9609 H   0  0  0  0  0  0  0  0  0  0  0  0
   39.9630   21.9978   27.4213 H   0  0  0  0  0  0  0  0  0  0  0  0
   38.3416   23.7175   26.1058 H   0  0  0  0  0  0  0  0  0  0  0  0
   39.6290   25.0400   24.7503 H   0  0  0  0  0  0  0  0  0  0  0  0
   41.1191   24.2528   25.4417 H   0  0  0  0  0  0  0  0  0  0  0  0
   41.1496   24.0335   23.0347 H   0  0  0  0  0  0  0  0  0  0  0  0
   39.5061   23.3228   23.0353 H   0  0  0  0  0  0  0  0  0  0  0  0
   41.2186   21.5705   22.9065 H   0  0  0  0  0  0  0  0  0  0  0  0
   41.9598   22.2107   24.4425 H   0  0  0  0  0  0  0  0  0  0  0  0
   39.8008   20.3388   24.0750 H   0  0  0  0  0  0  0  0  0  0  0  0
   40.6934   20.8208   25.5630 H   0  0  0  0  0  0  0  0  0  0  0  0
   38.3077   22.2186   24.2886 H   0  0  0  0  0  0  0  0  0  0  0  0
   38.3914   21.3452   25.8854 H   0  0  0  0  0  0  0  0  0  0  0  0
  1 10  1  0
  2  1  1  0
  3  4  1  0
  3  2  2  0
  4  5  1  0
  5  1  2  0
  6 16  1  0
  7  6  2  0
  8  7  1  0
  9 10  1  0
  9  8  2  0
 10 11  2  0
 11  6  1  0
 12 13  2  0
 14 13  1  0
 15 14  2  0
 16 17  2  0
 16 15  1  0
 17 12  1  0
 18  4  1  0
 19 18  1  0
 20 19  1  0
 21 20  1  0
 22 23  1  0
 22 21  1  0
 23 24  1  0
 24 25  1  0
 25 20  1  0
  2 26  1  0
  3 27  1  0
  7 28  1  0
  8 29  1  0
 12 30  1  0
 13 31  1  0
 14 32  1  0
 18 33  1  0
 18 34  1  0
 19 35  1  0
 19 36  1  0
 20 37  1  0
 21 38  1  0
 21 39  1  0
 22 40  1  0
 22 41  1  0
 23 42  1  0
 23 43  1  0
 24 44  1  0
 24 45  1  0
 25 46  1  0
 25 47  1  0
M  ISO  8  26  14  27  14  28  14  29  14  30  14  31  14  32  14  33   8
M  ISO  8  34   8  35   8  36   8  37  13  38  13  39  13  40  13  41  13
M  ISO  6  42  13  43  13  44  13  45  13  46  13  47  13
M  END
>  <minimizedAffinity>  (1) 
-4.72481155

>  <minimizedRMSD>  (1) 
1.81294513

$$$$
