
     RDKit          3D

 44 47  0  0  0  0  0  0  0  0999 V2000
   38.1780   22.0460   31.2700 C   0  0  0  0  0  0  0  0  0  0  0  0
   38.7130   20.9730   30.5470 C   0  0  0  0  0  0  0  0  0  0  0  0
   39.2490   21.4920   29.3810 C   0  0  0  0  0  0  0  0  0  0  0  0
   39.0330   22.8240   29.4230 N   0  0  0  0  0  0  0  0  0  0  0  0
   38.3960   23.1590   30.5440 N   0  0  0  0  0  0  0  0  0  0  0  0
   37.4680   21.9060   34.9200 C   0  0  0  0  0  0  0  0  0  0  0  0
   36.3030   21.1790   34.9310 C   0  0  0  0  0  0  0  0  0  0  0  0
   35.7730   20.7500   33.7340 C   0  0  0  0  0  0  0  0  0  0  0  0
   36.3890   21.0400   32.5620 N   0  0  0  0  0  0  0  0  0  0  0  0
   37.5440   21.7630   32.5630 C   0  0  0  0  0  0  0  0  0  0  0  0
   38.0790   22.1940   33.7510 N   0  0  0  0  0  0  0  0  0  0  0  0
   39.9260   22.7360   37.5300 C   0  0  0  0  0  0  0  0  0  0  0  0
   39.1260   23.3350   38.5010 C   0  0  0  0  0  0  0  0  0  0  0  0
   37.7550   23.4420   38.2350 C   0  0  0  0  0  0  0  0  0  0  0  0
   37.2570   22.9630   37.0540 N   0  0  0  0  0  0  0  0  0  0  0  0
   38.0790   22.3870   36.1400 C   0  0  0  0  0  0  0  0  0  0  0  0
   39.3870   22.2830   36.3900 N   0  0  0  0  0  0  0  0  0  0  0  0
   39.4420   23.7280   28.3800 C   0  0  0  0  0  0  0  0  0  0  0  0
   39.7220   22.8850   27.1460 C   0  0  0  0  0  0  0  0  0  0  0  0
   39.6750   23.8500   25.9770 C   0  0  0  0  0  0  0  0  0  0  0  0
   40.4830   23.3380   24.7960 C   0  0  0  0  0  0  0  0  0  0  0  0
   40.4430   24.5900   23.9110 C   0  0  0  0  0  0  0  0  0  0  0  0
   40.6980   25.7060   24.9050 C   0  0  0  0  0  0  0  0  0  0  0  0
   40.4130   25.1320   26.2820 C   0  0  0  0  0  0  0  0  0  0  0  0
   38.7083   19.9153   30.8491 H   0  0  0  0  0  0  0  0  0  0  0  0
   39.7512   20.9306   28.5794 H   0  0  0  0  0  0  0  0  0  0  0  0
   35.8009   20.9429   35.8808 H   0  0  0  0  0  0  0  0  0  0  0  0
   34.8406   20.1663   33.7293 H   0  0  0  0  0  0  0  0  0  0  0  0
   41.0079   22.6343   37.7006 H   0  0  0  0  0  0  0  0  0  0  0  0
   39.5553   23.7100   39.4418 H   0  0  0  0  0  0  0  0  0  0  0  0
   37.0831   23.9081   38.9707 H   0  0  0  0  0  0  0  0  0  0  0  0
   38.6395   24.4504   28.1699 H   0  0  0  0  0  0  0  0  0  0  0  0
   40.3360   24.2946   28.6796 H   0  0  0  0  0  0  0  0  0  0  0  0
   40.7145   22.4161   27.2178 H   0  0  0  0  0  0  0  0  0  0  0  0
   38.9906   22.0712   27.0331 H   0  0  0  0  0  0  0  0  0  0  0  0
   38.6008   23.9771   25.7771 H   0  0  0  0  0  0  0  0  0  0  0  0
   41.5102   23.0707   25.0849 H   0  0  0  0  0  0  0  0  0  0  0  0
   40.1028   22.4178   24.3283 H   0  0  0  0  0  0  0  0  0  0  0  0
   41.2278   24.5572   23.1409 H   0  0  0  0  0  0  0  0  0  0  0  0
   39.4994   24.7044   23.3574 H   0  0  0  0  0  0  0  0  0  0  0  0
   41.7443   26.0394   24.8416 H   0  0  0  0  0  0  0  0  0  0  0  0
   40.0587   26.5768   24.6974 H   0  0  0  0  0  0  0  0  0  0  0  0
   39.7865   25.8166   26.8725 H   0  0  0  0  0  0  0  0  0  0  0  0
   41.3229   24.9736   26.8795 H   0  0  0  0  0  0  0  0  0  0  0  0
  1 10  1  0
  2  1  1  0
  3  4  1  0
  3  2  2  0
  4  5  1  0
  5  1  2  0
  6  7  2  0
  6 16  1  0
  8  7  1  0
  9 10  1  0
  9  8  2  0
 10 11  2  0
 11  6  1  0
 12 13  2  0
 14 13  1  0
 15 14  2  0
 16 17  2  0
 16 15  1  0
 17 12  1  0
 18  4  1  0
 19 18  1  0
 20 24  1  0
 20 19  1  0
 21 20  1  0
 22 21  1  0
 22 23  1  0
 23 24  1  0
  2 25  1  0
  3 26  1  0
  7 27  1  0
  8 28  1  0
 12 29  1  0
 13 30  1  0
 14 31  1  0
 18 32  1  0
 18 33  1  0
 19 34  1  0
 19 35  1  0
 20 36  1  0
 21 37  1  0
 21 38  1  0
 22 39  1  0
 22 40  1  0
 23 41  1  0
 23 42  1  0
 24 43  1  0
 24 44  1  0
M  ISO  8  25  14  26  14  27  14  28  14  29  14  30  14  31  14  32   8
M  ISO  8  33   8  34   8  35   8  36  13  37  13  38  13  39  13  40  13
M  ISO  4  41  13  42  13  43  13  44  13
M  END
>  <minimizedAffinity>  (1) 
-4.61450815

>  <minimizedRMSD>  (1) 
0.482139349

$$$$
