
     RDKit          3D

 38 41  0  0  0  0  0  0  0  0999 V2000
   38.2340   22.2450   31.1890 C   0  0  0  0  0  0  0  0  0  0  0  0
   38.8020   21.2100   30.4360 C   0  0  0  0  0  0  0  0  0  0  0  0
   39.3200   21.8020   29.2860 C   0  0  0  0  0  0  0  0  0  0  0  0
   39.0560   23.1270   29.3830 N   0  0  0  0  0  0  0  0  0  0  0  0
   38.4160   23.3910   30.5060 N   0  0  0  0  0  0  0  0  0  0  0  0
   37.5260   21.9530   34.8260 C   0  0  0  0  0  0  0  0  0  0  0  0
   36.3700   21.2120   34.8070 C   0  0  0  0  0  0  0  0  0  0  0  0
   35.8520   20.8250   33.6040 C   0  0  0  0  0  0  0  0  0  0  0  0
   36.4710   21.1710   32.4500 N   0  0  0  0  0  0  0  0  0  0  0  0
   37.6060   21.8990   32.4710 C   0  0  0  0  0  0  0  0  0  0  0  0
   38.1390   22.2940   33.6720 N   0  0  0  0  0  0  0  0  0  0  0  0
   39.9530   22.6830   37.5040 C   0  0  0  0  0  0  0  0  0  0  0  0
   39.1430   23.2930   38.4610 C   0  0  0  0  0  0  0  0  0  0  0  0
   37.7910   23.4430   38.1750 C   0  0  0  0  0  0  0  0  0  0  0  0
   37.3030   22.9930   36.9790 N   0  0  0  0  0  0  0  0  0  0  0  0
   38.1360   22.3990   36.0690 C   0  0  0  0  0  0  0  0  0  0  0  0
   39.4320   22.2560   36.3440 N   0  0  0  0  0  0  0  0  0  0  0  0
   39.4650   24.0320   28.3440 C   0  0  0  0  0  0  0  0  0  0  0  0
   39.5650   23.2650   27.0460 C   0  0  0  0  0  0  0  0  0  0  0  0
   40.0280   24.2730   26.0250 C   0  0  0  0  0  0  0  0  0  0  0  0
   40.2070   24.1310   24.6480 C   0  0  0  0  0  0  0  0  0  0  0  0
   40.6480   25.3500   24.1510 C   0  0  0  0  0  0  0  0  0  0  0  0
   40.7130   26.1780   25.2700 C   0  0  0  0  0  0  0  0  0  0  0  0
   40.3440   25.5110   26.3380 O   0  0  0  0  0  0  0  0  0  0  0  0
   38.8330   20.1425   30.6998 H   0  0  0  0  0  0  0  0  0  0  0  0
   39.8409   21.2934   28.4614 H   0  0  0  0  0  0  0  0  0  0  0  0
   35.8690   20.9344   35.7461 H   0  0  0  0  0  0  0  0  0  0  0  0
   34.9277   20.2295   33.5721 H   0  0  0  0  0  0  0  0  0  0  0  0
   41.0270   22.5510   37.7017 H   0  0  0  0  0  0  0  0  0  0  0  0
   39.5619   23.6455   39.4151 H   0  0  0  0  0  0  0  0  0  0  0  0
   37.1193   23.9195   38.9042 H   0  0  0  0  0  0  0  0  0  0  0  0
   38.7233   24.8378   28.2417 H   0  0  0  0  0  0  0  0  0  0  0  0
   40.4405   24.4743   28.5944 H   0  0  0  0  0  0  0  0  0  0  0  0
   40.2936   22.4460   27.1372 H   0  0  0  0  0  0  0  0  0  0  0  0
   38.6055   22.8065   26.7648 H   0  0  0  0  0  0  0  0  0  0  0  0
   40.0303   23.2172   24.0618 H   0  0  0  0  0  0  0  0  0  0  0  0
   40.8912   25.6048   23.1089 H   0  0  0  0  0  0  0  0  0  0  0  0
   41.0265   27.2323   25.2595 H   0  0  0  0  0  0  0  0  0  0  0  0
  1 10  1  0
  2  1  1  0
  3  4  1  0
  3  2  2  0
  4  5  1  0
  5  1  2  0
  6 16  1  0
  7  6  2  0
  8  7  1  0
  9 10  1  0
  9  8  2  0
 10 11  2  0
 11  6  1  0
 12 13  2  0
 14 13  1  0
 15 14  2  0
 16 17  2  0
 16 15  1  0
 17 12  1  0
 18  4  1  0
 19 18  1  0
 20 24  1  0
 20 19  1  0
 21 20  2  0
 22 21  1  0
 22 23  2  0
 23 24  1  0
  2 25  1  0
  3 26  1  0
  7 27  1  0
  8 28  1  0
 12 29  1  0
 13 30  1  0
 14 31  1  0
 18 32  1  0
 18 33  1  0
 19 34  1  0
 19 35  1  0
 21 36  1  0
 22 37  1  0
 23 38  1  0
M  ISO  8  25  14  26  14  27  14  28  14  29  14  30  14  31  14  32   8
M  ISO  6  33   8  34   8  35   8  36  14  37  14  38  14
M  END
>  <minimizedAffinity>  (1) 
-4.53540611

>  <minimizedRMSD>  (1) 
0.320749551

$$$$
