
     RDKit          3D

 43 46  0  0  0  0  0  0  0  0999 V2000
   38.2210   22.2080   31.1810 C   0  0  0  0  0  0  0  0  0  0  0  0
   38.7810   21.1630   30.4350 C   0  0  0  0  0  0  0  0  0  0  0  0
   39.3130   21.7330   29.2750 C   0  0  0  0  0  0  0  0  0  0  0  0
   39.0630   23.0570   29.3610 N   0  0  0  0  0  0  0  0  0  0  0  0
   38.4190   23.3420   30.4830 N   0  0  0  0  0  0  0  0  0  0  0  0
   37.5090   21.9330   34.8270 C   0  0  0  0  0  0  0  0  0  0  0  0
   36.3610   21.2020   34.8160 C   0  0  0  0  0  0  0  0  0  0  0  0
   35.8290   20.8060   33.6040 C   0  0  0  0  0  0  0  0  0  0  0  0
   36.4490   21.1470   32.4530 N   0  0  0  0  0  0  0  0  0  0  0  0
   37.5880   21.8710   32.4620 C   0  0  0  0  0  0  0  0  0  0  0  0
   38.1140   22.2630   33.6640 N   0  0  0  0  0  0  0  0  0  0  0  0
   39.9490   22.6740   37.4810 C   0  0  0  0  0  0  0  0  0  0  0  0
   39.1490   23.2990   38.4380 C   0  0  0  0  0  0  0  0  0  0  0  0
   37.7960   23.4500   38.1530 C   0  0  0  0  0  0  0  0  0  0  0  0
   37.3210   22.9880   36.9650 N   0  0  0  0  0  0  0  0  0  0  0  0
   38.1310   22.3840   36.0570 C   0  0  0  0  0  0  0  0  0  0  0  0
   39.4270   22.2370   36.3260 N   0  0  0  0  0  0  0  0  0  0  0  0
   39.4750   23.9630   28.3200 C   0  0  0  0  0  0  0  0  0  0  0  0
   40.0740   23.1290   27.2010 C   0  0  0  0  0  0  0  0  0  0  0  0
   39.3180   23.3970   25.9570 N   0  0  0  0  0  0  0  0  0  0  0  0
   38.9910   22.1870   25.2820 C   0  0  0  0  0  0  0  0  0  0  0  0
   39.8030   22.1180   24.0220 C   0  0  0  0  0  0  0  0  0  0  0  0
   40.8840   23.1410   24.2240 C   0  0  0  0  0  0  0  0  0  0  0  0
   40.1440   24.1810   25.0520 C   0  0  0  0  0  0  0  0  0  0  0  0
   38.7987   20.0979   30.7095 H   0  0  0  0  0  0  0  0  0  0  0  0
   39.8304   21.2092   28.4578 H   0  0  0  0  0  0  0  0  0  0  0  0
   35.8637   20.9303   35.7588 H   0  0  0  0  0  0  0  0  0  0  0  0
   34.9022   20.2141   33.5762 H   0  0  0  0  0  0  0  0  0  0  0  0
   41.0228   22.5379   37.6768 H   0  0  0  0  0  0  0  0  0  0  0  0
   39.5740   23.6602   39.3861 H   0  0  0  0  0  0  0  0  0  0  0  0
   37.1223   23.9343   38.8752 H   0  0  0  0  0  0  0  0  0  0  0  0
   38.6068   24.5254   27.9460 H   0  0  0  0  0  0  0  0  0  0  0  0
   40.2117   24.6845   28.7030 H   0  0  0  0  0  0  0  0  0  0  0  0
   41.1300   23.4024   27.0593 H   0  0  0  0  0  0  0  0  0  0  0  0
   40.0141   22.0604   27.4548 H   0  0  0  0  0  0  0  0  0  0  0  0
   39.2277   21.3264   25.9250 H   0  0  0  0  0  0  0  0  0  0  0  0
   37.9174   22.1635   25.0436 H   0  0  0  0  0  0  0  0  0  0  0  0
   39.1866   22.3695   23.1463 H   0  0  0  0  0  0  0  0  0  0  0  0
   40.2051   21.1115   23.8344 H   0  0  0  0  0  0  0  0  0  0  0  0
   41.7403   22.7217   24.7726 H   0  0  0  0  0  0  0  0  0  0  0  0
   41.3224   23.5292   23.2928 H   0  0  0  0  0  0  0  0  0  0  0  0
   40.8521   24.8074   25.6143 H   0  0  0  0  0  0  0  0  0  0  0  0
   39.5515   24.8692   24.4312 H   0  0  0  0  0  0  0  0  0  0  0  0
  1 10  1  0
  2  1  1  0
  3  4  1  0
  3  2  2  0
  4  5  1  0
  5  1  2  0
  6 16  1  0
  7  6  2  0
  8  7  1  0
  9 10  1  0
  9  8  2  0
 10 11  2  0
 11  6  1  0
 12 13  2  0
 14 13  1  0
 15 14  2  0
 16 17  2  0
 16 15  1  0
 17 12  1  0
 18  4  1  0
 19 18  1  0
 20 19  1  0
 21 20  1  0
 22 23  1  0
 22 21  1  0
 23 24  1  0
 24 20  1  0
  2 25  1  0
  3 26  1  0
  7 27  1  0
  8 28  1  0
 12 29  1  0
 13 30  1  0
 14 31  1  0
 18 32  1  0
 18 33  1  0
 19 34  1  0
 19 35  1  0
 21 36  1  0
 21 37  1  0
 22 38  1  0
 22 39  1  0
 23 40  1  0
 23 41  1  0
 24 42  1  0
 24 43  1  0
M  ISO  8  25  14  26  14  27  14  28  14  29  14  30  14  31  14  32   8
M  ISO  8  33   8  34   8  35   8  36  13  37  13  38  13  39  13  40  13
M  ISO  3  41  13  42  13  43  13
M  END
>  <minimizedAffinity>  (1) 
-4.4955492

>  <minimizedRMSD>  (1) 
0.915221155

$$$$
