
     RDKit          3D

 46 49  0  0  0  0  0  0  0  0999 V2000
   38.2150   22.2350   31.1590 C   0  0  0  0  0  0  0  0  0  0  0  0
   38.7970   21.2020   30.4160 C   0  0  0  0  0  0  0  0  0  0  0  0
   39.3190   21.7870   29.2610 C   0  0  0  0  0  0  0  0  0  0  0  0
   39.0420   23.1020   29.3440 N   0  0  0  0  0  0  0  0  0  0  0  0
   38.3830   23.3810   30.4720 N   0  0  0  0  0  0  0  0  0  0  0  0
   37.5130   21.9350   34.8030 C   0  0  0  0  0  0  0  0  0  0  0  0
   36.3620   21.1960   34.7890 C   0  0  0  0  0  0  0  0  0  0  0  0
   35.8390   20.8150   33.5910 C   0  0  0  0  0  0  0  0  0  0  0  0
   36.4460   21.1620   32.4320 N   0  0  0  0  0  0  0  0  0  0  0  0
   37.5860   21.8930   32.4400 C   0  0  0  0  0  0  0  0  0  0  0  0
   38.1120   22.2750   33.6450 N   0  0  0  0  0  0  0  0  0  0  0  0
   39.9520   22.6650   37.4670 C   0  0  0  0  0  0  0  0  0  0  0  0
   39.1710   23.2820   38.4250 C   0  0  0  0  0  0  0  0  0  0  0  0
   37.8160   23.4400   38.1420 C   0  0  0  0  0  0  0  0  0  0  0  0
   37.3100   22.9860   36.9480 N   0  0  0  0  0  0  0  0  0  0  0  0
   38.1370   22.3830   36.0420 C   0  0  0  0  0  0  0  0  0  0  0  0
   39.4300   22.2300   36.3050 N   0  0  0  0  0  0  0  0  0  0  0  0
   39.4520   23.9950   28.2990 C   0  0  0  0  0  0  0  0  0  0  0  0
   40.0270   23.1810   27.1720 C   0  0  0  0  0  0  0  0  0  0  0  0
   39.3540   23.3730   25.9000 N   0  0  0  0  0  0  0  0  0  0  0  0
   38.9620   22.1070   25.3140 C   0  0  0  0  0  0  0  0  0  0  0  0
   40.1430   21.2330   24.9740 C   0  0  0  0  0  0  0  0  0  0  0  0
   41.1230   21.9660   24.0810 C   0  0  0  0  0  0  0  0  0  0  0  0
   40.6380   23.3610   23.7670 C   0  0  0  0  0  0  0  0  0  0  0  0
   40.0860   24.1150   24.9360 C   0  0  0  0  0  0  0  0  0  0  0  0
   38.8357   20.1370   30.6887 H   0  0  0  0  0  0  0  0  0  0  0  0
   39.8509   21.2754   28.4453 H   0  0  0  0  0  0  0  0  0  0  0  0
   35.8671   20.9142   35.7301 H   0  0  0  0  0  0  0  0  0  0  0  0
   34.9145   20.2196   33.5648 H   0  0  0  0  0  0  0  0  0  0  0  0
   41.0263   22.5258   37.6583 H   0  0  0  0  0  0  0  0  0  0  0  0
   39.6019   23.6346   39.3737 H   0  0  0  0  0  0  0  0  0  0  0  0
   37.1531   23.9269   38.8725 H   0  0  0  0  0  0  0  0  0  0  0  0
   38.5843   24.5669   27.9383 H   0  0  0  0  0  0  0  0  0  0  0  0
   40.2079   24.6977   28.6795 H   0  0  0  0  0  0  0  0  0  0  0  0
   41.0842   23.4591   27.0491 H   0  0  0  0  0  0  0  0  0  0  0  0
   39.8953   22.1235   27.4446 H   0  0  0  0  0  0  0  0  0  0  0  0
   38.3219   21.5708   26.0301 H   0  0  0  0  0  0  0  0  0  0  0  0
   38.4292   22.3253   24.3767 H   0  0  0  0  0  0  0  0  0  0  0  0
   40.6531   20.9404   25.9036 H   0  0  0  0  0  0  0  0  0  0  0  0
   39.7780   20.3445   24.4379 H   0  0  0  0  0  0  0  0  0  0  0  0
   42.0949   22.0306   24.5921 H   0  0  0  0  0  0  0  0  0  0  0  0
   41.2173   21.4094   23.1369 H   0  0  0  0  0  0  0  0  0  0  0  0
   41.4846   23.9335   23.3602 H   0  0  0  0  0  0  0  0  0  0  0  0
   39.8077   23.2456   23.0548 H   0  0  0  0  0  0  0  0  0  0  0  0
   40.9332   24.5869   25.4552 H   0  0  0  0  0  0  0  0  0  0  0  0
   39.3560   24.8146   24.5028 H   0  0  0  0  0  0  0  0  0  0  0  0
  1 10  1  0
  2  1  1  0
  3  4  1  0
  3  2  2  0
  4  5  1  0
  5  1  2  0
  6 16  1  0
  7  6  2  0
  8  7  1  0
  9 10  1  0
  9  8  2  0
 10 11  2  0
 11  6  1  0
 12 13  2  0
 14 13  1  0
 15 14  2  0
 16 17  2  0
 16 15  1  0
 17 12  1  0
 18  4  1  0
 19 18  1  0
 20 19  1  0
 21 20  1  0
 22 21  1  0
 23 22  1  0
 24 23  1  0
 24 25  1  0
 25 20  1  0
  2 26  1  0
  3 27  1  0
  7 28  1  0
  8 29  1  0
 12 30  1  0
 13 31  1  0
 14 32  1  0
 18 33  1  0
 18 34  1  0
 19 35  1  0
 19 36  1  0
 21 37  1  0
 21 38  1  0
 22 39  1  0
 22 40  1  0
 23 41  1  0
 23 42  1  0
 24 43  1  0
 24 44  1  0
 25 45  1  0
 25 46  1  0
M  ISO  8  26  14  27  14  28  14  29  14  30  14  31  14  32  14  33   8
M  ISO  8  34   8  35   8  36   8  37  13  38  13  39  13  40  13  41  13
M  ISO  5  42  13  43  13  44  13  45  13  46  13
M  END
>  <minimizedAffinity>  (1) 
-4.49064541

>  <minimizedRMSD>  (1) 
1.32806039

$$$$
