
     RDKit          3D

 27 29  0  0  0  0  0  0  0  0999 V2000
   37.1110   21.9470   34.3930 C   0  0  0  0  0  0  0  0  0  0  0  0
   36.3000   20.8340   34.4480 C   0  0  0  0  0  0  0  0  0  0  0  0
   35.4630   20.4170   33.4440 C   0  0  0  0  0  0  0  0  0  0  0  0
   35.4020   21.1430   32.2740 C   0  0  0  0  0  0  0  0  0  0  0  0
   36.1810   22.2550   32.1570 C   0  0  0  0  0  0  0  0  0  0  0  0
   36.1120   22.9740   30.9820 C   0  0  0  0  0  0  0  0  0  0  0  0
   36.8620   24.0970   30.7930 C   0  0  0  0  0  0  0  0  0  0  0  0
   37.7000   24.4920   31.8350 C   0  0  0  0  0  0  0  0  0  0  0  0
   37.7320   23.7430   32.9840 C   0  0  0  0  0  0  0  0  0  0  0  0
   37.0020   22.6240   33.2020 C   0  0  0  0  0  0  0  0  0  0  0  0
   40.1590   22.0590   36.2860 C   0  0  0  0  0  0  0  0  0  0  0  0
   39.9280   22.8240   37.4200 C   0  0  0  0  0  0  0  0  0  0  0  0
   38.6380   23.3360   37.5420 C   0  0  0  0  0  0  0  0  0  0  0  0
   37.7560   23.0530   36.5800 N   0  0  0  0  0  0  0  0  0  0  0  0
   37.9660   22.3240   35.4940 C   0  0  0  0  0  0  0  0  0  0  0  0
   39.1910   21.8480   35.3960 N   0  0  0  0  0  0  0  0  0  0  0  0
   38.0510   24.3540   38.8930 S   0  0  0  0  0  0  0  0  0  0  0  0
   36.3258   20.2330   35.3689 H   0  0  0  0  0  0  0  0  0  0  0  0
   34.8479   19.5140   33.5713 H   0  0  0  0  0  0  0  0  0  0  0  0
   34.7393   20.8318   31.4530 H   0  0  0  0  0  0  0  0  0  0  0  0
   35.4384   22.6347   30.1813 H   0  0  0  0  0  0  0  0  0  0  0  0
   36.8080   24.6690   29.8550 H   0  0  0  0  0  0  0  0  0  0  0  0
   38.3263   25.3910   31.7373 H   0  0  0  0  0  0  0  0  0  0  0  0
   38.4021   24.0773   33.7897 H   0  0  0  0  0  0  0  0  0  0  0  0
   41.1543   21.6211   36.1198 H   0  0  0  0  0  0  0  0  0  0  0  0
   40.7093   23.0132   38.1709 H   0  0  0  0  0  0  0  0  0  0  0  0
   38.3881   23.7694   40.0852 H   0  0  0  0  0  0  0  0  0  0  0  0
  1  2  2  0
  1 15  1  0
  3  2  1  0
  4  3  2  0
  5  4  1  0
  5 10  2  0
  6  5  1  0
  7  6  2  0
  7  8  1  0
  8  9  2  0
  9 10  1  0
 10  1  1  0
 11 12  2  0
 12 13  1  0
 13 17  1  0
 14 13  2  0
 15 14  1  0
 16 15  2  0
 16 11  1  0
  2 18  1  0
  3 19  1  0
  4 20  1  0
  6 21  1  0
  7 22  1  0
  8 23  1  0
  9 24  1  0
 11 25  1  0
 12 26  1  0
 17 27  1  0
M  ISO  8  18  14  19  14  20  14  21  14  22  14  23  14  24  14  25  14
M  ISO  2  26  14  27  11
M  END
>  <minimizedAffinity>  (1) 
-4.78412533

>  <minimizedRMSD>  (1) 
0.334045351

$$$$
