
     RDKit          3D

 38 41  0  0  0  0  0  0  0  0999 V2000
   38.2270   22.2540   31.1980 C   0  0  0  0  0  0  0  0  0  0  0  0
   38.7830   21.2220   30.4340 C   0  0  0  0  0  0  0  0  0  0  0  0
   39.3090   21.8070   29.2880 C   0  0  0  0  0  0  0  0  0  0  0  0
   39.0640   23.1330   29.3890 N   0  0  0  0  0  0  0  0  0  0  0  0
   38.4230   23.4000   30.5180 N   0  0  0  0  0  0  0  0  0  0  0  0
   37.5250   21.9620   34.8370 C   0  0  0  0  0  0  0  0  0  0  0  0
   36.3730   21.2110   34.8190 C   0  0  0  0  0  0  0  0  0  0  0  0
   35.8500   20.8160   33.6050 C   0  0  0  0  0  0  0  0  0  0  0  0
   36.4680   21.1670   32.4530 N   0  0  0  0  0  0  0  0  0  0  0  0
   37.5970   21.9020   32.4770 C   0  0  0  0  0  0  0  0  0  0  0  0
   38.1240   22.2990   33.6760 N   0  0  0  0  0  0  0  0  0  0  0  0
   39.9500   22.6820   37.5100 C   0  0  0  0  0  0  0  0  0  0  0  0
   39.1520   23.2910   38.4710 C   0  0  0  0  0  0  0  0  0  0  0  0
   37.7900   23.4410   38.1780 C   0  0  0  0  0  0  0  0  0  0  0  0
   37.2970   22.9940   36.9810 N   0  0  0  0  0  0  0  0  0  0  0  0
   38.1240   22.4060   36.0770 C   0  0  0  0  0  0  0  0  0  0  0  0
   39.4230   22.2570   36.3460 N   0  0  0  0  0  0  0  0  0  0  0  0
   39.4690   24.0650   28.3720 C   0  0  0  0  0  0  0  0  0  0  0  0
   39.5620   23.3010   27.0650 C   0  0  0  0  0  0  0  0  0  0  0  0
   40.0210   24.2840   26.0710 N   0  0  0  0  0  0  0  0  0  0  0  0
   40.3680   25.5550   26.3260 N   0  0  0  0  0  0  0  0  0  0  0  0
   40.7340   26.1580   25.1850 C   0  0  0  0  0  0  0  0  0  0  0  0
   40.6180   25.2460   24.1730 C   0  0  0  0  0  0  0  0  0  0  0  0
   40.1690   24.0880   24.7660 C   0  0  0  0  0  0  0  0  0  0  0  0
   38.8005   20.1526   30.6910 H   0  0  0  0  0  0  0  0  0  0  0  0
   39.8229   21.2930   28.4623 H   0  0  0  0  0  0  0  0  0  0  0  0
   35.8758   20.9294   35.7589 H   0  0  0  0  0  0  0  0  0  0  0  0
   34.9293   20.2149   33.5732 H   0  0  0  0  0  0  0  0  0  0  0  0
   41.0244   22.5456   37.7024 H   0  0  0  0  0  0  0  0  0  0  0  0
   39.5732   23.6417   39.4247 H   0  0  0  0  0  0  0  0  0  0  0  0
   37.1183   23.9167   38.9077 H   0  0  0  0  0  0  0  0  0  0  0  0
   38.7258   24.8712   28.2838 H   0  0  0  0  0  0  0  0  0  0  0  0
   40.4385   24.5185   28.6257 H   0  0  0  0  0  0  0  0  0  0  0  0
   40.2838   22.4755   27.1520 H   0  0  0  0  0  0  0  0  0  0  0  0
   38.5978   22.8530   26.7830 H   0  0  0  0  0  0  0  0  0  0  0  0
   41.0681   27.2009   25.0819 H   0  0  0  0  0  0  0  0  0  0  0  0
   40.8378   25.4047   23.1069 H   0  0  0  0  0  0  0  0  0  0  0  0
   39.9640   23.1443   24.2394 H   0  0  0  0  0  0  0  0  0  0  0  0
  1 10  1  0
  2  1  1  0
  3  4  1  0
  3  2  2  0
  4  5  1  0
  5  1  2  0
  6 16  1  0
  7  6  2  0
  8  7  1  0
  9 10  1  0
  9  8  2  0
 10 11  2  0
 11  6  1  0
 12 13  2  0
 14 13  1  0
 15 14  2  0
 16 17  2  0
 16 15  1  0
 17 12  1  0
 18  4  1  0
 19 18  1  0
 20 21  1  0
 20 19  1  0
 22 21  2  0
 23 24  2  0
 23 22  1  0
 24 20  1  0
  2 25  1  0
  3 26  1  0
  7 27  1  0
  8 28  1  0
 12 29  1  0
 13 30  1  0
 14 31  1  0
 18 32  1  0
 18 33  1  0
 19 34  1  0
 19 35  1  0
 22 36  1  0
 23 37  1  0
 24 38  1  0
M  ISO  8  25  14  26  14  27  14  28  14  29  14  30  14  31  14  32   8
M  ISO  6  33   8  34   8  35   8  36  14  37  14  38  14
M  END
>  <minimizedAffinity>  (1) 
-4.43830061

>  <minimizedRMSD>  (1) 
0.169811502

$$$$
