
     RDKit          3D

 33 35  0  0  0  0  0  0  0  0999 V2000
   37.4930   21.9340   34.8520 C   0  0  0  0  0  0  0  0  0  0  0  0
   36.3490   21.2010   34.8380 C   0  0  0  0  0  0  0  0  0  0  0  0
   35.8260   20.8070   33.6310 C   0  0  0  0  0  0  0  0  0  0  0  0
   36.4470   21.1470   32.4730 N   0  0  0  0  0  0  0  0  0  0  0  0
   37.5930   21.8820   32.4880 C   0  0  0  0  0  0  0  0  0  0  0  0
   38.1110   22.2740   33.6950 N   0  0  0  0  0  0  0  0  0  0  0  0
   39.9170   22.7190   37.5140 C   0  0  0  0  0  0  0  0  0  0  0  0
   39.1190   23.3240   38.4740 C   0  0  0  0  0  0  0  0  0  0  0  0
   37.7660   23.4470   38.1820 C   0  0  0  0  0  0  0  0  0  0  0  0
   37.2920   22.9810   36.9970 N   0  0  0  0  0  0  0  0  0  0  0  0
   38.1150   22.3940   36.0840 C   0  0  0  0  0  0  0  0  0  0  0  0
   39.4030   22.2760   36.3580 N   0  0  0  0  0  0  0  0  0  0  0  0
   38.2170   22.2190   31.2130 C   0  0  0  0  0  0  0  0  0  0  0  0
   38.7820   21.2080   30.4670 C   0  0  0  0  0  0  0  0  0  0  0  0
   39.3090   21.7530   29.3080 C   0  0  0  0  0  0  0  0  0  0  0  0
   39.0430   23.0890   29.3920 N   0  0  0  0  0  0  0  0  0  0  0  0
   38.3990   23.3590   30.5160 N   0  0  0  0  0  0  0  0  0  0  0  0
   39.4460   23.9960   28.3540 C   0  0  0  0  0  0  0  0  0  0  0  0
   40.0440   23.1850   27.2250 C   0  0  0  0  0  0  0  0  0  0  0  0
   39.3580   23.4560   26.0040 N   0  0  0  0  0  0  0  0  0  0  0  0
   35.8495   20.9274   35.7791 H   0  0  0  0  0  0  0  0  0  0  0  0
   34.9002   20.2136   33.6025 H   0  0  0  0  0  0  0  0  0  0  0  0
   40.9937   22.6004   37.7054 H   0  0  0  0  0  0  0  0  0  0  0  0
   39.5381   23.6897   39.4230 H   0  0  0  0  0  0  0  0  0  0  0  0
   37.0838   23.9182   38.9049 H   0  0  0  0  0  0  0  0  0  0  0  0
   38.8099   20.1443   30.7457 H   0  0  0  0  0  0  0  0  0  0  0  0
   39.8291   21.2239   28.4959 H   0  0  0  0  0  0  0  0  0  0  0  0
   38.5725   24.5558   27.9886 H   0  0  0  0  0  0  0  0  0  0  0  0
   40.1855   24.7126   28.7409 H   0  0  0  0  0  0  0  0  0  0  0  0
   41.1057   23.4491   27.1111 H   0  0  0  0  0  0  0  0  0  0  0  0
   39.9453   22.1152   27.4613 H   0  0  0  0  0  0  0  0  0  0  0  0
   38.4198   23.8266   26.2122 H   0  0  0  0  0  0  0  0  0  0  0  0
   39.8884   24.1507   25.4591 H   0  0  0  0  0  0  0  0  0  0  0  0
  1 11  1  0
  2  1  2  0
  3  2  1  0
  4  5  1  0
  4  3  2  0
  5  6  2  0
  6  1  1  0
  7  8  2  0
  9  8  1  0
 10  9  2  0
 11 12  2  0
 11 10  1  0
 12  7  1  0
 13  5  1  0
 14 13  1  0
 15 16  1  0
 15 14  2  0
 16 17  1  0
 17 13  2  0
 18 16  1  0
 19 18  1  0
 20 19  1  0
  2 21  1  0
  3 22  1  0
  7 23  1  0
  8 24  1  0
  9 25  1  0
 14 26  1  0
 15 27  1  0
 18 28  1  0
 18 29  1  0
 19 30  1  0
 19 31  1  0
 20 32  1  0
 20 33  1  0
M  ISO  8  21  14  22  14  23  14  24  14  25  14  26  14  27  14  28   8
M  ISO  5  29   8  30   8  31   8  32   5  33   5
M  END
>  <minimizedAffinity>  (1) 
-4.15675735

>  <minimizedRMSD>  (1) 
0.373020917

$$$$
