
     RDKit          3D

 48 52  0  0  0  0  0  0  0  0999 V2000
   38.2360   22.2370   31.2250 C   0  0  0  0  0  0  0  0  0  0  0  0
   38.7670   21.2020   30.4310 C   0  0  0  0  0  0  0  0  0  0  0  0
   39.2890   21.7970   29.2890 C   0  0  0  0  0  0  0  0  0  0  0  0
   39.0680   23.1300   29.4110 N   0  0  0  0  0  0  0  0  0  0  0  0
   38.4490   23.3770   30.5520 N   0  0  0  0  0  0  0  0  0  0  0  0
   37.5200   21.9620   34.8530 C   0  0  0  0  0  0  0  0  0  0  0  0
   36.3650   21.2000   34.8410 C   0  0  0  0  0  0  0  0  0  0  0  0
   35.8480   20.7930   33.6300 C   0  0  0  0  0  0  0  0  0  0  0  0
   36.4730   21.1420   32.4780 N   0  0  0  0  0  0  0  0  0  0  0  0
   37.6120   21.8960   32.5090 C   0  0  0  0  0  0  0  0  0  0  0  0
   38.1250   22.2990   33.6980 N   0  0  0  0  0  0  0  0  0  0  0  0
   39.9220   22.7170   37.5380 C   0  0  0  0  0  0  0  0  0  0  0  0
   39.1260   23.3080   38.4900 C   0  0  0  0  0  0  0  0  0  0  0  0
   37.7680   23.4440   38.2010 C   0  0  0  0  0  0  0  0  0  0  0  0
   37.2800   22.9910   37.0030 N   0  0  0  0  0  0  0  0  0  0  0  0
   38.1040   22.4160   36.0990 C   0  0  0  0  0  0  0  0  0  0  0  0
   39.4110   22.2830   36.3700 N   0  0  0  0  0  0  0  0  0  0  0  0
   39.4780   24.0590   28.4060 C   0  0  0  0  0  0  0  0  0  0  0  0
   39.6400   23.3080   27.1070 C   0  0  0  0  0  0  0  0  0  0  0  0
   40.0200   24.3700   26.0980 C   0  0  0  0  0  0  0  0  0  0  0  0
   40.1250   24.1960   24.7670 N   0  0  0  0  0  0  0  0  0  0  0  0
   40.4770   25.3410   24.1990 O   0  0  0  0  0  0  0  0  0  0  0  0
   40.6050   26.2500   25.1240 C   0  0  0  0  0  0  0  0  0  0  0  0
   40.3270   25.6770   26.3190 N   0  0  0  0  0  0  0  0  0  0  0  0
   40.9720   27.6090   24.9150 N   0  0  0  0  0  0  0  0  0  0  0  0
   41.1060   28.6020   25.9650 C   0  0  0  0  0  0  0  0  0  0  0  0
   40.4530   29.7970   25.2950 C   0  0  0  0  0  0  0  0  0  0  0  0
   40.5080   29.5410   23.8040 C   0  0  0  0  0  0  0  0  0  0  0  0
   41.2720   28.2420   23.6440 C   0  0  0  0  0  0  0  0  0  0  0  0
   38.7682   20.1281   30.6693 H   0  0  0  0  0  0  0  0  0  0  0  0
   39.7846   21.2869   28.4499 H   0  0  0  0  0  0  0  0  0  0  0  0
   35.8677   20.9237   35.7825 H   0  0  0  0  0  0  0  0  0  0  0  0
   34.9308   20.1866   33.5978 H   0  0  0  0  0  0  0  0  0  0  0  0
   40.9976   22.5961   37.7340 H   0  0  0  0  0  0  0  0  0  0  0  0
   39.5442   23.6606   39.4443 H   0  0  0  0  0  0  0  0  0  0  0  0
   37.0919   23.9127   38.9313 H   0  0  0  0  0  0  0  0  0  0  0  0
   38.7151   24.8429   28.2902 H   0  0  0  0  0  0  0  0  0  0  0  0
   40.4287   24.5328   28.6919 H   0  0  0  0  0  0  0  0  0  0  0  0
   40.4338   22.5513   27.1921 H   0  0  0  0  0  0  0  0  0  0  0  0
   38.7257   22.7677   26.8203 H   0  0  0  0  0  0  0  0  0  0  0  0
   40.5693   28.3038   26.8777 H   0  0  0  0  0  0  0  0  0  0  0  0
   42.1373   28.7733   26.3071 H   0  0  0  0  0  0  0  0  0  0  0  0
   39.4081   29.8931   25.6252 H   0  0  0  0  0  0  0  0  0  0  0  0
   40.9723   30.7308   25.5564 H   0  0  0  0  0  0  0  0  0  0  0  0
   39.4924   29.4427   23.3931 H   0  0  0  0  0  0  0  0  0  0  0  0
   40.9929   30.3686   23.2655 H   0  0  0  0  0  0  0  0  0  0  0  0
   40.8968   27.6506   22.7958 H   0  0  0  0  0  0  0  0  0  0  0  0
   42.3443   28.3609   23.4297 H   0  0  0  0  0  0  0  0  0  0  0  0
  1 10  1  0
  2  1  1  0
  3  4  1  0
  3  2  2  0
  4  5  1  0
  5  1  2  0
  6 16  1  0
  7  6  2  0
  8  7  1  0
  9 10  1  0
  9  8  2  0
 10 11  2  0
 11  6  1  0
 12 13  2  0
 14 13  1  0
 15 14  2  0
 16 17  2  0
 16 15  1  0
 17 12  1  0
 18  4  1  0
 19 18  1  0
 20 24  1  0
 20 19  1  0
 21 20  2  0
 22 21  1  0
 22 23  1  0
 23 24  2  0
 25 23  1  0
 25 26  1  0
 27 26  1  0
 28 27  1  0
 29 28  1  0
 29 25  1  0
  2 30  1  0
  3 31  1  0
  7 32  1  0
  8 33  1  0
 12 34  1  0
 13 35  1  0
 14 36  1  0
 18 37  1  0
 18 38  1  0
 19 39  1  0
 19 40  1  0
 26 41  1  0
 26 42  1  0
 27 43  1  0
 27 44  1  0
 28 45  1  0
 28 46  1  0
 29 47  1  0
 29 48  1  0
M  ISO  8  30  14  31  14  32  14  33  14  34  14  35  14  36  14  37   8
M  ISO  8  38   8  39   8  40   8  41  13  42  13  43  13  44  13  45  13
M  ISO  3  46  13  47  13  48  13
M  END
>  <minimizedAffinity>  (1) 
-4.76571274

>  <minimizedRMSD>  (1) 
0.178790569

$$$$
