
     RDKit          3D

 43 47  0  0  0  0  0  0  0  0999 V2000
   38.1990   22.1540   31.2810 C   0  0  0  0  0  0  0  0  0  0  0  0
   38.6880   21.0980   30.4850 C   0  0  0  0  0  0  0  0  0  0  0  0
   39.2210   21.6710   29.3380 C   0  0  0  0  0  0  0  0  0  0  0  0
   39.0510   23.0140   29.4580 N   0  0  0  0  0  0  0  0  0  0  0  0
   38.4500   23.2790   30.6040 N   0  0  0  0  0  0  0  0  0  0  0  0
   37.4820   21.9290   34.9170 C   0  0  0  0  0  0  0  0  0  0  0  0
   36.3350   21.1790   34.9160 C   0  0  0  0  0  0  0  0  0  0  0  0
   35.8070   20.7530   33.7050 C   0  0  0  0  0  0  0  0  0  0  0  0
   36.4350   21.0870   32.5540 N   0  0  0  0  0  0  0  0  0  0  0  0
   37.5750   21.8320   32.5680 C   0  0  0  0  0  0  0  0  0  0  0  0
   38.0920   22.2500   33.7560 N   0  0  0  0  0  0  0  0  0  0  0  0
   39.9000   22.7470   37.5680 C   0  0  0  0  0  0  0  0  0  0  0  0
   39.1060   23.3270   38.5220 C   0  0  0  0  0  0  0  0  0  0  0  0
   37.7460   23.4350   38.2520 C   0  0  0  0  0  0  0  0  0  0  0  0
   37.2480   22.9640   37.0570 N   0  0  0  0  0  0  0  0  0  0  0  0
   38.0790   22.4020   36.1550 C   0  0  0  0  0  0  0  0  0  0  0  0
   39.3950   22.2910   36.4030 N   0  0  0  0  0  0  0  0  0  0  0  0
   39.4830   23.9430   28.4550 C   0  0  0  0  0  0  0  0  0  0  0  0
   39.7500   23.1560   27.1890 C   0  0  0  0  0  0  0  0  0  0  0  0
   40.0260   24.1830   26.1350 C   0  0  0  0  0  0  0  0  0  0  0  0
   40.2330   23.9810   24.8210 N   0  0  0  0  0  0  0  0  0  0  0  0
   40.4470   25.1240   24.2170 O   0  0  0  0  0  0  0  0  0  0  0  0
   40.3900   26.0960   25.0890 C   0  0  0  0  0  0  0  0  0  0  0  0
   40.1280   25.5190   26.2890 N   0  0  0  0  0  0  0  0  0  0  0  0
   40.5270   27.5130   25.0870 N   0  0  0  0  0  0  0  0  0  0  0  0
   40.6100   28.3180   24.0270 N   0  0  0  0  0  0  0  0  0  0  0  0
   40.7310   29.5950   24.4360 C   0  0  0  0  0  0  0  0  0  0  0  0
   40.7270   29.6340   25.8150 C   0  0  0  0  0  0  0  0  0  0  0  0
   40.5970   28.3080   26.1710 C   0  0  0  0  0  0  0  0  0  0  0  0
   38.6538   20.0254   30.7264 H   0  0  0  0  0  0  0  0  0  0  0  0
   39.6898   21.1409   28.4958 H   0  0  0  0  0  0  0  0  0  0  0  0
   35.8392   20.9180   35.8626 H   0  0  0  0  0  0  0  0  0  0  0  0
   34.8873   20.1500   33.6813 H   0  0  0  0  0  0  0  0  0  0  0  0
   40.9793   22.6504   37.7572 H   0  0  0  0  0  0  0  0  0  0  0  0
   39.5294   23.6944   39.4684 H   0  0  0  0  0  0  0  0  0  0  0  0
   37.0711   23.8944   38.9892 H   0  0  0  0  0  0  0  0  0  0  0  0
   38.6975   24.6913   28.2732 H   0  0  0  0  0  0  0  0  0  0  0  0
   40.3913   24.4705   28.7816 H   0  0  0  0  0  0  0  0  0  0  0  0
   40.6205   22.4968   27.3217 H   0  0  0  0  0  0  0  0  0  0  0  0
   38.9001   22.5114   26.9204 H   0  0  0  0  0  0  0  0  0  0  0  0
   40.8192   30.4696   23.7747 H   0  0  0  0  0  0  0  0  0  0  0  0
   40.8080   30.5120   26.4727 H   0  0  0  0  0  0  0  0  0  0  0  0
   40.5558   27.9460   27.2089 H   0  0  0  0  0  0  0  0  0  0  0  0
  1 10  1  0
  2  1  1  0
  3  4  1  0
  3  2  2  0
  4  5  1  0
  5  1  2  0
  6 16  1  0
  7  6  2  0
  8  7  1  0
  9 10  1  0
  9  8  2  0
 10 11  2  0
 11  6  1  0
 12 13  2  0
 14 13  1  0
 15 14  2  0
 16 17  2  0
 16 15  1  0
 17 12  1  0
 18  4  1  0
 19 18  1  0
 20 24  1  0
 20 19  1  0
 21 20  2  0
 22 21  1  0
 22 23  1  0
 23 24  2  0
 25 23  1  0
 25 29  1  0
 26 27  2  0
 26 25  1  0
 27 28  1  0
 28 29  2  0
  2 30  1  0
  3 31  1  0
  7 32  1  0
  8 33  1  0
 12 34  1  0
 13 35  1  0
 14 36  1  0
 18 37  1  0
 18 38  1  0
 19 39  1  0
 19 40  1  0
 27 41  1  0
 28 42  1  0
 29 43  1  0
M  ISO  8  30  14  31  14  32  14  33  14  34  14  35  14  36  14  37   8
M  ISO  6  38   8  39   8  40   8  41  14  42  14  43  14
M  END
>  <minimizedAffinity>  (1) 
-4.76065493

>  <minimizedRMSD>  (1) 
0.472758383

$$$$
