
     RDKit          3D

 46 50  0  0  0  0  0  0  0  0999 V2000
   38.1260   21.9370   31.3540 C   0  0  0  0  0  0  0  0  0  0  0  0
   38.5300   20.8490   30.5610 C   0  0  0  0  0  0  0  0  0  0  0  0
   39.0930   21.3600   29.3990 C   0  0  0  0  0  0  0  0  0  0  0  0
   39.0200   22.7060   29.5100 N   0  0  0  0  0  0  0  0  0  0  0  0
   38.4550   23.0380   30.6530 N   0  0  0  0  0  0  0  0  0  0  0  0
   37.4230   21.8710   34.9870 C   0  0  0  0  0  0  0  0  0  0  0  0
   36.2630   21.1430   35.0200 C   0  0  0  0  0  0  0  0  0  0  0  0
   35.7240   20.6800   33.8310 C   0  0  0  0  0  0  0  0  0  0  0  0
   36.3510   20.9540   32.6640 N   0  0  0  0  0  0  0  0  0  0  0  0
   37.4980   21.6740   32.6420 C   0  0  0  0  0  0  0  0  0  0  0  0
   38.0250   22.1290   33.8170 N   0  0  0  0  0  0  0  0  0  0  0  0
   39.8640   22.7740   37.5930 C   0  0  0  0  0  0  0  0  0  0  0  0
   39.0750   23.3750   38.5490 C   0  0  0  0  0  0  0  0  0  0  0  0
   37.6990   23.4630   38.2850 C   0  0  0  0  0  0  0  0  0  0  0  0
   37.2220   22.9600   37.1170 N   0  0  0  0  0  0  0  0  0  0  0  0
   38.0260   22.3780   36.2020 C   0  0  0  0  0  0  0  0  0  0  0  0
   39.3410   22.2910   36.4510 N   0  0  0  0  0  0  0  0  0  0  0  0
   39.5100   23.5820   28.4870 C   0  0  0  0  0  0  0  0  0  0  0  0
   39.8330   22.7420   27.2640 C   0  0  0  0  0  0  0  0  0  0  0  0
   40.0400   23.7460   26.1530 C   0  0  0  0  0  0  0  0  0  0  0  0
   40.1180   23.4810   24.8320 N   0  0  0  0  0  0  0  0  0  0  0  0
   40.3000   24.5950   24.1680 O   0  0  0  0  0  0  0  0  0  0  0  0
   40.3460   25.6010   25.0120 C   0  0  0  0  0  0  0  0  0  0  0  0
   40.1840   25.0770   26.2450 N   0  0  0  0  0  0  0  0  0  0  0  0
   40.5260   27.0440   24.8270 C   0  0  0  0  0  0  0  0  0  0  0  0
   40.8060   27.9380   25.8660 C   0  0  0  0  0  0  0  0  0  0  0  0
   40.9500   29.2710   25.5460 C   0  0  0  0  0  0  0  0  0  0  0  0
   40.8250   29.7270   24.2390 C   0  0  0  0  0  0  0  0  0  0  0  0
   40.5490   28.8510   23.2130 C   0  0  0  0  0  0  0  0  0  0  0  0
   40.4050   27.5170   23.5360 C   0  0  0  0  0  0  0  0  0  0  0  0
   38.4200   19.7844   30.8151 H   0  0  0  0  0  0  0  0  0  0  0  0
   39.5129   20.7868   28.5592 H   0  0  0  0  0  0  0  0  0  0  0  0
   35.7663   20.9290   35.9779 H   0  0  0  0  0  0  0  0  0  0  0  0
   34.7931   20.0939   33.8356 H   0  0  0  0  0  0  0  0  0  0  0  0
   40.9466   22.6869   37.7671 H   0  0  0  0  0  0  0  0  0  0  0  0
   39.5055   23.7698   39.4811 H   0  0  0  0  0  0  0  0  0  0  0  0
   37.0188   23.9313   39.0116 H   0  0  0  0  0  0  0  0  0  0  0  0
   38.7419   24.3280   28.2351 H   0  0  0  0  0  0  0  0  0  0  0  0
   40.4095   24.1106   28.8356 H   0  0  0  0  0  0  0  0  0  0  0  0
   40.7466   22.1519   27.4289 H   0  0  0  0  0  0  0  0  0  0  0  0
   39.0348   22.0219   27.0309 H   0  0  0  0  0  0  0  0  0  0  0  0
   40.9079   27.5887   26.9041 H   0  0  0  0  0  0  0  0  0  0  0  0
   41.1697   29.9930   26.3463 H   0  0  0  0  0  0  0  0  0  0  0  0
   40.9478   30.7984   24.0220 H   0  0  0  0  0  0  0  0  0  0  0  0
   40.4472   29.2013   22.1752 H   0  0  0  0  0  0  0  0  0  0  0  0
   40.1846   26.8007   22.7308 H   0  0  0  0  0  0  0  0  0  0  0  0
  1 10  1  0
  2  1  1  0
  3  4  1  0
  3  2  2  0
  4  5  1  0
  5  1  2  0
  6  7  2  0
  6 16  1  0
  8  7  1  0
  9  8  2  0
 10  9  1  0
 10 11  2  0
 11  6  1  0
 12 13  2  0
 14 13  1  0
 15 14  2  0
 16 17  2  0
 16 15  1  0
 17 12  1  0
 18  4  1  0
 19 18  1  0
 20 24  1  0
 20 19  1  0
 21 20  2  0
 22 21  1  0
 22 23  1  0
 23 24  2  0
 25 23  1  0
 25 26  2  0
 27 26  1  0
 28 27  2  0
 29 30  2  0
 29 28  1  0
 30 25  1  0
  2 31  1  0
  3 32  1  0
  7 33  1  0
  8 34  1  0
 12 35  1  0
 13 36  1  0
 14 37  1  0
 18 38  1  0
 18 39  1  0
 19 40  1  0
 19 41  1  0
 26 42  1  0
 27 43  1  0
 28 44  1  0
 29 45  1  0
 30 46  1  0
M  ISO  8  31  14  32  14  33  14  34  14  35  14  36  14  37  14  38   8
M  ISO  8  39   8  40   8  41   8  42  14  43  14  44  14  45  14  46  14
M  END
>  <minimizedAffinity>  (1) 
-4.68914557

>  <minimizedRMSD>  (1) 
0.611339152

$$$$
