
     RDKit          3D

 45 49  0  0  0  0  0  0  0  0999 V2000
   38.1810   22.0580   31.2850 C   0  0  0  0  0  0  0  0  0  0  0  0
   38.7030   20.9880   30.5320 C   0  0  0  0  0  0  0  0  0  0  0  0
   39.2360   21.5210   29.3650 C   0  0  0  0  0  0  0  0  0  0  0  0
   39.0340   22.8640   29.4340 N   0  0  0  0  0  0  0  0  0  0  0  0
   38.4130   23.1680   30.5660 N   0  0  0  0  0  0  0  0  0  0  0  0
   37.4700   21.9060   34.9220 C   0  0  0  0  0  0  0  0  0  0  0  0
   36.3020   21.1750   34.9320 C   0  0  0  0  0  0  0  0  0  0  0  0
   35.7730   20.7460   33.7330 C   0  0  0  0  0  0  0  0  0  0  0  0
   36.4030   21.0460   32.5730 N   0  0  0  0  0  0  0  0  0  0  0  0
   37.5540   21.7680   32.5740 C   0  0  0  0  0  0  0  0  0  0  0  0
   38.0740   22.1900   33.7530 N   0  0  0  0  0  0  0  0  0  0  0  0
   39.9050   22.7460   37.5480 C   0  0  0  0  0  0  0  0  0  0  0  0
   39.1140   23.3400   38.5110 C   0  0  0  0  0  0  0  0  0  0  0  0
   37.7480   23.4430   38.2410 C   0  0  0  0  0  0  0  0  0  0  0  0
   37.2540   22.9640   37.0630 N   0  0  0  0  0  0  0  0  0  0  0  0
   38.0810   22.3900   36.1530 C   0  0  0  0  0  0  0  0  0  0  0  0
   39.3880   22.2850   36.3960 N   0  0  0  0  0  0  0  0  0  0  0  0
   39.4530   23.7590   28.4030 C   0  0  0  0  0  0  0  0  0  0  0  0
   39.7650   22.9370   27.1740 C   0  0  0  0  0  0  0  0  0  0  0  0
   40.0150   23.9370   26.0760 C   0  0  0  0  0  0  0  0  0  0  0  0
   40.0630   23.7010   24.7590 N   0  0  0  0  0  0  0  0  0  0  0  0
   40.3050   24.8300   24.1140 O   0  0  0  0  0  0  0  0  0  0  0  0
   40.4170   25.8060   24.9710 C   0  0  0  0  0  0  0  0  0  0  0  0
   40.2370   25.2540   26.1940 N   0  0  0  0  0  0  0  0  0  0  0  0
   40.6790   27.1940   24.7030 C   0  0  0  0  0  0  0  0  0  0  0  0
   40.3650   27.7580   23.4870 C   0  0  0  0  0  0  0  0  0  0  0  0
   40.5890   29.0970   23.1540 C   0  0  0  0  0  0  0  0  0  0  0  0
   41.1720   29.8420   24.1760 C   0  0  0  0  0  0  0  0  0  0  0  0
   41.4960   29.2950   25.4040 C   0  0  0  0  0  0  0  0  0  0  0  0
   41.2430   27.9840   25.6430 N   0  0  0  0  0  0  0  0  0  0  0  0
   38.6908   19.9253   30.8159 H   0  0  0  0  0  0  0  0  0  0  0  0
   39.7236   20.9677   28.5489 H   0  0  0  0  0  0  0  0  0  0  0  0
   35.7996   20.9375   35.8813 H   0  0  0  0  0  0  0  0  0  0  0  0
   34.8413   20.1614   33.7192 H   0  0  0  0  0  0  0  0  0  0  0  0
   40.9857   22.6475   37.7280 H   0  0  0  0  0  0  0  0  0  0  0  0
   39.5421   23.7164   39.4518 H   0  0  0  0  0  0  0  0  0  0  0  0
   37.0733   23.9082   38.9747 H   0  0  0  0  0  0  0  0  0  0  0  0
   38.6483   24.4749   28.1796 H   0  0  0  0  0  0  0  0  0  0  0  0
   40.3415   24.3233   28.7227 H   0  0  0  0  0  0  0  0  0  0  0  0
   40.6589   22.3183   27.3417 H   0  0  0  0  0  0  0  0  0  0  0  0
   38.9435   22.2502   26.9222 H   0  0  0  0  0  0  0  0  0  0  0  0
   39.9064   27.1105   22.7252 H   0  0  0  0  0  0  0  0  0  0  0  0
   40.3285   29.5234   22.1740 H   0  0  0  0  0  0  0  0  0  0  0  0
   41.3830   30.9071   23.9995 H   0  0  0  0  0  0  0  0  0  0  0  0
   41.9567   29.9200   26.1832 H   0  0  0  0  0  0  0  0  0  0  0  0
  1 10  1  0
  2  1  1  0
  3  4  1  0
  3  2  2  0
  4  5  1  0
  5  1  2  0
  6  7  2  0
  6 16  1  0
  8  7  1  0
  9 10  1  0
  9  8  2  0
 10 11  2  0
 11  6  1  0
 12 13  2  0
 14 13  1  0
 15 14  2  0
 16 17  2  0
 16 15  1  0
 17 12  1  0
 18  4  1  0
 19 18  1  0
 20 24  1  0
 20 19  1  0
 21 20  2  0
 22 21  1  0
 22 23  1  0
 23 24  2  0
 25 23  1  0
 25 30  1  0
 26 25  2  0
 27 26  1  0
 27 28  2  0
 28 29  1  0
 29 30  2  0
  2 31  1  0
  3 32  1  0
  7 33  1  0
  8 34  1  0
 12 35  1  0
 13 36  1  0
 14 37  1  0
 18 38  1  0
 18 39  1  0
 19 40  1  0
 19 41  1  0
 26 42  1  0
 27 43  1  0
 28 44  1  0
 29 45  1  0
M  ISO  8  31  14  32  14  33  14  34  14  35  14  36  14  37  14  38   8
M  ISO  7  39   8  40   8  41   8  42  14  43  14  44  14  45  14
M  END
>  <minimizedAffinity>  (1) 
-4.62211227

>  <minimizedRMSD>  (1) 
0.456270278

$$$$
