
     RDKit          3D

 44 48  0  0  0  0  0  0  0  0999 V2000
   38.1950   22.1150   31.2930 C   0  0  0  0  0  0  0  0  0  0  0  0
   38.6800   21.0580   30.5010 C   0  0  0  0  0  0  0  0  0  0  0  0
   39.2160   21.6240   29.3490 C   0  0  0  0  0  0  0  0  0  0  0  0
   39.0440   22.9650   29.4730 N   0  0  0  0  0  0  0  0  0  0  0  0
   38.4460   23.2400   30.6130 N   0  0  0  0  0  0  0  0  0  0  0  0
   37.4750   21.9150   34.9310 C   0  0  0  0  0  0  0  0  0  0  0  0
   36.3270   21.1750   34.9350 C   0  0  0  0  0  0  0  0  0  0  0  0
   35.8030   20.7490   33.7280 C   0  0  0  0  0  0  0  0  0  0  0  0
   36.4290   21.0690   32.5720 N   0  0  0  0  0  0  0  0  0  0  0  0
   37.5710   21.8070   32.5780 C   0  0  0  0  0  0  0  0  0  0  0  0
   38.1060   22.2370   33.7700 N   0  0  0  0  0  0  0  0  0  0  0  0
   39.9010   22.7540   37.5800 C   0  0  0  0  0  0  0  0  0  0  0  0
   39.1010   23.3350   38.5290 C   0  0  0  0  0  0  0  0  0  0  0  0
   37.7240   23.4430   38.2630 C   0  0  0  0  0  0  0  0  0  0  0  0
   37.2500   22.9600   37.0680 N   0  0  0  0  0  0  0  0  0  0  0  0
   38.0780   22.3930   36.1600 C   0  0  0  0  0  0  0  0  0  0  0  0
   39.3750   22.3000   36.4280 N   0  0  0  0  0  0  0  0  0  0  0  0
   39.4810   23.8820   28.4570 C   0  0  0  0  0  0  0  0  0  0  0  0
   39.7560   23.1000   27.2030 C   0  0  0  0  0  0  0  0  0  0  0  0
   40.0220   24.1400   26.1450 C   0  0  0  0  0  0  0  0  0  0  0  0
   40.1750   23.9310   24.8220 N   0  0  0  0  0  0  0  0  0  0  0  0
   40.3940   25.0900   24.2130 O   0  0  0  0  0  0  0  0  0  0  0  0
   40.3890   26.0430   25.1020 C   0  0  0  0  0  0  0  0  0  0  0  0
   40.1600   25.4830   26.3090 N   0  0  0  0  0  0  0  0  0  0  0  0
   40.5910   27.4670   24.8520 C   0  0  0  0  0  0  0  0  0  0  0  0
   40.4840   27.9550   23.5660 C   0  0  0  0  0  0  0  0  0  0  0  0
   40.6940   29.3300   23.4180 C   0  0  0  0  0  0  0  0  0  0  0  0
   40.9810   30.1460   24.4470 N   0  0  0  0  0  0  0  0  0  0  0  0
   41.0770   29.6200   25.7010 C   0  0  0  0  0  0  0  0  0  0  0  0
   40.8800   28.2990   25.8700 N   0  0  0  0  0  0  0  0  0  0  0  0
   38.6424   19.9864   30.7465 H   0  0  0  0  0  0  0  0  0  0  0  0
   39.6845   21.0925   28.5076 H   0  0  0  0  0  0  0  0  0  0  0  0
   35.8277   20.9222   35.8820 H   0  0  0  0  0  0  0  0  0  0  0  0
   34.8796   20.1515   33.7079 H   0  0  0  0  0  0  0  0  0  0  0  0
   40.9817   22.6581   37.7616 H   0  0  0  0  0  0  0  0  0  0  0  0
   39.5245   23.7070   39.4736 H   0  0  0  0  0  0  0  0  0  0  0  0
   37.0433   23.9032   38.9944 H   0  0  0  0  0  0  0  0  0  0  0  0
   38.6951   24.6275   28.2658 H   0  0  0  0  0  0  0  0  0  0  0  0
   40.3912   24.4056   28.7847 H   0  0  0  0  0  0  0  0  0  0  0  0
   40.6342   22.4512   27.3368 H   0  0  0  0  0  0  0  0  0  0  0  0
   38.9164   22.4422   26.9339 H   0  0  0  0  0  0  0  0  0  0  0  0
   40.2485   27.3040   22.7112 H   0  0  0  0  0  0  0  0  0  0  0  0
   40.6207   29.7649   22.4103 H   0  0  0  0  0  0  0  0  0  0  0  0
   41.3117   30.2646   26.5609 H   0  0  0  0  0  0  0  0  0  0  0  0
  1 10  1  0
  2  1  1  0
  3  4  1  0
  3  2  2  0
  4  5  1  0
  5  1  2  0
  6  7  2  0
  6 16  1  0
  8  7  1  0
  9 10  1  0
  9  8  2  0
 10 11  2  0
 11  6  1  0
 12 13  2  0
 14 13  1  0
 15 14  2  0
 16 17  2  0
 16 15  1  0
 17 12  1  0
 18  4  1  0
 19 18  1  0
 20 24  1  0
 20 19  1  0
 21 20  2  0
 22 21  1  0
 22 23  1  0
 23 24  2  0
 25 23  1  0
 25 30  1  0
 26 25  2  0
 27 26  1  0
 27 28  2  0
 28 29  1  0
 29 30  2  0
  2 31  1  0
  3 32  1  0
  7 33  1  0
  8 34  1  0
 12 35  1  0
 13 36  1  0
 14 37  1  0
 18 38  1  0
 18 39  1  0
 19 40  1  0
 19 41  1  0
 26 42  1  0
 27 43  1  0
 29 44  1  0
M  ISO  8  31  14  32  14  33  14  34  14  35  14  36  14  37  14  38   8
M  ISO  6  39   8  40   8  41   8  42  14  43  14  44  14
M  END
>  <minimizedAffinity>  (1) 
-4.6111722

>  <minimizedRMSD>  (1) 
0.535508096

$$$$
