
     RDKit          3D

 39 42  0  0  0  0  0  0  0  0999 V2000
   38.1850   22.0910   31.2930 C   0  0  0  0  0  0  0  0  0  0  0  0
   38.6940   21.0300   30.5190 C   0  0  0  0  0  0  0  0  0  0  0  0
   39.2300   21.5830   29.3580 C   0  0  0  0  0  0  0  0  0  0  0  0
   39.0420   22.9080   29.4500 N   0  0  0  0  0  0  0  0  0  0  0  0
   38.4280   23.2030   30.5880 N   0  0  0  0  0  0  0  0  0  0  0  0
   37.4740   21.9180   34.9210 C   0  0  0  0  0  0  0  0  0  0  0  0
   36.3150   21.1760   34.9260 C   0  0  0  0  0  0  0  0  0  0  0  0
   35.7850   20.7430   33.7290 C   0  0  0  0  0  0  0  0  0  0  0  0
   36.4100   21.0520   32.5640 N   0  0  0  0  0  0  0  0  0  0  0  0
   37.5640   21.7930   32.5710 C   0  0  0  0  0  0  0  0  0  0  0  0
   38.0870   22.2210   33.7580 N   0  0  0  0  0  0  0  0  0  0  0  0
   39.9000   22.7500   37.5570 C   0  0  0  0  0  0  0  0  0  0  0  0
   39.1050   23.3360   38.5130 C   0  0  0  0  0  0  0  0  0  0  0  0
   37.7400   23.4440   38.2510 C   0  0  0  0  0  0  0  0  0  0  0  0
   37.2570   22.9660   37.0640 N   0  0  0  0  0  0  0  0  0  0  0  0
   38.0700   22.3960   36.1500 C   0  0  0  0  0  0  0  0  0  0  0  0
   39.3670   22.2990   36.4080 N   0  0  0  0  0  0  0  0  0  0  0  0
   39.4660   23.8280   28.4280 C   0  0  0  0  0  0  0  0  0  0  0  0
   39.7220   23.0120   27.1750 C   0  0  0  0  0  0  0  0  0  0  0  0
   39.9990   24.0580   26.1100 C   0  0  0  0  0  0  0  0  0  0  0  0
   40.0630   23.8200   24.7740 N   0  0  0  0  0  0  0  0  0  0  0  0
   40.3190   24.9420   24.1460 O   0  0  0  0  0  0  0  0  0  0  0  0
   40.4280   25.9160   25.0260 C   0  0  0  0  0  0  0  0  0  0  0  0
   40.2320   25.3870   26.2550 N   0  0  0  0  0  0  0  0  0  0  0  0
   40.7120   27.3180   24.6850 C   0  0  0  0  0  0  0  0  0  0  0  0
   42.0610   27.4950   24.4960 F   0  0  0  0  0  0  0  0  0  0  0  0
   40.2510   28.1660   25.6900 F   0  0  0  0  0  0  0  0  0  0  0  0
   39.9740   27.6630   23.5450 F   0  0  0  0  0  0  0  0  0  0  0  0
   38.6723   19.9622   30.7825 H   0  0  0  0  0  0  0  0  0  0  0  0
   39.7115   21.0410   28.5307 H   0  0  0  0  0  0  0  0  0  0  0  0
   35.8164   20.9308   35.8754 H   0  0  0  0  0  0  0  0  0  0  0  0
   34.8590   20.1493   33.7180 H   0  0  0  0  0  0  0  0  0  0  0  0
   40.9811   22.6492   37.7334 H   0  0  0  0  0  0  0  0  0  0  0  0
   39.5326   23.7082   39.4557 H   0  0  0  0  0  0  0  0  0  0  0  0
   37.0636   23.9053   38.9856 H   0  0  0  0  0  0  0  0  0  0  0  0
   38.6785   24.5725   28.2396 H   0  0  0  0  0  0  0  0  0  0  0  0
   40.3734   24.3674   28.7373 H   0  0  0  0  0  0  0  0  0  0  0  0
   40.5904   22.3503   27.3092 H   0  0  0  0  0  0  0  0  0  0  0  0
   38.8784   22.3552   26.9161 H   0  0  0  0  0  0  0  0  0  0  0  0
  1 10  1  0
  2  1  1  0
  3  4  1  0
  3  2  2  0
  4  5  1  0
  5  1  2  0
  6  7  2  0
  6 16  1  0
  8  7  1  0
  9 10  1  0
  9  8  2  0
 10 11  2  0
 11  6  1  0
 12 13  2  0
 14 13  1  0
 15 14  2  0
 16 17  2  0
 16 15  1  0
 17 12  1  0
 18  4  1  0
 19 18  1  0
 20 24  1  0
 20 19  1  0
 21 20  2  0
 22 21  1  0
 22 23  1  0
 23 24  2  0
 25 23  1  0
 25 27  1  0
 26 25  1  0
 28 25  1  0
  2 29  1  0
  3 30  1  0
  7 31  1  0
  8 32  1  0
 12 33  1  0
 13 34  1  0
 14 35  1  0
 18 36  1  0
 18 37  1  0
 19 38  1  0
 19 39  1  0
M  ISO  8  29  14  30  14  31  14  32  14  33  14  34  14  35  14  36   8
M  ISO  3  37   8  38   8  39   8
M  END
>  <minimizedAffinity>  (1) 
-4.58775139

>  <minimizedRMSD>  (1) 
0.411533237

$$$$
