
     RDKit          3D

 45 48  0  0  0  0  0  0  0  0999 V2000
   38.2020   22.0280   31.2780 C   0  0  0  0  0  0  0  0  0  0  0  0
   38.7450   20.9500   30.5500 C   0  0  0  0  0  0  0  0  0  0  0  0
   39.2670   21.4940   29.3830 C   0  0  0  0  0  0  0  0  0  0  0  0
   39.0370   22.8290   29.4320 N   0  0  0  0  0  0  0  0  0  0  0  0
   38.4120   23.1310   30.5490 N   0  0  0  0  0  0  0  0  0  0  0  0
   37.4760   21.9010   34.9160 C   0  0  0  0  0  0  0  0  0  0  0  0
   36.3060   21.1850   34.9280 C   0  0  0  0  0  0  0  0  0  0  0  0
   35.7700   20.7540   33.7290 C   0  0  0  0  0  0  0  0  0  0  0  0
   36.4050   21.0410   32.5660 N   0  0  0  0  0  0  0  0  0  0  0  0
   37.5740   21.7560   32.5680 C   0  0  0  0  0  0  0  0  0  0  0  0
   38.1000   22.1810   33.7490 N   0  0  0  0  0  0  0  0  0  0  0  0
   39.9110   22.7460   37.5420 C   0  0  0  0  0  0  0  0  0  0  0  0
   39.1160   23.3420   38.5070 C   0  0  0  0  0  0  0  0  0  0  0  0
   37.7470   23.4450   38.2350 C   0  0  0  0  0  0  0  0  0  0  0  0
   37.2580   22.9600   37.0480 N   0  0  0  0  0  0  0  0  0  0  0  0
   38.0920   22.3850   36.1430 C   0  0  0  0  0  0  0  0  0  0  0  0
   39.3900   22.2830   36.3920 N   0  0  0  0  0  0  0  0  0  0  0  0
   39.4500   23.7010   28.3780 C   0  0  0  0  0  0  0  0  0  0  0  0
   39.6770   22.8840   27.1350 C   0  0  0  0  0  0  0  0  0  0  0  0
   39.9790   23.8980   26.0540 C   0  0  0  0  0  0  0  0  0  0  0  0
   39.9500   23.6670   24.7170 N   0  0  0  0  0  0  0  0  0  0  0  0
   40.2690   24.7860   24.0900 O   0  0  0  0  0  0  0  0  0  0  0  0
   40.5030   25.7310   24.9620 C   0  0  0  0  0  0  0  0  0  0  0  0
   40.3240   25.1870   26.1920 N   0  0  0  0  0  0  0  0  0  0  0  0
   40.8890   27.1320   24.6760 C   0  0  0  0  0  0  0  0  0  0  0  0
   40.4970   27.9640   25.8860 C   0  0  0  0  0  0  0  0  0  0  0  0
   40.3360   27.6670   23.3950 C   0  0  0  0  0  0  0  0  0  0  0  0
   38.7537   19.8907   30.8463 H   0  0  0  0  0  0  0  0  0  0  0  0
   39.7710   20.9458   28.5734 H   0  0  0  0  0  0  0  0  0  0  0  0
   35.8014   20.9570   35.8785 H   0  0  0  0  0  0  0  0  0  0  0  0
   34.8316   20.1802   33.7185 H   0  0  0  0  0  0  0  0  0  0  0  0
   40.9922   22.6493   37.7202 H   0  0  0  0  0  0  0  0  0  0  0  0
   39.5429   23.7188   39.4482 H   0  0  0  0  0  0  0  0  0  0  0  0
   37.0693   23.9104   38.9658 H   0  0  0  0  0  0  0  0  0  0  0  0
   38.6673   24.4507   28.1901 H   0  0  0  0  0  0  0  0  0  0  0  0
   40.3792   24.2168   28.6616 H   0  0  0  0  0  0  0  0  0  0  0  0
   40.5268   22.1990   27.2717 H   0  0  0  0  0  0  0  0  0  0  0  0
   38.8072   22.2585   26.8854 H   0  0  0  0  0  0  0  0  0  0  0  0
   41.9760   27.1815   24.5146 H   0  0  0  0  0  0  0  0  0  0  0  0
   40.7543   27.4178   26.8055 H   0  0  0  0  0  0  0  0  0  0  0  0
   41.0390   28.9210   25.8641 H   0  0  0  0  0  0  0  0  0  0  0  0
   39.4140   28.1554   25.8641 H   0  0  0  0  0  0  0  0  0  0  0  0
   39.5613   28.4164   23.6147 H   0  0  0  0  0  0  0  0  0  0  0  0
   41.1443   28.1347   22.8137 H   0  0  0  0  0  0  0  0  0  0  0  0
   39.8953   26.8437   22.8137 H   0  0  0  0  0  0  0  0  0  0  0  0
  1 10  1  0
  2  1  1  0
  3  4  1  0
  3  2  2  0
  4  5  1  0
  5  1  2  0
  6  7  2  0
  6 16  1  0
  8  7  1  0
  9 10  1  0
  9  8  2  0
 10 11  2  0
 11  6  1  0
 12 13  2  0
 14 13  1  0
 15 14  2  0
 16 17  2  0
 16 15  1  0
 17 12  1  0
 18  4  1  0
 19 18  1  0
 20 24  1  0
 20 19  1  0
 21 20  2  0
 22 21  1  0
 22 23  1  0
 23 24  2  0
 25 23  1  0
 25 26  1  0
 27 25  1  0
  2 28  1  0
  3 29  1  0
  7 30  1  0
  8 31  1  0
 12 32  1  0
 13 33  1  0
 14 34  1  0
 18 35  1  0
 18 36  1  0
 19 37  1  0
 19 38  1  0
 25 39  1  0
 26 40  1  0
 26 41  1  0
 26 42  1  0
 27 43  1  0
 27 44  1  0
 27 45  1  0
M  ISO  8  28  14  29  14  30  14  31  14  32  14  33  14  34  14  35   8
M  ISO  8  36   8  37   8  38   8  39   8  40   8  41   8  42   8  43   8
M  ISO  2  44   8  45   8
M  END
>  <minimizedAffinity>  (1) 
-4.58724308

>  <minimizedRMSD>  (1) 
0.4351165

$$$$
