
     RDKit          3D

 43 47  0  0  0  0  0  0  0  0999 V2000
   38.2000   22.0980   31.2820 C   0  0  0  0  0  0  0  0  0  0  0  0
   38.6950   21.0470   30.5000 C   0  0  0  0  0  0  0  0  0  0  0  0
   39.2280   21.5970   29.3430 C   0  0  0  0  0  0  0  0  0  0  0  0
   39.0490   22.9420   29.4470 N   0  0  0  0  0  0  0  0  0  0  0  0
   38.4440   23.2320   30.5880 N   0  0  0  0  0  0  0  0  0  0  0  0
   37.4870   21.9200   34.9110 C   0  0  0  0  0  0  0  0  0  0  0  0
   36.3290   21.1800   34.9210 C   0  0  0  0  0  0  0  0  0  0  0  0
   35.8050   20.7530   33.7150 C   0  0  0  0  0  0  0  0  0  0  0  0
   36.4340   21.0650   32.5550 N   0  0  0  0  0  0  0  0  0  0  0  0
   37.5810   21.8000   32.5650 C   0  0  0  0  0  0  0  0  0  0  0  0
   38.1030   22.2250   33.7510 N   0  0  0  0  0  0  0  0  0  0  0  0
   39.9120   22.7440   37.5570 C   0  0  0  0  0  0  0  0  0  0  0  0
   39.1070   23.3300   38.5190 C   0  0  0  0  0  0  0  0  0  0  0  0
   37.7300   23.4400   38.2500 C   0  0  0  0  0  0  0  0  0  0  0  0
   37.2610   22.9630   37.0600 N   0  0  0  0  0  0  0  0  0  0  0  0
   38.0850   22.3980   36.1500 C   0  0  0  0  0  0  0  0  0  0  0  0
   39.3840   22.2950   36.4050 N   0  0  0  0  0  0  0  0  0  0  0  0
   39.4750   23.8660   28.4310 C   0  0  0  0  0  0  0  0  0  0  0  0
   39.7300   23.0640   27.1690 C   0  0  0  0  0  0  0  0  0  0  0  0
   40.0130   24.0920   26.1060 C   0  0  0  0  0  0  0  0  0  0  0  0
   40.1770   23.9010   24.7900 N   0  0  0  0  0  0  0  0  0  0  0  0
   40.4080   25.0450   24.1840 O   0  0  0  0  0  0  0  0  0  0  0  0
   40.4040   26.0100   25.0730 C   0  0  0  0  0  0  0  0  0  0  0  0
   40.1580   25.4130   26.2640 N   0  0  0  0  0  0  0  0  0  0  0  0
   40.5910   27.4560   25.0460 C   0  0  0  0  0  0  0  0  0  0  0  0
   41.0020   28.3440   24.0840 C   0  0  0  0  0  0  0  0  0  0  0  0
   40.9860   29.5900   24.6270 C   0  0  0  0  0  0  0  0  0  0  0  0
   40.5680   29.4680   25.9160 N   0  0  0  0  0  0  0  0  0  0  0  0
   40.3380   28.1770   26.1420 N   0  0  0  0  0  0  0  0  0  0  0  0
   38.6664   19.9778   30.7568 H   0  0  0  0  0  0  0  0  0  0  0  0
   39.6999   21.0553   28.5100 H   0  0  0  0  0  0  0  0  0  0  0  0
   35.8293   20.9325   35.8692 H   0  0  0  0  0  0  0  0  0  0  0  0
   34.8784   20.1605   33.6965 H   0  0  0  0  0  0  0  0  0  0  0  0
   40.9927   22.6450   37.7368 H   0  0  0  0  0  0  0  0  0  0  0  0
   39.5308   23.6984   39.4648 H   0  0  0  0  0  0  0  0  0  0  0  0
   37.0482   23.8992   38.9809 H   0  0  0  0  0  0  0  0  0  0  0  0
   38.6892   24.6139   28.2492 H   0  0  0  0  0  0  0  0  0  0  0  0
   40.3856   24.3971   28.7452 H   0  0  0  0  0  0  0  0  0  0  0  0
   40.5947   22.3974   27.3024 H   0  0  0  0  0  0  0  0  0  0  0  0
   38.8758   22.4223   26.9070 H   0  0  0  0  0  0  0  0  0  0  0  0
   41.2934   28.0917   23.0537 H   0  0  0  0  0  0  0  0  0  0  0  0
   41.2607   30.5255   24.1177 H   0  0  0  0  0  0  0  0  0  0  0  0
   40.4509   30.2351   26.5934 H   0  0  0  0  0  0  0  0  0  0  0  0
  1 10  1  0
  2  1  1  0
  3  4  1  0
  3  2  2  0
  4  5  1  0
  5  1  2  0
  6  7  2  0
  6 16  1  0
  8  7  1  0
  9 10  1  0
  9  8  2  0
 10 11  2  0
 11  6  1  0
 12 13  2  0
 14 13  1  0
 15 14  2  0
 16 17  2  0
 16 15  1  0
 17 12  1  0
 18  4  1  0
 19 18  1  0
 20 24  1  0
 20 19  1  0
 21 20  2  0
 22 21  1  0
 22 23  1  0
 23 24  2  0
 25 23  1  0
 25 29  2  0
 26 27  2  0
 26 25  1  0
 27 28  1  0
 28 29  1  0
  2 30  1  0
  3 31  1  0
  7 32  1  0
  8 33  1  0
 12 34  1  0
 13 35  1  0
 14 36  1  0
 18 37  1  0
 18 38  1  0
 19 39  1  0
 19 40  1  0
 26 41  1  0
 27 42  1  0
 28 43  1  0
M  ISO  8  30  14  31  14  32  14  33  14  34  14  35  14  36  14  37   8
M  ISO  6  38   8  39   8  40   8  41  14  42  14  43   9
M  END
>  <minimizedAffinity>  (1) 
-4.57236481

>  <minimizedRMSD>  (1) 
0.355405807

$$$$
