
     RDKit          3D

 41 45  0  0  0  0  0  0  0  0999 V2000
   38.2200   22.1400   31.2580 C   0  0  0  0  0  0  0  0  0  0  0  0
   38.7250   21.0810   30.4780 C   0  0  0  0  0  0  0  0  0  0  0  0
   39.2570   21.6390   29.3220 C   0  0  0  0  0  0  0  0  0  0  0  0
   39.0660   22.9740   29.4290 N   0  0  0  0  0  0  0  0  0  0  0  0
   38.4550   23.2630   30.5700 N   0  0  0  0  0  0  0  0  0  0  0  0
   37.4830   21.9180   34.8940 C   0  0  0  0  0  0  0  0  0  0  0  0
   36.3320   21.1800   34.8850 C   0  0  0  0  0  0  0  0  0  0  0  0
   35.8150   20.7680   33.6810 C   0  0  0  0  0  0  0  0  0  0  0  0
   36.4400   21.0890   32.5240 N   0  0  0  0  0  0  0  0  0  0  0  0
   37.5950   21.8300   32.5470 C   0  0  0  0  0  0  0  0  0  0  0  0
   38.1090   22.2410   33.7330 N   0  0  0  0  0  0  0  0  0  0  0  0
   39.9130   22.7400   37.5470 C   0  0  0  0  0  0  0  0  0  0  0  0
   39.1040   23.3350   38.5040 C   0  0  0  0  0  0  0  0  0  0  0  0
   37.7410   23.4450   38.2240 C   0  0  0  0  0  0  0  0  0  0  0  0
   37.2710   22.9650   37.0320 N   0  0  0  0  0  0  0  0  0  0  0  0
   38.0910   22.3930   36.1280 C   0  0  0  0  0  0  0  0  0  0  0  0
   39.3820   22.2910   36.3980 N   0  0  0  0  0  0  0  0  0  0  0  0
   39.4870   23.9070   28.4170 C   0  0  0  0  0  0  0  0  0  0  0  0
   39.6530   23.1400   27.1320 C   0  0  0  0  0  0  0  0  0  0  0  0
   39.9840   24.1630   26.0890 C   0  0  0  0  0  0  0  0  0  0  0  0
   40.0750   23.9700   24.7570 N   0  0  0  0  0  0  0  0  0  0  0  0
   40.3970   25.1070   24.1720 O   0  0  0  0  0  0  0  0  0  0  0  0
   40.5240   26.0560   25.0850 C   0  0  0  0  0  0  0  0  0  0  0  0
   40.2660   25.4680   26.2690 N   0  0  0  0  0  0  0  0  0  0  0  0
   40.8680   27.4600   24.8900 C   0  0  0  0  0  0  0  0  0  0  0  0
   41.5160   28.2400   24.0060 N   0  0  0  0  0  0  0  0  0  0  0  0
   41.4640   29.4730   24.4370 O   0  0  0  0  0  0  0  0  0  0  0  0
   40.8070   29.5460   25.5760 C   0  0  0  0  0  0  0  0  0  0  0  0
   40.4200   28.2810   25.8800 N   0  0  0  0  0  0  0  0  0  0  0  0
   38.7024   20.0119   30.7360 H   0  0  0  0  0  0  0  0  0  0  0  0
   39.7362   21.1039   28.4889 H   0  0  0  0  0  0  0  0  0  0  0  0
   35.8278   20.9202   35.8275 H   0  0  0  0  0  0  0  0  0  0  0  0
   34.8891   20.1746   33.6569 H   0  0  0  0  0  0  0  0  0  0  0  0
   40.9927   22.6356   37.7298 H   0  0  0  0  0  0  0  0  0  0  0  0
   39.5222   23.7073   39.4508 H   0  0  0  0  0  0  0  0  0  0  0  0
   37.0566   23.9095   38.9491 H   0  0  0  0  0  0  0  0  0  0  0  0
   38.7263   24.6914   28.2901 H   0  0  0  0  0  0  0  0  0  0  0  0
   40.4333   24.3884   28.7048 H   0  0  0  0  0  0  0  0  0  0  0  0
   40.4695   22.4087   27.2246 H   0  0  0  0  0  0  0  0  0  0  0  0
   38.7434   22.5775   26.8746 H   0  0  0  0  0  0  0  0  0  0  0  0
   40.6105   30.4538   26.1653 H   0  0  0  0  0  0  0  0  0  0  0  0
  1 10  1  0
  2  1  1  0
  3  4  1  0
  3  2  2  0
  4  5  1  0
  5  1  2  0
  6 16  1  0
  7  6  2  0
  8  7  1  0
  9 10  1  0
  9  8  2  0
 10 11  2  0
 11  6  1  0
 12 13  2  0
 14 13  1  0
 15 14  2  0
 16 17  2  0
 16 15  1  0
 17 12  1  0
 18  4  1  0
 19 18  1  0
 20 24  1  0
 20 19  1  0
 21 20  2  0
 22 21  1  0
 22 23  1  0
 23 24  2  0
 25 23  1  0
 25 29  1  0
 26 27  1  0
 26 25  2  0
 27 28  1  0
 28 29  2  0
  2 30  1  0
  3 31  1  0
  7 32  1  0
  8 33  1  0
 12 34  1  0
 13 35  1  0
 14 36  1  0
 18 37  1  0
 18 38  1  0
 19 39  1  0
 19 40  1  0
 28 41  1  0
M  ISO  8  30  14  31  14  32  14  33  14  34  14  35  14  36  14  37   8
M  ISO  4  38   8  39   8  40   8  41  14
M  END
>  <minimizedAffinity>  (1) 
-4.55748272

>  <minimizedRMSD>  (1) 
0.414192498

$$$$
