
     RDKit          3D

 37 40  0  0  0  0  0  0  0  0999 V2000
   38.2490   22.2030   31.2070 C   0  0  0  0  0  0  0  0  0  0  0  0
   38.7830   21.1590   30.4260 C   0  0  0  0  0  0  0  0  0  0  0  0
   39.3000   21.7460   29.2840 C   0  0  0  0  0  0  0  0  0  0  0  0
   39.0810   23.0760   29.3840 N   0  0  0  0  0  0  0  0  0  0  0  0
   38.4590   23.3400   30.5250 N   0  0  0  0  0  0  0  0  0  0  0  0
   37.5330   21.9600   34.8430 C   0  0  0  0  0  0  0  0  0  0  0  0
   36.3720   21.2120   34.8310 C   0  0  0  0  0  0  0  0  0  0  0  0
   35.8440   20.7990   33.6110 C   0  0  0  0  0  0  0  0  0  0  0  0
   36.4720   21.1350   32.4610 N   0  0  0  0  0  0  0  0  0  0  0  0
   37.6240   21.8780   32.4960 C   0  0  0  0  0  0  0  0  0  0  0  0
   38.1440   22.2840   33.6810 N   0  0  0  0  0  0  0  0  0  0  0  0
   39.9410   22.6970   37.5210 C   0  0  0  0  0  0  0  0  0  0  0  0
   39.1460   23.2970   38.4730 C   0  0  0  0  0  0  0  0  0  0  0  0
   37.7830   23.4440   38.1850 C   0  0  0  0  0  0  0  0  0  0  0  0
   37.2950   22.9940   36.9880 N   0  0  0  0  0  0  0  0  0  0  0  0
   38.1170   22.4090   36.0830 C   0  0  0  0  0  0  0  0  0  0  0  0
   39.4230   22.2660   36.3530 N   0  0  0  0  0  0  0  0  0  0  0  0
   39.4770   24.0310   28.3860 C   0  0  0  0  0  0  0  0  0  0  0  0
   39.5940   23.2740   27.0750 C   0  0  0  0  0  0  0  0  0  0  0  0
   40.0120   24.3050   26.0670 C   0  0  0  0  0  0  0  0  0  0  0  0
   40.0710   24.1310   24.7260 N   0  0  0  0  0  0  0  0  0  0  0  0
   40.4850   25.2560   24.1690 O   0  0  0  0  0  0  0  0  0  0  0  0
   40.6970   26.1590   25.0980 C   0  0  0  0  0  0  0  0  0  0  0  0
   40.4040   25.5690   26.2810 N   0  0  0  0  0  0  0  0  0  0  0  0
   41.1340   27.4730   24.9770 O   0  0  0  0  0  0  0  0  0  0  0  0
   38.7881   20.0876   30.6749 H   0  0  0  0  0  0  0  0  0  0  0  0
   39.7964   21.2270   28.4508 H   0  0  0  0  0  0  0  0  0  0  0  0
   35.8710   20.9460   35.7735 H   0  0  0  0  0  0  0  0  0  0  0  0
   34.9204   20.2022   33.5822 H   0  0  0  0  0  0  0  0  0  0  0  0
   41.0156   22.5675   37.7169 H   0  0  0  0  0  0  0  0  0  0  0  0
   39.5671   23.6485   39.4265 H   0  0  0  0  0  0  0  0  0  0  0  0
   37.1101   23.9174   38.9152 H   0  0  0  0  0  0  0  0  0  0  0  0
   38.7194   24.8238   28.2990 H   0  0  0  0  0  0  0  0  0  0  0  0
   40.4320   24.5072   28.6529 H   0  0  0  0  0  0  0  0  0  0  0  0
   40.3516   22.4803   27.1531 H   0  0  0  0  0  0  0  0  0  0  0  0
   38.6503   22.7823   26.7961 H   0  0  0  0  0  0  0  0  0  0  0  0
   41.2455   28.0340   25.7851 H   0  0  0  0  0  0  0  0  0  0  0  0
  1 10  1  0
  2  1  1  0
  3  4  1  0
  3  2  2  0
  4  5  1  0
  5  1  2  0
  6 16  1  0
  7  6  2  0
  8  7  1  0
  9 10  1  0
  9  8  2  0
 10 11  2  0
 11  6  1  0
 12 13  2  0
 14 13  1  0
 15 14  2  0
 16 17  2  0
 16 15  1  0
 17 12  1  0
 18  4  1  0
 19 18  1  0
 20 24  1  0
 20 19  1  0
 21 20  2  0
 22 21  1  0
 22 23  1  0
 23 24  2  0
 25 23  1  0
  2 26  1  0
  3 27  1  0
  7 28  1  0
  8 29  1  0
 12 30  1  0
 13 31  1  0
 14 32  1  0
 18 33  1  0
 18 34  1  0
 19 35  1  0
 19 36  1  0
 25 37  1  0
M  ISO  8  26  14  27  14  28  14  29  14  30  14  31  14  32  14  33   8
M  ISO  4  34   8  35   8  36   8  37   3
M  END
>  <minimizedAffinity>  (1) 
-4.47281504

>  <minimizedRMSD>  (1) 
0.0425911061

$$$$
