
     RDKit          3D

 42 45  0  0  0  0  0  0  0  0999 V2000
   38.2350   22.1410   31.2290 C   0  0  0  0  0  0  0  0  0  0  0  0
   38.7990   21.0930   30.4760 C   0  0  0  0  0  0  0  0  0  0  0  0
   39.3270   21.6390   29.3120 C   0  0  0  0  0  0  0  0  0  0  0  0
   39.0750   22.9750   29.3880 N   0  0  0  0  0  0  0  0  0  0  0  0
   38.4370   23.2630   30.5090 N   0  0  0  0  0  0  0  0  0  0  0  0
   37.5080   21.9300   34.8560 C   0  0  0  0  0  0  0  0  0  0  0  0
   36.3430   21.2050   34.8480 C   0  0  0  0  0  0  0  0  0  0  0  0
   35.8170   20.7990   33.6430 C   0  0  0  0  0  0  0  0  0  0  0  0
   36.4480   21.1140   32.4870 N   0  0  0  0  0  0  0  0  0  0  0  0
   37.6110   21.8370   32.5020 C   0  0  0  0  0  0  0  0  0  0  0  0
   38.1300   22.2390   33.7000 N   0  0  0  0  0  0  0  0  0  0  0  0
   39.9190   22.7210   37.5200 C   0  0  0  0  0  0  0  0  0  0  0  0
   39.1270   23.3190   38.4660 C   0  0  0  0  0  0  0  0  0  0  0  0
   37.7680   23.4490   38.1850 C   0  0  0  0  0  0  0  0  0  0  0  0
   37.2920   22.9790   36.9930 N   0  0  0  0  0  0  0  0  0  0  0  0
   38.1200   22.3930   36.0890 C   0  0  0  0  0  0  0  0  0  0  0  0
   39.4140   22.2700   36.3550 N   0  0  0  0  0  0  0  0  0  0  0  0
   39.4670   23.9070   28.3650 C   0  0  0  0  0  0  0  0  0  0  0  0
   39.6090   23.1180   27.0740 C   0  0  0  0  0  0  0  0  0  0  0  0
   39.9730   24.1250   26.0270 C   0  0  0  0  0  0  0  0  0  0  0  0
   40.0250   23.9520   24.6920 N   0  0  0  0  0  0  0  0  0  0  0  0
   40.3900   25.0790   24.1070 O   0  0  0  0  0  0  0  0  0  0  0  0
   40.5840   25.9980   25.0110 C   0  0  0  0  0  0  0  0  0  0  0  0
   40.3270   25.4150   26.2160 N   0  0  0  0  0  0  0  0  0  0  0  0
   40.9990   27.4050   24.8480 C   0  0  0  0  0  0  0  0  0  0  0  0
   40.4290   27.9190   23.5340 C   0  0  0  0  0  0  0  0  0  0  0  0
   38.8182   20.0302   30.7590 H   0  0  0  0  0  0  0  0  0  0  0  0
   39.8407   21.1040   28.4997 H   0  0  0  0  0  0  0  0  0  0  0  0
   35.8368   20.9520   35.7913 H   0  0  0  0  0  0  0  0  0  0  0  0
   34.8832   20.2181   33.6188 H   0  0  0  0  0  0  0  0  0  0  0  0
   40.9951   22.6064   37.7173 H   0  0  0  0  0  0  0  0  0  0  0  0
   39.5495   23.6836   39.4139 H   0  0  0  0  0  0  0  0  0  0  0  0
   37.0898   23.9220   38.9105 H   0  0  0  0  0  0  0  0  0  0  0  0
   38.6986   24.6856   28.2491 H   0  0  0  0  0  0  0  0  0  0  0  0
   40.4133   24.4024   28.6278 H   0  0  0  0  0  0  0  0  0  0  0  0
   40.4013   22.3612   27.1713 H   0  0  0  0  0  0  0  0  0  0  0  0
   38.6828   22.5818   26.8197 H   0  0  0  0  0  0  0  0  0  0  0  0
   40.6111   28.0069   25.6831 H   0  0  0  0  0  0  0  0  0  0  0  0
   42.0965   27.4794   24.8414 H   0  0  0  0  0  0  0  0  0  0  0  0
   39.6266   28.6426   23.7405 H   0  0  0  0  0  0  0  0  0  0  0  0
   41.2257   28.4100   22.9558 H   0  0  0  0  0  0  0  0  0  0  0  0
   40.0227   27.0760   22.9558 H   0  0  0  0  0  0  0  0  0  0  0  0
  1 10  1  0
  2  1  1  0
  3  4  1  0
  3  2  2  0
  4  5  1  0
  5  1  2  0
  6 16  1  0
  7  6  2  0
  8  7  1  0
  9 10  1  0
  9  8  2  0
 10 11  2  0
 11  6  1  0
 12 13  2  0
 14 13  1  0
 15 14  2  0
 16 17  2  0
 16 15  1  0
 17 12  1  0
 18  4  1  0
 19 18  1  0
 20 24  1  0
 20 19  1  0
 21 20  2  0
 22 21  1  0
 22 23  1  0
 23 24  2  0
 25 23  1  0
 26 25  1  0
  2 27  1  0
  3 28  1  0
  7 29  1  0
  8 30  1  0
 12 31  1  0
 13 32  1  0
 14 33  1  0
 18 34  1  0
 18 35  1  0
 19 36  1  0
 19 37  1  0
 25 38  1  0
 25 39  1  0
 26 40  1  0
 26 41  1  0
 26 42  1  0
M  ISO  8  27  14  28  14  29  14  30  14  31  14  32  14  33  14  34   8
M  ISO  8  35   8  36   8  37   8  38   8  39   8  40   8  41   8  42   8
M  END
>  <minimizedAffinity>  (1) 
-4.46374512

>  <minimizedRMSD>  (1) 
0.149406478

$$$$
