
     RDKit          3D

 26 27  0  0  0  0  0  0  0  0999 V2000
   40.0950   22.2440   36.8330 C   0  0  0  0  0  0  0  0  0  0  0  0
   39.6820   23.1620   37.8180 C   0  0  0  0  0  0  0  0  0  0  0  0
   38.3620   23.6060   37.7950 C   0  0  0  0  0  0  0  0  0  0  0  0
   37.5390   23.1340   36.8250 N   0  0  0  0  0  0  0  0  0  0  0  0
   37.9720   22.2500   35.8930 C   0  0  0  0  0  0  0  0  0  0  0  0
   39.2350   21.8140   35.9000 N   0  0  0  0  0  0  0  0  0  0  0  0
   37.1430   21.7300   34.8590 N   0  0  0  0  0  0  0  0  0  0  0  0
   37.3440   21.9450   33.5330 C   0  0  0  0  0  0  0  0  0  0  0  0
   36.5030   21.4120   32.5790 C   0  0  0  0  0  0  0  0  0  0  0  0
   36.7070   21.6350   31.1380 C   0  0  0  0  0  0  0  0  0  0  0  0
   35.4130   20.6300   32.9770 C   0  0  0  0  0  0  0  0  0  0  0  0
   34.5940   20.1030   32.1950 O   0  0  0  0  0  0  0  0  0  0  0  0
   35.2970   20.4740   34.3080 N   0  0  0  0  0  0  0  0  0  0  0  0
   36.0890   20.9730   35.2760 C   0  0  0  0  0  0  0  0  0  0  0  0
   35.8570   20.7430   36.4820 O   0  0  0  0  0  0  0  0  0  0  0  0
   37.8660   24.5810   38.8150 C   0  0  0  0  0  0  0  0  0  0  0  0
   41.1320   21.8771   36.8297 H   0  0  0  0  0  0  0  0  0  0  0  0
   40.3840   23.5192   38.5859 H   0  0  0  0  0  0  0  0  0  0  0  0
   38.1984   22.5592   33.2124 H   0  0  0  0  0  0  0  0  0  0  0  0
   37.4429   22.4394   30.9920 H   0  0  0  0  0  0  0  0  0  0  0  0
   37.0779   20.7099   30.6727 H   0  0  0  0  0  0  0  0  0  0  0  0
   35.7526   21.9223   30.6727 H   0  0  0  0  0  0  0  0  0  0  0  0
   34.5027   19.9010   34.6268 H   0  0  0  0  0  0  0  0  0  0  0  0
   38.0651   24.1896   39.8236 H   0  0  0  0  0  0  0  0  0  0  0  0
   38.3846   25.5425   38.6858 H   0  0  0  0  0  0  0  0  0  0  0  0
   36.7835   24.7280   38.6858 H   0  0  0  0  0  0  0  0  0  0  0  0
  1  2  2  0
  3  2  1  0
  3 16  1  0
  4  3  2  0
  5  6  2  0
  5  4  1  0
  6  1  1  0
  7 14  1  0
  7  5  1  0
  8  7  1  0
  9 11  1  0
  9  8  2  0
 10  9  1  0
 11 13  1  0
 12 11  2  0
 13 14  1  0
 14 15  2  0
  1 17  1  0
  2 18  1  0
  8 19  1  0
 10 20  1  0
 10 21  1  0
 10 22  1  0
 13 23  1  0
 16 24  1  0
 16 25  1  0
 16 26  1  0
M  ISO  8  17  14  18  14  19  14  20   8  21   8  22   8  23   9  24   8
M  ISO  2  25   8  26   8
M  END
>  <minimizedAffinity>  (1) 
-5.31237555

>  <minimizedRMSD>  (1) 
1.53680539

$$$$
