
     RDKit          3D

 26 28  0  0  0  0  0  0  0  0999 V2000
   40.1940   22.2570   36.4430 C   0  0  0  0  0  0  0  0  0  0  0  0
   39.6400   22.8560   37.5990 C   0  0  0  0  0  0  0  0  0  0  0  0
   38.5360   23.6910   37.4370 C   0  0  0  0  0  0  0  0  0  0  0  0
   38.0570   23.8780   36.1750 N   0  0  0  0  0  0  0  0  0  0  0  0
   38.6080   23.2940   35.1030 C   0  0  0  0  0  0  0  0  0  0  0  0
   39.6710   22.4870   35.2440 N   0  0  0  0  0  0  0  0  0  0  0  0
   37.9280   23.6430   33.8900 N   0  0  0  0  0  0  0  0  0  0  0  0
   37.5360   22.8270   32.8760 C   0  0  0  0  0  0  0  0  0  0  0  0
   36.9300   23.6120   31.9370 N   0  0  0  0  0  0  0  0  0  0  0  0
   36.9540   24.8690   32.3700 C   0  0  0  0  0  0  0  0  0  0  0  0
   36.5150   26.0810   31.8860 C   0  0  0  0  0  0  0  0  0  0  0  0
   36.6720   27.2220   32.5430 N   0  0  0  0  0  0  0  0  0  0  0  0
   37.2900   27.2630   33.7560 C   0  0  0  0  0  0  0  0  0  0  0  0
   37.7300   26.0930   34.2530 N   0  0  0  0  0  0  0  0  0  0  0  0
   37.5770   24.9280   33.6010 C   0  0  0  0  0  0  0  0  0  0  0  0
   37.9080   24.3510   38.6190 C   0  0  0  0  0  0  0  0  0  0  0  0
   35.8650   26.1750   30.6500 N   0  0  0  0  0  0  0  0  0  0  0  0
   41.0667   21.5941   36.5383 H   0  0  0  0  0  0  0  0  0  0  0  0
   40.0676   22.6684   38.5950 H   0  0  0  0  0  0  0  0  0  0  0  0
   37.6800   21.7378   32.8219 H   0  0  0  0  0  0  0  0  0  0  0  0
   37.4230   28.2079   34.3032 H   0  0  0  0  0  0  0  0  0  0  0  0
   38.3199   23.9181   39.5425 H   0  0  0  0  0  0  0  0  0  0  0  0
   38.1213   25.4298   38.5929 H   0  0  0  0  0  0  0  0  0  0  0  0
   36.8199   24.1916   38.5929 H   0  0  0  0  0  0  0  0  0  0  0  0
   35.5440   27.0910   30.3053 H   0  0  0  0  0  0  0  0  0  0  0  0
   35.7076   25.3282   30.0852 H   0  0  0  0  0  0  0  0  0  0  0  0
  1  2  2  0
  3  2  1  0
  3 16  1  0
  4  3  2  0
  5  6  2  0
  5  4  1  0
  6  1  1  0
  7  5  1  0
  8  7  1  0
  9 10  1  0
  9  8  2  0
 10 15  2  0
 11 10  1  0
 11 12  2  0
 12 13  1  0
 13 14  2  0
 15  7  1  0
 15 14  1  0
 17 11  1  0
  1 18  1  0
  2 19  1  0
  8 20  1  0
 13 21  1  0
 16 22  1  0
 16 23  1  0
 16 24  1  0
 17 25  1  0
 17 26  1  0
M  ISO  7  18  14  19  14  20  14  21  14  22   8  23   8  24   8
M  END
>  <minimizedAffinity>  (1) 
-5.19960833

>  <minimizedRMSD>  (1) 
1.98910177

$$$$
