
     RDKit          3D

 20 20  0  0  1  0  0  0  0  0999 V2000
   38.8780   25.7210   34.9990 C   0  0  2  0  0  0  0  0  0  0  0  0
   39.6080   22.9080   37.2210 C   0  0  0  0  0  0  0  0  0  0  0  0
   38.7650   23.1520   38.3520 C   0  0  0  0  0  0  0  0  0  0  0  0
   37.9480   24.3050   38.3240 C   0  0  0  0  0  0  0  0  0  0  0  0
   38.0400   25.0900   37.2050 N   0  0  0  0  0  0  0  0  0  0  0  0
   38.8340   24.8350   36.1680 C   0  0  0  0  0  0  0  0  0  0  0  0
   39.6140   23.7440   36.1810 N   0  0  0  0  0  0  0  0  0  0  0  0
   38.7560   27.1510   35.4650 C   0  0  0  0  0  0  0  0  0  0  0  0
   37.7640   25.4620   34.0090 C   0  0  0  0  0  0  0  0  0  0  0  0
   37.7930   24.0820   33.7070 O   0  0  0  0  0  0  0  0  0  0  0  0
   39.8337   25.5262   34.4903 H   0  0  0  0  0  0  0  0  0  0  0  0
   40.2584   22.0210   37.2091 H   0  0  0  0  0  0  0  0  0  0  0  0
   38.7535   22.4665   39.2122 H   0  0  0  0  0  0  0  0  0  0  0  0
   37.2745   24.5584   39.1560 H   0  0  0  0  0  0  0  0  0  0  0  0
   38.7536   27.1794   36.5646 H   0  0  0  0  0  0  0  0  0  0  0  0
   39.6076   27.7344   35.0850 H   0  0  0  0  0  0  0  0  0  0  0  0
   37.8178   27.5817   35.0850 H   0  0  0  0  0  0  0  0  0  0  0  0
   36.7941   25.7314   34.4525 H   0  0  0  0  0  0  0  0  0  0  0  0
   37.8984   26.0660   33.0996 H   0  0  0  0  0  0  0  0  0  0  0  0
   37.8040   23.5602   34.5483 H   0  0  0  0  0  0  0  0  0  0  0  0
  1  8  1  0
  1  6  1  0
  2  3  2  0
  4  3  1  0
  5  4  2  0
  6  7  2  0
  6  5  1  0
  7  2  1  0
  9  1  1  0
 10  9  1  0
  1 11  1  6
  2 12  1  0
  3 13  1  0
  4 14  1  0
  8 15  1  0
  8 16  1  0
  8 17  1  0
  9 18  1  0
  9 19  1  0
 10 20  1  0
M  ISO  8  11   8  12  14  13  14  14  14  15   8  16   8  17   8  18   8
M  ISO  2  19   8  20   3
M  END
>  <minimizedAffinity>  (1) 
-3.14327598

>  <minimizedRMSD>  (1) 
0.220370665

$$$$
