
     RDKit          3D

 23 24  0  0  0  0  0  0  0  0999 V2000
   40.2310   22.2050   36.7440 C   0  0  0  0  0  0  0  0  0  0  0  0
   39.7730   23.0420   37.7630 C   0  0  0  0  0  0  0  0  0  0  0  0
   38.4380   23.4510   37.7600 C   0  0  0  0  0  0  0  0  0  0  0  0
   37.6390   23.0000   36.7410 N   0  0  0  0  0  0  0  0  0  0  0  0
   38.1050   22.1950   35.7710 C   0  0  0  0  0  0  0  0  0  0  0  0
   39.3880   21.8110   35.7860 N   0  0  0  0  0  0  0  0  0  0  0  0
   37.2290   21.7470   34.7210 N   0  0  0  0  0  0  0  0  0  0  0  0
   37.5550   22.0270   33.4350 C   0  0  0  0  0  0  0  0  0  0  0  0
   36.7060   21.5950   32.4250 C   0  0  0  0  0  0  0  0  0  0  0  0
   35.5410   20.8860   32.7220 C   0  0  0  0  0  0  0  0  0  0  0  0
   34.8080   20.5180   31.7740 O   0  0  0  0  0  0  0  0  0  0  0  0
   35.3000   20.6570   34.0090 N   0  0  0  0  0  0  0  0  0  0  0  0
   36.1150   21.0700   35.0130 C   0  0  0  0  0  0  0  0  0  0  0  0
   35.8020   20.8040   36.2220 O   0  0  0  0  0  0  0  0  0  0  0  0
   37.8920   24.3450   38.8240 C   0  0  0  0  0  0  0  0  0  0  0  0
   41.2793   21.8722   36.7302 H   0  0  0  0  0  0  0  0  0  0  0  0
   40.4555   23.3753   38.5587 H   0  0  0  0  0  0  0  0  0  0  0  0
   38.4728   22.5847   33.1970 H   0  0  0  0  0  0  0  0  0  0  0  0
   36.9549   21.8145   31.3763 H   0  0  0  0  0  0  0  0  0  0  0  0
   34.4467   20.1368   34.2586 H   0  0  0  0  0  0  0  0  0  0  0  0
   38.1431   23.9338   39.8129 H   0  0  0  0  0  0  0  0  0  0  0  0
   38.3318   25.3480   38.7215 H   0  0  0  0  0  0  0  0  0  0  0  0
   36.7988   24.4118   38.7215 H   0  0  0  0  0  0  0  0  0  0  0  0
  1  2  2  0
  3  2  1  0
  3 15  1  0
  4  3  2  0
  5  6  2  0
  5  4  1  0
  6  1  1  0
  7 13  1  0
  7  5  1  0
  8  7  1  0
  9 10  1  0
  9  8  2  0
 10 12  1  0
 11 10  2  0
 12 13  1  0
 13 14  2  0
  1 16  1  0
  2 17  1  0
  8 18  1  0
  9 19  1  0
 12 20  1  0
 15 21  1  0
 15 22  1  0
 15 23  1  0
M  ISO  8  16  14  17  14  18  14  19  14  20   9  21   8  22   8  23   8
M  END
>  <minimizedAffinity>  (1) 
-4.86379385

>  <minimizedRMSD>  (1) 
1.25480461

$$$$
