
     RDKit          3D

 23 24  0  0  0  0  0  0  0  0999 V2000
   40.2490   22.1530   36.8060 C   0  0  0  0  0  0  0  0  0  0  0  0
   39.7940   22.9830   37.8350 C   0  0  0  0  0  0  0  0  0  0  0  0
   38.4810   23.4640   37.7640 C   0  0  0  0  0  0  0  0  0  0  0  0
   37.7290   23.0890   36.6890 N   0  0  0  0  0  0  0  0  0  0  0  0
   38.1970   22.2850   35.7080 C   0  0  0  0  0  0  0  0  0  0  0  0
   39.4590   21.8290   35.7870 N   0  0  0  0  0  0  0  0  0  0  0  0
   37.3350   21.9240   34.5840 C   0  0  0  0  0  0  0  0  0  0  0  0
   36.3420   20.9870   34.7800 C   0  0  0  0  0  0  0  0  0  0  0  0
   35.4850   20.5850   33.7860 C   0  0  0  0  0  0  0  0  0  0  0  0
   35.6580   21.1740   32.5330 C   0  0  0  0  0  0  0  0  0  0  0  0
   36.6630   22.1220   32.3310 C   0  0  0  0  0  0  0  0  0  0  0  0
   37.4910   22.4860   33.3610 C   0  0  0  0  0  0  0  0  0  0  0  0
   37.9250   24.3510   38.8230 C   0  0  0  0  0  0  0  0  0  0  0  0
   41.2766   21.7620   36.8401 H   0  0  0  0  0  0  0  0  0  0  0  0
   40.4493   23.2507   38.6769 H   0  0  0  0  0  0  0  0  0  0  0  0
   36.2317   20.5411   35.7795 H   0  0  0  0  0  0  0  0  0  0  0  0
   34.7007   19.8356   33.9682 H   0  0  0  0  0  0  0  0  0  0  0  0
   34.9988   20.8898   31.6995 H   0  0  0  0  0  0  0  0  0  0  0  0
   36.7911   22.5797   31.3390 H   0  0  0  0  0  0  0  0  0  0  0  0
   38.2809   23.2333   33.1949 H   0  0  0  0  0  0  0  0  0  0  0  0
   38.1798   23.9445   39.8129 H   0  0  0  0  0  0  0  0  0  0  0  0
   38.3532   25.3589   38.7192 H   0  0  0  0  0  0  0  0  0  0  0  0
   36.8312   24.4049   38.7192 H   0  0  0  0  0  0  0  0  0  0  0  0
  1  2  2  0
  3  2  1  0
  3 13  1  0
  4  3  2  0
  5  6  2  0
  5  4  1  0
  6  1  1  0
  7  8  2  0
  7  5  1  0
  9  8  1  0
 10  9  2  0
 11 10  1  0
 11 12  2  0
 12  7  1  0
  1 14  1  0
  2 15  1  0
  8 16  1  0
  9 17  1  0
 10 18  1  0
 11 19  1  0
 12 20  1  0
 13 21  1  0
 13 22  1  0
 13 23  1  0
M  ISO  8  14  14  15  14  16  14  17  14  18  14  19  14  20  14  21   8
M  ISO  2  22   8  23   8
M  END
>  <minimizedAffinity>  (1) 
-4.29936552

>  <minimizedRMSD>  (1) 
0.996234059

$$$$
