
     RDKit          3D

 22 23  0  0  0  0  0  0  0  0999 V2000
   40.2450   22.2040   36.8970 C   0  0  0  0  0  0  0  0  0  0  0  0
   39.7710   23.0670   37.9090 C   0  0  0  0  0  0  0  0  0  0  0  0
   38.4490   23.5090   37.8480 C   0  0  0  0  0  0  0  0  0  0  0  0
   37.6830   23.0740   36.7960 N   0  0  0  0  0  0  0  0  0  0  0  0
   38.1700   22.2550   35.8550 C   0  0  0  0  0  0  0  0  0  0  0  0
   39.4330   21.8260   35.9010 N   0  0  0  0  0  0  0  0  0  0  0  0
   37.2890   21.8410   34.7710 C   0  0  0  0  0  0  0  0  0  0  0  0
   36.2570   20.9290   35.0070 C   0  0  0  0  0  0  0  0  0  0  0  0
   35.5100   20.6280   33.9080 C   0  0  0  0  0  0  0  0  0  0  0  0
   35.7000   21.1430   32.6390 C   0  0  0  0  0  0  0  0  0  0  0  0
   36.7420   22.0460   32.4640 C   0  0  0  0  0  0  0  0  0  0  0  0
   37.4850   22.3490   33.5440 N   0  0  0  0  0  0  0  0  0  0  0  0
   37.9050   24.4200   38.8940 C   0  0  0  0  0  0  0  0  0  0  0  0
   41.2831   21.8414   36.9266 H   0  0  0  0  0  0  0  0  0  0  0  0
   40.4311   23.3847   38.7296 H   0  0  0  0  0  0  0  0  0  0  0  0
   36.0638   20.4907   35.9972 H   0  0  0  0  0  0  0  0  0  0  0  0
   34.6844   19.9135   34.0419 H   0  0  0  0  0  0  0  0  0  0  0  0
   35.0516   20.8494   31.8003 H   0  0  0  0  0  0  0  0  0  0  0  0
   36.9509   22.4950   31.4818 H   0  0  0  0  0  0  0  0  0  0  0  0
   38.1444   24.0191   39.8900 H   0  0  0  0  0  0  0  0  0  0  0  0
   38.3556   25.4172   38.7821 H   0  0  0  0  0  0  0  0  0  0  0  0
   36.8134   24.4963   38.7821 H   0  0  0  0  0  0  0  0  0  0  0  0
  1  2  2  0
  3  2  1  0
  3 13  1  0
  4  3  2  0
  5  6  2  0
  5  4  1  0
  6  1  1  0
  7  8  2  0
  7  5  1  0
  9  8  1  0
 10  9  2  0
 11 10  1  0
 11 12  2  0
 12  7  1  0
  1 14  1  0
  2 15  1  0
  8 16  1  0
  9 17  1  0
 10 18  1  0
 11 19  1  0
 13 20  1  0
 13 21  1  0
 13 22  1  0
M  ISO  8  14  14  15  14  16  14  17  14  18  14  19  14  20   8  21   8
M  ISO  1  22   8
M  END
>  <minimizedAffinity>  (1) 
-4.24058437

>  <minimizedRMSD>  (1) 
1.19222438

$$$$
