
     RDKit          3D

 28 29  0  0  0  0  0  0  0  0999 V2000
   39.1470   22.7140   35.4560 C   0  0  0  0  0  0  0  0  0  0  0  0
   38.9740   22.8930   36.8330 C   0  0  0  0  0  0  0  0  0  0  0  0
   38.2780   24.0210   37.2780 C   0  0  0  0  0  0  0  0  0  0  0  0
   37.8070   24.8790   36.3310 N   0  0  0  0  0  0  0  0  0  0  0  0
   37.9920   24.6750   35.0130 C   0  0  0  0  0  0  0  0  0  0  0  0
   38.6560   23.5990   34.5860 N   0  0  0  0  0  0  0  0  0  0  0  0
   37.4890   25.5870   34.0440 N   0  0  0  0  0  0  0  0  0  0  0  0
   37.3950   25.2350   32.6380 C   0  0  0  0  0  0  0  0  0  0  0  0
   38.4970   26.0450   31.9620 C   0  0  0  0  0  0  0  0  0  0  0  0
   38.2490   27.4910   32.2560 C   0  0  0  0  0  0  0  0  0  0  0  0
   37.0680   27.7730   33.1270 C   0  0  0  0  0  0  0  0  0  0  0  0
   37.0400   26.9270   34.3820 C   0  0  0  0  0  0  0  0  0  0  0  0
   38.0490   24.2870   38.7330 C   0  0  0  0  0  0  0  0  0  0  0  0
   39.6938   21.8340   35.0865 H   0  0  0  0  0  0  0  0  0  0  0  0
   39.3768   22.1622   37.5497 H   0  0  0  0  0  0  0  0  0  0  0  0
   37.5628   24.1572   32.4958 H   0  0  0  0  0  0  0  0  0  0  0  0
   36.4014   25.4534   32.2196 H   0  0  0  0  0  0  0  0  0  0  0  0
   38.4734   25.8748   30.8755 H   0  0  0  0  0  0  0  0  0  0  0  0
   39.4841   25.7403   32.3398 H   0  0  0  0  0  0  0  0  0  0  0  0
   39.1427   27.8944   32.7545 H   0  0  0  0  0  0  0  0  0  0  0  0
   38.0322   27.9651   31.2874 H   0  0  0  0  0  0  0  0  0  0  0  0
   37.0942   28.8330   33.4199 H   0  0  0  0  0  0  0  0  0  0  0  0
   36.1664   27.5282   32.5463 H   0  0  0  0  0  0  0  0  0  0  0  0
   36.0150   26.8859   34.7791 H   0  0  0  0  0  0  0  0  0  0  0  0
   37.6993   27.3641   35.1464 H   0  0  0  0  0  0  0  0  0  0  0  0
   38.6507   23.5881   39.3326 H   0  0  0  0  0  0  0  0  0  0  0  0
   38.3447   25.3202   38.9678 H   0  0  0  0  0  0  0  0  0  0  0  0
   36.9834   24.1482   38.9678 H   0  0  0  0  0  0  0  0  0  0  0  0
  1  2  2  0
  2  3  1  0
  3 13  1  0
  4  3  2  0
  5  4  1  0
  6  5  2  0
  6  1  1  0
  7 12  1  0
  7  5  1  0
  8  7  1  0
  9 10  1  0
  9  8  1  0
 10 11  1  0
 11 12  1  0
  1 14  1  0
  2 15  1  0
  8 16  1  0
  8 17  1  0
  9 18  1  0
  9 19  1  0
 10 20  1  0
 10 21  1  0
 11 22  1  0
 11 23  1  0
 12 24  1  0
 12 25  1  0
 13 26  1  0
 13 27  1  0
 13 28  1  0
M  ISO  8  14  14  15  14  16  13  17  13  18  13  19  13  20  13  21  13
M  ISO  7  22  13  23  13  24  13  25  13  26   8  27   8  28   8
M  END
>  <minimizedAffinity>  (1) 
-3.99677229

>  <minimizedRMSD>  (1) 
3.57154632

$$$$
