
     RDKit          3D

 21 22  0  0  0  0  0  0  0  0999 V2000
   40.2500   22.1580   36.8350 C   0  0  0  0  0  0  0  0  0  0  0  0
   39.7960   23.0020   37.8640 C   0  0  0  0  0  0  0  0  0  0  0  0
   38.4780   23.4750   37.7950 C   0  0  0  0  0  0  0  0  0  0  0  0
   37.7000   23.0900   36.7270 N   0  0  0  0  0  0  0  0  0  0  0  0
   38.1880   22.2800   35.7710 C   0  0  0  0  0  0  0  0  0  0  0  0
   39.4390   21.8230   35.8240 N   0  0  0  0  0  0  0  0  0  0  0  0
   37.3110   21.9090   34.6630 C   0  0  0  0  0  0  0  0  0  0  0  0
   36.3020   20.9820   34.8300 C   0  0  0  0  0  0  0  0  0  0  0  0
   35.5270   20.6920   33.7420 C   0  0  0  0  0  0  0  0  0  0  0  0
   35.7180   21.2790   32.5300 N   0  0  0  0  0  0  0  0  0  0  0  0
   36.7110   22.1780   32.4040 C   0  0  0  0  0  0  0  0  0  0  0  0
   37.5180   22.5080   33.4550 N   0  0  0  0  0  0  0  0  0  0  0  0
   37.9130   24.3800   38.8520 C   0  0  0  0  0  0  0  0  0  0  0  0
   41.2790   21.7702   36.8610 H   0  0  0  0  0  0  0  0  0  0  0  0
   40.4554   23.2828   38.6984 H   0  0  0  0  0  0  0  0  0  0  0  0
   36.1283   20.4954   35.8011 H   0  0  0  0  0  0  0  0  0  0  0  0
   34.7174   19.9553   33.8509 H   0  0  0  0  0  0  0  0  0  0  0  0
   36.8771   22.6597   31.4291 H   0  0  0  0  0  0  0  0  0  0  0  0
   38.1616   23.9818   39.8468 H   0  0  0  0  0  0  0  0  0  0  0  0
   38.3436   25.3862   38.7417 H   0  0  0  0  0  0  0  0  0  0  0  0
   36.8199   24.4349   38.7417 H   0  0  0  0  0  0  0  0  0  0  0  0
  1  2  2  0
  3  2  1  0
  3 13  1  0
  4  3  2  0
  5  6  2  0
  5  4  1  0
  6  1  1  0
  7  8  2  0
  7  5  1  0
  9  8  1  0
 10  9  2  0
 11 10  1  0
 11 12  2  0
 12  7  1  0
  1 14  1  0
  2 15  1  0
  8 16  1  0
  9 17  1  0
 11 18  1  0
 13 19  1  0
 13 20  1  0
 13 21  1  0
M  ISO  8  14  14  15  14  16  14  17  14  18  14  19   8  20   8  21   8
M  END
>  <minimizedAffinity>  (1) 
-3.994735

>  <minimizedRMSD>  (1) 
1.08827639

$$$$
