
     RDKit          3D

 20 21  0  0  0  0  0  0  0  0999 V2000
   40.3950   22.2030   36.9700 C   0  0  0  0  0  0  0  0  0  0  0  0
   39.8410   23.0720   37.9240 C   0  0  0  0  0  0  0  0  0  0  0  0
   38.5010   23.4660   37.7640 C   0  0  0  0  0  0  0  0  0  0  0  0
   37.8090   22.9740   36.6800 N   0  0  0  0  0  0  0  0  0  0  0  0
   38.3850   22.1460   35.7980 C   0  0  0  0  0  0  0  0  0  0  0  0
   39.6570   21.7620   35.9350 N   0  0  0  0  0  0  0  0  0  0  0  0
   37.4590   21.7850   34.7760 N   0  0  0  0  0  0  0  0  0  0  0  0
   36.4590   21.0460   35.2540 N   0  0  0  0  0  0  0  0  0  0  0  0
   35.6050   20.7250   34.2600 C   0  0  0  0  0  0  0  0  0  0  0  0
   36.1060   21.2940   33.1170 C   0  0  0  0  0  0  0  0  0  0  0  0
   37.2730   21.9590   33.4540 C   0  0  0  0  0  0  0  0  0  0  0  0
   37.8560   24.3930   38.7500 C   0  0  0  0  0  0  0  0  0  0  0  0
   41.4417   21.8799   37.0698 H   0  0  0  0  0  0  0  0  0  0  0  0
   40.4391   23.4344   38.7731 H   0  0  0  0  0  0  0  0  0  0  0  0
   34.6874   20.1249   34.3488 H   0  0  0  0  0  0  0  0  0  0  0  0
   35.6608   21.2331   32.1130 H   0  0  0  0  0  0  0  0  0  0  0  0
   37.9249   22.5229   32.7706 H   0  0  0  0  0  0  0  0  0  0  0  0
   38.0878   24.0598   39.7724 H   0  0  0  0  0  0  0  0  0  0  0  0
   38.2407   25.4126   38.6005 H   0  0  0  0  0  0  0  0  0  0  0  0
   36.7662   24.3867   38.6005 H   0  0  0  0  0  0  0  0  0  0  0  0
  1  2  2  0
  3  2  1  0
  3 12  1  0
  4  3  2  0
  5  6  2  0
  5  4  1  0
  6  1  1  0
  7  8  1  0
  7  5  1  0
  9  8  2  0
 10 11  2  0
 10  9  1  0
 11  7  1  0
  1 13  1  0
  2 14  1  0
  9 15  1  0
 10 16  1  0
 11 17  1  0
 12 18  1  0
 12 19  1  0
 12 20  1  0
M  ISO  8  13  14  14  14  15  14  16  14  17  14  18   8  19   8  20   8
M  END
>  <minimizedAffinity>  (1) 
-3.9626565

>  <minimizedRMSD>  (1) 
0.726603091

$$$$
