
     RDKit          3D

 29 30  0  0  0  0  0  0  0  0999 V2000
   38.1010   25.2660   33.7840 C   0  0  0  0  0  0  0  0  0  0  0  0
   37.4160   26.1980   32.9740 C   0  0  0  0  0  0  0  0  0  0  0  0
   36.5410   25.7030   32.0070 C   0  0  0  0  0  0  0  0  0  0  0  0
   36.4000   24.3370   31.9060 N   0  0  0  0  0  0  0  0  0  0  0  0
   37.0650   23.4840   32.6930 C   0  0  0  0  0  0  0  0  0  0  0  0
   37.9120   23.9450   33.6270 N   0  0  0  0  0  0  0  0  0  0  0  0
   36.8210   22.0330   32.4780 C   0  0  0  0  0  0  0  0  0  0  0  0
   35.4620   21.8990   31.8490 C   0  0  0  0  0  0  0  0  0  0  0  0
   34.9140   20.5030   31.8870 C   0  0  0  0  0  0  0  0  0  0  0  0
   35.3400   19.6820   33.0550 C   0  0  0  0  0  0  0  0  0  0  0  0
   35.6710   20.6170   34.1970 C   0  0  0  0  0  0  0  0  0  0  0  0
   36.9360   21.3430   33.8060 C   0  0  0  0  0  0  0  0  0  0  0  0
   35.7790   26.6290   31.1100 C   0  0  0  0  0  0  0  0  0  0  0  0
   38.7989   25.6264   34.5541 H   0  0  0  0  0  0  0  0  0  0  0  0
   37.5676   27.2800   33.1015 H   0  0  0  0  0  0  0  0  0  0  0  0
   37.5522   21.5623   31.8044 H   0  0  0  0  0  0  0  0  0  0  0  0
   35.5333   22.2154   30.7979 H   0  0  0  0  0  0  0  0  0  0  0  0
   34.7747   22.5297   32.4320 H   0  0  0  0  0  0  0  0  0  0  0  0
   33.8161   20.5694   31.9010 H   0  0  0  0  0  0  0  0  0  0  0  0
   35.3143   19.9954   30.9970 H   0  0  0  0  0  0  0  0  0  0  0  0
   34.5244   19.0062   33.3520 H   0  0  0  0  0  0  0  0  0  0  0  0
   36.2208   19.0776   32.7925 H   0  0  0  0  0  0  0  0  0  0  0  0
   34.8522   21.3357   34.3489 H   0  0  0  0  0  0  0  0  0  0  0  0
   35.8057   20.0629   35.1376 H   0  0  0  0  0  0  0  0  0  0  0  0
   37.7582   20.6142   33.7539 H   0  0  0  0  0  0  0  0  0  0  0  0
   37.1245   22.1152   34.5664 H   0  0  0  0  0  0  0  0  0  0  0  0
   35.1977   27.3354   31.7209 H   0  0  0  0  0  0  0  0  0  0  0  0
   36.4833   27.1866   30.4751 H   0  0  0  0  0  0  0  0  0  0  0  0
   35.0963   26.0452   30.4751 H   0  0  0  0  0  0  0  0  0  0  0  0
  2  1  2  0
  3  2  1  0
  4  3  2  0
  4  5  1  0
  5  6  2  0
  6  1  1  0
  7  5  1  0
  7 12  1  0
  8  9  1  0
  8  7  1  0
  9 10  1  0
 10 11  1  0
 12 11  1  0
 13  3  1  0
  1 14  1  0
  2 15  1  0
  7 16  1  0
  8 17  1  0
  8 18  1  0
  9 19  1  0
  9 20  1  0
 10 21  1  0
 10 22  1  0
 11 23  1  0
 11 24  1  0
 12 25  1  0
 12 26  1  0
 13 27  1  0
 13 28  1  0
 13 29  1  0
M  ISO  8  14  14  15  14  16  13  17  13  18  13  19  13  20  13  21  13
M  ISO  8  22  13  23  13  24  13  25  13  26  13  27   8  28   8  29   8
M  END
>  <minimizedAffinity>  (1) 
-3.96054745

>  <minimizedRMSD>  (1) 
4.55876541

$$$$
