
     RDKit          3D

 20 21  0  0  0  0  0  0  0  0999 V2000
   40.2260   22.1620   36.7640 C   0  0  0  0  0  0  0  0  0  0  0  0
   39.7730   23.0040   37.7940 C   0  0  0  0  0  0  0  0  0  0  0  0
   38.4350   23.4570   37.7500 C   0  0  0  0  0  0  0  0  0  0  0  0
   37.6660   23.0420   36.6990 N   0  0  0  0  0  0  0  0  0  0  0  0
   38.1420   22.2380   35.7380 C   0  0  0  0  0  0  0  0  0  0  0  0
   39.4030   21.8020   35.7660 N   0  0  0  0  0  0  0  0  0  0  0  0
   37.2630   21.8440   34.6600 C   0  0  0  0  0  0  0  0  0  0  0  0
   36.1900   20.9530   34.6870 C   0  0  0  0  0  0  0  0  0  0  0  0
   35.5110   20.7460   33.5290 C   0  0  0  0  0  0  0  0  0  0  0  0
   35.9270   21.4340   32.3970 C   0  0  0  0  0  0  0  0  0  0  0  0
   37.3390   22.4100   33.0120 S   0  0  0  0  0  0  0  0  0  0  0  0
   37.9050   24.3530   38.8200 C   0  0  0  0  0  0  0  0  0  0  0  0
   41.2629   21.7950   36.7755 H   0  0  0  0  0  0  0  0  0  0  0  0
   40.4429   23.3029   38.6137 H   0  0  0  0  0  0  0  0  0  0  0  0
   35.9035   20.4357   35.6145 H   0  0  0  0  0  0  0  0  0  0  0  0
   34.6569   20.0539   33.4892 H   0  0  0  0  0  0  0  0  0  0  0  0
   35.5082   21.3989   31.3804 H   0  0  0  0  0  0  0  0  0  0  0  0
   38.1533   23.9333   39.8060 H   0  0  0  0  0  0  0  0  0  0  0  0
   38.3586   25.3502   38.7212 H   0  0  0  0  0  0  0  0  0  0  0  0
   36.8126   24.4357   38.7212 H   0  0  0  0  0  0  0  0  0  0  0  0
  1  2  2  0
  3  2  1  0
  3 12  1  0
  4  3  2  0
  5  6  2  0
  5  4  1  0
  6  1  1  0
  7  8  2  0
  7  5  1  0
  9  8  1  0
 10 11  1  0
 10  9  2  0
 11  7  1  0
  1 13  1  0
  2 14  1  0
  8 15  1  0
  9 16  1  0
 10 17  1  0
 12 18  1  0
 12 19  1  0
 12 20  1  0
M  ISO  8  13  14  14  14  15  14  16  14  17  14  18   8  19   8  20   8
M  END
>  <minimizedAffinity>  (1) 
-3.9021039

>  <minimizedRMSD>  (1) 
1.04798913

$$$$
