
     RDKit          3D

 20 21  0  0  0  0  0  0  0  0999 V2000
   40.4130   22.1360   36.9840 C   0  0  0  0  0  0  0  0  0  0  0  0
   39.8310   22.9420   37.9740 C   0  0  0  0  0  0  0  0  0  0  0  0
   38.5760   23.4960   37.7250 C   0  0  0  0  0  0  0  0  0  0  0  0
   37.9900   23.2180   36.5280 N   0  0  0  0  0  0  0  0  0  0  0  0
   38.5730   22.4450   35.6030 C   0  0  0  0  0  0  0  0  0  0  0  0
   39.7760   21.9130   35.8390 N   0  0  0  0  0  0  0  0  0  0  0  0
   37.7640   22.2970   34.4230 N   0  0  0  0  0  0  0  0  0  0  0  0
   37.9500   23.2840   33.5150 C   0  0  0  0  0  0  0  0  0  0  0  0
   37.1130   23.0090   32.4430 C   0  0  0  0  0  0  0  0  0  0  0  0
   36.4490   21.8690   32.7390 N   0  0  0  0  0  0  0  0  0  0  0  0
   36.8460   21.4340   33.9470 C   0  0  0  0  0  0  0  0  0  0  0  0
   37.9050   24.3600   38.7380 C   0  0  0  0  0  0  0  0  0  0  0  0
   41.4019   21.6862   37.1564 H   0  0  0  0  0  0  0  0  0  0  0  0
   40.3523   23.1323   38.9238 H   0  0  0  0  0  0  0  0  0  0  0  0
   38.6340   24.1403   33.6092 H   0  0  0  0  0  0  0  0  0  0  0  0
   37.0092   23.6061   31.5250 H   0  0  0  0  0  0  0  0  0  0  0  0
   36.4840   20.5299   34.4584 H   0  0  0  0  0  0  0  0  0  0  0  0
   38.1722   24.0160   39.7481 H   0  0  0  0  0  0  0  0  0  0  0  0
   38.2332   25.4016   38.6067 H   0  0  0  0  0  0  0  0  0  0  0  0
   36.8145   24.2998   38.6067 H   0  0  0  0  0  0  0  0  0  0  0  0
  1  2  2  0
  3  2  1  0
  3 12  1  0
  4  3  2  0
  5  6  2  0
  5  4  1  0
  6  1  1  0
  7  5  1  0
  8  7  1  0
  9 10  1  0
  9  8  2  0
 10 11  2  0
 11  7  1  0
  1 13  1  0
  2 14  1  0
  8 15  1  0
  9 16  1  0
 11 17  1  0
 12 18  1  0
 12 19  1  0
 12 20  1  0
M  ISO  8  13  14  14  14  15  14  16  14  17  14  18   8  19   8  20   8
M  END
>  <minimizedAffinity>  (1) 
-3.8656404

>  <minimizedRMSD>  (1) 
0.467248946

$$$$
