
     RDKit          3D

 22 22  0  0  0  0  0  0  0  0999 V2000
   40.2900   22.1170   36.7910 C   0  0  0  0  0  0  0  0  0  0  0  0
   39.7980   22.9340   37.8140 C   0  0  0  0  0  0  0  0  0  0  0  0
   38.4990   23.4570   37.6880 C   0  0  0  0  0  0  0  0  0  0  0  0
   37.7970   23.1270   36.5570 N   0  0  0  0  0  0  0  0  0  0  0  0
   38.3040   22.3420   35.6010 C   0  0  0  0  0  0  0  0  0  0  0  0
   39.5530   21.8380   35.7200 N   0  0  0  0  0  0  0  0  0  0  0  0
   37.9120   24.3370   38.7460 C   0  0  0  0  0  0  0  0  0  0  0  0
   37.5120   22.0020   34.3800 C   0  0  0  0  0  0  0  0  0  0  0  0
   36.3480   21.1070   34.7310 C   0  0  0  0  0  0  0  0  0  0  0  0
   38.3460   21.4560   33.2630 C   0  0  0  0  0  0  0  0  0  0  0  0
   41.3038   21.6982   36.8738 H   0  0  0  0  0  0  0  0  0  0  0  0
   40.4132   23.1622   38.6969 H   0  0  0  0  0  0  0  0  0  0  0  0
   38.1751   23.9426   39.7386 H   0  0  0  0  0  0  0  0  0  0  0  0
   38.3118   25.3561   38.6387 H   0  0  0  0  0  0  0  0  0  0  0  0
   36.8175   24.3593   38.6387 H   0  0  0  0  0  0  0  0  0  0  0  0
   37.1038   22.9452   33.9880 H   0  0  0  0  0  0  0  0  0  0  0  0
   36.2564   21.0366   35.8249 H   0  0  0  0  0  0  0  0  0  0  0  0
   35.4223   21.5281   34.3119 H   0  0  0  0  0  0  0  0  0  0  0  0
   36.5172   20.1041   34.3119 H   0  0  0  0  0  0  0  0  0  0  0  0
   39.1976   20.8985   33.6800 H   0  0  0  0  0  0  0  0  0  0  0  0
   37.7346   20.7828   32.6442 H   0  0  0  0  0  0  0  0  0  0  0  0
   38.7185   22.2856   32.6442 H   0  0  0  0  0  0  0  0  0  0  0  0
  1  2  2  0
  3  2  1  0
  3  7  1  0
  4  3  2  0
  5  6  2  0
  5  4  1  0
  6  1  1  0
  8  9  1  0
  8  5  1  0
 10  8  1  0
  1 11  1  0
  2 12  1  0
  7 13  1  0
  7 14  1  0
  7 15  1  0
  8 16  1  0
  9 17  1  0
  9 18  1  0
  9 19  1  0
 10 20  1  0
 10 21  1  0
 10 22  1  0
M  ISO  8  11  14  12  14  13   8  14   8  15   8  16   8  17   8  18   8
M  ISO  4  19   8  20   8  21   8  22   8
M  END
>  <minimizedAffinity>  (1) 
-3.20047069

>  <minimizedRMSD>  (1) 
0.681597173

$$$$
