
     RDKit          3D

 16 16  0  0  0  0  0  0  0  0999 V2000
   40.4000   22.1570   37.0090 C   0  0  0  0  0  0  0  0  0  0  0  0
   39.8410   22.9740   38.0010 C   0  0  0  0  0  0  0  0  0  0  0  0
   38.5640   23.4970   37.8060 C   0  0  0  0  0  0  0  0  0  0  0  0
   37.9260   23.1790   36.6490 N   0  0  0  0  0  0  0  0  0  0  0  0
   38.4900   22.3890   35.7110 C   0  0  0  0  0  0  0  0  0  0  0  0
   39.7110   21.8820   35.8850 N   0  0  0  0  0  0  0  0  0  0  0  0
   37.9130   24.3760   38.8250 C   0  0  0  0  0  0  0  0  0  0  0  0
   37.7390   22.0940   34.4960 C   0  0  0  0  0  0  0  0  0  0  0  0
   38.0590   22.5260   33.3580 O   0  0  0  0  0  0  0  0  0  0  0  0
   36.6020   21.3020   34.5270 O   0  0  0  0  0  0  0  0  0  0  0  0
   41.4073   21.7379   37.1492 H   0  0  0  0  0  0  0  0  0  0  0  0
   40.4019   23.1992   38.9201 H   0  0  0  0  0  0  0  0  0  0  0  0
   38.1741   24.0235   39.8338 H   0  0  0  0  0  0  0  0  0  0  0  0
   38.2647   25.4102   38.6955 H   0  0  0  0  0  0  0  0  0  0  0  0
   36.8212   24.3411   38.6955 H   0  0  0  0  0  0  0  0  0  0  0  0
   36.1068   21.1140   33.6906 H   0  0  0  0  0  0  0  0  0  0  0  0
  1  2  2  0
  3  2  1  0
  3  7  1  0
  4  3  2  0
  5  6  2  0
  5  4  1  0
  6  1  1  0
  8 10  1  0
  8  5  1  0
  9  8  2  0
  1 11  1  0
  2 12  1  0
  7 13  1  0
  7 14  1  0
  7 15  1  0
 10 16  1  0
M  ISO  6  11  14  12  14  13   8  14   8  15   8  16   3
M  END
>  <minimizedAffinity>  (1) 
-3.19616485

>  <minimizedRMSD>  (1) 
0.484694541

$$$$
