
     RDKit          3D

 15 15  0  0  0  0  0  0  0  0999 V2000
   40.4140   22.1410   36.9880 C   0  0  0  0  0  0  0  0  0  0  0  0
   39.8530   22.9730   37.9830 C   0  0  0  0  0  0  0  0  0  0  0  0
   38.5660   23.4670   37.7760 C   0  0  0  0  0  0  0  0  0  0  0  0
   37.9220   23.1200   36.6270 N   0  0  0  0  0  0  0  0  0  0  0  0
   38.4840   22.3220   35.6930 C   0  0  0  0  0  0  0  0  0  0  0  0
   39.7220   21.8430   35.8840 N   0  0  0  0  0  0  0  0  0  0  0  0
   37.7510   22.0000   34.5130 N   0  0  0  0  0  0  0  0  0  0  0  0
   37.9020   24.3610   38.7900 C   0  0  0  0  0  0  0  0  0  0  0  0
   41.4276   21.7356   37.1231 H   0  0  0  0  0  0  0  0  0  0  0  0
   40.4156   23.2236   38.8944 H   0  0  0  0  0  0  0  0  0  0  0  0
   36.8010   22.3745   34.3786 H   0  0  0  0  0  0  0  0  0  0  0  0
   38.1716   21.3929   33.7951 H   0  0  0  0  0  0  0  0  0  0  0  0
   38.1567   24.0181   39.8037 H   0  0  0  0  0  0  0  0  0  0  0  0
   38.2532   25.3944   38.6535 H   0  0  0  0  0  0  0  0  0  0  0  0
   36.8112   24.3234   38.6535 H   0  0  0  0  0  0  0  0  0  0  0  0
  1  2  2  0
  3  2  1  0
  3  8  1  0
  4  3  2  0
  5  6  2  0
  5  4  1  0
  6  1  1  0
  7  5  1  0
  1  9  1  0
  2 10  1  0
  7 11  1  0
  7 12  1  0
  8 13  1  0
  8 14  1  0
  8 15  1  0
M  ISO  5   9  14  10  14  13   8  14   8  15   8
M  END
>  <minimizedAffinity>  (1) 
-2.95463538

>  <minimizedRMSD>  (1) 
0.340910107

$$$$
