
     RDKit          3D

 14 14  0  0  0  0  0  0  0  0999 V2000
   40.6000   22.1530   37.2470 C   0  0  0  0  0  0  0  0  0  0  0  0
   39.9090   22.9910   38.1310 C   0  0  0  0  0  0  0  0  0  0  0  0
   38.6410   23.4620   37.7680 C   0  0  0  0  0  0  0  0  0  0  0  0
   38.1480   23.0710   36.5580 N   0  0  0  0  0  0  0  0  0  0  0  0
   38.8380   22.2620   35.7260 C   0  0  0  0  0  0  0  0  0  0  0  0
   40.0520   21.8130   36.0800 N   0  0  0  0  0  0  0  0  0  0  0  0
   37.8520   24.3560   38.6620 C   0  0  0  0  0  0  0  0  0  0  0  0
   38.3140   21.8740   34.4930 O   0  0  0  0  0  0  0  0  0  0  0  0
   41.5971   21.7744   37.5160 H   0  0  0  0  0  0  0  0  0  0  0  0
   40.3552   23.2749   39.0955 H   0  0  0  0  0  0  0  0  0  0  0  0
   38.0695   24.1095   39.7117 H   0  0  0  0  0  0  0  0  0  0  0  0
   38.1254   25.4035   38.4671 H   0  0  0  0  0  0  0  0  0  0  0  0
   36.7786   24.2149   38.4671 H   0  0  0  0  0  0  0  0  0  0  0  0
   37.4201   22.1938   34.2123 H   0  0  0  0  0  0  0  0  0  0  0  0
  1  2  2  0
  3  2  1  0
  3  7  1  0
  4  3  2  0
  5  6  2  0
  5  4  1  0
  6  1  1  0
  8  5  1  0
  1  9  1  0
  2 10  1  0
  7 11  1  0
  7 12  1  0
  7 13  1  0
  8 14  1  0
M  ISO  6   9  14  10  14  11   8  12   8  13   8  14   3
M  END
>  <minimizedAffinity>  (1) 
-2.95036626

>  <minimizedRMSD>  (1) 
0.0384693891

$$$$
