
     RDKit          3D

 20 21  0  0  0  0  0  0  0  0999 V2000
   40.2250   22.2360   36.9430 C   0  0  0  0  0  0  0  0  0  0  0  0
   39.7520   23.1280   37.9110 C   0  0  0  0  0  0  0  0  0  0  0  0
   38.4320   23.5770   37.8280 C   0  0  0  0  0  0  0  0  0  0  0  0
   37.6670   23.1170   36.7980 N   0  0  0  0  0  0  0  0  0  0  0  0
   38.1570   22.2520   35.8780 C   0  0  0  0  0  0  0  0  0  0  0  0
   39.4170   21.8200   35.9510 N   0  0  0  0  0  0  0  0  0  0  0  0
   37.3000   21.7860   34.7920 C   0  0  0  0  0  0  0  0  0  0  0  0
   36.2170   20.9690   35.1220 C   0  0  0  0  0  0  0  0  0  0  0  0
   35.5620   20.6600   33.9340 C   0  0  0  0  0  0  0  0  0  0  0  0
   36.2990   21.3180   32.9410 C   0  0  0  0  0  0  0  0  0  0  0  0
   37.2950   21.9540   33.5040 O   0  0  0  0  0  0  0  0  0  0  0  0
   37.8950   24.5290   38.8440 C   0  0  0  0  0  0  0  0  0  0  0  0
   41.2622   21.8730   36.9930 H   0  0  0  0  0  0  0  0  0  0  0  0
   40.4088   23.4703   38.7243 H   0  0  0  0  0  0  0  0  0  0  0  0
   35.9349   20.6330   36.1307 H   0  0  0  0  0  0  0  0  0  0  0  0
   34.6647   20.0373   33.8035 H   0  0  0  0  0  0  0  0  0  0  0  0
   36.0770   21.3027   31.8637 H   0  0  0  0  0  0  0  0  0  0  0  0
   38.1100   24.1479   39.8532 H   0  0  0  0  0  0  0  0  0  0  0  0
   38.3719   25.5117   38.7138 H   0  0  0  0  0  0  0  0  0  0  0  0
   36.8073   24.6291   38.7138 H   0  0  0  0  0  0  0  0  0  0  0  0
  1  2  2  0
  3  2  1  0
  3 12  1  0
  4  3  2  0
  5  6  2  0
  5  4  1  0
  6  1  1  0
  7  8  2  0
  7  5  1  0
  9  8  1  0
 10 11  1  0
 10  9  2  0
 11  7  1  0
  1 13  1  0
  2 14  1  0
  8 15  1  0
  9 16  1  0
 10 17  1  0
 12 18  1  0
 12 19  1  0
 12 20  1  0
M  ISO  8  13  14  14  14  15  14  16  14  17  14  18   8  19   8  20   8
M  END
>  <minimizedAffinity>  (1) 
-3.94424701

>  <minimizedRMSD>  (1) 
1.02652144

$$$$
