
     RDKit          3D

 30 32  0  0  0  0  0  0  0  0999 V2000
   40.8510   23.1630   34.8530 C   0  0  0  0  0  0  0  0  0  0  0  0
   40.7330   24.5290   35.0810 C   0  0  0  0  0  0  0  0  0  0  0  0
   39.4580   25.0600   35.2680 C   0  0  0  0  0  0  0  0  0  0  0  0
   38.3930   24.2090   35.2170 N   0  0  0  0  0  0  0  0  0  0  0  0
   38.5540   22.8800   34.9910 C   0  0  0  0  0  0  0  0  0  0  0  0
   39.7710   22.3620   34.8110 N   0  0  0  0  0  0  0  0  0  0  0  0
   37.3940   22.0030   34.9450 C   0  0  0  0  0  0  0  0  0  0  0  0
   36.7700   21.7040   36.1670 C   0  0  0  0  0  0  0  0  0  0  0  0
   35.6990   20.8600   35.8810 C   0  0  0  0  0  0  0  0  0  0  0  0
   35.7400   20.6990   34.4930 C   0  0  0  0  0  0  0  0  0  0  0  0
   36.7460   21.3890   34.0170 O   0  0  0  0  0  0  0  0  0  0  0  0
   39.2770   26.5250   35.5160 C   0  0  0  0  0  0  0  0  0  0  0  0
   38.3670   27.0990   34.4910 C   0  0  0  0  0  0  0  0  0  0  0  0
   37.1270   27.6390   34.7580 C   0  0  0  0  0  0  0  0  0  0  0  0
   36.3830   28.1410   33.7010 C   0  0  0  0  0  0  0  0  0  0  0  0
   36.9180   28.0790   32.4180 C   0  0  0  0  0  0  0  0  0  0  0  0
   38.1700   27.5370   32.1360 C   0  0  0  0  0  0  0  0  0  0  0  0
   38.8870   27.0460   33.2040 C   0  0  0  0  0  0  0  0  0  0  0  0
   41.8498   22.7271   34.7036 H   0  0  0  0  0  0  0  0  0  0  0  0
   41.6231   25.1745   35.1130 H   0  0  0  0  0  0  0  0  0  0  0  0
   37.0698   22.0671   37.1611 H   0  0  0  0  0  0  0  0  0  0  0  0
   34.9818   20.4191   36.5889 H   0  0  0  0  0  0  0  0  0  0  0  0
   35.0416   20.0921   33.8981 H   0  0  0  0  0  0  0  0  0  0  0  0
   38.8429   26.6755   36.5155 H   0  0  0  0  0  0  0  0  0  0  0  0
   40.2539   27.0273   35.4574 H   0  0  0  0  0  0  0  0  0  0  0  0
   36.7367   27.6709   35.7859 H   0  0  0  0  0  0  0  0  0  0  0  0
   35.3891   28.5797   33.8734 H   0  0  0  0  0  0  0  0  0  0  0  0
   36.3221   28.4782   31.5840 H   0  0  0  0  0  0  0  0  0  0  0  0
   38.5663   27.5030   31.1104 H   0  0  0  0  0  0  0  0  0  0  0  0
   39.8817   26.6073   33.0364 H   0  0  0  0  0  0  0  0  0  0  0  0
  1  2  2  0
  2  3  1  0
  3 12  1  0
  4  3  2  0
  5  4  1  0
  6  1  1  0
  6  5  2  0
  7  5  1  0
  7  8  2  0
  9  8  1  0
 10  9  2  0
 11 10  1  0
 11  7  1  0
 13 14  2  0
 13 12  1  0
 15 14  1  0
 16 15  2  0
 17 16  1  0
 17 18  2  0
 18 13  1  0
  1 19  1  0
  2 20  1  0
  8 21  1  0
  9 22  1  0
 10 23  1  0
 12 24  1  0
 12 25  1  0
 14 26  1  0
 15 27  1  0
 16 28  1  0
 17 29  1  0
 18 30  1  0
M  ISO  8  19  14  20  14  21  14  22  14  23  14  24   8  25   8  26  14
M  ISO  4  27  14  28  14  29  14  30  14
M  END
>  <minimizedAffinity>  (1) 
-4.73134422

>  <minimizedRMSD>  (1) 
3.26767945

$$$$
