
     RDKit          3D

 29 31  0  0  0  0  0  0  0  0999 V2000
   40.8580   23.1620   34.8370 C   0  0  0  0  0  0  0  0  0  0  0  0
   40.7130   24.5380   35.0670 C   0  0  0  0  0  0  0  0  0  0  0  0
   39.4360   25.0760   35.2600 C   0  0  0  0  0  0  0  0  0  0  0  0
   38.3960   24.2100   35.2090 N   0  0  0  0  0  0  0  0  0  0  0  0
   38.5480   22.8900   34.9880 C   0  0  0  0  0  0  0  0  0  0  0  0
   39.7690   22.3740   34.8040 N   0  0  0  0  0  0  0  0  0  0  0  0
   37.3910   22.0070   34.9450 C   0  0  0  0  0  0  0  0  0  0  0  0
   36.7700   21.7050   36.1670 C   0  0  0  0  0  0  0  0  0  0  0  0
   35.7020   20.8560   35.8770 C   0  0  0  0  0  0  0  0  0  0  0  0
   35.7450   20.6970   34.4850 C   0  0  0  0  0  0  0  0  0  0  0  0
   36.7460   21.3900   34.0150 O   0  0  0  0  0  0  0  0  0  0  0  0
   39.2610   26.5270   35.5050 C   0  0  0  0  0  0  0  0  0  0  0  0
   38.3470   27.1010   34.5170 C   0  0  0  0  0  0  0  0  0  0  0  0
   37.1060   27.6570   34.7510 C   0  0  0  0  0  0  0  0  0  0  0  0
   36.4080   28.1410   33.6800 C   0  0  0  0  0  0  0  0  0  0  0  0
   36.9170   28.0800   32.4020 C   0  0  0  0  0  0  0  0  0  0  0  0
   38.1640   27.5190   32.1820 C   0  0  0  0  0  0  0  0  0  0  0  0
   38.8200   27.0550   33.2530 N   0  0  0  0  0  0  0  0  0  0  0  0
   41.8579   22.7296   34.6843 H   0  0  0  0  0  0  0  0  0  0  0  0
   41.5982   25.1904   35.0955 H   0  0  0  0  0  0  0  0  0  0  0  0
   37.0681   22.0679   37.1617 H   0  0  0  0  0  0  0  0  0  0  0  0
   34.9858   20.4106   36.5831 H   0  0  0  0  0  0  0  0  0  0  0  0
   35.0500   20.0887   33.8876 H   0  0  0  0  0  0  0  0  0  0  0  0
   38.8473   26.6777   36.5130 H   0  0  0  0  0  0  0  0  0  0  0  0
   40.2382   27.0250   35.4210 H   0  0  0  0  0  0  0  0  0  0  0  0
   36.6910   27.7092   35.7684 H   0  0  0  0  0  0  0  0  0  0  0  0
   35.4169   28.5895   33.8428 H   0  0  0  0  0  0  0  0  0  0  0  0
   36.3342   28.4761   31.5573 H   0  0  0  0  0  0  0  0  0  0  0  0
   38.5962   27.4574   31.1724 H   0  0  0  0  0  0  0  0  0  0  0  0
  1  2  2  0
  2  3  1  0
  3 12  1  0
  4  3  2  0
  5  4  1  0
  6  1  1  0
  6  5  2  0
  7  5  1  0
  7  8  2  0
  9  8  1  0
 10  9  2  0
 11 10  1  0
 11  7  1  0
 13 14  2  0
 13 12  1  0
 15 14  1  0
 16 15  2  0
 17 16  1  0
 17 18  2  0
 18 13  1  0
  1 19  1  0
  2 20  1  0
  8 21  1  0
  9 22  1  0
 10 23  1  0
 12 24  1  0
 12 25  1  0
 14 26  1  0
 15 27  1  0
 16 28  1  0
 17 29  1  0
M  ISO  8  19  14  20  14  21  14  22  14  23  14  24   8  25   8  26  14
M  ISO  3  27  14  28  14  29  14
M  END
>  <minimizedAffinity>  (1) 
-4.47631025

>  <minimizedRMSD>  (1) 
3.23377562

$$$$
