
     RDKit          3D

 31 33  0  0  0  0  0  0  0  0999 V2000
   38.1910   23.8270   38.0930 C   0  0  0  0  0  0  0  0  0  0  0  0
   38.0210   24.7690   37.0600 C   0  0  0  0  0  0  0  0  0  0  0  0
   38.9110   24.7710   35.9760 C   0  0  0  0  0  0  0  0  0  0  0  0
   39.9120   23.8460   35.9830 N   0  0  0  0  0  0  0  0  0  0  0  0
   40.0470   22.9480   37.0010 C   0  0  0  0  0  0  0  0  0  0  0  0
   39.2020   22.9520   38.0210 N   0  0  0  0  0  0  0  0  0  0  0  0
   41.1310   21.9830   36.9620 C   0  0  0  0  0  0  0  0  0  0  0  0
   41.8650   21.8500   35.7950 C   0  0  0  0  0  0  0  0  0  0  0  0
   42.8290   20.8800   36.0060 C   0  0  0  0  0  0  0  0  0  0  0  0
   42.6270   20.4640   37.3230 C   0  0  0  0  0  0  0  0  0  0  0  0
   41.6190   21.1430   37.8360 O   0  0  0  0  0  0  0  0  0  0  0  0
   38.7570   25.7500   34.8750 C   0  0  0  0  0  0  0  0  0  0  0  0
   37.4340   25.7900   34.3300 N   0  0  0  0  0  0  0  0  0  0  0  0
   37.3140   25.0150   33.1480 C   0  0  0  0  0  0  0  0  0  0  0  0
   36.7240   25.6680   31.9580 C   0  0  0  0  0  0  0  0  0  0  0  0
   36.5390   27.0210   32.0080 O   0  0  0  0  0  0  0  0  0  0  0  0
   37.3400   27.6910   32.9060 C   0  0  0  0  0  0  0  0  0  0  0  0
   36.9640   27.1330   34.2770 C   0  0  0  0  0  0  0  0  0  0  0  0
   37.5009   23.8102   38.9495 H   0  0  0  0  0  0  0  0  0  0  0  0
   37.1974   25.4969   37.1029 H   0  0  0  0  0  0  0  0  0  0  0  0
   41.7091   22.4157   34.8646 H   0  0  0  0  0  0  0  0  0  0  0  0
   43.5857   20.5176   35.2946 H   0  0  0  0  0  0  0  0  0  0  0  0
   43.2130   19.6951   37.8477 H   0  0  0  0  0  0  0  0  0  0  0  0
   39.0056   26.7499   35.2603 H   0  0  0  0  0  0  0  0  0  0  0  0
   39.4322   25.4364   34.0652 H   0  0  0  0  0  0  0  0  0  0  0  0
   37.6472   23.9671   33.1170 H   0  0  0  0  0  0  0  0  0  0  0  0
   36.4450   25.0862   31.0671 H   0  0  0  0  0  0  0  0  0  0  0  0
   38.4020   27.5013   32.6910 H   0  0  0  0  0  0  0  0  0  0  0  0
   37.1937   28.7799   32.8526 H   0  0  0  0  0  0  0  0  0  0  0  0
   37.4390   27.7298   35.0696 H   0  0  0  0  0  0  0  0  0  0  0  0
   35.8751   27.1712   34.4281 H   0  0  0  0  0  0  0  0  0  0  0  0
  2  1  2  0
  3  4  2  0
  3  2  1  0
  4  5  1  0
  5  6  2  0
  6  1  1  0
  7  5  1  0
  7 11  1  0
  8  9  1  0
  8  7  2  0
  9 10  2  0
 10 11  1  0
 12  3  1  0
 13 12  1  0
 14 13  1  0
 15 16  1  0
 15 14  2  0
 16 17  1  0
 17 18  1  0
 18 13  1  0
  1 19  1  0
  2 20  1  0
  8 21  1  0
  9 22  1  0
 10 23  1  0
 12 24  1  0
 12 25  1  0
 14 26  1  0
 15 27  1  0
 17 28  1  0
 17 29  1  0
 18 30  1  0
 18 31  1  0
M  ISO  8  19  14  20  14  21  14  22  14  23  14  24   8  25   8  26  13
M  ISO  5  27  13  28  13  29  13  30  13  31  13
M  END
>  <minimizedAffinity>  (1) 
-4.40346527

>  <minimizedRMSD>  (1) 
6.13758564

$$$$
