
     RDKit          3D

 28 30  0  0  0  0  0  0  0  0999 V2000
   39.4970   22.6370   36.6990 C   0  0  0  0  0  0  0  0  0  0  0  0
   39.3590   24.0230   36.7590 C   0  0  0  0  0  0  0  0  0  0  0  0
   38.4630   24.6520   35.8880 C   0  0  0  0  0  0  0  0  0  0  0  0
   37.7750   23.8550   35.0250 N   0  0  0  0  0  0  0  0  0  0  0  0
   37.9290   22.5190   34.9920 C   0  0  0  0  0  0  0  0  0  0  0  0
   38.7840   21.9050   35.8210 N   0  0  0  0  0  0  0  0  0  0  0  0
   37.1670   21.7130   34.0480 C   0  0  0  0  0  0  0  0  0  0  0  0
   36.1000   20.9600   34.5600 C   0  0  0  0  0  0  0  0  0  0  0  0
   35.5210   20.2770   33.5000 C   0  0  0  0  0  0  0  0  0  0  0  0
   36.2820   20.6610   32.3900 C   0  0  0  0  0  0  0  0  0  0  0  0
   37.2090   21.4880   32.7790 O   0  0  0  0  0  0  0  0  0  0  0  0
   38.2940   26.1260   35.9260 C   0  0  0  0  0  0  0  0  0  0  0  0
   38.0910   26.7010   34.5820 C   0  0  0  0  0  0  0  0  0  0  0  0
   39.2050   26.7330   33.7560 C   0  0  0  0  0  0  0  0  0  0  0  0
   39.1070   27.2570   32.4770 C   0  0  0  0  0  0  0  0  0  0  0  0
   37.9110   27.7420   32.0310 N   0  0  0  0  0  0  0  0  0  0  0  0
   36.8400   27.6920   32.8720 C   0  0  0  0  0  0  0  0  0  0  0  0
   36.9230   27.1890   34.1120 N   0  0  0  0  0  0  0  0  0  0  0  0
   40.1992   22.1331   37.3794 H   0  0  0  0  0  0  0  0  0  0  0  0
   39.9451   24.6124   37.4795 H   0  0  0  0  0  0  0  0  0  0  0  0
   35.7801   20.9185   35.6116 H   0  0  0  0  0  0  0  0  0  0  0  0
   34.6613   19.5912   33.5261 H   0  0  0  0  0  0  0  0  0  0  0  0
   36.1227   20.3194   31.3566 H   0  0  0  0  0  0  0  0  0  0  0  0
   37.4199   26.3660   36.5492 H   0  0  0  0  0  0  0  0  0  0  0  0
   39.2152   26.5599   36.3422 H   0  0  0  0  0  0  0  0  0  0  0  0
   40.1677   26.3418   34.1169 H   0  0  0  0  0  0  0  0  0  0  0  0
   39.9907   27.2822   31.8224 H   0  0  0  0  0  0  0  0  0  0  0  0
   35.8719   28.0785   32.5207 H   0  0  0  0  0  0  0  0  0  0  0  0
  1  2  2  0
  3 12  1  0
  3  2  1  0
  4  3  2  0
  5  4  1  0
  5  6  2  0
  6  1  1  0
  7  8  2  0
  7  5  1  0
  9  8  1  0
 10 11  1  0
 10  9  2  0
 11  7  1  0
 13 12  1  0
 14 13  2  0
 15 14  1  0
 16 15  2  0
 16 17  1  0
 17 18  2  0
 18 13  1  0
  1 19  1  0
  2 20  1  0
  8 21  1  0
  9 22  1  0
 10 23  1  0
 12 24  1  0
 12 25  1  0
 14 26  1  0
 15 27  1  0
 17 28  1  0
M  ISO  8  19  14  20  14  21  14  22  14  23  14  24   8  25   8  26  14
M  ISO  2  27  14  28  14
M  END
>  <minimizedAffinity>  (1) 
-4.21270037

>  <minimizedRMSD>  (1) 
3.07479072

$$$$
