
     RDKit          3D

 28 30  0  0  0  0  0  0  0  0999 V2000
   39.5010   22.6350   36.6650 C   0  0  0  0  0  0  0  0  0  0  0  0
   39.3430   24.0140   36.7230 C   0  0  0  0  0  0  0  0  0  0  0  0
   38.4270   24.6280   35.8660 C   0  0  0  0  0  0  0  0  0  0  0  0
   37.7280   23.8280   35.0070 N   0  0  0  0  0  0  0  0  0  0  0  0
   37.9070   22.4840   34.9770 C   0  0  0  0  0  0  0  0  0  0  0  0
   38.7800   21.9160   35.7970 N   0  0  0  0  0  0  0  0  0  0  0  0
   37.1360   21.6710   34.0420 C   0  0  0  0  0  0  0  0  0  0  0  0
   36.0720   20.9330   34.5450 C   0  0  0  0  0  0  0  0  0  0  0  0
   35.5180   20.2600   33.4520 C   0  0  0  0  0  0  0  0  0  0  0  0
   36.2840   20.6350   32.3550 C   0  0  0  0  0  0  0  0  0  0  0  0
   37.2230   21.4670   32.7530 O   0  0  0  0  0  0  0  0  0  0  0  0
   38.2370   26.1060   35.9050 C   0  0  0  0  0  0  0  0  0  0  0  0
   38.1920   26.6650   34.5340 C   0  0  0  0  0  0  0  0  0  0  0  0
   39.2490   26.7070   33.6420 C   0  0  0  0  0  0  0  0  0  0  0  0
   39.0110   27.2700   32.4050 C   0  0  0  0  0  0  0  0  0  0  0  0
   37.8330   27.7690   32.0220 N   0  0  0  0  0  0  0  0  0  0  0  0
   36.8100   27.7130   32.9230 C   0  0  0  0  0  0  0  0  0  0  0  0
   37.0040   27.1690   34.1460 N   0  0  0  0  0  0  0  0  0  0  0  0
   40.2183   22.1346   37.3322 H   0  0  0  0  0  0  0  0  0  0  0  0
   39.9308   24.6136   37.4336 H   0  0  0  0  0  0  0  0  0  0  0  0
   35.7340   20.8874   35.5908 H   0  0  0  0  0  0  0  0  0  0  0  0
   34.6561   19.5766   33.4590 H   0  0  0  0  0  0  0  0  0  0  0  0
   36.1305   20.2920   31.3212 H   0  0  0  0  0  0  0  0  0  0  0  0
   37.2921   26.3350   36.4194 H   0  0  0  0  0  0  0  0  0  0  0  0
   39.0838   26.5571   36.4430 H   0  0  0  0  0  0  0  0  0  0  0  0
   40.2388   26.3078   33.9083 H   0  0  0  0  0  0  0  0  0  0  0  0
   39.8448   27.3104   31.6886 H   0  0  0  0  0  0  0  0  0  0  0  0
   35.8214   28.1127   32.6531 H   0  0  0  0  0  0  0  0  0  0  0  0
  1  2  2  0
  3 12  1  0
  3  2  1  0
  4  3  2  0
  5  4  1  0
  5  6  2  0
  6  1  1  0
  7  8  2  0
  7  5  1  0
  9  8  1  0
 10 11  1  0
 10  9  2  0
 11  7  1  0
 13 12  1  0
 14 13  2  0
 15 14  1  0
 16 15  2  0
 16 17  1  0
 17 18  2  0
 18 13  1  0
  1 19  1  0
  2 20  1  0
  8 21  1  0
  9 22  1  0
 10 23  1  0
 12 24  1  0
 12 25  1  0
 14 26  1  0
 15 27  1  0
 17 28  1  0
M  ISO  8  19  14  20  14  21  14  22  14  23  14  24   8  25   8  26  14
M  ISO  2  27  14  28  14
M  END
>  <minimizedAffinity>  (1) 
-4.21231174

>  <minimizedRMSD>  (1) 
3.02505922

$$$$
