
     RDKit          3D

 27 29  0  0  0  0  0  0  0  0999 V2000
   40.2580   21.9830   34.2110 C   0  0  0  0  0  0  0  0  0  0  0  0
   40.0460   22.9220   35.2110 C   0  0  0  0  0  0  0  0  0  0  0  0
   38.7590   23.3890   35.4320 C   0  0  0  0  0  0  0  0  0  0  0  0
   37.7400   22.9090   34.6590 N   0  0  0  0  0  0  0  0  0  0  0  0
   37.9900   21.9900   33.6920 C   0  0  0  0  0  0  0  0  0  0  0  0
   39.2260   21.5440   33.4810 N   0  0  0  0  0  0  0  0  0  0  0  0
   36.8900   21.4750   32.8650 C   0  0  0  0  0  0  0  0  0  0  0  0
   35.8820   20.7540   33.5260 C   0  0  0  0  0  0  0  0  0  0  0  0
   34.9710   20.3790   32.5460 C   0  0  0  0  0  0  0  0  0  0  0  0
   35.4840   20.8980   31.3440 C   0  0  0  0  0  0  0  0  0  0  0  0
   36.6120   21.5290   31.6080 O   0  0  0  0  0  0  0  0  0  0  0  0
   38.4790   24.4000   36.5030 C   0  0  0  0  0  0  0  0  0  0  0  0
   38.0560   25.6740   35.8830 C   0  0  0  0  0  0  0  0  0  0  0  0
   38.4290   26.9600   36.2870 C   0  0  0  0  0  0  0  0  0  0  0  0
   37.8500   27.8630   35.4870 N   0  0  0  0  0  0  0  0  0  0  0  0
   37.1200   27.1950   34.5870 C   0  0  0  0  0  0  0  0  0  0  0  0
   37.2440   25.8760   34.8240 N   0  0  0  0  0  0  0  0  0  0  0  0
   41.2715   21.6008   34.0191 H   0  0  0  0  0  0  0  0  0  0  0  0
   40.8858   23.2900   35.8188 H   0  0  0  0  0  0  0  0  0  0  0  0
   35.8252   20.5313   34.6017 H   0  0  0  0  0  0  0  0  0  0  0  0
   34.0458   19.7997   32.6816 H   0  0  0  0  0  0  0  0  0  0  0  0
   35.0224   20.7952   30.3508 H   0  0  0  0  0  0  0  0  0  0  0  0
   37.6775   24.0275   37.1578 H   0  0  0  0  0  0  0  0  0  0  0  0
   39.3905   24.5667   37.0958 H   0  0  0  0  0  0  0  0  0  0  0  0
   39.0948   27.1929   37.1311 H   0  0  0  0  0  0  0  0  0  0  0  0
   36.5180   27.6486   33.7858 H   0  0  0  0  0  0  0  0  0  0  0  0
   36.7871   25.1314   34.2783 H   0  0  0  0  0  0  0  0  0  0  0  0
  1  2  2  0
  2  3  1  0
  3 12  1  0
  4  3  2  0
  5  4  1  0
  6  5  2  0
  6  1  1  0
  7  8  2  0
  7  5  1  0
  9  8  1  0
 10 11  1  0
 10  9  2  0
 11  7  1  0
 13 14  2  0
 13 12  1  0
 15 14  1  0
 16 17  1  0
 16 15  2  0
 17 13  1  0
  1 18  1  0
  2 19  1  0
  8 20  1  0
  9 21  1  0
 10 22  1  0
 12 23  1  0
 12 24  1  0
 14 25  1  0
 16 26  1  0
 17 27  1  0
M  ISO  8  18  14  19  14  20  14  21  14  22  14  23   8  24   8  25  14
M  ISO  2  26  14  27   9
M  END
>  <minimizedAffinity>  (1) 
-4.08341265

>  <minimizedRMSD>  (1) 
2.40155458

$$$$
