
     RDKit          3D

 34 36  0  0  0  0  0  0  0  0999 V2000
   40.4280   22.5060   35.3110 C   0  0  0  0  0  0  0  0  0  0  0  0
   40.0560   23.6750   35.9710 C   0  0  0  0  0  0  0  0  0  0  0  0
   38.7540   24.1400   35.8510 C   0  0  0  0  0  0  0  0  0  0  0  0
   37.8850   23.4160   35.0740 N   0  0  0  0  0  0  0  0  0  0  0  0
   38.2820   22.2830   34.4450 C   0  0  0  0  0  0  0  0  0  0  0  0
   39.5390   21.8220   34.5550 N   0  0  0  0  0  0  0  0  0  0  0  0
   37.3380   21.5360   33.6300 C   0  0  0  0  0  0  0  0  0  0  0  0
   36.2040   21.0090   34.2690 C   0  0  0  0  0  0  0  0  0  0  0  0
   35.4570   20.3450   33.3000 C   0  0  0  0  0  0  0  0  0  0  0  0
   36.1930   20.5110   32.1130 C   0  0  0  0  0  0  0  0  0  0  0  0
   37.2620   21.2080   32.3870 O   0  0  0  0  0  0  0  0  0  0  0  0
   38.3080   25.3810   36.5330 C   0  0  0  0  0  0  0  0  0  0  0  0
   38.1750   26.5220   35.7150 N   0  0  0  0  0  0  0  0  0  0  0  0
   39.3090   26.9830   35.0050 C   0  0  0  0  0  0  0  0  0  0  0  0
   39.1820   26.9020   33.4990 C   0  0  0  0  0  0  0  0  0  0  0  0
   37.9810   27.5550   33.0200 N   0  0  0  0  0  0  0  0  0  0  0  0
   37.0480   27.8320   34.0920 C   0  0  0  0  0  0  0  0  0  0  0  0
   36.9500   26.5970   34.9620 C   0  0  0  0  0  0  0  0  0  0  0  0
   41.4588   22.1340   35.4059 H   0  0  0  0  0  0  0  0  0  0  0  0
   40.7876   24.2245   36.5817 H   0  0  0  0  0  0  0  0  0  0  0  0
   35.9529   21.1033   35.3358 H   0  0  0  0  0  0  0  0  0  0  0  0
   34.5048   19.8105   33.4328 H   0  0  0  0  0  0  0  0  0  0  0  0
   35.9152   20.1202   31.1230 H   0  0  0  0  0  0  0  0  0  0  0  0
   37.3287   25.1797   36.9917 H   0  0  0  0  0  0  0  0  0  0  0  0
   39.1015   25.6244   37.2549 H   0  0  0  0  0  0  0  0  0  0  0  0
   39.4822   28.0341   35.2792 H   0  0  0  0  0  0  0  0  0  0  0  0
   40.1431   26.3226   35.2847 H   0  0  0  0  0  0  0  0  0  0  0  0
   40.0568   27.3879   33.0422 H   0  0  0  0  0  0  0  0  0  0  0  0
   39.1258   25.8396   33.2193 H   0  0  0  0  0  0  0  0  0  0  0  0
   38.2430   28.4435   32.5697 H   0  0  0  0  0  0  0  0  0  0  0  0
   37.4091   28.6816   34.6902 H   0  0  0  0  0  0  0  0  0  0  0  0
   36.0603   28.0874   33.6807 H   0  0  0  0  0  0  0  0  0  0  0  0
   36.0907   26.6809   35.6436 H   0  0  0  0  0  0  0  0  0  0  0  0
   36.8055   25.6936   34.3512 H   0  0  0  0  0  0  0  0  0  0  0  0
  1  2  2  0
  3  2  1  0
  3 12  1  0
  4  3  2  0
  5  6  2  0
  5  4  1  0
  6  1  1  0
  7  8  2  0
  7  5  1  0
  9  8  1  0
 10 11  1  0
 10  9  2  0
 11  7  1  0
 13 12  1  0
 14 13  1  0
 15 14  1  0
 16 15  1  0
 16 17  1  0
 17 18  1  0
 18 13  1  0
  1 19  1  0
  2 20  1  0
  8 21  1  0
  9 22  1  0
 10 23  1  0
 12 24  1  0
 12 25  1  0
 14 26  1  0
 14 27  1  0
 15 28  1  0
 15 29  1  0
 16 30  1  0
 17 31  1  0
 17 32  1  0
 18 33  1  0
 18 34  1  0
M  ISO  8  19  14  20  14  21  14  22  14  23  14  24   8  25   8  26  13
M  ISO  8  27  13  28  13  29  13  30   5  31  13  32  13  33  13  34  13
M  END
>  <minimizedAffinity>  (1) 
-4.00813198

>  <minimizedRMSD>  (1) 
3.2168479

$$$$
