
     RDKit          3D

 32 34  0  0  0  0  0  0  0  0999 V2000
   40.2080   22.3920   35.5500 C   0  0  0  0  0  0  0  0  0  0  0  0
   39.8700   23.5780   36.2310 C   0  0  0  0  0  0  0  0  0  0  0  0
   38.5980   24.1300   36.0560 C   0  0  0  0  0  0  0  0  0  0  0  0
   37.7400   23.4860   35.2260 N   0  0  0  0  0  0  0  0  0  0  0  0
   38.0910   22.3450   34.5840 C   0  0  0  0  0  0  0  0  0  0  0  0
   39.3000   21.8030   34.7370 N   0  0  0  0  0  0  0  0  0  0  0  0
   37.1290   21.6950   33.7020 C   0  0  0  0  0  0  0  0  0  0  0  0
   36.1520   20.9020   34.2790 C   0  0  0  0  0  0  0  0  0  0  0  0
   35.3580   20.3940   33.2420 C   0  0  0  0  0  0  0  0  0  0  0  0
   35.9220   20.9260   32.0830 C   0  0  0  0  0  0  0  0  0  0  0  0
   36.9520   21.6770   32.4070 O   0  0  0  0  0  0  0  0  0  0  0  0
   38.2480   25.3800   36.7720 C   0  0  0  0  0  0  0  0  0  0  0  0
   38.4660   26.5430   35.9700 N   0  0  0  0  0  0  0  0  0  0  0  0
   37.3200   26.6970   35.0900 C   0  0  0  0  0  0  0  0  0  0  0  0
   37.8400   27.0940   33.7500 C   0  0  0  0  0  0  0  0  0  0  0  0
   39.3300   27.1460   33.9280 C   0  0  0  0  0  0  0  0  0  0  0  0
   39.5670   26.1960   35.0560 C   0  0  0  0  0  0  0  0  0  0  0  0
   41.2055   21.9465   35.6784 H   0  0  0  0  0  0  0  0  0  0  0  0
   40.6002   24.0649   36.8941 H   0  0  0  0  0  0  0  0  0  0  0  0
   36.0227   20.7066   35.3537 H   0  0  0  0  0  0  0  0  0  0  0  0
   34.4873   19.7268   33.3238 H   0  0  0  0  0  0  0  0  0  0  0  0
   35.5622   20.7460   31.0592 H   0  0  0  0  0  0  0  0  0  0  0  0
   37.1860   25.3398   37.0557 H   0  0  0  0  0  0  0  0  0  0  0  0
   38.8973   25.4545   37.6568 H   0  0  0  0  0  0  0  0  0  0  0  0
   36.7727   25.7458   35.0147 H   0  0  0  0  0  0  0  0  0  0  0  0
   36.6286   27.4582   35.4806 H   0  0  0  0  0  0  0  0  0  0  0  0
   37.4484   28.0792   33.4568 H   0  0  0  0  0  0  0  0  0  0  0  0
   37.5365   26.3934   32.9581 H   0  0  0  0  0  0  0  0  0  0  0  0
   39.8489   26.8147   33.0164 H   0  0  0  0  0  0  0  0  0  0  0  0
   39.7075   28.1596   34.1283 H   0  0  0  0  0  0  0  0  0  0  0  0
   39.4971   25.1503   34.7218 H   0  0  0  0  0  0  0  0  0  0  0  0
   40.5667   26.2773   35.5077 H   0  0  0  0  0  0  0  0  0  0  0  0
  1  2  2  0
  3  2  1  0
  3 12  1  0
  4  3  2  0
  5  6  2  0
  5  4  1  0
  6  1  1  0
  7  8  2  0
  7  5  1  0
  9  8  1  0
 10 11  1  0
 10  9  2  0
 11  7  1  0
 13 12  1  0
 14 13  1  0
 15 16  1  0
 15 14  1  0
 16 17  1  0
 17 13  1  0
  1 18  1  0
  2 19  1  0
  8 20  1  0
  9 21  1  0
 10 22  1  0
 12 23  1  0
 12 24  1  0
 14 25  1  0
 14 26  1  0
 15 27  1  0
 15 28  1  0
 16 29  1  0
 16 30  1  0
 17 31  1  0
 17 32  1  0
M  ISO  8  18  14  19  14  20  14  21  14  22  14  23   8  24   8  25  13
M  ISO  7  26  13  27  13  28  13  29  13  30  13  31  13  32  13
M  END
>  <minimizedAffinity>  (1) 
-3.94802856

>  <minimizedRMSD>  (1) 
1.92977297

$$$$
