
     RDKit          3D

 21 22  0  0  0  0  0  0  0  0999 V2000
   40.2010   22.5360   35.8620 C   0  0  0  0  0  0  0  0  0  0  0  0
   39.7210   22.9880   37.0980 C   0  0  0  0  0  0  0  0  0  0  0  0
   38.3550   23.0110   37.3260 C   0  0  0  0  0  0  0  0  0  0  0  0
   37.5500   22.5870   36.3180 N   0  0  0  0  0  0  0  0  0  0  0  0
   38.0250   22.1520   35.1300 C   0  0  0  0  0  0  0  0  0  0  0  0
   39.3380   22.1310   34.9120 N   0  0  0  0  0  0  0  0  0  0  0  0
   37.1060   21.7090   34.0880 C   0  0  0  0  0  0  0  0  0  0  0  0
   36.0800   20.8350   34.4720 C   0  0  0  0  0  0  0  0  0  0  0  0
   35.3510   20.5660   33.3090 C   0  0  0  0  0  0  0  0  0  0  0  0
   35.9860   21.2950   32.3060 C   0  0  0  0  0  0  0  0  0  0  0  0
   36.9940   21.9340   32.8230 O   0  0  0  0  0  0  0  0  0  0  0  0
   37.8140   23.4870   38.6280 C   0  0  0  0  0  0  0  0  0  0  0  0
   38.0390   24.8320   38.7620 O   0  0  0  0  0  0  0  0  0  0  0  0
   41.2835   22.5121   35.6679 H   0  0  0  0  0  0  0  0  0  0  0  0
   40.4209   23.3209   37.8786 H   0  0  0  0  0  0  0  0  0  0  0  0
   35.8875   20.4413   35.4809 H   0  0  0  0  0  0  0  0  0  0  0  0
   34.4673   19.9187   33.2082 H   0  0  0  0  0  0  0  0  0  0  0  0
   35.6840   21.3253   31.2487 H   0  0  0  0  0  0  0  0  0  0  0  0
   36.7320   23.2924   38.6666 H   0  0  0  0  0  0  0  0  0  0  0  0
   38.3171   22.9520   39.4469 H   0  0  0  0  0  0  0  0  0  0  0  0
   38.0781   25.0659   39.7232 H   0  0  0  0  0  0  0  0  0  0  0  0
  1  2  2  0
  2  3  1  0
  3 12  1  0
  4  3  2  0
  5  4  1  0
  6  5  2  0
  6  1  1  0
  7  8  2  0
  7  5  1  0
  9  8  1  0
 10 11  1  0
 10  9  2  0
 11  7  1  0
 12 13  1  0
  1 14  1  0
  2 15  1  0
  8 16  1  0
  9 17  1  0
 10 18  1  0
 12 19  1  0
 12 20  1  0
 13 21  1  0
M  ISO  8  14  14  15  14  16  14  17  14  18  14  19   8  20   8  21   3
M  END
>  <minimizedAffinity>  (1) 
-3.77674985

>  <minimizedRMSD>  (1) 
0.858371615

$$$$
