
     RDKit          3D

 32 34  0  0  0  0  0  0  0  0999 V2000
   40.1230   22.0850   34.8310 C   0  0  0  0  0  0  0  0  0  0  0  0
   39.7980   22.8290   35.9420 C   0  0  0  0  0  0  0  0  0  0  0  0
   38.4620   23.1690   36.1540 C   0  0  0  0  0  0  0  0  0  0  0  0
   37.5510   22.7390   35.2380 N   0  0  0  0  0  0  0  0  0  0  0  0
   37.9030   22.0060   34.1540 C   0  0  0  0  0  0  0  0  0  0  0  0
   39.1810   21.6830   33.9540 N   0  0  0  0  0  0  0  0  0  0  0  0
   36.8840   21.5670   33.2060 C   0  0  0  0  0  0  0  0  0  0  0  0
   35.8460   20.7740   33.6860 C   0  0  0  0  0  0  0  0  0  0  0  0
   35.0250   20.5000   32.5890 C   0  0  0  0  0  0  0  0  0  0  0  0
   35.6310   21.1540   31.5090 C   0  0  0  0  0  0  0  0  0  0  0  0
   36.7300   21.7740   31.9210 O   0  0  0  0  0  0  0  0  0  0  0  0
   38.0420   23.9740   37.3390 C   0  0  0  0  0  0  0  0  0  0  0  0
   38.2260   25.3590   36.9590 N   0  0  0  0  0  0  0  0  0  0  0  0
   38.3300   26.0500   35.7240 C   0  0  0  0  0  0  0  0  0  0  0  0
   39.5430   26.4260   35.1350 C   0  0  0  0  0  0  0  0  0  0  0  0
   39.5290   27.0810   33.9280 C   0  0  0  0  0  0  0  0  0  0  0  0
   38.3900   27.4030   33.2390 C   0  0  0  0  0  0  0  0  0  0  0  0
   37.1860   27.0400   33.8050 C   0  0  0  0  0  0  0  0  0  0  0  0
   37.1940   26.3830   35.0160 C   0  0  0  0  0  0  0  0  0  0  0  0
   41.1740   21.8123   34.6545 H   0  0  0  0  0  0  0  0  0  0  0  0
   40.5770   23.1495   36.6494 H   0  0  0  0  0  0  0  0  0  0  0  0
   35.7009   20.4316   34.7212 H   0  0  0  0  0  0  0  0  0  0  0  0
   34.1027   19.9006   32.5764 H   0  0  0  0  0  0  0  0  0  0  0  0
   35.2534   21.1539   30.4758 H   0  0  0  0  0  0  0  0  0  0  0  0
   36.9864   23.7796   37.5797 H   0  0  0  0  0  0  0  0  0  0  0  0
   38.6301   23.7173   38.2324 H   0  0  0  0  0  0  0  0  0  0  0  0
   38.2979   25.9871   37.7721 H   0  0  0  0  0  0  0  0  0  0  0  0
   40.4970   26.1993   35.6335 H   0  0  0  0  0  0  0  0  0  0  0  0
   40.4953   27.3655   33.4859 H   0  0  0  0  0  0  0  0  0  0  0  0
   38.4338   27.9294   32.2741 H   0  0  0  0  0  0  0  0  0  0  0  0
   36.2369   27.2707   33.2990 H   0  0  0  0  0  0  0  0  0  0  0  0
   36.2228   26.1034   35.4503 H   0  0  0  0  0  0  0  0  0  0  0  0
  1  2  2  0
  2  3  1  0
  3 12  1  0
  4  3  2  0
  5  4  1  0
  6  5  2  0
  6  1  1  0
  7  8  2  0
  7  5  1  0
  9  8  1  0
 10 11  1  0
 10  9  2  0
 11  7  1  0
 13 12  1  0
 14 13  1  0
 15 14  2  0
 16 15  1  0
 17 18  1  0
 17 16  2  0
 18 19  2  0
 19 14  1  0
  1 20  1  0
  2 21  1  0
  8 22  1  0
  9 23  1  0
 10 24  1  0
 12 25  1  0
 12 26  1  0
 13 27  1  0
 15 28  1  0
 16 29  1  0
 17 30  1  0
 18 31  1  0
 19 32  1  0
M  ISO  8  20  14  21  14  22  14  23  14  24  14  25   8  26   8  28  14
M  ISO  4  29  14  30  14  31  14  32  14
M  END
>  <minimizedAffinity>  (1) 
-4.58340073

>  <minimizedRMSD>  (1) 
2.10642505

$$$$
