
     RDKit          3D

 26 27  0  0  0  0  0  0  0  0999 V2000
   39.4710   24.4680   34.4140 C   0  0  0  0  0  0  0  0  0  0  0  0
   40.0230   23.9510   35.5750 C   0  0  0  0  0  0  0  0  0  0  0  0
   39.5480   22.7210   36.0790 C   0  0  0  0  0  0  0  0  0  0  0  0
   38.5660   22.1140   35.3820 N   0  0  0  0  0  0  0  0  0  0  0  0
   38.0430   22.6580   34.2320 C   0  0  0  0  0  0  0  0  0  0  0  0
   38.4990   23.8150   33.7730 N   0  0  0  0  0  0  0  0  0  0  0  0
   36.9880   21.9470   33.5340 C   0  0  0  0  0  0  0  0  0  0  0  0
   36.3080   20.9400   34.2090 C   0  0  0  0  0  0  0  0  0  0  0  0
   35.3590   20.4220   33.3300 C   0  0  0  0  0  0  0  0  0  0  0  0
   35.5240   21.1570   32.1640 C   0  0  0  0  0  0  0  0  0  0  0  0
   36.4910   22.0380   32.3330 O   0  0  0  0  0  0  0  0  0  0  0  0
   40.1170   22.1450   37.3140 C   0  0  0  0  0  0  0  0  0  0  0  0
   39.5570   22.9250   38.4040 N   0  0  0  0  0  0  0  0  0  0  0  0
   38.2640   23.4090   38.6090 C   0  0  0  0  0  0  0  0  0  0  0  0
   38.0370   24.8240   38.7390 N   0  0  0  0  0  0  0  0  0  0  0  0
   37.3350   22.5580   38.6710 O   0  0  0  0  0  0  0  0  0  0  0  0
   39.8374   25.4260   34.0165 H   0  0  0  0  0  0  0  0  0  0  0  0
   40.8236   24.4938   36.0988 H   0  0  0  0  0  0  0  0  0  0  0  0
   36.4859   20.6130   35.2441 H   0  0  0  0  0  0  0  0  0  0  0  0
   34.6395   19.6114   33.5181 H   0  0  0  0  0  0  0  0  0  0  0  0
   34.9389   21.0251   31.2419 H   0  0  0  0  0  0  0  0  0  0  0  0
   39.8302   21.0876   37.4119 H   0  0  0  0  0  0  0  0  0  0  0  0
   41.2164   22.1816   37.3108 H   0  0  0  0  0  0  0  0  0  0  0  0
   40.2262   23.1603   39.1507 H   0  0  0  0  0  0  0  0  0  0  0  0
   37.0827   25.1807   38.8903 H   0  0  0  0  0  0  0  0  0  0  0  0
   38.8289   25.4801   38.6808 H   0  0  0  0  0  0  0  0  0  0  0  0
  1  2  2  0
  2  3  1  0
  3 12  1  0
  4  3  2  0
  5  4  1  0
  6  5  2  0
  6  1  1  0
  7  8  2  0
  7  5  1  0
  9  8  1  0
 10 11  1  0
 10  9  2  0
 11  7  1  0
 12 13  1  0
 13 14  1  0
 14 16  2  0
 14 15  1  0
  1 17  1  0
  2 18  1  0
  8 19  1  0
  9 20  1  0
 10 21  1  0
 12 22  1  0
 12 23  1  0
 13 24  1  0
 15 25  1  0
 15 26  1  0
M  ISO  7  17  14  18  14  19  14  20  14  21  14  22   8  23   8
M  END
>  <minimizedAffinity>  (1) 
-4.31892633

>  <minimizedRMSD>  (1) 
1.72815061

$$$$
