
     RDKit          3D

 29 31  0  0  0  0  0  0  0  0999 V2000
   40.3040   21.9560   34.1310 C   0  0  0  0  0  0  0  0  0  0  0  0
   40.1170   22.7970   35.2070 C   0  0  0  0  0  0  0  0  0  0  0  0
   38.8130   23.2320   35.5270 C   0  0  0  0  0  0  0  0  0  0  0  0
   37.8040   22.7830   34.7380 N   0  0  0  0  0  0  0  0  0  0  0  0
   38.0340   21.9490   33.6820 C   0  0  0  0  0  0  0  0  0  0  0  0
   39.2630   21.5420   33.3820 N   0  0  0  0  0  0  0  0  0  0  0  0
   36.8970   21.5040   32.8720 C   0  0  0  0  0  0  0  0  0  0  0  0
   35.8840   20.8020   33.4770 C   0  0  0  0  0  0  0  0  0  0  0  0
   34.9460   20.5060   32.4980 C   0  0  0  0  0  0  0  0  0  0  0  0
   35.4660   21.0650   31.3220 C   0  0  0  0  0  0  0  0  0  0  0  0
   36.6100   21.6350   31.6070 O   0  0  0  0  0  0  0  0  0  0  0  0
   38.5760   24.1280   36.6650 C   0  0  0  0  0  0  0  0  0  0  0  0
   37.7560   25.2310   36.1600 N   0  0  0  0  0  0  0  0  0  0  0  0
   38.3490   26.5070   36.3790 C   0  0  0  0  0  0  0  0  0  0  0  0
   39.2780   26.9780   35.2700 C   0  0  0  0  0  0  0  0  0  0  0  0
   37.9220   27.6290   35.4310 C   0  0  0  0  0  0  0  0  0  0  0  0
   41.3198   21.6172   33.8795 H   0  0  0  0  0  0  0  0  0  0  0  0
   40.9758   23.1260   35.8105 H   0  0  0  0  0  0  0  0  0  0  0  0
   35.8266   20.5256   34.5401 H   0  0  0  0  0  0  0  0  0  0  0  0
   34.0021   19.9541   32.6182 H   0  0  0  0  0  0  0  0  0  0  0  0
   34.9935   21.0306   30.3292 H   0  0  0  0  0  0  0  0  0  0  0  0
   38.0432   23.5935   37.4653 H   0  0  0  0  0  0  0  0  0  0  0  0
   39.5231   24.4961   37.0863 H   0  0  0  0  0  0  0  0  0  0  0  0
   36.8430   25.2067   36.6362 H   0  0  0  0  0  0  0  0  0  0  0  0
   38.4108   26.4001   37.4720 H   0  0  0  0  0  0  0  0  0  0  0  0
   39.4746   26.3267   34.4056 H   0  0  0  0  0  0  0  0  0  0  0  0
   40.3140   27.3456   35.2314 H   0  0  0  0  0  0  0  0  0  0  0  0
   37.8485   28.6626   35.8000 H   0  0  0  0  0  0  0  0  0  0  0  0
   37.0596   27.8034   34.7708 H   0  0  0  0  0  0  0  0  0  0  0  0
  1  2  2  0
  2  3  1  0
  3 12  1  0
  4  3  2  0
  5  4  1  0
  6  5  2  0
  6  1  1  0
  7  8  2  0
  7  5  1  0
  9  8  1  0
 10 11  1  0
 10  9  2  0
 11  7  1  0
 13 14  1  0
 13 12  1  0
 15 16  1  0
 15 14  1  0
 16 14  1  0
  1 17  1  0
  2 18  1  0
  8 19  1  0
  9 20  1  0
 10 21  1  0
 12 22  1  0
 12 23  1  0
 13 24  1  0
 14 25  1  0
 15 26  1  0
 15 27  1  0
 16 28  1  0
 16 29  1  0
M  ISO  8  17  14  18  14  19  14  20  14  21  14  22   8  23   8  24   5
M  ISO  5  25  13  26  13  27  13  28  13  29  13
M  END
>  <minimizedAffinity>  (1) 
-3.9960475

>  <minimizedRMSD>  (1) 
1.64588952

$$$$
