
     RDKit          3D

 31 32  0  0  0  0  0  0  0  0999 V2000
   38.7720   22.1650   36.0500 C   0  0  0  0  0  0  0  0  0  0  0  0
   40.1450   22.1220   36.1880 C   0  0  0  0  0  0  0  0  0  0  0  0
   40.9020   23.3010   36.0010 C   0  0  0  0  0  0  0  0  0  0  0  0
   40.2170   24.4260   35.6910 N   0  0  0  0  0  0  0  0  0  0  0  0
   38.8650   24.4310   35.5620 C   0  0  0  0  0  0  0  0  0  0  0  0
   38.1510   23.3240   35.7380 N   0  0  0  0  0  0  0  0  0  0  0  0
   38.1850   25.6810   35.2250 C   0  0  0  0  0  0  0  0  0  0  0  0
   38.5300   26.8310   35.9280 C   0  0  0  0  0  0  0  0  0  0  0  0
   37.7510   27.8680   35.4250 C   0  0  0  0  0  0  0  0  0  0  0  0
   36.9720   27.2770   34.4350 C   0  0  0  0  0  0  0  0  0  0  0  0
   37.2630   25.9940   34.3560 O   0  0  0  0  0  0  0  0  0  0  0  0
   42.3890   23.2880   36.1430 C   0  0  0  0  0  0  0  0  0  0  0  0
   42.8560   24.3810   35.2800 N   0  0  0  0  0  0  0  0  0  0  0  0
   43.7740   25.2640   35.9270 C   0  0  0  0  0  0  0  0  0  0  0  0
   44.8850   25.5850   34.9370 C   0  0  0  0  0  0  0  0  0  0  0  0
   44.4130   24.6540   37.1380 C   0  0  0  0  0  0  0  0  0  0  0  0
   38.1795   21.2496   36.1950 H   0  0  0  0  0  0  0  0  0  0  0  0
   40.6466   21.1765   36.4418 H   0  0  0  0  0  0  0  0  0  0  0  0
   39.2782   26.9061   36.7308 H   0  0  0  0  0  0  0  0  0  0  0  0
   37.7509   28.9219   35.7401 H   0  0  0  0  0  0  0  0  0  0  0  0
   36.2288   27.7994   33.8147 H   0  0  0  0  0  0  0  0  0  0  0  0
   42.6804   23.4677   37.1884 H   0  0  0  0  0  0  0  0  0  0  0  0
   42.8255   22.3188   35.8598 H   0  0  0  0  0  0  0  0  0  0  0  0
   42.0382   24.9274   34.9743 H   0  0  0  0  0  0  0  0  0  0  0  0
   43.2130   26.1535   36.2496 H   0  0  0  0  0  0  0  0  0  0  0  0
   45.8005   25.8495   35.4864 H   0  0  0  0  0  0  0  0  0  0  0  0
   45.0779   24.7059   34.3046 H   0  0  0  0  0  0  0  0  0  0  0  0
   44.5793   26.4316   34.3046 H   0  0  0  0  0  0  0  0  0  0  0  0
   43.9633   25.0833   38.0454 H   0  0  0  0  0  0  0  0  0  0  0  0
   44.2522   23.5659   37.1286 H   0  0  0  0  0  0  0  0  0  0  0  0
   45.4925   24.8652   37.1286 H   0  0  0  0  0  0  0  0  0  0  0  0
  1  2  2  0
  3 12  1  0
  3  2  1  0
  4  3  2  0
  5  4  1  0
  5  6  2  0
  6  1  1  0
  7  5  1  0
  7  8  2  0
  9  8  1  0
 10  9  2  0
 11 10  1  0
 11  7  1  0
 13 14  1  0
 13 12  1  0
 14 16  1  0
 15 14  1  0
  1 17  1  0
  2 18  1  0
  8 19  1  0
  9 20  1  0
 10 21  1  0
 12 22  1  0
 12 23  1  0
 13 24  1  0
 14 25  1  0
 15 26  1  0
 15 27  1  0
 15 28  1  0
 16 29  1  0
 16 30  1  0
 16 31  1  0
M  ISO  8  17  14  18  14  19  14  20  14  21  14  22   8  23   8  24   5
M  ISO  7  25   8  26   8  27   8  28   8  29   8  30   8  31   8
M  END
>  <minimizedAffinity>  (1) 
-3.82598519

>  <minimizedRMSD>  (1) 
5.22109938

$$$$
