
     RDKit          3D

 28 29  0  0  0  0  0  0  0  0999 V2000
   40.0450   22.0890   34.4140 C   0  0  0  0  0  0  0  0  0  0  0  0
   39.6230   22.7430   35.5500 C   0  0  0  0  0  0  0  0  0  0  0  0
   38.2370   22.8530   35.8170 C   0  0  0  0  0  0  0  0  0  0  0  0
   37.4060   22.2880   34.9120 N   0  0  0  0  0  0  0  0  0  0  0  0
   37.8550   21.6520   33.8050 C   0  0  0  0  0  0  0  0  0  0  0  0
   39.1550   21.5530   33.5550 N   0  0  0  0  0  0  0  0  0  0  0  0
   36.8750   21.0790   32.8790 C   0  0  0  0  0  0  0  0  0  0  0  0
   35.6440   20.7070   33.3700 C   0  0  0  0  0  0  0  0  0  0  0  0
   34.8900   20.1960   32.3170 C   0  0  0  0  0  0  0  0  0  0  0  0
   35.7490   20.2980   31.2230 C   0  0  0  0  0  0  0  0  0  0  0  0
   36.9060   20.8230   31.5980 O   0  0  0  0  0  0  0  0  0  0  0  0
   37.7710   23.5620   37.0180 C   0  0  0  0  0  0  0  0  0  0  0  0
   38.2440   24.9070   36.9240 N   0  0  0  0  0  0  0  0  0  0  0  0
   37.7390   25.7290   35.9040 C   0  0  0  0  0  0  0  0  0  0  0  0
   38.5290   27.0510   35.9770 C   0  0  0  0  0  0  0  0  0  0  0  0
   41.1215   22.0029   34.2049 H   0  0  0  0  0  0  0  0  0  0  0  0
   40.3573   23.1767   36.2448 H   0  0  0  0  0  0  0  0  0  0  0  0
   35.3128   20.7979   34.4150 H   0  0  0  0  0  0  0  0  0  0  0  0
   33.8621   19.8051   32.3420 H   0  0  0  0  0  0  0  0  0  0  0  0
   35.5016   19.9874   30.1972 H   0  0  0  0  0  0  0  0  0  0  0  0
   36.6718   23.5510   37.0596 H   0  0  0  0  0  0  0  0  0  0  0  0
   38.1502   23.0772   37.9297 H   0  0  0  0  0  0  0  0  0  0  0  0
   38.0281   25.3677   37.8196 H   0  0  0  0  0  0  0  0  0  0  0  0
   36.6670   25.9174   36.0633 H   0  0  0  0  0  0  0  0  0  0  0  0
   37.8489   25.2534   34.9182 H   0  0  0  0  0  0  0  0  0  0  0  0
   38.6917   27.3232   37.0303 H   0  0  0  0  0  0  0  0  0  0  0  0
   39.5004   26.9258   35.4764 H   0  0  0  0  0  0  0  0  0  0  0  0
   37.9585   27.8472   35.4764 H   0  0  0  0  0  0  0  0  0  0  0  0
  1  2  2  0
  2  3  1  0
  3 12  1  0
  4  3  2  0
  5  4  1  0
  6  5  2  0
  6  1  1  0
  7  8  2  0
  7  5  1  0
  9  8  1  0
 10 11  1  0
 10  9  2  0
 11  7  1  0
 13 12  1  0
 14 15  1  0
 14 13  1  0
  1 16  1  0
  2 17  1  0
  8 18  1  0
  9 19  1  0
 10 20  1  0
 12 21  1  0
 12 22  1  0
 13 23  1  0
 14 24  1  0
 14 25  1  0
 15 26  1  0
 15 27  1  0
 15 28  1  0
M  ISO  8  16  14  17  14  18  14  19  14  20  14  21   8  22   8  23   5
M  ISO  5  24   8  25   8  26   8  27   8  28   8
M  END
>  <minimizedAffinity>  (1) 
-3.74072146

>  <minimizedRMSD>  (1) 
1.74108648

$$$$
