
     RDKit          3D

 28 29  0  0  0  0  0  0  0  0999 V2000
   38.1570   22.7700   35.6430 C   0  0  0  0  0  0  0  0  0  0  0  0
   38.3770   24.0210   35.0560 C   0  0  0  0  0  0  0  0  0  0  0  0
   37.9740   24.2360   33.7340 C   0  0  0  0  0  0  0  0  0  0  0  0
   37.3880   23.2040   33.0940 N   0  0  0  0  0  0  0  0  0  0  0  0
   37.1880   21.9870   33.7020 C   0  0  0  0  0  0  0  0  0  0  0  0
   37.5630   21.7780   34.9460 N   0  0  0  0  0  0  0  0  0  0  0  0
   36.5540   20.9250   32.9420 C   0  0  0  0  0  0  0  0  0  0  0  0
   35.1920   20.9110   32.7840 C   0  0  0  0  0  0  0  0  0  0  0  0
   34.8290   19.8160   32.0310 C   0  0  0  0  0  0  0  0  0  0  0  0
   36.0310   19.1940   31.7560 C   0  0  0  0  0  0  0  0  0  0  0  0
   37.0010   19.8780   32.3090 O   0  0  0  0  0  0  0  0  0  0  0  0
   38.1950   25.5500   33.1040 C   0  0  0  0  0  0  0  0  0  0  0  0
   37.1900   26.4440   33.6930 N   0  0  0  0  0  0  0  0  0  0  0  0
   36.6060   27.4310   32.3980 S   0  0  0  0  0  0  0  0  0  0  0  0
   35.8100   26.3550   31.2310 C   0  0  0  0  0  0  0  0  0  0  0  0
   35.6650   28.4880   32.9010 O   0  0  0  0  0  0  0  0  0  0  0  0
   37.7720   28.1040   31.7560 O   0  0  0  0  0  0  0  0  0  0  0  0
   38.4710   22.5931   36.6823 H   0  0  0  0  0  0  0  0  0  0  0  0
   38.8614   24.8262   35.6278 H   0  0  0  0  0  0  0  0  0  0  0  0
   34.4970   21.6582   33.1948 H   0  0  0  0  0  0  0  0  0  0  0  0
   33.8190   19.5092   31.7215 H   0  0  0  0  0  0  0  0  0  0  0  0
   36.1537   18.2728   31.1675 H   0  0  0  0  0  0  0  0  0  0  0  0
   38.0571   25.4817   32.0148 H   0  0  0  0  0  0  0  0  0  0  0  0
   39.2175   25.9173   33.2762 H   0  0  0  0  0  0  0  0  0  0  0  0
   36.4189   25.8957   34.1001 H   0  0  0  0  0  0  0  0  0  0  0  0
   35.2403   25.5849   31.7717 H   0  0  0  0  0  0  0  0  0  0  0  0
   35.1263   26.9409   30.5992 H   0  0  0  0  0  0  0  0  0  0  0  0
   36.5704   25.8726   30.5992 H   0  0  0  0  0  0  0  0  0  0  0  0
  2  1  2  0
  3  2  1  0
  4  5  1  0
  4  3  2  0
  5  6  2  0
  6  1  1  0
  7  5  1  0
  8  7  2  0
  9  8  1  0
 10  9  2  0
 10 11  1  0
 11  7  1  0
 12 13  1  0
 12  3  1  0
 14 16  2  0
 14 13  1  0
 15 14  1  0
 17 14  2  0
  1 18  1  0
  2 19  1  0
  8 20  1  0
  9 21  1  0
 10 22  1  0
 12 23  1  0
 12 24  1  0
 13 25  1  0
 15 26  1  0
 15 27  1  0
 15 28  1  0
M  ISO  8  18  14  19  14  20  14  21  14  22  14  23   8  24   8  25   5
M  ISO  3  26   8  27   8  28   8
M  END
>  <minimizedAffinity>  (1) 
-3.81674218

>  <minimizedRMSD>  (1) 
5.20182991

$$$$
