
     RDKit          3D

 42 46  0  0  0  0  0  0  0  0999 V2000
   36.8030   24.3250   31.8780 C   0  0  0  0  0  0  0  0  0  0  0  0
   36.3030   25.6280   31.8760 C   0  0  0  0  0  0  0  0  0  0  0  0
   36.8400   26.4500   32.8460 C   0  0  0  0  0  0  0  0  0  0  0  0
   37.7510   25.9500   33.6640 N   0  0  0  0  0  0  0  0  0  0  0  0
   38.2360   24.7380   33.6880 C   0  0  0  0  0  0  0  0  0  0  0  0
   37.7250   23.9440   32.7610 N   0  0  0  0  0  0  0  0  0  0  0  0
   39.2180   24.0840   34.5210 C   0  0  0  0  0  0  0  0  0  0  0  0
   40.4350   23.6380   34.0140 C   0  0  0  0  0  0  0  0  0  0  0  0
   41.4000   23.0100   34.7690 C   0  0  0  0  0  0  0  0  0  0  0  0
   41.1870   22.7910   36.1090 C   0  0  0  0  0  0  0  0  0  0  0  0
   40.0210   23.2030   36.6570 C   0  0  0  0  0  0  0  0  0  0  0  0
   39.8140   22.9780   38.0080 C   0  0  0  0  0  0  0  0  0  0  0  0
   38.6640   23.3640   38.6360 C   0  0  0  0  0  0  0  0  0  0  0  0
   37.7070   23.9950   37.8520 C   0  0  0  0  0  0  0  0  0  0  0  0
   37.9460   24.2020   36.5140 C   0  0  0  0  0  0  0  0  0  0  0  0
   39.0850   23.8250   35.8700 C   0  0  0  0  0  0  0  0  0  0  0  0
   36.4300   27.7980   32.9660 N   0  0  0  0  0  0  0  0  0  0  0  0
   36.4900   28.7550   32.0250 C   0  0  0  0  0  0  0  0  0  0  0  0
   36.0160   29.9060   32.4860 N   0  0  0  0  0  0  0  0  0  0  0  0
   35.6420   29.6900   33.7520 C   0  0  0  0  0  0  0  0  0  0  0  0
   35.8980   28.3980   34.0360 N   0  0  0  0  0  0  0  0  0  0  0  0
   35.0620   30.5280   34.7730 N   0  0  0  0  0  0  0  0  0  0  0  0
   35.9390   31.1220   35.6320 C   0  0  0  0  0  0  0  0  0  0  0  0
   35.3210   31.9060   36.5800 C   0  0  0  0  0  0  0  0  0  0  0  0
   33.9830   32.1120   36.7050 C   0  0  0  0  0  0  0  0  0  0  0  0
   33.4700   32.8420   37.5930 O   0  0  0  0  0  0  0  0  0  0  0  0
   33.1680   31.4910   35.8170 N   0  0  0  0  0  0  0  0  0  0  0  0
   33.7250   30.7050   34.8610 C   0  0  0  0  0  0  0  0  0  0  0  0
   33.0500   30.0850   33.9880 O   0  0  0  0  0  0  0  0  0  0  0  0
   36.4299   23.6010   31.1387 H   0  0  0  0  0  0  0  0  0  0  0  0
   35.5426   25.9720   31.1594 H   0  0  0  0  0  0  0  0  0  0  0  0
   40.6383   23.7970   32.9447 H   0  0  0  0  0  0  0  0  0  0  0  0
   42.3402   22.6840   34.3003 H   0  0  0  0  0  0  0  0  0  0  0  0
   41.9497   22.2906   36.7237 H   0  0  0  0  0  0  0  0  0  0  0  0
   40.5982   22.4740   38.5919 H   0  0  0  0  0  0  0  0  0  0  0  0
   38.5039   23.1840   39.7093 H   0  0  0  0  0  0  0  0  0  0  0  0
   36.7596   24.3285   38.3006 H   0  0  0  0  0  0  0  0  0  0  0  0
   37.1655   24.7055   35.9247 H   0  0  0  0  0  0  0  0  0  0  0  0
   36.8801   28.6047   31.0076 H   0  0  0  0  0  0  0  0  0  0  0  0
   37.0293   30.9883   35.5734 H   0  0  0  0  0  0  0  0  0  0  0  0
   35.9723   32.4146   37.3060 H   0  0  0  0  0  0  0  0  0  0  0  0
   32.1465   31.6133   35.8670 H   0  0  0  0  0  0  0  0  0  0  0  0
  1  6  2  0
  2  1  1  0
  2  3  2  0
  3 17  1  0
  3  4  1  0
  4  5  2  0
  5  7  1  0
  6  5  1  0
  7 16  1  0
  8  7  2  0
  8  9  1  0
  9 10  2  0
 10 11  1  0
 11 12  2  0
 12 13  1  0
 14 13  2  0
 15 14  1  0
 16 15  2  0
 16 11  1  0
 17 21  1  0
 18 19  2  0
 18 17  1  0
 19 20  1  0
 20 21  2  0
 20 22  1  0
 22 28  1  0
 22 23  1  0
 23 24  2  0
 24 25  1  0
 25 26  2  0
 27 25  1  0
 28 27  1  0
 29 28  2  0
  1 30  1  0
  2 31  1  0
  8 32  1  0
  9 33  1  0
 10 34  1  0
 12 35  1  0
 13 36  1  0
 14 37  1  0
 15 38  1  0
 18 39  1  0
 23 40  1  0
 24 41  1  0
 27 42  1  0
M  ISO  8  30  14  31  14  32  14  33  14  34  14  35  14  36  14  37  14
M  ISO  5  38  14  39  14  40  14  41  14  42   9
M  END
>  <minimizedAffinity>  (1) 
-7.48203325

>  <minimizedRMSD>  (1) 
2.03320122

$$$$
