
     RDKit          3D

 41 43  0  0  0  0  0  0  0  0999 V2000
   39.0660   23.5730   35.0360 C   0  0  0  0  0  0  0  0  0  0  0  0
   36.3400   21.7640   36.8860 C   0  0  0  0  0  0  0  0  0  0  0  0
   37.4280   22.6100   36.6220 C   0  0  0  0  0  0  0  0  0  0  0  0
   37.9290   22.6900   35.3260 C   0  0  0  0  0  0  0  0  0  0  0  0
   37.3230   21.9350   34.4020 N   0  0  0  0  0  0  0  0  0  0  0  0
   36.2610   21.1120   34.6780 C   0  0  0  0  0  0  0  0  0  0  0  0
   35.7850   21.0330   35.8940 N   0  0  0  0  0  0  0  0  0  0  0  0
   35.6720   20.3330   33.6120 C   0  0  0  0  0  0  0  0  0  0  0  0
   35.0170   20.9600   32.5840 C   0  0  0  0  0  0  0  0  0  0  0  0
   34.5450   20.0080   31.6980 C   0  0  0  0  0  0  0  0  0  0  0  0
   34.9530   18.8050   32.2530 C   0  0  0  0  0  0  0  0  0  0  0  0
   35.5970   19.0640   33.3550 O   0  0  0  0  0  0  0  0  0  0  0  0
   38.9780   24.6730   35.9880 N   0  0  0  0  0  0  0  0  0  0  0  0
   38.8510   26.1310   35.0880 S   0  0  0  0  0  0  0  0  0  0  0  0
   38.9160   27.3510   35.9410 O   0  0  0  0  0  0  0  0  0  0  0  0
   39.9690   26.1610   34.0920 O   0  0  0  0  0  0  0  0  0  0  0  0
   37.3040   26.0650   34.1920 C   0  0  0  0  0  0  0  0  0  0  0  0
   37.5490   26.3090   32.7890 N   0  0  0  0  0  0  0  0  0  0  0  0
   37.3880   25.1090   31.9910 C   0  0  0  0  0  0  0  0  0  0  0  0
   35.9340   24.8000   31.7030 C   0  0  0  0  0  0  0  0  0  0  0  0
   35.3340   25.7690   30.9030 O   0  0  0  0  0  0  0  0  0  0  0  0
   36.1200   26.9210   30.8950 C   0  0  0  0  0  0  0  0  0  0  0  0
   36.5840   27.2730   32.2970 C   0  0  0  0  0  0  0  0  0  0  0  0
   40.0137   23.0301   35.1667 H   0  0  0  0  0  0  0  0  0  0  0  0
   39.0372   23.9369   33.9983 H   0  0  0  0  0  0  0  0  0  0  0  0
   35.9363   21.6954   37.9069 H   0  0  0  0  0  0  0  0  0  0  0  0
   37.8799   23.2034   37.4305 H   0  0  0  0  0  0  0  0  0  0  0  0
   34.8873   22.0474   32.4800 H   0  0  0  0  0  0  0  0  0  0  0  0
   33.9779   20.1684   30.7692 H   0  0  0  0  0  0  0  0  0  0  0  0
   34.7653   17.8049   31.8351 H   0  0  0  0  0  0  0  0  0  0  0  0
   38.1468   24.5552   36.5848 H   0  0  0  0  0  0  0  0  0  0  0  0
   36.8498   25.0710   34.3174 H   0  0  0  0  0  0  0  0  0  0  0  0
   36.6204   26.8327   34.5837 H   0  0  0  0  0  0  0  0  0  0  0  0
   37.9162   25.2460   31.0359 H   0  0  0  0  0  0  0  0  0  0  0  0
   37.8036   24.2666   32.5633 H   0  0  0  0  0  0  0  0  0  0  0  0
   35.8743   23.8300   31.1878 H   0  0  0  0  0  0  0  0  0  0  0  0
   35.3987   24.7796   32.6637 H   0  0  0  0  0  0  0  0  0  0  0  0
   36.9998   26.7517   30.2568 H   0  0  0  0  0  0  0  0  0  0  0  0
   35.5164   27.7543   30.5061 H   0  0  0  0  0  0  0  0  0  0  0  0
   37.0491   28.2697   32.2811 H   0  0  0  0  0  0  0  0  0  0  0  0
   35.7103   27.2625   32.9653 H   0  0  0  0  0  0  0  0  0  0  0  0
  1  4  1  0
  1 13  1  0
  3  2  2  0
  4  3  1  0
  5  6  1  0
  5  4  2  0
  6  7  2  0
  7  2  1  0
  8  6  1  0
  9  8  2  0
 10 11  2  0
 10  9  1  0
 11 12  1  0
 12  8  1  0
 14 15  2  0
 14 13  1  0
 16 14  2  0
 17 14  1  0
 18 17  1  0
 19 18  1  0
 20 19  1  0
 21 20  1  0
 22 21  1  0
 22 23  1  0
 23 18  1  0
  1 24  1  0
  1 25  1  0
  2 26  1  0
  3 27  1  0
  9 28  1  0
 10 29  1  0
 11 30  1  0
 13 31  1  0
 17 32  1  0
 17 33  1  0
 19 34  1  0
 19 35  1  0
 20 36  1  0
 20 37  1  0
 22 38  1  0
 22 39  1  0
 23 40  1  0
 23 41  1  0
M  ISO  8  24   8  25   8  26  14  27  14  28  14  29  14  30  14  31   5
M  ISO  8  32   8  33   8  34  13  35  13  36  13  37  13  38  13  39  13
M  ISO  2  40  13  41  13
M  END
>  <minimizedAffinity>  (1) 
-4.68033361

>  <minimizedRMSD>  (1) 
2.99463344

$$$$
