
     RDKit          3D

 41 43  0  0  0  0  0  0  0  0999 V2000
   36.6780   21.9500   36.8490 C   0  0  0  0  0  0  0  0  0  0  0  0
   37.7240   22.8220   36.5010 C   0  0  0  0  0  0  0  0  0  0  0  0
   38.1040   22.9170   35.1690 C   0  0  0  0  0  0  0  0  0  0  0  0
   37.4440   22.1580   34.2730 N   0  0  0  0  0  0  0  0  0  0  0  0
   36.4270   21.3150   34.6450 C   0  0  0  0  0  0  0  0  0  0  0  0
   36.0570   21.2160   35.9040 N   0  0  0  0  0  0  0  0  0  0  0  0
   35.7660   20.5320   33.6210 C   0  0  0  0  0  0  0  0  0  0  0  0
   35.1150   21.1660   32.5800 C   0  0  0  0  0  0  0  0  0  0  0  0
   34.5730   20.2050   31.7460 C   0  0  0  0  0  0  0  0  0  0  0  0
   34.9250   19.0120   32.3300 C   0  0  0  0  0  0  0  0  0  0  0  0
   35.6180   19.2510   33.4190 O   0  0  0  0  0  0  0  0  0  0  0  0
   39.1980   23.8280   34.7980 C   0  0  0  0  0  0  0  0  0  0  0  0
   39.1750   24.9140   35.7650 N   0  0  0  0  0  0  0  0  0  0  0  0
   39.4040   26.3860   34.9040 S   0  0  0  0  0  0  0  0  0  0  0  0
   38.6700   27.5300   35.5250 O   0  0  0  0  0  0  0  0  0  0  0  0
   40.8690   26.6990   34.9100 O   0  0  0  0  0  0  0  0  0  0  0  0
   38.8540   26.1170   33.2410 C   0  0  0  0  0  0  0  0  0  0  0  0
   37.3630   26.3990   33.2200 C   0  0  0  0  0  0  0  0  0  0  0  0
   36.6340   25.3260   32.4640 C   0  0  0  0  0  0  0  0  0  0  0  0
   36.1980   25.9480   31.1620 C   0  0  0  0  0  0  0  0  0  0  0  0
   35.9350   27.3740   31.5770 C   0  0  0  0  0  0  0  0  0  0  0  0
   37.1400   27.6740   32.4450 C   0  0  0  0  0  0  0  0  0  0  0  0
   36.3639   21.8659   37.8998 H   0  0  0  0  0  0  0  0  0  0  0  0
   38.2333   23.4195   37.2715 H   0  0  0  0  0  0  0  0  0  0  0  0
   35.0403   22.2543   32.4382 H   0  0  0  0  0  0  0  0  0  0  0  0
   33.9923   20.3603   30.8248 H   0  0  0  0  0  0  0  0  0  0  0  0
   34.6668   18.0142   31.9456 H   0  0  0  0  0  0  0  0  0  0  0  0
   40.1626   23.3011   34.8408 H   0  0  0  0  0  0  0  0  0  0  0  0
   39.0719   24.2051   33.7724 H   0  0  0  0  0  0  0  0  0  0  0  0
   38.2679   24.9303   36.2527 H   0  0  0  0  0  0  0  0  0  0  0  0
   39.3777   26.7983   32.5543 H   0  0  0  0  0  0  0  0  0  0  0  0
   39.0650   25.0869   32.9178 H   0  0  0  0  0  0  0  0  0  0  0  0
   37.0020   26.4562   34.2575 H   0  0  0  0  0  0  0  0  0  0  0  0
   37.3021   24.4731   32.2738 H   0  0  0  0  0  0  0  0  0  0  0  0
   35.7729   24.9489   33.0352 H   0  0  0  0  0  0  0  0  0  0  0  0
   35.2870   25.4689   30.7740 H   0  0  0  0  0  0  0  0  0  0  0  0
   36.9341   25.8477   30.3507 H   0  0  0  0  0  0  0  0  0  0  0  0
   35.8934   28.0433   30.7050 H   0  0  0  0  0  0  0  0  0  0  0  0
   34.9718   27.5177   32.0885 H   0  0  0  0  0  0  0  0  0  0  0  0
   38.0173   27.9129   31.8259 H   0  0  0  0  0  0  0  0  0  0  0  0
   36.9821   28.5436   33.0999 H   0  0  0  0  0  0  0  0  0  0  0  0
  2  1  2  0
  3  2  1  0
  4  5  1  0
  4  3  2  0
  5  6  2  0
  6  1  1  0
  7  5  1  0
  8  7  2  0
  9 10  2  0
  9  8  1  0
 10 11  1  0
 11  7  1  0
 12  3  1  0
 12 13  1  0
 14 16  2  0
 14 15  2  0
 14 13  1  0
 17 14  1  0
 18 17  1  0
 19 18  1  0
 20 21  1  0
 20 19  1  0
 21 22  1  0
 22 18  1  0
  1 23  1  0
  2 24  1  0
  8 25  1  0
  9 26  1  0
 10 27  1  0
 12 28  1  0
 12 29  1  0
 13 30  1  0
 17 31  1  0
 17 32  1  0
 18 33  1  0
 19 34  1  0
 19 35  1  0
 20 36  1  0
 20 37  1  0
 21 38  1  0
 21 39  1  0
 22 40  1  0
 22 41  1  0
M  ISO  8  23  14  24  14  25  14  26  14  27  14  28   8  29   8  30   5
M  ISO  8  31   8  32   8  33  13  34  13  35  13  36  13  37  13  38  13
M  ISO  3  39  13  40  13  41  13
M  END
>  <minimizedAffinity>  (1) 
-4.53843403

>  <minimizedRMSD>  (1) 
2.83942533

$$$$
