
     RDKit          3D

 30 31  0  0  0  0  0  0  0  0999 V2000
   38.1860   22.7220   35.6760 C   0  0  0  0  0  0  0  0  0  0  0  0
   38.4270   23.9910   35.1400 C   0  0  0  0  0  0  0  0  0  0  0  0
   38.0320   24.2750   33.8370 C   0  0  0  0  0  0  0  0  0  0  0  0
   37.4290   23.2910   33.1560 N   0  0  0  0  0  0  0  0  0  0  0  0
   37.2030   22.0460   33.7080 C   0  0  0  0  0  0  0  0  0  0  0  0
   37.5700   21.7720   34.9300 N   0  0  0  0  0  0  0  0  0  0  0  0
   36.5430   21.0360   32.9000 C   0  0  0  0  0  0  0  0  0  0  0  0
   35.1720   21.0360   32.7820 C   0  0  0  0  0  0  0  0  0  0  0  0
   34.7960   19.9880   31.9710 C   0  0  0  0  0  0  0  0  0  0  0  0
   35.9760   19.3830   31.6210 C   0  0  0  0  0  0  0  0  0  0  0  0
   36.9670   20.0320   32.1890 O   0  0  0  0  0  0  0  0  0  0  0  0
   38.2890   25.6140   33.2770 C   0  0  0  0  0  0  0  0  0  0  0  0
   37.1270   26.4250   33.6270 N   0  0  0  0  0  0  0  0  0  0  0  0
   36.6400   27.2520   32.1900 S   0  0  0  0  0  0  0  0  0  0  0  0
   35.4220   28.0870   32.3990 O   0  0  0  0  0  0  0  0  0  0  0  0
   37.7640   28.1460   31.7710 O   0  0  0  0  0  0  0  0  0  0  0  0
   36.3730   26.0250   30.9330 C   0  0  0  0  0  0  0  0  0  0  0  0
   35.0830   25.4120   31.1440 N   0  0  0  0  0  0  0  0  0  0  0  0
   38.4972   22.4938   36.7061 H   0  0  0  0  0  0  0  0  0  0  0  0
   38.9267   24.7610   35.7461 H   0  0  0  0  0  0  0  0  0  0  0  0
   34.4885   21.7549   33.2573 H   0  0  0  0  0  0  0  0  0  0  0  0
   33.7774   19.7007   31.6712 H   0  0  0  0  0  0  0  0  0  0  0  0
   36.0761   18.5004   30.9721 H   0  0  0  0  0  0  0  0  0  0  0  0
   38.4001   25.5566   32.1841 H   0  0  0  0  0  0  0  0  0  0  0  0
   39.2181   26.0468   33.6764 H   0  0  0  0  0  0  0  0  0  0  0  0
   36.3632   25.8222   33.9647 H   0  0  0  0  0  0  0  0  0  0  0  0
   37.1600   25.2587   30.9920 H   0  0  0  0  0  0  0  0  0  0  0  0
   36.4034   26.4965   29.9396 H   0  0  0  0  0  0  0  0  0  0  0  0
   34.9044   25.3271   32.1548 H   0  0  0  0  0  0  0  0  0  0  0  0
   34.3512   25.9954   30.7138 H   0  0  0  0  0  0  0  0  0  0  0  0
  2  1  2  0
  3  2  1  0
  4  5  1  0
  4  3  2  0
  5  6  2  0
  6  1  1  0
  7  5  1  0
  8  7  2  0
  9  8  1  0
 10  9  2  0
 10 11  1  0
 11  7  1  0
 12 13  1  0
 12  3  1  0
 14 15  2  0
 14 13  1  0
 16 14  2  0
 17 18  1  0
 17 14  1  0
  1 19  1  0
  2 20  1  0
  8 21  1  0
  9 22  1  0
 10 23  1  0
 12 24  1  0
 12 25  1  0
 13 26  1  0
 17 27  1  0
 17 28  1  0
 18 29  1  0
 18 30  1  0
M  ISO  8  19  14  20  14  21  14  22  14  23  14  24   8  25   8  26   5
M  ISO  4  27   8  28   8  29   5  30   5
M  END
>  <minimizedAffinity>  (1) 
-3.83674693

>  <minimizedRMSD>  (1) 
0.332195163

$$$$
