
     RDKit          3D

 45 47  0  0  0  0  0  0  0  0999 V2000
   38.5640   26.1870   34.7430 C   0  0  0  0  0  0  0  0  0  0  0  0
   37.6570   23.9030   37.5790 C   0  0  0  0  0  0  0  0  0  0  0  0
   37.5960   24.9150   36.6270 C   0  0  0  0  0  0  0  0  0  0  0  0
   38.6590   25.1100   35.7530 C   0  0  0  0  0  0  0  0  0  0  0  0
   39.7140   24.2880   35.8790 N   0  0  0  0  0  0  0  0  0  0  0  0
   39.7480   23.2970   36.8280 C   0  0  0  0  0  0  0  0  0  0  0  0
   38.7380   23.1100   37.6610 N   0  0  0  0  0  0  0  0  0  0  0  0
   40.9150   22.4440   36.9060 C   0  0  0  0  0  0  0  0  0  0  0  0
   42.0840   22.8400   36.2700 C   0  0  0  0  0  0  0  0  0  0  0  0
   43.0470   21.8670   36.4870 C   0  0  0  0  0  0  0  0  0  0  0  0
   42.4000   20.9140   37.2570 C   0  0  0  0  0  0  0  0  0  0  0  0
   41.1680   21.3020   37.4680 O   0  0  0  0  0  0  0  0  0  0  0  0
   37.5820   25.7240   33.7630 N   0  0  0  0  0  0  0  0  0  0  0  0
   38.2060   26.1230   32.1990 S   0  0  0  0  0  0  0  0  0  0  0  0
   39.1290   27.2750   32.2820 O   0  0  0  0  0  0  0  0  0  0  0  0
   38.9280   24.9650   31.6460 O   0  0  0  0  0  0  0  0  0  0  0  0
   36.8170   26.5620   31.2110 C   0  0  0  0  0  0  0  0  0  0  0  0
   35.6940   27.7060   31.8920 S   0  0  0  0  0  0  0  0  0  0  0  0
   36.0980   29.0410   32.9080 C   0  0  0  0  0  0  0  0  0  0  0  0
   35.9610   30.4120   32.3480 C   0  0  0  0  0  0  0  0  0  0  0  0
   34.9190   31.2430   33.0680 C   0  0  0  0  0  0  0  0  0  0  0  0
   35.3420   31.4610   34.5190 C   0  0  0  0  0  0  0  0  0  0  0  0
   35.9730   30.1940   35.0500 C   0  0  0  0  0  0  0  0  0  0  0  0
   35.3950   29.0280   34.2790 C   0  0  0  0  0  0  0  0  0  0  0  0
   38.2266   27.1234   35.2113 H   0  0  0  0  0  0  0  0  0  0  0  0
   39.5383   26.3930   34.2758 H   0  0  0  0  0  0  0  0  0  0  0  0
   36.8143   23.7510   38.2695 H   0  0  0  0  0  0  0  0  0  0  0  0
   36.7074   25.5605   36.5658 H   0  0  0  0  0  0  0  0  0  0  0  0
   42.2221   23.7664   35.6932 H   0  0  0  0  0  0  0  0  0  0  0  0
   44.0872   21.8543   36.1296 H   0  0  0  0  0  0  0  0  0  0  0  0
   42.8492   19.9820   37.6306 H   0  0  0  0  0  0  0  0  0  0  0  0
   37.4540   24.7052   33.8439 H   0  0  0  0  0  0  0  0  0  0  0  0
   36.2596   25.6391   30.9929 H   0  0  0  0  0  0  0  0  0  0  0  0
   37.2404   27.0663   30.3299 H   0  0  0  0  0  0  0  0  0  0  0  0
   37.1760   28.8485   33.0120 H   0  0  0  0  0  0  0  0  0  0  0  0
   36.9324   30.9220   32.4274 H   0  0  0  0  0  0  0  0  0  0  0  0
   35.6358   30.3097   31.3022 H   0  0  0  0  0  0  0  0  0  0  0  0
   34.8188   32.2170   32.5667 H   0  0  0  0  0  0  0  0  0  0  0  0
   33.9549   30.7138   33.0468 H   0  0  0  0  0  0  0  0  0  0  0  0
   36.0703   32.2838   34.5700 H   0  0  0  0  0  0  0  0  0  0  0  0
   34.4608   31.7167   35.1258 H   0  0  0  0  0  0  0  0  0  0  0  0
   37.0632   30.2318   34.9086 H   0  0  0  0  0  0  0  0  0  0  0  0
   35.7649   30.0836   36.1245 H   0  0  0  0  0  0  0  0  0  0  0  0
   34.3092   29.1522   34.1538 H   0  0  0  0  0  0  0  0  0  0  0  0
   35.5537   28.0757   34.8062 H   0  0  0  0  0  0  0  0  0  0  0  0
  1  4  1  0
  2  7  2  0
  3  2  1  0
  4  5  1  0
  4  3  2  0
  5  6  2  0
  6  8  1  0
  6  7  1  0
  8 12  1  0
  9 10  1  0
  9  8  2  0
 10 11  2  0
 11 12  1  0
 13  1  1  0
 14 15  2  0
 14 13  1  0
 16 14  2  0
 17 18  1  0
 17 14  1  0
 18 19  1  0
 19 24  1  0
 20 19  1  0
 20 21  1  0
 21 22  1  0
 22 23  1  0
 24 23  1  0
  1 25  1  0
  1 26  1  0
  2 27  1  0
  3 28  1  0
  9 29  1  0
 10 30  1  0
 11 31  1  0
 13 32  1  0
 17 33  1  0
 17 34  1  0
 19 35  1  0
 20 36  1  0
 20 37  1  0
 21 38  1  0
 21 39  1  0
 22 40  1  0
 22 41  1  0
 23 42  1  0
 23 43  1  0
 24 44  1  0
 24 45  1  0
M  ISO  8  25   8  26   8  27  14  28  14  29  14  30  14  31  14  32   5
M  ISO  8  33   8  34   8  35  13  36  13  37  13  38  13  39  13  40  13
M  ISO  5  41  13  42  13  43  13  44  13  45  13
M  END
>  <minimizedAffinity>  (1) 
-4.65268087

>  <minimizedRMSD>  (1) 
5.48834181

$$$$
