
     RDKit          3D

 43 46  0  0  0  0  0  0  0  0999 V2000
   38.5230   25.6450   32.8520 C   0  0  0  0  0  0  0  0  0  0  0  0
   38.1690   22.9900   35.4780 C   0  0  0  0  0  0  0  0  0  0  0  0
   38.4920   24.1880   34.8400 C   0  0  0  0  0  0  0  0  0  0  0  0
   38.1770   24.3640   33.4980 C   0  0  0  0  0  0  0  0  0  0  0  0
   37.5600   23.3420   32.8640 N   0  0  0  0  0  0  0  0  0  0  0  0
   37.2550   22.1760   33.5160 C   0  0  0  0  0  0  0  0  0  0  0  0
   37.5530   22.0040   34.7950 N   0  0  0  0  0  0  0  0  0  0  0  0
   36.5930   21.1230   32.7890 C   0  0  0  0  0  0  0  0  0  0  0  0
   35.2220   21.2030   32.5860 C   0  0  0  0  0  0  0  0  0  0  0  0
   34.8280   20.0810   31.8690 C   0  0  0  0  0  0  0  0  0  0  0  0
   35.9800   19.3710   31.6700 C   0  0  0  0  0  0  0  0  0  0  0  0
   36.9560   20.0270   32.2250 O   0  0  0  0  0  0  0  0  0  0  0  0
   37.4530   26.5800   33.2080 N   0  0  0  0  0  0  0  0  0  0  0  0
   37.1590   27.5250   31.7860 S   0  0  0  0  0  0  0  0  0  0  0  0
   37.7180   28.9130   31.9630 O   0  0  0  0  0  0  0  0  0  0  0  0
   37.8250   26.9060   30.6360 O   0  0  0  0  0  0  0  0  0  0  0  0
   35.4200   27.6280   31.5820 C   0  0  0  0  0  0  0  0  0  0  0  0
   34.5720   28.5040   32.8880 S   0  0  0  0  0  0  0  0  0  0  0  0
   34.6270   30.2810   32.7250 C   0  0  0  0  0  0  0  0  0  0  0  0
   34.1240   30.9830   31.6500 C   0  0  0  0  0  0  0  0  0  0  0  0
   34.3460   32.2830   31.8820 N   0  0  0  0  0  0  0  0  0  0  0  0
   34.9730   32.4580   33.0590 C   0  0  0  0  0  0  0  0  0  0  0  0
   35.4280   33.5540   33.7690 C   0  0  0  0  0  0  0  0  0  0  0  0
   36.0520   33.4200   34.9890 C   0  0  0  0  0  0  0  0  0  0  0  0
   36.2310   32.1720   35.5200 C   0  0  0  0  0  0  0  0  0  0  0  0
   35.7980   31.0170   34.8630 C   0  0  0  0  0  0  0  0  0  0  0  0
   35.1720   31.1970   33.6320 C   0  0  0  0  0  0  0  0  0  0  0  0
   38.5741   25.5207   31.7602 H   0  0  0  0  0  0  0  0  0  0  0  0
   39.5051   26.0115   33.1854 H   0  0  0  0  0  0  0  0  0  0  0  0
   38.4174   22.8496   36.5404 H   0  0  0  0  0  0  0  0  0  0  0  0
   38.9949   24.9915   35.3981 H   0  0  0  0  0  0  0  0  0  0  0  0
   34.5633   22.0131   32.9324 H   0  0  0  0  0  0  0  0  0  0  0  0
   33.8129   19.8205   31.5347 H   0  0  0  0  0  0  0  0  0  0  0  0
   36.0657   18.4138   31.1348 H   0  0  0  0  0  0  0  0  0  0  0  0
   36.6027   26.0657   33.4789 H   0  0  0  0  0  0  0  0  0  0  0  0
   35.2153   28.1444   30.6326 H   0  0  0  0  0  0  0  0  0  0  0  0
   35.0410   26.5955   31.6001 H   0  0  0  0  0  0  0  0  0  0  0  0
   33.6312   30.5541   30.7650 H   0  0  0  0  0  0  0  0  0  0  0  0
   34.0736   33.0455   31.2454 H   0  0  0  0  0  0  0  0  0  0  0  0
   35.2876   34.5603   33.3476 H   0  0  0  0  0  0  0  0  0  0  0  0
   36.4038   34.3094   35.5324 H   0  0  0  0  0  0  0  0  0  0  0  0
   36.7315   32.0745   36.4947 H   0  0  0  0  0  0  0  0  0  0  0  0
   35.9442   30.0165   35.2962 H   0  0  0  0  0  0  0  0  0  0  0  0
  1 13  1  0
  1  4  1  0
  3  2  2  0
  4  3  1  0
  5  4  2  0
  5  6  1  0
  6  7  2  0
  7  2  1  0
  8  6  1  0
  9  8  2  0
 10  9  1  0
 11 10  2  0
 11 12  1  0
 12  8  1  0
 14 15  2  0
 14 13  1  0
 16 14  2  0
 17 14  1  0
 17 18  1  0
 19 18  1  0
 19 27  1  0
 20 21  1  0
 20 19  2  0
 21 22  1  0
 22 27  2  0
 22 23  1  0
 23 24  2  0
 24 25  1  0
 26 25  2  0
 27 26  1  0
  1 28  1  0
  1 29  1  0
  2 30  1  0
  3 31  1  0
  9 32  1  0
 10 33  1  0
 11 34  1  0
 13 35  1  0
 17 36  1  0
 17 37  1  0
 20 38  1  0
 21 39  1  0
 23 40  1  0
 24 41  1  0
 25 42  1  0
 26 43  1  0
M  ISO  8  28   8  29   8  30  14  31  14  32  14  33  14  34  14  35   5
M  ISO  8  36   8  37   8  38  14  39   9  40  14  41  14  42  14  43  14
M  END
>  <minimizedAffinity>  (1) 
-4.07382536

>  <minimizedRMSD>  (1) 
3.43466711

$$$$
