
     RDKit          3D

 42 46  0  0  0  0  0  0  0  0999 V2000
   36.7970   24.4440   31.8680 C   0  0  0  0  0  0  0  0  0  0  0  0
   36.2850   25.7390   31.8740 C   0  0  0  0  0  0  0  0  0  0  0  0
   36.8000   26.5590   32.8390 C   0  0  0  0  0  0  0  0  0  0  0  0
   37.7200   26.0690   33.6690 N   0  0  0  0  0  0  0  0  0  0  0  0
   38.2190   24.8620   33.6900 C   0  0  0  0  0  0  0  0  0  0  0  0
   37.7210   24.0670   32.7540 N   0  0  0  0  0  0  0  0  0  0  0  0
   39.2060   24.2040   34.5190 C   0  0  0  0  0  0  0  0  0  0  0  0
   40.4250   23.8000   34.0360 C   0  0  0  0  0  0  0  0  0  0  0  0
   41.3910   23.1720   34.7860 C   0  0  0  0  0  0  0  0  0  0  0  0
   41.1740   22.9080   36.1120 C   0  0  0  0  0  0  0  0  0  0  0  0
   39.9840   23.2860   36.6490 C   0  0  0  0  0  0  0  0  0  0  0  0
   39.7510   23.0250   37.9960 C   0  0  0  0  0  0  0  0  0  0  0  0
   38.5940   23.3690   38.6060 C   0  0  0  0  0  0  0  0  0  0  0  0
   37.6330   24.0030   37.8300 C   0  0  0  0  0  0  0  0  0  0  0  0
   37.8880   24.2480   36.5040 C   0  0  0  0  0  0  0  0  0  0  0  0
   39.0460   23.9110   35.8620 C   0  0  0  0  0  0  0  0  0  0  0  0
   36.3970   27.9150   32.9940 N   0  0  0  0  0  0  0  0  0  0  0  0
   36.4570   28.8610   32.0250 C   0  0  0  0  0  0  0  0  0  0  0  0
   36.0080   30.0150   32.4990 N   0  0  0  0  0  0  0  0  0  0  0  0
   35.6590   29.8140   33.7690 C   0  0  0  0  0  0  0  0  0  0  0  0
   35.9010   28.5310   34.0580 N   0  0  0  0  0  0  0  0  0  0  0  0
   35.1040   30.5630   34.9130 C   0  0  0  0  0  0  0  0  0  0  0  0
   35.8420   31.4030   35.7290 C   0  0  0  0  0  0  0  0  0  0  0  0
   35.1770   32.0280   36.7540 C   0  0  0  0  0  0  0  0  0  0  0  0
   33.8270   31.8360   36.9740 C   0  0  0  0  0  0  0  0  0  0  0  0
   33.1140   30.9940   36.1470 C   0  0  0  0  0  0  0  0  0  0  0  0
   33.7580   30.3500   35.1050 C   0  0  0  0  0  0  0  0  0  0  0  0
   36.4345   23.7213   31.1221 H   0  0  0  0  0  0  0  0  0  0  0  0
   35.5232   26.0768   31.1560 H   0  0  0  0  0  0  0  0  0  0  0  0
   40.6446   23.9918   32.9753 H   0  0  0  0  0  0  0  0  0  0  0  0
   42.3430   22.8801   34.3186 H   0  0  0  0  0  0  0  0  0  0  0  0
   41.9385   22.4060   36.7232 H   0  0  0  0  0  0  0  0  0  0  0  0
   40.5334   22.5225   38.5837 H   0  0  0  0  0  0  0  0  0  0  0  0
   38.4217   23.1556   39.6713 H   0  0  0  0  0  0  0  0  0  0  0  0
   36.6740   24.3068   38.2749 H   0  0  0  0  0  0  0  0  0  0  0  0
   37.1054   24.7509   35.9170 H   0  0  0  0  0  0  0  0  0  0  0  0
   36.8227   28.6963   31.0007 H   0  0  0  0  0  0  0  0  0  0  0  0
   36.9175   31.5630   35.5627 H   0  0  0  0  0  0  0  0  0  0  0  0
   35.7357   32.7019   37.4201 H   0  0  0  0  0  0  0  0  0  0  0  0
   33.3233   32.3521   37.8046 H   0  0  0  0  0  0  0  0  0  0  0  0
   32.0386   30.8349   36.3147 H   0  0  0  0  0  0  0  0  0  0  0  0
   33.2006   29.6758   34.4381 H   0  0  0  0  0  0  0  0  0  0  0  0
  1  2  2  0
  1  6  1  0
  2  3  1  0
  3 17  1  0
  3  4  2  0
  4  5  1  0
  5  7  1  0
  6  5  2  0
  7 16  1  0
  8  7  2  0
  8  9  1  0
  9 10  2  0
 10 11  1  0
 11 12  2  0
 12 13  1  0
 14 13  2  0
 15 14  1  0
 16 15  2  0
 16 11  1  0
 17 21  1  0
 18 19  2  0
 18 17  1  0
 19 20  1  0
 20 21  2  0
 20 22  1  0
 22 27  1  0
 22 23  2  0
 23 24  1  0
 24 25  2  0
 26 25  1  0
 27 26  2  0
  1 28  1  0
  2 29  1  0
  8 30  1  0
  9 31  1  0
 10 32  1  0
 12 33  1  0
 13 34  1  0
 14 35  1  0
 15 36  1  0
 18 37  1  0
 23 38  1  0
 24 39  1  0
 25 40  1  0
 26 41  1  0
 27 42  1  0
M  ISO  8  28  14  29  14  30  14  31  14  32  14  33  14  34  14  35  14
M  ISO  7  36  14  37  14  38  14  39  14  40  14  41  14  42  14
M  END
>  <minimizedAffinity>  (1) 
-7.28837204

>  <minimizedRMSD>  (1) 
1.92693698

$$$$
