
     RDKit          3D

 35 36  0  0  0  0  0  0  0  0999 V2000
   37.9090   22.8540   36.6750 C   0  0  0  0  0  0  0  0  0  0  0  0
   38.5290   23.9920   36.1960 C   0  0  0  0  0  0  0  0  0  0  0  0
   38.6080   24.2040   34.8180 C   0  0  0  0  0  0  0  0  0  0  0  0
   38.0630   23.2680   34.0170 N   0  0  0  0  0  0  0  0  0  0  0  0
   37.4520   22.1440   34.5390 C   0  0  0  0  0  0  0  0  0  0  0  0
   37.3730   21.9380   35.8280 N   0  0  0  0  0  0  0  0  0  0  0  0
   36.8840   21.1790   33.6170 C   0  0  0  0  0  0  0  0  0  0  0  0
   35.6550   20.6180   33.9070 C   0  0  0  0  0  0  0  0  0  0  0  0
   35.3400   19.7350   32.8780 C   0  0  0  0  0  0  0  0  0  0  0  0
   36.3970   19.8080   32.0180 C   0  0  0  0  0  0  0  0  0  0  0  0
   37.2670   20.6590   32.4880 O   0  0  0  0  0  0  0  0  0  0  0  0
   39.2680   25.4290   34.3200 C   0  0  0  0  0  0  0  0  0  0  0  0
   38.2360   26.4620   34.2980 N   0  0  0  0  0  0  0  0  0  0  0  0
   38.2240   27.0950   32.6880 S   0  0  0  0  0  0  0  0  0  0  0  0
   37.4360   28.3770   32.6420 O   0  0  0  0  0  0  0  0  0  0  0  0
   39.6050   27.3820   32.2650 O   0  0  0  0  0  0  0  0  0  0  0  0
   37.4480   25.9050   31.6600 C   0  0  0  0  0  0  0  0  0  0  0  0
   35.8260   26.3920   31.0740 S   0  0  0  0  0  0  0  0  0  0  0  0
   34.7100   24.9760   30.8770 C   0  0  0  0  0  0  0  0  0  0  0  0
   35.4980   23.7630   31.3800 C   0  0  0  0  0  0  0  0  0  0  0  0
   37.8486   22.6872   37.7606 H   0  0  0  0  0  0  0  0  0  0  0  0
   38.9572   24.7256   36.8949 H   0  0  0  0  0  0  0  0  0  0  0  0
   35.0369   20.8308   34.7917 H   0  0  0  0  0  0  0  0  0  0  0  0
   34.4371   19.1145   32.7797 H   0  0  0  0  0  0  0  0  0  0  0  0
   36.4989   19.2413   31.0807 H   0  0  0  0  0  0  0  0  0  0  0  0
   40.0876   25.7219   34.9926 H   0  0  0  0  0  0  0  0  0  0  0  0
   39.7043   25.2742   33.3222 H   0  0  0  0  0  0  0  0  0  0  0  0
   37.3183   26.0553   34.5289 H   0  0  0  0  0  0  0  0  0  0  0  0
   38.0929   25.7300   30.7863 H   0  0  0  0  0  0  0  0  0  0  0  0
   37.3067   25.0013   32.2711 H   0  0  0  0  0  0  0  0  0  0  0  0
   33.7986   25.1182   31.4763 H   0  0  0  0  0  0  0  0  0  0  0  0
   34.3894   24.8505   29.8323 H   0  0  0  0  0  0  0  0  0  0  0  0
   35.5011   23.7582   32.4800 H   0  0  0  0  0  0  0  0  0  0  0  0
   35.0263   22.8405   31.0107 H   0  0  0  0  0  0  0  0  0  0  0  0
   36.5326   23.8190   31.0107 H   0  0  0  0  0  0  0  0  0  0  0  0
  2  1  2  0
  3  2  1  0
  4  5  1  0
  4  3  2  0
  5  6  2  0
  6  1  1  0
  7  8  2  0
  7  5  1  0
  9  8  1  0
 10 11  1  0
 10  9  2  0
 11  7  1  0
 12  3  1  0
 13 12  1  0
 14 13  1  0
 15 14  2  0
 16 14  2  0
 17 14  1  0
 18 17  1  0
 19 18  1  0
 19 20  1  0
  1 21  1  0
  2 22  1  0
  8 23  1  0
  9 24  1  0
 10 25  1  0
 12 26  1  0
 12 27  1  0
 13 28  1  0
 17 29  1  0
 17 30  1  0
 19 31  1  0
 19 32  1  0
 20 33  1  0
 20 34  1  0
 20 35  1  0
M  ISO  8  21  14  22  14  23  14  24  14  25  14  26   8  27   8  28   5
M  ISO  7  29   8  30   8  31   8  32   8  33   8  34   8  35   8
M  END
>  <minimizedAffinity>  (1) 
-3.99898052

>  <minimizedRMSD>  (1) 
1.29946995

$$$$
