
     RDKit          3D

 32 33  0  0  0  0  0  0  0  0999 V2000
   37.9940   22.8520   36.6190 C   0  0  0  0  0  0  0  0  0  0  0  0
   38.4160   24.0680   36.1050 C   0  0  0  0  0  0  0  0  0  0  0  0
   38.3380   24.3130   34.7390 C   0  0  0  0  0  0  0  0  0  0  0  0
   37.8440   23.3340   33.9780 N   0  0  0  0  0  0  0  0  0  0  0  0
   37.4320   22.1390   34.5100 C   0  0  0  0  0  0  0  0  0  0  0  0
   37.5030   21.8960   35.7970 N   0  0  0  0  0  0  0  0  0  0  0  0
   36.9050   21.1190   33.6100 C   0  0  0  0  0  0  0  0  0  0  0  0
   35.6570   20.5670   33.8790 C   0  0  0  0  0  0  0  0  0  0  0  0
   35.3940   19.6340   32.8820 C   0  0  0  0  0  0  0  0  0  0  0  0
   36.4960   19.6680   32.0600 C   0  0  0  0  0  0  0  0  0  0  0  0
   37.3340   20.5400   32.5280 O   0  0  0  0  0  0  0  0  0  0  0  0
   38.7870   25.6220   34.2180 C   0  0  0  0  0  0  0  0  0  0  0  0
   37.5830   26.2990   33.7310 N   0  0  0  0  0  0  0  0  0  0  0  0
   38.0300   27.0440   32.2340 S   0  0  0  0  0  0  0  0  0  0  0  0
   37.2350   28.3070   32.0230 O   0  0  0  0  0  0  0  0  0  0  0  0
   39.4560   27.3930   32.2650 O   0  0  0  0  0  0  0  0  0  0  0  0
   37.6510   25.9120   30.9480 C   0  0  0  0  0  0  0  0  0  0  0  0
   36.2990   24.7950   31.3400 S   0  0  0  0  0  0  0  0  0  0  0  0
   34.7000   25.4100   30.7640 C   0  0  0  0  0  0  0  0  0  0  0  0
   38.0586   22.6632   37.7007 H   0  0  0  0  0  0  0  0  0  0  0  0
   38.8135   24.8408   36.7794 H   0  0  0  0  0  0  0  0  0  0  0  0
   34.9999   20.8213   34.7237 H   0  0  0  0  0  0  0  0  0  0  0  0
   34.4982   19.0048   32.7741 H   0  0  0  0  0  0  0  0  0  0  0  0
   36.6422   19.0576   31.1566 H   0  0  0  0  0  0  0  0  0  0  0  0
   39.2585   26.2104   35.0189 H   0  0  0  0  0  0  0  0  0  0  0  0
   39.5325   25.5023   33.4181 H   0  0  0  0  0  0  0  0  0  0  0  0
   36.8253   25.6178   33.5800 H   0  0  0  0  0  0  0  0  0  0  0  0
   38.5483   25.3108   30.7396 H   0  0  0  0  0  0  0  0  0  0  0  0
   37.3327   26.5081   30.0800 H   0  0  0  0  0  0  0  0  0  0  0  0
   34.0671   25.6534   31.6302 H   0  0  0  0  0  0  0  0  0  0  0  0
   34.8523   26.3137   30.1556 H   0  0  0  0  0  0  0  0  0  0  0  0
   34.2074   24.6372   30.1556 H   0  0  0  0  0  0  0  0  0  0  0  0
  2  1  2  0
  3  2  1  0
  4  5  1  0
  4  3  2  0
  5  6  2  0
  6  1  1  0
  7  8  2  0
  7  5  1  0
  9  8  1  0
 10 11  1  0
 10  9  2  0
 11  7  1  0
 12  3  1  0
 13 12  1  0
 14 16  2  0
 14 13  1  0
 15 14  2  0
 17 18  1  0
 17 14  1  0
 19 18  1  0
  1 20  1  0
  2 21  1  0
  8 22  1  0
  9 23  1  0
 10 24  1  0
 12 25  1  0
 12 26  1  0
 13 27  1  0
 17 28  1  0
 17 29  1  0
 19 30  1  0
 19 31  1  0
 19 32  1  0
M  ISO  8  20  14  21  14  22  14  23  14  24  14  25   8  26   8  27   5
M  ISO  5  28   8  29   8  30   8  31   8  32   8
M  END
>  <minimizedAffinity>  (1) 
-3.99123669

>  <minimizedRMSD>  (1) 
1.12812078

$$$$
