
     RDKit          3D

 34 36  0  0  0  0  0  0  0  0999 V2000
   39.7660   23.9820   33.5280 C   0  0  0  0  0  0  0  0  0  0  0  0
   37.6740   22.3900   36.2120 C   0  0  0  0  0  0  0  0  0  0  0  0
   38.6330   23.1720   35.5710 C   0  0  0  0  0  0  0  0  0  0  0  0
   38.7460   23.1420   34.1840 C   0  0  0  0  0  0  0  0  0  0  0  0
   37.8950   22.3360   33.5300 N   0  0  0  0  0  0  0  0  0  0  0  0
   36.9560   21.5730   34.1860 C   0  0  0  0  0  0  0  0  0  0  0  0
   36.8470   21.5990   35.4860 N   0  0  0  0  0  0  0  0  0  0  0  0
   36.0740   20.7280   33.4080 C   0  0  0  0  0  0  0  0  0  0  0  0
   35.2060   21.3050   32.5030 C   0  0  0  0  0  0  0  0  0  0  0  0
   34.4770   20.2880   31.8900 C   0  0  0  0  0  0  0  0  0  0  0  0
   34.9480   19.1330   32.4660 C   0  0  0  0  0  0  0  0  0  0  0  0
   35.8720   19.4450   33.3380 O   0  0  0  0  0  0  0  0  0  0  0  0
   39.0410   25.0540   32.8650 N   0  0  0  0  0  0  0  0  0  0  0  0
   39.3230   24.8680   31.1710 S   0  0  0  0  0  0  0  0  0  0  0  0
   39.6020   26.1990   30.5280 O   0  0  0  0  0  0  0  0  0  0  0  0
   40.4930   23.9960   30.9670 O   0  0  0  0  0  0  0  0  0  0  0  0
   37.8650   24.1740   30.4690 C   0  0  0  0  0  0  0  0  0  0  0  0
   36.3500   24.7760   31.2190 S   0  0  0  0  0  0  0  0  0  0  0  0
   36.3750   26.5060   31.6020 C   0  0  0  0  0  0  0  0  0  0  0  0
   36.1800   27.4670   30.6530 N   0  0  0  0  0  0  0  0  0  0  0  0
   36.2480   28.6560   31.2020 O   0  0  0  0  0  0  0  0  0  0  0  0
   36.4850   28.5110   32.5050 C   0  0  0  0  0  0  0  0  0  0  0  0
   36.5600   27.2000   32.7380 N   0  0  0  0  0  0  0  0  0  0  0  0
   40.4586   24.3953   34.2760 H   0  0  0  0  0  0  0  0  0  0  0  0
   40.3657   23.4003   32.8124 H   0  0  0  0  0  0  0  0  0  0  0  0
   37.5882   22.4148   37.3084 H   0  0  0  0  0  0  0  0  0  0  0  0
   39.3021   23.8143   36.1624 H   0  0  0  0  0  0  0  0  0  0  0  0
   35.1069   22.3817   32.3007 H   0  0  0  0  0  0  0  0  0  0  0  0
   33.6993   20.3875   31.1184 H   0  0  0  0  0  0  0  0  0  0  0  0
   34.6049   18.1143   32.2325 H   0  0  0  0  0  0  0  0  0  0  0  0
   38.0338   24.9800   33.0677 H   0  0  0  0  0  0  0  0  0  0  0  0
   37.8440   24.4200   29.3971 H   0  0  0  0  0  0  0  0  0  0  0  0
   37.9051   23.0895   30.6486 H   0  0  0  0  0  0  0  0  0  0  0  0
   36.5971   29.3167   33.2454 H   0  0  0  0  0  0  0  0  0  0  0  0
  1  4  1  0
  3  2  2  0
  4  3  1  0
  5  4  2  0
  5  6  1  0
  6  7  2  0
  7  2  1  0
  8  6  1  0
  9  8  2  0
 10 11  2  0
 10  9  1  0
 11 12  1  0
 12  8  1  0
 13  1  1  0
 14 13  1  0
 15 14  2  0
 16 14  2  0
 17 14  1  0
 17 18  1  0
 18 19  1  0
 19 23  1  0
 20 21  1  0
 20 19  2  0
 21 22  1  0
 22 23  2  0
  1 24  1  0
  1 25  1  0
  2 26  1  0
  3 27  1  0
  9 28  1  0
 10 29  1  0
 11 30  1  0
 13 31  1  0
 17 32  1  0
 17 33  1  0
 22 34  1  0
M  ISO  8  24   8  25   8  26  14  27  14  28  14  29  14  30  14  31   5
M  ISO  3  32   8  33   8  34  14
M  END
>  <minimizedAffinity>  (1) 
-4.06288528

>  <minimizedRMSD>  (1) 
2.77702117

$$$$
