
     RDKit          3D

 42 45  0  0  0  0  0  0  0  0999 V2000
   39.0030   25.0970   32.9380 N   0  0  0  0  0  0  0  0  0  0  0  0
   39.7290   24.0480   33.5920 C   0  0  0  0  0  0  0  0  0  0  0  0
   37.6510   22.3800   36.2410 C   0  0  0  0  0  0  0  0  0  0  0  0
   38.5940   23.1810   35.6200 C   0  0  0  0  0  0  0  0  0  0  0  0
   38.7100   23.1820   34.2350 C   0  0  0  0  0  0  0  0  0  0  0  0
   37.8660   22.3740   33.5660 N   0  0  0  0  0  0  0  0  0  0  0  0
   36.9400   21.5910   34.2090 C   0  0  0  0  0  0  0  0  0  0  0  0
   36.8320   21.5900   35.5030 N   0  0  0  0  0  0  0  0  0  0  0  0
   36.0680   20.7480   33.4140 C   0  0  0  0  0  0  0  0  0  0  0  0
   35.2150   21.3440   32.4970 C   0  0  0  0  0  0  0  0  0  0  0  0
   34.4960   20.3160   31.8740 C   0  0  0  0  0  0  0  0  0  0  0  0
   34.9590   19.1570   32.4540 C   0  0  0  0  0  0  0  0  0  0  0  0
   35.8640   19.4600   33.3340 O   0  0  0  0  0  0  0  0  0  0  0  0
   39.2920   24.9950   31.2630 S   0  0  0  0  0  0  0  0  0  0  0  0
   39.5910   26.3390   30.6690 O   0  0  0  0  0  0  0  0  0  0  0  0
   40.4560   24.1060   31.0250 O   0  0  0  0  0  0  0  0  0  0  0  0
   37.8250   24.3470   30.5150 C   0  0  0  0  0  0  0  0  0  0  0  0
   36.3240   24.8900   31.3120 S   0  0  0  0  0  0  0  0  0  0  0  0
   36.2120   26.6440   31.5190 C   0  0  0  0  0  0  0  0  0  0  0  0
   36.2980   27.5080   30.4800 N   0  0  0  0  0  0  0  0  0  0  0  0
   36.1830   28.7410   30.9070 O   0  0  0  0  0  0  0  0  0  0  0  0
   36.0190   28.7180   32.2220 C   0  0  0  0  0  0  0  0  0  0  0  0
   36.0380   27.4360   32.5880 N   0  0  0  0  0  0  0  0  0  0  0  0
   35.8510   29.8840   33.1040 C   0  0  0  0  0  0  0  0  0  0  0  0
   35.6640   29.7430   34.4840 C   0  0  0  0  0  0  0  0  0  0  0  0
   35.5160   30.9290   35.2100 C   0  0  0  0  0  0  0  0  0  0  0  0
   35.5540   32.1340   34.6040 N   0  0  0  0  0  0  0  0  0  0  0  0
   35.7360   32.2360   33.2670 C   0  0  0  0  0  0  0  0  0  0  0  0
   35.8810   31.1200   32.5450 N   0  0  0  0  0  0  0  0  0  0  0  0
   37.9955   24.9896   33.1235 H   0  0  0  0  0  0  0  0  0  0  0  0
   40.3116   23.4718   32.8581 H   0  0  0  0  0  0  0  0  0  0  0  0
   40.4387   24.4499   34.3301 H   0  0  0  0  0  0  0  0  0  0  0  0
   37.5656   22.3843   37.3377 H   0  0  0  0  0  0  0  0  0  0  0  0
   39.2543   23.8194   36.2253 H   0  0  0  0  0  0  0  0  0  0  0  0
   35.1208   22.4215   32.2967 H   0  0  0  0  0  0  0  0  0  0  0  0
   33.7287   20.4137   31.0919 H   0  0  0  0  0  0  0  0  0  0  0  0
   34.6178   18.1398   32.2115 H   0  0  0  0  0  0  0  0  0  0  0  0
   37.7979   24.6696   29.4637 H   0  0  0  0  0  0  0  0  0  0  0  0
   37.8669   23.2522   30.6130 H   0  0  0  0  0  0  0  0  0  0  0  0
   35.6351   28.7563   34.9694 H   0  0  0  0  0  0  0  0  0  0  0  0
   35.3654   30.8785   36.2985 H   0  0  0  0  0  0  0  0  0  0  0  0
   35.7642   33.2225   32.7813 H   0  0  0  0  0  0  0  0  0  0  0  0
  1  2  1  0
  2  5  1  0
  4  3  2  0
  5  4  1  0
  6  7  1  0
  6  5  2  0
  7  8  2  0
  8  3  1  0
  9  7  1  0
 10  9  2  0
 11 12  2  0
 11 10  1  0
 12 13  1  0
 13  9  1  0
 14  1  1  0
 15 14  2  0
 16 14  2  0
 17 14  1  0
 17 18  1  0
 18 19  1  0
 19 23  1  0
 20 21  1  0
 20 19  2  0
 21 22  1  0
 22 23  2  0
 22 24  1  0
 24 25  2  0
 25 26  1  0
 27 26  2  0
 28 27  1  0
 29 24  1  0
 29 28  2  0
  1 30  1  0
  2 31  1  0
  2 32  1  0
  3 33  1  0
  4 34  1  0
 10 35  1  0
 11 36  1  0
 12 37  1  0
 17 38  1  0
 17 39  1  0
 25 40  1  0
 26 41  1  0
 28 42  1  0
M  ISO  8  30   5  31   8  32   8  33  14  34  14  35  14  36  14  37  14
M  ISO  5  38   8  39   8  40  14  41  14  42  14
M  END
>  <minimizedAffinity>  (1) 
-4.81785154

>  <minimizedRMSD>  (1) 
0.627155781

$$$$
