
     RDKit          3D

 41 44  0  0  0  0  0  0  0  0999 V2000
   39.6170   24.1990   33.6970 C   0  0  0  0  0  0  0  0  0  0  0  0
   37.6060   22.4090   36.3190 C   0  0  0  0  0  0  0  0  0  0  0  0
   38.5150   23.2530   35.7070 C   0  0  0  0  0  0  0  0  0  0  0  0
   38.6300   23.2820   34.3240 C   0  0  0  0  0  0  0  0  0  0  0  0
   37.8170   22.4560   33.6380 N   0  0  0  0  0  0  0  0  0  0  0  0
   36.9220   21.6280   34.2620 C   0  0  0  0  0  0  0  0  0  0  0  0
   36.8170   21.6050   35.5650 N   0  0  0  0  0  0  0  0  0  0  0  0
   36.0810   20.7690   33.4600 C   0  0  0  0  0  0  0  0  0  0  0  0
   35.2260   21.3530   32.5320 C   0  0  0  0  0  0  0  0  0  0  0  0
   34.5360   20.3150   31.8980 C   0  0  0  0  0  0  0  0  0  0  0  0
   35.0100   19.1580   32.4770 C   0  0  0  0  0  0  0  0  0  0  0  0
   35.9050   19.4820   33.3760 O   0  0  0  0  0  0  0  0  0  0  0  0
   38.8570   25.1340   32.9250 N   0  0  0  0  0  0  0  0  0  0  0  0
   39.3120   24.9820   31.2930 S   0  0  0  0  0  0  0  0  0  0  0  0
   39.5900   26.3220   30.6590 O   0  0  0  0  0  0  0  0  0  0  0  0
   40.5470   24.1660   31.2030 O   0  0  0  0  0  0  0  0  0  0  0  0
   37.9730   24.2160   30.4320 C   0  0  0  0  0  0  0  0  0  0  0  0
   36.3670   24.6990   31.0600 S   0  0  0  0  0  0  0  0  0  0  0  0
   36.2200   26.4270   31.4200 C   0  0  0  0  0  0  0  0  0  0  0  0
   36.2460   27.3760   30.4350 N   0  0  0  0  0  0  0  0  0  0  0  0
   36.1160   28.5710   30.9830 O   0  0  0  0  0  0  0  0  0  0  0  0
   36.0080   28.4250   32.2840 C   0  0  0  0  0  0  0  0  0  0  0  0
   36.0720   27.1240   32.5470 N   0  0  0  0  0  0  0  0  0  0  0  0
   35.8510   29.4980   33.2130 C   0  0  0  0  0  0  0  0  0  0  0  0
   35.7780   29.6170   34.5820 C   0  0  0  0  0  0  0  0  0  0  0  0
   35.6200   30.8520   35.1390 C   0  0  0  0  0  0  0  0  0  0  0  0
   35.5350   32.0010   34.2620 C   0  0  0  0  0  0  0  0  0  0  0  0
   35.6870   31.2600   32.6160 S   0  0  0  0  0  0  0  0  0  0  0  0
   40.1952   24.7244   34.4713 H   0  0  0  0  0  0  0  0  0  0  0  0
   40.3337   23.6490   33.0694 H   0  0  0  0  0  0  0  0  0  0  0  0
   37.5235   22.3903   37.4157 H   0  0  0  0  0  0  0  0  0  0  0  0
   39.1519   23.9065   36.3212 H   0  0  0  0  0  0  0  0  0  0  0  0
   35.1135   22.4291   32.3338 H   0  0  0  0  0  0  0  0  0  0  0  0
   33.7772   20.4033   31.1065 H   0  0  0  0  0  0  0  0  0  0  0  0
   34.6907   18.1356   32.2264 H   0  0  0  0  0  0  0  0  0  0  0  0
   37.8520   24.9321   33.0258 H   0  0  0  0  0  0  0  0  0  0  0  0
   38.0731   23.1248   30.5286 H   0  0  0  0  0  0  0  0  0  0  0  0
   38.0272   24.5430   29.3831 H   0  0  0  0  0  0  0  0  0  0  0  0
   35.8464   28.7244   35.2212 H   0  0  0  0  0  0  0  0  0  0  0  0
   35.5585   30.9725   36.2307 H   0  0  0  0  0  0  0  0  0  0  0  0
   35.4093   33.0607   34.5290 H   0  0  0  0  0  0  0  0  0  0  0  0
  1  4  1  0
  3  2  2  0
  4  3  1  0
  5  6  1  0
  5  4  2  0
  6  7  2  0
  7  2  1  0
  8  6  1  0
  9  8  2  0
 10 11  2  0
 10  9  1  0
 11 12  1  0
 12  8  1  0
 13  1  1  0
 14 13  1  0
 15 14  2  0
 16 14  2  0
 17 18  1  0
 17 14  1  0
 18 19  1  0
 19 23  1  0
 20 21  1  0
 20 19  2  0
 21 22  1  0
 22 23  2  0
 22 24  1  0
 24 25  2  0
 25 26  1  0
 27 26  2  0
 28 24  1  0
 28 27  1  0
  1 29  1  0
  1 30  1  0
  2 31  1  0
  3 32  1  0
  9 33  1  0
 10 34  1  0
 11 35  1  0
 13 36  1  0
 17 37  1  0
 17 38  1  0
 25 39  1  0
 26 40  1  0
 27 41  1  0
M  ISO  8  29   8  30   8  31  14  32  14  33  14  34  14  35  14  36   5
M  ISO  5  37   8  38   8  39  14  40  14  41  14
M  END
>  <minimizedAffinity>  (1) 
-4.76575804

>  <minimizedRMSD>  (1) 
0.535568058

$$$$
