
     RDKit          3D

 41 44  0  0  0  0  0  0  0  0999 V2000
   38.7450   25.1930   33.0030 N   0  0  0  0  0  0  0  0  0  0  0  0
   39.5190   24.3060   33.8140 C   0  0  0  0  0  0  0  0  0  0  0  0
   37.5480   22.4100   36.3920 C   0  0  0  0  0  0  0  0  0  0  0  0
   38.4390   23.2890   35.8030 C   0  0  0  0  0  0  0  0  0  0  0  0
   38.5560   23.3510   34.4190 C   0  0  0  0  0  0  0  0  0  0  0  0
   37.7640   22.5190   33.7140 N   0  0  0  0  0  0  0  0  0  0  0  0
   36.8890   21.6590   34.3250 C   0  0  0  0  0  0  0  0  0  0  0  0
   36.7790   21.6000   35.6200 N   0  0  0  0  0  0  0  0  0  0  0  0
   36.0700   20.7970   33.5010 C   0  0  0  0  0  0  0  0  0  0  0  0
   35.2480   21.3630   32.5440 C   0  0  0  0  0  0  0  0  0  0  0  0
   34.5730   20.3320   31.8930 C   0  0  0  0  0  0  0  0  0  0  0  0
   35.0280   19.1770   32.4990 C   0  0  0  0  0  0  0  0  0  0  0  0
   35.8900   19.5050   33.4200 O   0  0  0  0  0  0  0  0  0  0  0  0
   39.2270   24.9950   31.3840 S   0  0  0  0  0  0  0  0  0  0  0  0
   39.5640   26.3190   30.7440 O   0  0  0  0  0  0  0  0  0  0  0  0
   40.4240   24.1330   31.3260 O   0  0  0  0  0  0  0  0  0  0  0  0
   37.8640   24.2850   30.5080 C   0  0  0  0  0  0  0  0  0  0  0  0
   36.2730   24.8160   31.1150 S   0  0  0  0  0  0  0  0  0  0  0  0
   36.1690   26.5520   31.4380 C   0  0  0  0  0  0  0  0  0  0  0  0
   36.2730   27.4930   30.4600 N   0  0  0  0  0  0  0  0  0  0  0  0
   36.1590   28.6900   30.9760 O   0  0  0  0  0  0  0  0  0  0  0  0
   35.9790   28.5750   32.2840 C   0  0  0  0  0  0  0  0  0  0  0  0
   35.9880   27.2680   32.5560 N   0  0  0  0  0  0  0  0  0  0  0  0
   35.8090   29.6770   33.2250 C   0  0  0  0  0  0  0  0  0  0  0  0
   35.6570   31.0060   32.8880 C   0  0  0  0  0  0  0  0  0  0  0  0
   35.5300   31.6960   34.0370 N   0  0  0  0  0  0  0  0  0  0  0  0
   35.6040   30.7970   35.0620 C   0  0  0  0  0  0  0  0  0  0  0  0
   35.7770   29.5480   34.5590 N   0  0  0  0  0  0  0  0  0  0  0  0
   37.7444   24.9682   33.0984 H   0  0  0  0  0  0  0  0  0  0  0  0
   40.2531   23.7676   33.1966 H   0  0  0  0  0  0  0  0  0  0  0  0
   40.0785   24.8543   34.5862 H   0  0  0  0  0  0  0  0  0  0  0  0
   37.4623   22.3672   37.4878 H   0  0  0  0  0  0  0  0  0  0  0  0
   39.0590   23.9431   36.4337 H   0  0  0  0  0  0  0  0  0  0  0  0
   35.1450   22.4378   32.3335 H   0  0  0  0  0  0  0  0  0  0  0  0
   33.8402   20.4188   31.0772 H   0  0  0  0  0  0  0  0  0  0  0  0
   34.7155   18.1529   32.2468 H   0  0  0  0  0  0  0  0  0  0  0  0
   37.9238   23.1904   30.5993 H   0  0  0  0  0  0  0  0  0  0  0  0
   37.9403   24.6216   29.4636 H   0  0  0  0  0  0  0  0  0  0  0  0
   35.6423   31.4239   31.8706 H   0  0  0  0  0  0  0  0  0  0  0  0
   35.5342   31.0465   36.1311 H   0  0  0  0  0  0  0  0  0  0  0  0
   35.8661   28.6738   35.0963 H   0  0  0  0  0  0  0  0  0  0  0  0
  1  2  1  0
  2  5  1  0
  4  3  2  0
  5  4  1  0
  6  7  1  0
  6  5  2  0
  7  8  2  0
  8  3  1  0
  9  7  1  0
 10  9  2  0
 11 12  2  0
 11 10  1  0
 12 13  1  0
 13  9  1  0
 14  1  1  0
 15 14  2  0
 16 14  2  0
 17 18  1  0
 17 14  1  0
 18 19  1  0
 19 23  1  0
 20 21  1  0
 20 19  2  0
 21 22  1  0
 22 23  2  0
 22 24  1  0
 24 28  1  0
 25 24  2  0
 25 26  1  0
 26 27  2  0
 28 27  1  0
  1 29  1  0
  2 30  1  0
  2 31  1  0
  3 32  1  0
  4 33  1  0
 10 34  1  0
 11 35  1  0
 12 36  1  0
 17 37  1  0
 17 38  1  0
 25 39  1  0
 27 40  1  0
 28 41  1  0
M  ISO  8  29   5  30   8  31   8  32  14  33  14  34  14  35  14  36  14
M  ISO  5  37   8  38   8  39  14  40  14  41   9
M  END
>  <minimizedAffinity>  (1) 
-4.59673738

>  <minimizedRMSD>  (1) 
0.619405866

$$$$
