
     RDKit          3D

 39 42  0  0  0  0  0  0  0  0999 V2000
   38.7510   25.1870   33.0040 N   0  0  0  0  0  0  0  0  0  0  0  0
   39.5220   24.2970   33.8150 C   0  0  0  0  0  0  0  0  0  0  0  0
   37.5450   22.4080   36.3950 C   0  0  0  0  0  0  0  0  0  0  0  0
   38.4370   23.2850   35.8030 C   0  0  0  0  0  0  0  0  0  0  0  0
   38.5560   23.3440   34.4190 C   0  0  0  0  0  0  0  0  0  0  0  0
   37.7650   22.5110   33.7150 N   0  0  0  0  0  0  0  0  0  0  0  0
   36.8880   21.6530   34.3270 C   0  0  0  0  0  0  0  0  0  0  0  0
   36.7770   21.5980   35.6220 N   0  0  0  0  0  0  0  0  0  0  0  0
   36.0690   20.7900   33.5030 C   0  0  0  0  0  0  0  0  0  0  0  0
   35.2330   21.3550   32.5570 C   0  0  0  0  0  0  0  0  0  0  0  0
   34.5620   20.3260   31.9040 C   0  0  0  0  0  0  0  0  0  0  0  0
   35.0300   19.1720   32.4960 C   0  0  0  0  0  0  0  0  0  0  0  0
   35.8990   19.5000   33.4140 O   0  0  0  0  0  0  0  0  0  0  0  0
   39.2260   24.9880   31.3850 S   0  0  0  0  0  0  0  0  0  0  0  0
   39.5680   26.3090   30.7370 O   0  0  0  0  0  0  0  0  0  0  0  0
   40.4220   24.1210   31.3260 O   0  0  0  0  0  0  0  0  0  0  0  0
   37.8630   24.2780   30.5110 C   0  0  0  0  0  0  0  0  0  0  0  0
   36.2740   24.8110   31.1210 S   0  0  0  0  0  0  0  0  0  0  0  0
   36.1730   26.5480   31.4440 C   0  0  0  0  0  0  0  0  0  0  0  0
   36.2690   27.4820   30.4630 N   0  0  0  0  0  0  0  0  0  0  0  0
   36.1590   28.6850   30.9770 O   0  0  0  0  0  0  0  0  0  0  0  0
   35.9910   28.5730   32.2860 C   0  0  0  0  0  0  0  0  0  0  0  0
   36.0010   27.2590   32.5640 N   0  0  0  0  0  0  0  0  0  0  0  0
   35.8350   29.7220   33.1780 C   0  0  0  0  0  0  0  0  0  0  0  0
   35.7200   31.0490   32.9820 N   0  0  0  0  0  0  0  0  0  0  0  0
   35.6000   31.6570   34.1240 O   0  0  0  0  0  0  0  0  0  0  0  0
   35.6290   30.7770   35.1080 C   0  0  0  0  0  0  0  0  0  0  0  0
   35.7750   29.5560   34.5310 N   0  0  0  0  0  0  0  0  0  0  0  0
   37.7495   24.9670   33.1019 H   0  0  0  0  0  0  0  0  0  0  0  0
   40.2549   23.7569   33.1976 H   0  0  0  0  0  0  0  0  0  0  0  0
   40.0824   24.8433   34.5880 H   0  0  0  0  0  0  0  0  0  0  0  0
   37.4583   22.3672   37.4908 H   0  0  0  0  0  0  0  0  0  0  0  0
   39.0567   23.9406   36.4324 H   0  0  0  0  0  0  0  0  0  0  0  0
   35.1186   22.4304   32.3560 H   0  0  0  0  0  0  0  0  0  0  0  0
   33.8221   20.4136   31.0948 H   0  0  0  0  0  0  0  0  0  0  0  0
   34.7231   18.1476   32.2384 H   0  0  0  0  0  0  0  0  0  0  0  0
   37.9223   23.1834   30.6028 H   0  0  0  0  0  0  0  0  0  0  0  0
   37.9381   24.6128   29.4659 H   0  0  0  0  0  0  0  0  0  0  0  0
   35.5503   30.9908   36.1842 H   0  0  0  0  0  0  0  0  0  0  0  0
  1  2  1  0
  2  5  1  0
  4  3  2  0
  5  4  1  0
  6  7  1  0
  6  5  2  0
  7  8  2  0
  8  3  1  0
  9  7  1  0
 10  9  2  0
 11 12  2  0
 11 10  1  0
 12 13  1  0
 13  9  1  0
 14  1  1  0
 15 14  2  0
 16 14  2  0
 17 18  1  0
 17 14  1  0
 18 19  1  0
 19 23  1  0
 20 21  1  0
 20 19  2  0
 21 22  1  0
 22 23  2  0
 22 24  1  0
 24 28  1  0
 25 24  2  0
 25 26  1  0
 26 27  1  0
 28 27  2  0
  1 29  1  0
  2 30  1  0
  2 31  1  0
  3 32  1  0
  4 33  1  0
 10 34  1  0
 11 35  1  0
 12 36  1  0
 17 37  1  0
 17 38  1  0
 27 39  1  0
M  ISO  8  29   5  30   8  31   8  32  14  33  14  34  14  35  14  36  14
M  ISO  3  37   8  38   8  39  14
M  END
>  <minimizedAffinity>  (1) 
-4.59458256

>  <minimizedRMSD>  (1) 
0.559855402

$$$$
