
     RDKit          3D

 37 39  0  0  0  0  0  0  0  0999 V2000
   39.9830   23.9030   33.3640 C   0  0  0  0  0  0  0  0  0  0  0  0
   37.8450   22.4510   36.0920 C   0  0  0  0  0  0  0  0  0  0  0  0
   38.8190   23.1770   35.4300 C   0  0  0  0  0  0  0  0  0  0  0  0
   38.9290   23.1110   34.0470 C   0  0  0  0  0  0  0  0  0  0  0  0
   38.0480   22.3140   33.4170 N   0  0  0  0  0  0  0  0  0  0  0  0
   37.0920   21.6060   34.1000 C   0  0  0  0  0  0  0  0  0  0  0  0
   36.9900   21.6680   35.3910 N   0  0  0  0  0  0  0  0  0  0  0  0
   36.1780   20.7670   33.3460 C   0  0  0  0  0  0  0  0  0  0  0  0
   35.2320   21.3650   32.5330 C   0  0  0  0  0  0  0  0  0  0  0  0
   34.4890   20.3540   31.9280 C   0  0  0  0  0  0  0  0  0  0  0  0
   35.0280   19.1760   32.4110 C   0  0  0  0  0  0  0  0  0  0  0  0
   36.0020   19.4760   33.2280 O   0  0  0  0  0  0  0  0  0  0  0  0
   39.3290   25.0620   32.8290 N   0  0  0  0  0  0  0  0  0  0  0  0
   39.7520   25.1950   31.1830 S   0  0  0  0  0  0  0  0  0  0  0  0
   39.7650   26.6390   30.7330 O   0  0  0  0  0  0  0  0  0  0  0  0
   41.0970   24.6280   30.9690 O   0  0  0  0  0  0  0  0  0  0  0  0
   38.5220   24.3310   30.2520 C   0  0  0  0  0  0  0  0  0  0  0  0
   36.8750   24.4760   30.9260 S   0  0  0  0  0  0  0  0  0  0  0  0
   36.4900   26.0900   31.5490 C   0  0  0  0  0  0  0  0  0  0  0  0
   36.0280   27.0860   30.7340 N   0  0  0  0  0  0  0  0  0  0  0  0
   35.8230   28.1730   31.4360 O   0  0  0  0  0  0  0  0  0  0  0  0
   36.1400   27.9190   32.7060 C   0  0  0  0  0  0  0  0  0  0  0  0
   36.5420   26.6550   32.7570 N   0  0  0  0  0  0  0  0  0  0  0  0
   36.0260   28.9410   33.7830 C   0  0  0  0  0  0  0  0  0  0  0  0
   40.7611   24.2016   34.0819 H   0  0  0  0  0  0  0  0  0  0  0  0
   40.4739   23.3183   32.5720 H   0  0  0  0  0  0  0  0  0  0  0  0
   37.7648   22.5095   37.1875 H   0  0  0  0  0  0  0  0  0  0  0  0
   39.5114   23.8111   36.0031 H   0  0  0  0  0  0  0  0  0  0  0  0
   35.0915   22.4465   32.3898 H   0  0  0  0  0  0  0  0  0  0  0  0
   33.6549   20.4680   31.2200 H   0  0  0  0  0  0  0  0  0  0  0  0
   34.6940   18.1605   32.1518 H   0  0  0  0  0  0  0  0  0  0  0  0
   38.3081   24.9602   32.9201 H   0  0  0  0  0  0  0  0  0  0  0  0
   38.7929   23.2652   30.2243 H   0  0  0  0  0  0  0  0  0  0  0  0
   38.4998   24.7856   29.2506 H   0  0  0  0  0  0  0  0  0  0  0  0
   36.0811   28.4472   34.7644 H   0  0  0  0  0  0  0  0  0  0  0  0
   36.8490   29.6650   33.6901 H   0  0  0  0  0  0  0  0  0  0  0  0
   35.0637   29.4658   33.6901 H   0  0  0  0  0  0  0  0  0  0  0  0
  1  4  1  0
  3  2  2  0
  4  3  1  0
  5  4  2  0
  5  6  1  0
  6  7  2  0
  7  2  1  0
  8  6  1  0
  9  8  2  0
 10 11  2  0
 10  9  1  0
 11 12  1  0
 12  8  1  0
 13  1  1  0
 14 13  1  0
 15 14  2  0
 16 14  2  0
 17 18  1  0
 17 14  1  0
 18 19  1  0
 19 23  1  0
 20 21  1  0
 20 19  2  0
 21 22  1  0
 22 23  2  0
 22 24  1  0
  1 25  1  0
  1 26  1  0
  2 27  1  0
  3 28  1  0
  9 29  1  0
 10 30  1  0
 11 31  1  0
 13 32  1  0
 17 33  1  0
 17 34  1  0
 24 35  1  0
 24 36  1  0
 24 37  1  0
M  ISO  8  25   8  26   8  27  14  28  14  29  14  30  14  31  14  32   5
M  ISO  5  33   8  34   8  35   8  36   8  37   8
M  END
>  <minimizedAffinity>  (1) 
-4.24567223

>  <minimizedRMSD>  (1) 
0.47504279

$$$$
