
     RDKit          3D

 12 12  0  0  0  0  0  0  0  0999 V2000
   40.8310   22.1250   37.3760 C   0  0  0  0  0  0  0  0  0  0  0  0
   39.8500   22.8680   38.0510 C   0  0  0  0  0  0  0  0  0  0  0  0
   38.7470   23.3100   37.3220 C   0  0  0  0  0  0  0  0  0  0  0  0
   38.6670   23.0050   36.0010 N   0  0  0  0  0  0  0  0  0  0  0  0
   39.6270   22.2880   35.3750 C   0  0  0  0  0  0  0  0  0  0  0  0
   40.7040   21.8510   36.0660 N   0  0  0  0  0  0  0  0  0  0  0  0
   37.7660   24.0690   38.0550 C   0  0  0  0  0  0  0  0  0  0  0  0
   38.0360   24.8810   38.9830 O   0  0  0  0  0  0  0  0  0  0  0  0
   41.7130   21.7631   37.9247 H   0  0  0  0  0  0  0  0  0  0  0  0
   39.9485   23.0947   39.1229 H   0  0  0  0  0  0  0  0  0  0  0  0
   39.5320   22.0600   34.3031 H   0  0  0  0  0  0  0  0  0  0  0  0
   36.7080   23.9313   37.7873 H   0  0  0  0  0  0  0  0  0  0  0  0
  1  2  2  0
  3  2  1  0
  3  7  1  0
  4  3  2  0
  5  4  1  0
  5  6  2  0
  6  1  1  0
  7  8  2  0
  1  9  1  0
  2 10  1  0
  5 11  1  0
  7 12  1  0
M  ISO  4   9  14  10  14  11  14  12   6
M  END
>  <minimizedAffinity>  (1) 
-2.78378296

>  <minimizedRMSD>  (1) 
1.23501766

$$$$
