
     RDKit          3D

 22 23  0  0  0  0  0  0  0  0999 V2000
   39.2060   23.4020   37.0870 C   0  0  0  0  0  0  0  0  0  0  0  0
   38.6750   23.1950   38.2050 O   0  0  0  0  0  0  0  0  0  0  0  0
   37.6490   26.1490   35.2270 C   0  0  0  0  0  0  0  0  0  0  0  0
   38.2230   25.3920   36.2760 C   0  0  0  0  0  0  0  0  0  0  0  0
   38.6330   24.1040   35.9730 C   0  0  0  0  0  0  0  0  0  0  0  0
   38.4820   23.6050   34.7260 N   0  0  0  0  0  0  0  0  0  0  0  0
   37.9270   24.3550   33.7380 C   0  0  0  0  0  0  0  0  0  0  0  0
   37.5190   25.6080   33.9920 N   0  0  0  0  0  0  0  0  0  0  0  0
   40.5690   22.8710   36.8740 C   0  0  0  0  0  0  0  0  0  0  0  0
   41.4760   23.5950   36.1470 C   0  0  0  0  0  0  0  0  0  0  0  0
   42.7720   23.1410   35.9150 C   0  0  0  0  0  0  0  0  0  0  0  0
   43.1600   21.9170   36.4350 C   0  0  0  0  0  0  0  0  0  0  0  0
   42.2550   21.1820   37.1670 C   0  0  0  0  0  0  0  0  0  0  0  0
   40.9680   21.6350   37.3960 C   0  0  0  0  0  0  0  0  0  0  0  0
   37.3081   27.1778   35.4148 H   0  0  0  0  0  0  0  0  0  0  0  0
   38.3385   25.8082   37.2877 H   0  0  0  0  0  0  0  0  0  0  0  0
   37.8120   23.9343   32.7282 H   0  0  0  0  0  0  0  0  0  0  0  0
   41.1708   24.5672   35.7326 H   0  0  0  0  0  0  0  0  0  0  0  0
   43.4778   23.7460   35.3270 H   0  0  0  0  0  0  0  0  0  0  0  0
   44.1783   21.5372   36.2651 H   0  0  0  0  0  0  0  0  0  0  0  0
   42.5629   20.2101   37.5802 H   0  0  0  0  0  0  0  0  0  0  0  0
   40.2635   21.0284   37.9839 H   0  0  0  0  0  0  0  0  0  0  0  0
  1  2  2  0
  3  4  2  0
  5  4  1  0
  5  1  1  0
  6  5  2  0
  7  8  2  0
  7  6  1  0
  8  3  1  0
  9  1  1  0
  9 14  1  0
 10  9  2  0
 11 10  1  0
 11 12  2  0
 12 13  1  0
 13 14  2  0
  3 15  1  0
  4 16  1  0
  7 17  1  0
 10 18  1  0
 11 19  1  0
 12 20  1  0
 13 21  1  0
 14 22  1  0
M  ISO  8  15  14  16  14  17  14  18  14  19  14  20  14  21  14  22  14
M  END
>  <minimizedAffinity>  (1) 
-4.00428534

>  <minimizedRMSD>  (1) 
5.5290494

$$$$
