
     RDKit          3D

 21 22  0  0  0  0  0  0  0  0999 V2000
   41.6140   21.5420   37.5750 C   0  0  0  0  0  0  0  0  0  0  0  0
   40.3460   22.1170   37.3240 C   0  0  0  0  0  0  0  0  0  0  0  0
   40.0180   22.3470   35.9980 C   0  0  0  0  0  0  0  0  0  0  0  0
   40.8750   22.0320   35.0030 N   0  0  0  0  0  0  0  0  0  0  0  0
   42.0880   21.4790   35.2820 C   0  0  0  0  0  0  0  0  0  0  0  0
   42.4420   21.2420   36.5570 N   0  0  0  0  0  0  0  0  0  0  0  0
   38.7210   22.9300   35.8040 C   0  0  0  0  0  0  0  0  0  0  0  0
   38.3930   24.1310   36.0590 O   0  0  0  0  0  0  0  0  0  0  0  0
   37.6350   22.1160   35.2640 C   0  0  0  0  0  0  0  0  0  0  0  0
   37.4940   21.8590   33.9150 C   0  0  0  0  0  0  0  0  0  0  0  0
   36.4940   21.1020   33.3590 C   0  0  0  0  0  0  0  0  0  0  0  0
   35.5530   20.5530   34.2180 C   0  0  0  0  0  0  0  0  0  0  0  0
   35.6850   20.8050   35.5680 C   0  0  0  0  0  0  0  0  0  0  0  0
   36.6980   21.5650   36.0800 N   0  0  0  0  0  0  0  0  0  0  0  0
   41.9257   21.3385   38.6101 H   0  0  0  0  0  0  0  0  0  0  0  0
   39.6546   22.3690   38.1416 H   0  0  0  0  0  0  0  0  0  0  0  0
   42.7783   21.2262   34.4637 H   0  0  0  0  0  0  0  0  0  0  0  0
   38.2402   22.2943   33.2341 H   0  0  0  0  0  0  0  0  0  0  0  0
   36.4403   20.9365   32.2728 H   0  0  0  0  0  0  0  0  0  0  0  0
   34.7271   19.9358   33.8345 H   0  0  0  0  0  0  0  0  0  0  0  0
   34.9448   20.3767   36.2598 H   0  0  0  0  0  0  0  0  0  0  0  0
  2  1  2  0
  3  2  1  0
  4  5  1  0
  4  3  2  0
  5  6  2  0
  6  1  1  0
  7  3  1  0
  7  8  2  0
  9  7  1  0
  9 14  1  0
 10  9  2  0
 11 10  1  0
 11 12  2  0
 12 13  1  0
 13 14  2  0
  1 15  1  0
  2 16  1  0
  5 17  1  0
 10 18  1  0
 11 19  1  0
 12 20  1  0
 13 21  1  0
M  ISO  7  15  14  16  14  17  14  18  14  19  14  20  14  21  14
M  END
>  <minimizedAffinity>  (1) 
-3.71736979

>  <minimizedRMSD>  (1) 
3.21851659

$$$$
