
     RDKit          3D

 19 20  0  0  0  0  0  0  0  0999 V2000
   41.4190   21.7050   37.3520 C   0  0  0  0  0  0  0  0  0  0  0  0
   40.0920   22.1750   37.2580 C   0  0  0  0  0  0  0  0  0  0  0  0
   39.5740   22.3820   35.9920 C   0  0  0  0  0  0  0  0  0  0  0  0
   40.3410   22.1330   34.9110 N   0  0  0  0  0  0  0  0  0  0  0  0
   41.6020   21.6870   35.0100 C   0  0  0  0  0  0  0  0  0  0  0  0
   42.1430   21.4720   36.2330 N   0  0  0  0  0  0  0  0  0  0  0  0
   38.2210   22.8590   35.9790 C   0  0  0  0  0  0  0  0  0  0  0  0
   37.8390   24.0220   36.3230 O   0  0  0  0  0  0  0  0  0  0  0  0
   37.1630   21.9350   35.5300 C   0  0  0  0  0  0  0  0  0  0  0  0
   36.9520   21.5750   34.1980 C   0  0  0  0  0  0  0  0  0  0  0  0
   35.8840   20.7060   34.1940 C   0  0  0  0  0  0  0  0  0  0  0  0
   35.4870   20.5640   35.4840 N   0  0  0  0  0  0  0  0  0  0  0  0
   36.2500   21.2990   36.2830 N   0  0  0  0  0  0  0  0  0  0  0  0
   41.8675   21.5270   38.3405 H   0  0  0  0  0  0  0  0  0  0  0  0
   39.4911   22.3698   38.1586 H   0  0  0  0  0  0  0  0  0  0  0  0
   42.1939   21.4968   34.1025 H   0  0  0  0  0  0  0  0  0  0  0  0
   37.5256   21.9178   33.3242 H   0  0  0  0  0  0  0  0  0  0  0  0
   35.4380   20.2199   33.3138 H   0  0  0  0  0  0  0  0  0  0  0  0
   34.7056   19.9708   35.7978 H   0  0  0  0  0  0  0  0  0  0  0  0
  2  1  2  0
  3  2  1  0
  4  5  1  0
  4  3  2  0
  5  6  2  0
  6  1  1  0
  7  3  1  0
  7  8  2  0
  9  7  1  0
  9 13  2  0
 10  9  1  0
 11 10  2  0
 11 12  1  0
 12 13  1  0
  1 14  1  0
  2 15  1  0
  5 16  1  0
 10 17  1  0
 11 18  1  0
 12 19  1  0
M  ISO  6  14  14  15  14  16  14  17  14  18  14  19   9
M  END
>  <minimizedAffinity>  (1) 
-3.53618765

>  <minimizedRMSD>  (1) 
2.77723312

$$$$
