
     RDKit          3D

 19 20  0  0  0  0  0  0  0  0999 V2000
   40.8380   21.9230   37.4170 C   0  0  0  0  0  0  0  0  0  0  0  0
   39.8740   22.9540   37.4510 C   0  0  0  0  0  0  0  0  0  0  0  0
   39.6000   23.5800   36.2470 C   0  0  0  0  0  0  0  0  0  0  0  0
   40.2320   23.2100   35.1100 N   0  0  0  0  0  0  0  0  0  0  0  0
   41.1520   22.2150   35.1140 C   0  0  0  0  0  0  0  0  0  0  0  0
   41.4490   21.5780   36.2690 N   0  0  0  0  0  0  0  0  0  0  0  0
   38.6140   24.6150   36.3550 C   0  0  0  0  0  0  0  0  0  0  0  0
   37.7370   24.7370   37.2670 O   0  0  0  0  0  0  0  0  0  0  0  0
   38.4510   25.7450   35.3970 C   0  0  0  0  0  0  0  0  0  0  0  0
   38.2670   27.1450   35.9210 C   0  0  0  0  0  0  0  0  0  0  0  0
   39.5660   26.7650   35.2870 C   0  0  0  0  0  0  0  0  0  0  0  0
   41.0941   21.3922   38.3458 H   0  0  0  0  0  0  0  0  0  0  0  0
   39.3681   23.2441   38.3836 H   0  0  0  0  0  0  0  0  0  0  0  0
   41.6559   21.9263   34.1798 H   0  0  0  0  0  0  0  0  0  0  0  0
   37.8994   25.1007   34.6966 H   0  0  0  0  0  0  0  0  0  0  0  0
   37.5872   27.8387   35.4046 H   0  0  0  0  0  0  0  0  0  0  0  0
   37.9757   27.5767   36.8899 H   0  0  0  0  0  0  0  0  0  0  0  0
   40.4698   26.6605   35.9052 H   0  0  0  0  0  0  0  0  0  0  0  0
   40.1755   27.1649   34.4632 H   0  0  0  0  0  0  0  0  0  0  0  0
  1  2  2  0
  3  7  1  0
  3  2  1  0
  4  5  1  0
  4  3  2  0
  5  6  2  0
  6  1  1  0
  7  8  2  0
  9 10  1  0
  9  7  1  0
 11  9  1  0
 11 10  1  0
  1 12  1  0
  2 13  1  0
  5 14  1  0
  9 15  1  0
 10 16  1  0
 10 17  1  0
 11 18  1  0
 11 19  1  0
M  ISO  8  12  14  13  14  14  14  15  13  16  13  17  13  18  13  19  13
M  END
>  <minimizedAffinity>  (1) 
-3.42349696

>  <minimizedRMSD>  (1) 
2.46107388

$$$$
