
     RDKit          3D

 39 43  0  0  0  0  0  0  0  0999 V2000
   36.8110   24.5500   31.8860 C   0  0  0  0  0  0  0  0  0  0  0  0
   36.2910   25.8410   31.9190 C   0  0  0  0  0  0  0  0  0  0  0  0
   36.8080   26.6410   32.9250 C   0  0  0  0  0  0  0  0  0  0  0  0
   37.7210   26.1340   33.7430 N   0  0  0  0  0  0  0  0  0  0  0  0
   38.2210   24.9250   33.7270 C   0  0  0  0  0  0  0  0  0  0  0  0
   37.7300   24.1540   32.7660 N   0  0  0  0  0  0  0  0  0  0  0  0
   39.2060   24.2440   34.5430 C   0  0  0  0  0  0  0  0  0  0  0  0
   40.4160   23.8350   34.0420 C   0  0  0  0  0  0  0  0  0  0  0  0
   41.3820   23.1870   34.7740 C   0  0  0  0  0  0  0  0  0  0  0  0
   41.1580   22.9100   36.1040 C   0  0  0  0  0  0  0  0  0  0  0  0
   39.9840   23.2900   36.6500 C   0  0  0  0  0  0  0  0  0  0  0  0
   39.7620   23.0100   37.9910 C   0  0  0  0  0  0  0  0  0  0  0  0
   38.6180   23.3520   38.6220 C   0  0  0  0  0  0  0  0  0  0  0  0
   37.6440   24.0130   37.8560 C   0  0  0  0  0  0  0  0  0  0  0  0
   37.8980   24.2730   36.5380 C   0  0  0  0  0  0  0  0  0  0  0  0
   39.0330   23.9400   35.8880 C   0  0  0  0  0  0  0  0  0  0  0  0
   36.3770   27.9790   33.0860 N   0  0  0  0  0  0  0  0  0  0  0  0
   36.3480   28.9400   32.1510 C   0  0  0  0  0  0  0  0  0  0  0  0
   35.8770   30.0780   32.6770 N   0  0  0  0  0  0  0  0  0  0  0  0
   35.6030   29.8450   33.9610 C   0  0  0  0  0  0  0  0  0  0  0  0
   35.9150   28.5550   34.1970 N   0  0  0  0  0  0  0  0  0  0  0  0
   35.0840   30.6580   35.0230 N   0  0  0  0  0  0  0  0  0  0  0  0
   33.8270   30.8950   35.3640 N   0  0  0  0  0  0  0  0  0  0  0  0
   33.7930   31.7270   36.4360 C   0  0  0  0  0  0  0  0  0  0  0  0
   35.0940   32.0370   36.7990 C   0  0  0  0  0  0  0  0  0  0  0  0
   35.8760   31.3510   35.8930 C   0  0  0  0  0  0  0  0  0  0  0  0
   36.4570   23.8444   31.1200 H   0  0  0  0  0  0  0  0  0  0  0  0
   35.5327   26.1963   31.2057 H   0  0  0  0  0  0  0  0  0  0  0  0
   40.6274   24.0397   32.9821 H   0  0  0  0  0  0  0  0  0  0  0  0
   42.3294   22.8911   34.2997 H   0  0  0  0  0  0  0  0  0  0  0  0
   41.9179   22.3914   36.7070 H   0  0  0  0  0  0  0  0  0  0  0  0
   40.5465   22.4905   38.5608 H   0  0  0  0  0  0  0  0  0  0  0  0
   38.4567   23.1236   39.6859 H   0  0  0  0  0  0  0  0  0  0  0  0
   36.6896   24.3174   38.3103 H   0  0  0  0  0  0  0  0  0  0  0  0
   37.1176   24.7934   35.9634 H   0  0  0  0  0  0  0  0  0  0  0  0
   36.6647   28.8122   31.1053 H   0  0  0  0  0  0  0  0  0  0  0  0
   32.8835   32.0943   36.9340 H   0  0  0  0  0  0  0  0  0  0  0  0
   35.4278   32.6841   37.6235 H   0  0  0  0  0  0  0  0  0  0  0  0
   36.9758   31.3608   35.8742 H   0  0  0  0  0  0  0  0  0  0  0  0
  1  2  2  0
  1  6  1  0
  2  3  1  0
  3 17  1  0
  3  4  2  0
  5  4  1  0
  5  7  1  0
  6  5  2  0
  7 16  1  0
  8  7  2  0
  8  9  1  0
  9 10  2  0
 10 11  1  0
 11 12  2  0
 12 13  1  0
 14 13  2  0
 15 14  1  0
 16 15  2  0
 16 11  1  0
 17 21  1  0
 18 19  2  0
 18 17  1  0
 19 20  1  0
 20 21  2  0
 20 22  1  0
 22 23  1  0
 22 26  1  0
 23 24  2  0
 24 25  1  0
 26 25  2  0
  1 27  1  0
  2 28  1  0
  8 29  1  0
  9 30  1  0
 10 31  1  0
 12 32  1  0
 13 33  1  0
 14 34  1  0
 15 35  1  0
 18 36  1  0
 24 37  1  0
 25 38  1  0
 26 39  1  0
M  ISO  8  27  14  28  14  29  14  30  14  31  14  32  14  33  14  34  14
M  ISO  5  35  14  36  14  37  14  38  14  39  14
M  END
>  <minimizedAffinity>  (1) 
-6.96649027

>  <minimizedRMSD>  (1) 
1.91504097

$$$$
