
     RDKit          3D

 32 35  0  0  0  0  0  0  0  0999 V2000
   37.4570   25.2980   33.2470 N   0  0  0  0  0  0  0  0  0  0  0  0
   37.9490   24.3500   34.0320 N   0  0  0  0  0  0  0  0  0  0  0  0
   38.0360   24.8190   35.3030 C   0  0  0  0  0  0  0  0  0  0  0  0
   37.5700   26.1180   35.2750 C   0  0  0  0  0  0  0  0  0  0  0  0
   37.2080   26.4000   33.9650 C   0  0  0  0  0  0  0  0  0  0  0  0
   36.6770   27.6840   33.5820 N   0  0  0  0  0  0  0  0  0  0  0  0
   36.0550   28.6250   34.3090 C   0  0  0  0  0  0  0  0  0  0  0  0
   35.7330   29.6680   33.5180 N   0  0  0  0  0  0  0  0  0  0  0  0
   36.1660   29.3630   32.2830 C   0  0  0  0  0  0  0  0  0  0  0  0
   36.1450   29.9930   31.0510 C   0  0  0  0  0  0  0  0  0  0  0  0
   36.6710   29.4420   29.9260 N   0  0  0  0  0  0  0  0  0  0  0  0
   37.2500   28.2100   29.9950 C   0  0  0  0  0  0  0  0  0  0  0  0
   37.2900   27.5650   31.1730 N   0  0  0  0  0  0  0  0  0  0  0  0
   36.7690   28.1100   32.2890 C   0  0  0  0  0  0  0  0  0  0  0  0
   35.5440   31.2800   30.9620 N   0  0  0  0  0  0  0  0  0  0  0  0
   38.5320   24.0730   36.4650 C   0  0  0  0  0  0  0  0  0  0  0  0
   37.7100   24.0190   37.4470 O   0  0  0  0  0  0  0  0  0  0  0  0
   41.2950   21.7890   37.2930 C   0  0  0  0  0  0  0  0  0  0  0  0
   40.0230   22.3950   37.2930 C   0  0  0  0  0  0  0  0  0  0  0  0
   39.8330   23.4780   36.4440 C   0  0  0  0  0  0  0  0  0  0  0  0
   40.8440   23.9120   35.6600 N   0  0  0  0  0  0  0  0  0  0  0  0
   42.0620   23.3010   35.6860 C   0  0  0  0  0  0  0  0  0  0  0  0
   42.2620   22.2440   36.5090 N   0  0  0  0  0  0  0  0  0  0  0  0
   37.2910   25.2011   32.2351 H   0  0  0  0  0  0  0  0  0  0  0  0
   37.4987   26.8032   36.1325 H   0  0  0  0  0  0  0  0  0  0  0  0
   35.8407   28.5558   35.3857 H   0  0  0  0  0  0  0  0  0  0  0  0
   37.6806   27.7480   29.0944 H   0  0  0  0  0  0  0  0  0  0  0  0
   35.5138   31.7729   30.0581 H   0  0  0  0  0  0  0  0  0  0  0  0
   35.1393   31.7185   31.8015 H   0  0  0  0  0  0  0  0  0  0  0  0
   41.4877   20.9288   37.9509 H   0  0  0  0  0  0  0  0  0  0  0  0
   39.2131   22.0255   37.9392 H   0  0  0  0  0  0  0  0  0  0  0  0
   42.8773   23.6639   35.0428 H   0  0  0  0  0  0  0  0  0  0  0  0
  1  5  1  0
  1  2  1  0
  2  3  2  0
  3 16  1  0
  4  3  1  0
  5  4  2  0
  6  5  1  0
  6  7  1  0
  8  7  2  0
  9 14  2  0
  9  8  1  0
 10  9  1  0
 11 12  1  0
 11 10  2  0
 12 13  2  0
 13 14  1  0
 14  6  1  0
 15 10  1  0
 16 17  2  0
 18 19  2  0
 20 16  1  0
 20 19  1  0
 21 22  1  0
 21 20  2  0
 22 23  2  0
 23 18  1  0
  1 24  1  0
  4 25  1  0
  7 26  1  0
 12 27  1  0
 15 28  1  0
 15 29  1  0
 18 30  1  0
 19 31  1  0
 22 32  1  0
M  ISO  7  24   9  25  14  26  14  27  14  30  14  31  14  32  14
M  END
>  <minimizedAffinity>  (1) 
-5.21092606

>  <minimizedRMSD>  (1) 
2.63192034

$$$$
