
     RDKit          3D

 35 38  0  0  0  0  0  0  0  0999 V2000
   36.3980   27.8020   33.0270 N   0  0  0  0  0  0  0  0  0  0  0  0
   37.1050   26.6970   33.1870 N   0  0  0  0  0  0  0  0  0  0  0  0
   37.4940   26.6130   34.4790 C   0  0  0  0  0  0  0  0  0  0  0  0
   36.9680   27.7340   35.0550 C   0  0  0  0  0  0  0  0  0  0  0  0
   36.2720   28.4920   34.1460 C   0  0  0  0  0  0  0  0  0  0  0  0
   35.5830   29.6850   34.5780 C   0  0  0  0  0  0  0  0  0  0  0  0
   36.1990   30.5200   35.5220 C   0  0  0  0  0  0  0  0  0  0  0  0
   35.6420   31.6700   36.0160 C   0  0  0  0  0  0  0  0  0  0  0  0
   34.4000   32.0730   35.5930 C   0  0  0  0  0  0  0  0  0  0  0  0
   33.7570   31.3020   34.6830 C   0  0  0  0  0  0  0  0  0  0  0  0
   32.5000   31.7020   34.2860 C   0  0  0  0  0  0  0  0  0  0  0  0
   31.7610   30.9640   33.3860 C   0  0  0  0  0  0  0  0  0  0  0  0
   32.3730   29.7940   32.9150 C   0  0  0  0  0  0  0  0  0  0  0  0
   33.6280   29.4390   33.3410 C   0  0  0  0  0  0  0  0  0  0  0  0
   34.3540   30.1630   34.2180 C   0  0  0  0  0  0  0  0  0  0  0  0
   38.2900   25.5700   35.1000 C   0  0  0  0  0  0  0  0  0  0  0  0
   37.6230   24.6900   35.7210 O   0  0  0  0  0  0  0  0  0  0  0  0
   41.7780   24.4170   35.2090 C   0  0  0  0  0  0  0  0  0  0  0  0
   40.3800   24.4180   35.3190 C   0  0  0  0  0  0  0  0  0  0  0  0
   39.7130   25.5950   34.9810 C   0  0  0  0  0  0  0  0  0  0  0  0
   40.4370   26.6700   34.5690 N   0  0  0  0  0  0  0  0  0  0  0  0
   41.7880   26.6250   34.4780 C   0  0  0  0  0  0  0  0  0  0  0  0
   42.4440   25.4870   34.8020 N   0  0  0  0  0  0  0  0  0  0  0  0
   35.9897   28.0934   32.1274 H   0  0  0  0  0  0  0  0  0  0  0  0
   37.0872   27.9972   36.1164 H   0  0  0  0  0  0  0  0  0  0  0  0
   37.1950   30.2324   35.8899 H   0  0  0  0  0  0  0  0  0  0  0  0
   36.1919   32.2724   36.7541 H   0  0  0  0  0  0  0  0  0  0  0  0
   33.9405   32.9940   35.9810 H   0  0  0  0  0  0  0  0  0  0  0  0
   32.0765   32.6307   34.6961 H   0  0  0  0  0  0  0  0  0  0  0  0
   30.7572   31.2729   33.0590 H   0  0  0  0  0  0  0  0  0  0  0  0
   31.8412   29.1535   32.1960 H   0  0  0  0  0  0  0  0  0  0  0  0
   34.0672   28.5115   32.9450 H   0  0  0  0  0  0  0  0  0  0  0  0
   42.3355   23.5046   35.4672 H   0  0  0  0  0  0  0  0  0  0  0  0
   39.8319   23.5266   35.6581 H   0  0  0  0  0  0  0  0  0  0  0  0
   42.3489   27.5096   34.1422 H   0  0  0  0  0  0  0  0  0  0  0  0
  1  2  1  0
  1  5  1  0
  2  3  2  0
  3  4  1  0
  3 16  1  0
  5  6  1  0
  5  4  2  0
  6  7  2  0
  7  8  1  0
  9  8  2  0
 10  9  1  0
 11 10  2  0
 12 11  1  0
 13 14  1  0
 13 12  2  0
 14 15  2  0
 15  6  1  0
 15 10  1  0
 16 17  2  0
 18 19  2  0
 20 16  1  0
 20 19  1  0
 21 20  2  0
 22 21  1  0
 22 23  2  0
 23 18  1  0
  1 24  1  0
  4 25  1  0
  7 26  1  0
  8 27  1  0
  9 28  1  0
 11 29  1  0
 12 30  1  0
 13 31  1  0
 14 32  1  0
 18 33  1  0
 19 34  1  0
 22 35  1  0
M  ISO  8  24   9  25  14  26  14  27  14  28  14  29  14  30  14  31  14
M  ISO  4  32  14  33  14  34  14  35  14
M  END
>  <minimizedAffinity>  (1) 
-5.14196253

>  <minimizedRMSD>  (1) 
3.21514487

$$$$
