
     RDKit          3D

 33 36  0  0  0  0  0  0  0  0999 V2000
   36.4350   27.7470   32.9230 N   0  0  0  0  0  0  0  0  0  0  0  0
   37.2260   26.6800   33.0750 N   0  0  0  0  0  0  0  0  0  0  0  0
   37.5990   26.6210   34.3700 C   0  0  0  0  0  0  0  0  0  0  0  0
   36.9830   27.6990   34.9290 C   0  0  0  0  0  0  0  0  0  0  0  0
   36.2460   28.4200   34.0360 C   0  0  0  0  0  0  0  0  0  0  0  0
   35.5500   29.5940   34.5080 C   0  0  0  0  0  0  0  0  0  0  0  0
   36.1030   30.4280   35.3810 N   0  0  0  0  0  0  0  0  0  0  0  0
   35.5790   31.5290   35.8870 C   0  0  0  0  0  0  0  0  0  0  0  0
   34.3450   31.9190   35.5270 N   0  0  0  0  0  0  0  0  0  0  0  0
   33.6620   31.1630   34.6430 C   0  0  0  0  0  0  0  0  0  0  0  0
   32.4140   31.5380   34.2630 C   0  0  0  0  0  0  0  0  0  0  0  0
   31.6820   30.7950   33.3600 C   0  0  0  0  0  0  0  0  0  0  0  0
   32.2870   29.6410   32.8590 C   0  0  0  0  0  0  0  0  0  0  0  0
   33.5510   29.3330   33.2930 C   0  0  0  0  0  0  0  0  0  0  0  0
   34.3090   30.0390   34.1830 C   0  0  0  0  0  0  0  0  0  0  0  0
   38.4530   25.6350   34.9990 C   0  0  0  0  0  0  0  0  0  0  0  0
   37.8180   24.7600   35.6910 O   0  0  0  0  0  0  0  0  0  0  0  0
   41.9640   24.5390   34.9820 C   0  0  0  0  0  0  0  0  0  0  0  0
   40.5670   24.5310   35.1430 C   0  0  0  0  0  0  0  0  0  0  0  0
   39.8810   25.6940   34.8210 C   0  0  0  0  0  0  0  0  0  0  0  0
   40.5390   26.7890   34.3700 N   0  0  0  0  0  0  0  0  0  0  0  0
   41.8880   26.7610   34.2280 C   0  0  0  0  0  0  0  0  0  0  0  0
   42.5800   25.6410   34.5340 N   0  0  0  0  0  0  0  0  0  0  0  0
   36.0148   28.0154   32.0217 H   0  0  0  0  0  0  0  0  0  0  0  0
   37.0709   27.9619   35.9935 H   0  0  0  0  0  0  0  0  0  0  0  0
   36.1552   32.1295   36.6063 H   0  0  0  0  0  0  0  0  0  0  0  0
   31.9764   32.4550   34.6846 H   0  0  0  0  0  0  0  0  0  0  0  0
   30.6708   31.0972   33.0499 H   0  0  0  0  0  0  0  0  0  0  0  0
   31.7646   28.9968   32.1364 H   0  0  0  0  0  0  0  0  0  0  0  0
   34.0028   28.4191   32.8798 H   0  0  0  0  0  0  0  0  0  0  0  0
   42.5508   23.6406   35.2239 H   0  0  0  0  0  0  0  0  0  0  0  0
   40.0388   23.6385   35.5096 H   0  0  0  0  0  0  0  0  0  0  0  0
   42.4199   27.6520   33.8629 H   0  0  0  0  0  0  0  0  0  0  0  0
  1  2  1  0
  1  5  1  0
  2  3  2  0
  3  4  1  0
  3 16  1  0
  5  6  1  0
  5  4  2  0
  6  7  2  0
  7  8  1  0
  9  8  2  0
 10  9  1  0
 11 10  2  0
 12 11  1  0
 13 14  1  0
 13 12  2  0
 14 15  2  0
 15  6  1  0
 15 10  1  0
 16 17  2  0
 18 19  2  0
 20 16  1  0
 20 19  1  0
 21 20  2  0
 22 21  1  0
 22 23  2  0
 23 18  1  0
  1 24  1  0
  4 25  1  0
  8 26  1  0
 11 27  1  0
 12 28  1  0
 13 29  1  0
 14 30  1  0
 18 31  1  0
 19 32  1  0
 22 33  1  0
M  ISO  8  24   9  25  14  26  14  27  14  28  14  29  14  30  14  31  14
M  ISO  2  32  14  33  14
M  END
>  <minimizedAffinity>  (1) 
-4.84557629

>  <minimizedRMSD>  (1) 
3.50492907

$$$$
