
     RDKit          3D

 38 42  0  0  0  0  0  0  0  0999 V2000
   36.7770   24.6070   31.8970 C   0  0  0  0  0  0  0  0  0  0  0  0
   36.2630   25.9020   31.9460 C   0  0  0  0  0  0  0  0  0  0  0  0
   36.7930   26.6820   32.9600 C   0  0  0  0  0  0  0  0  0  0  0  0
   37.7040   26.1560   33.7660 N   0  0  0  0  0  0  0  0  0  0  0  0
   38.1930   24.9370   33.7290 C   0  0  0  0  0  0  0  0  0  0  0  0
   37.6970   24.1940   32.7700 N   0  0  0  0  0  0  0  0  0  0  0  0
   39.1780   24.2540   34.5440 C   0  0  0  0  0  0  0  0  0  0  0  0
   40.3960   23.8430   34.0260 C   0  0  0  0  0  0  0  0  0  0  0  0
   41.3560   23.1970   34.7560 C   0  0  0  0  0  0  0  0  0  0  0  0
   41.1520   22.9130   36.0840 C   0  0  0  0  0  0  0  0  0  0  0  0
   39.9710   23.2980   36.6340 C   0  0  0  0  0  0  0  0  0  0  0  0
   39.7550   23.0150   37.9800 C   0  0  0  0  0  0  0  0  0  0  0  0
   38.6140   23.3560   38.6220 C   0  0  0  0  0  0  0  0  0  0  0  0
   37.6450   24.0160   37.8640 C   0  0  0  0  0  0  0  0  0  0  0  0
   37.8780   24.2860   36.5330 C   0  0  0  0  0  0  0  0  0  0  0  0
   39.0190   23.9480   35.8840 C   0  0  0  0  0  0  0  0  0  0  0  0
   36.3630   28.0230   33.1300 N   0  0  0  0  0  0  0  0  0  0  0  0
   36.3270   28.9890   32.1980 C   0  0  0  0  0  0  0  0  0  0  0  0
   35.8620   30.1230   32.7390 N   0  0  0  0  0  0  0  0  0  0  0  0
   35.5980   29.8840   34.0190 C   0  0  0  0  0  0  0  0  0  0  0  0
   35.9090   28.5920   34.2480 N   0  0  0  0  0  0  0  0  0  0  0  0
   35.0930   30.6560   35.1040 N   0  0  0  0  0  0  0  0  0  0  0  0
   35.8870   31.4230   35.9050 C   0  0  0  0  0  0  0  0  0  0  0  0
   35.1820   32.0480   36.8440 N   0  0  0  0  0  0  0  0  0  0  0  0
   33.8980   31.6660   36.6340 C   0  0  0  0  0  0  0  0  0  0  0  0
   33.8660   30.8290   35.5800 N   0  0  0  0  0  0  0  0  0  0  0  0
   36.4170   23.9126   31.1236 H   0  0  0  0  0  0  0  0  0  0  0  0
   35.5035   26.2716   31.2414 H   0  0  0  0  0  0  0  0  0  0  0  0
   40.6031   24.0483   32.9654 H   0  0  0  0  0  0  0  0  0  0  0  0
   42.3002   22.9023   34.2746 H   0  0  0  0  0  0  0  0  0  0  0  0
   41.9164   22.3931   36.6802 H   0  0  0  0  0  0  0  0  0  0  0  0
   40.5429   22.4938   38.5435 H   0  0  0  0  0  0  0  0  0  0  0  0
   38.4579   23.1252   39.6861 H   0  0  0  0  0  0  0  0  0  0  0  0
   36.6958   24.3204   38.3292 H   0  0  0  0  0  0  0  0  0  0  0  0
   37.0928   24.8058   35.9644 H   0  0  0  0  0  0  0  0  0  0  0  0
   36.6332   28.8676   31.1485 H   0  0  0  0  0  0  0  0  0  0  0  0
   36.9771   31.5136   35.7887 H   0  0  0  0  0  0  0  0  0  0  0  0
   33.0280   31.9864   37.2259 H   0  0  0  0  0  0  0  0  0  0  0  0
  1  2  2  0
  1  6  1  0
  2  3  1  0
  3 17  1  0
  3  4  2  0
  5  4  1  0
  5  7  1  0
  6  5  2  0
  7 16  1  0
  8  7  2  0
  8  9  1  0
  9 10  2  0
 10 11  1  0
 11 12  2  0
 12 13  1  0
 14 13  2  0
 15 14  1  0
 16 15  2  0
 16 11  1  0
 17 21  1  0
 18 19  2  0
 18 17  1  0
 19 20  1  0
 20 21  2  0
 20 22  1  0
 22 26  1  0
 22 23  1  0
 23 24  2  0
 25 24  1  0
 26 25  2  0
  1 27  1  0
  2 28  1  0
  8 29  1  0
  9 30  1  0
 10 31  1  0
 12 32  1  0
 13 33  1  0
 14 34  1  0
 15 35  1  0
 18 36  1  0
 23 37  1  0
 25 38  1  0
M  ISO  8  27  14  28  14  29  14  30  14  31  14  32  14  33  14  34  14
M  ISO  4  35  14  36  14  37  14  38  14
M  END
>  <minimizedAffinity>  (1) 
-6.91850519

>  <minimizedRMSD>  (1) 
1.96629083

$$$$
