
     RDKit          3D

 26 28  0  0  0  0  0  0  0  0999 V2000
   38.2480   24.3170   36.9000 C   0  0  0  0  0  0  0  0  0  0  0  0
   37.3350   24.0180   37.7270 O   0  0  0  0  0  0  0  0  0  0  0  0
   41.0120   21.9310   37.4220 C   0  0  0  0  0  0  0  0  0  0  0  0
   39.8780   22.7420   37.6720 C   0  0  0  0  0  0  0  0  0  0  0  0
   39.4060   23.5010   36.6120 C   0  0  0  0  0  0  0  0  0  0  0  0
   40.0190   23.4510   35.3970 N   0  0  0  0  0  0  0  0  0  0  0  0
   41.1030   22.6580   35.2070 C   0  0  0  0  0  0  0  0  0  0  0  0
   41.5770   21.9180   36.2140 N   0  0  0  0  0  0  0  0  0  0  0  0
   38.1590   27.7340   35.7620 N   0  0  0  0  0  0  0  0  0  0  0  0
   38.5030   26.7980   36.6500 N   0  0  0  0  0  0  0  0  0  0  0  0
   38.0690   25.5910   36.2140 C   0  0  0  0  0  0  0  0  0  0  0  0
   37.4360   25.8290   35.0000 C   0  0  0  0  0  0  0  0  0  0  0  0
   37.5010   27.1820   34.7320 C   0  0  0  0  0  0  0  0  0  0  0  0
   36.9160   27.7800   33.5030 C   0  0  0  0  0  0  0  0  0  0  0  0
   36.6290   26.7990   32.3820 C   0  0  0  0  0  0  0  0  0  0  0  0
   37.7620   27.7720   32.2410 C   0  0  0  0  0  0  0  0  0  0  0  0
   41.4286   21.3090   38.2279 H   0  0  0  0  0  0  0  0  0  0  0  0
   39.3949   22.7684   38.6599 H   0  0  0  0  0  0  0  0  0  0  0  0
   41.5927   22.6239   34.2226 H   0  0  0  0  0  0  0  0  0  0  0  0
   38.3693   28.7380   35.8549 H   0  0  0  0  0  0  0  0  0  0  0  0
   36.9634   25.0686   34.3610 H   0  0  0  0  0  0  0  0  0  0  0  0
   36.3569   28.5543   34.0487 H   0  0  0  0  0  0  0  0  0  0  0  0
   36.8394   25.7285   32.5224 H   0  0  0  0  0  0  0  0  0  0  0  0
   35.7435   26.5479   31.7796 H   0  0  0  0  0  0  0  0  0  0  0  0
   38.8014   27.4138   32.2789 H   0  0  0  0  0  0  0  0  0  0  0  0
   38.0481   28.5269   31.4938 H   0  0  0  0  0  0  0  0  0  0  0  0
  1  2  2  0
  3  4  2  0
  5  1  1  0
  5  4  1  0
  6  5  2  0
  7  6  1  0
  7  8  2  0
  8  3  1  0
  9 10  1  0
 11 10  2  0
 11  1  1  0
 12 11  1  0
 13 12  2  0
 13  9  1  0
 14 13  1  0
 15 14  1  0
 16 15  1  0
 16 14  1  0
  3 17  1  0
  4 18  1  0
  7 19  1  0
  9 20  1  0
 12 21  1  0
 14 22  1  0
 15 23  1  0
 15 24  1  0
 16 25  1  0
 16 26  1  0
M  ISO  8  17  14  18  14  19  14  20   9  21  14  22  13  23  13  24  13
M  ISO  2  25  13  26  13
M  END
>  <minimizedAffinity>  (1) 
-4.39527416

>  <minimizedRMSD>  (1) 
2.21768308

$$$$
