
     RDKit          3D

 26 28  0  0  0  0  0  0  0  0999 V2000
   37.4600   25.2740   33.1610 N   0  0  0  0  0  0  0  0  0  0  0  0
   37.9050   24.3520   33.9980 N   0  0  0  0  0  0  0  0  0  0  0  0
   37.9580   24.8830   35.2470 C   0  0  0  0  0  0  0  0  0  0  0  0
   37.5230   26.1850   35.1540 C   0  0  0  0  0  0  0  0  0  0  0  0
   37.2100   26.4160   33.8180 C   0  0  0  0  0  0  0  0  0  0  0  0
   36.7130   27.7020   33.3440 C   0  0  0  0  0  0  0  0  0  0  0  0
   36.9780   28.2140   32.0910 C   0  0  0  0  0  0  0  0  0  0  0  0
   36.3720   29.4420   31.9410 C   0  0  0  0  0  0  0  0  0  0  0  0
   35.7400   29.6510   33.1340 N   0  0  0  0  0  0  0  0  0  0  0  0
   35.9480   28.6330   33.9380 N   0  0  0  0  0  0  0  0  0  0  0  0
   38.3990   24.1760   36.4550 C   0  0  0  0  0  0  0  0  0  0  0  0
   37.5500   24.1720   37.4100 O   0  0  0  0  0  0  0  0  0  0  0  0
   41.0920   21.9020   37.4810 C   0  0  0  0  0  0  0  0  0  0  0  0
   39.8390   22.5240   37.4150 C   0  0  0  0  0  0  0  0  0  0  0  0
   39.6980   23.5530   36.5030 C   0  0  0  0  0  0  0  0  0  0  0  0
   40.7430   23.9280   35.7170 N   0  0  0  0  0  0  0  0  0  0  0  0
   41.9350   23.2960   35.8170 C   0  0  0  0  0  0  0  0  0  0  0  0
   42.1020   22.2930   36.6940 N   0  0  0  0  0  0  0  0  0  0  0  0
   37.3248   25.1349   32.1494 H   0  0  0  0  0  0  0  0  0  0  0  0
   37.4386   26.9069   35.9797 H   0  0  0  0  0  0  0  0  0  0  0  0
   37.5856   27.7139   31.3224 H   0  0  0  0  0  0  0  0  0  0  0  0
   36.3923   30.1029   31.0619 H   0  0  0  0  0  0  0  0  0  0  0  0
   35.1822   30.4845   33.3687 H   0  0  0  0  0  0  0  0  0  0  0  0
   41.2491   21.0776   38.1921 H   0  0  0  0  0  0  0  0  0  0  0  0
   39.0053   22.2082   38.0594 H   0  0  0  0  0  0  0  0  0  0  0  0
   42.7731   23.6059   35.1755 H   0  0  0  0  0  0  0  0  0  0  0  0
  1  5  1  0
  1  2  1  0
  2  3  2  0
  3 11  1  0
  4  3  1  0
  5  4  2  0
  6  5  1  0
  6 10  2  0
  7  6  1  0
  8  7  2  0
  8  9  1  0
  9 10  1  0
 11 15  1  0
 11 12  2  0
 14 13  2  0
 15 14  1  0
 16 17  1  0
 16 15  2  0
 17 18  2  0
 18 13  1  0
  1 19  1  0
  4 20  1  0
  7 21  1  0
  8 22  1  0
  9 23  1  0
 13 24  1  0
 14 25  1  0
 17 26  1  0
M  ISO  8  19   9  20  14  21  14  22  14  23   9  24  14  25  14  26  14
M  END
>  <minimizedAffinity>  (1) 
-4.38166189

>  <minimizedRMSD>  (1) 
2.18613052

$$$$
