
     RDKit          3D

 30 32  0  0  0  0  0  0  0  0999 V2000
   36.8220   26.2150   32.6240 N   0  0  0  0  0  0  0  0  0  0  0  0
   37.3960   25.2160   33.2750 N   0  0  0  0  0  0  0  0  0  0  0  0
   37.7580   25.6350   34.5130 C   0  0  0  0  0  0  0  0  0  0  0  0
   37.3790   26.9550   34.5990 C   0  0  0  0  0  0  0  0  0  0  0  0
   36.7870   27.3070   33.3960 C   0  0  0  0  0  0  0  0  0  0  0  0
   36.3080   28.6420   33.2430 N   0  0  0  0  0  0  0  0  0  0  0  0
   35.7330   29.2110   34.3170 C   0  0  0  0  0  0  0  0  0  0  0  0
   35.2710   30.4980   34.1630 C   0  0  0  0  0  0  0  0  0  0  0  0
   35.4400   31.0850   32.9280 C   0  0  0  0  0  0  0  0  0  0  0  0
   34.9640   32.4160   32.7690 N   0  0  0  0  0  0  0  0  0  0  0  0
   36.0290   30.4670   31.8730 N   0  0  0  0  0  0  0  0  0  0  0  0
   36.4790   29.2000   32.0350 C   0  0  0  0  0  0  0  0  0  0  0  0
   37.0310   28.5820   31.0890 O   0  0  0  0  0  0  0  0  0  0  0  0
   38.4250   24.8190   35.5400 C   0  0  0  0  0  0  0  0  0  0  0  0
   37.6420   24.3710   36.4320 O   0  0  0  0  0  0  0  0  0  0  0  0
   41.6680   23.1500   36.0040 C   0  0  0  0  0  0  0  0  0  0  0  0
   40.2850   23.4110   36.0520 C   0  0  0  0  0  0  0  0  0  0  0  0
   39.8310   24.5960   35.4690 C   0  0  0  0  0  0  0  0  0  0  0  0
   40.7170   25.4450   34.8880 N   0  0  0  0  0  0  0  0  0  0  0  0
   42.0390   25.1490   34.8680 C   0  0  0  0  0  0  0  0  0  0  0  0
   42.4960   24.0220   35.4180 N   0  0  0  0  0  0  0  0  0  0  0  0
   36.4556   26.1598   31.6630 H   0  0  0  0  0  0  0  0  0  0  0  0
   37.5207   27.6140   35.4682 H   0  0  0  0  0  0  0  0  0  0  0  0
   35.6366   28.6739   35.2721 H   0  0  0  0  0  0  0  0  0  0  0  0
   34.7869   31.0358   34.9915 H   0  0  0  0  0  0  0  0  0  0  0  0
   35.0684   32.8956   31.8635 H   0  0  0  0  0  0  0  0  0  0  0  0
   34.5149   32.9002   33.5594 H   0  0  0  0  0  0  0  0  0  0  0  0
   42.0682   22.2272   36.4493 H   0  0  0  0  0  0  0  0  0  0  0  0
   39.5881   22.7075   36.5310 H   0  0  0  0  0  0  0  0  0  0  0  0
   42.7445   25.8462   34.3925 H   0  0  0  0  0  0  0  0  0  0  0  0
  1  2  1  0
  1  5  1  0
  2  3  2  0
  3  4  1  0
  3 14  1  0
  5  4  2  0
  6  5  1  0
  6  7  1  0
  8  7  2  0
  9  8  1  0
 10  9  1  0
 11 12  1  0
 11  9  2  0
 12  6  1  0
 13 12  2  0
 14 15  2  0
 16 17  2  0
 18 14  1  0
 18 17  1  0
 19 18  2  0
 20 19  1  0
 20 21  2  0
 21 16  1  0
  1 22  1  0
  4 23  1  0
  7 24  1  0
  8 25  1  0
 10 26  1  0
 10 27  1  0
 16 28  1  0
 17 29  1  0
 20 30  1  0
M  ISO  7  22   9  23  14  24  14  25  14  28  14  29  14  30  14
M  END
>  <minimizedAffinity>  (1) 
-4.38003302

>  <minimizedRMSD>  (1) 
2.83569765

$$$$
