
     RDKit          3D

 48 52  0  0  0  0  0  0  0  0999 V2000
   36.6050   24.0650   31.9430 C   0  0  0  0  0  0  0  0  0  0  0  0
   36.1330   25.3680   31.8010 C   0  0  0  0  0  0  0  0  0  0  0  0
   36.7400   26.2960   32.6320 C   0  0  0  0  0  0  0  0  0  0  0  0
   37.6890   25.8870   33.4670 N   0  0  0  0  0  0  0  0  0  0  0  0
   38.1470   24.6670   33.6160 C   0  0  0  0  0  0  0  0  0  0  0  0
   37.5650   23.7840   32.8200 N   0  0  0  0  0  0  0  0  0  0  0  0
   39.1590   24.0880   34.4730 C   0  0  0  0  0  0  0  0  0  0  0  0
   40.3970   23.7250   34.0020 C   0  0  0  0  0  0  0  0  0  0  0  0
   41.3890   23.1740   34.7720 C   0  0  0  0  0  0  0  0  0  0  0  0
   41.1710   22.9510   36.1170 C   0  0  0  0  0  0  0  0  0  0  0  0
   39.9630   23.2910   36.6410 C   0  0  0  0  0  0  0  0  0  0  0  0
   39.7390   23.0710   37.9850 C   0  0  0  0  0  0  0  0  0  0  0  0
   38.5710   23.3780   38.5880 C   0  0  0  0  0  0  0  0  0  0  0  0
   37.5680   23.9420   37.7860 C   0  0  0  0  0  0  0  0  0  0  0  0
   37.8290   24.1460   36.4480 C   0  0  0  0  0  0  0  0  0  0  0  0
   38.9960   23.8420   35.8320 C   0  0  0  0  0  0  0  0  0  0  0  0
   36.3630   27.6630   32.5990 N   0  0  0  0  0  0  0  0  0  0  0  0
   36.1880   28.4140   31.5080 C   0  0  0  0  0  0  0  0  0  0  0  0
   35.8360   29.6540   31.8500 N   0  0  0  0  0  0  0  0  0  0  0  0
   35.7860   29.6900   33.1880 C   0  0  0  0  0  0  0  0  0  0  0  0
   36.1110   28.4640   33.6390 N   0  0  0  0  0  0  0  0  0  0  0  0
   35.4530   30.7910   34.1150 C   0  0  0  0  0  0  0  0  0  0  0  0
   35.9070   32.1270   33.5790 C   0  0  0  0  0  0  0  0  0  0  0  0
   35.1110   33.1750   34.3600 C   0  0  0  0  0  0  0  0  0  0  0  0
   35.5040   33.0680   35.7960 C   0  0  0  0  0  0  0  0  0  0  0  0
   35.4150   31.6890   36.3590 C   0  0  0  0  0  0  0  0  0  0  0  0
   36.0470   30.6320   35.4780 C   0  0  0  0  0  0  0  0  0  0  0  0
   36.1799   23.2610   31.3242 H   0  0  0  0  0  0  0  0  0  0  0  0
   35.3417   25.6386   31.0864 H   0  0  0  0  0  0  0  0  0  0  0  0
   40.6071   23.8873   32.9345 H   0  0  0  0  0  0  0  0  0  0  0  0
   42.3561   22.9103   34.3191 H   0  0  0  0  0  0  0  0  0  0  0  0
   41.9552   22.5091   36.7493 H   0  0  0  0  0  0  0  0  0  0  0  0
   40.5445   22.6278   38.5889 H   0  0  0  0  0  0  0  0  0  0  0  0
   38.4128   23.1940   39.6609 H   0  0  0  0  0  0  0  0  0  0  0  0
   36.5932   24.2159   38.2159 H   0  0  0  0  0  0  0  0  0  0  0  0
   37.0300   24.5886   35.8351 H   0  0  0  0  0  0  0  0  0  0  0  0
   36.3161   28.0599   30.4745 H   0  0  0  0  0  0  0  0  0  0  0  0
   34.3570   30.7512   34.1994 H   0  0  0  0  0  0  0  0  0  0  0  0
   36.9859   32.2613   33.7459 H   0  0  0  0  0  0  0  0  0  0  0  0
   35.7366   32.2103   32.4955 H   0  0  0  0  0  0  0  0  0  0  0  0
   35.3448   34.1811   33.9818 H   0  0  0  0  0  0  0  0  0  0  0  0
   34.0308   33.0035   34.2430 H   0  0  0  0  0  0  0  0  0  0  0  0
   36.5437   33.4133   35.8947 H   0  0  0  0  0  0  0  0  0  0  0  0
   34.7913   33.6849   36.3630 H   0  0  0  0  0  0  0  0  0  0  0  0
   35.9236   31.6782   37.3343 H   0  0  0  0  0  0  0  0  0  0  0  0
   34.3461   31.4429   36.4415 H   0  0  0  0  0  0  0  0  0  0  0  0
   35.8260   29.6292   35.8724 H   0  0  0  0  0  0  0  0  0  0  0  0
   37.1405   30.7475   35.4470 H   0  0  0  0  0  0  0  0  0  0  0  0
  1  6  2  0
  2  1  1  0
  2  3  2  0
  3  4  1  0
  4  5  2  0
  5  7  1  0
  6  5  1  0
  7 16  1  0
  8  7  2  0
  8  9  1  0
  9 10  2  0
 10 11  1  0
 11 12  2  0
 12 13  1  0
 14 13  2  0
 15 14  1  0
 16 15  2  0
 16 11  1  0
 17  3  1  0
 17 21  1  0
 18 19  2  0
 18 17  1  0
 19 20  1  0
 20 21  2  0
 20 22  1  0
 22 27  1  0
 23 22  1  0
 23 24  1  0
 24 25  1  0
 25 26  1  0
 27 26  1  0
  1 28  1  0
  2 29  1  0
  8 30  1  0
  9 31  1  0
 10 32  1  0
 12 33  1  0
 13 34  1  0
 14 35  1  0
 15 36  1  0
 18 37  1  0
 22 38  1  0
 23 39  1  0
 23 40  1  0
 24 41  1  0
 24 42  1  0
 25 43  1  0
 25 44  1  0
 26 45  1  0
 26 46  1  0
 27 47  1  0
 27 48  1  0
M  ISO  8  28  14  29  14  30  14  31  14  32  14  33  14  34  14  35  14
M  ISO  8  36  14  37  14  38  13  39  13  40  13  41  13  42  13  43  13
M  ISO  5  44  13  45  13  46  13  47  13  48  13
M  END
>  <minimizedAffinity>  (1) 
-6.82437706

>  <minimizedRMSD>  (1) 
1.39616632

$$$$
