
     RDKit          3D

 27 29  0  0  0  0  0  0  0  0999 V2000
   36.6740   26.8200   32.7250 N   0  0  0  0  0  0  0  0  0  0  0  0
   37.3390   25.7960   33.2720 N   0  0  0  0  0  0  0  0  0  0  0  0
   37.5680   26.0920   34.5750 C   0  0  0  0  0  0  0  0  0  0  0  0
   37.0210   27.3280   34.8010 C   0  0  0  0  0  0  0  0  0  0  0  0
   36.4590   27.7830   33.6320 C   0  0  0  0  0  0  0  0  0  0  0  0
   35.7890   29.0700   33.5210 C   0  0  0  0  0  0  0  0  0  0  0  0
   35.6710   29.9410   34.5900 C   0  0  0  0  0  0  0  0  0  0  0  0
   35.0550   31.1690   34.5630 C   0  0  0  0  0  0  0  0  0  0  0  0
   34.5260   31.5270   33.3560 N   0  0  0  0  0  0  0  0  0  0  0  0
   34.6200   30.7100   32.2920 C   0  0  0  0  0  0  0  0  0  0  0  0
   35.2340   29.5150   32.3680 N   0  0  0  0  0  0  0  0  0  0  0  0
   38.2710   25.2280   35.5320 C   0  0  0  0  0  0  0  0  0  0  0  0
   37.5230   24.7510   36.4570 O   0  0  0  0  0  0  0  0  0  0  0  0
   41.4890   23.4520   35.6970 C   0  0  0  0  0  0  0  0  0  0  0  0
   40.1050   23.7310   35.8200 C   0  0  0  0  0  0  0  0  0  0  0  0
   39.6770   24.9760   35.3940 C   0  0  0  0  0  0  0  0  0  0  0  0
   40.5610   25.8780   34.8830 N   0  0  0  0  0  0  0  0  0  0  0  0
   41.8690   25.5730   34.7820 C   0  0  0  0  0  0  0  0  0  0  0  0
   42.3240   24.3680   35.1870 N   0  0  0  0  0  0  0  0  0  0  0  0
   36.3692   26.8624   31.7420 H   0  0  0  0  0  0  0  0  0  0  0  0
   37.0302   27.8671   35.7598 H   0  0  0  0  0  0  0  0  0  0  0  0
   36.1096   29.6217   35.5469 H   0  0  0  0  0  0  0  0  0  0  0  0
   34.9925   31.8170   35.4497 H   0  0  0  0  0  0  0  0  0  0  0  0
   34.1831   31.0271   31.3336 H   0  0  0  0  0  0  0  0  0  0  0  0
   41.8806   22.4769   36.0223 H   0  0  0  0  0  0  0  0  0  0  0  0
   39.4036   22.9921   36.2349 H   0  0  0  0  0  0  0  0  0  0  0  0
   42.5714   26.3107   34.3667 H   0  0  0  0  0  0  0  0  0  0  0  0
  1  2  1  0
  1  5  1  0
  2  3  2  0
  3  4  1  0
  3 12  1  0
  5  4  2  0
  6  5  1  0
  6  7  2  0
  8  7  1  0
  9  8  2  0
 10 11  2  0
 10  9  1  0
 11  6  1  0
 12 13  2  0
 14 15  2  0
 16 12  1  0
 16 15  1  0
 17 16  2  0
 18 17  1  0
 18 19  2  0
 19 14  1  0
  1 20  1  0
  4 21  1  0
  7 22  1  0
  8 23  1  0
 10 24  1  0
 14 25  1  0
 15 26  1  0
 18 27  1  0
M  ISO  8  20   9  21  14  22  14  23  14  24  14  25  14  26  14  27  14
M  END
>  <minimizedAffinity>  (1) 
-4.11498737

>  <minimizedRMSD>  (1) 
2.78395939

$$$$
