
     RDKit          3D

 22 23  0  0  0  0  0  0  0  0999 V2000
   38.4070   23.9810   36.3550 C   0  0  0  0  0  0  0  0  0  0  0  0
   37.5030   23.7140   37.2200 O   0  0  0  0  0  0  0  0  0  0  0  0
   41.3000   21.9160   37.3070 C   0  0  0  0  0  0  0  0  0  0  0  0
   39.9900   22.4300   37.2400 C   0  0  0  0  0  0  0  0  0  0  0  0
   39.7530   23.4910   36.3900 C   0  0  0  0  0  0  0  0  0  0  0  0
   40.7700   24.0060   35.6510 N   0  0  0  0  0  0  0  0  0  0  0  0
   42.0160   23.4920   35.7360 C   0  0  0  0  0  0  0  0  0  0  0  0
   42.2720   22.4610   36.5550 N   0  0  0  0  0  0  0  0  0  0  0  0
   37.4350   25.5540   33.2630 N   0  0  0  0  0  0  0  0  0  0  0  0
   37.8670   24.5190   33.9660 N   0  0  0  0  0  0  0  0  0  0  0  0
   37.9670   24.8550   35.2760 C   0  0  0  0  0  0  0  0  0  0  0  0
   37.5680   26.1740   35.3480 C   0  0  0  0  0  0  0  0  0  0  0  0
   37.2410   26.5930   34.0850 C   0  0  0  0  0  0  0  0  0  0  0  0
   36.7650   27.8950   33.6350 C   0  0  0  0  0  0  0  0  0  0  0  0
   36.2340   28.6660   34.4720 O   0  0  0  0  0  0  0  0  0  0  0  0
   36.8640   28.3360   32.3290 O   0  0  0  0  0  0  0  0  0  0  0  0
   41.5270   21.0706   37.9732 H   0  0  0  0  0  0  0  0  0  0  0  0
   39.1804   21.9986   37.8470 H   0  0  0  0  0  0  0  0  0  0  0  0
   42.8266   23.9219   35.1293 H   0  0  0  0  0  0  0  0  0  0  0  0
   37.2738   25.5593   32.2457 H   0  0  0  0  0  0  0  0  0  0  0  0
   37.5206   26.7841   36.2620 H   0  0  0  0  0  0  0  0  0  0  0  0
   36.5225   29.2317   32.0818 H   0  0  0  0  0  0  0  0  0  0  0  0
  1  5  1  0
  1  2  2  0
  4  3  2  0
  5  4  1  0
  6  7  1  0
  6  5  2  0
  7  8  2  0
  8  3  1  0
  9 10  1  0
  9 13  1  0
 10 11  2  0
 11 12  1  0
 11  1  1  0
 13 12  2  0
 14 13  1  0
 14 15  2  0
 16 14  1  0
  3 17  1  0
  4 18  1  0
  7 19  1  0
  9 20  1  0
 12 21  1  0
 16 22  1  0
M  ISO  6  17  14  18  14  19  14  20   9  21  14  22   3
M  END
>  <minimizedAffinity>  (1) 
-3.92231727

>  <minimizedRMSD>  (1) 
1.51147461

$$$$
