
     RDKit          3D

 25 27  0  0  0  0  0  0  0  0999 V2000
   36.6480   26.6930   32.6670 N   0  0  0  0  0  0  0  0  0  0  0  0
   37.2300   25.6690   33.2750 N   0  0  0  0  0  0  0  0  0  0  0  0
   37.5860   26.0390   34.5370 C   0  0  0  0  0  0  0  0  0  0  0  0
   37.1900   27.3520   34.6720 C   0  0  0  0  0  0  0  0  0  0  0  0
   36.6010   27.7610   33.4920 C   0  0  0  0  0  0  0  0  0  0  0  0
   36.0900   29.0790   33.3290 N   0  0  0  0  0  0  0  0  0  0  0  0
   35.5890   29.6900   34.4350 C   0  0  0  0  0  0  0  0  0  0  0  0
   35.1590   30.9080   34.0940 N   0  0  0  0  0  0  0  0  0  0  0  0
   35.3880   31.0730   32.7690 C   0  0  0  0  0  0  0  0  0  0  0  0
   35.9670   29.9270   32.3080 N   0  0  0  0  0  0  0  0  0  0  0  0
   38.2500   25.1950   35.5240 C   0  0  0  0  0  0  0  0  0  0  0  0
   37.4910   24.7530   36.4450 O   0  0  0  0  0  0  0  0  0  0  0  0
   41.4410   23.3880   35.7970 C   0  0  0  0  0  0  0  0  0  0  0  0
   40.0670   23.6880   35.8880 C   0  0  0  0  0  0  0  0  0  0  0  0
   39.6520   24.9170   35.4180 C   0  0  0  0  0  0  0  0  0  0  0  0
   40.5550   25.7980   34.8880 N   0  0  0  0  0  0  0  0  0  0  0  0
   41.8750   25.4620   34.8220 C   0  0  0  0  0  0  0  0  0  0  0  0
   42.3010   24.2730   35.2720 N   0  0  0  0  0  0  0  0  0  0  0  0
   36.2839   26.6765   31.7036 H   0  0  0  0  0  0  0  0  0  0  0  0
   37.3214   27.9718   35.5712 H   0  0  0  0  0  0  0  0  0  0  0  0
   35.5449   29.2538   35.4438 H   0  0  0  0  0  0  0  0  0  0  0  0
   35.1506   31.9672   32.1739 H   0  0  0  0  0  0  0  0  0  0  0  0
   41.8118   22.4182   36.1603 H   0  0  0  0  0  0  0  0  0  0  0  0
   39.3528   22.9699   36.3173 H   0  0  0  0  0  0  0  0  0  0  0  0
   42.5974   26.1735   34.3954 H   0  0  0  0  0  0  0  0  0  0  0  0
  1  2  1  0
  1  5  1  0
  2  3  2  0
  3  4  1  0
  3 11  1  0
  5  4  2  0
  6  5  1  0
  6  7  1  0
  8  7  2  0
  9  8  1  0
 10  9  2  0
 10  6  1  0
 11 12  2  0
 13 14  2  0
 15 11  1  0
 15 14  1  0
 16 15  2  0
 17 16  1  0
 17 18  2  0
 18 13  1  0
  1 19  1  0
  4 20  1  0
  7 21  1  0
  9 22  1  0
 13 23  1  0
 14 24  1  0
 17 25  1  0
M  ISO  7  19   9  20  14  21  14  22  14  23  14  24  14  25  14
M  END
>  <minimizedAffinity>  (1) 
-3.89545012

>  <minimizedRMSD>  (1) 
2.59355068

$$$$
