
     RDKit          3D

 20 21  0  0  0  0  0  0  0  0999 V2000
   38.6930   23.4780   36.3670 C   0  0  0  0  0  0  0  0  0  0  0  0
   37.7160   22.7760   36.7800 O   0  0  0  0  0  0  0  0  0  0  0  0
   41.7100   21.5940   37.3110 C   0  0  0  0  0  0  0  0  0  0  0  0
   40.3640   22.0030   37.2310 C   0  0  0  0  0  0  0  0  0  0  0  0
   40.0650   23.0890   36.4270 C   0  0  0  0  0  0  0  0  0  0  0  0
   41.0690   23.7130   35.7530 N   0  0  0  0  0  0  0  0  0  0  0  0
   42.3520   23.3020   35.8470 C   0  0  0  0  0  0  0  0  0  0  0  0
   42.6550   22.2420   36.6290 N   0  0  0  0  0  0  0  0  0  0  0  0
   37.6690   26.2850   34.3600 N   0  0  0  0  0  0  0  0  0  0  0  0
   37.9310   24.9850   34.5130 N   0  0  0  0  0  0  0  0  0  0  0  0
   38.3190   24.7720   35.8000 C   0  0  0  0  0  0  0  0  0  0  0  0
   38.2820   25.9950   36.4190 C   0  0  0  0  0  0  0  0  0  0  0  0
   37.8700   26.9500   35.5040 C   0  0  0  0  0  0  0  0  0  0  0  0
   37.7050   28.3100   35.7420 O   0  0  0  0  0  0  0  0  0  0  0  0
   41.9831   20.7342   37.9404 H   0  0  0  0  0  0  0  0  0  0  0  0
   39.5763   21.4761   37.7896 H   0  0  0  0  0  0  0  0  0  0  0  0
   43.1440   23.8257   35.2916 H   0  0  0  0  0  0  0  0  0  0  0  0
   37.3545   26.7180   33.4800 H   0  0  0  0  0  0  0  0  0  0  0  0
   38.5380   26.1867   37.4715 H   0  0  0  0  0  0  0  0  0  0  0  0
   37.8887   28.6810   36.6413 H   0  0  0  0  0  0  0  0  0  0  0  0
  1  5  1  0
  1  2  2  0
  4  3  2  0
  5  4  1  0
  6  7  1  0
  6  5  2  0
  7  8  2  0
  8  3  1  0
  9 10  1  0
  9 13  1  0
 10 11  2  0
 11  1  1  0
 11 12  1  0
 13 14  1  0
 13 12  2  0
  3 15  1  0
  4 16  1  0
  7 17  1  0
  9 18  1  0
 12 19  1  0
 14 20  1  0
M  ISO  6  15  14  16  14  17  14  18   9  19  14  20   3
M  END
>  <minimizedAffinity>  (1) 
-3.76579213

>  <minimizedRMSD>  (1) 
0.891684473

$$$$
