
     RDKit          3D

 21 22  0  0  0  0  0  0  0  0999 V2000
   38.7140   23.4550   36.3650 C   0  0  0  0  0  0  0  0  0  0  0  0
   37.7370   22.7590   36.8070 O   0  0  0  0  0  0  0  0  0  0  0  0
   41.7300   21.5650   37.3190 C   0  0  0  0  0  0  0  0  0  0  0  0
   40.3810   21.9770   37.2290 C   0  0  0  0  0  0  0  0  0  0  0  0
   40.0910   23.0650   36.4330 C   0  0  0  0  0  0  0  0  0  0  0  0
   41.0900   23.7070   35.7640 N   0  0  0  0  0  0  0  0  0  0  0  0
   42.3670   23.2890   35.8700 C   0  0  0  0  0  0  0  0  0  0  0  0
   42.6740   22.2330   36.6380 N   0  0  0  0  0  0  0  0  0  0  0  0
   37.6650   26.1950   34.2890 N   0  0  0  0  0  0  0  0  0  0  0  0
   37.9480   24.9070   34.4700 N   0  0  0  0  0  0  0  0  0  0  0  0
   38.3250   24.7190   35.7660 C   0  0  0  0  0  0  0  0  0  0  0  0
   38.2620   25.9540   36.3850 C   0  0  0  0  0  0  0  0  0  0  0  0
   37.8450   26.8820   35.4470 C   0  0  0  0  0  0  0  0  0  0  0  0
   37.6480   28.2660   35.6640 N   0  0  0  0  0  0  0  0  0  0  0  0
   42.0045   20.7020   37.9435 H   0  0  0  0  0  0  0  0  0  0  0  0
   39.5878   21.4467   37.7764 H   0  0  0  0  0  0  0  0  0  0  0  0
   43.1622   23.8170   35.3234 H   0  0  0  0  0  0  0  0  0  0  0  0
   37.3544   26.6108   33.3993 H   0  0  0  0  0  0  0  0  0  0  0  0
   38.5014   26.1622   37.4383 H   0  0  0  0  0  0  0  0  0  0  0  0
   37.8199   28.6709   36.5954 H   0  0  0  0  0  0  0  0  0  0  0  0
   37.3327   28.8688   34.8906 H   0  0  0  0  0  0  0  0  0  0  0  0
  1  5  1  0
  1  2  2  0
  4  3  2  0
  5  4  1  0
  6  7  1  0
  6  5  2  0
  7  8  2  0
  8  3  1  0
  9 10  1  0
  9 13  1  0
 10 11  2  0
 11  1  1  0
 11 12  1  0
 13 14  1  0
 13 12  2  0
  3 15  1  0
  4 16  1  0
  7 17  1  0
  9 18  1  0
 12 19  1  0
 14 20  1  0
 14 21  1  0
M  ISO  5  15  14  16  14  17  14  18   9  19  14
M  END
>  <minimizedAffinity>  (1) 
-3.67861819

>  <minimizedRMSD>  (1) 
0.931458473

$$$$
