
     RDKit          3D

 40 44  0  0  0  0  0  0  0  0999 V2000
   41.4600   21.8950   37.1430 C   0  0  0  0  0  0  0  0  0  0  0  0
   40.1010   22.2340   36.9690 C   0  0  0  0  0  0  0  0  0  0  0  0
   39.8200   23.3830   36.2490 C   0  0  0  0  0  0  0  0  0  0  0  0
   40.8440   24.1360   35.7400 N   0  0  0  0  0  0  0  0  0  0  0  0
   42.1260   23.7670   35.9360 C   0  0  0  0  0  0  0  0  0  0  0  0
   42.4230   22.6660   36.6250 N   0  0  0  0  0  0  0  0  0  0  0  0
   43.2020   24.5530   35.4040 N   0  0  0  0  0  0  0  0  0  0  0  0
   43.3960   25.0360   34.1590 C   0  0  0  0  0  0  0  0  0  0  0  0
   44.5730   25.7190   34.1720 N   0  0  0  0  0  0  0  0  0  0  0  0
   45.0850   25.6470   35.4190 C   0  0  0  0  0  0  0  0  0  0  0  0
   46.2580   26.1830   35.9190 C   0  0  0  0  0  0  0  0  0  0  0  0
   46.5550   25.9690   37.2260 N   0  0  0  0  0  0  0  0  0  0  0  0
   45.6920   25.2410   37.9810 C   0  0  0  0  0  0  0  0  0  0  0  0
   44.5570   24.7190   37.5090 N   0  0  0  0  0  0  0  0  0  0  0  0
   44.2280   24.9080   36.2260 C   0  0  0  0  0  0  0  0  0  0  0  0
   47.1830   26.9500   35.1560 N   0  0  0  0  0  0  0  0  0  0  0  0
   38.4410   23.7130   36.0810 C   0  0  0  0  0  0  0  0  0  0  0  0
   37.5000   23.3440   36.8590 O   0  0  0  0  0  0  0  0  0  0  0  0
   37.5410   25.1710   32.9110 N   0  0  0  0  0  0  0  0  0  0  0  0
   37.9820   24.1680   33.6500 N   0  0  0  0  0  0  0  0  0  0  0  0
   38.0140   24.5370   34.9420 C   0  0  0  0  0  0  0  0  0  0  0  0
   37.5620   25.8520   34.9900 C   0  0  0  0  0  0  0  0  0  0  0  0
   37.2700   26.2250   33.6880 C   0  0  0  0  0  0  0  0  0  0  0  0
   36.7660   27.5680   33.3970 C   0  0  0  0  0  0  0  0  0  0  0  0
   36.2430   28.3350   34.4140 C   0  0  0  0  0  0  0  0  0  0  0  0
   35.7370   29.6200   34.2460 C   0  0  0  0  0  0  0  0  0  0  0  0
   35.7660   30.1340   33.0030 N   0  0  0  0  0  0  0  0  0  0  0  0
   36.2800   29.3840   31.9950 C   0  0  0  0  0  0  0  0  0  0  0  0
   36.7800   28.1250   32.1480 N   0  0  0  0  0  0  0  0  0  0  0  0
   41.7293   20.9907   37.7084 H   0  0  0  0  0  0  0  0  0  0  0  0
   39.2975   21.6107   37.3884 H   0  0  0  0  0  0  0  0  0  0  0  0
   42.7279   24.9026   33.2954 H   0  0  0  0  0  0  0  0  0  0  0  0
   45.9416   25.0722   39.0389 H   0  0  0  0  0  0  0  0  0  0  0  0
   48.0372   27.3167   35.5995 H   0  0  0  0  0  0  0  0  0  0  0  0
   46.9981   27.1383   34.1604 H   0  0  0  0  0  0  0  0  0  0  0  0
   37.4235   25.1447   31.8881 H   0  0  0  0  0  0  0  0  0  0  0  0
   37.4566   26.4762   35.8896 H   0  0  0  0  0  0  0  0  0  0  0  0
   36.2240   27.9034   35.4256 H   0  0  0  0  0  0  0  0  0  0  0  0
   35.3305   30.1915   35.0934 H   0  0  0  0  0  0  0  0  0  0  0  0
   36.2940   29.8219   30.9860 H   0  0  0  0  0  0  0  0  0  0  0  0
  2  1  2  0
  3  2  1  0
  4  5  1  0
  4  3  2  0
  5  6  2  0
  6  1  1  0
  7  5  1  0
  7 15  1  0
  8  9  2  0
  8  7  1  0
  9 10  1  0
 10 11  1  0
 10 15  2  0
 11 12  2  0
 12 13  1  0
 14 13  2  0
 15 14  1  0
 16 11  1  0
 17  3  1  0
 17 18  2  0
 19 20  1  0
 19 23  1  0
 20 21  2  0
 21 22  1  0
 21 17  1  0
 23 22  2  0
 24 23  1  0
 24 25  2  0
 26 25  1  0
 27 26  2  0
 28 29  2  0
 28 27  1  0
 29 24  1  0
  1 30  1  0
  2 31  1  0
  8 32  1  0
 13 33  1  0
 16 34  1  0
 16 35  1  0
 19 36  1  0
 22 37  1  0
 25 38  1  0
 26 39  1  0
 28 40  1  0
M  ISO  8  30  14  31  14  32  14  33  14  36   9  37  14  38  14  39  14
M  ISO  1  40  14
M  END
>  <minimizedAffinity>  (1) 
-6.16551781

>  <minimizedRMSD>  (1) 
2.23842835

$$$$
