
     RDKit          3D

 42 45  0  0  0  0  0  0  0  0999 V2000
   38.2470   24.1830   36.3090 C   0  0  0  0  0  0  0  0  0  0  0  0
   37.3180   24.0780   37.1550 O   0  0  0  0  0  0  0  0  0  0  0  0
   40.9530   21.9270   37.4120 C   0  0  0  0  0  0  0  0  0  0  0  0
   39.6650   22.5070   37.2730 C   0  0  0  0  0  0  0  0  0  0  0  0
   39.5600   23.6200   36.4290 C   0  0  0  0  0  0  0  0  0  0  0  0
   40.6650   24.0840   35.7950 N   0  0  0  0  0  0  0  0  0  0  0  0
   41.8590   23.4920   35.9670 C   0  0  0  0  0  0  0  0  0  0  0  0
   42.0020   22.4360   36.7570 N   0  0  0  0  0  0  0  0  0  0  0  0
   43.0150   23.9860   35.2960 N   0  0  0  0  0  0  0  0  0  0  0  0
   43.3260   25.4020   35.2340 C   0  0  0  0  0  0  0  0  0  0  0  0
   44.6060   25.6110   35.9950 C   0  0  0  0  0  0  0  0  0  0  0  0
   45.3390   24.3490   36.3380 C   0  0  0  0  0  0  0  0  0  0  0  0
   45.3530   23.3230   35.2360 C   0  0  0  0  0  0  0  0  0  0  0  0
   43.9820   23.1430   34.6190 C   0  0  0  0  0  0  0  0  0  0  0  0
   37.5930   25.4900   33.0140 N   0  0  0  0  0  0  0  0  0  0  0  0
   37.9900   24.5300   33.8340 N   0  0  0  0  0  0  0  0  0  0  0  0
   37.9000   24.9570   35.1200 C   0  0  0  0  0  0  0  0  0  0  0  0
   37.4210   26.2440   35.0530 C   0  0  0  0  0  0  0  0  0  0  0  0
   37.2340   26.5670   33.7300 C   0  0  0  0  0  0  0  0  0  0  0  0
   36.7300   27.8860   33.3360 C   0  0  0  0  0  0  0  0  0  0  0  0
   36.0680   28.6720   34.2610 C   0  0  0  0  0  0  0  0  0  0  0  0
   35.5560   29.9410   33.9950 C   0  0  0  0  0  0  0  0  0  0  0  0
   35.7390   30.3960   32.7410 N   0  0  0  0  0  0  0  0  0  0  0  0
   36.3760   29.6570   31.8250 C   0  0  0  0  0  0  0  0  0  0  0  0
   36.8670   28.4340   32.0910 N   0  0  0  0  0  0  0  0  0  0  0  0
   41.0895   21.0516   38.0639 H   0  0  0  0  0  0  0  0  0  0  0  0
   38.7905   22.1016   37.8031 H   0  0  0  0  0  0  0  0  0  0  0  0
   43.4550   25.7138   34.1870 H   0  0  0  0  0  0  0  0  0  0  0  0
   42.5115   25.9996   35.6692 H   0  0  0  0  0  0  0  0  0  0  0  0
   45.2706   26.2388   35.3834 H   0  0  0  0  0  0  0  0  0  0  0  0
   44.3287   26.0809   36.9501 H   0  0  0  0  0  0  0  0  0  0  0  0
   46.3800   24.6097   36.5795 H   0  0  0  0  0  0  0  0  0  0  0  0
   44.8052   23.8944   37.1856 H   0  0  0  0  0  0  0  0  0  0  0  0
   46.0553   23.6491   34.4546 H   0  0  0  0  0  0  0  0  0  0  0  0
   45.6627   22.3602   35.6686 H   0  0  0  0  0  0  0  0  0  0  0  0
   44.0230   23.4189   33.5550 H   0  0  0  0  0  0  0  0  0  0  0  0
   43.6766   22.0913   34.7220 H   0  0  0  0  0  0  0  0  0  0  0  0
   37.5641   25.4213   31.9867 H   0  0  0  0  0  0  0  0  0  0  0  0
   37.2215   26.9025   35.9112 H   0  0  0  0  0  0  0  0  0  0  0  0
   35.9364   28.2685   35.2758 H   0  0  0  0  0  0  0  0  0  0  0  0
   35.0351   30.5335   34.7615 H   0  0  0  0  0  0  0  0  0  0  0  0
   36.5032   30.0673   30.8123 H   0  0  0  0  0  0  0  0  0  0  0  0
  1  5  1  0
  1  2  2  0
  4  3  2  0
  5  4  1  0
  6  7  1  0
  6  5  2  0
  7  8  2  0
  8  3  1  0
  9  7  1  0
 10  9  1  0
 10 11  1  0
 11 12  1  0
 13 12  1  0
 14 13  1  0
 14  9  1  0
 15 19  1  0
 15 16  1  0
 16 17  2  0
 17  1  1  0
 18 17  1  0
 19 18  2  0
 20 19  1  0
 20 21  2  0
 22 21  1  0
 23 22  2  0
 24 25  2  0
 24 23  1  0
 25 20  1  0
  3 26  1  0
  4 27  1  0
 10 28  1  0
 10 29  1  0
 11 30  1  0
 11 31  1  0
 12 32  1  0
 12 33  1  0
 13 34  1  0
 13 35  1  0
 14 36  1  0
 14 37  1  0
 15 38  1  0
 18 39  1  0
 21 40  1  0
 22 41  1  0
 24 42  1  0
M  ISO  8  26  14  27  14  28  13  29  13  30  13  31  13  32  13  33  13
M  ISO  8  34  13  35  13  36  13  37  13  38   9  39  14  40  14  41  14
M  ISO  1  42  14
M  END
>  <minimizedAffinity>  (1) 
-5.53428125

>  <minimizedRMSD>  (1) 
2.30665851

$$$$
