
     RDKit          3D

 34 37  0  0  0  0  0  0  0  0999 V2000
   38.3350   24.0400   36.2760 C   0  0  0  0  0  0  0  0  0  0  0  0
   37.3970   23.8570   37.1210 O   0  0  0  0  0  0  0  0  0  0  0  0
   41.1250   21.8740   37.2980 C   0  0  0  0  0  0  0  0  0  0  0  0
   39.8330   22.3990   37.1600 C   0  0  0  0  0  0  0  0  0  0  0  0
   39.6690   23.5450   36.3870 C   0  0  0  0  0  0  0  0  0  0  0  0
   40.7540   24.1100   35.8010 N   0  0  0  0  0  0  0  0  0  0  0  0
   41.9800   23.5740   35.9600 C   0  0  0  0  0  0  0  0  0  0  0  0
   42.1520   22.4730   36.6980 N   0  0  0  0  0  0  0  0  0  0  0  0
   43.1550   24.1150   35.3740 N   0  0  0  0  0  0  0  0  0  0  0  0
   43.7410   25.2210   35.8120 N   0  0  0  0  0  0  0  0  0  0  0  0
   44.8310   25.5290   35.1000 C   0  0  0  0  0  0  0  0  0  0  0  0
   44.9570   24.5580   34.1360 C   0  0  0  0  0  0  0  0  0  0  0  0
   43.9050   23.7060   34.3390 C   0  0  0  0  0  0  0  0  0  0  0  0
   37.5860   25.4300   33.0290 N   0  0  0  0  0  0  0  0  0  0  0  0
   38.0020   24.4460   33.8120 N   0  0  0  0  0  0  0  0  0  0  0  0
   37.9570   24.8400   35.1020 C   0  0  0  0  0  0  0  0  0  0  0  0
   37.4850   26.1390   35.0880 C   0  0  0  0  0  0  0  0  0  0  0  0
   37.2580   26.4860   33.7650 C   0  0  0  0  0  0  0  0  0  0  0  0
   36.7450   27.8150   33.4200 C   0  0  0  0  0  0  0  0  0  0  0  0
   36.1140   28.5630   34.3900 C   0  0  0  0  0  0  0  0  0  0  0  0
   35.5730   29.8450   34.1820 C   0  0  0  0  0  0  0  0  0  0  0  0
   35.7040   30.3400   32.9220 N   0  0  0  0  0  0  0  0  0  0  0  0
   36.3180   29.6130   31.9780 C   0  0  0  0  0  0  0  0  0  0  0  0
   36.8370   28.3730   32.1940 N   0  0  0  0  0  0  0  0  0  0  0  0
   41.2905   20.9689   37.9008 H   0  0  0  0  0  0  0  0  0  0  0  0
   38.9725   21.9189   37.6489 H   0  0  0  0  0  0  0  0  0  0  0  0
   45.4963   26.3910   35.2559 H   0  0  0  0  0  0  0  0  0  0  0  0
   45.7376   24.4815   33.3648 H   0  0  0  0  0  0  0  0  0  0  0  0
   43.7021   22.8086   33.7361 H   0  0  0  0  0  0  0  0  0  0  0  0
   37.5258   25.3833   32.0018 H   0  0  0  0  0  0  0  0  0  0  0  0
   37.3196   26.7804   35.9662 H   0  0  0  0  0  0  0  0  0  0  0  0
   36.0272   28.1278   35.3965 H   0  0  0  0  0  0  0  0  0  0  0  0
   35.0769   30.4096   34.9852 H   0  0  0  0  0  0  0  0  0  0  0  0
   36.4078   30.0435   30.9697 H   0  0  0  0  0  0  0  0  0  0  0  0
  1  5  1  0
  1  2  2  0
  4  3  2  0
  5  4  1  0
  6  7  1  0
  6  5  2  0
  7  8  2  0
  8  3  1  0
  9 10  1  0
  9  7  1  0
 11 10  2  0
 12 13  2  0
 12 11  1  0
 13  9  1  0
 14 18  1  0
 14 15  1  0
 15 16  2  0
 16  1  1  0
 17 16  1  0
 18 17  2  0
 19 18  1  0
 19 20  2  0
 21 20  1  0
 22 21  2  0
 23 24  2  0
 23 22  1  0
 24 19  1  0
  3 25  1  0
  4 26  1  0
 11 27  1  0
 12 28  1  0
 13 29  1  0
 14 30  1  0
 17 31  1  0
 20 32  1  0
 21 33  1  0
 23 34  1  0
M  ISO  8  25  14  26  14  27  14  28  14  29  14  30   9  31  14  32  14
M  ISO  2  33  14  34  14
M  END
>  <minimizedAffinity>  (1) 
-5.18351984

>  <minimizedRMSD>  (1) 
2.23106909

$$$$
