
     RDKit          3D

 34 37  0  0  0  0  0  0  0  0999 V2000
   37.9500   24.7980   33.1500 N   0  0  0  0  0  0  0  0  0  0  0  0
   38.4380   23.8480   33.9300 N   0  0  0  0  0  0  0  0  0  0  0  0
   38.3930   24.2410   35.2130 C   0  0  0  0  0  0  0  0  0  0  0  0
   37.8430   25.5110   35.2060 C   0  0  0  0  0  0  0  0  0  0  0  0
   37.5720   25.8360   33.8850 C   0  0  0  0  0  0  0  0  0  0  0  0
   36.9790   27.1260   33.5540 C   0  0  0  0  0  0  0  0  0  0  0  0
   36.5270   27.9540   34.5590 C   0  0  0  0  0  0  0  0  0  0  0  0
   35.9390   29.2070   34.3490 C   0  0  0  0  0  0  0  0  0  0  0  0
   35.8200   29.6090   33.0640 N   0  0  0  0  0  0  0  0  0  0  0  0
   36.2570   28.8120   32.0760 C   0  0  0  0  0  0  0  0  0  0  0  0
   36.8250   27.5960   32.2890 N   0  0  0  0  0  0  0  0  0  0  0  0
   38.8410   23.4720   36.3850 C   0  0  0  0  0  0  0  0  0  0  0  0
   37.9310   23.2260   37.2440 O   0  0  0  0  0  0  0  0  0  0  0  0
   41.7730   21.3190   36.9450 C   0  0  0  0  0  0  0  0  0  0  0  0
   40.4360   21.7450   36.8350 C   0  0  0  0  0  0  0  0  0  0  0  0
   40.2030   23.0630   36.4910 C   0  0  0  0  0  0  0  0  0  0  0  0
   41.2610   23.8900   36.2760 N   0  0  0  0  0  0  0  0  0  0  0  0
   42.5300   23.4370   36.3940 C   0  0  0  0  0  0  0  0  0  0  0  0
   42.7620   22.1640   36.7260 N   0  0  0  0  0  0  0  0  0  0  0  0
   43.5170   24.4390   36.1330 C   0  0  0  0  0  0  0  0  0  0  0  0
   44.5100   24.9560   36.9750 C   0  0  0  0  0  0  0  0  0  0  0  0
   45.3620   25.9210   36.5240 C   0  0  0  0  0  0  0  0  0  0  0  0
   45.2230   26.3920   35.1840 C   0  0  0  0  0  0  0  0  0  0  0  0
   43.7600   25.3670   34.5390 S   0  0  0  0  0  0  0  0  0  0  0  0
   37.8746   24.7406   32.1244 H   0  0  0  0  0  0  0  0  0  0  0  0
   37.6555   26.1451   36.0851 H   0  0  0  0  0  0  0  0  0  0  0  0
   36.6357   27.6065   35.5970 H   0  0  0  0  0  0  0  0  0  0  0  0
   35.5921   29.8314   35.1856 H   0  0  0  0  0  0  0  0  0  0  0  0
   36.1495   29.1620   31.0387 H   0  0  0  0  0  0  0  0  0  0  0  0
   41.9943   20.2759   37.2150 H   0  0  0  0  0  0  0  0  0  0  0  0
   39.6026   21.0505   37.0172 H   0  0  0  0  0  0  0  0  0  0  0  0
   44.6031   24.5818   38.0052 H   0  0  0  0  0  0  0  0  0  0  0  0
   46.1431   26.3293   37.1821 H   0  0  0  0  0  0  0  0  0  0  0  0
   45.8141   27.1559   34.6576 H   0  0  0  0  0  0  0  0  0  0  0  0
  1  5  1  0
  1  2  1  0
  2  3  2  0
  3 12  1  0
  4  3  1  0
  5  4  2  0
  6  5  1  0
  6  7  2  0
  8  7  1  0
  9  8  2  0
 10 11  2  0
 10  9  1  0
 11  6  1  0
 12 16  1  0
 12 13  2  0
 15 14  2  0
 16 15  1  0
 17 18  1  0
 17 16  2  0
 18 19  2  0
 19 14  1  0
 20 18  1  0
 20 21  2  0
 22 21  1  0
 23 22  2  0
 24 23  1  0
 24 20  1  0
  1 25  1  0
  4 26  1  0
  7 27  1  0
  8 28  1  0
 10 29  1  0
 14 30  1  0
 15 31  1  0
 21 32  1  0
 22 33  1  0
 23 34  1  0
M  ISO  8  25   9  26  14  27  14  28  14  29  14  30  14  31  14  32  14
M  ISO  2  33  14  34  14
M  END
>  <minimizedAffinity>  (1) 
-5.04425573

>  <minimizedRMSD>  (1) 
2.71614146

$$$$
