
     RDKit          3D

 33 35  0  0  0  0  0  0  0  0999 V2000
   37.5690   25.4880   33.0060 N   0  0  0  0  0  0  0  0  0  0  0  0
   37.9710   24.5170   33.8200 N   0  0  0  0  0  0  0  0  0  0  0  0
   37.9010   24.9400   35.0930 C   0  0  0  0  0  0  0  0  0  0  0  0
   37.4280   26.2460   35.0460 C   0  0  0  0  0  0  0  0  0  0  0  0
   37.2280   26.5640   33.7200 C   0  0  0  0  0  0  0  0  0  0  0  0
   36.7290   27.8820   33.3370 C   0  0  0  0  0  0  0  0  0  0  0  0
   36.0730   28.6590   34.2670 C   0  0  0  0  0  0  0  0  0  0  0  0
   35.5540   29.9320   34.0070 C   0  0  0  0  0  0  0  0  0  0  0  0
   35.7220   30.4060   32.7530 N   0  0  0  0  0  0  0  0  0  0  0  0
   36.3570   29.6620   31.8400 C   0  0  0  0  0  0  0  0  0  0  0  0
   36.8640   28.4200   32.0930 N   0  0  0  0  0  0  0  0  0  0  0  0
   38.2550   24.1710   36.2950 C   0  0  0  0  0  0  0  0  0  0  0  0
   37.3210   24.0630   37.1580 O   0  0  0  0  0  0  0  0  0  0  0  0
   40.9670   21.9610   37.4260 C   0  0  0  0  0  0  0  0  0  0  0  0
   39.6780   22.5270   37.2820 C   0  0  0  0  0  0  0  0  0  0  0  0
   39.5660   23.6120   36.4280 C   0  0  0  0  0  0  0  0  0  0  0  0
   40.6520   24.0810   35.7790 N   0  0  0  0  0  0  0  0  0  0  0  0
   41.8680   23.5090   35.9450 C   0  0  0  0  0  0  0  0  0  0  0  0
   42.0090   22.4690   36.7560 N   0  0  0  0  0  0  0  0  0  0  0  0
   43.0230   24.0580   35.2140 C   0  0  0  0  0  0  0  0  0  0  0  0
   44.1910   24.4040   36.1260 C   0  0  0  0  0  0  0  0  0  0  0  0
   37.5268   25.4207   31.9791 H   0  0  0  0  0  0  0  0  0  0  0  0
   37.2467   26.9045   35.9083 H   0  0  0  0  0  0  0  0  0  0  0  0
   35.9492   28.2513   35.2811 H   0  0  0  0  0  0  0  0  0  0  0  0
   35.0366   30.5160   34.7824 H   0  0  0  0  0  0  0  0  0  0  0  0
   36.4774   30.0748   30.8275 H   0  0  0  0  0  0  0  0  0  0  0  0
   41.1138   21.0983   38.0925 H   0  0  0  0  0  0  0  0  0  0  0  0
   38.8078   22.1252   37.8217 H   0  0  0  0  0  0  0  0  0  0  0  0
   43.3603   23.3119   34.4794 H   0  0  0  0  0  0  0  0  0  0  0  0
   42.6948   24.9897   34.7301 H   0  0  0  0  0  0  0  0  0  0  0  0
   43.8765   24.3108   37.1760 H   0  0  0  0  0  0  0  0  0  0  0  0
   45.0255   23.7145   35.9306 H   0  0  0  0  0  0  0  0  0  0  0  0
   44.5153   25.4368   35.9306 H   0  0  0  0  0  0  0  0  0  0  0  0
  1  5  1  0
  1  2  1  0
  2  3  2  0
  3 12  1  0
  4  3  1  0
  5  4  2  0
  6  5  1  0
  6  7  2  0
  8  7  1  0
  9  8  2  0
 10 11  2  0
 10  9  1  0
 11  6  1  0
 12 16  1  0
 12 13  2  0
 15 14  2  0
 16 15  1  0
 17 18  1  0
 17 16  2  0
 18 19  2  0
 19 14  1  0
 20 18  1  0
 20 21  1  0
  1 22  1  0
  4 23  1  0
  7 24  1  0
  8 25  1  0
 10 26  1  0
 14 27  1  0
 15 28  1  0
 20 29  1  0
 20 30  1  0
 21 31  1  0
 21 32  1  0
 21 33  1  0
M  ISO  8  22   9  23  14  24  14  25  14  26  14  27  14  28  14  29   8
M  ISO  4  30   8  31   8  32   8  33   8
M  END
>  <minimizedAffinity>  (1) 
-4.75388336

>  <minimizedRMSD>  (1) 
2.04676747

$$$$
