
     RDKit          3D

 30 32  0  0  0  0  0  0  0  0999 V2000
   36.8350   26.2980   32.6860 N   0  0  0  0  0  0  0  0  0  0  0  0
   37.4120   25.2890   33.3200 N   0  0  0  0  0  0  0  0  0  0  0  0
   37.7490   25.6590   34.5670 C   0  0  0  0  0  0  0  0  0  0  0  0
   37.3530   26.9770   34.7020 C   0  0  0  0  0  0  0  0  0  0  0  0
   36.7800   27.3590   33.5050 C   0  0  0  0  0  0  0  0  0  0  0  0
   36.2510   28.7170   33.3200 C   0  0  0  0  0  0  0  0  0  0  0  0
   35.7530   29.4020   34.4080 C   0  0  0  0  0  0  0  0  0  0  0  0
   35.2310   30.6880   34.3440 C   0  0  0  0  0  0  0  0  0  0  0  0
   35.2190   31.2840   33.1310 N   0  0  0  0  0  0  0  0  0  0  0  0
   35.7040   30.6210   32.0650 C   0  0  0  0  0  0  0  0  0  0  0  0
   36.2180   29.3630   32.1150 N   0  0  0  0  0  0  0  0  0  0  0  0
   38.4060   24.8250   35.5780 C   0  0  0  0  0  0  0  0  0  0  0  0
   37.6280   24.3660   36.4720 O   0  0  0  0  0  0  0  0  0  0  0  0
   41.6540   23.1420   36.0010 C   0  0  0  0  0  0  0  0  0  0  0  0
   40.2640   23.3960   36.0640 C   0  0  0  0  0  0  0  0  0  0  0  0
   39.8130   24.5870   35.5050 C   0  0  0  0  0  0  0  0  0  0  0  0
   40.7110   25.4450   34.9310 N   0  0  0  0  0  0  0  0  0  0  0  0
   42.0190   25.1460   34.9040 C   0  0  0  0  0  0  0  0  0  0  0  0
   42.4700   24.0100   35.4330 N   0  0  0  0  0  0  0  0  0  0  0  0
   42.9190   26.1090   34.2750 C   0  0  0  0  0  0  0  0  0  0  0  0
   44.0030   25.6640   33.7740 O   0  0  0  0  0  0  0  0  0  0  0  0
   42.6380   27.4670   34.2070 O   0  0  0  0  0  0  0  0  0  0  0  0
   36.4842   26.2724   31.7179 H   0  0  0  0  0  0  0  0  0  0  0  0
   37.4723   27.6050   35.5972 H   0  0  0  0  0  0  0  0  0  0  0  0
   35.7700   28.8997   35.3865 H   0  0  0  0  0  0  0  0  0  0  0  0
   34.8453   31.1976   35.2393 H   0  0  0  0  0  0  0  0  0  0  0  0
   35.6833   31.1297   31.0899 H   0  0  0  0  0  0  0  0  0  0  0  0
   42.0584   22.2129   36.4291 H   0  0  0  0  0  0  0  0  0  0  0  0
   39.5705   22.6833   36.5342 H   0  0  0  0  0  0  0  0  0  0  0  0
   43.2779   28.0836   33.7706 H   0  0  0  0  0  0  0  0  0  0  0  0
  1  2  1  0
  1  5  1  0
  2  3  2  0
  3  4  1  0
  3 12  1  0
  5  4  2  0
  6  5  1  0
  6  7  2  0
  8  7  1  0
  9  8  2  0
 10 11  2  0
 10  9  1  0
 11  6  1  0
 12 13  2  0
 14 15  2  0
 16 12  1  0
 16 15  1  0
 17 16  2  0
 18 17  1  0
 18 19  2  0
 19 14  1  0
 20 18  1  0
 21 20  2  0
 22 20  1  0
  1 23  1  0
  4 24  1  0
  7 25  1  0
  8 26  1  0
 10 27  1  0
 14 28  1  0
 15 29  1  0
 22 30  1  0
M  ISO  8  23   9  24  14  25  14  26  14  27  14  28  14  29  14  30   3
M  END
>  <minimizedAffinity>  (1) 
-4.69557762

>  <minimizedRMSD>  (1) 
0.888858914

$$$$
