
     RDKit          3D

 30 32  0  0  0  0  0  0  0  0999 V2000
   36.7210   26.5230   32.6510 N   0  0  0  0  0  0  0  0  0  0  0  0
   37.3170   25.5230   33.2820 N   0  0  0  0  0  0  0  0  0  0  0  0
   37.5930   25.8900   34.5640 C   0  0  0  0  0  0  0  0  0  0  0  0
   37.1310   27.1850   34.6970 C   0  0  0  0  0  0  0  0  0  0  0  0
   36.5860   27.5650   33.4820 C   0  0  0  0  0  0  0  0  0  0  0  0
   36.0120   28.8980   33.3250 C   0  0  0  0  0  0  0  0  0  0  0  0
   35.6720   29.6370   34.4370 C   0  0  0  0  0  0  0  0  0  0  0  0
   35.1120   30.9170   34.3840 C   0  0  0  0  0  0  0  0  0  0  0  0
   34.9020   31.4310   33.1600 N   0  0  0  0  0  0  0  0  0  0  0  0
   35.2250   30.7300   32.0660 C   0  0  0  0  0  0  0  0  0  0  0  0
   35.7730   29.4790   32.1120 N   0  0  0  0  0  0  0  0  0  0  0  0
   38.2500   25.0570   35.5770 C   0  0  0  0  0  0  0  0  0  0  0  0
   37.4850   24.6300   36.4930 O   0  0  0  0  0  0  0  0  0  0  0  0
   41.4650   23.2870   35.9280 C   0  0  0  0  0  0  0  0  0  0  0  0
   40.0930   23.5910   36.0120 C   0  0  0  0  0  0  0  0  0  0  0  0
   39.6500   24.7930   35.4680 C   0  0  0  0  0  0  0  0  0  0  0  0
   40.5540   25.6220   34.8790 N   0  0  0  0  0  0  0  0  0  0  0  0
   41.8520   25.2950   34.8180 C   0  0  0  0  0  0  0  0  0  0  0  0
   42.2930   24.1460   35.3350 N   0  0  0  0  0  0  0  0  0  0  0  0
   42.7670   26.2710   34.1500 C   0  0  0  0  0  0  0  0  0  0  0  0
   43.9320   26.4640   34.8490 F   0  0  0  0  0  0  0  0  0  0  0  0
   42.1550   27.5140   34.0350 F   0  0  0  0  0  0  0  0  0  0  0  0
   43.1030   25.8530   32.8680 F   0  0  0  0  0  0  0  0  0  0  0  0
   36.4085   26.5027   31.6698 H   0  0  0  0  0  0  0  0  0  0  0  0
   37.1861   27.8034   35.6051 H   0  0  0  0  0  0  0  0  0  0  0  0
   35.8522   29.1928   35.4271 H   0  0  0  0  0  0  0  0  0  0  0  0
   34.8564   31.4747   35.2971 H   0  0  0  0  0  0  0  0  0  0  0  0
   35.0400   31.1837   31.0811 H   0  0  0  0  0  0  0  0  0  0  0  0
   41.8507   22.3468   36.3490 H   0  0  0  0  0  0  0  0  0  0  0  0
   39.3896   22.8967   36.4949 H   0  0  0  0  0  0  0  0  0  0  0  0
  1  2  1  0
  1  5  1  0
  2  3  2  0
  3  4  1  0
  3 12  1  0
  5  4  2  0
  6  5  1  0
  6  7  2  0
  8  7  1  0
  9  8  2  0
 10 11  2  0
 10  9  1  0
 11  6  1  0
 12 13  2  0
 14 15  2  0
 16 12  1  0
 16 15  1  0
 17 16  2  0
 18 17  1  0
 18 19  2  0
 19 14  1  0
 20 18  1  0
 20 21  1  0
 22 20  1  0
 23 20  1  0
  1 24  1  0
  4 25  1  0
  7 26  1  0
  8 27  1  0
 10 28  1  0
 14 29  1  0
 15 30  1  0
M  ISO  7  24   9  25  14  26  14  27  14  28  14  29  14  30  14
M  END
>  <minimizedAffinity>  (1) 
-4.56585312

>  <minimizedRMSD>  (1) 
0.6429106

$$$$
