
     RDKit          3D

 24 26  0  0  1  0  0  0  0  0999 V2000
   37.6270   25.8000   35.8390 C   0  0  1  0  0  0  0  0  0  0  0  0
   38.2550   27.1780   35.8120 C   0  0  0  0  0  0  0  0  0  0  0  0
   38.1300   26.3540   34.5850 C   0  0  2  0  0  0  0  0  0  0  0  0
   38.3590   24.7150   36.5630 C   0  0  0  0  0  0  0  0  0  0  0  0
   39.4140   24.0330   35.8800 C   0  0  0  0  0  0  0  0  0  0  0  0
   40.0880   23.0330   36.5920 C   0  0  0  0  0  0  0  0  0  0  0  0
   39.7020   22.7710   37.8840 N   0  0  0  0  0  0  0  0  0  0  0  0
   38.6900   23.4580   38.4760 C   0  0  0  0  0  0  0  0  0  0  0  0
   38.0240   24.4170   37.8270 N   0  0  0  0  0  0  0  0  0  0  0  0
   37.2900   26.7840   33.4920 C   0  0  0  0  0  0  0  0  0  0  0  0
   36.7070   27.9410   33.0840 C   0  0  0  0  0  0  0  0  0  0  0  0
   35.9460   28.0010   31.9580 C   0  0  0  0  0  0  0  0  0  0  0  0
   35.8250   26.6570   31.2250 C   0  0  0  0  0  0  0  0  0  0  0  0
   36.8610   25.5330   32.3340 S   0  0  0  0  0  0  0  0  0  0  0  0
   36.6633   25.3648   36.1420 H   0  0  0  0  0  0  0  0  0  0  0  0
   37.6314   28.0745   35.9440 H   0  0  0  0  0  0  0  0  0  0  0  0
   39.0770   27.6796   36.3437 H   0  0  0  0  0  0  0  0  0  0  0  0
   38.8209   25.9650   33.8226 H   0  0  0  0  0  0  0  0  0  0  0  0
   39.6837   24.2823   34.8431 H   0  0  0  0  0  0  0  0  0  0  0  0
   40.9096   22.4690   36.1262 H   0  0  0  0  0  0  0  0  0  0  0  0
   38.4129   23.2190   39.5133 H   0  0  0  0  0  0  0  0  0  0  0  0
   36.8541   28.8538   33.6800 H   0  0  0  0  0  0  0  0  0  0  0  0
   35.4632   28.9246   31.6060 H   0  0  0  0  0  0  0  0  0  0  0  0
   35.2803   26.4139   30.3008 H   0  0  0  0  0  0  0  0  0  0  0  0
  1  4  1  0
  2  1  1  0
  3  2  1  0
  3  1  1  0
  4  9  1  0
  5  4  2  0
  5  6  1  0
  6  7  2  0
  7  8  1  0
  9  8  2  0
 10  3  1  0
 11 10  2  0
 12 11  1  0
 13 12  2  0
 13 14  1  0
 14 10  1  0
  1 15  1  6
  2 16  1  0
  2 17  1  0
  3 18  1  6
  5 19  1  0
  6 20  1  0
  8 21  1  0
 11 22  1  0
 12 23  1  0
 13 24  1  0
M  ISO  8  15  13  16  13  17  13  18  13  19  14  20  14  21  14  22  14
M  ISO  2  23  14  24  14
M  END
>  <minimizedAffinity>  (1) 
-4.47157049

>  <minimizedRMSD>  (1) 
0.646495342

$$$$
