
     RDKit          3D

 20 21  0  0  1  0  0  0  0  0999 V2000
   37.7040   25.8750   35.8650 C   0  0  1  0  0  0  0  0  0  0  0  0
   38.3150   27.2530   35.9810 C   0  0  0  0  0  0  0  0  0  0  0  0
   38.2710   26.5260   34.6890 C   0  0  2  0  0  0  0  0  0  0  0  0
   38.3820   24.7590   36.5660 C   0  0  0  0  0  0  0  0  0  0  0  0
   39.4190   24.0700   35.8610 C   0  0  0  0  0  0  0  0  0  0  0  0
   40.0790   23.0170   36.5330 C   0  0  0  0  0  0  0  0  0  0  0  0
   39.6830   22.7300   37.8100 N   0  0  0  0  0  0  0  0  0  0  0  0
   38.6880   23.4220   38.4270 C   0  0  0  0  0  0  0  0  0  0  0  0
   38.0450   24.4190   37.8250 N   0  0  0  0  0  0  0  0  0  0  0  0
   37.4360   27.0290   33.5420 C   0  0  0  0  0  0  0  0  0  0  0  0
   36.5330   27.9510   34.0940 F   0  0  0  0  0  0  0  0  0  0  0  0
   38.2090   27.6390   32.5520 F   0  0  0  0  0  0  0  0  0  0  0  0
   36.7400   25.9760   32.9740 F   0  0  0  0  0  0  0  0  0  0  0  0
   36.7302   25.4040   36.0647 H   0  0  0  0  0  0  0  0  0  0  0  0
   37.6742   28.1319   36.1450 H   0  0  0  0  0  0  0  0  0  0  0  0
   39.0989   27.7178   36.5970 H   0  0  0  0  0  0  0  0  0  0  0  0
   39.0169   26.2173   33.9418 H   0  0  0  0  0  0  0  0  0  0  0  0
   39.6925   24.3500   34.8330 H   0  0  0  0  0  0  0  0  0  0  0  0
   40.8840   22.4474   36.0456 H   0  0  0  0  0  0  0  0  0  0  0  0
   38.4064   23.1491   39.4547 H   0  0  0  0  0  0  0  0  0  0  0  0
  1  2  1  0
  1  4  1  0
  3  1  1  0
  3  2  1  0
  4  9  2  0
  5  6  2  0
  5  4  1  0
  6  7  1  0
  7  8  2  0
  9  8  1  0
 10 11  1  0
 10  3  1  0
 12 10  1  0
 13 10  1  0
  1 14  1  6
  2 15  1  0
  2 16  1  0
  3 17  1  6
  5 18  1  0
  6 19  1  0
  8 20  1  0
M  ISO  7  14  13  15  13  16  13  17  13  18  14  19  14  20  14
M  END
>  <minimizedAffinity>  (1) 
-4.14141273

>  <minimizedRMSD>  (1) 
0.370741457

$$$$
