
     RDKit          3D

 24 26  0  0  1  0  0  0  0  0999 V2000
   37.7490   25.8030   35.6970 C   0  0  1  0  0  0  0  0  0  0  0  0
   38.2020   27.2270   35.9330 C   0  0  0  0  0  0  0  0  0  0  0  0
   38.4350   26.5440   34.6600 C   0  0  1  0  0  0  0  0  0  0  0  0
   38.3090   24.7280   36.5230 C   0  0  0  0  0  0  0  0  0  0  0  0
   39.1220   23.8050   35.8470 C   0  0  0  0  0  0  0  0  0  0  0  0
   39.6950   22.7430   36.5630 C   0  0  0  0  0  0  0  0  0  0  0  0
   39.4190   22.6690   37.9050 N   0  0  0  0  0  0  0  0  0  0  0  0
   38.6380   23.5700   38.5110 C   0  0  0  0  0  0  0  0  0  0  0  0
   38.0820   24.5990   37.8290 N   0  0  0  0  0  0  0  0  0  0  0  0
   39.8300   26.3920   34.2180 C   0  0  0  0  0  0  0  0  0  0  0  0
   40.3900   25.8530   33.0470 C   0  0  0  0  0  0  0  0  0  0  0  0
   41.7280   25.9250   33.0720 N   0  0  0  0  0  0  0  0  0  0  0  0
   42.0660   26.4930   34.2220 C   0  0  0  0  0  0  0  0  0  0  0  0
   40.9570   26.7660   34.8930 N   0  0  0  0  0  0  0  0  0  0  0  0
   36.8156   25.2210   35.6948 H   0  0  0  0  0  0  0  0  0  0  0  0
   37.4643   28.0403   35.9996 H   0  0  0  0  0  0  0  0  0  0  0  0
   38.8270   27.7424   36.6771 H   0  0  0  0  0  0  0  0  0  0  0  0
   38.1749   26.6666   33.5982 H   0  0  0  0  0  0  0  0  0  0  0  0
   39.3079   23.9129   34.7682 H   0  0  0  0  0  0  0  0  0  0  0  0
   40.3388   22.0005   36.0689 H   0  0  0  0  0  0  0  0  0  0  0  0
   38.4428   23.4727   39.5892 H   0  0  0  0  0  0  0  0  0  0  0  0
   39.8059   25.4273   32.2177 H   0  0  0  0  0  0  0  0  0  0  0  0
   43.0916   26.7016   34.5605 H   0  0  0  0  0  0  0  0  0  0  0  0
   40.9458   27.2114   35.8217 H   0  0  0  0  0  0  0  0  0  0  0  0
  1  2  1  0
  1  4  1  0
  3  1  1  0
  3  2  1  0
  4  9  1  0
  5  4  2  0
  5  6  1  0
  6  7  2  0
  7  8  1  0
  9  8  2  0
 10  3  1  0
 10 14  1  0
 11 12  1  0
 11 10  2  0
 12 13  2  0
 13 14  1  0
  1 15  1  6
  2 16  1  0
  2 17  1  0
  3 18  1  6
  5 19  1  0
  6 20  1  0
  8 21  1  0
 11 22  1  0
 13 23  1  0
 14 24  1  0
M  ISO  8  15  13  16  13  17  13  18  13  19  14  20  14  21  14  22  14
M  ISO  2  23  14  24   9
M  END
>  <minimizedAffinity>  (1) 
-4.01060581

>  <minimizedRMSD>  (1) 
0.270227402

$$$$
