
     RDKit          3D

 24 26  0  0  1  0  0  0  0  0999 V2000
   37.7030   25.8510   35.8390 C   0  0  1  0  0  0  0  0  0  0  0  0
   38.2900   27.2390   35.9760 C   0  0  0  0  0  0  0  0  0  0  0  0
   38.2970   26.5130   34.6840 C   0  0  2  0  0  0  0  0  0  0  0  0
   38.3860   24.7430   36.5570 C   0  0  0  0  0  0  0  0  0  0  0  0
   39.4320   24.0560   35.8620 C   0  0  0  0  0  0  0  0  0  0  0  0
   40.0850   23.0190   36.5590 C   0  0  0  0  0  0  0  0  0  0  0  0
   39.6800   22.7470   37.8280 N   0  0  0  0  0  0  0  0  0  0  0  0
   38.6790   23.4340   38.4390 C   0  0  0  0  0  0  0  0  0  0  0  0
   38.0340   24.4190   37.8210 N   0  0  0  0  0  0  0  0  0  0  0  0
   37.4830   27.0720   33.5510 C   0  0  0  0  0  0  0  0  0  0  0  0
   36.9130   26.1460   32.5270 C   0  0  0  0  0  0  0  0  0  0  0  0
   38.1100   26.9820   32.1830 C   0  0  0  0  0  0  0  0  0  0  0  0
   36.7304   25.3658   36.0085 H   0  0  0  0  0  0  0  0  0  0  0  0
   37.6314   28.1081   36.1205 H   0  0  0  0  0  0  0  0  0  0  0  0
   39.0471   27.7147   36.6167 H   0  0  0  0  0  0  0  0  0  0  0  0
   39.0573   26.1880   33.9585 H   0  0  0  0  0  0  0  0  0  0  0  0
   39.7130   24.3245   34.8329 H   0  0  0  0  0  0  0  0  0  0  0  0
   40.8986   22.4465   36.0897 H   0  0  0  0  0  0  0  0  0  0  0  0
   38.3959   23.1691   39.4684 H   0  0  0  0  0  0  0  0  0  0  0  0
   37.0501   27.8624   34.1817 H   0  0  0  0  0  0  0  0  0  0  0  0
   37.0206   25.0583   32.6504 H   0  0  0  0  0  0  0  0  0  0  0  0
   35.9170   25.9991   32.0838 H   0  0  0  0  0  0  0  0  0  0  0  0
   39.0953   26.5090   32.0582 H   0  0  0  0  0  0  0  0  0  0  0  0
   38.3570   27.7019   31.3888 H   0  0  0  0  0  0  0  0  0  0  0  0
  1  2  1  0
  1  4  1  0
  3  1  1  0
  3  2  1  0
  4  9  1  0
  5  4  2  0
  5  6  1  0
  6  7  2  0
  7  8  1  0
  9  8  2  0
 10  3  1  0
 11 10  1  0
 12 11  1  0
 12 10  1  0
  1 13  1  6
  2 14  1  0
  2 15  1  0
  3 16  1  6
  5 17  1  0
  6 18  1  0
  8 19  1  0
 10 20  1  0
 11 21  1  0
 11 22  1  0
 12 23  1  0
 12 24  1  0
M  ISO  8  13  13  14  13  15  13  16  13  17  14  18  14  19  14  20  13
M  ISO  4  21  13  22  13  23  13  24  13
M  END
>  <minimizedAffinity>  (1) 
-3.91758108

>  <minimizedRMSD>  (1) 
0.897930622

$$$$
