
     RDKit          3D

 29 31  0  0  1  0  0  0  0  0999 V2000
   37.6420   25.7100   35.7410 C   0  0  1  0  0  0  0  0  0  0  0  0
   38.1540   27.1240   35.8380 C   0  0  0  0  0  0  0  0  0  0  0  0
   38.2360   26.3420   34.5700 C   0  0  1  0  0  0  0  0  0  0  0  0
   38.3060   24.6610   36.5450 C   0  0  0  0  0  0  0  0  0  0  0  0
   39.2470   23.8560   35.8770 C   0  0  0  0  0  0  0  0  0  0  0  0
   39.9300   22.8540   36.5870 C   0  0  0  0  0  0  0  0  0  0  0  0
   39.6230   22.7310   37.9080 N   0  0  0  0  0  0  0  0  0  0  0  0
   38.7080   23.5280   38.5190 C   0  0  0  0  0  0  0  0  0  0  0  0
   38.0630   24.4750   37.8430 N   0  0  0  0  0  0  0  0  0  0  0  0
   39.5850   26.1280   34.1290 N   0  0  0  0  0  0  0  0  0  0  0  0
   40.4930   27.1170   34.6110 C   0  0  0  0  0  0  0  0  0  0  0  0
   41.7860   26.9060   33.8330 C   0  0  0  0  0  0  0  0  0  0  0  0
   41.2640   26.3570   32.5240 C   0  0  0  0  0  0  0  0  0  0  0  0
   39.7830   26.0590   32.7190 C   0  0  0  0  0  0  0  0  0  0  0  0
   36.6895   25.1823   35.8968 H   0  0  0  0  0  0  0  0  0  0  0  0
   37.4499   27.9644   35.9273 H   0  0  0  0  0  0  0  0  0  0  0  0
   38.8668   27.6623   36.4800 H   0  0  0  0  0  0  0  0  0  0  0  0
   37.8687   26.3871   33.5341 H   0  0  0  0  0  0  0  0  0  0  0  0
   39.4466   24.0100   34.8063 H   0  0  0  0  0  0  0  0  0  0  0  0
   40.6728   22.2038   36.1017 H   0  0  0  0  0  0  0  0  0  0  0  0
   38.4972   23.3881   39.5895 H   0  0  0  0  0  0  0  0  0  0  0  0
   40.0947   28.1256   34.4262 H   0  0  0  0  0  0  0  0  0  0  0  0
   40.6530   27.0262   35.6955 H   0  0  0  0  0  0  0  0  0  0  0  0
   42.3251   27.8534   33.6850 H   0  0  0  0  0  0  0  0  0  0  0  0
   42.5109   26.2501   34.3372 H   0  0  0  0  0  0  0  0  0  0  0  0
   41.8025   25.4347   32.2607 H   0  0  0  0  0  0  0  0  0  0  0  0
   41.4125   27.0816   31.7098 H   0  0  0  0  0  0  0  0  0  0  0  0
   39.1649   26.8084   32.2029 H   0  0  0  0  0  0  0  0  0  0  0  0
   39.4961   25.0812   32.3048 H   0  0  0  0  0  0  0  0  0  0  0  0
  1  2  1  0
  1  4  1  0
  3  1  1  0
  3  2  1  0
  4  9  1  0
  5  4  2  0
  5  6  1  0
  6  7  2  0
  7  8  1  0
  9  8  2  0
 10  3  1  0
 10 11  1  0
 12 11  1  0
 13 14  1  0
 13 12  1  0
 14 10  1  0
  1 15  1  6
  2 16  1  0
  2 17  1  0
  3 18  1  6
  5 19  1  0
  6 20  1  0
  8 21  1  0
 11 22  1  0
 11 23  1  0
 12 24  1  0
 12 25  1  0
 13 26  1  0
 13 27  1  0
 14 28  1  0
 14 29  1  0
M  ISO  8  15  13  16  13  17  13  18  13  19  14  20  14  21  14  22  13
M  ISO  7  23  13  24  13  25  13  26  13  27  13  28  13  29  13
M  END
>  <minimizedAffinity>  (1) 
-3.85568953

>  <minimizedRMSD>  (1) 
0.744971454

$$$$
