
     RDKit          3D

 24 26  0  0  1  0  0  0  0  0999 V2000
   38.1020   25.9680   36.0920 C   0  0  1  0  0  0  0  0  0  0  0  0
   38.7410   27.2440   35.6230 C   0  0  0  0  0  0  0  0  0  0  0  0
   37.4450   26.7640   35.0700 C   0  0  1  0  0  0  0  0  0  0  0  0
   38.7920   24.6830   35.8400 C   0  0  0  0  0  0  0  0  0  0  0  0
   38.0560   23.4970   36.1380 C   0  0  0  0  0  0  0  0  0  0  0  0
   38.6530   22.2740   35.8970 C   0  0  0  0  0  0  0  0  0  0  0  0
   39.9100   22.2740   35.3880 N   0  0  0  0  0  0  0  0  0  0  0  0
   40.5890   23.4170   35.1130 C   0  0  0  0  0  0  0  0  0  0  0  0
   40.0250   24.6010   35.3410 N   0  0  0  0  0  0  0  0  0  0  0  0
   37.5080   26.5650   33.6430 N   0  0  0  0  0  0  0  0  0  0  0  0
   36.8700   25.6510   32.8890 N   0  0  0  0  0  0  0  0  0  0  0  0
   37.1940   25.7800   31.5960 C   0  0  0  0  0  0  0  0  0  0  0  0
   38.0860   26.8260   31.4790 C   0  0  0  0  0  0  0  0  0  0  0  0
   38.2620   27.2940   32.7630 C   0  0  0  0  0  0  0  0  0  0  0  0
   37.7496   25.5433   37.0436 H   0  0  0  0  0  0  0  0  0  0  0  0
   38.7715   28.1244   36.2817 H   0  0  0  0  0  0  0  0  0  0  0  0
   39.7183   27.5303   35.2072 H   0  0  0  0  0  0  0  0  0  0  0  0
   36.3839   27.0463   35.0035 H   0  0  0  0  0  0  0  0  0  0  0  0
   37.0376   23.5549   36.5498 H   0  0  0  0  0  0  0  0  0  0  0  0
   38.1263   21.3323   36.1109 H   0  0  0  0  0  0  0  0  0  0  0  0
   41.6075   23.3646   34.7008 H   0  0  0  0  0  0  0  0  0  0  0  0
   36.8148   25.1597   30.7705 H   0  0  0  0  0  0  0  0  0  0  0  0
   38.5554   27.2047   30.5591 H   0  0  0  0  0  0  0  0  0  0  0  0
   38.9154   28.1339   33.0414 H   0  0  0  0  0  0  0  0  0  0  0  0
  2  1  1  0
  3  2  1  0
  3  1  1  0
  4  1  1  0
  4  5  2  0
  6  5  1  0
  7  6  2  0
  8  9  2  0
  8  7  1  0
  9  4  1  0
 10  3  1  0
 11 10  1  0
 12 11  2  0
 13 12  1  0
 13 14  2  0
 14 10  1  0
  1 15  1  1
  2 16  1  0
  2 17  1  0
  3 18  1  1
  5 19  1  0
  6 20  1  0
  8 21  1  0
 12 22  1  0
 13 23  1  0
 14 24  1  0
M  ISO  8  15  13  16  13  17  13  18  13  19  14  20  14  21  14  22  14
M  ISO  2  23  14  24  14
M  END
>  <minimizedAffinity>  (1) 
-3.7653439

>  <minimizedRMSD>  (1) 
3.07053065

$$$$
