
     RDKit          3D

 23 24  0  0  1  0  0  0  0  0999 V2000
   37.7310   25.8310   35.8360 C   0  0  1  0  0  0  0  0  0  0  0  0
   38.3070   27.2260   35.9440 C   0  0  0  0  0  0  0  0  0  0  0  0
   38.3370   26.4660   34.6690 C   0  0  2  0  0  0  0  0  0  0  0  0
   38.4230   24.7180   36.5660 C   0  0  0  0  0  0  0  0  0  0  0  0
   39.4750   24.0170   35.8950 C   0  0  0  0  0  0  0  0  0  0  0  0
   40.0960   22.9970   36.6100 C   0  0  0  0  0  0  0  0  0  0  0  0
   39.6720   22.7390   37.8720 N   0  0  0  0  0  0  0  0  0  0  0  0
   38.6750   23.4250   38.4720 C   0  0  0  0  0  0  0  0  0  0  0  0
   38.0430   24.4250   37.8110 N   0  0  0  0  0  0  0  0  0  0  0  0
   37.4540   26.8570   33.5090 C   0  0  0  0  0  0  0  0  0  0  0  0
   36.5830   28.0180   33.9730 C   0  0  0  0  0  0  0  0  0  0  0  0
   36.7573   25.3546   36.0228 H   0  0  0  0  0  0  0  0  0  0  0  0
   37.6408   28.0940   36.0568 H   0  0  0  0  0  0  0  0  0  0  0  0
   39.0521   27.7233   36.5823 H   0  0  0  0  0  0  0  0  0  0  0  0
   39.1417   26.2009   33.9675 H   0  0  0  0  0  0  0  0  0  0  0  0
   39.7769   24.2710   34.8682 H   0  0  0  0  0  0  0  0  0  0  0  0
   40.9129   22.4129   36.1612 H   0  0  0  0  0  0  0  0  0  0  0  0
   38.3754   23.1713   39.4996 H   0  0  0  0  0  0  0  0  0  0  0  0
   36.8217   26.0066   33.2140 H   0  0  0  0  0  0  0  0  0  0  0  0
   38.0607   27.1490   32.6392 H   0  0  0  0  0  0  0  0  0  0  0  0
   36.5629   28.0448   35.0725 H   0  0  0  0  0  0  0  0  0  0  0  0
   36.9971   28.9627   33.5907 H   0  0  0  0  0  0  0  0  0  0  0  0
   35.5602   27.8847   33.5907 H   0  0  0  0  0  0  0  0  0  0  0  0
  1  2  1  0
  1  4  1  0
  3  1  1  0
  3  2  1  0
  4  9  1  0
  5  4  2  0
  5  6  1  0
  6  7  2  0
  7  8  1  0
  9  8  2  0
 10 11  1  0
 10  3  1  0
  1 12  1  6
  2 13  1  0
  2 14  1  0
  3 15  1  6
  5 16  1  0
  6 17  1  0
  8 18  1  0
 10 19  1  0
 10 20  1  0
 11 21  1  0
 11 22  1  0
 11 23  1  0
M  ISO  8  12  13  13  13  14  13  15  13  16  14  17  14  18  14  19   8
M  ISO  4  20   8  21   8  22   8  23   8
M  END
>  <minimizedAffinity>  (1) 
-3.76264906

>  <minimizedRMSD>  (1) 
0.408882737

$$$$
