
     RDKit          3D

 18 19  0  0  1  0  0  0  0  0999 V2000
   38.2910   24.8540   36.4450 C   0  0  0  0  0  0  0  0  0  0  0  0
   39.1240   23.8350   35.9500 C   0  0  0  0  0  0  0  0  0  0  0  0
   39.5850   22.8270   36.8160 C   0  0  0  0  0  0  0  0  0  0  0  0
   39.1680   22.9210   38.1250 N   0  0  0  0  0  0  0  0  0  0  0  0
   38.3710   23.9120   38.5560 C   0  0  0  0  0  0  0  0  0  0  0  0
   37.9380   24.8630   37.7320 N   0  0  0  0  0  0  0  0  0  0  0  0
   37.8720   25.8740   35.4660 C   0  0  1  0  0  0  0  0  0  0  0  0
   38.1320   27.3300   35.7790 C   0  0  0  0  0  0  0  0  0  0  0  0
   38.7650   26.6500   34.6200 C   0  0  1  0  0  0  0  0  0  0  0  0
   40.5530   26.6270   34.6730 S   0  0  0  0  0  0  0  0  0  0  0  0
   39.4142   23.8262   34.8890 H   0  0  0  0  0  0  0  0  0  0  0  0
   40.2387   22.0133   36.4688 H   0  0  0  0  0  0  0  0  0  0  0  0
   38.0694   23.9383   39.6135 H   0  0  0  0  0  0  0  0  0  0  0  0
   37.0127   25.2277   35.2337 H   0  0  0  0  0  0  0  0  0  0  0  0
   37.3446   28.0814   35.6198 H   0  0  0  0  0  0  0  0  0  0  0  0
   38.4876   27.8983   36.6511 H   0  0  0  0  0  0  0  0  0  0  0  0
   38.7971   26.7199   33.5227 H   0  0  0  0  0  0  0  0  0  0  0  0
   40.9712   26.6216   35.9776 H   0  0  0  0  0  0  0  0  0  0  0  0
  1  6  1  0
  2  1  2  0
  2  3  1  0
  3  4  2  0
  4  5  1  0
  6  5  2  0
  7  8  1  0
  7  1  1  0
  9 10  1  0
  9  7  1  0
  9  8  1  0
  2 11  1  0
  3 12  1  0
  5 13  1  0
  7 14  1  6
  8 15  1  0
  8 16  1  0
  9 17  1  6
 10 18  1  0
M  ISO  8  11  14  12  14  13  14  14  13  15  13  16  13  17  13  18  11
M  END
>  <minimizedAffinity>  (1) 
-3.40958929

>  <minimizedRMSD>  (1) 
0.390944541

$$$$
