
     RDKit          3D

 42 45  0  0  1  0  0  0  0  0999 V2000
   37.6720   26.9250   33.4170 C   0  0  0  0  0  0  0  0  0  0  0  0
   37.7420   25.7610   35.7460 C   0  0  1  0  0  0  0  0  0  0  0  0
   38.3070   27.1750   35.8970 C   0  0  0  0  0  0  0  0  0  0  0  0
   38.3710   26.4240   34.6300 C   0  0  2  0  0  0  0  0  0  0  0  0
   38.4170   24.6910   36.5290 C   0  0  0  0  0  0  0  0  0  0  0  0
   39.5020   23.9860   35.8930 C   0  0  0  0  0  0  0  0  0  0  0  0
   40.1500   22.9810   36.6340 C   0  0  0  0  0  0  0  0  0  0  0  0
   39.7090   22.7350   37.9140 N   0  0  0  0  0  0  0  0  0  0  0  0
   38.6710   23.4480   38.4510 C   0  0  0  0  0  0  0  0  0  0  0  0
   38.0330   24.4050   37.7800 N   0  0  0  0  0  0  0  0  0  0  0  0
   36.8560   25.7620   32.8120 C   0  0  0  0  0  0  0  0  0  0  0  0
   36.6150   27.9840   33.7340 C   0  0  0  0  0  0  0  0  0  0  0  0
   38.4840   27.4570   32.3120 C   0  0  0  0  0  0  0  0  0  0  0  0
   39.6270   26.6360   32.0160 N   0  0  0  0  0  0  0  0  0  0  0  0
   39.5660   25.6440   31.0870 C   0  0  0  0  0  0  0  0  0  0  0  0
   40.7530   24.9840   30.9860 N   0  0  0  0  0  0  0  0  0  0  0  0
   41.6170   25.5480   31.8620 C   0  0  0  0  0  0  0  0  0  0  0  0
   42.9310   25.3760   32.2440 C   0  0  0  0  0  0  0  0  0  0  0  0
   43.5170   26.1520   33.1850 N   0  0  0  0  0  0  0  0  0  0  0  0
   42.7780   27.1230   33.7570 C   0  0  0  0  0  0  0  0  0  0  0  0
   41.5040   27.2970   33.3920 N   0  0  0  0  0  0  0  0  0  0  0  0
   40.8890   26.5470   32.4660 C   0  0  0  0  0  0  0  0  0  0  0  0
   43.6760   24.3390   31.6150 N   0  0  0  0  0  0  0  0  0  0  0  0
   36.7745   25.2503   35.8603 H   0  0  0  0  0  0  0  0  0  0  0  0
   37.6314   28.0369   36.0003 H   0  0  0  0  0  0  0  0  0  0  0  0
   39.0287   27.6740   36.5605 H   0  0  0  0  0  0  0  0  0  0  0  0
   39.1676   26.0996   33.9443 H   0  0  0  0  0  0  0  0  0  0  0  0
   39.8120   24.2254   34.8651 H   0  0  0  0  0  0  0  0  0  0  0  0
   40.9846   22.4087   36.2029 H   0  0  0  0  0  0  0  0  0  0  0  0
   38.3510   23.2211   39.4787 H   0  0  0  0  0  0  0  0  0  0  0  0
   36.4289   25.1532   33.6225 H   0  0  0  0  0  0  0  0  0  0  0  0
   36.0437   26.1680   32.1913 H   0  0  0  0  0  0  0  0  0  0  0  0
   37.5142   25.1363   32.1913 H   0  0  0  0  0  0  0  0  0  0  0  0
   36.5135   28.0857   34.8246 H   0  0  0  0  0  0  0  0  0  0  0  0
   36.9214   28.9484   33.3027 H   0  0  0  0  0  0  0  0  0  0  0  0
   35.6500   27.6795   33.3027 H   0  0  0  0  0  0  0  0  0  0  0  0
   37.8545   27.5210   31.4122 H   0  0  0  0  0  0  0  0  0  0  0  0
   38.8564   28.4452   32.6200 H   0  0  0  0  0  0  0  0  0  0  0  0
   38.6715   25.4053   30.4929 H   0  0  0  0  0  0  0  0  0  0  0  0
   43.2235   27.7727   34.5247 H   0  0  0  0  0  0  0  0  0  0  0  0
   44.6601   24.1813   31.8751 H   0  0  0  0  0  0  0  0  0  0  0  0
   43.2310   23.7463   30.8997 H   0  0  0  0  0  0  0  0  0  0  0  0
  1 12  1  0
  1  4  1  0
  2  3  1  0
  2  5  1  0
  4  2  1  0
  4  3  1  0
  5 10  1  0
  6  5  2  0
  6  7  1  0
  7  8  2  0
  8  9  1  0
 10  9  2  0
 11  1  1  0
 13  1  1  0
 14 13  1  0
 14 22  1  0
 15 14  1  0
 16 15  2  0
 16 17  1  0
 17 18  2  0
 17 22  1  0
 18 19  1  0
 19 20  2  0
 21 20  1  0
 22 21  2  0
 23 18  1  0
  2 24  1  6
  3 25  1  0
  3 26  1  0
  4 27  1  6
  6 28  1  0
  7 29  1  0
  9 30  1  0
 11 31  1  0
 11 32  1  0
 11 33  1  0
 12 34  1  0
 12 35  1  0
 12 36  1  0
 13 37  1  0
 13 38  1  0
 15 39  1  0
 20 40  1  0
 23 41  1  0
 23 42  1  0
M  ISO  8  24  13  25  13  26  13  27  13  28  14  29  14  30  14  31   8
M  ISO  8  32   8  33   8  34   8  35   8  36   8  37   8  38   8  39  14
M  ISO  1  40  14
M  END
>  <minimizedAffinity>  (1) 
-4.87644815

>  <minimizedRMSD>  (1) 
1.13824093

$$$$
