
     RDKit          3D

 36 37  0  0  1  0  0  0  0  0999 V2000
   37.6570   26.8810   33.3470 C   0  0  0  0  0  0  0  0  0  0  0  0
   37.7890   25.7620   35.6810 C   0  0  1  0  0  0  0  0  0  0  0  0
   38.3710   27.1730   35.8030 C   0  0  0  0  0  0  0  0  0  0  0  0
   38.4040   26.4020   34.5500 C   0  0  2  0  0  0  0  0  0  0  0  0
   38.4480   24.6970   36.4940 C   0  0  0  0  0  0  0  0  0  0  0  0
   39.5450   23.9880   35.8780 C   0  0  0  0  0  0  0  0  0  0  0  0
   40.1740   22.9980   36.6460 C   0  0  0  0  0  0  0  0  0  0  0  0
   39.7140   22.7670   37.9230 N   0  0  0  0  0  0  0  0  0  0  0  0
   38.6670   23.4840   38.4360 C   0  0  0  0  0  0  0  0  0  0  0  0
   38.0320   24.4380   37.7440 N   0  0  0  0  0  0  0  0  0  0  0  0
   36.8250   25.7180   32.7960 C   0  0  0  0  0  0  0  0  0  0  0  0
   36.6740   27.9800   33.6440 C   0  0  0  0  0  0  0  0  0  0  0  0
   38.5220   27.3200   32.2030 C   0  0  0  0  0  0  0  0  0  0  0  0
   37.9340   27.0650   30.9020 N   0  0  0  0  0  0  0  0  0  0  0  0
   38.1130   28.0490   29.8590 C   0  0  0  0  0  0  0  0  0  0  0  0
   39.1930   28.7820   29.9460 N   0  0  0  0  0  0  0  0  0  0  0  0
   37.1520   28.2010   28.7950 N   0  0  0  0  0  0  0  0  0  0  0  0
   39.3360   29.5020   29.1940 H   0  0  0  0  0  0  0  0  0  0  0  0
   36.8207   25.2555   35.8070 H   0  0  0  0  0  0  0  0  0  0  0  0
   37.7063   28.0435   35.9048 H   0  0  0  0  0  0  0  0  0  0  0  0
   39.1089   27.6747   36.4463 H   0  0  0  0  0  0  0  0  0  0  0  0
   39.1925   26.0706   33.8582 H   0  0  0  0  0  0  0  0  0  0  0  0
   39.8723   24.2145   34.8525 H   0  0  0  0  0  0  0  0  0  0  0  0
   41.0156   22.4192   36.2378 H   0  0  0  0  0  0  0  0  0  0  0  0
   38.3329   23.2669   39.4613 H   0  0  0  0  0  0  0  0  0  0  0  0
   36.4090   25.1365   33.6319 H   0  0  0  0  0  0  0  0  0  0  0  0
   36.0039   26.1139   32.1803 H   0  0  0  0  0  0  0  0  0  0  0  0
   37.4649   25.0688   32.1803 H   0  0  0  0  0  0  0  0  0  0  0  0
   36.5709   28.0953   34.7331 H   0  0  0  0  0  0  0  0  0  0  0  0
   37.0355   28.9230   33.2081 H   0  0  0  0  0  0  0  0  0  0  0  0
   35.6967   27.7255   33.2081 H   0  0  0  0  0  0  0  0  0  0  0  0
   38.7024   28.4010   32.2977 H   0  0  0  0  0  0  0  0  0  0  0  0
   39.4522   26.7354   32.2578 H   0  0  0  0  0  0  0  0  0  0  0  0
   37.4007   26.2017   30.7254 H   0  0  0  0  0  0  0  0  0  0  0  0
   36.3153   27.6009   28.7671 H   0  0  0  0  0  0  0  0  0  0  0  0
   37.3021   28.9097   28.0628 H   0  0  0  0  0  0  0  0  0  0  0  0
  1 12  1  0
  1  4  1  0
  2  3  1  0
  2  5  1  0
  4  2  1  0
  4  3  1  0
  5 10  1  0
  6  5  2  0
  6  7  1  0
  7  8  2  0
  8  9  1  0
 10  9  2  0
 11  1  1  0
 13  1  1  0
 14 13  1  0
 15 16  2  0
 15 14  1  0
 17 15  1  0
 18 16  1  0
  2 19  1  6
  3 20  1  0
  3 21  1  0
  4 22  1  6
  6 23  1  0
  7 24  1  0
  9 25  1  0
 11 26  1  0
 11 27  1  0
 11 28  1  0
 12 29  1  0
 12 30  1  0
 12 31  1  0
 13 32  1  0
 13 33  1  0
 14 34  1  0
 17 35  1  0
 17 36  1  0
M  ISO  8  19  13  20  13  21  13  22  13  23  14  24  14  25  14  26   8
M  ISO  7  27   8  28   8  29   8  30   8  31   8  32   8  33   8
M  END
>  <minimizedAffinity>  (1) 
-4.78051615

>  <minimizedRMSD>  (1) 
2.32614493

$$$$
