
     RDKit          3D

 36 38  0  0  1  0  0  0  0  0999 V2000
   37.9480   26.8260   33.4390 C   0  0  0  0  0  0  0  0  0  0  0  0
   37.8130   25.6300   35.7530 C   0  0  1  0  0  0  0  0  0  0  0  0
   38.2680   27.0750   35.9950 C   0  0  0  0  0  0  0  0  0  0  0  0
   38.5330   26.3560   34.7430 C   0  0  2  0  0  0  0  0  0  0  0  0
   38.4320   24.5950   36.6190 C   0  0  0  0  0  0  0  0  0  0  0  0
   39.5130   23.8190   36.0600 C   0  0  0  0  0  0  0  0  0  0  0  0
   40.1180   22.8480   36.8720 C   0  0  0  0  0  0  0  0  0  0  0  0
   39.6400   22.6980   38.1570 N   0  0  0  0  0  0  0  0  0  0  0  0
   38.6120   23.4690   38.6190 C   0  0  0  0  0  0  0  0  0  0  0  0
   38.0200   24.3950   37.8730 N   0  0  0  0  0  0  0  0  0  0  0  0
   37.2820   25.6430   32.7520 C   0  0  0  0  0  0  0  0  0  0  0  0
   36.8600   27.8650   33.6310 C   0  0  0  0  0  0  0  0  0  0  0  0
   38.9300   27.3690   32.4560 C   0  0  0  0  0  0  0  0  0  0  0  0
   38.2980   27.9930   31.3040 C   0  0  0  0  0  0  0  0  0  0  0  0
   37.2470   28.9360   31.1360 C   0  0  0  0  0  0  0  0  0  0  0  0
   36.8950   29.3110   29.8780 C   0  0  0  0  0  0  0  0  0  0  0  0
   37.5650   28.7670   28.7610 C   0  0  0  0  0  0  0  0  0  0  0  0
   38.8200   27.6120   29.5730 S   0  0  0  0  0  0  0  0  0  0  0  0
   36.8774   25.0523   35.7235 H   0  0  0  0  0  0  0  0  0  0  0  0
   37.5337   27.8936   36.0234 H   0  0  0  0  0  0  0  0  0  0  0  0
   38.8690   27.6024   36.7504 H   0  0  0  0  0  0  0  0  0  0  0  0
   39.4337   26.1060   34.1632 H   0  0  0  0  0  0  0  0  0  0  0  0
   39.8528   23.9842   35.0269 H   0  0  0  0  0  0  0  0  0  0  0  0
   40.9452   22.2276   36.4967 H   0  0  0  0  0  0  0  0  0  0  0  0
   38.2601   23.3172   39.6501 H   0  0  0  0  0  0  0  0  0  0  0  0
   36.8918   24.9499   33.5118 H   0  0  0  0  0  0  0  0  0  0  0  0
   36.4537   26.0025   32.1238 H   0  0  0  0  0  0  0  0  0  0  0  0
   38.0190   25.1213   32.1238 H   0  0  0  0  0  0  0  0  0  0  0  0
   36.6919   28.0255   34.7062 H   0  0  0  0  0  0  0  0  0  0  0  0
   37.1698   28.8111   33.1630 H   0  0  0  0  0  0  0  0  0  0  0  0
   35.9292   27.5120   33.1630 H   0  0  0  0  0  0  0  0  0  0  0  0
   39.5539   28.1200   32.9627 H   0  0  0  0  0  0  0  0  0  0  0  0
   39.5255   26.5218   32.0848 H   0  0  0  0  0  0  0  0  0  0  0  0
   36.7273   29.3552   32.0102 H   0  0  0  0  0  0  0  0  0  0  0  0
   36.0854   30.0408   29.7298 H   0  0  0  0  0  0  0  0  0  0  0  0
   37.3989   28.9649   27.6918 H   0  0  0  0  0  0  0  0  0  0  0  0
  1 12  1  0
  1  4  1  0
  2  3  1  0
  2  5  1  0
  4  2  1  0
  4  3  1  0
  5 10  1  0
  6  5  2  0
  6  7  1  0
  7  8  2  0
  8  9  1  0
 10  9  2  0
 11  1  1  0
 13  1  1  0
 14 13  1  0
 15 14  2  0
 16 15  1  0
 17 18  1  0
 17 16  2  0
 18 14  1  0
  2 19  1  6
  3 20  1  0
  3 21  1  0
  4 22  1  6
  6 23  1  0
  7 24  1  0
  9 25  1  0
 11 26  1  0
 11 27  1  0
 11 28  1  0
 12 29  1  0
 12 30  1  0
 12 31  1  0
 13 32  1  0
 13 33  1  0
 15 34  1  0
 16 35  1  0
 17 36  1  0
M  ISO  8  19  13  20  13  21  13  22  13  23  14  24  14  25  14  26   8
M  ISO  8  27   8  28   8  29   8  30   8  31   8  32   8  33   8  34  14
M  ISO  2  35  14  36  14
M  END
>  <minimizedAffinity>  (1) 
-4.77311325

>  <minimizedRMSD>  (1) 
0.550723553

$$$$
