
     RDKit          3D

 42 44  0  0  1  0  0  0  0  0999 V2000
   38.1520   26.4440   32.8540 C   0  0  0  0  0  0  0  0  0  0  0  0
   37.8640   25.7900   35.3670 C   0  0  1  0  0  0  0  0  0  0  0  0
   38.6480   27.1070   35.2980 C   0  0  0  0  0  0  0  0  0  0  0  0
   38.6660   26.1190   34.2110 C   0  0  2  0  0  0  0  0  0  0  0  0
   38.3110   24.8130   36.3990 C   0  0  0  0  0  0  0  0  0  0  0  0
   39.2930   23.8300   36.0150 C   0  0  0  0  0  0  0  0  0  0  0  0
   39.7340   22.9200   36.9880 C   0  0  0  0  0  0  0  0  0  0  0  0
   39.2000   23.0230   38.2500 N   0  0  0  0  0  0  0  0  0  0  0  0
   38.2680   23.9840   38.5460 C   0  0  0  0  0  0  0  0  0  0  0  0
   37.8330   24.8570   37.6440 N   0  0  0  0  0  0  0  0  0  0  0  0
   36.8210   27.1930   32.9950 C   0  0  0  0  0  0  0  0  0  0  0  0
   39.0510   27.4540   32.1280 C   0  0  0  0  0  0  0  0  0  0  0  0
   37.9130   25.3420   31.9130 C   0  0  0  0  0  0  0  0  0  0  0  0
   36.8140   24.3670   32.2290 C   0  0  0  0  0  0  0  0  0  0  0  0
   35.8950   24.0160   31.0910 C   0  0  0  0  0  0  0  0  0  0  0  0
   35.5330   22.5270   31.4170 C   0  0  0  0  0  0  0  0  0  0  0  0
   36.9670   22.0630   31.6920 C   0  0  0  0  0  0  0  0  0  0  0  0
   37.4200   23.0680   32.7120 C   0  0  0  0  0  0  0  0  0  0  0  0
   36.8207   25.4614   35.4833 H   0  0  0  0  0  0  0  0  0  0  0  0
   38.1197   28.0636   35.1723 H   0  0  0  0  0  0  0  0  0  0  0  0
   39.4000   27.6150   35.9196 H   0  0  0  0  0  0  0  0  0  0  0  0
   39.4437   25.5538   33.6765 H   0  0  0  0  0  0  0  0  0  0  0  0
   39.6856   23.7942   34.9881 H   0  0  0  0  0  0  0  0  0  0  0  0
   40.4821   22.1500   36.7485 H   0  0  0  0  0  0  0  0  0  0  0  0
   37.8654   24.0340   39.5685 H   0  0  0  0  0  0  0  0  0  0  0  0
   36.5859   27.3253   34.0614 H   0  0  0  0  0  0  0  0  0  0  0  0
   36.9017   28.1782   32.5124 H   0  0  0  0  0  0  0  0  0  0  0  0
   36.0208   26.6127   32.5124 H   0  0  0  0  0  0  0  0  0  0  0  0
   39.5920   28.0618   32.8683 H   0  0  0  0  0  0  0  0  0  0  0  0
   39.7736   26.9149   31.4977 H   0  0  0  0  0  0  0  0  0  0  0  0
   38.4318   28.1092   31.4977 H   0  0  0  0  0  0  0  0  0  0  0  0
   38.8480   24.7674   31.8387 H   0  0  0  0  0  0  0  0  0  0  0  0
   37.5811   25.8383   30.9891 H   0  0  0  0  0  0  0  0  0  0  0  0
   36.2055   24.8847   32.9851 H   0  0  0  0  0  0  0  0  0  0  0  0
   36.4080   24.1002   30.1216 H   0  0  0  0  0  0  0  0  0  0  0  0
   35.0206   24.6778   31.0049 H   0  0  0  0  0  0  0  0  0  0  0  0
   34.8806   22.4324   32.2976 H   0  0  0  0  0  0  0  0  0  0  0  0
   34.9662   21.9724   30.6547 H   0  0  0  0  0  0  0  0  0  0  0  0
   36.9871   21.0412   32.0990 H   0  0  0  0  0  0  0  0  0  0  0  0
   37.6024   22.0185   30.7952 H   0  0  0  0  0  0  0  0  0  0  0  0
   38.5178   23.1330   32.7380 H   0  0  0  0  0  0  0  0  0  0  0  0
   37.1098   22.8071   33.7346 H   0  0  0  0  0  0  0  0  0  0  0  0
  1 11  1  0
  1  4  1  0
  2  5  1  0
  3  2  1  0
  4  3  1  0
  4  2  1  0
  5 10  1  0
  6  5  2  0
  6  7  1  0
  7  8  2  0
  8  9  1  0
 10  9  2  0
 12  1  1  0
 13 14  1  0
 13  1  1  0
 14 18  1  0
 15 16  1  0
 15 14  1  0
 16 17  1  0
 17 18  1  0
  2 19  1  6
  3 20  1  0
  3 21  1  0
  4 22  1  6
  6 23  1  0
  7 24  1  0
  9 25  1  0
 11 26  1  0
 11 27  1  0
 11 28  1  0
 12 29  1  0
 12 30  1  0
 12 31  1  0
 13 32  1  0
 13 33  1  0
 14 34  1  0
 15 35  1  0
 15 36  1  0
 16 37  1  0
 16 38  1  0
 17 39  1  0
 17 40  1  0
 18 41  1  0
 18 42  1  0
M  ISO  8  19  13  20  13  21  13  22  13  23  14  24  14  25  14  26   8
M  ISO  8  27   8  28   8  29   8  30   8  31   8  32   8  33   8  34  13
M  ISO  8  35  13  36  13  37  13  38  13  39  13  40  13  41  13  42  13
M  END
>  <minimizedAffinity>  (1) 
-4.72567654

>  <minimizedRMSD>  (1) 
3.98753262

$$$$
