
     RDKit          3D

 39 41  0  0  1  0  0  0  0  0999 V2000
   37.8250   26.8510   33.4040 C   0  0  0  0  0  0  0  0  0  0  0  0
   37.7610   25.6950   35.7330 C   0  0  1  0  0  0  0  0  0  0  0  0
   38.2740   27.1270   35.9220 C   0  0  0  0  0  0  0  0  0  0  0  0
   38.4510   26.3800   34.6660 C   0  0  2  0  0  0  0  0  0  0  0  0
   38.4270   24.6450   36.5690 C   0  0  0  0  0  0  0  0  0  0  0  0
   39.5180   23.9090   35.9770 C   0  0  0  0  0  0  0  0  0  0  0  0
   40.1390   22.9430   36.7720 C   0  0  0  0  0  0  0  0  0  0  0  0
   39.6840   22.7480   38.0530 N   0  0  0  0  0  0  0  0  0  0  0  0
   38.6460   23.4800   38.5470 C   0  0  0  0  0  0  0  0  0  0  0  0
   38.0200   24.4180   37.8230 N   0  0  0  0  0  0  0  0  0  0  0  0
   36.9970   25.6910   32.8070 C   0  0  0  0  0  0  0  0  0  0  0  0
   36.7760   27.9420   33.6450 C   0  0  0  0  0  0  0  0  0  0  0  0
   38.6880   27.3350   32.3200 C   0  0  0  0  0  0  0  0  0  0  0  0
   40.0450   26.8700   32.2620 N   0  0  0  0  0  0  0  0  0  0  0  0
   40.9610   27.5090   33.0530 C   0  0  0  0  0  0  0  0  0  0  0  0
   42.3090   27.2220   33.1180 C   0  0  0  0  0  0  0  0  0  0  0  0
   42.7940   26.2060   32.3230 C   0  0  0  0  0  0  0  0  0  0  0  0
   43.9990   25.8810   32.3180 O   0  0  0  0  0  0  0  0  0  0  0  0
   41.8940   25.5810   31.5480 N   0  0  0  0  0  0  0  0  0  0  0  0
   40.5870   25.8910   31.5130 C   0  0  0  0  0  0  0  0  0  0  0  0
   39.7980   25.2600   30.7650 O   0  0  0  0  0  0  0  0  0  0  0  0
   36.8033   25.1557   35.7771 H   0  0  0  0  0  0  0  0  0  0  0  0
   37.5683   27.9692   35.9746 H   0  0  0  0  0  0  0  0  0  0  0  0
   38.9312   27.6461   36.6351 H   0  0  0  0  0  0  0  0  0  0  0  0
   39.3077   26.0859   34.0419 H   0  0  0  0  0  0  0  0  0  0  0  0
   39.8462   24.1004   34.9447 H   0  0  0  0  0  0  0  0  0  0  0  0
   40.9774   22.3491   36.3791 H   0  0  0  0  0  0  0  0  0  0  0  0
   38.3097   23.2941   39.5777 H   0  0  0  0  0  0  0  0  0  0  0  0
   36.5677   25.0896   33.6219 H   0  0  0  0  0  0  0  0  0  0  0  0
   36.1859   26.1006   32.1871 H   0  0  0  0  0  0  0  0  0  0  0  0
   37.6479   25.0570   32.1871 H   0  0  0  0  0  0  0  0  0  0  0  0
   36.6381   28.0855   34.7268 H   0  0  0  0  0  0  0  0  0  0  0  0
   37.1159   28.8843   33.1906 H   0  0  0  0  0  0  0  0  0  0  0  0
   35.8211   27.6393   33.1906 H   0  0  0  0  0  0  0  0  0  0  0  0
   38.2074   27.0517   31.3720 H   0  0  0  0  0  0  0  0  0  0  0  0
   38.7823   28.4137   32.5138 H   0  0  0  0  0  0  0  0  0  0  0  0
   40.5899   28.3229   33.6932 H   0  0  0  0  0  0  0  0  0  0  0  0
   42.9768   27.7874   33.7846 H   0  0  0  0  0  0  0  0  0  0  0  0
   42.2256   24.8165   30.9427 H   0  0  0  0  0  0  0  0  0  0  0  0
  1 12  1  0
  1  4  1  0
  2  3  1  0
  2  5  1  0
  4  2  1  0
  4  3  1  0
  5 10  1  0
  6  5  2  0
  6  7  1  0
  7  8  2  0
  8  9  1  0
 10  9  2  0
 11  1  1  0
 13  1  1  0
 14 13  1  0
 14 15  1  0
 15 16  2  0
 17 16  1  0
 18 17  2  0
 19 17  1  0
 20 19  1  0
 20 14  1  0
 21 20  2  0
  2 22  1  6
  3 23  1  0
  3 24  1  0
  4 25  1  6
  6 26  1  0
  7 27  1  0
  9 28  1  0
 11 29  1  0
 11 30  1  0
 11 31  1  0
 12 32  1  0
 12 33  1  0
 12 34  1  0
 13 35  1  0
 13 36  1  0
 15 37  1  0
 16 38  1  0
 19 39  1  0
M  ISO  8  22  13  23  13  24  13  25  13  26  14  27  14  28  14  29   8
M  ISO  8  30   8  31   8  32   8  33   8  34   8  35   8  36   8  37  14
M  ISO  2  38  14  39   9
M  END
>  <minimizedAffinity>  (1) 
-4.71135521

>  <minimizedRMSD>  (1) 
1.21325135

$$$$
