
     RDKit          3D

 41 43  0  0  1  0  0  0  0  0999 V2000
   38.9180   24.5210   35.4810 C   0  0  0  0  0  0  0  0  0  0  0  0
   38.2140   25.4370   36.2360 C   0  0  0  0  0  0  0  0  0  0  0  0
   37.5590   26.2100   35.2760 C   0  0  0  0  0  0  0  0  0  0  0  0
   37.8490   25.7860   34.0120 N   0  0  0  0  0  0  0  0  0  0  0  0
   38.6520   24.7890   34.2180 N   0  0  0  0  0  0  0  0  0  0  0  0
   36.4670   25.4950   32.1220 N   0  0  0  0  0  0  0  0  0  0  0  0
   35.6700   26.2820   31.2340 C   0  0  0  0  0  0  0  0  0  0  0  0
   35.7120   27.6830   31.7490 C   0  0  0  0  0  0  0  0  0  0  0  0
   36.5320   27.6000   33.0150 C   0  0  0  0  0  0  0  0  0  0  0  0
   37.3760   26.3660   32.7900 C   0  0  1  0  0  0  0  0  0  0  0  0
   38.6480   26.6660   32.0400 C   0  0  0  0  0  0  0  0  0  0  0  0
   39.1740   25.3950   31.4440 C   0  0  0  0  0  0  0  0  0  0  0  0
   39.7170   27.1390   33.0510 C   0  0  0  0  0  0  0  0  0  0  0  0
   38.6180   27.7020   30.9910 C   0  0  0  0  0  0  0  0  0  0  0  0
   39.6450   23.0500   37.3390 C   0  0  0  0  0  0  0  0  0  0  0  0
   39.7880   23.4950   36.0180 C   0  0  0  0  0  0  0  0  0  0  0  0
   40.7830   22.9620   35.2100 C   0  0  0  0  0  0  0  0  0  0  0  0
   41.5920   22.0070   35.7540 N   0  0  0  0  0  0  0  0  0  0  0  0
   41.4330   21.5890   37.0470 C   0  0  0  0  0  0  0  0  0  0  0  0
   40.4730   22.1110   37.8100 N   0  0  0  0  0  0  0  0  0  0  0  0
   38.1778   25.5345   37.3311 H   0  0  0  0  0  0  0  0  0  0  0  0
   36.8933   27.0541   35.5090 H   0  0  0  0  0  0  0  0  0  0  0  0
   36.9906   24.7874   31.5871 H   0  0  0  0  0  0  0  0  0  0  0  0
   34.6341   25.9120   31.2253 H   0  0  0  0  0  0  0  0  0  0  0  0
   36.0526   26.2269   30.2042 H   0  0  0  0  0  0  0  0  0  0  0  0
   36.1921   28.3509   31.0186 H   0  0  0  0  0  0  0  0  0  0  0  0
   34.7066   28.0911   31.9296 H   0  0  0  0  0  0  0  0  0  0  0  0
   37.1619   28.4934   33.1379 H   0  0  0  0  0  0  0  0  0  0  0  0
   35.9192   27.5470   33.9270 H   0  0  0  0  0  0  0  0  0  0  0  0
   39.4603   24.7032   32.2498 H   0  0  0  0  0  0  0  0  0  0  0  0
   38.3939   24.9312   30.8224 H   0  0  0  0  0  0  0  0  0  0  0  0
   40.0537   25.6181   30.8224 H   0  0  0  0  0  0  0  0  0  0  0  0
   39.3502   26.9767   34.0753 H   0  0  0  0  0  0  0  0  0  0  0  0
   40.6442   26.5671   32.8986 H   0  0  0  0  0  0  0  0  0  0  0  0
   39.9174   28.2098   32.8986 H   0  0  0  0  0  0  0  0  0  0  0  0
   38.5892   28.6970   31.4591 H   0  0  0  0  0  0  0  0  0  0  0  0
   39.5190   27.6169   30.3657 H   0  0  0  0  0  0  0  0  0  0  0  0
   37.7234   27.5649   30.3657 H   0  0  0  0  0  0  0  0  0  0  0  0
   38.8583   23.4694   37.9834 H   0  0  0  0  0  0  0  0  0  0  0  0
   40.9144   23.2968   34.1705 H   0  0  0  0  0  0  0  0  0  0  0  0
   42.1009   20.8182   37.4589 H   0  0  0  0  0  0  0  0  0  0  0  0
  1 16  1  0
  1  2  1  0
  3  2  2  0
  4  5  1  0
  4  3  1  0
  5  1  2  0
  6 10  1  0
  7  8  1  0
  7  6  1  0
  8  9  1  0
 10 11  1  6
 10  9  1  0
 10  4  1  0
 11 13  1  0
 12 11  1  0
 14 11  1  0
 15 20  2  0
 16 15  1  0
 17 18  1  0
 17 16  2  0
 18 19  2  0
 19 20  1  0
  2 21  1  0
  3 22  1  0
  6 23  1  0
  7 24  1  0
  7 25  1  0
  8 26  1  0
  8 27  1  0
  9 28  1  0
  9 29  1  0
 12 30  1  0
 12 31  1  0
 12 32  1  0
 13 33  1  0
 13 34  1  0
 13 35  1  0
 14 36  1  0
 14 37  1  0
 14 38  1  0
 15 39  1  0
 17 40  1  0
 19 41  1  0
M  ISO  8  21  14  22  14  23   5  24  13  25  13  26  13  27  13  28  13
M  ISO  8  29  13  30   8  31   8  32   8  33   8  34   8  35   8  36   8
M  ISO  5  37   8  38   8  39  14  40  14  41  14
M  END
>  <minimizedAffinity>  (1) 
-4.78554296

>  <minimizedRMSD>  (1) 
8.56659317

$$$$
