
     RDKit          3D

 32 34  0  0  1  0  0  0  0  0999 V2000
   40.1620   23.0770   36.2320 C   0  0  0  0  0  0  0  0  0  0  0  0
   39.1500   23.2930   37.1790 C   0  0  0  0  0  0  0  0  0  0  0  0
   38.4510   24.3850   36.6370 C   0  0  0  0  0  0  0  0  0  0  0  0
   39.0080   24.7800   35.4610 N   0  0  0  0  0  0  0  0  0  0  0  0
   40.0360   23.9740   35.2440 N   0  0  0  0  0  0  0  0  0  0  0  0
   38.3760   25.4780   33.2790 N   0  0  0  0  0  0  0  0  0  0  0  0
   37.6890   26.6190   32.6870 C   0  0  0  0  0  0  0  0  0  0  0  0
   36.8700   27.2340   33.8030 C   0  0  0  0  0  0  0  0  0  0  0  0
   37.1620   26.3480   35.0180 C   0  0  0  0  0  0  0  0  0  0  0  0
   38.5480   25.8560   34.6510 C   0  0  1  0  0  0  0  0  0  0  0  0
   39.5720   26.9630   34.8270 C   0  0  0  0  0  0  0  0  0  0  0  0
   38.9850   27.8500   35.7380 F   0  0  0  0  0  0  0  0  0  0  0  0
   39.9160   27.6040   33.6830 F   0  0  0  0  0  0  0  0  0  0  0  0
   40.6770   26.4120   35.4340 F   0  0  0  0  0  0  0  0  0  0  0  0
   41.4950   21.4680   37.5730 C   0  0  0  0  0  0  0  0  0  0  0  0
   41.1630   22.0370   36.3470 C   0  0  0  0  0  0  0  0  0  0  0  0
   41.8030   21.6030   35.2010 C   0  0  0  0  0  0  0  0  0  0  0  0
   42.7430   20.6190   35.3370 N   0  0  0  0  0  0  0  0  0  0  0  0
   43.0480   20.0800   36.5560 C   0  0  0  0  0  0  0  0  0  0  0  0
   42.4230   20.5110   37.6420 N   0  0  0  0  0  0  0  0  0  0  0  0
   38.9529   22.7449   38.1121 H   0  0  0  0  0  0  0  0  0  0  0  0
   37.5722   24.8565   37.1012 H   0  0  0  0  0  0  0  0  0  0  0  0
   39.2870   25.3221   32.8245 H   0  0  0  0  0  0  0  0  0  0  0  0
   38.4181   27.3469   32.3014 H   0  0  0  0  0  0  0  0  0  0  0  0
   37.0553   26.3148   31.8409 H   0  0  0  0  0  0  0  0  0  0  0  0
   37.1850   28.2709   33.9919 H   0  0  0  0  0  0  0  0  0  0  0  0
   35.7975   27.2781   33.5626 H   0  0  0  0  0  0  0  0  0  0  0  0
   37.1675   26.9259   35.9539 H   0  0  0  0  0  0  0  0  0  0  0  0
   36.4216   25.5563   35.2054 H   0  0  0  0  0  0  0  0  0  0  0  0
   40.9904   21.8085   38.4892 H   0  0  0  0  0  0  0  0  0  0  0  0
   41.5651   22.0329   34.2168 H   0  0  0  0  0  0  0  0  0  0  0  0
   43.8101   19.2907   36.6349 H   0  0  0  0  0  0  0  0  0  0  0  0
  1 16  1  0
  1  2  1  0
  3  2  2  0
  4  3  1  0
  5  4  1  0
  5  1  2  0
  6 10  1  0
  7  6  1  0
  7  8  1  0
  8  9  1  0
 10 11  1  6
 10  9  1  0
 10  4  1  0
 11 14  1  0
 11 12  1  0
 13 11  1  0
 15 20  2  0
 16 15  1  0
 17 18  1  0
 17 16  2  0
 18 19  2  0
 19 20  1  0
  2 21  1  0
  3 22  1  0
  6 23  1  0
  7 24  1  0
  7 25  1  0
  8 26  1  0
  8 27  1  0
  9 28  1  0
  9 29  1  0
 15 30  1  0
 17 31  1  0
 19 32  1  0
M  ISO  8  21  14  22  14  23   5  24  13  25  13  26  13  27  13  28  13
M  ISO  4  29  13  30  14  31  14  32  14
M  END
>  <minimizedAffinity>  (1) 
-4.76668501

>  <minimizedRMSD>  (1) 
7.63181543

$$$$
