
     RDKit          3D

 32 34  0  0  1  0  0  0  0  0999 V2000
   41.4320   22.5350   36.5750 C   0  0  0  0  0  0  0  0  0  0  0  0
   42.6280   23.2580   36.4910 C   0  0  0  0  0  0  0  0  0  0  0  0
   43.5760   22.2920   36.1330 C   0  0  0  0  0  0  0  0  0  0  0  0
   42.9930   21.0840   36.0120 N   0  0  0  0  0  0  0  0  0  0  0  0
   41.7090   21.2630   36.2830 N   0  0  0  0  0  0  0  0  0  0  0  0
   43.0490   19.2090   34.5320 N   0  0  0  0  0  0  0  0  0  0  0  0
   44.0080   18.1580   34.2000 C   0  0  0  0  0  0  0  0  0  0  0  0
   45.3650   18.6490   34.6470 C   0  0  0  0  0  0  0  0  0  0  0  0
   45.0790   20.0640   35.1710 C   0  0  0  0  0  0  0  0  0  0  0  0
   43.6570   19.8580   35.6580 C   0  0  1  0  0  0  0  0  0  0  0  0
   43.6710   19.0150   36.8760 C   0  0  0  0  0  0  0  0  0  0  0  0
   44.7480   18.8020   37.5190 O   0  0  0  0  0  0  0  0  0  0  0  0
   42.6890   18.3050   37.5900 O   0  0  0  0  0  0  0  0  0  0  0  0
   39.4040   23.8040   35.9720 C   0  0  0  0  0  0  0  0  0  0  0  0
   40.1490   23.0860   36.9160 C   0  0  0  0  0  0  0  0  0  0  0  0
   39.6440   22.9020   38.1990 C   0  0  0  0  0  0  0  0  0  0  0  0
   38.4210   23.4450   38.4770 N   0  0  0  0  0  0  0  0  0  0  0  0
   37.7190   24.1330   37.5540 C   0  0  0  0  0  0  0  0  0  0  0  0
   38.2090   24.3070   36.3230 N   0  0  0  0  0  0  0  0  0  0  0  0
   42.7858   24.3326   36.6653 H   0  0  0  0  0  0  0  0  0  0  0  0
   44.6459   22.4915   35.9731 H   0  0  0  0  0  0  0  0  0  0  0  0
   42.1343   18.8088   34.7850 H   0  0  0  0  0  0  0  0  0  0  0  0
   43.7489   17.2283   34.7277 H   0  0  0  0  0  0  0  0  0  0  0  0
   44.0013   17.9437   33.1211 H   0  0  0  0  0  0  0  0  0  0  0  0
   45.7718   18.0092   35.4440 H   0  0  0  0  0  0  0  0  0  0  0  0
   46.1133   18.6336   33.8409 H   0  0  0  0  0  0  0  0  0  0  0  0
   45.7580   20.3451   35.9895 H   0  0  0  0  0  0  0  0  0  0  0  0
   45.2142   20.8742   34.4393 H   0  0  0  0  0  0  0  0  0  0  0  0
   42.9383   17.7957   38.4015 H   0  0  0  0  0  0  0  0  0  0  0  0
   39.7933   23.9543   34.9542 H   0  0  0  0  0  0  0  0  0  0  0  0
   40.2069   22.3415   38.9599 H   0  0  0  0  0  0  0  0  0  0  0  0
   36.7369   24.5536   37.8159 H   0  0  0  0  0  0  0  0  0  0  0  0
  1 15  1  0
  2  1  1  0
  3  2  2  0
  4  3  1  0
  4  5  1  0
  5  1  2  0
  6 10  1  0
  7  6  1  0
  7  8  1  0
  8  9  1  0
  9 10  1  0
 10  4  1  1
 10 11  1  0
 11 12  2  0
 11 13  1  0
 14 19  2  0
 14 15  1  0
 15 16  2  0
 16 17  1  0
 18 17  2  0
 19 18  1  0
  2 20  1  0
  3 21  1  0
  6 22  1  0
  7 23  1  0
  7 24  1  0
  8 25  1  0
  8 26  1  0
  9 27  1  0
  9 28  1  0
 13 29  1  0
 14 30  1  0
 16 31  1  0
 18 32  1  0
M  ISO  8  20  14  21  14  22   5  23  13  24  13  25  13  26  13  27  13
M  ISO  5  28  13  29   3  30  14  31  14  32  14
M  END
>  <minimizedAffinity>  (1) 
-3.90354943

>  <minimizedRMSD>  (1) 
1.77019656

$$$$
