
     RDKit          3D

 36 39  0  0  1  0  0  0  0  0999 V2000
   40.8700   22.0510   35.9290 C   0  0  0  0  0  0  0  0  0  0  0  0
   40.9280   21.9650   34.5300 C   0  0  0  0  0  0  0  0  0  0  0  0
   42.2120   21.4780   34.2770 C   0  0  0  0  0  0  0  0  0  0  0  0
   42.8730   21.2870   35.4400 N   0  0  0  0  0  0  0  0  0  0  0  0
   42.0520   21.6350   36.4090 N   0  0  0  0  0  0  0  0  0  0  0  0
   44.3630   19.8670   36.6460 N   0  0  0  0  0  0  0  0  0  0  0  0
   45.7220   19.3560   36.4300 C   0  0  0  0  0  0  0  0  0  0  0  0
   45.9680   19.3860   34.9560 C   0  0  0  0  0  0  0  0  0  0  0  0
   44.6900   19.9970   34.3740 C   0  0  0  0  0  0  0  0  0  0  0  0
   44.2150   20.8060   35.5710 C   0  0  1  0  0  0  0  0  0  0  0  0
   45.2190   21.9160   35.8200 C   0  0  0  0  0  0  0  0  0  0  0  0
   44.6730   23.2760   36.2000 C   0  0  0  0  0  0  0  0  0  0  0  0
   45.3850   23.0370   34.8950 C   0  0  0  0  0  0  0  0  0  0  0  0
   38.4610   22.5940   36.0990 C   0  0  0  0  0  0  0  0  0  0  0  0
   39.7270   22.5180   36.6720 C   0  0  0  0  0  0  0  0  0  0  0  0
   39.8980   22.9070   37.9840 C   0  0  0  0  0  0  0  0  0  0  0  0
   38.7910   23.3510   38.6530 N   0  0  0  0  0  0  0  0  0  0  0  0
   37.5750   23.4150   38.0760 C   0  0  0  0  0  0  0  0  0  0  0  0
   37.4340   23.0370   36.8150 N   0  0  0  0  0  0  0  0  0  0  0  0
   40.1444   22.2215   33.8018 H   0  0  0  0  0  0  0  0  0  0  0  0
   42.6250   21.2789   33.2771 H   0  0  0  0  0  0  0  0  0  0  0  0
   43.6657   19.1118   36.5803 H   0  0  0  0  0  0  0  0  0  0  0  0
   46.4529   19.9939   36.9485 H   0  0  0  0  0  0  0  0  0  0  0  0
   45.8263   18.3350   36.8259 H   0  0  0  0  0  0  0  0  0  0  0  0
   46.8420   20.0105   34.7190 H   0  0  0  0  0  0  0  0  0  0  0  0
   46.1835   18.3889   34.5445 H   0  0  0  0  0  0  0  0  0  0  0  0
   44.9028   20.6386   33.5062 H   0  0  0  0  0  0  0  0  0  0  0  0
   43.9617   19.2680   33.9891 H   0  0  0  0  0  0  0  0  0  0  0  0
   45.9270   21.1892   36.2449 H   0  0  0  0  0  0  0  0  0  0  0  0
   43.5877   23.4542   36.2162 H   0  0  0  0  0  0  0  0  0  0  0  0
   44.7909   23.9651   37.0492 H   0  0  0  0  0  0  0  0  0  0  0  0
   46.3842   23.4667   34.7311 H   0  0  0  0  0  0  0  0  0  0  0  0
   45.1328   23.2069   33.8379 H   0  0  0  0  0  0  0  0  0  0  0  0
   38.3111   22.2872   35.0533 H   0  0  0  0  0  0  0  0  0  0  0  0
   40.8830   22.8620   38.4716 H   0  0  0  0  0  0  0  0  0  0  0  0
   36.7078   23.7778   38.6472 H   0  0  0  0  0  0  0  0  0  0  0  0
  1  5  2  0
  1 15  1  0
  2  1  1  0
  3  2  2  0
  3  4  1  0
 10  4  1  6
  4  5  1  0
  7  6  1  0
  8  7  1  0
  9  8  1  0
  9 10  1  0
 10 11  1  0
 10  6  1  0
 11 12  1  0
 13 11  1  0
 13 12  1  0
 14 15  2  0
 14 19  1  0
 15 16  1  0
 16 17  2  0
 18 17  1  0
 19 18  2  0
  2 20  1  0
  3 21  1  0
  6 22  1  0
  7 23  1  0
  7 24  1  0
  8 25  1  0
  8 26  1  0
  9 27  1  0
  9 28  1  0
 11 29  1  0
 12 30  1  0
 12 31  1  0
 13 32  1  0
 13 33  1  0
 14 34  1  0
 16 35  1  0
 18 36  1  0
M  ISO  8  20  14  21  14  22   5  23  13  24  13  25  13  26  13  27  13
M  ISO  8  28  13  29  13  30  13  31  13  32  13  33  13  34  14  35  14
M  ISO  1  36  14
M  END
>  <minimizedAffinity>  (1) 
-3.56094289

>  <minimizedRMSD>  (1) 
2.40848207

$$$$
