
     RDKit          3D

 41 44  0  0  0  0  0  0  0  0999 V2000
   39.0200   23.1820   34.4490 C   0  0  0  0  0  0  0  0  0  0  0  0
   40.1710   22.5560   34.0260 C   0  0  0  0  0  0  0  0  0  0  0  0
   41.1440   22.0650   34.8660 C   0  0  0  0  0  0  0  0  0  0  0  0
   40.9930   22.1880   36.2310 C   0  0  0  0  0  0  0  0  0  0  0  0
   39.8780   22.7980   36.7010 C   0  0  0  0  0  0  0  0  0  0  0  0
   39.7270   22.9210   38.0670 C   0  0  0  0  0  0  0  0  0  0  0  0
   38.6430   23.5160   38.6350 C   0  0  0  0  0  0  0  0  0  0  0  0
   37.6730   24.0050   37.7570 C   0  0  0  0  0  0  0  0  0  0  0  0
   37.8430   23.8720   36.3990 C   0  0  0  0  0  0  0  0  0  0  0  0
   38.9280   23.2750   35.8280 C   0  0  0  0  0  0  0  0  0  0  0  0
   36.3900   22.9480   32.0050 C   0  0  0  0  0  0  0  0  0  0  0  0
   36.0280   24.2330   31.6420 C   0  0  0  0  0  0  0  0  0  0  0  0
   36.7370   25.2360   32.2820 C   0  0  0  0  0  0  0  0  0  0  0  0
   37.6740   24.8980   33.1610 N   0  0  0  0  0  0  0  0  0  0  0  0
   38.0300   23.6810   33.5170 C   0  0  0  0  0  0  0  0  0  0  0  0
   37.3510   22.7260   32.9040 N   0  0  0  0  0  0  0  0  0  0  0  0
   36.4790   26.6080   32.0150 N   0  0  0  0  0  0  0  0  0  0  0  0
   36.3980   27.1860   30.8110 C   0  0  0  0  0  0  0  0  0  0  0  0
   36.1450   28.4810   30.9330 N   0  0  0  0  0  0  0  0  0  0  0  0
   36.0610   28.7480   32.2450 C   0  0  0  0  0  0  0  0  0  0  0  0
   36.2680   27.5890   32.8940 N   0  0  0  0  0  0  0  0  0  0  0  0
   35.7850   30.0980   32.8250 C   0  0  0  0  0  0  0  0  0  0  0  0
   35.5890   30.0000   34.3260 C   0  0  0  0  0  0  0  0  0  0  0  0
   34.5610   30.7140   32.2170 C   0  0  0  0  0  0  0  0  0  0  0  0
   40.3231   22.4405   32.9427 H   0  0  0  0  0  0  0  0  0  0  0  0
   42.0379   21.5768   34.4506 H   0  0  0  0  0  0  0  0  0  0  0  0
   41.7577   21.8010   36.9205 H   0  0  0  0  0  0  0  0  0  0  0  0
   40.5145   22.5220   38.7232 H   0  0  0  0  0  0  0  0  0  0  0  0
   38.5365   23.6069   39.7260 H   0  0  0  0  0  0  0  0  0  0  0  0
   36.7721   24.4970   38.1523 H   0  0  0  0  0  0  0  0  0  0  0  0
   37.0601   24.2693   35.7362 H   0  0  0  0  0  0  0  0  0  0  0  0
   35.8755   22.0923   31.5434 H   0  0  0  0  0  0  0  0  0  0  0  0
   35.2397   24.4415   30.9037 H   0  0  0  0  0  0  0  0  0  0  0  0
   36.5239   26.6596   29.8534 H   0  0  0  0  0  0  0  0  0  0  0  0
   36.6543   30.7338   32.6012 H   0  0  0  0  0  0  0  0  0  0  0  0
   36.4595   30.4352   34.8386 H   0  0  0  0  0  0  0  0  0  0  0  0
   34.6810   30.5502   34.6139 H   0  0  0  0  0  0  0  0  0  0  0  0
   35.4843   28.9435   34.6139 H   0  0  0  0  0  0  0  0  0  0  0  0
   33.8859   31.0538   33.0163 H   0  0  0  0  0  0  0  0  0  0  0  0
   34.8532   31.5724   31.5943 H   0  0  0  0  0  0  0  0  0  0  0  0
   34.0457   29.9679   31.5943 H   0  0  0  0  0  0  0  0  0  0  0  0
  1 10  1  0
  2  1  2  0
  2  3  1  0
  3  4  2  0
  4  5  1  0
  5  6  2  0
  6  7  1  0
  8  7  2  0
  9  8  1  0
 10  9  2  0
 10  5  1  0
 11 16  2  0
 12 11  1  0
 12 13  2  0
 13 14  1  0
 14 15  2  0
 15  1  1  0
 16 15  1  0
 17 13  1  0
 17 21  1  0
 18 19  2  0
 18 17  1  0
 19 20  1  0
 20 22  1  0
 20 21  2  0
 22 23  1  0
 24 22  1  0
  2 25  1  0
  3 26  1  0
  4 27  1  0
  6 28  1  0
  7 29  1  0
  8 30  1  0
  9 31  1  0
 11 32  1  0
 12 33  1  0
 18 34  1  0
 22 35  1  0
 23 36  1  0
 23 37  1  0
 23 38  1  0
 24 39  1  0
 24 40  1  0
 24 41  1  0
M  ISO  8  25  14  26  14  27  14  28  14  29  14  30  14  31  14  32  14
M  ISO  8  33  14  34  14  35   8  36   8  37   8  38   8  39   8  40   8
M  ISO  1  41   8
M  END
>  <minimizedAffinity>  (1) 
-6.0239625

>  <minimizedRMSD>  (1) 
0.504273593

$$$$
