
     RDKit          3D

 47 50  0  0  1  0  0  0  0  0999 V2000
   38.9850   22.4570   34.7630 C   0  0  0  0  0  0  0  0  0  0  0  0
   37.8920   22.3480   35.6270 C   0  0  0  0  0  0  0  0  0  0  0  0
   36.9320   21.6840   34.8760 C   0  0  0  0  0  0  0  0  0  0  0  0
   37.4140   21.4120   33.6460 N   0  0  0  0  0  0  0  0  0  0  0  0
   38.6390   21.8840   33.6110 N   0  0  0  0  0  0  0  0  0  0  0  0
   37.3690   19.5420   32.1490 N   0  0  0  0  0  0  0  0  0  0  0  0
   36.3640   18.9310   31.2700 C   0  0  0  0  0  0  0  0  0  0  0  0
   35.0100   19.3120   31.8390 C   0  0  0  0  0  0  0  0  0  0  0  0
   35.3620   20.1730   33.0380 C   0  0  0  0  0  0  0  0  0  0  0  0
   36.6930   20.7320   32.6030 C   0  0  1  0  0  0  0  0  0  0  0  0
   36.4770   21.7140   31.4810 C   0  0  0  0  0  0  0  0  0  0  0  0
   37.7850   22.2960   30.9830 C   0  0  0  0  0  0  0  0  0  0  0  0
   35.6530   22.8570   31.9990 C   0  0  0  0  0  0  0  0  0  0  0  0
   41.1380   22.4700   35.9640 C   0  0  0  0  0  0  0  0  0  0  0  0
   40.2430   23.0810   35.0980 C   0  0  0  0  0  0  0  0  0  0  0  0
   40.5550   24.3130   34.5430 C   0  0  0  0  0  0  0  0  0  0  0  0
   41.7650   24.8500   34.9020 N   0  0  0  0  0  0  0  0  0  0  0  0
   42.6210   24.2290   35.7520 C   0  0  0  0  0  0  0  0  0  0  0  0
   42.2970   23.0520   36.2700 N   0  0  0  0  0  0  0  0  0  0  0  0
   43.8980   24.8750   36.0860 C   0  0  0  0  0  0  0  0  0  0  0  0
   44.4860   24.6460   37.3130 C   0  0  0  0  0  0  0  0  0  0  0  0
   45.6860   25.2590   37.6100 C   0  0  0  0  0  0  0  0  0  0  0  0
   46.2270   26.0730   36.6450 C   0  0  0  0  0  0  0  0  0  0  0  0
   45.6510   26.3210   35.3960 C   0  0  0  0  0  0  0  0  0  0  0  0
   44.4780   25.6890   35.1720 N   0  0  0  0  0  0  0  0  0  0  0  0
   37.8111   22.7061   36.6639 H   0  0  0  0  0  0  0  0  0  0  0  0
   35.9256   21.4185   35.2318 H   0  0  0  0  0  0  0  0  0  0  0  0
   38.2273   19.7752   31.6295 H   0  0  0  0  0  0  0  0  0  0  0  0
   36.4795   17.8371   31.2625 H   0  0  0  0  0  0  0  0  0  0  0  0
   36.4743   19.2819   30.2333 H   0  0  0  0  0  0  0  0  0  0  0  0
   34.4207   19.8812   31.1051 H   0  0  0  0  0  0  0  0  0  0  0  0
   34.3941   18.4396   32.1028 H   0  0  0  0  0  0  0  0  0  0  0  0
   34.6203   20.9698   33.1959 H   0  0  0  0  0  0  0  0  0  0  0  0
   35.3860   19.6324   33.9957 H   0  0  0  0  0  0  0  0  0  0  0  0
   35.9818   21.1797   30.6568 H   0  0  0  0  0  0  0  0  0  0  0  0
   38.4127   22.5753   31.8421 H   0  0  0  0  0  0  0  0  0  0  0  0
   38.3109   21.5469   30.3728 H   0  0  0  0  0  0  0  0  0  0  0  0
   37.5806   23.1881   30.3728 H   0  0  0  0  0  0  0  0  0  0  0  0
   35.6610   22.8459   33.0989 H   0  0  0  0  0  0  0  0  0  0  0  0
   36.0757   23.8065   31.6388 H   0  0  0  0  0  0  0  0  0  0  0  0
   34.6186   22.7561   31.6388 H   0  0  0  0  0  0  0  0  0  0  0  0
   40.8879   21.4931   36.4035 H   0  0  0  0  0  0  0  0  0  0  0  0
   39.8710   24.8302   33.8540 H   0  0  0  0  0  0  0  0  0  0  0  0
   44.0038   23.9825   38.0459 H   0  0  0  0  0  0  0  0  0  0  0  0
   46.1871   25.1027   38.5767 H   0  0  0  0  0  0  0  0  0  0  0  0
   47.1839   26.5659   36.8719 H   0  0  0  0  0  0  0  0  0  0  0  0
   46.1180   26.9817   34.6507 H   0  0  0  0  0  0  0  0  0  0  0  0
  1 15  1  0
  1  2  1  0
  3  2  2  0
  4  3  1  0
  5  4  1  0
  5  1  2  0
  6 10  1  0
  7  8  1  0
  7  6  1  0
  8  9  1  0
 10 11  1  6
 10  9  1  0
 10  4  1  0
 11 13  1  0
 12 11  1  0
 14 19  2  0
 15 14  1  0
 16 17  1  0
 16 15  2  0
 17 18  2  0
 18 20  1  0
 18 19  1  0
 20 21  2  0
 21 22  1  0
 23 22  2  0
 24 23  1  0
 25 24  2  0
 25 20  1  0
  2 26  1  0
  3 27  1  0
  6 28  1  0
  7 29  1  0
  7 30  1  0
  8 31  1  0
  8 32  1  0
  9 33  1  0
  9 34  1  0
 11 35  1  0
 12 36  1  0
 12 37  1  0
 12 38  1  0
 13 39  1  0
 13 40  1  0
 13 41  1  0
 14 42  1  0
 16 43  1  0
 21 44  1  0
 22 45  1  0
 23 46  1  0
 24 47  1  0
M  ISO  8  26  14  27  14  28   5  29  13  30  13  31  13  32  13  33  13
M  ISO  8  34  13  35   8  36   8  37   8  38   8  39   8  40   8  41   8
M  ISO  6  42  14  43  14  44  14  45  14  46  14  47  14
M  END
>  <minimizedAffinity>  (1) 
-5.19587898

>  <minimizedRMSD>  (1) 
9.22990704

$$$$
