
     RDKit          3D

 52 56  0  0  1  0  0  0  0  0999 V2000
   39.3720   24.0710   35.0940 C   0  0  0  0  0  0  0  0  0  0  0  0
   38.6660   24.8630   36.0130 C   0  0  0  0  0  0  0  0  0  0  0  0
   37.8730   25.6710   35.1950 C   0  0  0  0  0  0  0  0  0  0  0  0
   38.0920   25.3810   33.8900 N   0  0  0  0  0  0  0  0  0  0  0  0
   38.9980   24.4160   33.8690 N   0  0  0  0  0  0  0  0  0  0  0  0
   36.4280   25.1800   32.1890 N   0  0  0  0  0  0  0  0  0  0  0  0
   35.7770   26.1090   31.2570 C   0  0  0  0  0  0  0  0  0  0  0  0
   35.8850   27.4910   31.8720 C   0  0  0  0  0  0  0  0  0  0  0  0
   36.6540   27.2440   33.1620 C   0  0  0  0  0  0  0  0  0  0  0  0
   37.4480   26.0200   32.7880 C   0  0  1  0  0  0  0  0  0  0  0  0
   38.5060   26.3970   31.7830 C   0  0  0  0  0  0  0  0  0  0  0  0
   39.2020   25.1870   31.2130 C   0  0  0  0  0  0  0  0  0  0  0  0
   39.5670   27.2060   32.4950 C   0  0  0  0  0  0  0  0  0  0  0  0
   40.5690   22.7480   36.8130 C   0  0  0  0  0  0  0  0  0  0  0  0
   40.3400   23.0560   35.4690 C   0  0  0  0  0  0  0  0  0  0  0  0
   41.0360   22.3930   34.4860 C   0  0  0  0  0  0  0  0  0  0  0  0
   41.9360   21.4470   34.8870 N   0  0  0  0  0  0  0  0  0  0  0  0
   42.1430   21.1630   36.2070 C   0  0  0  0  0  0  0  0  0  0  0  0
   41.4590   21.8150   37.1430 N   0  0  0  0  0  0  0  0  0  0  0  0
   43.1160   20.1420   36.5850 C   0  0  0  0  0  0  0  0  0  0  0  0
   42.8780   18.9250   37.1920 C   0  0  0  0  0  0  0  0  0  0  0  0
   44.0490   18.2550   37.3800 N   0  0  0  0  0  0  0  0  0  0  0  0
   45.0520   19.0260   36.8990 C   0  0  0  0  0  0  0  0  0  0  0  0
   46.4330   18.8080   36.8480 C   0  0  0  0  0  0  0  0  0  0  0  0
   47.2190   19.8090   36.2830 C   0  0  0  0  0  0  0  0  0  0  0  0
   46.6390   20.9700   35.7950 C   0  0  0  0  0  0  0  0  0  0  0  0
   45.2650   21.1640   35.8570 C   0  0  0  0  0  0  0  0  0  0  0  0
   44.4840   20.1840   36.4110 C   0  0  0  0  0  0  0  0  0  0  0  0
   38.7234   24.8504   37.1114 H   0  0  0  0  0  0  0  0  0  0  0  0
   37.1701   26.4348   35.5590 H   0  0  0  0  0  0  0  0  0  0  0  0
   36.8459   24.3813   31.6907 H   0  0  0  0  0  0  0  0  0  0  0  0
   34.7200   25.8346   31.1247 H   0  0  0  0  0  0  0  0  0  0  0  0
   36.2569   26.0778   30.2677 H   0  0  0  0  0  0  0  0  0  0  0  0
   36.4365   28.1745   31.2097 H   0  0  0  0  0  0  0  0  0  0  0  0
   34.9062   27.9642   32.0395 H   0  0  0  0  0  0  0  0  0  0  0  0
   37.3098   28.0914   33.4108 H   0  0  0  0  0  0  0  0  0  0  0  0
   36.0208   27.1211   34.0530 H   0  0  0  0  0  0  0  0  0  0  0  0
   38.0127   26.9507   30.9706 H   0  0  0  0  0  0  0  0  0  0  0  0
   39.5667   24.5529   32.0345 H   0  0  0  0  0  0  0  0  0  0  0  0
   38.4950   24.6149   30.5943 H   0  0  0  0  0  0  0  0  0  0  0  0
   40.0521   25.5105   30.5943 H   0  0  0  0  0  0  0  0  0  0  0  0
   39.4360   27.1061   33.5826 H   0  0  0  0  0  0  0  0  0  0  0  0
   40.5630   26.8360   32.2101 H   0  0  0  0  0  0  0  0  0  0  0  0
   39.4738   28.2644   32.2101 H   0  0  0  0  0  0  0  0  0  0  0  0
   40.0123   23.2780   37.5999 H   0  0  0  0  0  0  0  0  0  0  0  0
   40.8748   22.6152   33.4208 H   0  0  0  0  0  0  0  0  0  0  0  0
   41.8853   18.5503   37.4821 H   0  0  0  0  0  0  0  0  0  0  0  0
   44.1528   17.3257   37.8119 H   0  0  0  0  0  0  0  0  0  0  0  0
   46.8804   17.8822   37.2389 H   0  0  0  0  0  0  0  0  0  0  0  0
   48.3095   19.6775   36.2233 H   0  0  0  0  0  0  0  0  0  0  0  0
   47.2766   21.7492   35.3520 H   0  0  0  0  0  0  0  0  0  0  0  0
   44.8120   22.0879   35.4683 H   0  0  0  0  0  0  0  0  0  0  0  0
  1 15  1  0
  1  2  1  0
  3  2  2  0
  4  3  1  0
  5  4  1  0
  5  1  2  0
  6 10  1  0
  7  8  1  0
  7  6  1  0
  8  9  1  0
 10 11  1  6
 10  9  1  0
 10  4  1  0
 11 13  1  0
 12 11  1  0
 14 19  2  0
 15 14  1  0
 16 17  1  0
 16 15  2  0
 17 18  2  0
 18 20  1  0
 18 19  1  0
 20 21  2  0
 21 22  1  0
 23 22  1  0
 24 23  2  0
 25 24  1  0
 26 27  1  0
 26 25  2  0
 27 28  2  0
 28 20  1  0
 28 23  1  0
  2 29  1  0
  3 30  1  0
  6 31  1  0
  7 32  1  0
  7 33  1  0
  8 34  1  0
  8 35  1  0
  9 36  1  0
  9 37  1  0
 11 38  1  0
 12 39  1  0
 12 40  1  0
 12 41  1  0
 13 42  1  0
 13 43  1  0
 13 44  1  0
 14 45  1  0
 16 46  1  0
 21 47  1  0
 22 48  1  0
 24 49  1  0
 25 50  1  0
 26 51  1  0
 27 52  1  0
M  ISO  8  29  14  30  14  31   5  32  13  33  13  34  13  35  13  36  13
M  ISO  8  37  13  38   8  39   8  40   8  41   8  42   8  43   8  44   8
M  ISO  8  45  14  46  14  47  14  48   9  49  14  50  14  51  14  52  14
M  END
>  <minimizedAffinity>  (1) 
-5.04693413

>  <minimizedRMSD>  (1) 
10.5650282

$$$$
