
     RDKit          3D

 46 49  0  0  1  0  0  0  0  0999 V2000
   38.9770   22.4260   34.8120 C   0  0  0  0  0  0  0  0  0  0  0  0
   37.8720   22.3360   35.6430 C   0  0  0  0  0  0  0  0  0  0  0  0
   36.9200   21.6770   34.8780 C   0  0  0  0  0  0  0  0  0  0  0  0
   37.4250   21.3850   33.6530 N   0  0  0  0  0  0  0  0  0  0  0  0
   38.6620   21.8480   33.6450 N   0  0  0  0  0  0  0  0  0  0  0  0
   37.4100   19.5380   32.1350 N   0  0  0  0  0  0  0  0  0  0  0  0
   36.4180   18.9150   31.2500 C   0  0  0  0  0  0  0  0  0  0  0  0
   35.0710   19.2790   31.8070 C   0  0  0  0  0  0  0  0  0  0  0  0
   35.4040   20.1330   33.0200 C   0  0  0  0  0  0  0  0  0  0  0  0
   36.7180   20.7060   32.6050 C   0  0  1  0  0  0  0  0  0  0  0  0
   36.5020   21.7020   31.4840 C   0  0  0  0  0  0  0  0  0  0  0  0
   37.8020   22.3050   31.0030 C   0  0  0  0  0  0  0  0  0  0  0  0
   35.6590   22.8340   32.0070 C   0  0  0  0  0  0  0  0  0  0  0  0
   40.6050   24.2760   34.6180 C   0  0  0  0  0  0  0  0  0  0  0  0
   40.2340   23.0330   35.1520 C   0  0  0  0  0  0  0  0  0  0  0  0
   41.0960   22.3840   36.0190 C   0  0  0  0  0  0  0  0  0  0  0  0
   42.2900   23.0180   36.3080 N   0  0  0  0  0  0  0  0  0  0  0  0
   42.6070   24.2200   35.7700 C   0  0  0  0  0  0  0  0  0  0  0  0
   41.7790   24.8310   34.9430 N   0  0  0  0  0  0  0  0  0  0  0  0
   43.8870   24.8290   36.1200 C   0  0  0  0  0  0  0  0  0  0  0  0
   44.4670   25.7560   35.2810 C   0  0  0  0  0  0  0  0  0  0  0  0
   45.6840   26.3960   35.5210 C   0  0  0  0  0  0  0  0  0  0  0  0
   46.2940   26.0390   36.6810 N   0  0  0  0  0  0  0  0  0  0  0  0
   45.7440   25.1370   37.5140 C   0  0  0  0  0  0  0  0  0  0  0  0
   44.5520   24.5310   37.2440 N   0  0  0  0  0  0  0  0  0  0  0  0
   37.7720   22.7035   36.6750 H   0  0  0  0  0  0  0  0  0  0  0  0
   35.9033   21.4275   35.2158 H   0  0  0  0  0  0  0  0  0  0  0  0
   38.2625   19.7939   31.6167 H   0  0  0  0  0  0  0  0  0  0  0  0
   36.5454   17.8224   31.2440 H   0  0  0  0  0  0  0  0  0  0  0  0
   36.5305   19.2648   30.2132 H   0  0  0  0  0  0  0  0  0  0  0  0
   34.4842   19.8510   31.0732 H   0  0  0  0  0  0  0  0  0  0  0  0
   34.4608   18.3990   32.0586 H   0  0  0  0  0  0  0  0  0  0  0  0
   34.6518   20.9194   33.1805 H   0  0  0  0  0  0  0  0  0  0  0  0
   35.4269   19.5830   33.9723 H   0  0  0  0  0  0  0  0  0  0  0  0
   36.0226   21.1673   30.6507 H   0  0  0  0  0  0  0  0  0  0  0  0
   38.4167   22.5901   31.8695 H   0  0  0  0  0  0  0  0  0  0  0  0
   38.3456   21.5671   30.3947 H   0  0  0  0  0  0  0  0  0  0  0  0
   37.5897   23.1966   30.3947 H   0  0  0  0  0  0  0  0  0  0  0  0
   35.6689   22.8207   33.1069 H   0  0  0  0  0  0  0  0  0  0  0  0
   36.0664   23.7907   31.6482 H   0  0  0  0  0  0  0  0  0  0  0  0
   34.6257   22.7178   31.6482 H   0  0  0  0  0  0  0  0  0  0  0  0
   39.9265   24.7982   33.9274 H   0  0  0  0  0  0  0  0  0  0  0  0
   40.8424   21.4079   36.4582 H   0  0  0  0  0  0  0  0  0  0  0  0
   43.9316   26.0101   34.3543 H   0  0  0  0  0  0  0  0  0  0  0  0
   46.1151   27.1314   34.8257 H   0  0  0  0  0  0  0  0  0  0  0  0
   46.2729   24.8796   38.4435 H   0  0  0  0  0  0  0  0  0  0  0  0
  1 15  1  0
  1  2  1  0
  3  2  2  0
  4  3  1  0
  5  4  1  0
  5  1  2  0
  6 10  1  0
  7  8  1  0
  7  6  1  0
  8  9  1  0
 10 11  1  6
 10  9  1  0
 10  4  1  0
 11 13  1  0
 12 11  1  0
 14 19  2  0
 14 15  1  0
 15 16  2  0
 16 17  1  0
 18 20  1  0
 18 17  2  0
 19 18  1  0
 20 25  2  0
 21 22  2  0
 21 20  1  0
 22 23  1  0
 23 24  2  0
 25 24  1  0
  2 26  1  0
  3 27  1  0
  6 28  1  0
  7 29  1  0
  7 30  1  0
  8 31  1  0
  8 32  1  0
  9 33  1  0
  9 34  1  0
 11 35  1  0
 12 36  1  0
 12 37  1  0
 12 38  1  0
 13 39  1  0
 13 40  1  0
 13 41  1  0
 14 42  1  0
 16 43  1  0
 21 44  1  0
 22 45  1  0
 24 46  1  0
M  ISO  8  26  14  27  14  28   5  29  13  30  13  31  13  32  13  33  13
M  ISO  8  34  13  35   8  36   8  37   8  38   8  39   8  40   8  41   8
M  ISO  5  42  14  43  14  44  14  45  14  46  14
M  END
>  <minimizedAffinity>  (1) 
-5.00501633

>  <minimizedRMSD>  (1) 
9.28939342

$$$$
