
     RDKit          3D

 49 53  0  0  1  0  0  0  0  0999 V2000
   41.9420   24.8820   34.5430 C   0  0  0  0  0  0  0  0  0  0  0  0
   41.9540   26.2600   34.2930 C   0  0  0  0  0  0  0  0  0  0  0  0
   43.2840   26.6300   34.4920 C   0  0  0  0  0  0  0  0  0  0  0  0
   44.0180   25.5420   34.8380 N   0  0  0  0  0  0  0  0  0  0  0  0
   43.1880   24.5090   34.8620 N   0  0  0  0  0  0  0  0  0  0  0  0
   39.5050   24.5570   34.7300 C   0  0  0  0  0  0  0  0  0  0  0  0
   40.7780   24.0390   34.4630 C   0  0  0  0  0  0  0  0  0  0  0  0
   40.9140   22.7150   34.1220 C   0  0  0  0  0  0  0  0  0  0  0  0
   39.7850   21.9490   34.0570 N   0  0  0  0  0  0  0  0  0  0  0  0
   38.5500   22.4890   34.3260 C   0  0  0  0  0  0  0  0  0  0  0  0
   38.4310   23.7630   34.6530 N   0  0  0  0  0  0  0  0  0  0  0  0
   37.3670   21.7020   34.2620 N   0  0  0  0  0  0  0  0  0  0  0  0
   36.5890   21.3990   35.3230 C   0  0  0  0  0  0  0  0  0  0  0  0
   35.5190   20.6300   34.9700 N   0  0  0  0  0  0  0  0  0  0  0  0
   35.6420   20.4500   33.6270 C   0  0  0  0  0  0  0  0  0  0  0  0
   34.8650   19.7590   32.6900 C   0  0  0  0  0  0  0  0  0  0  0  0
   35.2700   19.7730   31.3950 N   0  0  0  0  0  0  0  0  0  0  0  0
   36.3800   20.4230   30.9990 C   0  0  0  0  0  0  0  0  0  0  0  0
   37.1520   21.1030   31.8970 N   0  0  0  0  0  0  0  0  0  0  0  0
   36.7770   21.1110   33.2060 C   0  0  0  0  0  0  0  0  0  0  0  0
   46.1950   24.9080   34.0720 N   0  0  0  0  0  0  0  0  0  0  0  0
   47.5750   25.2220   34.4690 C   0  0  0  0  0  0  0  0  0  0  0  0
   47.5270   26.5720   35.1380 C   0  0  0  0  0  0  0  0  0  0  0  0
   46.0410   26.9270   35.1180 C   0  0  0  0  0  0  0  0  0  0  0  0
   45.4250   25.5560   35.1180 C   0  0  1  0  0  0  0  0  0  0  0  0
   45.6390   24.9140   36.4620 C   0  0  0  0  0  0  0  0  0  0  0  0
   45.1200   23.4900   36.4940 C   0  0  0  0  0  0  0  0  0  0  0  0
   44.8510   25.6900   37.4870 C   0  0  0  0  0  0  0  0  0  0  0  0
   41.1088   26.9027   34.0057 H   0  0  0  0  0  0  0  0  0  0  0  0
   43.6790   27.6510   34.3846 H   0  0  0  0  0  0  0  0  0  0  0  0
   39.3880   25.6162   35.0029 H   0  0  0  0  0  0  0  0  0  0  0  0
   41.9033   22.2844   33.9076 H   0  0  0  0  0  0  0  0  0  0  0  0
   36.7938   21.7329   36.3509 H   0  0  0  0  0  0  0  0  0  0  0  0
   33.9546   19.2215   32.9939 H   0  0  0  0  0  0  0  0  0  0  0  0
   36.6692   20.4063   29.9378 H   0  0  0  0  0  0  0  0  0  0  0  0
   45.9734   25.3010   33.1461 H   0  0  0  0  0  0  0  0  0  0  0  0
   47.9515   24.4628   35.1703 H   0  0  0  0  0  0  0  0  0  0  0  0
   48.2486   25.2309   33.5994 H   0  0  0  0  0  0  0  0  0  0  0  0
   47.9034   26.5131   36.1699 H   0  0  0  0  0  0  0  0  0  0  0  0
   48.1537   27.3225   34.6341 H   0  0  0  0  0  0  0  0  0  0  0  0
   45.7717   27.4920   34.2134 H   0  0  0  0  0  0  0  0  0  0  0  0
   45.7155   27.5730   35.9467 H   0  0  0  0  0  0  0  0  0  0  0  0
   46.7195   24.9119   36.6683 H   0  0  0  0  0  0  0  0  0  0  0  0
   45.0020   23.1661   37.5386 H   0  0  0  0  0  0  0  0  0  0  0  0
   44.1469   23.4428   35.9833 H   0  0  0  0  0  0  0  0  0  0  0  0
   45.8346   22.8277   35.9833 H   0  0  0  0  0  0  0  0  0  0  0  0
   45.1617   25.3840   38.4969 H   0  0  0  0  0  0  0  0  0  0  0  0
   45.0384   26.7660   37.3559 H   0  0  0  0  0  0  0  0  0  0  0  0
   43.7780   25.4861   37.3559 H   0  0  0  0  0  0  0  0  0  0  0  0
  1  5  2  0
  2  3  2  0
  2  1  1  0
  3  4  1  0
  4  5  1  0
  4 25  1  0
  7  1  1  0
  7  6  2  0
  8  7  1  0
  9  8  2  0
  9 10  1  0
 10 11  2  0
 11  6  1  0
 12 10  1  0
 12 13  1  0
 14 13  2  0
 15 14  1  0
 16 15  2  0
 17 16  1  0
 18 17  2  0
 18 19  1  0
 19 20  2  0
 20 15  1  0
 20 12  1  0
 21 22  1  0
 21 25  1  0
 22 23  1  0
 24 25  1  0
 24 23  1  0
 25 26  1  1
 26 27  1  0
 26 28  1  0
  2 29  1  0
  3 30  1  0
  6 31  1  0
  8 32  1  0
 13 33  1  0
 16 34  1  0
 18 35  1  0
 21 36  1  0
 22 37  1  0
 22 38  1  0
 23 39  1  0
 23 40  1  0
 24 41  1  0
 24 42  1  0
 26 43  1  0
 27 44  1  0
 27 45  1  0
 27 46  1  0
 28 47  1  0
 28 48  1  0
 28 49  1  0
M  ISO  8  29  14  30  14  31  14  32  14  33  14  34  14  35  14  36   5
M  ISO  8  37  13  38  13  39  13  40  13  41  13  42  13  43   8  44   8
M  ISO  5  45   8  46   8  47   8  48   8  49   8
M  END
>  <minimizedAffinity>  (1) 
-4.98519325

>  <minimizedRMSD>  (1) 
6.23719406

$$$$
