
     RDKit          3D

 45 48  0  0  1  0  0  0  0  0999 V2000
   44.7700   26.1720   35.7680 N   0  0  0  0  0  0  0  0  0  0  0  0
   46.1400   26.4830   36.2000 C   0  0  0  0  0  0  0  0  0  0  0  0
   46.4190   25.5990   37.3980 C   0  0  0  0  0  0  0  0  0  0  0  0
   45.1330   24.7870   37.5490 C   0  0  0  0  0  0  0  0  0  0  0  0
   44.6490   24.7730   36.1360 C   0  0  1  0  0  0  0  0  0  0  0  0
   41.2590   24.0010   35.2360 C   0  0  0  0  0  0  0  0  0  0  0  0
   41.4390   23.0740   36.2750 C   0  0  0  0  0  0  0  0  0  0  0  0
   42.7460   23.2970   36.6980 C   0  0  0  0  0  0  0  0  0  0  0  0
   43.3200   24.2910   35.9670 N   0  0  0  0  0  0  0  0  0  0  0  0
   42.3950   24.6880   35.0990 N   0  0  0  0  0  0  0  0  0  0  0  0
   38.8910   23.4380   34.8340 C   0  0  0  0  0  0  0  0  0  0  0  0
   40.0410   24.1480   34.4780 C   0  0  0  0  0  0  0  0  0  0  0  0
   40.0180   24.9990   33.3940 C   0  0  0  0  0  0  0  0  0  0  0  0
   38.8420   25.1100   32.7020 N   0  0  0  0  0  0  0  0  0  0  0  0
   37.7330   24.4040   33.0700 C   0  0  0  0  0  0  0  0  0  0  0  0
   37.7730   23.5840   34.1230 N   0  0  0  0  0  0  0  0  0  0  0  0
   36.6630   24.7120   32.1800 N   0  0  0  0  0  0  0  0  0  0  0  0
   36.4620   26.0530   32.0230 C   0  0  0  0  0  0  0  0  0  0  0  0
   35.3970   26.2330   31.1360 C   0  0  0  0  0  0  0  0  0  0  0  0
   34.9960   24.9850   30.7910 N   0  0  0  0  0  0  0  0  0  0  0  0
   35.7720   24.0760   31.4310 C   0  0  0  0  0  0  0  0  0  0  0  0
   45.5710   23.8990   35.2980 C   0  0  0  0  0  0  0  0  0  0  0  0
   45.1110   23.8130   33.8620 C   0  0  0  0  0  0  0  0  0  0  0  0
   45.5160   22.5000   35.8610 C   0  0  0  0  0  0  0  0  0  0  0  0
   44.6588   26.3030   34.7524 H   0  0  0  0  0  0  0  0  0  0  0  0
   46.8531   26.2649   35.3914 H   0  0  0  0  0  0  0  0  0  0  0  0
   46.2468   27.5476   36.4552 H   0  0  0  0  0  0  0  0  0  0  0  0
   47.2798   24.9407   37.2090 H   0  0  0  0  0  0  0  0  0  0  0  0
   46.6735   26.1708   38.3026 H   0  0  0  0  0  0  0  0  0  0  0  0
   45.3359   23.7709   37.9184 H   0  0  0  0  0  0  0  0  0  0  0  0
   44.4152   25.1980   38.2742 H   0  0  0  0  0  0  0  0  0  0  0  0
   40.7157   22.3422   36.6640 H   0  0  0  0  0  0  0  0  0  0  0  0
   43.2451   22.7469   37.5094 H   0  0  0  0  0  0  0  0  0  0  0  0
   38.9085   22.7596   35.6997 H   0  0  0  0  0  0  0  0  0  0  0  0
   40.9112   25.5677   33.0961 H   0  0  0  0  0  0  0  0  0  0  0  0
   37.0384   26.8533   32.5102 H   0  0  0  0  0  0  0  0  0  0  0  0
   34.9731   27.1874   30.7903 H   0  0  0  0  0  0  0  0  0  0  0  0
   35.6776   22.9836   31.3430 H   0  0  0  0  0  0  0  0  0  0  0  0
   46.5802   24.3357   35.3269 H   0  0  0  0  0  0  0  0  0  0  0  0
   44.0301   23.6109   33.8347 H   0  0  0  0  0  0  0  0  0  0  0  0
   45.3189   24.7656   33.3527 H   0  0  0  0  0  0  0  0  0  0  0  0
   45.6490   22.9999   33.3527 H   0  0  0  0  0  0  0  0  0  0  0  0
   45.5178   22.5467   36.9600 H   0  0  0  0  0  0  0  0  0  0  0  0
   44.5976   22.0020   35.5167 H   0  0  0  0  0  0  0  0  0  0  0  0
   46.3925   21.9315   35.5167 H   0  0  0  0  0  0  0  0  0  0  0  0
  1  5  1  0
  1  2  1  0
  2  3  1  0
  3  4  1  0
  5 22  1  6
  5  4  1  0
  6  7  1  0
  7  8  2  0
  9  5  1  0
  9  8  1  0
 10  6  2  0
 10  9  1  0
 12 11  2  0
 12  6  1  0
 13 12  1  0
 14 15  1  0
 14 13  2  0
 15 16  2  0
 16 11  1  0
 17 15  1  0
 18 17  1  0
 19 18  2  0
 20 19  1  0
 20 21  2  0
 21 17  1  0
 22 24  1  0
 23 22  1  0
  1 25  1  0
  2 26  1  0
  2 27  1  0
  3 28  1  0
  3 29  1  0
  4 30  1  0
  4 31  1  0
  7 32  1  0
  8 33  1  0
 11 34  1  0
 13 35  1  0
 18 36  1  0
 19 37  1  0
 21 38  1  0
 22 39  1  0
 23 40  1  0
 23 41  1  0
 23 42  1  0
 24 43  1  0
 24 44  1  0
 24 45  1  0
M  ISO  8  25   5  26  13  27  13  28  13  29  13  30  13  31  13  32  14
M  ISO  8  33  14  34  14  35  14  36  14  37  14  38  14  39   8  40   8
M  ISO  5  41   8  42   8  43   8  44   8  45   8
M  END
>  <minimizedAffinity>  (1) 
-4.87051821

>  <minimizedRMSD>  (1) 
4.27629709

$$$$
