
     RDKit          3D

 46 49  0  0  1  0  0  0  0  0999 V2000
   40.1050   23.1840   35.6500 C   0  0  0  0  0  0  0  0  0  0  0  0
   38.8710   23.1490   36.3050 C   0  0  0  0  0  0  0  0  0  0  0  0
   38.1520   24.1920   35.7060 C   0  0  0  0  0  0  0  0  0  0  0  0
   38.9100   24.8030   34.7610 N   0  0  0  0  0  0  0  0  0  0  0  0
   40.0640   24.1720   34.7600 N   0  0  0  0  0  0  0  0  0  0  0  0
   38.7970   25.7160   32.5550 N   0  0  0  0  0  0  0  0  0  0  0  0
   38.1030   26.8490   31.9280 C   0  0  0  0  0  0  0  0  0  0  0  0
   36.8990   27.1370   32.7810 C   0  0  0  0  0  0  0  0  0  0  0  0
   37.0030   26.1030   33.9020 C   0  0  0  0  0  0  0  0  0  0  0  0
   38.4820   25.9060   33.9590 C   0  0  1  0  0  0  0  0  0  0  0  0
   39.1420   27.1550   34.5040 C   0  0  0  0  0  0  0  0  0  0  0  0
   40.6450   27.0390   34.5380 C   0  0  0  0  0  0  0  0  0  0  0  0
   38.6920   27.3270   35.9310 C   0  0  0  0  0  0  0  0  0  0  0  0
   41.3360   21.6660   37.1570 C   0  0  0  0  0  0  0  0  0  0  0  0
   41.2050   22.2900   35.9190 C   0  0  0  0  0  0  0  0  0  0  0  0
   42.1370   22.0520   34.9390 C   0  0  0  0  0  0  0  0  0  0  0  0
   43.1630   21.1950   35.2430 N   0  0  0  0  0  0  0  0  0  0  0  0
   43.2690   20.6000   36.4540 C   0  0  0  0  0  0  0  0  0  0  0  0
   42.3640   20.8420   37.3820 N   0  0  0  0  0  0  0  0  0  0  0  0
   44.3930   19.7080   36.6780 C   0  0  0  0  0  0  0  0  0  0  0  0
   45.6760   20.0220   36.3000 C   0  0  0  0  0  0  0  0  0  0  0  0
   46.7190   19.1300   36.5390 C   0  0  0  0  0  0  0  0  0  0  0  0
   46.4570   17.9540   37.1460 N   0  0  0  0  0  0  0  0  0  0  0  0
   45.2160   17.6590   37.5080 C   0  0  0  0  0  0  0  0  0  0  0  0
   44.2010   18.5110   37.2840 N   0  0  0  0  0  0  0  0  0  0  0  0
   38.5422   22.4652   37.1015 H   0  0  0  0  0  0  0  0  0  0  0  0
   37.1210   24.4748   35.9648 H   0  0  0  0  0  0  0  0  0  0  0  0
   39.8127   25.7621   32.3901 H   0  0  0  0  0  0  0  0  0  0  0  0
   38.7638   27.7278   31.8942 H   0  0  0  0  0  0  0  0  0  0  0  0
   37.8108   26.6136   30.8940 H   0  0  0  0  0  0  0  0  0  0  0  0
   36.9378   28.1597   33.1841 H   0  0  0  0  0  0  0  0  0  0  0  0
   35.9528   27.0724   32.2238 H   0  0  0  0  0  0  0  0  0  0  0  0
   36.6090   26.4937   34.8518 H   0  0  0  0  0  0  0  0  0  0  0  0
   36.4257   25.1827   33.7298 H   0  0  0  0  0  0  0  0  0  0  0  0
   38.8621   27.9960   33.8526 H   0  0  0  0  0  0  0  0  0  0  0  0
   40.9872   27.0126   35.5831 H   0  0  0  0  0  0  0  0  0  0  0  0
   40.9530   26.1144   34.0279 H   0  0  0  0  0  0  0  0  0  0  0  0
   41.0913   27.9054   34.0279 H   0  0  0  0  0  0  0  0  0  0  0  0
   39.5003   27.0181   36.6101 H   0  0  0  0  0  0  0  0  0  0  0  0
   38.4442   28.3832   36.1125 H   0  0  0  0  0  0  0  0  0  0  0  0
   37.8029   26.7053   36.1125 H   0  0  0  0  0  0  0  0  0  0  0  0
   40.5947   21.8509   37.9484 H   0  0  0  0  0  0  0  0  0  0  0  0
   42.0634   22.5293   33.9507 H   0  0  0  0  0  0  0  0  0  0  0  0
   45.8808   20.9832   35.8058 H   0  0  0  0  0  0  0  0  0  0  0  0
   47.7459   19.3820   36.2358 H   0  0  0  0  0  0  0  0  0  0  0  0
   45.0131   16.6972   38.0018 H   0  0  0  0  0  0  0  0  0  0  0  0
  1 15  1  0
  1  2  1  0
  3  2  2  0
  4  3  1  0
  5  4  1  0
  5  1  2  0
  6 10  1  0
  7  6  1  0
  7  8  1  0
  8  9  1  0
  9 10  1  0
 10 11  1  1
 10  4  1  0
 11 12  1  0
 11 13  1  0
 14 19  2  0
 15 14  1  0
 16 17  1  0
 16 15  2  0
 17 18  2  0
 18 20  1  0
 18 19  1  0
 20 25  2  0
 21 22  2  0
 21 20  1  0
 22 23  1  0
 23 24  2  0
 25 24  1  0
  2 26  1  0
  3 27  1  0
  6 28  1  0
  7 29  1  0
  7 30  1  0
  8 31  1  0
  8 32  1  0
  9 33  1  0
  9 34  1  0
 11 35  1  0
 12 36  1  0
 12 37  1  0
 12 38  1  0
 13 39  1  0
 13 40  1  0
 13 41  1  0
 14 42  1  0
 16 43  1  0
 21 44  1  0
 22 45  1  0
 24 46  1  0
M  ISO  8  26  14  27  14  28   5  29  13  30  13  31  13  32  13  33  13
M  ISO  8  34  13  35   8  36   8  37   8  38   8  39   8  40   8  41   8
M  ISO  5  42  14  43  14  44  14  45  14  46  14
M  END
>  <minimizedAffinity>  (1) 
-4.79690647

>  <minimizedRMSD>  (1) 
9.88397121

$$$$
