
     RDKit          3D

 45 48  0  0  1  0  0  0  0  0999 V2000
   44.6430   25.9560   37.4880 N   0  0  0  0  0  0  0  0  0  0  0  0
   45.9990   25.9290   38.0510 C   0  0  0  0  0  0  0  0  0  0  0  0
   46.6050   24.6120   37.6420 C   0  0  0  0  0  0  0  0  0  0  0  0
   45.5210   23.9690   36.7990 C   0  0  0  0  0  0  0  0  0  0  0  0
   44.8060   25.1840   36.2820 C   0  0  1  0  0  0  0  0  0  0  0  0
   41.5770   25.1510   34.7210 C   0  0  0  0  0  0  0  0  0  0  0  0
   41.8720   23.7790   34.6560 C   0  0  0  0  0  0  0  0  0  0  0  0
   43.1280   23.6860   35.2470 C   0  0  0  0  0  0  0  0  0  0  0  0
   43.5530   24.9060   35.6360 N   0  0  0  0  0  0  0  0  0  0  0  0
   42.6030   25.7590   35.3080 N   0  0  0  0  0  0  0  0  0  0  0  0
   39.8010   25.3340   33.0150 C   0  0  0  0  0  0  0  0  0  0  0  0
   40.3610   25.7470   34.2270 C   0  0  0  0  0  0  0  0  0  0  0  0
   39.7440   26.7390   34.9610 C   0  0  0  0  0  0  0  0  0  0  0  0
   38.5930   27.2740   34.4510 N   0  0  0  0  0  0  0  0  0  0  0  0
   38.0650   26.8600   33.2750 C   0  0  0  0  0  0  0  0  0  0  0  0
   38.6650   25.9100   32.5830 N   0  0  0  0  0  0  0  0  0  0  0  0
   36.8050   27.4730   32.7560 C   0  0  0  0  0  0  0  0  0  0  0  0
   36.9530   28.6480   31.7850 C   0  0  0  0  0  0  0  0  0  0  0  0
   36.3990   27.3460   31.3470 C   0  0  0  0  0  0  0  0  0  0  0  0
   45.6900   25.8900   35.2790 C   0  0  0  0  0  0  0  0  0  0  0  0
   45.0810   27.1760   34.8010 C   0  0  0  0  0  0  0  0  0  0  0  0
   45.8510   25.0030   34.0730 C   0  0  0  0  0  0  0  0  0  0  0  0
   43.9640   25.5161   38.1254 H   0  0  0  0  0  0  0  0  0  0  0  0
   46.5941   26.7624   37.6492 H   0  0  0  0  0  0  0  0  0  0  0  0
   45.9777   26.0345   39.1457 H   0  0  0  0  0  0  0  0  0  0  0  0
   47.5210   24.7669   37.0529 H   0  0  0  0  0  0  0  0  0  0  0  0
   46.9030   23.9928   38.5009 H   0  0  0  0  0  0  0  0  0  0  0  0
   45.9469   23.3712   35.9798 H   0  0  0  0  0  0  0  0  0  0  0  0
   44.8794   23.2621   37.3454 H   0  0  0  0  0  0  0  0  0  0  0  0
   41.2558   22.9698   34.2370 H   0  0  0  0  0  0  0  0  0  0  0  0
   43.6935   22.7517   35.3783 H   0  0  0  0  0  0  0  0  0  0  0  0
   40.2847   24.5453   32.4200 H   0  0  0  0  0  0  0  0  0  0  0  0
   40.1610   27.0858   35.9180 H   0  0  0  0  0  0  0  0  0  0  0  0
   36.2963   27.2656   33.7090 H   0  0  0  0  0  0  0  0  0  0  0  0
   36.2979   29.5271   31.8748 H   0  0  0  0  0  0  0  0  0  0  0  0
   37.7760   29.3019   31.4608 H   0  0  0  0  0  0  0  0  0  0  0  0
   35.3312   27.2675   31.0945 H   0  0  0  0  0  0  0  0  0  0  0  0
   36.6517   26.6417   30.5407 H   0  0  0  0  0  0  0  0  0  0  0  0
   46.6484   26.1062   35.7737 H   0  0  0  0  0  0  0  0  0  0  0  0
   44.7909   27.7886   35.6673 H   0  0  0  0  0  0  0  0  0  0  0  0
   45.8146   27.7253   34.1927 H   0  0  0  0  0  0  0  0  0  0  0  0
   44.1912   26.9565   34.1927 H   0  0  0  0  0  0  0  0  0  0  0  0
   46.0386   23.9697   34.4002 H   0  0  0  0  0  0  0  0  0  0  0  0
   44.9323   25.0353   33.4688 H   0  0  0  0  0  0  0  0  0  0  0  0
   46.6997   25.3561   33.4688 H   0  0  0  0  0  0  0  0  0  0  0  0
  1  2  1  0
  3  2  1  0
  4  3  1  0
  5 20  1  6
  5  4  1  0
  5  1  1  0
  6 10  2  0
  7  6  1  0
  7  8  2  0
  8  9  1  0
  9  5  1  0
 10  9  1  0
 11 12  2  0
 12  6  1  0
 12 13  1  0
 14 13  2  0
 15 14  1  0
 16 11  1  0
 16 15  2  0
 17 15  1  0
 18 17  1  0
 19 18  1  0
 19 17  1  0
 21 20  1  0
 22 20  1  0
  1 23  1  0
  2 24  1  0
  2 25  1  0
  3 26  1  0
  3 27  1  0
  4 28  1  0
  4 29  1  0
  7 30  1  0
  8 31  1  0
 11 32  1  0
 13 33  1  0
 17 34  1  0
 18 35  1  0
 18 36  1  0
 19 37  1  0
 19 38  1  0
 20 39  1  0
 21 40  1  0
 21 41  1  0
 21 42  1  0
 22 43  1  0
 22 44  1  0
 22 45  1  0
M  ISO  8  23   5  24  13  25  13  26  13  27  13  28  13  29  13  30  14
M  ISO  8  31  14  32  14  33  14  34  13  35  13  36  13  37  13  38  13
M  ISO  7  39   8  40   8  41   8  42   8  43   8  44   8  45   8
M  END
>  <minimizedAffinity>  (1) 
-4.27953577

>  <minimizedRMSD>  (1) 
4.26232052

$$$$
