
     RDKit          3D

 50 52  0  0  1  0  0  0  0  0999 V2000
   40.7220   23.2980   36.3240 N   0  0  0  0  0  0  0  0  0  0  0  0
   41.7520   22.3800   36.8300 C   0  0  0  0  0  0  0  0  0  0  0  0
   42.0590   21.4200   35.7020 C   0  0  0  0  0  0  0  0  0  0  0  0
   41.1500   21.8950   34.5770 C   0  0  0  0  0  0  0  0  0  0  0  0
   41.0340   23.3500   34.9090 C   0  0  1  0  0  0  0  0  0  0  0  0
   38.5580   25.5390   33.5240 C   0  0  0  0  0  0  0  0  0  0  0  0
   38.5710   24.5590   32.5170 C   0  0  0  0  0  0  0  0  0  0  0  0
   39.5220   23.6470   32.9740 C   0  0  0  0  0  0  0  0  0  0  0  0
   40.0340   24.0530   34.1590 N   0  0  0  0  0  0  0  0  0  0  0  0
   39.4330   25.1900   34.4580 N   0  0  0  0  0  0  0  0  0  0  0  0
   37.0670   27.1530   34.6510 C   0  0  0  0  0  0  0  0  0  0  0  0
   37.7160   26.7080   33.5000 C   0  0  0  0  0  0  0  0  0  0  0  0
   37.5490   27.4010   32.3240 C   0  0  0  0  0  0  0  0  0  0  0  0
   36.7420   28.5070   32.3420 N   0  0  0  0  0  0  0  0  0  0  0  0
   36.1210   28.9180   33.4760 C   0  0  0  0  0  0  0  0  0  0  0  0
   36.2930   28.2360   34.6100 N   0  0  0  0  0  0  0  0  0  0  0  0
   35.2620   30.1300   33.4070 C   0  0  0  0  0  0  0  0  0  0  0  0
   33.8510   29.8070   33.0170 C   0  0  0  0  0  0  0  0  0  0  0  0
   35.7980   31.1570   32.4290 C   0  0  0  0  0  0  0  0  0  0  0  0
   35.2510   30.7250   34.8130 C   0  0  0  0  0  0  0  0  0  0  0  0
   42.3630   24.0260   34.6500 C   0  0  0  0  0  0  0  0  0  0  0  0
   42.3090   25.5050   34.9730 C   0  0  0  0  0  0  0  0  0  0  0  0
   42.6810   23.9040   33.1810 C   0  0  0  0  0  0  0  0  0  0  0  0
   39.7758   22.9244   36.4852 H   0  0  0  0  0  0  0  0  0  0  0  0
   42.6565   22.9399   37.1099 H   0  0  0  0  0  0  0  0  0  0  0  0
   41.4042   21.8448   37.7259 H   0  0  0  0  0  0  0  0  0  0  0  0
   43.1168   21.4845   35.4072 H   0  0  0  0  0  0  0  0  0  0  0  0
   41.8899   20.3680   35.9755 H   0  0  0  0  0  0  0  0  0  0  0  0
   40.1716   21.3932   34.6073 H   0  0  0  0  0  0  0  0  0  0  0  0
   41.5285   21.6864   33.5655 H   0  0  0  0  0  0  0  0  0  0  0  0
   37.9757   24.5205   31.5928 H   0  0  0  0  0  0  0  0  0  0  0  0
   39.8146   22.7275   32.4458 H   0  0  0  0  0  0  0  0  0  0  0  0
   37.1949   26.6070   35.5973 H   0  0  0  0  0  0  0  0  0  0  0  0
   38.0477   27.0772   31.3986 H   0  0  0  0  0  0  0  0  0  0  0  0
   33.2429   29.6678   33.9230 H   0  0  0  0  0  0  0  0  0  0  0  0
   33.4370   30.6336   32.4209 H   0  0  0  0  0  0  0  0  0  0  0  0
   33.8378   28.8826   32.4209 H   0  0  0  0  0  0  0  0  0  0  0  0
   36.2372   31.9985   32.9849 H   0  0  0  0  0  0  0  0  0  0  0  0
   36.5691   30.6933   31.7962 H   0  0  0  0  0  0  0  0  0  0  0  0
   34.9766   31.5244   31.7962 H   0  0  0  0  0  0  0  0  0  0  0  0
   35.2660   29.9130   35.5549 H   0  0  0  0  0  0  0  0  0  0  0  0
   36.1375   31.3619   34.9485 H   0  0  0  0  0  0  0  0  0  0  0  0
   34.3415   31.3287   34.9485 H   0  0  0  0  0  0  0  0  0  0  0  0
   43.1200   23.5427   35.2851 H   0  0  0  0  0  0  0  0  0  0  0  0
   42.3040   25.6420   36.0644 H   0  0  0  0  0  0  0  0  0  0  0  0
   43.1894   26.0063   34.5446 H   0  0  0  0  0  0  0  0  0  0  0  0
   41.3943   25.9407   34.5446 H   0  0  0  0  0  0  0  0  0  0  0  0
   43.7016   23.5125   33.0581 H   0  0  0  0  0  0  0  0  0  0  0  0
   41.9650   23.2167   32.7067 H   0  0  0  0  0  0  0  0  0  0  0  0
   42.6084   24.8938   32.7067 H   0  0  0  0  0  0  0  0  0  0  0  0
  1  2  1  0
  3  2  1  0
  4  5  1  0
  4  3  1  0
  5 21  1  1
  5  1  1  0
  6 10  2  0
  7  8  2  0
  7  6  1  0
  8  9  1  0
  9 10  1  0
  9  5  1  0
 12  6  1  0
 12 11  2  0
 13 14  2  0
 13 12  1  0
 14 15  1  0
 15 16  2  0
 16 11  1  0
 17 15  1  0
 17 20  1  0
 18 17  1  0
 19 17  1  0
 21 22  1  0
 23 21  1  0
  1 24  1  0
  2 25  1  0
  2 26  1  0
  3 27  1  0
  3 28  1  0
  4 29  1  0
  4 30  1  0
  7 31  1  0
  8 32  1  0
 11 33  1  0
 13 34  1  0
 18 35  1  0
 18 36  1  0
 18 37  1  0
 19 38  1  0
 19 39  1  0
 19 40  1  0
 20 41  1  0
 20 42  1  0
 20 43  1  0
 21 44  1  0
 22 45  1  0
 22 46  1  0
 22 47  1  0
 23 48  1  0
 23 49  1  0
 23 50  1  0
M  ISO  8  24   5  25  13  26  13  27  13  28  13  29  13  30  13  31  14
M  ISO  8  32  14  33  14  34  14  35   8  36   8  37   8  38   8  39   8
M  ISO  8  40   8  41   8  42   8  43   8  44   8  45   8  46   8  47   8
M  ISO  3  48   8  49   8  50   8
M  END
>  <minimizedAffinity>  (1) 
-4.14494991

>  <minimizedRMSD>  (1) 
3.35605907

$$$$
