
     RDKit          3D

 33 36  0  0  0  0  0  0  0  0999 V2000
   39.0210   23.1930   34.4370 C   0  0  0  0  0  0  0  0  0  0  0  0
   40.1640   22.5590   34.0200 C   0  0  0  0  0  0  0  0  0  0  0  0
   41.1270   22.0600   34.8620 C   0  0  0  0  0  0  0  0  0  0  0  0
   40.9750   22.1840   36.2240 C   0  0  0  0  0  0  0  0  0  0  0  0
   39.8650   22.8010   36.6920 C   0  0  0  0  0  0  0  0  0  0  0  0
   39.7160   22.9230   38.0660 C   0  0  0  0  0  0  0  0  0  0  0  0
   38.6400   23.5240   38.6190 C   0  0  0  0  0  0  0  0  0  0  0  0
   37.6690   24.0270   37.7530 C   0  0  0  0  0  0  0  0  0  0  0  0
   37.8540   23.8860   36.3920 C   0  0  0  0  0  0  0  0  0  0  0  0
   38.9220   23.2890   35.8210 C   0  0  0  0  0  0  0  0  0  0  0  0
   36.3790   22.9500   32.0100 C   0  0  0  0  0  0  0  0  0  0  0  0
   36.0140   24.2420   31.6440 C   0  0  0  0  0  0  0  0  0  0  0  0
   36.7160   25.2350   32.2690 C   0  0  0  0  0  0  0  0  0  0  0  0
   37.6630   24.9020   33.1470 N   0  0  0  0  0  0  0  0  0  0  0  0
   38.0280   23.7060   33.5110 C   0  0  0  0  0  0  0  0  0  0  0  0
   37.3440   22.7430   32.9040 N   0  0  0  0  0  0  0  0  0  0  0  0
   36.4770   26.6170   32.0150 N   0  0  0  0  0  0  0  0  0  0  0  0
   36.3250   27.1770   30.7920 C   0  0  0  0  0  0  0  0  0  0  0  0
   36.1170   28.4780   30.9150 N   0  0  0  0  0  0  0  0  0  0  0  0
   36.1350   28.7650   32.2190 C   0  0  0  0  0  0  0  0  0  0  0  0
   36.3540   27.6200   32.8730 N   0  0  0  0  0  0  0  0  0  0  0  0
   35.9620   30.0030   32.8650 O   0  0  0  0  0  0  0  0  0  0  0  0
   40.3195   22.4425   32.9373 H   0  0  0  0  0  0  0  0  0  0  0  0
   42.0171   21.5627   34.4491 H   0  0  0  0  0  0  0  0  0  0  0  0
   41.7360   21.7918   36.9146 H   0  0  0  0  0  0  0  0  0  0  0  0
   40.4979   22.5180   38.7252 H   0  0  0  0  0  0  0  0  0  0  0  0
   38.5336   23.6133   39.7102 H   0  0  0  0  0  0  0  0  0  0  0  0
   36.7720   24.5270   38.1473 H   0  0  0  0  0  0  0  0  0  0  0  0
   37.0765   24.2884   35.7260 H   0  0  0  0  0  0  0  0  0  0  0  0
   35.8647   22.0902   31.5558 H   0  0  0  0  0  0  0  0  0  0  0  0
   35.2221   24.4484   30.9089 H   0  0  0  0  0  0  0  0  0  0  0  0
   36.3680   26.6316   29.8377 H   0  0  0  0  0  0  0  0  0  0  0  0
   36.0029   30.0559   33.8527 H   0  0  0  0  0  0  0  0  0  0  0  0
  1 10  1  0
  2  1  2  0
  2  3  1  0
  3  4  2  0
  4  5  1  0
  5  6  2  0
  6  7  1  0
  8  7  2  0
  9  8  1  0
 10  9  2  0
 10  5  1  0
 11 16  2  0
 12 11  1  0
 12 13  2  0
 13 14  1  0
 14 15  2  0
 15  1  1  0
 16 15  1  0
 17 13  1  0
 17 21  1  0
 18 19  2  0
 18 17  1  0
 19 20  1  0
 20 22  1  0
 20 21  2  0
  2 23  1  0
  3 24  1  0
  4 25  1  0
  6 26  1  0
  7 27  1  0
  8 28  1  0
  9 29  1  0
 11 30  1  0
 12 31  1  0
 18 32  1  0
 22 33  1  0
M  ISO  8  23  14  24  14  25  14  26  14  27  14  28  14  29  14  30  14
M  ISO  3  31  14  32  14  33   3
M  END
>  <minimizedAffinity>  (1) 
-5.79550791

>  <minimizedRMSD>  (1) 
0.215195894

$$$$
