
     RDKit          3D

 34 37  0  0  0  0  0  0  0  0999 V2000
   39.1880   24.0140   34.5430 C   0  0  0  0  0  0  0  0  0  0  0  0
   40.3690   23.5230   34.0180 C   0  0  0  0  0  0  0  0  0  0  0  0
   41.3260   22.8730   34.7600 C   0  0  0  0  0  0  0  0  0  0  0  0
   41.1340   22.6800   36.1130 C   0  0  0  0  0  0  0  0  0  0  0  0
   39.9970   23.1400   36.6760 C   0  0  0  0  0  0  0  0  0  0  0  0
   39.8140   22.9420   38.0280 C   0  0  0  0  0  0  0  0  0  0  0  0
   38.6880   23.3790   38.6730 C   0  0  0  0  0  0  0  0  0  0  0  0
   37.7310   24.0330   37.9110 C   0  0  0  0  0  0  0  0  0  0  0  0
   37.9480   24.2140   36.5600 C   0  0  0  0  0  0  0  0  0  0  0  0
   39.0540   23.7880   35.9070 C   0  0  0  0  0  0  0  0  0  0  0  0
   36.7500   24.3110   31.9210 C   0  0  0  0  0  0  0  0  0  0  0  0
   36.2670   25.6200   31.9230 C   0  0  0  0  0  0  0  0  0  0  0  0
   36.8310   26.4300   32.8940 C   0  0  0  0  0  0  0  0  0  0  0  0
   37.7420   25.9170   33.7070 N   0  0  0  0  0  0  0  0  0  0  0  0
   38.2030   24.6960   33.7180 C   0  0  0  0  0  0  0  0  0  0  0  0
   37.6710   23.9120   32.7930 N   0  0  0  0  0  0  0  0  0  0  0  0
   36.4460   27.7910   33.0280 N   0  0  0  0  0  0  0  0  0  0  0  0
   36.3140   28.6900   32.0490 C   0  0  0  0  0  0  0  0  0  0  0  0
   35.9400   29.8650   32.5230 N   0  0  0  0  0  0  0  0  0  0  0  0
   35.8250   29.7300   33.8520 C   0  0  0  0  0  0  0  0  0  0  0  0
   36.1420   28.4480   34.1280 N   0  0  0  0  0  0  0  0  0  0  0  0
   35.4610   30.6040   34.9630 C   0  0  0  0  0  0  0  0  0  0  0  0
   36.2050   31.0500   35.8750 O   0  0  0  0  0  0  0  0  0  0  0  0
   40.5537   23.6608   32.9424 H   0  0  0  0  0  0  0  0  0  0  0  0
   42.2436   22.5071   34.2762 H   0  0  0  0  0  0  0  0  0  0  0  0
   41.8916   22.1622   36.7196 H   0  0  0  0  0  0  0  0  0  0  0  0
   40.5925   22.4196   38.6033 H   0  0  0  0  0  0  0  0  0  0  0  0
   38.5479   23.2179   39.7521 H   0  0  0  0  0  0  0  0  0  0  0  0
   36.8074   24.4041   38.3793 H   0  0  0  0  0  0  0  0  0  0  0  0
   37.1743   24.7367   35.9784 H   0  0  0  0  0  0  0  0  0  0  0  0
   36.3608   23.5944   31.1828 H   0  0  0  0  0  0  0  0  0  0  0  0
   35.5047   25.9773   31.2150 H   0  0  0  0  0  0  0  0  0  0  0  0
   36.4937   28.4790   30.9845 H   0  0  0  0  0  0  0  0  0  0  0  0
   34.4057   30.9109   35.0089 H   0  0  0  0  0  0  0  0  0  0  0  0
  1 10  1  0
  2  1  2  0
  2  3  1  0
  3  4  2  0
  4  5  1  0
  5  6  2  0
  6  7  1  0
  8  7  2  0
  9  8  1  0
 10  9  2  0
 10  5  1  0
 11 12  2  0
 11 16  1  0
 12 13  1  0
 13 17  1  0
 13 14  2  0
 14 15  1  0
 15  1  1  0
 16 15  2  0
 17 21  1  0
 18 19  2  0
 18 17  1  0
 19 20  1  0
 20 21  2  0
 20 22  1  0
 22 23  2  0
  2 24  1  0
  3 25  1  0
  4 26  1  0
  6 27  1  0
  7 28  1  0
  8 29  1  0
  9 30  1  0
 11 31  1  0
 12 32  1  0
 18 33  1  0
 22 34  1  0
M  ISO  8  24  14  25  14  26  14  27  14  28  14  29  14  30  14  31  14
M  ISO  3  32  14  33  14  34   6
M  END
>  <minimizedAffinity>  (1) 
-5.78620434

>  <minimizedRMSD>  (1) 
1.40252745

$$$$
