
     RDKit          3D

 54 57  0  0  1  0  0  0  0  0999 V2000
   37.4630   24.6920   36.4560 N   0  0  0  0  0  0  0  0  0  0  0  0
   38.1750   23.6690   37.2380 C   0  0  0  0  0  0  0  0  0  0  0  0
   38.8110   22.7060   36.2580 C   0  0  0  0  0  0  0  0  0  0  0  0
   38.3920   23.2960   34.9210 C   0  0  0  0  0  0  0  0  0  0  0  0
   38.2830   24.7400   35.2470 C   0  0  1  0  0  0  0  0  0  0  0  0
   36.6650   27.1630   33.1450 C   0  0  0  0  0  0  0  0  0  0  0  0
   36.9130   26.1600   32.1880 C   0  0  0  0  0  0  0  0  0  0  0  0
   37.5490   25.1600   32.9210 C   0  0  0  0  0  0  0  0  0  0  0  0
   37.6760   25.5260   34.2150 N   0  0  0  0  0  0  0  0  0  0  0  0
   37.1350   26.7340   34.3110 N   0  0  0  0  0  0  0  0  0  0  0  0
   35.5030   29.2050   33.8710 C   0  0  0  0  0  0  0  0  0  0  0  0
   36.0160   28.4120   32.8590 C   0  0  0  0  0  0  0  0  0  0  0  0
   35.9100   28.8140   31.5250 C   0  0  0  0  0  0  0  0  0  0  0  0
   35.2810   30.0150   31.2930 N   0  0  0  0  0  0  0  0  0  0  0  0
   34.7870   30.7730   32.3120 C   0  0  0  0  0  0  0  0  0  0  0  0
   34.9030   30.3640   33.5840 N   0  0  0  0  0  0  0  0  0  0  0  0
   34.1160   32.0740   31.9560 C   0  0  0  0  0  0  0  0  0  0  0  0
   39.6450   25.3310   35.5300 C   0  0  2  0  0  0  0  0  0  0  0  0
   39.6560   26.8230   35.3770 C   0  0  0  0  0  0  0  0  0  0  0  0
   40.6220   24.7540   34.5480 C   0  0  0  0  0  0  0  0  0  0  0  0
   44.5710   24.4740   36.2650 C   0  0  0  0  0  0  0  0  0  0  0  0
   44.2590   25.4910   35.4190 C   0  0  0  0  0  0  0  0  0  0  0  0
   42.9920   25.5630   34.8800 C   0  0  0  0  0  0  0  0  0  0  0  0
   41.9980   24.6450   35.1540 C   0  0  0  0  0  0  0  0  0  0  0  0
   42.3570   23.6290   36.0170 C   0  0  0  0  0  0  0  0  0  0  0  0
   43.6190   23.5400   36.5670 C   0  0  0  0  0  0  0  0  0  0  0  0
   46.1900   24.3970   36.9430 S   0  0  0  0  0  0  0  0  0  0  0  0
   46.8630   23.1110   36.6010 O   0  0  0  0  0  0  0  0  0  0  0  0
   46.9410   25.6020   36.4560 O   0  0  0  0  0  0  0  0  0  0  0  0
   36.4968   24.4033   36.2464 H   0  0  0  0  0  0  0  0  0  0  0  0
   38.9516   24.1425   37.8566 H   0  0  0  0  0  0  0  0  0  0  0  0
   37.4797   23.1388   37.9054 H   0  0  0  0  0  0  0  0  0  0  0  0
   39.9058   22.6925   36.3638 H   0  0  0  0  0  0  0  0  0  0  0  0
   38.5013   21.6599   36.3986 H   0  0  0  0  0  0  0  0  0  0  0  0
   37.4270   22.8868   34.5874 H   0  0  0  0  0  0  0  0  0  0  0  0
   39.0893   23.0763   34.0991 H   0  0  0  0  0  0  0  0  0  0  0  0
   36.6639   26.1648   31.1166 H   0  0  0  0  0  0  0  0  0  0  0  0
   37.8993   24.2045   32.5035 H   0  0  0  0  0  0  0  0  0  0  0  0
   35.5898   28.8790   34.9180 H   0  0  0  0  0  0  0  0  0  0  0  0
   36.3090   28.2017   30.7029 H   0  0  0  0  0  0  0  0  0  0  0  0
   33.8404   32.6085   32.8771 H   0  0  0  0  0  0  0  0  0  0  0  0
   34.8071   32.6934   31.3655 H   0  0  0  0  0  0  0  0  0  0  0  0
   33.2106   31.8701   31.3655 H   0  0  0  0  0  0  0  0  0  0  0  0
   39.9123   25.0896   36.5693 H   0  0  0  0  0  0  0  0  0  0  0  0
   39.6595   27.2935   36.3713 H   0  0  0  0  0  0  0  0  0  0  0  0
   40.5564   27.1282   34.8238 H   0  0  0  0  0  0  0  0  0  0  0  0
   38.7602   27.1415   34.8238 H   0  0  0  0  0  0  0  0  0  0  0  0
   40.6695   25.4056   33.6630 H   0  0  0  0  0  0  0  0  0  0  0  0
   40.2823   23.7461   34.2674 H   0  0  0  0  0  0  0  0  0  0  0  0
   45.0123   26.2516   35.1660 H   0  0  0  0  0  0  0  0  0  0  0  0
   42.7615   26.3940   34.1971 H   0  0  0  0  0  0  0  0  0  0  0  0
   41.6105   22.8635   36.2752 H   0  0  0  0  0  0  0  0  0  0  0  0
   43.8606   22.7137   37.2518 H   0  0  0  0  0  0  0  0  0  0  0  0
   46.1461   24.4200   38.3121 H   0  0  0  0  0  0  0  0  0  0  0  0
  1  2  1  0
  3  2  1  0
  4  5  1  0
  4  3  1  0
  5 18  1  0
  5  1  1  0
  6 10  2  0
  7  8  2  0
  7  6  1  0
  8  9  1  0
  9 10  1  0
  5  9  1  6
 12  6  1  0
 12 11  2  0
 13 12  1  0
 14 13  2  0
 14 15  1  0
 15 16  2  0
 16 11  1  0
 17 15  1  0
 19 18  1  0
 20 24  1  0
 20 18  1  0
 21 26  2  0
 21 27  1  0
 22 21  1  0
 23 24  1  0
 23 22  2  0
 24 25  2  0
 25 26  1  0
 28 27  2  0
 29 27  2  0
  1 30  1  0
  2 31  1  0
  2 32  1  0
  3 33  1  0
  3 34  1  0
  4 35  1  0
  4 36  1  0
  7 37  1  0
  8 38  1  0
 11 39  1  0
 13 40  1  0
 17 41  1  0
 17 42  1  0
 17 43  1  0
 18 44  1  1
 19 45  1  0
 19 46  1  0
 19 47  1  0
 20 48  1  0
 20 49  1  0
 22 50  1  0
 23 51  1  0
 25 52  1  0
 26 53  1  0
 27 54  1  0
M  ISO  8  30   5  31  13  32  13  33  13  34  13  35  13  36  13  37  14
M  ISO  8  38  14  39  14  40  14  41   8  42   8  43   8  44   8  45   8
M  ISO  8  46   8  47   8  48   8  49   8  50  14  51  14  52  14  53  14
M  ISO  1  54  11
M  END
>  <minimizedAffinity>  (1) 
-5.48579216

>  <minimizedRMSD>  (1) 
5.25605011

$$$$
