
     RDKit          3D

 55 59  0  0  1  0  0  0  0  0999 V2000
   37.5090   24.7470   36.3390 N   0  0  0  0  0  0  0  0  0  0  0  0
   38.2660   23.7180   37.0620 C   0  0  0  0  0  0  0  0  0  0  0  0
   38.8260   22.7840   36.0110 C   0  0  0  0  0  0  0  0  0  0  0  0
   38.3720   23.3940   34.7090 C   0  0  0  0  0  0  0  0  0  0  0  0
   38.2460   24.8250   35.0810 C   0  0  1  0  0  0  0  0  0  0  0  0
   36.5450   27.3270   33.1400 C   0  0  0  0  0  0  0  0  0  0  0  0
   36.6130   26.2900   32.1800 C   0  0  0  0  0  0  0  0  0  0  0  0
   37.2680   25.2610   32.8570 C   0  0  0  0  0  0  0  0  0  0  0  0
   37.5700   25.6480   34.1200 N   0  0  0  0  0  0  0  0  0  0  0  0
   37.1240   26.8980   34.2670 N   0  0  0  0  0  0  0  0  0  0  0  0
   35.5540   29.4190   33.9740 C   0  0  0  0  0  0  0  0  0  0  0  0
   35.9460   28.6100   32.9000 C   0  0  0  0  0  0  0  0  0  0  0  0
   35.7650   29.0270   31.5910 C   0  0  0  0  0  0  0  0  0  0  0  0
   35.1860   30.2620   31.4260 N   0  0  0  0  0  0  0  0  0  0  0  0
   34.8090   31.0370   32.4750 C   0  0  0  0  0  0  0  0  0  0  0  0
   34.9960   30.6110   33.7280 N   0  0  0  0  0  0  0  0  0  0  0  0
   34.1820   32.3690   32.1530 C   0  0  0  0  0  0  0  0  0  0  0  0
   39.6140   25.4340   35.3040 C   0  0  2  0  0  0  0  0  0  0  0  0
   39.5540   26.9290   35.5240 C   0  0  0  0  0  0  0  0  0  0  0  0
   40.4370   25.2160   34.0750 C   0  0  0  0  0  0  0  0  0  0  0  0
   41.8760   25.6260   34.2510 C   0  0  0  0  0  0  0  0  0  0  0  0
   42.5690   25.0230   35.2610 N   0  0  0  0  0  0  0  0  0  0  0  0
   43.8630   25.2690   35.5160 C   0  0  0  0  0  0  0  0  0  0  0  0
   44.5920   26.1360   34.7950 N   0  0  0  0  0  0  0  0  0  0  0  0
   43.9390   26.7590   33.7770 C   0  0  0  0  0  0  0  0  0  0  0  0
   44.6160   27.6660   32.9970 C   0  0  0  0  0  0  0  0  0  0  0  0
   43.9740   28.3310   31.9490 C   0  0  0  0  0  0  0  0  0  0  0  0
   42.6350   28.0510   31.7170 C   0  0  0  0  0  0  0  0  0  0  0  0
   41.9610   27.1410   32.5010 C   0  0  0  0  0  0  0  0  0  0  0  0
   42.6130   26.4990   33.5260 C   0  0  0  0  0  0  0  0  0  0  0  0
   36.5328   24.4568   36.1852 H   0  0  0  0  0  0  0  0  0  0  0  0
   39.0833   24.1793   37.6357 H   0  0  0  0  0  0  0  0  0  0  0  0
   37.6257   23.1785   37.7754 H   0  0  0  0  0  0  0  0  0  0  0  0
   39.9241   22.7471   36.0646 H   0  0  0  0  0  0  0  0  0  0  0  0
   38.4826   21.7466   36.1373 H   0  0  0  0  0  0  0  0  0  0  0  0
   37.4073   22.9767   34.3845 H   0  0  0  0  0  0  0  0  0  0  0  0
   39.0527   23.2082   33.8651 H   0  0  0  0  0  0  0  0  0  0  0  0
   36.2385   26.2941   31.1457 H   0  0  0  0  0  0  0  0  0  0  0  0
   37.5053   24.2766   32.4272 H   0  0  0  0  0  0  0  0  0  0  0  0
   35.7031   29.0785   35.0093 H   0  0  0  0  0  0  0  0  0  0  0  0
   36.0670   28.4060   30.7347 H   0  0  0  0  0  0  0  0  0  0  0  0
   33.9351   32.8936   33.0878 H   0  0  0  0  0  0  0  0  0  0  0  0
   34.8892   32.9754   31.5681 H   0  0  0  0  0  0  0  0  0  0  0  0
   33.2640   32.2103   31.5681 H   0  0  0  0  0  0  0  0  0  0  0  0
   40.0404   24.9559   36.1982 H   0  0  0  0  0  0  0  0  0  0  0  0
   39.5455   27.1407   36.6034 H   0  0  0  0  0  0  0  0  0  0  0  0
   40.4338   27.4029   35.0643 H   0  0  0  0  0  0  0  0  0  0  0  0
   38.6390   27.3308   35.0643 H   0  0  0  0  0  0  0  0  0  0  0  0
   40.0027   25.8042   33.2532 H   0  0  0  0  0  0  0  0  0  0  0  0
   40.4258   24.1377   33.8580 H   0  0  0  0  0  0  0  0  0  0  0  0
   44.3465   24.7388   36.3498 H   0  0  0  0  0  0  0  0  0  0  0  0
   45.6774   27.8711   33.2005 H   0  0  0  0  0  0  0  0  0  0  0  0
   44.5156   29.0569   31.3248 H   0  0  0  0  0  0  0  0  0  0  0  0
   42.1062   28.5611   30.8984 H   0  0  0  0  0  0  0  0  0  0  0  0
   40.8995   26.9280   32.3063 H   0  0  0  0  0  0  0  0  0  0  0  0
  1  2  1  0
  3  2  1  0
  4  5  1  0
  4  3  1  0
  5 18  1  0
  5  1  1  0
  6 10  2  0
  7  8  2  0
  7  6  1  0
  8  9  1  0
  9 10  1  0
  5  9  1  6
 12  6  1  0
 12 11  2  0
 13 12  1  0
 14 13  2  0
 14 15  1  0
 15 16  2  0
 16 11  1  0
 17 15  1  0
 18 19  1  0
 20 21  1  0
 20 18  1  0
 21 22  2  0
 22 23  1  0
 24 23  2  0
 25 24  1  0
 26 25  2  0
 27 26  1  0
 28 27  2  0
 28 29  1  0
 29 30  2  0
 30 25  1  0
 30 21  1  0
  1 31  1  0
  2 32  1  0
  2 33  1  0
  3 34  1  0
  3 35  1  0
  4 36  1  0
  4 37  1  0
  7 38  1  0
  8 39  1  0
 11 40  1  0
 13 41  1  0
 17 42  1  0
 17 43  1  0
 17 44  1  0
 18 45  1  1
 19 46  1  0
 19 47  1  0
 19 48  1  0
 20 49  1  0
 20 50  1  0
 23 51  1  0
 26 52  1  0
 27 53  1  0
 28 54  1  0
 29 55  1  0
M  ISO  8  31   5  32  13  33  13  34  13  35  13  36  13  37  13  38  14
M  ISO  8  39  14  40  14  41  14  42   8  43   8  44   8  45   8  46   8
M  ISO  8  47   8  48   8  49   8  50   8  51  14  52  14  53  14  54  14
M  ISO  1  55  14
M  END
>  <minimizedAffinity>  (1) 
-5.30574083

>  <minimizedRMSD>  (1) 
4.39582348

$$$$
