
     RDKit          3D

 49 52  0  0  1  0  0  0  0  0999 V2000
   37.6580   24.8510   36.5070 N   0  0  0  0  0  0  0  0  0  0  0  0
   38.3330   23.7950   37.2640 C   0  0  0  0  0  0  0  0  0  0  0  0
   38.7450   22.7140   36.2790 C   0  0  0  0  0  0  0  0  0  0  0  0
   38.2310   23.2860   34.9660 C   0  0  0  0  0  0  0  0  0  0  0  0
   38.3210   24.7380   35.2090 C   0  0  1  0  0  0  0  0  0  0  0  0
   36.6630   27.2140   33.2030 C   0  0  0  0  0  0  0  0  0  0  0  0
   36.8660   26.2180   32.2300 C   0  0  0  0  0  0  0  0  0  0  0  0
   37.5130   25.2020   32.9260 C   0  0  0  0  0  0  0  0  0  0  0  0
   37.6890   25.5500   34.2120 N   0  0  0  0  0  0  0  0  0  0  0  0
   37.1680   26.7720   34.3580 N   0  0  0  0  0  0  0  0  0  0  0  0
   35.6230   29.2990   34.0060 C   0  0  0  0  0  0  0  0  0  0  0  0
   36.0190   28.4760   32.9540 C   0  0  0  0  0  0  0  0  0  0  0  0
   35.7980   28.8630   31.6490 C   0  0  0  0  0  0  0  0  0  0  0  0
   35.1790   30.0770   31.4650 N   0  0  0  0  0  0  0  0  0  0  0  0
   34.7990   30.8690   32.5130 C   0  0  0  0  0  0  0  0  0  0  0  0
   35.0260   30.4680   33.7580 N   0  0  0  0  0  0  0  0  0  0  0  0
   34.1350   32.1660   32.1680 C   0  0  0  0  0  0  0  0  0  0  0  0
   39.7580   25.1880   35.3190 C   0  0  2  0  0  0  0  0  0  0  0  0
   39.9180   26.6830   35.1860 C   0  0  0  0  0  0  0  0  0  0  0  0
   40.5290   24.5740   34.1750 C   0  0  0  0  0  0  0  0  0  0  0  0
   41.9090   24.1550   34.6360 C   0  0  0  0  0  0  0  0  0  0  0  0
   42.9890   24.1210   33.7790 C   0  0  0  0  0  0  0  0  0  0  0  0
   44.2090   23.7150   34.3310 C   0  0  0  0  0  0  0  0  0  0  0  0
   44.3320   23.3760   35.6170 N   0  0  0  0  0  0  0  0  0  0  0  0
   43.2870   23.4110   36.4340 C   0  0  0  0  0  0  0  0  0  0  0  0
   42.1140   23.7980   35.9170 N   0  0  0  0  0  0  0  0  0  0  0  0
   36.6463   24.6731   36.4309 H   0  0  0  0  0  0  0  0  0  0  0  0
   39.2224   24.2035   37.7660 H   0  0  0  0  0  0  0  0  0  0  0  0
   37.6626   23.3820   38.0321 H   0  0  0  0  0  0  0  0  0  0  0  0
   39.8370   22.5832   36.2599 H   0  0  0  0  0  0  0  0  0  0  0  0
   38.3494   21.7158   36.5181 H   0  0  0  0  0  0  0  0  0  0  0  0
   37.1931   22.9763   34.7740 H   0  0  0  0  0  0  0  0  0  0  0  0
   38.7943   22.9478   34.0838 H   0  0  0  0  0  0  0  0  0  0  0  0
   36.5801   26.2380   31.1680 H   0  0  0  0  0  0  0  0  0  0  0  0
   37.8355   24.2472   32.4852 H   0  0  0  0  0  0  0  0  0  0  0  0
   35.8026   28.9850   35.0448 H   0  0  0  0  0  0  0  0  0  0  0  0
   36.1011   28.2334   30.7995 H   0  0  0  0  0  0  0  0  0  0  0  0
   33.8635   32.6963   33.0927 H   0  0  0  0  0  0  0  0  0  0  0  0
   34.8263   32.7865   31.5789 H   0  0  0  0  0  0  0  0  0  0  0  0
   33.2274   31.9680   31.5789 H   0  0  0  0  0  0  0  0  0  0  0  0
   40.1199   24.8794   36.3109 H   0  0  0  0  0  0  0  0  0  0  0  0
   39.9666   27.1370   36.1867 H   0  0  0  0  0  0  0  0  0  0  0  0
   40.8451   26.9052   34.6372 H   0  0  0  0  0  0  0  0  0  0  0  0
   39.0590   27.0963   34.6372 H   0  0  0  0  0  0  0  0  0  0  0  0
   40.6256   25.3120   33.3651 H   0  0  0  0  0  0  0  0  0  0  0  0
   39.9878   23.6870   33.8142 H   0  0  0  0  0  0  0  0  0  0  0  0
   42.8963   24.3981   32.7185 H   0  0  0  0  0  0  0  0  0  0  0  0
   45.0973   23.6736   33.6835 H   0  0  0  0  0  0  0  0  0  0  0  0
   43.3806   23.1331   37.4942 H   0  0  0  0  0  0  0  0  0  0  0  0
  1  2  1  0
  3  2  1  0
  4  5  1  0
  4  3  1  0
  5 18  1  0
  5  1  1  0
  6 10  2  0
  7  8  2  0
  7  6  1  0
  8  9  1  0
  9 10  1  0
  5  9  1  6
 12  6  1  0
 12 11  2  0
 13 12  1  0
 14 13  2  0
 14 15  1  0
 15 16  2  0
 16 11  1  0
 17 15  1  0
 19 18  1  0
 20 21  1  0
 20 18  1  0
 21 26  2  0
 22 23  2  0
 22 21  1  0
 23 24  1  0
 24 25  2  0
 26 25  1  0
  1 27  1  0
  2 28  1  0
  2 29  1  0
  3 30  1  0
  3 31  1  0
  4 32  1  0
  4 33  1  0
  7 34  1  0
  8 35  1  0
 11 36  1  0
 13 37  1  0
 17 38  1  0
 17 39  1  0
 17 40  1  0
 18 41  1  1
 19 42  1  0
 19 43  1  0
 19 44  1  0
 20 45  1  0
 20 46  1  0
 22 47  1  0
 23 48  1  0
 25 49  1  0
M  ISO  8  27   5  28  13  29  13  30  13  31  13  32  13  33  13  34  14
M  ISO  8  35  14  36  14  37  14  38   8  39   8  40   8  41   8  42   8
M  ISO  7  43   8  44   8  45   8  46   8  47  14  48  14  49  14
M  END
>  <minimizedAffinity>  (1) 
-4.83051205

>  <minimizedRMSD>  (1) 
4.8837204

$$$$
