
     RDKit          3D

 54 57  0  0  1  0  0  0  0  0999 V2000
   39.7970   23.4610   36.4790 N   0  0  0  0  0  0  0  0  0  0  0  0
   40.5810   22.6780   37.4370 C   0  0  0  0  0  0  0  0  0  0  0  0
   41.4360   21.7070   36.6370 C   0  0  0  0  0  0  0  0  0  0  0  0
   41.0310   22.0310   35.2030 C   0  0  0  0  0  0  0  0  0  0  0  0
   40.6730   23.4680   35.3120 C   0  0  1  0  0  0  0  0  0  0  0  0
   38.8800   25.3080   32.7990 C   0  0  0  0  0  0  0  0  0  0  0  0
   39.3010   24.2210   32.0350 C   0  0  0  0  0  0  0  0  0  0  0  0
   40.0160   23.4340   32.9320 C   0  0  0  0  0  0  0  0  0  0  0  0
   40.0290   24.0020   34.1500 N   0  0  0  0  0  0  0  0  0  0  0  0
   39.3350   25.1340   34.0440 N   0  0  0  0  0  0  0  0  0  0  0  0
   36.7430   26.5260   32.6460 C   0  0  0  0  0  0  0  0  0  0  0  0
   38.0940   26.4130   32.3080 C   0  0  0  0  0  0  0  0  0  0  0  0
   38.7050   27.3610   31.4940 C   0  0  0  0  0  0  0  0  0  0  0  0
   37.8830   28.3880   31.0660 N   0  0  0  0  0  0  0  0  0  0  0  0
   36.5710   28.4790   31.4060 C   0  0  0  0  0  0  0  0  0  0  0  0
   36.0180   27.5530   32.1880 N   0  0  0  0  0  0  0  0  0  0  0  0
   35.8380   29.6570   30.8530 C   0  0  0  0  0  0  0  0  0  0  0  0
   41.9010   24.3040   35.5790 C   0  0  2  0  0  0  0  0  0  0  0  0
   41.7840   25.7000   35.0110 C   0  0  0  0  0  0  0  0  0  0  0  0
   43.0760   23.6570   34.9090 C   0  0  0  0  0  0  0  0  0  0  0  0
   44.3780   24.1000   35.5400 C   0  0  0  0  0  0  0  0  0  0  0  0
   44.2050   24.4450   37.0040 C   0  0  0  0  0  0  0  0  0  0  0  0
   45.6810   24.6290   37.3750 C   0  0  0  0  0  0  0  0  0  0  0  0
   46.4240   23.5930   36.5290 C   0  0  0  0  0  0  0  0  0  0  0  0
   45.3480   22.9590   35.6380 C   0  0  0  0  0  0  0  0  0  0  0  0
   38.8971   23.0057   36.2698 H   0  0  0  0  0  0  0  0  0  0  0  0
   41.2240   23.3444   38.0307 H   0  0  0  0  0  0  0  0  0  0  0  0
   39.9202   22.1354   38.1290 H   0  0  0  0  0  0  0  0  0  0  0  0
   42.5081   21.8910   36.8003 H   0  0  0  0  0  0  0  0  0  0  0  0
   41.2838   20.6530   36.9124 H   0  0  0  0  0  0  0  0  0  0  0  0
   40.1701   21.4259   34.8825 H   0  0  0  0  0  0  0  0  0  0  0  0
   41.8125   21.8195   34.4583 H   0  0  0  0  0  0  0  0  0  0  0  0
   39.1116   24.0295   30.9685 H   0  0  0  0  0  0  0  0  0  0  0  0
   40.5026   22.4803   32.6797 H   0  0  0  0  0  0  0  0  0  0  0  0
   36.2739   25.7682   33.2907 H   0  0  0  0  0  0  0  0  0  0  0  0
   39.7661   27.2985   31.2108 H   0  0  0  0  0  0  0  0  0  0  0  0
   35.4552   30.2722   31.6806 H   0  0  0  0  0  0  0  0  0  0  0  0
   36.5221   30.2577   30.2355 H   0  0  0  0  0  0  0  0  0  0  0  0
   34.9969   29.3087   30.2355 H   0  0  0  0  0  0  0  0  0  0  0  0
   42.0182   24.3716   36.6706 H   0  0  0  0  0  0  0  0  0  0  0  0
   41.7231   26.4269   35.8343 H   0  0  0  0  0  0  0  0  0  0  0  0
   42.6669   25.9195   34.3927 H   0  0  0  0  0  0  0  0  0  0  0  0
   40.8769   25.7694   34.3927 H   0  0  0  0  0  0  0  0  0  0  0  0
   43.0802   23.9351   33.8448 H   0  0  0  0  0  0  0  0  0  0  0  0
   42.9861   22.5668   35.0246 H   0  0  0  0  0  0  0  0  0  0  0  0
   44.7124   24.9401   34.9136 H   0  0  0  0  0  0  0  0  0  0  0  0
   43.6246   25.3686   37.1456 H   0  0  0  0  0  0  0  0  0  0  0  0
   43.6516   23.7080   37.6045 H   0  0  0  0  0  0  0  0  0  0  0  0
   46.0194   25.6463   37.1287 H   0  0  0  0  0  0  0  0  0  0  0  0
   45.8603   24.4941   38.4519 H   0  0  0  0  0  0  0  0  0  0  0  0
   47.1970   24.0783   35.9151 H   0  0  0  0  0  0  0  0  0  0  0  0
   46.9377   22.8449   37.1507 H   0  0  0  0  0  0  0  0  0  0  0  0
   44.8932   22.0773   36.1132 H   0  0  0  0  0  0  0  0  0  0  0  0
   45.7134   22.5798   34.6722 H   0  0  0  0  0  0  0  0  0  0  0  0
  1  2  1  0
  3  2  1  0
  4  5  1  0
  4  3  1  0
  5 18  1  0
  5  1  1  0
  6 10  2  0
  7  6  1  0
  7  8  2  0
  8  9  1  0
  5  9  1  6
 10  9  1  0
 12 11  2  0
 12  6  1  0
 13 12  1  0
 14 15  1  0
 14 13  2  0
 15 16  2  0
 16 11  1  0
 17 15  1  0
 19 18  1  0
 20 21  1  0
 20 18  1  0
 21 25  1  0
 21 22  1  0
 22 23  1  0
 24 23  1  0
 25 24  1  0
  1 26  1  0
  2 27  1  0
  2 28  1  0
  3 29  1  0
  3 30  1  0
  4 31  1  0
  4 32  1  0
  7 33  1  0
  8 34  1  0
 11 35  1  0
 13 36  1  0
 17 37  1  0
 17 38  1  0
 17 39  1  0
 18 40  1  1
 19 41  1  0
 19 42  1  0
 19 43  1  0
 20 44  1  0
 20 45  1  0
 21 46  1  0
 22 47  1  0
 22 48  1  0
 23 49  1  0
 23 50  1  0
 24 51  1  0
 24 52  1  0
 25 53  1  0
 25 54  1  0
M  ISO  8  26   5  27  13  28  13  29  13  30  13  31  13  32  13  33  14
M  ISO  8  34  14  35  14  36  14  37   8  38   8  39   8  40   8  41   8
M  ISO  8  42   8  43   8  44   8  45   8  46  13  47  13  48  13  49  13
M  ISO  5  50  13  51  13  52  13  53  13  54  13
M  END
>  <minimizedAffinity>  (1) 
-4.58785295

>  <minimizedRMSD>  (1) 
3.04121017

$$$$
