
     RDKit          3D

 48 51  0  0  1  0  0  0  0  0999 V2000
   40.3850   21.9600   36.6000 N   0  0  0  0  0  0  0  0  0  0  0  0
   41.3970   21.6450   37.6070 C   0  0  0  0  0  0  0  0  0  0  0  0
   42.5960   21.0670   36.8780 C   0  0  0  0  0  0  0  0  0  0  0  0
   42.1530   21.1240   35.4260 C   0  0  0  0  0  0  0  0  0  0  0  0
   41.2040   22.2700   35.4400 C   0  0  1  0  0  0  0  0  0  0  0  0
   38.8700   23.0200   32.8310 C   0  0  0  0  0  0  0  0  0  0  0  0
   39.7790   22.2160   32.1070 C   0  0  0  0  0  0  0  0  0  0  0  0
   40.7310   21.8770   33.0590 C   0  0  0  0  0  0  0  0  0  0  0  0
   40.4330   22.4200   34.2480 N   0  0  0  0  0  0  0  0  0  0  0  0
   39.3110   23.1010   34.0830 N   0  0  0  0  0  0  0  0  0  0  0  0
   36.7770   22.8430   31.5350 C   0  0  0  0  0  0  0  0  0  0  0  0
   37.6870   23.6230   32.2650 C   0  0  0  0  0  0  0  0  0  0  0  0
   37.4740   24.9900   32.4610 C   0  0  0  0  0  0  0  0  0  0  0  0
   36.3280   25.4880   31.8930 N   0  0  0  0  0  0  0  0  0  0  0  0
   35.4510   24.7330   31.1880 C   0  0  0  0  0  0  0  0  0  0  0  0
   35.6960   23.4430   31.0290 N   0  0  0  0  0  0  0  0  0  0  0  0
   34.2420   25.4150   30.6250 C   0  0  0  0  0  0  0  0  0  0  0  0
   41.9750   23.5680   35.6610 C   0  0  2  0  0  0  0  0  0  0  0  0
   41.1530   24.7810   35.3070 C   0  0  0  0  0  0  0  0  0  0  0  0
   43.1710   23.5530   34.7580 C   0  0  0  0  0  0  0  0  0  0  0  0
   44.2330   24.3840   35.5490 C   0  0  0  0  0  0  0  0  0  0  0  0
   44.3500   24.2300   36.9240 C   0  0  0  0  0  0  0  0  0  0  0  0
   45.2950   25.0150   37.4510 C   0  0  0  0  0  0  0  0  0  0  0  0
   46.1100   25.9010   36.8110 C   0  0  0  0  0  0  0  0  0  0  0  0
   45.3710   25.5450   35.0650 S   0  0  0  0  0  0  0  0  0  0  0  0
   39.7710   21.1527   36.4204 H   0  0  0  0  0  0  0  0  0  0  0  0
   41.6888   22.5586   38.1458 H   0  0  0  0  0  0  0  0  0  0  0  0
   41.0045   20.9261   38.3413 H   0  0  0  0  0  0  0  0  0  0  0  0
   43.4954   21.6782   37.0440 H   0  0  0  0  0  0  0  0  0  0  0  0
   42.8700   20.0563   37.2147 H   0  0  0  0  0  0  0  0  0  0  0  0
   41.6515   20.1928   35.1238 H   0  0  0  0  0  0  0  0  0  0  0  0
   42.9819   21.2417   34.7125 H   0  0  0  0  0  0  0  0  0  0  0  0
   39.7414   21.9284   31.0459 H   0  0  0  0  0  0  0  0  0  0  0  0
   41.6116   21.2474   32.8639 H   0  0  0  0  0  0  0  0  0  0  0  0
   36.9491   21.7671   31.3836 H   0  0  0  0  0  0  0  0  0  0  0  0
   38.1736   25.6209   33.0290 H   0  0  0  0  0  0  0  0  0  0  0  0
   33.6066   25.7735   31.4482 H   0  0  0  0  0  0  0  0  0  0  0  0
   34.5571   26.2685   30.0067 H   0  0  0  0  0  0  0  0  0  0  0  0
   33.6745   24.7039   30.0067 H   0  0  0  0  0  0  0  0  0  0  0  0
   42.2485   23.6287   36.7247 H   0  0  0  0  0  0  0  0  0  0  0  0
   40.8164   25.2777   36.2290 H   0  0  0  0  0  0  0  0  0  0  0  0
   41.7649   25.4791   34.7168 H   0  0  0  0  0  0  0  0  0  0  0  0
   40.2779   24.4714   34.7168 H   0  0  0  0  0  0  0  0  0  0  0  0
   42.9408   24.0262   33.7921 H   0  0  0  0  0  0  0  0  0  0  0  0
   43.5142   22.5361   34.5169 H   0  0  0  0  0  0  0  0  0  0  0  0
   43.7325   23.5377   37.5151 H   0  0  0  0  0  0  0  0  0  0  0  0
   45.4326   24.9361   38.5395 H   0  0  0  0  0  0  0  0  0  0  0  0
   46.9037   26.5762   37.1635 H   0  0  0  0  0  0  0  0  0  0  0  0
  1  2  1  0
  3  2  1  0
  4  5  1  0
  4  3  1  0
  5 18  1  0
  5  1  1  0
  6 10  2  0
  7  6  1  0
  7  8  2  0
  8  9  1  0
  5  9  1  6
 10  9  1  0
 11 12  2  0
 12 13  1  0
 12  6  1  0
 14 13  2  0
 15 14  1  0
 16 15  2  0
 16 11  1  0
 17 15  1  0
 19 18  1  0
 20 21  1  0
 20 18  1  0
 21 22  2  0
 22 23  1  0
 24 23  2  0
 25 21  1  0
 25 24  1  0
  1 26  1  0
  2 27  1  0
  2 28  1  0
  3 29  1  0
  3 30  1  0
  4 31  1  0
  4 32  1  0
  7 33  1  0
  8 34  1  0
 11 35  1  0
 13 36  1  0
 17 37  1  0
 17 38  1  0
 17 39  1  0
 18 40  1  1
 19 41  1  0
 19 42  1  0
 19 43  1  0
 20 44  1  0
 20 45  1  0
 22 46  1  0
 23 47  1  0
 24 48  1  0
M  ISO  8  26   5  27  13  28  13  29  13  30  13  31  13  32  13  33  14
M  ISO  8  34  14  35  14  36  14  37   8  38   8  39   8  40   8  41   8
M  ISO  7  42   8  43   8  44   8  45   8  46  14  47  14  48  14
M  END
>  <minimizedAffinity>  (1) 
-4.51340103

>  <minimizedRMSD>  (1) 
2.34750199

$$$$
