
     RDKit          3D

 51 54  0  0  1  0  0  0  0  0999 V2000
   39.8380   23.5100   36.4730 N   0  0  0  0  0  0  0  0  0  0  0  0
   40.6210   22.6840   37.4160 C   0  0  0  0  0  0  0  0  0  0  0  0
   41.3230   21.6180   36.6030 C   0  0  0  0  0  0  0  0  0  0  0  0
   40.8860   21.9510   35.1880 C   0  0  0  0  0  0  0  0  0  0  0  0
   40.6660   23.4220   35.2710 C   0  0  1  0  0  0  0  0  0  0  0  0
   38.8740   25.3270   32.8180 C   0  0  0  0  0  0  0  0  0  0  0  0
   39.2600   24.2390   32.0230 C   0  0  0  0  0  0  0  0  0  0  0  0
   39.9740   23.4230   32.8960 C   0  0  0  0  0  0  0  0  0  0  0  0
   40.0160   23.9770   34.1260 N   0  0  0  0  0  0  0  0  0  0  0  0
   39.3460   25.1200   34.0430 N   0  0  0  0  0  0  0  0  0  0  0  0
   36.8160   26.6730   32.7890 C   0  0  0  0  0  0  0  0  0  0  0  0
   38.1070   26.4440   32.3420 C   0  0  0  0  0  0  0  0  0  0  0  0
   38.6900   27.3060   31.4100 C   0  0  0  0  0  0  0  0  0  0  0  0
   37.9270   28.3590   30.9810 N   0  0  0  0  0  0  0  0  0  0  0  0
   36.6490   28.5570   31.4440 C   0  0  0  0  0  0  0  0  0  0  0  0
   36.1180   27.7190   32.3330 N   0  0  0  0  0  0  0  0  0  0  0  0
   35.9140   29.7520   30.8910 C   0  0  0  0  0  0  0  0  0  0  0  0
   41.9840   24.1420   35.4490 C   0  0  2  0  0  0  0  0  0  0  0  0
   41.8670   25.6080   35.1290 C   0  0  0  0  0  0  0  0  0  0  0  0
   42.9920   23.5290   34.5250 C   0  0  0  0  0  0  0  0  0  0  0  0
   44.2550   23.2660   35.1830 N   0  0  0  0  0  0  0  0  0  0  0  0
   44.9000   24.3200   35.7680 C   0  0  0  0  0  0  0  0  0  0  0  0
   46.1110   24.2690   36.4250 C   0  0  0  0  0  0  0  0  0  0  0  0
   46.7390   23.0430   36.5050 C   0  0  0  0  0  0  0  0  0  0  0  0
   47.8360   22.9690   37.0940 O   0  0  0  0  0  0  0  0  0  0  0  0
   46.1000   22.0100   35.9280 N   0  0  0  0  0  0  0  0  0  0  0  0
   44.9180   22.1090   35.2980 C   0  0  0  0  0  0  0  0  0  0  0  0
   44.3910   21.0910   34.7880 O   0  0  0  0  0  0  0  0  0  0  0  0
   38.8992   23.1168   36.3152 H   0  0  0  0  0  0  0  0  0  0  0  0
   41.3613   23.3079   37.9382 H   0  0  0  0  0  0  0  0  0  0  0  0
   39.9652   22.2286   38.1727 H   0  0  0  0  0  0  0  0  0  0  0  0
   42.4154   21.6901   36.7100 H   0  0  0  0  0  0  0  0  0  0  0  0
   41.0728   20.5923   36.9116 H   0  0  0  0  0  0  0  0  0  0  0  0
   39.9590   21.4225   34.9210 H   0  0  0  0  0  0  0  0  0  0  0  0
   41.6125   21.6536   34.4174 H   0  0  0  0  0  0  0  0  0  0  0  0
   39.0480   24.0694   30.9570 H   0  0  0  0  0  0  0  0  0  0  0  0
   40.4377   22.4638   32.6225 H   0  0  0  0  0  0  0  0  0  0  0  0
   36.3623   25.9908   33.5231 H   0  0  0  0  0  0  0  0  0  0  0  0
   39.7130   27.1465   31.0385 H   0  0  0  0  0  0  0  0  0  0  0  0
   35.5360   30.3665   31.7214 H   0  0  0  0  0  0  0  0  0  0  0  0
   36.5999   30.3511   30.2741 H   0  0  0  0  0  0  0  0  0  0  0  0
   35.0699   29.4101   30.2741 H   0  0  0  0  0  0  0  0  0  0  0  0
   42.2912   24.0433   36.5006 H   0  0  0  0  0  0  0  0  0  0  0  0
   41.8210   26.1849   36.0644 H   0  0  0  0  0  0  0  0  0  0  0  0
   42.7426   25.9267   34.5444 H   0  0  0  0  0  0  0  0  0  0  0  0
   40.9520   25.7838   34.5444 H   0  0  0  0  0  0  0  0  0  0  0  0
   43.1675   24.2184   33.6860 H   0  0  0  0  0  0  0  0  0  0  0  0
   42.5876   22.5668   34.1778 H   0  0  0  0  0  0  0  0  0  0  0  0
   44.4062   25.3012   35.7089 H   0  0  0  0  0  0  0  0  0  0  0  0
   46.5591   25.1706   36.8682 H   0  0  0  0  0  0  0  0  0  0  0  0
   46.5460   21.0826   35.9721 H   0  0  0  0  0  0  0  0  0  0  0  0
  1  2  1  0
  3  2  1  0
  4  5  1  0
  4  3  1  0
  5 18  1  0
  5  1  1  0
  6 10  2  0
  7  6  1  0
  7  8  2  0
  8  9  1  0
  5  9  1  6
 10  9  1  0
 12 11  2  0
 12  6  1  0
 13 12  1  0
 14 13  2  0
 14 15  1  0
 15 16  2  0
 16 11  1  0
 17 15  1  0
 19 18  1  0
 20 21  1  0
 20 18  1  0
 21 27  1  0
 21 22  1  0
 22 23  2  0
 23 24  1  0
 24 25  2  0
 26 24  1  0
 27 26  1  0
 28 27  2  0
  1 29  1  0
  2 30  1  0
  2 31  1  0
  3 32  1  0
  3 33  1  0
  4 34  1  0
  4 35  1  0
  7 36  1  0
  8 37  1  0
 11 38  1  0
 13 39  1  0
 17 40  1  0
 17 41  1  0
 17 42  1  0
 18 43  1  1
 19 44  1  0
 19 45  1  0
 19 46  1  0
 20 47  1  0
 20 48  1  0
 22 49  1  0
 23 50  1  0
 26 51  1  0
M  ISO  8  29   5  30  13  31  13  32  13  33  13  34  13  35  13  36  14
M  ISO  8  37  14  38  14  39  14  40   8  41   8  42   8  43   8  44   8
M  ISO  7  45   8  46   8  47   8  48   8  49  14  50  14  51   9
M  END
>  <minimizedAffinity>  (1) 
-4.31463194

>  <minimizedRMSD>  (1) 
4.06676292

$$$$
