
     RDKit          3D

 49 52  0  0  1  0  0  0  0  0999 V2000
   39.8290   23.5090   36.4780 N   0  0  0  0  0  0  0  0  0  0  0  0
   40.5900   22.6640   37.4030 C   0  0  0  0  0  0  0  0  0  0  0  0
   41.3520   21.6480   36.5800 C   0  0  0  0  0  0  0  0  0  0  0  0
   40.9280   22.0030   35.1580 C   0  0  0  0  0  0  0  0  0  0  0  0
   40.6680   23.4600   35.2830 C   0  0  1  0  0  0  0  0  0  0  0  0
   38.8710   25.4060   32.8620 C   0  0  0  0  0  0  0  0  0  0  0  0
   39.3020   24.3410   32.0370 C   0  0  0  0  0  0  0  0  0  0  0  0
   40.0190   23.5210   32.9010 C   0  0  0  0  0  0  0  0  0  0  0  0
   40.0220   24.0450   34.1460 N   0  0  0  0  0  0  0  0  0  0  0  0
   39.3270   25.1720   34.0880 N   0  0  0  0  0  0  0  0  0  0  0  0
   36.8820   26.8440   33.0140 C   0  0  0  0  0  0  0  0  0  0  0  0
   38.0820   26.5160   32.4040 C   0  0  0  0  0  0  0  0  0  0  0  0
   38.5520   27.2630   31.3220 C   0  0  0  0  0  0  0  0  0  0  0  0
   37.7590   28.3140   30.9210 N   0  0  0  0  0  0  0  0  0  0  0  0
   36.5900   28.6100   31.5370 C   0  0  0  0  0  0  0  0  0  0  0  0
   36.1600   27.8810   32.5710 N   0  0  0  0  0  0  0  0  0  0  0  0
   35.7850   29.7740   31.0300 C   0  0  0  0  0  0  0  0  0  0  0  0
   41.9570   24.2120   35.5150 C   0  0  2  0  0  0  0  0  0  0  0  0
   41.8700   25.6580   35.0890 C   0  0  0  0  0  0  0  0  0  0  0  0
   43.0360   23.5720   34.6860 C   0  0  0  0  0  0  0  0  0  0  0  0
   44.3860   24.0870   35.1130 C   0  0  0  0  0  0  0  0  0  0  0  0
   44.6330   23.8770   36.4660 C   0  0  0  0  0  0  0  0  0  0  0  0
   45.8180   24.2890   37.0040 C   0  0  0  0  0  0  0  0  0  0  0  0
   46.7360   24.8950   36.2190 N   0  0  0  0  0  0  0  0  0  0  0  0
   46.4670   25.0860   34.9050 C   0  0  0  0  0  0  0  0  0  0  0  0
   45.3140   24.6930   34.3510 N   0  0  0  0  0  0  0  0  0  0  0  0
   38.8926   23.1202   36.2967 H   0  0  0  0  0  0  0  0  0  0  0  0
   41.2937   23.2811   37.9810 H   0  0  0  0  0  0  0  0  0  0  0  0
   39.9131   22.1584   38.1074 H   0  0  0  0  0  0  0  0  0  0  0  0
   42.4381   21.7610   36.7124 H   0  0  0  0  0  0  0  0  0  0  0  0
   41.1386   20.6051   36.8574 H   0  0  0  0  0  0  0  0  0  0  0  0
   40.0207   21.4567   34.8608 H   0  0  0  0  0  0  0  0  0  0  0  0
   41.6715   21.7438   34.3898 H   0  0  0  0  0  0  0  0  0  0  0  0
   39.1139   24.1955   30.9630 H   0  0  0  0  0  0  0  0  0  0  0  0
   40.5125   22.5813   32.6124 H   0  0  0  0  0  0  0  0  0  0  0  0
   36.5207   26.2497   33.8662 H   0  0  0  0  0  0  0  0  0  0  0  0
   39.5011   27.0253   30.8192 H   0  0  0  0  0  0  0  0  0  0  0  0
   35.3897   30.3456   31.8827 H   0  0  0  0  0  0  0  0  0  0  0  0
   36.4268   30.4249   30.4182 H   0  0  0  0  0  0  0  0  0  0  0  0
   34.9494   29.4032   30.4182 H   0  0  0  0  0  0  0  0  0  0  0  0
   42.1685   24.1747   36.5938 H   0  0  0  0  0  0  0  0  0  0  0  0
   41.8313   26.3012   35.9805 H   0  0  0  0  0  0  0  0  0  0  0  0
   42.7542   25.9170   34.4881 H   0  0  0  0  0  0  0  0  0  0  0  0
   40.9611   25.8092   34.4881 H   0  0  0  0  0  0  0  0  0  0  0  0
   42.8725   23.8137   33.6254 H   0  0  0  0  0  0  0  0  0  0  0  0
   43.0031   22.4818   34.8290 H   0  0  0  0  0  0  0  0  0  0  0  0
   43.8795   23.3830   37.0971 H   0  0  0  0  0  0  0  0  0  0  0  0
   46.0248   24.1283   38.0724 H   0  0  0  0  0  0  0  0  0  0  0  0
   47.2202   25.5798   34.2735 H   0  0  0  0  0  0  0  0  0  0  0  0
  1  2  1  0
  3  2  1  0
  4  5  1  0
  4  3  1  0
  5 18  1  0
  5  1  1  0
  6 10  2  0
  7  6  1  0
  7  8  2  0
  8  9  1  0
  5  9  1  6
 10  9  1  0
 12  6  1  0
 12 11  2  0
 13 12  1  0
 14 13  2  0
 14 15  1  0
 15 16  2  0
 16 11  1  0
 17 15  1  0
 19 18  1  0
 20 21  1  0
 20 18  1  0
 21 22  2  0
 22 23  1  0
 24 23  2  0
 25 24  1  0
 26 25  2  0
 26 21  1  0
  1 27  1  0
  2 28  1  0
  2 29  1  0
  3 30  1  0
  3 31  1  0
  4 32  1  0
  4 33  1  0
  7 34  1  0
  8 35  1  0
 11 36  1  0
 13 37  1  0
 17 38  1  0
 17 39  1  0
 17 40  1  0
 18 41  1  1
 19 42  1  0
 19 43  1  0
 19 44  1  0
 20 45  1  0
 20 46  1  0
 22 47  1  0
 23 48  1  0
 25 49  1  0
M  ISO  8  27   5  28  13  29  13  30  13  31  13  32  13  33  13  34  14
M  ISO  8  35  14  36  14  37  14  38   8  39   8  40   8  41   8  42   8
M  ISO  7  43   8  44   8  45   8  46   8  47  14  48  14  49  14
M  END
>  <minimizedAffinity>  (1) 
-4.29378319

>  <minimizedRMSD>  (1) 
3.10302186

$$$$
