
     RDKit          3D

 48 51  0  0  1  0  0  0  0  0999 V2000
   40.3080   21.6140   36.0780 N   0  0  0  0  0  0  0  0  0  0  0  0
   40.7140   22.1780   37.3720 C   0  0  0  0  0  0  0  0  0  0  0  0
   41.7930   23.2090   37.1020 C   0  0  0  0  0  0  0  0  0  0  0  0
   41.9350   23.1350   35.5840 C   0  0  0  0  0  0  0  0  0  0  0  0
   40.5660   22.7380   35.1800 C   0  0  1  0  0  0  0  0  0  0  0  0
   39.7120   21.4870   31.9220 C   0  0  0  0  0  0  0  0  0  0  0  0
   40.8720   22.1890   31.6010 C   0  0  0  0  0  0  0  0  0  0  0  0
   41.2880   22.7210   32.8210 C   0  0  0  0  0  0  0  0  0  0  0  0
   40.4380   22.3640   33.8020 N   0  0  0  0  0  0  0  0  0  0  0  0
   39.5030   21.6220   33.2280 N   0  0  0  0  0  0  0  0  0  0  0  0
   39.4620   20.2170   29.8230 C   0  0  0  0  0  0  0  0  0  0  0  0
   38.9070   20.7530   30.9780 C   0  0  0  0  0  0  0  0  0  0  0  0
   37.5490   20.5920   31.2470 C   0  0  0  0  0  0  0  0  0  0  0  0
   36.8340   19.8840   30.3070 N   0  0  0  0  0  0  0  0  0  0  0  0
   37.3970   19.3680   29.1850 C   0  0  0  0  0  0  0  0  0  0  0  0
   38.6990   19.5400   28.9570 N   0  0  0  0  0  0  0  0  0  0  0  0
   36.5010   18.6150   28.2430 C   0  0  0  0  0  0  0  0  0  0  0  0
   39.5850   23.8530   35.4420 C   0  0  2  0  0  0  0  0  0  0  0  0
   38.1480   23.3880   35.3940 C   0  0  0  0  0  0  0  0  0  0  0  0
   39.7370   24.8910   34.3670 C   0  0  0  0  0  0  0  0  0  0  0  0
   38.7410   25.9960   34.6740 C   0  0  0  0  0  0  0  0  0  0  0  0
   39.0030   26.9430   35.6560 C   0  0  0  0  0  0  0  0  0  0  0  0
   37.9150   27.8000   35.6910 C   0  0  0  0  0  0  0  0  0  0  0  0
   37.0510   27.3270   34.7270 C   0  0  0  0  0  0  0  0  0  0  0  0
   37.5700   26.2680   34.1520 O   0  0  0  0  0  0  0  0  0  0  0  0
   40.8790   20.7938   35.8287 H   0  0  0  0  0  0  0  0  0  0  0  0
   39.8519   22.6558   37.8605 H   0  0  0  0  0  0  0  0  0  0  0  0
   41.0914   21.3877   38.0376 H   0  0  0  0  0  0  0  0  0  0  0  0
   41.4765   24.2118   37.4248 H   0  0  0  0  0  0  0  0  0  0  0  0
   42.7314   23.0191   37.6436 H   0  0  0  0  0  0  0  0  0  0  0  0
   42.2130   24.1104   35.1581 H   0  0  0  0  0  0  0  0  0  0  0  0
   42.7220   22.4480   35.2395 H   0  0  0  0  0  0  0  0  0  0  0  0
   41.3483   22.2981   30.6155 H   0  0  0  0  0  0  0  0  0  0  0  0
   42.1836   23.3440   32.9618 H   0  0  0  0  0  0  0  0  0  0  0  0
   40.5347   20.3498   29.6191 H   0  0  0  0  0  0  0  0  0  0  0  0
   37.0786   21.0040   32.1520 H   0  0  0  0  0  0  0  0  0  0  0  0
   35.7845   18.0129   28.8210 H   0  0  0  0  0  0  0  0  0  0  0  0
   35.9534   19.3280   27.6091 H   0  0  0  0  0  0  0  0  0  0  0  0
   37.1091   17.9528   27.6091 H   0  0  0  0  0  0  0  0  0  0  0  0
   39.8025   24.2417   36.4478 H   0  0  0  0  0  0  0  0  0  0  0  0
   37.7680   23.2650   36.4189 H   0  0  0  0  0  0  0  0  0  0  0  0
   37.5385   24.1348   34.8641 H   0  0  0  0  0  0  0  0  0  0  0  0
   38.0915   22.4257   34.8641 H   0  0  0  0  0  0  0  0  0  0  0  0
   39.5209   24.4501   33.3827 H   0  0  0  0  0  0  0  0  0  0  0  0
   40.7643   25.2836   34.3423 H   0  0  0  0  0  0  0  0  0  0  0  0
   39.9029   27.0013   36.2859 H   0  0  0  0  0  0  0  0  0  0  0  0
   37.7715   28.6710   36.3473 H   0  0  0  0  0  0  0  0  0  0  0  0
   36.0754   27.7697   34.4778 H   0  0  0  0  0  0  0  0  0  0  0  0
  1  2  1  0
  3  2  1  0
  4  3  1  0
  5 18  1  0
  5  4  1  0
  5  1  1  0
  6 10  2  0
  7  6  1  0
  7  8  2  0
  8  9  1  0
  5  9  1  6
 10  9  1  0
 11 12  2  0
 12 13  1  0
 12  6  1  0
 14 13  2  0
 15 14  1  0
 16 15  2  0
 16 11  1  0
 17 15  1  0
 19 18  1  0
 20 21  1  0
 20 18  1  0
 21 22  2  0
 22 23  1  0
 24 23  2  0
 25 21  1  0
 25 24  1  0
  1 26  1  0
  2 27  1  0
  2 28  1  0
  3 29  1  0
  3 30  1  0
  4 31  1  0
  4 32  1  0
  7 33  1  0
  8 34  1  0
 11 35  1  0
 13 36  1  0
 17 37  1  0
 17 38  1  0
 17 39  1  0
 18 40  1  1
 19 41  1  0
 19 42  1  0
 19 43  1  0
 20 44  1  0
 20 45  1  0
 22 46  1  0
 23 47  1  0
 24 48  1  0
M  ISO  8  26   5  27  13  28  13  29  13  30  13  31  13  32  13  33  14
M  ISO  8  34  14  35  14  36  14  37   8  38   8  39   8  40   8  41   8
M  ISO  7  42   8  43   8  44   8  45   8  46  14  47  14  48  14
M  END
>  <minimizedAffinity>  (1) 
-4.06139612

>  <minimizedRMSD>  (1) 
4.56277657

$$$$
