
     RDKit          3D

 48 51  0  0  1  0  0  0  0  0999 V2000
   41.7990   23.4320   35.8940 N   0  0  0  0  0  0  0  0  0  0  0  0
   43.0160   23.5350   36.6960 C   0  0  0  0  0  0  0  0  0  0  0  0
   44.2020   23.4080   35.7520 C   0  0  0  0  0  0  0  0  0  0  0  0
   43.5130   23.2180   34.4030 C   0  0  0  0  0  0  0  0  0  0  0  0
   42.2480   23.9660   34.6100 C   0  0  1  0  0  0  0  0  0  0  0  0
   39.4350   23.8960   32.3750 C   0  0  0  0  0  0  0  0  0  0  0  0
   40.3060   23.0470   31.6790 C   0  0  0  0  0  0  0  0  0  0  0  0
   41.4460   23.0090   32.4800 C   0  0  0  0  0  0  0  0  0  0  0  0
   41.2740   23.7770   33.5750 N   0  0  0  0  0  0  0  0  0  0  0  0
   40.0580   24.2950   33.4820 N   0  0  0  0  0  0  0  0  0  0  0  0
   37.0650   23.3250   31.9960 C   0  0  0  0  0  0  0  0  0  0  0  0
   38.1110   24.2480   31.9360 C   0  0  0  0  0  0  0  0  0  0  0  0
   37.8900   25.5270   31.4510 C   0  0  0  0  0  0  0  0  0  0  0  0
   36.6080   25.8140   31.0440 N   0  0  0  0  0  0  0  0  0  0  0  0
   35.5980   24.8890   31.1120 C   0  0  0  0  0  0  0  0  0  0  0  0
   35.8410   23.6670   31.5830 N   0  0  0  0  0  0  0  0  0  0  0  0
   34.2430   25.3280   30.6370 C   0  0  0  0  0  0  0  0  0  0  0  0
   42.5130   25.4460   34.7200 C   0  0  2  0  0  0  0  0  0  0  0  0
   41.2490   26.2530   34.9080 C   0  0  0  0  0  0  0  0  0  0  0  0
   43.1350   25.9190   33.4380 C   0  0  0  0  0  0  0  0  0  0  0  0
   44.3890   26.7150   33.7180 C   0  0  0  0  0  0  0  0  0  0  0  0
   45.6020   26.3740   33.1310 C   0  0  0  0  0  0  0  0  0  0  0  0
   46.4830   27.2920   33.6040 N   0  0  0  0  0  0  0  0  0  0  0  0
   45.8310   28.1300   34.4250 C   0  0  0  0  0  0  0  0  0  0  0  0
   44.5240   27.7910   34.5130 N   0  0  0  0  0  0  0  0  0  0  0  0
   41.4881   22.4539   35.8064 H   0  0  0  0  0  0  0  0  0  0  0  0
   43.0466   24.5083   37.2077 H   0  0  0  0  0  0  0  0  0  0  0  0
   43.0435   22.7432   37.4591 H   0  0  0  0  0  0  0  0  0  0  0  0
   44.8196   24.3182   35.7610 H   0  0  0  0  0  0  0  0  0  0  0  0
   44.8943   22.5948   36.0155 H   0  0  0  0  0  0  0  0  0  0  0  0
   43.3220   22.1548   34.1954 H   0  0  0  0  0  0  0  0  0  0  0  0
   44.1049   23.5662   33.5437 H   0  0  0  0  0  0  0  0  0  0  0  0
   40.1308   22.5310   30.7235 H   0  0  0  0  0  0  0  0  0  0  0  0
   42.3559   22.4346   32.2516 H   0  0  0  0  0  0  0  0  0  0  0  0
   37.2492   22.3126   32.3847 H   0  0  0  0  0  0  0  0  0  0  0  0
   38.6966   26.2728   31.3945 H   0  0  0  0  0  0  0  0  0  0  0  0
   33.6000   25.5363   31.5048 H   0  0  0  0  0  0  0  0  0  0  0  0
   34.3450   26.2391   30.0291 H   0  0  0  0  0  0  0  0  0  0  0  0
   33.7913   24.5302   30.0291 H   0  0  0  0  0  0  0  0  0  0  0  0
   43.1645   25.5906   35.5945 H   0  0  0  0  0  0  0  0  0  0  0  0
   41.0511   26.3794   35.9826 H   0  0  0  0  0  0  0  0  0  0  0  0
   41.3713   27.2405   34.4391 H   0  0  0  0  0  0  0  0  0  0  0  0
   40.4047   25.7265   34.4391 H   0  0  0  0  0  0  0  0  0  0  0  0
   42.4160   26.5543   32.9000 H   0  0  0  0  0  0  0  0  0  0  0  0
   43.3995   25.0431   32.8274 H   0  0  0  0  0  0  0  0  0  0  0  0
   45.8033   25.5444   32.4372 H   0  0  0  0  0  0  0  0  0  0  0  0
   46.2951   28.9758   34.9535 H   0  0  0  0  0  0  0  0  0  0  0  0
   43.7917   28.2561   35.0683 H   0  0  0  0  0  0  0  0  0  0  0  0
  1  2  1  0
  3  2  1  0
  4  5  1  0
  4  3  1  0
  5 18  1  0
  5  1  1  0
  6 10  2  0
  7  6  1  0
  7  8  2  0
  8  9  1  0
  5  9  1  6
 10  9  1  0
 12 11  2  0
 12  6  1  0
 13 12  1  0
 14 15  1  0
 14 13  2  0
 15 16  2  0
 16 11  1  0
 17 15  1  0
 18 19  1  0
 20 21  1  0
 20 18  1  0
 21 25  1  0
 22 23  1  0
 22 21  2  0
 23 24  2  0
 24 25  1  0
  1 26  1  0
  2 27  1  0
  2 28  1  0
  3 29  1  0
  3 30  1  0
  4 31  1  0
  4 32  1  0
  7 33  1  0
  8 34  1  0
 11 35  1  0
 13 36  1  0
 17 37  1  0
 17 38  1  0
 17 39  1  0
 18 40  1  1
 19 41  1  0
 19 42  1  0
 19 43  1  0
 20 44  1  0
 20 45  1  0
 22 46  1  0
 24 47  1  0
 25 48  1  0
M  ISO  8  26   5  27  13  28  13  29  13  30  13  31  13  32  13  33  14
M  ISO  8  34  14  35  14  36  14  37   8  38   8  39   8  40   8  41   8
M  ISO  7  42   8  43   8  44   8  45   8  46  14  47  14  48   9
M  END
>  <minimizedAffinity>  (1) 
-3.98190427

>  <minimizedRMSD>  (1) 
0.667170644

$$$$
