
     RDKit          3D

 47 50  0  0  1  0  0  0  0  0999 V2000
   43.0720   22.4050   35.1140 N   0  0  0  0  0  0  0  0  0  0  0  0
   43.8000   22.8980   36.2800 C   0  0  0  0  0  0  0  0  0  0  0  0
   43.6400   24.4130   36.3050 C   0  0  0  0  0  0  0  0  0  0  0  0
   42.7560   24.6570   35.1010 C   0  0  0  0  0  0  0  0  0  0  0  0
   41.9980   23.3770   35.0190 C   0  0  1  0  0  0  0  0  0  0  0  0
   39.9540   22.4170   32.2220 C   0  0  0  0  0  0  0  0  0  0  0  0
   40.2940   23.7170   31.8190 C   0  0  0  0  0  0  0  0  0  0  0  0
   41.1000   24.1870   32.8540 C   0  0  0  0  0  0  0  0  0  0  0  0
   41.2340   23.2330   33.8110 N   0  0  0  0  0  0  0  0  0  0  0  0
   40.5360   22.1750   33.4110 N   0  0  0  0  0  0  0  0  0  0  0  0
   39.3660   21.2770   30.1180 C   0  0  0  0  0  0  0  0  0  0  0  0
   39.1220   21.5210   31.4670 C   0  0  0  0  0  0  0  0  0  0  0  0
   38.0650   20.8960   32.1030 C   0  0  0  0  0  0  0  0  0  0  0  0
   37.2990   20.0470   31.3330 N   0  0  0  0  0  0  0  0  0  0  0  0
   37.5620   19.8270   30.0120 C   0  0  0  0  0  0  0  0  0  0  0  0
   38.5830   20.4400   29.4320 N   0  0  0  0  0  0  0  0  0  0  0  0
   36.6500   18.8780   29.2930 C   0  0  0  0  0  0  0  0  0  0  0  0
   41.0310   23.2670   36.1750 C   0  0  2  0  0  0  0  0  0  0  0  0
   40.5770   21.8480   36.3960 C   0  0  0  0  0  0  0  0  0  0  0  0
   39.8150   24.0980   35.8800 C   0  0  0  0  0  0  0  0  0  0  0  0
   38.7630   23.6270   36.7830 N   0  0  0  0  0  0  0  0  0  0  0  0
   38.7340   23.7470   38.1200 C   0  0  0  0  0  0  0  0  0  0  0  0
   37.5810   23.1730   38.5470 N   0  0  0  0  0  0  0  0  0  0  0  0
   36.8940   22.7000   37.4940 C   0  0  0  0  0  0  0  0  0  0  0  0
   37.6470   22.9940   36.4170 N   0  0  0  0  0  0  0  0  0  0  0  0
   43.6625   22.4115   34.2701 H   0  0  0  0  0  0  0  0  0  0  0  0
   43.3817   22.4598   37.1982 H   0  0  0  0  0  0  0  0  0  0  0  0
   44.8625   22.6189   36.2231 H   0  0  0  0  0  0  0  0  0  0  0  0
   43.1530   24.7480   37.2327 H   0  0  0  0  0  0  0  0  0  0  0  0
   44.5939   24.9599   36.2725 H   0  0  0  0  0  0  0  0  0  0  0  0
   42.0832   25.5118   35.2641 H   0  0  0  0  0  0  0  0  0  0  0  0
   43.3094   24.9080   34.1841 H   0  0  0  0  0  0  0  0  0  0  0  0
   39.9943   24.2426   30.9004 H   0  0  0  0  0  0  0  0  0  0  0  0
   41.5606   25.1853   32.8905 H   0  0  0  0  0  0  0  0  0  0  0  0
   40.2075   21.7758   29.6149 H   0  0  0  0  0  0  0  0  0  0  0  0
   37.8469   21.0673   33.1675 H   0  0  0  0  0  0  0  0  0  0  0  0
   36.0825   18.2875   30.0274 H   0  0  0  0  0  0  0  0  0  0  0  0
   35.9517   19.4476   28.6621 H   0  0  0  0  0  0  0  0  0  0  0  0
   37.2469   18.2029   28.6621 H   0  0  0  0  0  0  0  0  0  0  0  0
   41.5530   23.6173   37.0777 H   0  0  0  0  0  0  0  0  0  0  0  0
   40.5128   21.6475   37.4757 H   0  0  0  0  0  0  0  0  0  0  0  0
   39.5879   21.7038   35.9369 H   0  0  0  0  0  0  0  0  0  0  0  0
   41.2987   21.1564   35.9369 H   0  0  0  0  0  0  0  0  0  0  0  0
   40.0270   25.1614   36.0649 H   0  0  0  0  0  0  0  0  0  0  0  0
   39.5106   23.9995   34.8276 H   0  0  0  0  0  0  0  0  0  0  0  0
   39.5005   24.2213   38.7504 H   0  0  0  0  0  0  0  0  0  0  0  0
   35.9233   22.1828   37.5084 H   0  0  0  0  0  0  0  0  0  0  0  0
  1  2  1  0
  2  3  1  0
  4  3  1  0
  5  4  1  0
  5  1  1  0
  5 18  1  0
  6 10  2  0
  7  6  1  0
  7  8  2  0
  8  9  1  0
  5  9  1  6
 10  9  1  0
 11 12  2  0
 12 13  1  0
 12  6  1  0
 14 13  2  0
 15 14  1  0
 16 15  2  0
 16 11  1  0
 17 15  1  0
 18 19  1  0
 20 18  1  0
 20 21  1  0
 21 22  1  0
 22 23  2  0
 24 23  1  0
 25 21  1  0
 25 24  2  0
  1 26  1  0
  2 27  1  0
  2 28  1  0
  3 29  1  0
  3 30  1  0
  4 31  1  0
  4 32  1  0
  7 33  1  0
  8 34  1  0
 11 35  1  0
 13 36  1  0
 17 37  1  0
 17 38  1  0
 17 39  1  0
 18 40  1  1
 19 41  1  0
 19 42  1  0
 19 43  1  0
 20 44  1  0
 20 45  1  0
 22 46  1  0
 24 47  1  0
M  ISO  8  26   5  27  13  28  13  29  13  30  13  31  13  32  13  33  14
M  ISO  8  34  14  35  14  36  14  37   8  38   8  39   8  40   8  41   8
M  ISO  6  42   8  43   8  44   8  45   8  46  14  47  14
M  END
>  <minimizedAffinity>  (1) 
-3.75709748

>  <minimizedRMSD>  (1) 
5.10425854

$$$$
