
     RDKit          3D

 42 44  0  0  1  0  0  0  0  0999 V2000
   41.7020   23.3830   35.7460 N   0  0  0  0  0  0  0  0  0  0  0  0
   42.8760   23.3840   36.6270 C   0  0  0  0  0  0  0  0  0  0  0  0
   44.1100   23.4210   35.7430 C   0  0  0  0  0  0  0  0  0  0  0  0
   43.5040   23.4430   34.3460 C   0  0  0  0  0  0  0  0  0  0  0  0
   42.2040   24.1200   34.5960 C   0  0  1  0  0  0  0  0  0  0  0  0
   39.4980   24.2550   32.2400 C   0  0  0  0  0  0  0  0  0  0  0  0
   40.5060   23.7590   31.4050 C   0  0  0  0  0  0  0  0  0  0  0  0
   41.6150   23.6700   32.2370 C   0  0  0  0  0  0  0  0  0  0  0  0
   41.3000   24.0800   33.4830 N   0  0  0  0  0  0  0  0  0  0  0  0
   40.0210   24.4240   33.4500 N   0  0  0  0  0  0  0  0  0  0  0  0
   37.1870   23.5020   31.8310 C   0  0  0  0  0  0  0  0  0  0  0  0
   38.1410   24.5200   31.8250 C   0  0  0  0  0  0  0  0  0  0  0  0
   37.8010   25.7980   31.4220 C   0  0  0  0  0  0  0  0  0  0  0  0
   36.4950   25.9990   31.0350 N   0  0  0  0  0  0  0  0  0  0  0  0
   35.5730   24.9850   31.0490 C   0  0  0  0  0  0  0  0  0  0  0  0
   35.9310   23.7590   31.4450 N   0  0  0  0  0  0  0  0  0  0  0  0
   34.1930   25.3330   30.6070 C   0  0  0  0  0  0  0  0  0  0  0  0
   42.4260   25.5730   34.9480 C   0  0  2  0  0  0  0  0  0  0  0  0
   41.1530   26.3770   34.9310 C   0  0  0  0  0  0  0  0  0  0  0  0
   43.3380   26.1800   33.9180 C   0  0  0  0  0  0  0  0  0  0  0  0
   43.4370   27.5500   34.2670 O   0  0  0  0  0  0  0  0  0  0  0  0
   41.4257   22.4249   35.4879 H   0  0  0  0  0  0  0  0  0  0  0  0
   42.8550   24.2691   37.2798 H   0  0  0  0  0  0  0  0  0  0  0  0
   42.8828   22.4875   37.2644 H   0  0  0  0  0  0  0  0  0  0  0  0
   44.7092   24.3239   35.9321 H   0  0  0  0  0  0  0  0  0  0  0  0
   44.7998   22.5810   35.9121 H   0  0  0  0  0  0  0  0  0  0  0  0
   43.3581   22.4251   33.9554 H   0  0  0  0  0  0  0  0  0  0  0  0
   44.1317   23.9424   33.5932 H   0  0  0  0  0  0  0  0  0  0  0  0
   40.4363   23.5000   30.3382 H   0  0  0  0  0  0  0  0  0  0  0  0
   42.6083   23.3157   31.9243 H   0  0  0  0  0  0  0  0  0  0  0  0
   37.4668   22.4881   32.1529 H   0  0  0  0  0  0  0  0  0  0  0  0
   38.5380   26.6145   31.4111 H   0  0  0  0  0  0  0  0  0  0  0  0
   33.5552   25.4938   31.4887 H   0  0  0  0  0  0  0  0  0  0  0  0
   34.2222   26.2519   30.0030 H   0  0  0  0  0  0  0  0  0  0  0  0
   33.7830   24.5101   30.0030 H   0  0  0  0  0  0  0  0  0  0  0  0
   42.8477   25.5989   35.9636 H   0  0  0  0  0  0  0  0  0  0  0  0
   40.8331   26.5790   35.9639 H   0  0  0  0  0  0  0  0  0  0  0  0
   41.3276   27.3290   34.4083 H   0  0  0  0  0  0  0  0  0  0  0  0
   40.3684   25.8103   34.4083 H   0  0  0  0  0  0  0  0  0  0  0  0
   42.9098   26.0689   32.9109 H   0  0  0  0  0  0  0  0  0  0  0  0
   44.3222   25.6889   33.9013 H   0  0  0  0  0  0  0  0  0  0  0  0
   43.4435   27.6397   35.2529 H   0  0  0  0  0  0  0  0  0  0  0  0
  1  2  1  0
  3  2  1  0
  4  5  1  0
  4  3  1  0
  5 18  1  0
  5  1  1  0
  6 10  2  0
  7  8  2  0
  7  6  1  0
  8  9  1  0
  5  9  1  6
 10  9  1  0
 12 11  2  0
 12  6  1  0
 13 12  1  0
 14 15  1  0
 14 13  2  0
 15 16  2  0
 16 11  1  0
 17 15  1  0
 19 18  1  0
 20 21  1  0
 20 18  1  0
  1 22  1  0
  2 23  1  0
  2 24  1  0
  3 25  1  0
  3 26  1  0
  4 27  1  0
  4 28  1  0
  7 29  1  0
  8 30  1  0
 11 31  1  0
 13 32  1  0
 17 33  1  0
 17 34  1  0
 17 35  1  0
 18 36  1  1
 19 37  1  0
 19 38  1  0
 19 39  1  0
 20 40  1  0
 20 41  1  0
 21 42  1  0
M  ISO  8  22   5  23  13  24  13  25  13  26  13  27  13  28  13  29  14
M  ISO  8  30  14  31  14  32  14  33   8  34   8  35   8  36   8  37   8
M  ISO  5  38   8  39   8  40   8  41   8  42   3
M  END
>  <minimizedAffinity>  (1) 
-3.70048881

>  <minimizedRMSD>  (1) 
0.486556113

$$$$
