
     RDKit          3D

 43 45  0  0  1  0  0  0  0  0999 V2000
   41.5850   23.2270   35.8930 N   0  0  0  0  0  0  0  0  0  0  0  0
   42.7670   23.1900   36.7600 C   0  0  0  0  0  0  0  0  0  0  0  0
   43.9730   22.9400   35.8760 C   0  0  0  0  0  0  0  0  0  0  0  0
   43.3450   22.8560   34.4910 C   0  0  0  0  0  0  0  0  0  0  0  0
   42.1590   23.7310   34.6480 C   0  0  1  0  0  0  0  0  0  0  0  0
   39.4160   23.9070   32.3340 C   0  0  0  0  0  0  0  0  0  0  0  0
   40.3550   23.2130   31.5370 C   0  0  0  0  0  0  0  0  0  0  0  0
   41.4670   23.0970   32.3630 C   0  0  0  0  0  0  0  0  0  0  0  0
   41.2260   23.6720   33.5620 N   0  0  0  0  0  0  0  0  0  0  0  0
   39.9890   24.1480   33.5150 N   0  0  0  0  0  0  0  0  0  0  0  0
   37.0470   23.3550   31.9710 C   0  0  0  0  0  0  0  0  0  0  0  0
   38.0920   24.2660   31.9080 C   0  0  0  0  0  0  0  0  0  0  0  0
   37.8740   25.5570   31.4240 C   0  0  0  0  0  0  0  0  0  0  0  0
   36.5880   25.8480   31.0270 N   0  0  0  0  0  0  0  0  0  0  0  0
   35.5890   24.9340   31.1030 C   0  0  0  0  0  0  0  0  0  0  0  0
   35.8220   23.7060   31.5680 N   0  0  0  0  0  0  0  0  0  0  0  0
   34.2210   25.3600   30.6380 C   0  0  0  0  0  0  0  0  0  0  0  0
   42.5770   25.1730   34.8100 C   0  0  2  0  0  0  0  0  0  0  0  0
   41.4000   26.1170   34.8660 C   0  0  0  0  0  0  0  0  0  0  0  0
   43.3950   25.5720   33.6160 C   0  0  0  0  0  0  0  0  0  0  0  0
   43.8420   26.9740   33.7790 N   0  0  0  0  0  0  0  0  0  0  0  0
   41.1792   22.2885   35.7684 H   0  0  0  0  0  0  0  0  0  0  0  0
   42.8784   24.1506   37.2843 H   0  0  0  0  0  0  0  0  0  0  0  0
   42.6689   22.3961   37.5151 H   0  0  0  0  0  0  0  0  0  0  0  0
   44.6920   23.7702   35.9382 H   0  0  0  0  0  0  0  0  0  0  0  0
   44.5472   22.0443   36.1555 H   0  0  0  0  0  0  0  0  0  0  0  0
   43.0530   21.8245   34.2446 H   0  0  0  0  0  0  0  0  0  0  0  0
   44.0186   23.1573   33.6752 H   0  0  0  0  0  0  0  0  0  0  0  0
   40.2341   22.8501   30.5056 H   0  0  0  0  0  0  0  0  0  0  0  0
   42.4101   22.6064   32.0805 H   0  0  0  0  0  0  0  0  0  0  0  0
   37.2277   22.3399   32.3542 H   0  0  0  0  0  0  0  0  0  0  0  0
   38.6833   26.2995   31.3632 H   0  0  0  0  0  0  0  0  0  0  0  0
   33.5824   25.5589   31.5113 H   0  0  0  0  0  0  0  0  0  0  0  0
   34.3079   26.2736   30.0316 H   0  0  0  0  0  0  0  0  0  0  0  0
   33.7738   24.5586   30.0316 H   0  0  0  0  0  0  0  0  0  0  0  0
   43.1355   25.2428   35.7551 H   0  0  0  0  0  0  0  0  0  0  0  0
   41.1442   26.3222   35.9160 H   0  0  0  0  0  0  0  0  0  0  0  0
   41.6611   27.0589   34.3614 H   0  0  0  0  0  0  0  0  0  0  0  0
   40.5372   25.6577   34.3614 H   0  0  0  0  0  0  0  0  0  0  0  0
   42.7841   25.4840   32.7054 H   0  0  0  0  0  0  0  0  0  0  0  0
   44.2710   24.9122   33.5308 H   0  0  0  0  0  0  0  0  0  0  0  0
   43.9132   27.1973   34.7820 H   0  0  0  0  0  0  0  0  0  0  0  0
   44.7631   27.0946   33.3342 H   0  0  0  0  0  0  0  0  0  0  0  0
  1  2  1  0
  3  2  1  0
  4  5  1  0
  4  3  1  0
  5 18  1  0
  5  1  1  0
  6 10  2  0
  7  6  1  0
  7  8  2  0
  8  9  1  0
  5  9  1  6
 10  9  1  0
 12 11  2  0
 12  6  1  0
 13 12  1  0
 14 15  1  0
 14 13  2  0
 15 16  2  0
 16 11  1  0
 17 15  1  0
 18 19  1  0
 20 21  1  0
 20 18  1  0
  1 22  1  0
  2 23  1  0
  2 24  1  0
  3 25  1  0
  3 26  1  0
  4 27  1  0
  4 28  1  0
  7 29  1  0
  8 30  1  0
 11 31  1  0
 13 32  1  0
 17 33  1  0
 17 34  1  0
 17 35  1  0
 18 36  1  1
 19 37  1  0
 19 38  1  0
 19 39  1  0
 20 40  1  0
 20 41  1  0
 21 42  1  0
 21 43  1  0
M  ISO  8  22   5  23  13  24  13  25  13  26  13  27  13  28  13  29  14
M  ISO  8  30  14  31  14  32  14  33   8  34   8  35   8  36   8  37   8
M  ISO  6  38   8  39   8  40   8  41   8  42   5  43   5
M  END
>  <minimizedAffinity>  (1) 
-3.26870465

>  <minimizedRMSD>  (1) 
0.106309086

$$$$
