
     RDKit          3D

 32 33  0  0  1  0  0  0  0  0999 V2000
   38.5360   25.8900   35.0780 C   0  0  2  0  0  0  0  0  0  0  0  0
   39.6600   22.9900   37.0200 C   0  0  0  0  0  0  0  0  0  0  0  0
   38.9110   23.0820   38.2220 C   0  0  0  0  0  0  0  0  0  0  0  0
   38.0250   24.1500   38.3470 C   0  0  0  0  0  0  0  0  0  0  0  0
   37.9300   25.0440   37.3080 N   0  0  0  0  0  0  0  0  0  0  0  0
   38.6580   24.9240   36.1780 C   0  0  0  0  0  0  0  0  0  0  0  0
   39.5200   23.9040   36.0310 N   0  0  0  0  0  0  0  0  0  0  0  0
   39.4360   27.0700   35.3670 C   0  0  0  0  0  0  0  0  0  0  0  0
   37.1300   26.4290   34.9260 C   0  0  0  0  0  0  0  0  0  0  0  0
   36.8810   28.7870   31.4390 C   0  0  0  0  0  0  0  0  0  0  0  0
   37.6290   27.6260   31.4450 C   0  0  0  0  0  0  0  0  0  0  0  0
   37.6900   26.8780   32.6050 C   0  0  0  0  0  0  0  0  0  0  0  0
   36.9950   27.3110   33.7360 C   0  0  0  0  0  0  0  0  0  0  0  0
   36.2450   28.4700   33.7330 C   0  0  0  0  0  0  0  0  0  0  0  0
   36.1880   29.2200   32.5700 C   0  0  0  0  0  0  0  0  0  0  0  0
   36.8380   29.7000   29.9440 S   0  0  0  0  0  0  0  0  0  0  0  0
   37.3730   28.8340   28.8320 O   0  0  0  0  0  0  0  0  0  0  0  0
   37.6670   30.9570   30.0570 O   0  0  0  0  0  0  0  0  0  0  0  0
   38.8122   25.3623   34.1532 H   0  0  0  0  0  0  0  0  0  0  0  0
   40.3688   22.1591   36.8892 H   0  0  0  0  0  0  0  0  0  0  0  0
   39.0256   22.3384   39.0244 H   0  0  0  0  0  0  0  0  0  0  0  0
   37.4167   24.2744   39.2550 H   0  0  0  0  0  0  0  0  0  0  0  0
   39.5340   27.1985   36.4551 H   0  0  0  0  0  0  0  0  0  0  0  0
   40.4285   26.8903   34.9281 H   0  0  0  0  0  0  0  0  0  0  0  0
   39.0002   27.9797   34.9281 H   0  0  0  0  0  0  0  0  0  0  0  0
   36.4351   25.5828   34.8211 H   0  0  0  0  0  0  0  0  0  0  0  0
   36.8980   27.0273   35.8194 H   0  0  0  0  0  0  0  0  0  0  0  0
   38.1669   27.3024   30.5417 H   0  0  0  0  0  0  0  0  0  0  0  0
   38.2803   25.9504   32.6373 H   0  0  0  0  0  0  0  0  0  0  0  0
   35.7040   28.7911   34.6353 H   0  0  0  0  0  0  0  0  0  0  0  0
   35.6010   30.1497   32.5382 H   0  0  0  0  0  0  0  0  0  0  0  0
   35.5448   30.0664   29.6788 H   0  0  0  0  0  0  0  0  0  0  0  0
  1  8  1  0
  1  6  1  0
  2  3  2  0
  3  4  1  0
  5  4  2  0
  6  5  1  0
  7  6  2  0
  7  2  1  0
  9  1  1  0
 10 11  2  0
 10 15  1  0
 11 12  1  0
 12 13  2  0
 13  9  1  0
 14 13  1  0
 15 14  2  0
 16 18  2  0
 16 10  1  0
 17 16  2  0
  1 19  1  6
  2 20  1  0
  3 21  1  0
  4 22  1  0
  8 23  1  0
  8 24  1  0
  8 25  1  0
  9 26  1  0
  9 27  1  0
 11 28  1  0
 12 29  1  0
 14 30  1  0
 15 31  1  0
 16 32  1  0
M  ISO  8  19   8  20  14  21  14  22  14  23   8  24   8  25   8  26   8
M  ISO  6  27   8  28  14  29  14  30  14  31  14  32  11
M  END
>  <minimizedAffinity>  (1) 
-4.80336714

>  <minimizedRMSD>  (1) 
5.47916889

$$$$
