
     RDKit          3D

 16 17  0  0  0  0  0  0  0  0999 V2000
   38.0350   24.2240   38.3970 C   0  0  0  0  0  0  0  0  0  0  0  0
   37.8230   24.7260   37.0820 C   0  0  0  0  0  0  0  0  0  0  0  0
   38.5890   24.1650   36.0600 C   0  0  0  0  0  0  0  0  0  0  0  0
   39.4770   23.1960   36.3490 N   0  0  0  0  0  0  0  0  0  0  0  0
   39.6460   22.7480   37.6280 C   0  0  0  0  0  0  0  0  0  0  0  0
   38.9240   23.2650   38.6400 N   0  0  0  0  0  0  0  0  0  0  0  0
   38.4170   24.6370   34.6900 C   0  0  0  0  0  0  0  0  0  0  0  0
   37.6040   25.6010   34.2140 N   0  0  0  0  0  0  0  0  0  0  0  0
   37.7650   25.7040   32.9240 O   0  0  0  0  0  0  0  0  0  0  0  0
   38.6710   24.8260   32.5220 C   0  0  0  0  0  0  0  0  0  0  0  0
   39.0920   24.1500   33.6100 N   0  0  0  0  0  0  0  0  0  0  0  0
   40.5420   21.7560   37.9800 O   0  0  0  0  0  0  0  0  0  0  0  0
   37.4502   24.6387   39.2313 H   0  0  0  0  0  0  0  0  0  0  0  0
   37.0887   25.5200   36.8809 H   0  0  0  0  0  0  0  0  0  0  0  0
   39.0171   24.6755   31.4888 H   0  0  0  0  0  0  0  0  0  0  0  0
   40.6204   21.4725   38.9253 H   0  0  0  0  0  0  0  0  0  0  0  0
  1  6  2  0
  2  1  1  0
  3  4  1  0
  3  2  2  0
  4  5  2  0
  5 12  1  0
  5  6  1  0
  7  3  1  0
  8  7  2  0
  9  8  1  0
 10  9  1  0
 10 11  2  0
 11  7  1  0
  1 13  1  0
  2 14  1  0
 10 15  1  0
 12 16  1  0
M  ISO  4  13  14  14  14  15  14  16   3
M  END
>  <minimizedAffinity>  (1) 
-4.00841331

>  <minimizedRMSD>  (1) 
4.71008015

$$$$
