
     RDKit          3D

 24 25  0  0  0  0  0  0  0  0999 V2000
   38.1850   23.4000   37.9950 C   0  0  0  0  0  0  0  0  0  0  0  0
   37.4890   23.1040   36.7950 C   0  0  0  0  0  0  0  0  0  0  0  0
   38.1760   22.4040   35.8060 C   0  0  0  0  0  0  0  0  0  0  0  0
   39.4540   22.0400   36.0210 N   0  0  0  0  0  0  0  0  0  0  0  0
   40.0880   22.3470   37.1930 C   0  0  0  0  0  0  0  0  0  0  0  0
   39.4510   23.0170   38.1580 N   0  0  0  0  0  0  0  0  0  0  0  0
   37.5360   22.0830   34.5970 N   0  0  0  0  0  0  0  0  0  0  0  0
   36.3470   21.2680   34.5490 C   0  0  0  0  0  0  0  0  0  0  0  0
   36.3150   20.6400   33.1760 C   0  0  0  0  0  0  0  0  0  0  0  0
   36.3500   21.5200   32.1310 O   0  0  0  0  0  0  0  0  0  0  0  0
   36.8180   22.7800   32.4630 C   0  0  0  0  0  0  0  0  0  0  0  0
   38.0610   22.5700   33.3380 C   0  0  0  0  0  0  0  0  0  0  0  0
   41.3980   21.9930   37.4560 O   0  0  0  0  0  0  0  0  0  0  0  0
   37.6748   23.9510   38.7988 H   0  0  0  0  0  0  0  0  0  0  0  0
   36.4441   23.4161   36.6506 H   0  0  0  0  0  0  0  0  0  0  0  0
   36.3892   20.4877   35.3232 H   0  0  0  0  0  0  0  0  0  0  0  0
   35.4443   21.8688   34.7336 H   0  0  0  0  0  0  0  0  0  0  0  0
   37.1845   19.9721   33.0873 H   0  0  0  0  0  0  0  0  0  0  0  0
   35.3495   20.1181   33.1023 H   0  0  0  0  0  0  0  0  0  0  0  0
   37.0843   23.3378   31.5531 H   0  0  0  0  0  0  0  0  0  0  0  0
   36.0508   23.3600   32.9968 H   0  0  0  0  0  0  0  0  0  0  0  0
   38.7357   21.8289   32.8846 H   0  0  0  0  0  0  0  0  0  0  0  0
   38.6507   23.4909   33.4573 H   0  0  0  0  0  0  0  0  0  0  0  0
   41.8131   22.2385   38.3206 H   0  0  0  0  0  0  0  0  0  0  0  0
  1  6  2  0
  2  1  1  0
  3  4  1  0
  3  2  2  0
  4  5  2  0
  5 13  1  0
  5  6  1  0
  7  3  1  0
  8  7  1  0
  9  8  1  0
 10 11  1  0
 10  9  1  0
 11 12  1  0
 12  7  1  0
  1 14  1  0
  2 15  1  0
  8 16  1  0
  8 17  1  0
  9 18  1  0
  9 19  1  0
 11 20  1  0
 11 21  1  0
 12 22  1  0
 12 23  1  0
 13 24  1  0
M  ISO  8  14  14  15  14  16  13  17  13  18  13  19  13  20  13  21  13
M  ISO  3  22  13  23  13  24   3
M  END
>  <minimizedAffinity>  (1) 
-3.72886276

>  <minimizedRMSD>  (1) 
5.18512201

$$$$
