
     RDKit          3D

 18 19  0  0  0  0  0  0  0  0999 V2000
   38.5380   23.3090   38.4460 C   0  0  0  0  0  0  0  0  0  0  0  0
   38.0590   24.4850   37.8360 C   0  0  0  0  0  0  0  0  0  0  0  0
   38.6030   24.8210   36.5960 C   0  0  0  0  0  0  0  0  0  0  0  0
   39.5480   24.0180   36.0430 N   0  0  0  0  0  0  0  0  0  0  0  0
   39.9710   22.8920   36.6800 C   0  0  0  0  0  0  0  0  0  0  0  0
   39.4660   22.5530   37.8630 N   0  0  0  0  0  0  0  0  0  0  0  0
   38.1520   26.0020   35.9370 N   0  0  0  0  0  0  0  0  0  0  0  0
   37.1090   25.8790   35.1290 N   0  0  0  0  0  0  0  0  0  0  0  0
   36.8130   27.0930   34.5860 C   0  0  0  0  0  0  0  0  0  0  0  0
   37.7600   27.9640   35.1310 C   0  0  0  0  0  0  0  0  0  0  0  0
   38.6060   27.2600   35.9880 C   0  0  0  0  0  0  0  0  0  0  0  0
   40.9290   22.0390   36.1640 O   0  0  0  0  0  0  0  0  0  0  0  0
   38.1366   23.0088   39.4252 H   0  0  0  0  0  0  0  0  0  0  0  0
   37.2911   25.1098   38.3155 H   0  0  0  0  0  0  0  0  0  0  0  0
   36.0077   27.3339   33.8764 H   0  0  0  0  0  0  0  0  0  0  0  0
   37.8280   29.0408   34.9168 H   0  0  0  0  0  0  0  0  0  0  0  0
   39.4527   27.6497   36.5722 H   0  0  0  0  0  0  0  0  0  0  0  0
   41.1990   21.2329   36.6714 H   0  0  0  0  0  0  0  0  0  0  0  0
  2  1  2  0
  3  2  1  0
  4  3  2  0
  4  5  1  0
  5  6  2  0
  6  1  1  0
  7 11  1  0
  7  3  1  0
  8  7  1  0
  9  8  2  0
  9 10  1  0
 10 11  2  0
 12  5  1  0
  1 13  1  0
  2 14  1  0
  9 15  1  0
 10 16  1  0
 11 17  1  0
 12 18  1  0
M  ISO  6  13  14  14  14  15  14  16  14  17  14  18   3
M  END
>  <minimizedAffinity>  (1) 
-3.70878148

>  <minimizedRMSD>  (1) 
3.78980994

$$$$
