
     RDKit          3D

 21 22  0  0  0  0  0  0  0  0999 V2000
   43.5510   21.8940   35.9670 C   0  0  0  0  0  0  0  0  0  0  0  0
   42.4940   22.5600   36.6300 C   0  0  0  0  0  0  0  0  0  0  0  0
   41.2290   22.5160   36.0500 C   0  0  0  0  0  0  0  0  0  0  0  0
   41.0760   21.8440   34.8930 N   0  0  0  0  0  0  0  0  0  0  0  0
   42.1190   21.2100   34.2790 C   0  0  0  0  0  0  0  0  0  0  0  0
   43.3500   21.2400   34.8220 N   0  0  0  0  0  0  0  0  0  0  0  0
   40.0600   23.1630   36.6340 C   0  0  0  0  0  0  0  0  0  0  0  0
   39.7670   22.8530   37.9450 C   0  0  0  0  0  0  0  0  0  0  0  0
   38.6690   23.4150   38.6060 C   0  0  0  0  0  0  0  0  0  0  0  0
   37.8880   24.3030   37.8740 C   0  0  0  0  0  0  0  0  0  0  0  0
   38.1650   24.6190   36.5770 C   0  0  0  0  0  0  0  0  0  0  0  0
   39.2540   24.0440   35.9670 C   0  0  0  0  0  0  0  0  0  0  0  0
   41.9870   20.5130   33.0920 O   0  0  0  0  0  0  0  0  0  0  0  0
   44.5599   21.9158   36.4048 H   0  0  0  0  0  0  0  0  0  0  0  0
   42.6661   23.0963   37.5749 H   0  0  0  0  0  0  0  0  0  0  0  0
   40.4131   22.1455   38.4855 H   0  0  0  0  0  0  0  0  0  0  0  0
   38.4354   23.1669   39.6519 H   0  0  0  0  0  0  0  0  0  0  0  0
   37.0161   24.7667   38.3586 H   0  0  0  0  0  0  0  0  0  0  0  0
   37.5255   25.3246   36.0263 H   0  0  0  0  0  0  0  0  0  0  0  0
   39.4820   24.2974   34.9212 H   0  0  0  0  0  0  0  0  0  0  0  0
   41.1047   20.4568   32.6464 H   0  0  0  0  0  0  0  0  0  0  0  0
  1  2  2  0
  3  2  1  0
  3  7  1  0
  4  3  2  0
  5  6  2  0
  5  4  1  0
  6  1  1  0
  7  8  2  0
  8  9  1  0
 10  9  2  0
 11 10  1  0
 12 11  2  0
 12  7  1  0
 13  5  1  0
  1 14  1  0
  2 15  1  0
  8 16  1  0
  9 17  1  0
 10 18  1  0
 11 19  1  0
 12 20  1  0
 13 21  1  0
M  ISO  8  14  14  15  14  16  14  17  14  18  14  19  14  20  14  21   3
M  END
>  <minimizedAffinity>  (1) 
-3.69817066

>  <minimizedRMSD>  (1) 
4.16205978

$$$$
