
     RDKit          3D

 18 19  0  0  0  0  0  0  0  0999 V2000
   42.4140   20.8640   37.0850 C   0  0  0  0  0  0  0  0  0  0  0  0
   41.3120   21.6020   37.5900 C   0  0  0  0  0  0  0  0  0  0  0  0
   40.5180   22.2830   36.6690 C   0  0  0  0  0  0  0  0  0  0  0  0
   40.8230   22.2160   35.3540 N   0  0  0  0  0  0  0  0  0  0  0  0
   41.8920   21.4940   34.9160 C   0  0  0  0  0  0  0  0  0  0  0  0
   42.6700   20.8330   35.7680 N   0  0  0  0  0  0  0  0  0  0  0  0
   39.3810   23.0490   37.1600 C   0  0  0  0  0  0  0  0  0  0  0  0
   39.0150   23.2860   38.4550 C   0  0  0  0  0  0  0  0  0  0  0  0
   37.8700   24.0610   38.3730 C   0  0  0  0  0  0  0  0  0  0  0  0
   37.5990   24.2550   37.0270 C   0  0  0  0  0  0  0  0  0  0  0  0
   38.5340   23.6280   36.3150 O   0  0  0  0  0  0  0  0  0  0  0  0
   42.2430   21.3970   33.5800 O   0  0  0  0  0  0  0  0  0  0  0  0
   43.0644   20.3122   37.7796 H   0  0  0  0  0  0  0  0  0  0  0  0
   41.0928   21.6353   38.6674 H   0  0  0  0  0  0  0  0  0  0  0  0
   39.5211   22.9363   39.3669 H   0  0  0  0  0  0  0  0  0  0  0  0
   37.2843   24.4504   39.2188 H   0  0  0  0  0  0  0  0  0  0  0  0
   36.7552   24.8292   36.6169 H   0  0  0  0  0  0  0  0  0  0  0  0
   43.0299   20.8590   33.3127 H   0  0  0  0  0  0  0  0  0  0  0  0
  1  2  2  0
  3  7  1  0
  3  2  1  0
  4  3  2  0
  5  4  1  0
  5  6  2  0
  6  1  1  0
  7  8  2  0
  9  8  1  0
 10  9  2  0
 11 10  1  0
 11  7  1  0
 12  5  1  0
  1 13  1  0
  2 14  1  0
  8 15  1  0
  9 16  1  0
 10 17  1  0
 12 18  1  0
M  ISO  6  13  14  14  14  15  14  16  14  17  14  18   3
M  END
>  <minimizedAffinity>  (1) 
-3.61555791

>  <minimizedRMSD>  (1) 
3.45945144

$$$$
