
     RDKit          3D

 17 18  0  0  0  0  0  0  0  0999 V2000
   42.9980   21.2110   36.6860 C   0  0  0  0  0  0  0  0  0  0  0  0
   41.6070   21.2600   36.9140 C   0  0  0  0  0  0  0  0  0  0  0  0
   40.9820   22.5020   36.7300 C   0  0  0  0  0  0  0  0  0  0  0  0
   41.7120   23.5700   36.3550 N   0  0  0  0  0  0  0  0  0  0  0  0
   43.0590   23.4650   36.1490 C   0  0  0  0  0  0  0  0  0  0  0  0
   43.6780   22.2930   36.3170 N   0  0  0  0  0  0  0  0  0  0  0  0
   39.5900   22.7580   36.9090 N   0  0  0  0  0  0  0  0  0  0  0  0
   38.7440   23.4150   37.7220 C   0  0  0  0  0  0  0  0  0  0  0  0
   37.4830   23.2250   37.2920 N   0  0  0  0  0  0  0  0  0  0  0  0
   37.5430   22.4420   36.2010 C   0  0  0  0  0  0  0  0  0  0  0  0
   38.8530   22.1540   35.9650 N   0  0  0  0  0  0  0  0  0  0  0  0
   43.8540   24.5300   35.7630 O   0  0  0  0  0  0  0  0  0  0  0  0
   43.5317   20.2580   36.8161 H   0  0  0  0  0  0  0  0  0  0  0  0
   41.0405   20.3684   37.2209 H   0  0  0  0  0  0  0  0  0  0  0  0
   39.0360   24.0122   38.5984 H   0  0  0  0  0  0  0  0  0  0  0  0
   36.6861   22.0954   35.6047 H   0  0  0  0  0  0  0  0  0  0  0  0
   43.4510   25.4234   35.6231 H   0  0  0  0  0  0  0  0  0  0  0  0
  1  2  2  0
  3  7  1  0
  3  2  1  0
  4  3  2  0
  5  6  2  0
  5  4  1  0
  6  1  1  0
  7  8  1  0
  9  8  2  0
 10  9  1  0
 11 10  2  0
 11  7  1  0
 12  5  1  0
  1 13  1  0
  2 14  1  0
  8 15  1  0
 10 16  1  0
 12 17  1  0
M  ISO  5  13  14  14  14  15  14  16  14  17   3
M  END
>  <minimizedAffinity>  (1) 
-3.30368662

>  <minimizedRMSD>  (1) 
4.32159948

$$$$
