
     RDKit          3D

 13 13  0  0  0  0  0  0  0  0999 V2000
   40.9210   22.2170   37.1470 C   0  0  0  0  0  0  0  0  0  0  0  0
   40.0020   22.8440   38.0330 C   0  0  0  0  0  0  0  0  0  0  0  0
   38.7480   23.1680   37.5270 C   0  0  0  0  0  0  0  0  0  0  0  0
   38.4600   22.8780   36.2470 N   0  0  0  0  0  0  0  0  0  0  0  0
   39.3740   22.2750   35.4320 C   0  0  0  0  0  0  0  0  0  0  0  0
   40.5880   21.9500   35.8820 N   0  0  0  0  0  0  0  0  0  0  0  0
   37.7670   23.8110   38.3840 C   0  0  0  0  0  0  0  0  0  0  0  0
   38.0570   24.9030   38.9690 O   0  0  0  0  0  0  0  0  0  0  0  0
   39.1040   21.9650   34.1050 O   0  0  0  0  0  0  0  0  0  0  0  0
   41.9236   21.9473   37.5103 H   0  0  0  0  0  0  0  0  0  0  0  0
   40.2723   23.0638   39.0764 H   0  0  0  0  0  0  0  0  0  0  0  0
   36.7762   23.3551   38.5268 H   0  0  0  0  0  0  0  0  0  0  0  0
   38.2201   22.1825   33.7158 H   0  0  0  0  0  0  0  0  0  0  0  0
  1  2  2  0
  3  2  1  0
  3  7  1  0
  4  3  2  0
  5  6  2  0
  5  4  1  0
  6  1  1  0
  7  8  2  0
  9  5  1  0
  1 10  1  0
  2 11  1  0
  7 12  1  0
  9 13  1  0
M  ISO  4  10  14  11  14  12   6  13   3
M  END
>  <minimizedAffinity>  (1) 
-2.95126224

>  <minimizedRMSD>  (1) 
1.16283

$$$$
