
     RDKit          3D

 14 14  0  0  0  0  0  0  0  0999 V2000
   40.5730   22.1730   37.2590 C   0  0  0  0  0  0  0  0  0  0  0  0
   39.8590   23.0260   38.1400 C   0  0  0  0  0  0  0  0  0  0  0  0
   38.6010   23.4760   37.7460 C   0  0  0  0  0  0  0  0  0  0  0  0
   38.1260   23.0810   36.5500 N   0  0  0  0  0  0  0  0  0  0  0  0
   38.8340   22.2660   35.7300 C   0  0  0  0  0  0  0  0  0  0  0  0
   40.0350   21.8220   36.0820 N   0  0  0  0  0  0  0  0  0  0  0  0
   38.3620   21.8500   34.5000 O   0  0  0  0  0  0  0  0  0  0  0  0
   37.8540   24.3690   38.6710 C   0  0  0  0  0  0  0  0  0  0  0  0
   41.5683   21.7995   37.5417 H   0  0  0  0  0  0  0  0  0  0  0  0
   40.2875   23.3239   39.1083 H   0  0  0  0  0  0  0  0  0  0  0  0
   37.4726   22.1490   34.1842 H   0  0  0  0  0  0  0  0  0  0  0  0
   38.0837   24.0944   39.7111 H   0  0  0  0  0  0  0  0  0  0  0  0
   38.1517   25.4129   38.4931 H   0  0  0  0  0  0  0  0  0  0  0  0
   36.7739   24.2604   38.4931 H   0  0  0  0  0  0  0  0  0  0  0  0
  1  2  2  0
  3  2  1  0
  3  8  1  0
  4  3  2  0
  5  6  2  0
  5  4  1  0
  6  1  1  0
  7  5  1  0
  1  9  1  0
  2 10  1  0
  7 11  1  0
  8 12  1  0
  8 13  1  0
  8 14  1  0
M  ISO  6   9  14  10  14  11   3  12   8  13   8  14   8
M  END
>  <minimizedAffinity>  (1) 
-2.94634533

>  <minimizedRMSD>  (1) 
0.789055705

$$$$
