
     RDKit          3D

 34 36  0  0  0  0  0  0  0  0999 V2000
   37.9150   23.8600   38.2540 C   0  0  0  0  0  0  0  0  0  0  0  0
   37.9890   25.1860   37.8050 C   0  0  0  0  0  0  0  0  0  0  0  0
   38.1970   25.4050   36.4410 C   0  0  0  0  0  0  0  0  0  0  0  0
   38.3190   24.3270   35.6100 N   0  0  0  0  0  0  0  0  0  0  0  0
   38.2400   23.0630   36.0940 C   0  0  0  0  0  0  0  0  0  0  0  0
   38.0390   22.8330   37.4070 N   0  0  0  0  0  0  0  0  0  0  0  0
   38.2700   26.7550   35.8520 C   0  0  0  0  0  0  0  0  0  0  0  0
   37.1330   27.0850   34.9370 C   0  0  0  0  0  0  0  0  0  0  0  0
   39.5910   26.9670   35.1140 C   0  0  0  0  0  0  0  0  0  0  0  0
   38.3540   21.9350   35.2840 O   0  0  0  0  0  0  0  0  0  0  0  0
   38.4250   22.0200   33.9000 C   0  0  0  0  0  0  0  0  0  0  0  0
   39.4890   22.5200   33.2340 N   0  0  0  0  0  0  0  0  0  0  0  0
   39.5320   22.5910   31.8840 C   0  0  0  0  0  0  0  0  0  0  0  0
   38.4720   22.1460   31.1510 N   0  0  0  0  0  0  0  0  0  0  0  0
   37.4110   21.6490   31.7970 C   0  0  0  0  0  0  0  0  0  0  0  0
   36.3190   21.1890   31.0710 C   0  0  0  0  0  0  0  0  0  0  0  0
   35.2230   20.6770   31.7070 C   0  0  0  0  0  0  0  0  0  0  0  0
   35.1540   20.5930   33.0940 C   0  0  0  0  0  0  0  0  0  0  0  0
   36.2360   21.0480   33.8150 C   0  0  0  0  0  0  0  0  0  0  0  0
   37.3370   21.5620   33.1860 C   0  0  0  0  0  0  0  0  0  0  0  0
   37.7518   23.6608   39.3234 H   0  0  0  0  0  0  0  0  0  0  0  0
   37.8864   26.0282   38.5052 H   0  0  0  0  0  0  0  0  0  0  0  0
   38.2019   27.4409   36.7093 H   0  0  0  0  0  0  0  0  0  0  0  0
   36.2453   27.3426   35.5334 H   0  0  0  0  0  0  0  0  0  0  0  0
   37.4093   27.9400   34.3025 H   0  0  0  0  0  0  0  0  0  0  0  0
   36.9086   26.2149   34.3025 H   0  0  0  0  0  0  0  0  0  0  0  0
   40.4026   27.0972   35.8450 H   0  0  0  0  0  0  0  0  0  0  0  0
   39.8030   26.0914   34.4828 H   0  0  0  0  0  0  0  0  0  0  0  0
   39.5184   27.8650   34.4828 H   0  0  0  0  0  0  0  0  0  0  0  0
   40.4175   23.0056   31.3801 H   0  0  0  0  0  0  0  0  0  0  0  0
   36.3369   21.2375   29.9722 H   0  0  0  0  0  0  0  0  0  0  0  0
   34.3727   20.3219   31.1062 H   0  0  0  0  0  0  0  0  0  0  0  0
   34.2677   20.1784   33.5966 H   0  0  0  0  0  0  0  0  0  0  0  0
   36.2145   20.9973   34.9136 H   0  0  0  0  0  0  0  0  0  0  0  0
  2  1  2  0
  3  2  1  0
  4  5  1  0
  4  3  2  0
  5  6  2  0
  6  1  1  0
  7  3  1  0
  8  7  1  0
  9  7  1  0
 10  5  1  0
 11 10  1  0
 12 11  2  0
 13 12  1  0
 14 15  1  0
 14 13  2  0
 15 20  2  0
 16 17  2  0
 16 15  1  0
 17 18  1  0
 18 19  2  0
 20 19  1  0
 20 11  1  0
  1 21  1  0
  2 22  1  0
  7 23  1  0
  8 24  1  0
  8 25  1  0
  8 26  1  0
  9 27  1  0
  9 28  1  0
  9 29  1  0
 13 30  1  0
 16 31  1  0
 17 32  1  0
 18 33  1  0
 19 34  1  0
M  ISO  8  21  14  22  14  23   8  24   8  25   8  26   8  27   8  28   8
M  ISO  6  29   8  30  14  31  14  32  14  33  14  34  14
M  END
>  <minimizedAffinity>  (1) 
-5.1711669

>  <minimizedRMSD>  (1) 
3.04822278

$$$$
