
     RDKit          3D

 34 36  0  0  0  0  0  0  0  0999 V2000
   38.6220   23.3610   38.2780 C   0  0  0  0  0  0  0  0  0  0  0  0
   37.9340   24.3940   37.6290 C   0  0  0  0  0  0  0  0  0  0  0  0
   38.4260   24.8260   36.3760 C   0  0  0  0  0  0  0  0  0  0  0  0
   39.5390   24.2250   35.8560 N   0  0  0  0  0  0  0  0  0  0  0  0
   40.1610   23.2290   36.5310 C   0  0  0  0  0  0  0  0  0  0  0  0
   39.7060   22.8030   37.7300 N   0  0  0  0  0  0  0  0  0  0  0  0
   37.7670   25.8910   35.6020 C   0  0  0  0  0  0  0  0  0  0  0  0
   37.6950   25.6120   34.1330 C   0  0  0  0  0  0  0  0  0  0  0  0
   38.4460   27.2410   35.8390 C   0  0  0  0  0  0  0  0  0  0  0  0
   41.2870   22.5850   36.0520 O   0  0  0  0  0  0  0  0  0  0  0  0
   41.8720   21.4670   36.6150 C   0  0  0  0  0  0  0  0  0  0  0  0
   42.0370   20.8820   37.8510 C   0  0  0  0  0  0  0  0  0  0  0  0
   42.7370   19.7380   37.7520 N   0  0  0  0  0  0  0  0  0  0  0  0
   43.0350   19.5630   36.4730 C   0  0  0  0  0  0  0  0  0  0  0  0
   43.7480   18.5050   35.9560 C   0  0  0  0  0  0  0  0  0  0  0  0
   43.9850   18.4510   34.5980 C   0  0  0  0  0  0  0  0  0  0  0  0
   43.4880   19.4720   33.8250 C   0  0  0  0  0  0  0  0  0  0  0  0
   42.7780   20.5220   34.3640 C   0  0  0  0  0  0  0  0  0  0  0  0
   42.5220   20.6070   35.7220 C   0  0  0  0  0  0  0  0  0  0  0  0
   38.2644   23.0030   39.2547 H   0  0  0  0  0  0  0  0  0  0  0  0
   37.0415   24.8534   38.0788 H   0  0  0  0  0  0  0  0  0  0  0  0
   36.7313   25.9244   35.9712 H   0  0  0  0  0  0  0  0  0  0  0  0
   37.4231   24.5582   33.9728 H   0  0  0  0  0  0  0  0  0  0  0  0
   36.9349   26.2608   33.6734 H   0  0  0  0  0  0  0  0  0  0  0  0
   38.6742   25.8119   33.6734 H   0  0  0  0  0  0  0  0  0  0  0  0
   38.5366   27.4211   36.9204 H   0  0  0  0  0  0  0  0  0  0  0  0
   39.4472   27.2328   35.3835 H   0  0  0  0  0  0  0  0  0  0  0  0
   37.8425   28.0400   35.3835 H   0  0  0  0  0  0  0  0  0  0  0  0
   41.6481   21.2954   38.7933 H   0  0  0  0  0  0  0  0  0  0  0  0
   42.9944   19.1122   38.5286 H   0  0  0  0  0  0  0  0  0  0  0  0
   44.1246   17.7115   36.6183 H   0  0  0  0  0  0  0  0  0  0  0  0
   44.5512   17.6208   34.1506 H   0  0  0  0  0  0  0  0  0  0  0  0
   43.6629   19.4503   32.7392 H   0  0  0  0  0  0  0  0  0  0  0  0
   42.4045   21.3138   33.6980 H   0  0  0  0  0  0  0  0  0  0  0  0
  2  1  2  0
  3  2  1  0
  4  3  2  0
  4  5  1  0
  5  6  2  0
  6  1  1  0
  7  9  1  0
  7  3  1  0
  8  7  1  0
 10  5  1  0
 10 11  1  0
 11 12  2  0
 13 12  1  0
 14 13  1  0
 15 14  2  0
 16 15  1  0
 17 18  1  0
 17 16  2  0
 18 19  2  0
 19 14  1  0
 19 11  1  0
  1 20  1  0
  2 21  1  0
  7 22  1  0
  8 23  1  0
  8 24  1  0
  8 25  1  0
  9 26  1  0
  9 27  1  0
  9 28  1  0
 12 29  1  0
 13 30  1  0
 15 31  1  0
 16 32  1  0
 17 33  1  0
 18 34  1  0
M  ISO  8  20  14  21  14  22   8  23   8  24   8  25   8  26   8  27   8
M  ISO  7  28   8  29  14  30   9  31  14  32  14  33  14  34  14
M  END
>  <minimizedAffinity>  (1) 
-4.61525679

>  <minimizedRMSD>  (1) 
0.629875898

$$$$
