
     RDKit          3D

 27 28  0  0  0  0  0  0  0  0999 V2000
   38.6760   23.3420   38.2910 C   0  0  0  0  0  0  0  0  0  0  0  0
   37.9810   24.3810   37.6580 C   0  0  0  0  0  0  0  0  0  0  0  0
   38.4390   24.8050   36.4060 C   0  0  0  0  0  0  0  0  0  0  0  0
   39.5380   24.1850   35.8630 N   0  0  0  0  0  0  0  0  0  0  0  0
   40.1630   23.1910   36.5170 C   0  0  0  0  0  0  0  0  0  0  0  0
   39.7390   22.7700   37.7240 N   0  0  0  0  0  0  0  0  0  0  0  0
   37.7820   25.8730   35.6340 C   0  0  0  0  0  0  0  0  0  0  0  0
   37.6920   25.6050   34.1640 C   0  0  0  0  0  0  0  0  0  0  0  0
   38.4620   27.2240   35.8660 C   0  0  0  0  0  0  0  0  0  0  0  0
   41.2800   22.5330   35.9980 O   0  0  0  0  0  0  0  0  0  0  0  0
   41.8750   21.4450   36.6190 C   0  0  0  0  0  0  0  0  0  0  0  0
   42.6680   20.5940   35.8490 C   0  0  0  0  0  0  0  0  0  0  0  0
   43.1180   19.6160   36.7280 C   0  0  0  0  0  0  0  0  0  0  0  0
   42.6280   19.8660   37.9340 N   0  0  0  0  0  0  0  0  0  0  0  0
   41.8810   20.9620   37.8760 N   0  0  0  0  0  0  0  0  0  0  0  0
   38.3376   22.9905   39.2769 H   0  0  0  0  0  0  0  0  0  0  0  0
   37.1040   24.8480   38.1300 H   0  0  0  0  0  0  0  0  0  0  0  0
   36.7502   25.8996   36.0143 H   0  0  0  0  0  0  0  0  0  0  0  0
   37.3457   24.5739   33.9998 H   0  0  0  0  0  0  0  0  0  0  0  0
   36.9806   26.3080   33.7060 H   0  0  0  0  0  0  0  0  0  0  0  0
   38.6835   25.7362   33.7060 H   0  0  0  0  0  0  0  0  0  0  0  0
   38.5542   27.4073   36.9467 H   0  0  0  0  0  0  0  0  0  0  0  0
   39.4625   27.2142   35.4090 H   0  0  0  0  0  0  0  0  0  0  0  0
   37.8580   28.0218   35.4090 H   0  0  0  0  0  0  0  0  0  0  0  0
   42.8899   20.6789   34.7750 H   0  0  0  0  0  0  0  0  0  0  0  0
   43.7735   18.7725   36.4658 H   0  0  0  0  0  0  0  0  0  0  0  0
   42.7990   19.3018   38.7786 H   0  0  0  0  0  0  0  0  0  0  0  0
  2  1  2  0
  3  2  1  0
  4  3  2  0
  4  5  1  0
  5  6  2  0
  6  1  1  0
  7  9  1  0
  7  3  1  0
  8  7  1  0
 10  5  1  0
 10 11  1  0
 11 15  2  0
 12 11  1  0
 12 13  2  0
 13 14  1  0
 15 14  1  0
  1 16  1  0
  2 17  1  0
  7 18  1  0
  8 19  1  0
  8 20  1  0
  8 21  1  0
  9 22  1  0
  9 23  1  0
  9 24  1  0
 12 25  1  0
 13 26  1  0
 14 27  1  0
M  ISO  8  16  14  17  14  18   8  19   8  20   8  21   8  22   8  23   8
M  ISO  4  24   8  25  14  26  14  27   9
M  END
>  <minimizedAffinity>  (1) 
-4.48402452

>  <minimizedRMSD>  (1) 
0.242700994

$$$$
