
     RDKit          3D

 29 30  0  0  0  0  0  0  0  0999 V2000
   38.7130   23.3380   38.4590 C   0  0  0  0  0  0  0  0  0  0  0  0
   38.0030   24.3490   37.7750 C   0  0  0  0  0  0  0  0  0  0  0  0
   38.4690   24.6960   36.5050 C   0  0  0  0  0  0  0  0  0  0  0  0
   39.5500   24.0650   36.0020 N   0  0  0  0  0  0  0  0  0  0  0  0
   40.2120   23.0940   36.6850 C   0  0  0  0  0  0  0  0  0  0  0  0
   39.7780   22.7430   37.9150 N   0  0  0  0  0  0  0  0  0  0  0  0
   37.7850   25.7160   35.6730 C   0  0  0  0  0  0  0  0  0  0  0  0
   37.8260   25.4170   34.2050 C   0  0  0  0  0  0  0  0  0  0  0  0
   38.3580   27.1110   35.9190 C   0  0  0  0  0  0  0  0  0  0  0  0
   41.3090   22.4430   36.1890 O   0  0  0  0  0  0  0  0  0  0  0  0
   42.5760   22.9290   36.2640 C   0  0  0  0  0  0  0  0  0  0  0  0
   43.2730   24.0580   36.6150 C   0  0  0  0  0  0  0  0  0  0  0  0
   44.6290   24.1920   36.5580 C   0  0  0  0  0  0  0  0  0  0  0  0
   45.3720   23.1170   36.1180 C   0  0  0  0  0  0  0  0  0  0  0  0
   44.7070   21.9780   35.7640 C   0  0  0  0  0  0  0  0  0  0  0  0
   43.3620   21.8910   35.8350 N   0  0  0  0  0  0  0  0  0  0  0  0
   38.3815   23.0335   39.4627 H   0  0  0  0  0  0  0  0  0  0  0  0
   37.1252   24.8396   38.2210 H   0  0  0  0  0  0  0  0  0  0  0  0
   36.7314   25.6845   35.9874 H   0  0  0  0  0  0  0  0  0  0  0  0
   37.9740   24.3374   34.0547 H   0  0  0  0  0  0  0  0  0  0  0  0
   36.8772   25.7250   33.7414 H   0  0  0  0  0  0  0  0  0  0  0  0
   38.6568   25.9691   33.7414 H   0  0  0  0  0  0  0  0  0  0  0  0
   38.4321   27.2913   37.0016 H   0  0  0  0  0  0  0  0  0  0  0  0
   39.3580   27.1817   35.4662 H   0  0  0  0  0  0  0  0  0  0  0  0
   37.6964   27.8642   35.4662 H   0  0  0  0  0  0  0  0  0  0  0  0
   42.6926   24.9223   36.9700 H   0  0  0  0  0  0  0  0  0  0  0  0
   45.1167   25.1322   36.8550 H   0  0  0  0  0  0  0  0  0  0  0  0
   46.4686   23.1752   36.0540 H   0  0  0  0  0  0  0  0  0  0  0  0
   45.2823   21.1091   35.4119 H   0  0  0  0  0  0  0  0  0  0  0  0
  2  1  2  0
  3  2  1  0
  4  3  2  0
  4  5  1  0
  5  6  2  0
  6  1  1  0
  7  9  1  0
  7  3  1  0
  8  7  1  0
 10 11  1  0
 10  5  1  0
 11 12  2  0
 13 12  1  0
 14 13  2  0
 15 16  2  0
 15 14  1  0
 16 11  1  0
  1 17  1  0
  2 18  1  0
  7 19  1  0
  8 20  1  0
  8 21  1  0
  8 22  1  0
  9 23  1  0
  9 24  1  0
  9 25  1  0
 12 26  1  0
 13 27  1  0
 14 28  1  0
 15 29  1  0
M  ISO  8  17  14  18  14  19   8  20   8  21   8  22   8  23   8  24   8
M  ISO  5  25   8  26  14  27  14  28  14  29  14
M  END
>  <minimizedAffinity>  (1) 
-4.41301775

>  <minimizedRMSD>  (1) 
2.11882257

$$$$
