
     RDKit          3D

 31 33  0  0  0  0  0  0  0  0999 V2000
   41.6380   21.4540   37.0680 C   0  0  0  0  0  0  0  0  0  0  0  0
   40.3580   21.9750   36.8180 C   0  0  0  0  0  0  0  0  0  0  0  0
   40.2750   23.2610   36.2750 C   0  0  0  0  0  0  0  0  0  0  0  0
   41.4270   23.9260   36.0220 N   0  0  0  0  0  0  0  0  0  0  0  0
   42.6340   23.3840   36.2780 C   0  0  0  0  0  0  0  0  0  0  0  0
   42.7410   22.1570   36.7990 N   0  0  0  0  0  0  0  0  0  0  0  0
   38.9900   23.9140   35.9420 C   0  0  0  0  0  0  0  0  0  0  0  0
   39.1410   25.2710   35.3300 C   0  0  0  0  0  0  0  0  0  0  0  0
   38.0690   23.9880   37.1590 C   0  0  0  0  0  0  0  0  0  0  0  0
   43.8320   24.0510   36.0220 O   0  0  0  0  0  0  0  0  0  0  0  0
   47.9930   23.9180   37.7850 N   0  0  0  0  0  0  0  0  0  0  0  0
   47.8590   23.0540   36.7600 C   0  0  0  0  0  0  0  0  0  0  0  0
   46.6000   23.1660   36.3070 N   0  0  0  0  0  0  0  0  0  0  0  0
   45.9320   24.1030   37.0430 C   0  0  0  0  0  0  0  0  0  0  0  0
   44.6260   24.5940   36.9910 C   0  0  0  0  0  0  0  0  0  0  0  0
   44.2950   25.5510   37.9060 N   0  0  0  0  0  0  0  0  0  0  0  0
   45.2130   25.9820   38.8070 C   0  0  0  0  0  0  0  0  0  0  0  0
   46.4820   25.5120   38.8660 N   0  0  0  0  0  0  0  0  0  0  0  0
   46.8430   24.5730   37.9870 C   0  0  0  0  0  0  0  0  0  0  0  0
   41.7341   20.4447   37.4948 H   0  0  0  0  0  0  0  0  0  0  0  0
   39.4524   21.3919   37.0415 H   0  0  0  0  0  0  0  0  0  0  0  0
   38.5314   23.2713   35.1761 H   0  0  0  0  0  0  0  0  0  0  0  0
   39.2249   26.0251   36.1264 H   0  0  0  0  0  0  0  0  0  0  0  0
   40.0472   25.2934   34.7068 H   0  0  0  0  0  0  0  0  0  0  0  0
   38.2619   25.4921   34.7068 H   0  0  0  0  0  0  0  0  0  0  0  0
   38.6713   23.9396   38.0781 H   0  0  0  0  0  0  0  0  0  0  0  0
   37.5082   24.9341   37.1375 H   0  0  0  0  0  0  0  0  0  0  0  0
   37.3644   23.1436   37.1375 H   0  0  0  0  0  0  0  0  0  0  0  0
   48.8543   24.0546   38.3331 H   0  0  0  0  0  0  0  0  0  0  0  0
   48.6363   22.3819   36.3673 H   0  0  0  0  0  0  0  0  0  0  0  0
   44.9105   26.7550   39.5287 H   0  0  0  0  0  0  0  0  0  0  0  0
  2  1  2  0
  3  2  1  0
  4  3  2  0
  4  5  1  0
  5  6  2  0
  6  1  1  0
  7  3  1  0
  7  9  1  0
  8  7  1  0
 10  5  1  0
 10 15  1  0
 11 19  1  0
 12 11  1  0
 13 12  2  0
 13 14  1  0
 14 19  2  0
 15 14  1  0
 15 16  2  0
 16 17  1  0
 17 18  2  0
 19 18  1  0
  1 20  1  0
  2 21  1  0
  7 22  1  0
  8 23  1  0
  8 24  1  0
  8 25  1  0
  9 26  1  0
  9 27  1  0
  9 28  1  0
 11 29  1  0
 12 30  1  0
 17 31  1  0
M  ISO  8  20  14  21  14  22   8  23   8  24   8  25   8  26   8  27   8
M  ISO  4  28   8  29   9  30  14  31  14
M  END
>  <minimizedAffinity>  (1) 
-4.2788825

>  <minimizedRMSD>  (1) 
4.05357265

$$$$
