
     RDKit          3D

 27 28  0  0  0  0  0  0  0  0999 V2000
   37.6240   23.3150   37.2120 C   0  0  0  0  0  0  0  0  0  0  0  0
   37.9470   24.6780   37.1920 C   0  0  0  0  0  0  0  0  0  0  0  0
   38.3590   25.2310   35.9760 C   0  0  0  0  0  0  0  0  0  0  0  0
   38.4290   24.4260   34.8670 N   0  0  0  0  0  0  0  0  0  0  0  0
   38.1030   23.1170   34.9490 C   0  0  0  0  0  0  0  0  0  0  0  0
   37.7030   22.5600   36.1120 N   0  0  0  0  0  0  0  0  0  0  0  0
   38.7040   26.6570   35.8220 C   0  0  0  0  0  0  0  0  0  0  0  0
   37.6030   27.4980   35.2630 C   0  0  0  0  0  0  0  0  0  0  0  0
   39.9740   26.8360   34.9890 C   0  0  0  0  0  0  0  0  0  0  0  0
   38.1580   22.2660   33.8460 O   0  0  0  0  0  0  0  0  0  0  0  0
   37.0900   22.0000   33.0390 C   0  0  0  0  0  0  0  0  0  0  0  0
   36.6360   22.3510   31.7670 C   0  0  0  0  0  0  0  0  0  0  0  0
   35.4500   21.7140   31.5500 N   0  0  0  0  0  0  0  0  0  0  0  0
   35.1660   20.9890   32.6400 C   0  0  0  0  0  0  0  0  0  0  0  0
   36.1630   21.1590   33.5530 N   0  0  0  0  0  0  0  0  0  0  0  0
   37.2973   22.8549   38.1562 H   0  0  0  0  0  0  0  0  0  0  0  0
   37.8788   25.2921   38.1021 H   0  0  0  0  0  0  0  0  0  0  0  0
   38.8805   27.0175   36.8462 H   0  0  0  0  0  0  0  0  0  0  0  0
   37.0244   27.9400   36.0876 H   0  0  0  0  0  0  0  0  0  0  0  0
   38.0322   28.3004   34.6449 H   0  0  0  0  0  0  0  0  0  0  0  0
   36.9418   26.8729   34.6449 H   0  0  0  0  0  0  0  0  0  0  0  0
   40.8378   26.9578   35.6590 H   0  0  0  0  0  0  0  0  0  0  0  0
   40.1242   25.9501   34.3544 H   0  0  0  0  0  0  0  0  0  0  0  0
   39.8735   27.7289   34.3544 H   0  0  0  0  0  0  0  0  0  0  0  0
   37.1460   23.0242   31.0622 H   0  0  0  0  0  0  0  0  0  0  0  0
   34.2741   20.3596   32.7757 H   0  0  0  0  0  0  0  0  0  0  0  0
   36.2043   20.7188   34.4833 H   0  0  0  0  0  0  0  0  0  0  0  0
  2  1  2  0
  3  2  1  0
  4  5  1  0
  4  3  2  0
  5  6  2  0
  6  1  1  0
  7  3  1  0
  8  7  1  0
  9  7  1  0
 10  5  1  0
 11 15  1  0
 11 10  1  0
 12 11  2  0
 13 12  1  0
 13 14  2  0
 14 15  1  0
  1 16  1  0
  2 17  1  0
  7 18  1  0
  8 19  1  0
  8 20  1  0
  8 21  1  0
  9 22  1  0
  9 23  1  0
  9 24  1  0
 12 25  1  0
 14 26  1  0
 15 27  1  0
M  ISO  8  16  14  17  14  18   8  19   8  20   8  21   8  22   8  23   8
M  ISO  4  24   8  25  14  26  14  27   9
M  END
>  <minimizedAffinity>  (1) 
-4.25996161

>  <minimizedRMSD>  (1) 
4.99433327

$$$$
