
     RDKit          3D

 32 33  0  0  1  0  0  0  0  0999 V2000
   38.6940   23.3580   38.2560 C   0  0  0  0  0  0  0  0  0  0  0  0
   38.0040   24.4250   37.6750 C   0  0  0  0  0  0  0  0  0  0  0  0
   38.4200   24.8720   36.4110 C   0  0  0  0  0  0  0  0  0  0  0  0
   39.4810   24.2440   35.8080 N   0  0  0  0  0  0  0  0  0  0  0  0
   40.1180   23.2090   36.4170 C   0  0  0  0  0  0  0  0  0  0  0  0
   39.7180   22.7760   37.6370 N   0  0  0  0  0  0  0  0  0  0  0  0
   37.7520   25.9730   35.6950 C   0  0  0  0  0  0  0  0  0  0  0  0
   37.5660   25.7230   34.2300 C   0  0  0  0  0  0  0  0  0  0  0  0
   38.4960   27.2920   35.9080 C   0  0  0  0  0  0  0  0  0  0  0  0
   41.1850   22.5510   35.8400 O   0  0  0  0  0  0  0  0  0  0  0  0
   41.7660   20.7050   37.1170 N   0  0  0  0  0  0  0  0  0  0  0  0
   42.9830   19.9790   37.3470 C   0  0  0  0  0  0  0  0  0  0  0  0
   43.9620   20.4470   36.2830 C   0  0  0  0  0  0  0  0  0  0  0  0
   43.5050   21.8560   35.9590 C   0  0  0  0  0  0  0  0  0  0  0  0
   42.1830   21.9990   36.6620 C   0  0  1  0  0  0  0  0  0  0  0  0
   38.3842   22.9915   39.2458 H   0  0  0  0  0  0  0  0  0  0  0  0
   37.1587   24.9013   38.1934 H   0  0  0  0  0  0  0  0  0  0  0  0
   36.7441   26.0368   36.1311 H   0  0  0  0  0  0  0  0  0  0  0  0
   36.9150   24.8479   34.0871 H   0  0  0  0  0  0  0  0  0  0  0  0
   37.1026   26.6048   33.7635 H   0  0  0  0  0  0  0  0  0  0  0  0
   38.5438   25.5326   33.7635 H   0  0  0  0  0  0  0  0  0  0  0  0
   38.6034   27.4824   36.9861 H   0  0  0  0  0  0  0  0  0  0  0  0
   39.4921   27.2299   35.4456 H   0  0  0  0  0  0  0  0  0  0  0  0
   37.9276   28.1124   35.4456 H   0  0  0  0  0  0  0  0  0  0  0  0
   41.1953   20.2359   36.3992 H   0  0  0  0  0  0  0  0  0  0  0  0
   43.3755   20.2004   38.3505 H   0  0  0  0  0  0  0  0  0  0  0  0
   42.8189   18.8927   37.2914 H   0  0  0  0  0  0  0  0  0  0  0  0
   44.9909   20.4493   36.6721 H   0  0  0  0  0  0  0  0  0  0  0  0
   43.9728   19.7916   35.3997 H   0  0  0  0  0  0  0  0  0  0  0  0
   44.2273   22.5947   36.3367 H   0  0  0  0  0  0  0  0  0  0  0  0
   43.4214   22.0280   34.8757 H   0  0  0  0  0  0  0  0  0  0  0  0
   42.3227   22.6926   37.5043 H   0  0  0  0  0  0  0  0  0  0  0  0
  2  1  2  0
  3  2  1  0
  4  3  2  0
  4  5  1  0
  5  6  2  0
  6  1  1  0
  7  9  1  0
  7  3  1  0
  8  7  1  0
 10  5  1  0
 11 12  1  0
 13 12  1  0
 14 13  1  0
 14 15  1  0
 15 10  1  0
 15 11  1  0
  1 16  1  0
  2 17  1  0
  7 18  1  0
  8 19  1  0
  8 20  1  0
  8 21  1  0
  9 22  1  0
  9 23  1  0
  9 24  1  0
 11 25  1  0
 12 26  1  0
 12 27  1  0
 13 28  1  0
 13 29  1  0
 14 30  1  0
 14 31  1  0
 15 32  1  1
M  ISO  8  16  14  17  14  18   8  19   8  20   8  21   8  22   8  23   8
M  ISO  8  24   8  25   5  26  13  27  13  28  13  29  13  30  13  31  13
M  ISO  1  32  13
M  END
>  <minimizedAffinity>  (1) 
-4.20698023

>  <minimizedRMSD>  (1) 
0.726309061

$$$$
