
     RDKit          3D

 27 28  0  0  0  0  0  0  0  0999 V2000
   38.6910   23.3680   38.4730 C   0  0  0  0  0  0  0  0  0  0  0  0
   37.9990   24.3710   37.7830 C   0  0  0  0  0  0  0  0  0  0  0  0
   38.4430   24.7070   36.5010 C   0  0  0  0  0  0  0  0  0  0  0  0
   39.5260   24.0480   35.9760 N   0  0  0  0  0  0  0  0  0  0  0  0
   40.1480   23.0860   36.6970 C   0  0  0  0  0  0  0  0  0  0  0  0
   39.7420   22.7480   37.9270 N   0  0  0  0  0  0  0  0  0  0  0  0
   37.7830   25.7320   35.6640 C   0  0  0  0  0  0  0  0  0  0  0  0
   37.8070   25.4350   34.2000 C   0  0  0  0  0  0  0  0  0  0  0  0
   38.3640   27.1220   35.9290 C   0  0  0  0  0  0  0  0  0  0  0  0
   41.2540   22.3900   36.1940 O   0  0  0  0  0  0  0  0  0  0  0  0
   42.5380   22.8540   36.2710 C   0  0  0  0  0  0  0  0  0  0  0  0
   43.5280   21.9730   35.8310 C   0  0  0  0  0  0  0  0  0  0  0  0
   44.7580   22.6170   35.9860 C   0  0  0  0  0  0  0  0  0  0  0  0
   44.4360   23.8660   36.5170 C   0  0  0  0  0  0  0  0  0  0  0  0
   43.1340   23.9560   36.6660 O   0  0  0  0  0  0  0  0  0  0  0  0
   38.3633   23.0847   39.4841 H   0  0  0  0  0  0  0  0  0  0  0  0
   37.1340   24.8781   38.2353 H   0  0  0  0  0  0  0  0  0  0  0  0
   36.7255   25.7110   35.9662 H   0  0  0  0  0  0  0  0  0  0  0  0
   37.8947   24.3492   34.0475 H   0  0  0  0  0  0  0  0  0  0  0  0
   36.8767   25.7962   33.7373 H   0  0  0  0  0  0  0  0  0  0  0  0
   38.6672   25.9409   33.7373 H   0  0  0  0  0  0  0  0  0  0  0  0
   38.4340   27.2894   37.0139 H   0  0  0  0  0  0  0  0  0  0  0  0
   39.3666   27.1917   35.4818 H   0  0  0  0  0  0  0  0  0  0  0  0
   37.7092   27.8844   35.4818 H   0  0  0  0  0  0  0  0  0  0  0  0
   43.3688   20.9590   35.4354 H   0  0  0  0  0  0  0  0  0  0  0  0
   45.7573   22.2263   35.7435 H   0  0  0  0  0  0  0  0  0  0  0  0
   45.1603   24.6537   36.7716 H   0  0  0  0  0  0  0  0  0  0  0  0
  2  1  2  0
  3  2  1  0
  4  3  2  0
  4  5  1  0
  5  6  2  0
  6  1  1  0
  7  9  1  0
  7  3  1  0
  8  7  1  0
 10 11  1  0
 10  5  1  0
 11 15  1  0
 12 13  1  0
 12 11  2  0
 13 14  2  0
 14 15  1  0
  1 16  1  0
  2 17  1  0
  7 18  1  0
  8 19  1  0
  8 20  1  0
  8 21  1  0
  9 22  1  0
  9 23  1  0
  9 24  1  0
 12 25  1  0
 13 26  1  0
 14 27  1  0
M  ISO  8  16  14  17  14  18   8  19   8  20   8  21   8  22   8  23   8
M  ISO  4  24   8  25  14  26  14  27  14
M  END
>  <minimizedAffinity>  (1) 
-4.17891073

>  <minimizedRMSD>  (1) 
2.0448916

$$$$
