
     RDKit          3D

 28 29  0  0  0  0  0  0  0  0999 V2000
   38.6520   23.4510   38.5020 C   0  0  0  0  0  0  0  0  0  0  0  0
   38.0220   24.5010   37.8210 C   0  0  0  0  0  0  0  0  0  0  0  0
   38.3650   24.7120   36.4810 C   0  0  0  0  0  0  0  0  0  0  0  0
   39.2900   23.8920   35.8980 N   0  0  0  0  0  0  0  0  0  0  0  0
   39.8770   22.8820   36.5950 C   0  0  0  0  0  0  0  0  0  0  0  0
   39.5500   22.6770   37.8850 N   0  0  0  0  0  0  0  0  0  0  0  0
   37.7370   25.7750   35.6650 C   0  0  0  0  0  0  0  0  0  0  0  0
   37.7450   25.4930   34.1960 C   0  0  0  0  0  0  0  0  0  0  0  0
   38.3750   27.1350   35.9400 C   0  0  0  0  0  0  0  0  0  0  0  0
   40.8060   22.0430   36.0290 O   0  0  0  0  0  0  0  0  0  0  0  0
   42.1670   22.1890   36.0320 C   0  0  0  0  0  0  0  0  0  0  0  0
   43.2860   21.4230   35.7890 C   0  0  0  0  0  0  0  0  0  0  0  0
   44.5600   21.9310   35.8950 C   0  0  0  0  0  0  0  0  0  0  0  0
   44.7090   23.2190   36.2480 N   0  0  0  0  0  0  0  0  0  0  0  0
   43.6530   23.9970   36.4930 C   0  0  0  0  0  0  0  0  0  0  0  0
   42.3900   23.4930   36.3880 N   0  0  0  0  0  0  0  0  0  0  0  0
   38.4046   23.2615   39.5569 H   0  0  0  0  0  0  0  0  0  0  0  0
   37.2809   25.1395   38.3241 H   0  0  0  0  0  0  0  0  0  0  0  0
   36.6823   25.7952   35.9769 H   0  0  0  0  0  0  0  0  0  0  0  0
   37.7758   24.4058   34.0315 H   0  0  0  0  0  0  0  0  0  0  0  0
   36.8347   25.9074   33.7381 H   0  0  0  0  0  0  0  0  0  0  0  0
   38.6303   25.9584   33.7381 H   0  0  0  0  0  0  0  0  0  0  0  0
   38.4489   27.2925   37.0262 H   0  0  0  0  0  0  0  0  0  0  0  0
   39.3810   27.1646   35.4960 H   0  0  0  0  0  0  0  0  0  0  0  0
   37.7547   27.9275   35.4960 H   0  0  0  0  0  0  0  0  0  0  0  0
   43.1563   20.3695   35.5004 H   0  0  0  0  0  0  0  0  0  0  0  0
   45.4367   21.2974   35.6954 H   0  0  0  0  0  0  0  0  0  0  0  0
   43.8016   25.0483   36.7806 H   0  0  0  0  0  0  0  0  0  0  0  0
  2  1  2  0
  3  2  1  0
  4  3  2  0
  4  5  1  0
  5  6  2  0
  6  1  1  0
  7  9  1  0
  7  3  1  0
  8  7  1  0
 10 11  1  0
 10  5  1  0
 11 16  2  0
 12 13  2  0
 12 11  1  0
 13 14  1  0
 14 15  2  0
 16 15  1  0
  1 17  1  0
  2 18  1  0
  7 19  1  0
  8 20  1  0
  8 21  1  0
  8 22  1  0
  9 23  1  0
  9 24  1  0
  9 25  1  0
 12 26  1  0
 13 27  1  0
 15 28  1  0
M  ISO  8  17  14  18  14  19   8  20   8  21   8  22   8  23   8  24   8
M  ISO  4  25   8  26  14  27  14  28  14
M  END
>  <minimizedAffinity>  (1) 
-4.15892076

>  <minimizedRMSD>  (1) 
2.16907907

$$$$
