
     RDKit          3D

 24 24  0  0  0  0  0  0  0  0999 V2000
   38.5390   23.5460   38.5840 C   0  0  0  0  0  0  0  0  0  0  0  0
   37.9430   24.5780   37.8480 C   0  0  0  0  0  0  0  0  0  0  0  0
   38.3410   24.7530   36.5200 C   0  0  0  0  0  0  0  0  0  0  0  0
   39.2890   23.9160   35.9910 N   0  0  0  0  0  0  0  0  0  0  0  0
   39.8240   22.9360   36.7590 C   0  0  0  0  0  0  0  0  0  0  0  0
   39.4690   22.7400   38.0320 N   0  0  0  0  0  0  0  0  0  0  0  0
   37.7610   25.7950   35.6430 C   0  0  0  0  0  0  0  0  0  0  0  0
   37.8190   25.4540   34.1870 C   0  0  0  0  0  0  0  0  0  0  0  0
   38.4230   27.1510   35.8860 C   0  0  0  0  0  0  0  0  0  0  0  0
   40.7930   22.0590   36.2550 O   0  0  0  0  0  0  0  0  0  0  0  0
   41.9700   21.7650   36.9150 C   0  0  0  0  0  0  0  0  0  0  0  0
   41.6950   20.8000   37.9520 N   0  0  0  0  0  0  0  0  0  0  0  0
   43.1030   22.2440   36.6760 O   0  0  0  0  0  0  0  0  0  0  0  0
   38.2430   23.3899   39.6319 H   0  0  0  0  0  0  0  0  0  0  0  0
   37.1838   25.2317   38.3022 H   0  0  0  0  0  0  0  0  0  0  0  0
   36.6968   25.8499   35.9159 H   0  0  0  0  0  0  0  0  0  0  0  0
   38.0024   24.3757   34.0700 H   0  0  0  0  0  0  0  0  0  0  0  0
   36.8632   25.7172   33.7104 H   0  0  0  0  0  0  0  0  0  0  0  0
   38.6340   26.0184   33.7104 H   0  0  0  0  0  0  0  0  0  0  0  0
   38.5095   27.3281   36.9682 H   0  0  0  0  0  0  0  0  0  0  0  0
   39.4251   27.1564   35.4323 H   0  0  0  0  0  0  0  0  0  0  0  0
   37.8109   27.9444   35.4323 H   0  0  0  0  0  0  0  0  0  0  0  0
   42.4583   20.4588   38.5535 H   0  0  0  0  0  0  0  0  0  0  0  0
   40.7354   20.4524   38.0907 H   0  0  0  0  0  0  0  0  0  0  0  0
  2  1  2  0
  3  2  1  0
  4  3  2  0
  4  5  1  0
  5  6  2  0
  6  1  1  0
  7  9  1  0
  7  3  1  0
  8  7  1  0
 10  5  1  0
 10 11  1  0
 11 12  1  0
 13 11  2  0
  1 14  1  0
  2 15  1  0
  7 16  1  0
  8 17  1  0
  8 18  1  0
  8 19  1  0
  9 20  1  0
  9 21  1  0
  9 22  1  0
 12 23  1  0
 12 24  1  0
M  ISO  8  14  14  15  14  16   8  17   8  18   8  19   8  20   8  21   8
M  ISO  1  22   8
M  END
>  <minimizedAffinity>  (1) 
-4.10930824

>  <minimizedRMSD>  (1) 
0.820843399

$$$$
