
     RDKit          3D

 32 32  0  0  0  0  0  0  0  0999 V2000
   38.6130   23.4860   38.5190 C   0  0  0  0  0  0  0  0  0  0  0  0
   38.0340   24.5770   37.8470 C   0  0  0  0  0  0  0  0  0  0  0  0
   38.3430   24.7430   36.4930 C   0  0  0  0  0  0  0  0  0  0  0  0
   39.1840   23.8430   35.8870 N   0  0  0  0  0  0  0  0  0  0  0  0
   39.7110   22.8090   36.5830 C   0  0  0  0  0  0  0  0  0  0  0  0
   39.4290   22.6280   37.8930 N   0  0  0  0  0  0  0  0  0  0  0  0
   37.7820   25.8300   35.6800 C   0  0  0  0  0  0  0  0  0  0  0  0
   37.7450   25.5480   34.2110 C   0  0  0  0  0  0  0  0  0  0  0  0
   38.5070   27.1510   35.9340 C   0  0  0  0  0  0  0  0  0  0  0  0
   40.5650   21.8770   36.0040 O   0  0  0  0  0  0  0  0  0  0  0  0
   41.9250   21.7790   36.2560 C   0  0  0  0  0  0  0  0  0  0  0  0
   42.4390   23.1830   36.5410 C   0  0  0  0  0  0  0  0  0  0  0  0
   42.3030   20.8680   37.3860 C   0  0  0  0  0  0  0  0  0  0  0  0
   42.5740   21.2400   34.9820 C   0  0  0  0  0  0  0  0  0  0  0  0
   38.3903   23.3334   39.5853 H   0  0  0  0  0  0  0  0  0  0  0  0
   37.3620   25.2751   38.3676 H   0  0  0  0  0  0  0  0  0  0  0  0
   36.7357   25.9106   36.0097 H   0  0  0  0  0  0  0  0  0  0  0  0
   37.6035   24.4694   34.0482 H   0  0  0  0  0  0  0  0  0  0  0  0
   36.9116   26.1005   33.7524 H   0  0  0  0  0  0  0  0  0  0  0  0
   38.6927   25.8668   33.7524 H   0  0  0  0  0  0  0  0  0  0  0  0
   38.5980   27.3168   37.0176 H   0  0  0  0  0  0  0  0  0  0  0  0
   39.5098   27.1114   35.4836 H   0  0  0  0  0  0  0  0  0  0  0  0
   37.9351   27.9757   35.4836 H   0  0  0  0  0  0  0  0  0  0  0  0
   42.4961   23.3389   37.6284 H   0  0  0  0  0  0  0  0  0  0  0  0
   43.4396   23.3036   36.1003 H   0  0  0  0  0  0  0  0  0  0  0  0
   41.7528   23.9212   36.1003 H   0  0  0  0  0  0  0  0  0  0  0  0
   42.0960   21.3670   38.3442 H   0  0  0  0  0  0  0  0  0  0  0  0
   41.7156   19.9402   37.3213 H   0  0  0  0  0  0  0  0  0  0  0  0
   43.3747   20.6287   37.3213 H   0  0  0  0  0  0  0  0  0  0  0  0
   43.3949   20.5582   35.2489 H   0  0  0  0  0  0  0  0  0  0  0  0
   41.8233   20.6960   34.3900 H   0  0  0  0  0  0  0  0  0  0  0  0
   42.9710   22.0778   34.3900 H   0  0  0  0  0  0  0  0  0  0  0  0
  2  1  2  0
  3  2  1  0
  4  3  2  0
  4  5  1  0
  5  6  2  0
  6  1  1  0
  7  9  1  0
  7  3  1  0
  8  7  1  0
 10 11  1  0
 10  5  1  0
 11 12  1  0
 11 13  1  0
 14 11  1  0
  1 15  1  0
  2 16  1  0
  7 17  1  0
  8 18  1  0
  8 19  1  0
  8 20  1  0
  9 21  1  0
  9 22  1  0
  9 23  1  0
 12 24  1  0
 12 25  1  0
 12 26  1  0
 13 27  1  0
 13 28  1  0
 13 29  1  0
 14 30  1  0
 14 31  1  0
 14 32  1  0
M  ISO  8  15  14  16  14  17   8  18   8  19   8  20   8  21   8  22   8
M  ISO  8  23   8  24   8  25   8  26   8  27   8  28   8  29   8  30   8
M  ISO  2  31   8  32   8
M  END
>  <minimizedAffinity>  (1) 
-4.06384563

>  <minimizedRMSD>  (1) 
0.812864721

$$$$
