
     RDKit          3D

 23 23  0  0  0  0  0  0  0  0999 V2000
   38.6500   23.4220   38.5200 C   0  0  0  0  0  0  0  0  0  0  0  0
   37.9850   24.4220   37.8060 C   0  0  0  0  0  0  0  0  0  0  0  0
   38.4300   24.7150   36.5120 C   0  0  0  0  0  0  0  0  0  0  0  0
   39.4850   24.0130   36.0110 N   0  0  0  0  0  0  0  0  0  0  0  0
   40.0900   23.0550   36.7440 C   0  0  0  0  0  0  0  0  0  0  0  0
   39.6930   22.7490   37.9820 N   0  0  0  0  0  0  0  0  0  0  0  0
   37.7860   25.7410   35.6640 C   0  0  0  0  0  0  0  0  0  0  0  0
   37.8220   25.4210   34.2070 C   0  0  0  0  0  0  0  0  0  0  0  0
   38.3810   27.1250   35.9200 C   0  0  0  0  0  0  0  0  0  0  0  0
   41.1730   22.3130   36.2620 O   0  0  0  0  0  0  0  0  0  0  0  0
   41.3140   21.9140   34.9250 C   0  0  0  0  0  0  0  0  0  0  0  0
   38.3189   23.1770   39.5400 H   0  0  0  0  0  0  0  0  0  0  0  0
   37.1359   24.9636   38.2484 H   0  0  0  0  0  0  0  0  0  0  0  0
   36.7260   25.7442   35.9579 H   0  0  0  0  0  0  0  0  0  0  0  0
   37.9441   24.3361   34.0728 H   0  0  0  0  0  0  0  0  0  0  0  0
   36.8817   25.7451   33.7371 H   0  0  0  0  0  0  0  0  0  0  0  0
   38.6668   25.9459   33.7371 H   0  0  0  0  0  0  0  0  0  0  0  0
   38.4551   27.2975   37.0039 H   0  0  0  0  0  0  0  0  0  0  0  0
   39.3832   27.1822   35.4702 H   0  0  0  0  0  0  0  0  0  0  0  0
   37.7330   27.8916   35.4702 H   0  0  0  0  0  0  0  0  0  0  0  0
   41.6803   20.8774   34.8884 H   0  0  0  0  0  0  0  0  0  0  0  0
   40.3393   21.9765   34.4189 H   0  0  0  0  0  0  0  0  0  0  0  0
   42.0330   22.5751   34.4189 H   0  0  0  0  0  0  0  0  0  0  0  0
  2  1  2  0
  3  2  1  0
  4  3  2  0
  4  5  1  0
  5  6  2  0
  6  1  1  0
  7  9  1  0
  7  3  1  0
  8  7  1  0
 10  5  1  0
 11 10  1  0
  1 12  1  0
  2 13  1  0
  7 14  1  0
  8 15  1  0
  8 16  1  0
  8 17  1  0
  9 18  1  0
  9 19  1  0
  9 20  1  0
 11 21  1  0
 11 22  1  0
 11 23  1  0
M  ISO  8  12  14  13  14  14   8  15   8  16   8  17   8  18   8  19   8
M  ISO  4  20   8  21   8  22   8  23   8
M  END
>  <minimizedAffinity>  (1) 
-3.48603868

>  <minimizedRMSD>  (1) 
0.224363476

$$$$
