
     RDKit          3D

 40 42  0  0  0  0  0  0  0  0999 V2000
   38.5940   23.5090   37.1280 C   0  0  0  0  0  0  0  0  0  0  0  0
   37.7280   24.5430   36.7240 C   0  0  0  0  0  0  0  0  0  0  0  0
   38.1300   25.3330   35.6390 C   0  0  0  0  0  0  0  0  0  0  0  0
   39.3340   25.0750   35.0160 N   0  0  0  0  0  0  0  0  0  0  0  0
   40.1030   24.0610   35.4680 C   0  0  0  0  0  0  0  0  0  0  0  0
   39.7490   23.2840   36.5080 N   0  0  0  0  0  0  0  0  0  0  0  0
   37.2850   26.4300   35.1100 C   0  0  0  0  0  0  0  0  0  0  0  0
   37.0950   26.3840   33.6440 C   0  0  0  0  0  0  0  0  0  0  0  0
   37.8410   27.8090   35.5300 C   0  0  0  0  0  0  0  0  0  0  0  0
   41.3230   23.7760   34.8570 O   0  0  0  0  0  0  0  0  0  0  0  0
   42.4860   24.1800   35.2990 C   0  0  0  0  0  0  0  0  0  0  0  0
   43.2340   25.3190   35.1260 C   0  0  0  0  0  0  0  0  0  0  0  0
   44.4260   25.4420   35.7310 C   0  0  0  0  0  0  0  0  0  0  0  0
   44.8770   24.3650   36.5420 C   0  0  0  0  0  0  0  0  0  0  0  0
   43.4900   23.1220   36.4100 S   0  0  0  0  0  0  0  0  0  0  0  0
   46.0930   24.2720   37.2730 N   0  0  0  0  0  0  0  0  0  0  0  0
   47.1400   23.5730   36.7940 C   0  0  0  0  0  0  0  0  0  0  0  0
   48.3170   23.5040   37.5380 C   0  0  0  0  0  0  0  0  0  0  0  0
   49.4920   22.7440   37.0400 C   0  0  0  0  0  0  0  0  0  0  0  0
   48.3950   24.1470   38.7470 C   0  0  0  0  0  0  0  0  0  0  0  0
   49.4470   24.1060   39.4490 O   0  0  0  0  0  0  0  0  0  0  0  0
   47.3330   24.8350   39.1980 N   0  0  0  0  0  0  0  0  0  0  0  0
   46.1970   24.8930   38.4640 C   0  0  0  0  0  0  0  0  0  0  0  0
   45.2500   25.5620   38.9650 O   0  0  0  0  0  0  0  0  0  0  0  0
   38.3082   22.8714   37.9776 H   0  0  0  0  0  0  0  0  0  0  0  0
   36.7734   24.7235   37.2399 H   0  0  0  0  0  0  0  0  0  0  0  0
   36.2922   26.2796   35.5591 H   0  0  0  0  0  0  0  0  0  0  0  0
   36.0488   26.1307   33.4176 H   0  0  0  0  0  0  0  0  0  0  0  0
   37.3361   27.3665   33.2120 H   0  0  0  0  0  0  0  0  0  0  0  0
   37.7588   25.6206   33.2120 H   0  0  0  0  0  0  0  0  0  0  0  0
   37.8675   27.8748   36.6277 H   0  0  0  0  0  0  0  0  0  0  0  0
   38.8586   27.9311   35.1307 H   0  0  0  0  0  0  0  0  0  0  0  0
   37.1927   28.6028   35.1307 H   0  0  0  0  0  0  0  0  0  0  0  0
   42.8552   26.1326   34.4899 H   0  0  0  0  0  0  0  0  0  0  0  0
   45.0354   26.3488   35.6031 H   0  0  0  0  0  0  0  0  0  0  0  0
   47.0669   23.0606   35.8234 H   0  0  0  0  0  0  0  0  0  0  0  0
   50.0740   22.3675   37.8941 H   0  0  0  0  0  0  0  0  0  0  0  0
   49.1483   21.8967   36.4285 H   0  0  0  0  0  0  0  0  0  0  0  0
   50.1239   23.4050   36.4285 H   0  0  0  0  0  0  0  0  0  0  0  0
   47.3832   25.3200   40.1053 H   0  0  0  0  0  0  0  0  0  0  0  0
  2  1  2  0
  3  2  1  0
  4  5  1  0
  4  3  2  0
  5  6  2  0
  6  1  1  0
  7  9  1  0
  7  3  1  0
  8  7  1  0
 10 11  1  0
 10  5  1  0
 11 15  1  0
 12 11  2  0
 12 13  1  0
 13 14  2  0
 14 16  1  0
 15 14  1  0
 16 23  1  0
 17 16  1  0
 17 18  2  0
 18 20  1  0
 19 18  1  0
 20 22  1  0
 20 21  2  0
 23 24  2  0
 23 22  1  0
  1 25  1  0
  2 26  1  0
  7 27  1  0
  8 28  1  0
  8 29  1  0
  8 30  1  0
  9 31  1  0
  9 32  1  0
  9 33  1  0
 12 34  1  0
 13 35  1  0
 17 36  1  0
 19 37  1  0
 19 38  1  0
 19 39  1  0
 22 40  1  0
M  ISO  8  25  14  26  14  27   8  28   8  29   8  30   8  31   8  32   8
M  ISO  8  33   8  34  14  35  14  36  14  37   8  38   8  39   8  40   9
M  END
>  <minimizedAffinity>  (1) 
-5.09707165

>  <minimizedRMSD>  (1) 
2.49008083

$$$$
