
     RDKit          3D

 37 39  0  0  0  0  0  0  0  0999 V2000
   38.5860   23.4770   37.1260 C   0  0  0  0  0  0  0  0  0  0  0  0
   37.7200   24.5140   36.7220 C   0  0  0  0  0  0  0  0  0  0  0  0
   38.1280   25.3020   35.6440 C   0  0  0  0  0  0  0  0  0  0  0  0
   39.3400   25.0440   35.0240 N   0  0  0  0  0  0  0  0  0  0  0  0
   40.1020   24.0320   35.4760 C   0  0  0  0  0  0  0  0  0  0  0  0
   39.7450   23.2510   36.5120 N   0  0  0  0  0  0  0  0  0  0  0  0
   37.2970   26.4050   35.1050 C   0  0  0  0  0  0  0  0  0  0  0  0
   37.1110   26.3660   33.6390 C   0  0  0  0  0  0  0  0  0  0  0  0
   37.8540   27.7800   35.5300 C   0  0  0  0  0  0  0  0  0  0  0  0
   41.3340   23.7260   34.8870 O   0  0  0  0  0  0  0  0  0  0  0  0
   42.4910   24.1770   35.3180 C   0  0  0  0  0  0  0  0  0  0  0  0
   43.2060   25.3320   35.1020 C   0  0  0  0  0  0  0  0  0  0  0  0
   44.4020   25.4840   35.7200 C   0  0  0  0  0  0  0  0  0  0  0  0
   44.8650   24.4550   36.5570 C   0  0  0  0  0  0  0  0  0  0  0  0
   43.5010   23.1570   36.4750 S   0  0  0  0  0  0  0  0  0  0  0  0
   46.0350   24.3660   37.2910 N   0  0  0  0  0  0  0  0  0  0  0  0
   47.0120   23.6610   36.7300 C   0  0  0  0  0  0  0  0  0  0  0  0
   48.2420   23.5000   37.3760 C   0  0  0  0  0  0  0  0  0  0  0  0
   48.3920   24.1070   38.6230 C   0  0  0  0  0  0  0  0  0  0  0  0
   49.4110   24.0660   39.3280 O   0  0  0  0  0  0  0  0  0  0  0  0
   47.3360   24.8110   39.1210 N   0  0  0  0  0  0  0  0  0  0  0  0
   46.1600   24.9500   38.4730 C   0  0  0  0  0  0  0  0  0  0  0  0
   45.2090   25.6080   38.9680 O   0  0  0  0  0  0  0  0  0  0  0  0
   38.2955   22.8370   37.9722 H   0  0  0  0  0  0  0  0  0  0  0  0
   36.7635   24.6945   37.2344 H   0  0  0  0  0  0  0  0  0  0  0  0
   36.3009   26.2540   35.5466 H   0  0  0  0  0  0  0  0  0  0  0  0
   36.0583   26.1453   33.4087 H   0  0  0  0  0  0  0  0  0  0  0  0
   37.3839   27.3409   33.2087 H   0  0  0  0  0  0  0  0  0  0  0  0
   37.7525   25.5828   33.2087 H   0  0  0  0  0  0  0  0  0  0  0  0
   37.8791   27.8420   36.6280 H   0  0  0  0  0  0  0  0  0  0  0  0
   38.8724   27.9018   35.1325 H   0  0  0  0  0  0  0  0  0  0  0  0
   37.2075   28.5763   35.1325 H   0  0  0  0  0  0  0  0  0  0  0  0
   42.8139   26.1178   34.4396 H   0  0  0  0  0  0  0  0  0  0  0  0
   44.9990   26.3955   35.5693 H   0  0  0  0  0  0  0  0  0  0  0  0
   46.8512   23.1982   35.7451 H   0  0  0  0  0  0  0  0  0  0  0  0
   49.0571   22.9190   36.9198 H   0  0  0  0  0  0  0  0  0  0  0  0
   47.4412   25.2611   40.0414 H   0  0  0  0  0  0  0  0  0  0  0  0
  2  1  2  0
  3  2  1  0
  4  5  1  0
  4  3  2  0
  5  6  2  0
  6  1  1  0
  7  9  1  0
  7  3  1  0
  8  7  1  0
 10 11  1  0
 10  5  1  0
 11 15  1  0
 12 11  2  0
 12 13  1  0
 13 14  2  0
 14 16  1  0
 15 14  1  0
 16 22  1  0
 17 16  1  0
 17 18  2  0
 18 19  1  0
 19 21  1  0
 19 20  2  0
 22 23  2  0
 22 21  1  0
  1 24  1  0
  2 25  1  0
  7 26  1  0
  8 27  1  0
  8 28  1  0
  8 29  1  0
  9 30  1  0
  9 31  1  0
  9 32  1  0
 12 33  1  0
 13 34  1  0
 17 35  1  0
 18 36  1  0
 21 37  1  0
M  ISO  8  24  14  25  14  26   8  27   8  28   8  29   8  30   8  31   8
M  ISO  6  32   8  33  14  34  14  35  14  36  14  37   9
M  END
>  <minimizedAffinity>  (1) 
-5.08485174

>  <minimizedRMSD>  (1) 
2.42887855

$$$$
