
     RDKit          3D

 38 41  0  0  0  0  0  0  0  0999 V2000
   38.7600   23.2090   38.2080 C   0  0  0  0  0  0  0  0  0  0  0  0
   37.9960   24.2180   37.5820 C   0  0  0  0  0  0  0  0  0  0  0  0
   38.4720   24.7240   36.3720 C   0  0  0  0  0  0  0  0  0  0  0  0
   39.6510   24.2290   35.8380 N   0  0  0  0  0  0  0  0  0  0  0  0
   40.3140   23.2640   36.5050 C   0  0  0  0  0  0  0  0  0  0  0  0
   39.8840   22.7590   37.6660 N   0  0  0  0  0  0  0  0  0  0  0  0
   37.7510   25.7640   35.6020 C   0  0  0  0  0  0  0  0  0  0  0  0
   37.7110   25.5220   34.1430 C   0  0  0  0  0  0  0  0  0  0  0  0
   38.3240   27.1690   35.8950 C   0  0  0  0  0  0  0  0  0  0  0  0
   41.5010   22.7450   35.9910 O   0  0  0  0  0  0  0  0  0  0  0  0
   42.6880   23.2390   36.2170 C   0  0  0  0  0  0  0  0  0  0  0  0
   43.1480   24.4630   36.6420 C   0  0  0  0  0  0  0  0  0  0  0  0
   44.4700   24.6750   36.7820 C   0  0  0  0  0  0  0  0  0  0  0  0
   45.3580   23.6140   36.4850 C   0  0  0  0  0  0  0  0  0  0  0  0
   44.2040   22.2290   35.9700 S   0  0  0  0  0  0  0  0  0  0  0  0
   46.7450   23.5570   36.5420 N   0  0  0  0  0  0  0  0  0  0  0  0
   47.4240   22.3870   36.3710 C   0  0  0  0  0  0  0  0  0  0  0  0
   48.7400   22.6490   36.4810 N   0  0  0  0  0  0  0  0  0  0  0  0
   48.9180   23.9650   36.7190 C   0  0  0  0  0  0  0  0  0  0  0  0
   49.9920   24.8050   36.9180 C   0  0  0  0  0  0  0  0  0  0  0  0
   49.7960   26.1350   37.1410 N   0  0  0  0  0  0  0  0  0  0  0  0
   48.5650   26.6820   37.1760 C   0  0  0  0  0  0  0  0  0  0  0  0
   47.5060   25.8490   36.9800 N   0  0  0  0  0  0  0  0  0  0  0  0
   47.6500   24.5290   36.7560 C   0  0  0  0  0  0  0  0  0  0  0  0
   38.4163   22.7877   39.1642 H   0  0  0  0  0  0  0  0  0  0  0  0
   37.0630   24.5902   38.0303 H   0  0  0  0  0  0  0  0  0  0  0  0
   36.7087   25.7094   35.9494 H   0  0  0  0  0  0  0  0  0  0  0  0
   37.5343   24.4530   33.9534 H   0  0  0  0  0  0  0  0  0  0  0  0
   36.8984   26.1130   33.6954 H   0  0  0  0  0  0  0  0  0  0  0  0
   38.6706   25.8201   33.6954 H   0  0  0  0  0  0  0  0  0  0  0  0
   38.3857   27.3203   36.9828 H   0  0  0  0  0  0  0  0  0  0  0  0
   39.3287   27.2542   35.4554 H   0  0  0  0  0  0  0  0  0  0  0  0
   37.6654   27.9326   35.4554 H   0  0  0  0  0  0  0  0  0  0  0  0
   42.4351   25.2698   36.8678 H   0  0  0  0  0  0  0  0  0  0  0  0
   44.8510   25.6502   37.1194 H   0  0  0  0  0  0  0  0  0  0  0  0
   46.9752   21.4016   36.1771 H   0  0  0  0  0  0  0  0  0  0  0  0
   51.0143   24.3994   36.8967 H   0  0  0  0  0  0  0  0  0  0  0  0
   48.4215   27.7577   37.3556 H   0  0  0  0  0  0  0  0  0  0  0  0
  2  1  2  0
  3  2  1  0
  4  3  2  0
  4  5  1  0
  5  6  2  0
  6  1  1  0
  7  9  1  0
  7  3  1  0
  8  7  1  0
 10 11  1  0
 10  5  1  0
 11 12  2  0
 12 13  1  0
 14 16  1  0
 14 13  2  0
 15 11  1  0
 15 14  1  0
 16 24  1  0
 17 18  2  0
 17 16  1  0
 18 19  1  0
 19 24  2  0
 19 20  1  0
 20 21  2  0
 21 22  1  0
 23 22  2  0
 24 23  1  0
  1 25  1  0
  2 26  1  0
  7 27  1  0
  8 28  1  0
  8 29  1  0
  8 30  1  0
  9 31  1  0
  9 32  1  0
  9 33  1  0
 12 34  1  0
 13 35  1  0
 17 36  1  0
 20 37  1  0
 22 38  1  0
M  ISO  8  25  14  26  14  27   8  28   8  29   8  30   8  31   8  32   8
M  ISO  6  33   8  34  14  35  14  36  14  37  14  38  14
M  END
>  <minimizedAffinity>  (1) 
-4.87172174

>  <minimizedRMSD>  (1) 
1.10980308

$$$$
