
     RDKit          3D

 37 39  0  0  0  0  0  0  0  0999 V2000
   38.7120   23.3120   38.3120 C   0  0  0  0  0  0  0  0  0  0  0  0
   37.9840   24.3380   37.6710 C   0  0  0  0  0  0  0  0  0  0  0  0
   38.4310   24.7510   36.4160 C   0  0  0  0  0  0  0  0  0  0  0  0
   39.5480   24.1550   35.8500 N   0  0  0  0  0  0  0  0  0  0  0  0
   40.1790   23.1810   36.5370 C   0  0  0  0  0  0  0  0  0  0  0  0
   39.7820   22.7610   37.7400 N   0  0  0  0  0  0  0  0  0  0  0  0
   37.7380   25.7970   35.6310 C   0  0  0  0  0  0  0  0  0  0  0  0
   37.6930   25.5370   34.1760 C   0  0  0  0  0  0  0  0  0  0  0  0
   38.3520   27.1890   35.8980 C   0  0  0  0  0  0  0  0  0  0  0  0
   41.3070   22.5540   36.0040 O   0  0  0  0  0  0  0  0  0  0  0  0
   42.5350   22.9820   36.1400 C   0  0  0  0  0  0  0  0  0  0  0  0
   43.0850   24.2140   36.4050 C   0  0  0  0  0  0  0  0  0  0  0  0
   44.4350   24.3290   36.4850 C   0  0  0  0  0  0  0  0  0  0  0  0
   45.2230   23.1760   36.2940 C   0  0  0  0  0  0  0  0  0  0  0  0
   43.9590   21.8370   35.9790 S   0  0  0  0  0  0  0  0  0  0  0  0
   46.6350   23.0180   36.3240 C   0  0  0  0  0  0  0  0  0  0  0  0
   47.2780   22.0980   35.5240 C   0  0  0  0  0  0  0  0  0  0  0  0
   48.6510   22.0330   35.6400 C   0  0  0  0  0  0  0  0  0  0  0  0
   49.3400   22.8500   36.5120 C   0  0  0  0  0  0  0  0  0  0  0  0
   48.7000   23.7730   37.3150 C   0  0  0  0  0  0  0  0  0  0  0  0
   47.3250   23.8340   37.1960 C   0  0  0  0  0  0  0  0  0  0  0  0
   38.3895   22.9605   39.3032 H   0  0  0  0  0  0  0  0  0  0  0  0
   37.1003   24.7931   38.1422 H   0  0  0  0  0  0  0  0  0  0  0  0
   36.6955   25.7738   35.9813 H   0  0  0  0  0  0  0  0  0  0  0  0
   37.5078   24.4670   34.0003 H   0  0  0  0  0  0  0  0  0  0  0  0
   36.8839   26.1284   33.7227 H   0  0  0  0  0  0  0  0  0  0  0  0
   38.6538   25.8221   33.7227 H   0  0  0  0  0  0  0  0  0  0  0  0
   38.4254   27.3554   36.9829 H   0  0  0  0  0  0  0  0  0  0  0  0
   39.3557   27.2390   35.4506 H   0  0  0  0  0  0  0  0  0  0  0  0
   37.7122   27.9639   35.4506 H   0  0  0  0  0  0  0  0  0  0  0  0
   42.4404   25.0935   36.5500 H   0  0  0  0  0  0  0  0  0  0  0  0
   44.9043   25.3016   36.6945 H   0  0  0  0  0  0  0  0  0  0  0  0
   46.7249   21.4492   34.8290 H   0  0  0  0  0  0  0  0  0  0  0  0
   49.2091   21.3133   35.0231 H   0  0  0  0  0  0  0  0  0  0  0  0
   50.4351   22.7634   36.5695 H   0  0  0  0  0  0  0  0  0  0  0  0
   49.2531   24.4224   38.0095 H   0  0  0  0  0  0  0  0  0  0  0  0
   46.7656   24.5525   37.8131 H   0  0  0  0  0  0  0  0  0  0  0  0
  2  1  2  0
  3  2  1  0
  4  3  2  0
  4  5  1  0
  5  6  2  0
  6  1  1  0
  7  9  1  0
  7  3  1  0
  8  7  1  0
 10 11  1  0
 10  5  1  0
 11 12  2  0
 12 13  1  0
 14 16  1  0
 14 13  2  0
 15 11  1  0
 15 14  1  0
 16 21  2  0
 17 18  2  0
 17 16  1  0
 18 19  1  0
 19 20  2  0
 21 20  1  0
  1 22  1  0
  2 23  1  0
  7 24  1  0
  8 25  1  0
  8 26  1  0
  8 27  1  0
  9 28  1  0
  9 29  1  0
  9 30  1  0
 12 31  1  0
 13 32  1  0
 17 33  1  0
 18 34  1  0
 19 35  1  0
 20 36  1  0
 21 37  1  0
M  ISO  8  22  14  23  14  24   8  25   8  26   8  27   8  28   8  29   8
M  ISO  8  30   8  31  14  32  14  33  14  34  14  35  14  36  14  37  14
M  END
>  <minimizedAffinity>  (1) 
-4.57852602

>  <minimizedRMSD>  (1) 
0.717066407

$$$$
