
     RDKit          3D

 34 35  0  0  0  0  0  0  0  0999 V2000
   38.5730   23.3200   37.6290 C   0  0  0  0  0  0  0  0  0  0  0  0
   37.7870   24.3890   37.1430 C   0  0  0  0  0  0  0  0  0  0  0  0
   38.2590   25.0580   36.0140 C   0  0  0  0  0  0  0  0  0  0  0  0
   39.4510   24.6630   35.4230 N   0  0  0  0  0  0  0  0  0  0  0  0
   40.1310   23.6320   35.9570 C   0  0  0  0  0  0  0  0  0  0  0  0
   39.7150   22.9640   37.0370 N   0  0  0  0  0  0  0  0  0  0  0  0
   37.5190   26.1800   35.3890 C   0  0  0  0  0  0  0  0  0  0  0  0
   37.3400   26.0550   33.9280 C   0  0  0  0  0  0  0  0  0  0  0  0
   38.1830   27.5370   35.7170 C   0  0  0  0  0  0  0  0  0  0  0  0
   41.3300   23.2060   35.3890 O   0  0  0  0  0  0  0  0  0  0  0  0
   42.5040   23.7510   35.6290 C   0  0  0  0  0  0  0  0  0  0  0  0
   43.0160   25.0150   35.4550 C   0  0  0  0  0  0  0  0  0  0  0  0
   44.3020   25.2580   35.8150 C   0  0  0  0  0  0  0  0  0  0  0  0
   45.0690   24.2070   36.3540 C   0  0  0  0  0  0  0  0  0  0  0  0
   43.8770   22.7610   36.3530 S   0  0  0  0  0  0  0  0  0  0  0  0
   46.3550   24.1050   36.8070 N   0  0  0  0  0  0  0  0  0  0  0  0
   46.7520   24.7390   38.0080 C   0  0  0  0  0  0  0  0  0  0  0  0
   45.8880   25.2450   38.8440 N   0  0  0  0  0  0  0  0  0  0  0  0
   48.1610   24.8160   38.2960 N   0  0  0  0  0  0  0  0  0  0  0  0
   46.2310   25.7030   39.7190 H   0  0  0  0  0  0  0  0  0  0  0  0
   38.2350   22.7671   38.5179 H   0  0  0  0  0  0  0  0  0  0  0  0
   36.8460   24.6801   37.6327 H   0  0  0  0  0  0  0  0  0  0  0  0
   36.5129   26.1349   35.8315 H   0  0  0  0  0  0  0  0  0  0  0  0
   36.4546   25.4367   33.7186 H   0  0  0  0  0  0  0  0  0  0  0  0
   37.2018   27.0540   33.4887 H   0  0  0  0  0  0  0  0  0  0  0  0
   38.2303   25.5812   33.4887 H   0  0  0  0  0  0  0  0  0  0  0  0
   38.2438   27.6612   36.8083 H   0  0  0  0  0  0  0  0  0  0  0  0
   39.1956   27.5629   35.2881 H   0  0  0  0  0  0  0  0  0  0  0  0
   37.5821   28.3524   35.2881 H   0  0  0  0  0  0  0  0  0  0  0  0
   42.3935   25.8166   35.0308 H   0  0  0  0  0  0  0  0  0  0  0  0
   44.7381   26.2598   35.6878 H   0  0  0  0  0  0  0  0  0  0  0  0
   47.0429   23.5602   36.2676 H   0  0  0  0  0  0  0  0  0  0  0  0
   48.4857   25.2706   39.1613 H   0  0  0  0  0  0  0  0  0  0  0  0
   48.8440   24.4165   37.6366 H   0  0  0  0  0  0  0  0  0  0  0  0
  2  1  2  0
  3  2  1  0
  4  5  1  0
  4  3  2  0
  5  6  2  0
  6  1  1  0
  7  9  1  0
  7  3  1  0
  8  7  1  0
 10 11  1  0
 10  5  1  0
 11 15  1  0
 12 11  2  0
 12 13  1  0
 13 14  2  0
 14 16  1  0
 15 14  1  0
 16 17  1  0
 17 19  1  0
 17 18  2  0
 18 20  1  0
  1 21  1  0
  2 22  1  0
  7 23  1  0
  8 24  1  0
  8 25  1  0
  8 26  1  0
  9 27  1  0
  9 28  1  0
  9 29  1  0
 12 30  1  0
 13 31  1  0
 16 32  1  0
 19 33  1  0
 19 34  1  0
M  ISO  8  21  14  22  14  23   8  24   8  25   8  26   8  27   8  28   8
M  ISO  3  29   8  30  14  31  14
M  END
>  <minimizedAffinity>  (1) 
-4.54629135

>  <minimizedRMSD>  (1) 
1.54661822

$$$$
