
     RDKit          3D

 35 37  0  0  0  0  0  0  0  0999 V2000
   38.7240   23.3410   38.4240 C   0  0  0  0  0  0  0  0  0  0  0  0
   38.0160   24.3530   37.7500 C   0  0  0  0  0  0  0  0  0  0  0  0
   38.4520   24.7030   36.4710 C   0  0  0  0  0  0  0  0  0  0  0  0
   39.5420   24.0570   35.9220 N   0  0  0  0  0  0  0  0  0  0  0  0
   40.1630   23.0990   36.6340 C   0  0  0  0  0  0  0  0  0  0  0  0
   39.7730   22.7380   37.8610 N   0  0  0  0  0  0  0  0  0  0  0  0
   37.7730   25.7340   35.6510 C   0  0  0  0  0  0  0  0  0  0  0  0
   37.7850   25.4530   34.1990 C   0  0  0  0  0  0  0  0  0  0  0  0
   38.3550   27.1370   35.9290 C   0  0  0  0  0  0  0  0  0  0  0  0
   41.2690   22.4120   36.1240 O   0  0  0  0  0  0  0  0  0  0  0  0
   42.5030   22.8200   36.2190 C   0  0  0  0  0  0  0  0  0  0  0  0
   43.0880   24.0180   36.5460 C   0  0  0  0  0  0  0  0  0  0  0  0
   44.4260   24.1470   36.5600 C   0  0  0  0  0  0  0  0  0  0  0  0
   45.2100   22.9870   36.2200 C   0  0  0  0  0  0  0  0  0  0  0  0
   43.9020   21.6880   35.8760 S   0  0  0  0  0  0  0  0  0  0  0  0
   46.6310   22.8270   36.1530 C   0  0  0  0  0  0  0  0  0  0  0  0
   47.2820   22.0500   35.2420 C   0  0  0  0  0  0  0  0  0  0  0  0
   48.6460   22.0160   35.3250 C   0  0  0  0  0  0  0  0  0  0  0  0
   49.2870   22.7190   36.2620 N   0  0  0  0  0  0  0  0  0  0  0  0
   48.6600   23.4860   37.1610 C   0  0  0  0  0  0  0  0  0  0  0  0
   47.3180   23.5200   37.0800 N   0  0  0  0  0  0  0  0  0  0  0  0
   38.4070   23.0413   39.4338 H   0  0  0  0  0  0  0  0  0  0  0  0
   37.1511   24.8499   38.2137 H   0  0  0  0  0  0  0  0  0  0  0  0
   36.7182   25.7053   35.9618 H   0  0  0  0  0  0  0  0  0  0  0  0
   37.8314   24.3661   34.0362 H   0  0  0  0  0  0  0  0  0  0  0  0
   36.8689   25.8536   33.7404 H   0  0  0  0  0  0  0  0  0  0  0  0
   38.6636   25.9303   33.7404 H   0  0  0  0  0  0  0  0  0  0  0  0
   38.4217   27.2977   37.0152 H   0  0  0  0  0  0  0  0  0  0  0  0
   39.3586   27.2122   35.4849 H   0  0  0  0  0  0  0  0  0  0  0  0
   37.6994   27.9005   35.4849 H   0  0  0  0  0  0  0  0  0  0  0  0
   42.4553   24.8815   36.7992 H   0  0  0  0  0  0  0  0  0  0  0  0
   44.9044   25.1024   36.8213 H   0  0  0  0  0  0  0  0  0  0  0  0
   46.7363   21.4780   34.4771 H   0  0  0  0  0  0  0  0  0  0  0  0
   49.2205   21.4043   34.6138 H   0  0  0  0  0  0  0  0  0  0  0  0
   49.2109   24.0565   37.9233 H   0  0  0  0  0  0  0  0  0  0  0  0
  2  1  2  0
  3  2  1  0
  4  3  2  0
  4  5  1  0
  5  6  2  0
  6  1  1  0
  7  9  1  0
  7  3  1  0
  8  7  1  0
 10 11  1  0
 10  5  1  0
 11 12  2  0
 12 13  1  0
 14 13  2  0
 15 11  1  0
 15 14  1  0
 16 14  1  0
 16 21  2  0
 17 18  2  0
 17 16  1  0
 18 19  1  0
 19 20  2  0
 21 20  1  0
  1 22  1  0
  2 23  1  0
  7 24  1  0
  8 25  1  0
  8 26  1  0
  8 27  1  0
  9 28  1  0
  9 29  1  0
  9 30  1  0
 12 31  1  0
 13 32  1  0
 17 33  1  0
 18 34  1  0
 20 35  1  0
M  ISO  8  22  14  23  14  24   8  25   8  26   8  27   8  28   8  29   8
M  ISO  6  30   8  31  14  32  14  33  14  34  14  35  14
M  END
>  <minimizedAffinity>  (1) 
-4.48300982

>  <minimizedRMSD>  (1) 
0.574086368

$$$$
