
     RDKit          3D

 36 37  0  0  0  0  0  0  0  0999 V2000
   38.7390   23.3260   38.4380 C   0  0  0  0  0  0  0  0  0  0  0  0
   38.0300   24.3410   37.7570 C   0  0  0  0  0  0  0  0  0  0  0  0
   38.4890   24.6890   36.4770 C   0  0  0  0  0  0  0  0  0  0  0  0
   39.5920   24.0440   35.9420 N   0  0  0  0  0  0  0  0  0  0  0  0
   40.2040   23.0880   36.6680 C   0  0  0  0  0  0  0  0  0  0  0  0
   39.7960   22.7240   37.8980 N   0  0  0  0  0  0  0  0  0  0  0  0
   37.8130   25.7160   35.6550 C   0  0  0  0  0  0  0  0  0  0  0  0
   37.8140   25.4170   34.2060 C   0  0  0  0  0  0  0  0  0  0  0  0
   38.4070   27.1170   35.9100 C   0  0  0  0  0  0  0  0  0  0  0  0
   41.3120   22.4190   36.1560 O   0  0  0  0  0  0  0  0  0  0  0  0
   42.5470   22.8550   36.2350 C   0  0  0  0  0  0  0  0  0  0  0  0
   43.1080   24.0540   36.6010 C   0  0  0  0  0  0  0  0  0  0  0  0
   44.4550   24.1880   36.5750 C   0  0  0  0  0  0  0  0  0  0  0  0
   45.2370   23.0930   36.1720 C   0  0  0  0  0  0  0  0  0  0  0  0
   43.9690   21.7650   35.8000 S   0  0  0  0  0  0  0  0  0  0  0  0
   46.6560   22.8460   36.0170 C   0  0  0  0  0  0  0  0  0  0  0  0
   47.5060   23.5080   37.0820 C   0  0  0  0  0  0  0  0  0  0  0  0
   46.8800   21.3510   36.1480 C   0  0  0  0  0  0  0  0  0  0  0  0
   38.4079   23.0249   39.4429 H   0  0  0  0  0  0  0  0  0  0  0  0
   37.1580   24.8359   38.2094 H   0  0  0  0  0  0  0  0  0  0  0  0
   36.7614   25.7016   35.9773 H   0  0  0  0  0  0  0  0  0  0  0  0
   37.8176   24.3272   34.0565 H   0  0  0  0  0  0  0  0  0  0  0  0
   36.9144   25.8477   33.7421 H   0  0  0  0  0  0  0  0  0  0  0  0
   38.7107   25.8537   33.7421 H   0  0  0  0  0  0  0  0  0  0  0  0
   38.4813   27.2921   36.9934 H   0  0  0  0  0  0  0  0  0  0  0  0
   39.4085   27.1783   35.4592 H   0  0  0  0  0  0  0  0  0  0  0  0
   37.7547   27.8794   35.4592 H   0  0  0  0  0  0  0  0  0  0  0  0
   42.4707   24.8951   36.9115 H   0  0  0  0  0  0  0  0  0  0  0  0
   44.9287   25.1377   36.8644 H   0  0  0  0  0  0  0  0  0  0  0  0
   46.9510   23.2576   35.0405 H   0  0  0  0  0  0  0  0  0  0  0  0
   47.1365   23.2202   38.0773 H   0  0  0  0  0  0  0  0  0  0  0  0
   48.5512   23.1836   36.9710 H   0  0  0  0  0  0  0  0  0  0  0  0
   47.4475   24.6008   36.9710 H   0  0  0  0  0  0  0  0  0  0  0  0
   46.9209   21.0783   37.2129 H   0  0  0  0  0  0  0  0  0  0  0  0
   46.0525   20.8124   35.6630 H   0  0  0  0  0  0  0  0  0  0  0  0
   47.8290   21.0785   35.6630 H   0  0  0  0  0  0  0  0  0  0  0  0
  2  1  2  0
  3  2  1  0
  4  3  2  0
  4  5  1  0
  5  6  2  0
  6  1  1  0
  7  9  1  0
  7  3  1  0
  8  7  1  0
 10 11  1  0
 10  5  1  0
 11 12  2  0
 13 12  1  0
 14 13  2  0
 15 14  1  0
 15 11  1  0
 16 18  1  0
 16 14  1  0
 16 17  1  0
  1 19  1  0
  2 20  1  0
  7 21  1  0
  8 22  1  0
  8 23  1  0
  8 24  1  0
  9 25  1  0
  9 26  1  0
  9 27  1  0
 12 28  1  0
 13 29  1  0
 16 30  1  0
 17 31  1  0
 17 32  1  0
 17 33  1  0
 18 34  1  0
 18 35  1  0
 18 36  1  0
M  ISO  8  19  14  20  14  21   8  22   8  23   8  24   8  25   8  26   8
M  ISO  8  27   8  28  14  29  14  30   8  31   8  32   8  33   8  34   8
M  ISO  2  35   8  36   8
M  END
>  <minimizedAffinity>  (1) 
-4.46835947

>  <minimizedRMSD>  (1) 
0.394999951

$$$$
