
     RDKit          3D

 34 36  0  0  0  0  0  0  0  0999 V2000
   38.7140   23.3490   38.4320 C   0  0  0  0  0  0  0  0  0  0  0  0
   38.0120   24.3620   37.7540 C   0  0  0  0  0  0  0  0  0  0  0  0
   38.4530   24.7020   36.4750 C   0  0  0  0  0  0  0  0  0  0  0  0
   39.5410   24.0520   35.9230 N   0  0  0  0  0  0  0  0  0  0  0  0
   40.1490   23.0950   36.6460 C   0  0  0  0  0  0  0  0  0  0  0  0
   39.7590   22.7380   37.8730 N   0  0  0  0  0  0  0  0  0  0  0  0
   37.7770   25.7360   35.6510 C   0  0  0  0  0  0  0  0  0  0  0  0
   37.7850   25.4520   34.2000 C   0  0  0  0  0  0  0  0  0  0  0  0
   38.3560   27.1380   35.9290 C   0  0  0  0  0  0  0  0  0  0  0  0
   41.2550   22.4110   36.1180 O   0  0  0  0  0  0  0  0  0  0  0  0
   42.4940   22.8160   36.2140 C   0  0  0  0  0  0  0  0  0  0  0  0
   43.0900   24.0110   36.5340 C   0  0  0  0  0  0  0  0  0  0  0  0
   44.4370   24.1020   36.5440 C   0  0  0  0  0  0  0  0  0  0  0  0
   45.1810   22.9400   36.2150 C   0  0  0  0  0  0  0  0  0  0  0  0
   43.8800   21.6620   35.8800 S   0  0  0  0  0  0  0  0  0  0  0  0
   46.6250   22.8030   36.1620 C   0  0  0  0  0  0  0  0  0  0  0  0
   47.4590   22.0970   35.3640 C   0  0  0  0  0  0  0  0  0  0  0  0
   48.7480   22.3790   35.8080 C   0  0  0  0  0  0  0  0  0  0  0  0
   48.6500   23.2440   36.8610 N   0  0  0  0  0  0  0  0  0  0  0  0
   47.3650   23.4880   37.0590 N   0  0  0  0  0  0  0  0  0  0  0  0
   38.3947   23.0552   39.4428 H   0  0  0  0  0  0  0  0  0  0  0  0
   37.1494   24.8661   38.2142 H   0  0  0  0  0  0  0  0  0  0  0  0
   36.7221   25.7098   35.9616 H   0  0  0  0  0  0  0  0  0  0  0  0
   37.8156   24.3642   34.0395 H   0  0  0  0  0  0  0  0  0  0  0  0
   36.8749   25.8650   33.7405 H   0  0  0  0  0  0  0  0  0  0  0  0
   38.6704   25.9155   33.7405 H   0  0  0  0  0  0  0  0  0  0  0  0
   38.4223   27.2985   37.0152 H   0  0  0  0  0  0  0  0  0  0  0  0
   39.3595   27.2149   35.4850 H   0  0  0  0  0  0  0  0  0  0  0  0
   37.6992   27.9006   35.4850 H   0  0  0  0  0  0  0  0  0  0  0  0
   42.4740   24.8884   36.7806 H   0  0  0  0  0  0  0  0  0  0  0  0
   44.9408   25.0460   36.7989 H   0  0  0  0  0  0  0  0  0  0  0  0
   47.1759   21.4344   34.5328 H   0  0  0  0  0  0  0  0  0  0  0  0
   49.6805   21.9765   35.3857 H   0  0  0  0  0  0  0  0  0  0  0  0
   49.4342   23.6351   37.4023 H   0  0  0  0  0  0  0  0  0  0  0  0
  2  1  2  0
  3  2  1  0
  4  3  2  0
  4  5  1  0
  5  6  2  0
  6  1  1  0
  7  9  1  0
  7  3  1  0
  8  7  1  0
 10 11  1  0
 10  5  1  0
 11 12  2  0
 12 13  1  0
 14 13  2  0
 15 11  1  0
 15 14  1  0
 16 14  1  0
 16 20  2  0
 17 18  2  0
 17 16  1  0
 18 19  1  0
 19 20  1  0
  1 21  1  0
  2 22  1  0
  7 23  1  0
  8 24  1  0
  8 25  1  0
  8 26  1  0
  9 27  1  0
  9 28  1  0
  9 29  1  0
 12 30  1  0
 13 31  1  0
 17 32  1  0
 18 33  1  0
 19 34  1  0
M  ISO  8  21  14  22  14  23   8  24   8  25   8  26   8  27   8  28   8
M  ISO  6  29   8  30  14  31  14  32  14  33  14  34   9
M  END
>  <minimizedAffinity>  (1) 
-4.42573643

>  <minimizedRMSD>  (1) 
0.377480775

$$$$
