
     RDKit          3D

 33 34  0  0  0  0  0  0  0  0999 V2000
   38.7320   23.3310   38.4340 C   0  0  0  0  0  0  0  0  0  0  0  0
   38.0210   24.3470   37.7580 C   0  0  0  0  0  0  0  0  0  0  0  0
   38.4720   24.6920   36.4840 C   0  0  0  0  0  0  0  0  0  0  0  0
   39.5710   24.0460   35.9380 N   0  0  0  0  0  0  0  0  0  0  0  0
   40.1880   23.0860   36.6580 C   0  0  0  0  0  0  0  0  0  0  0  0
   39.7860   22.7270   37.8840 N   0  0  0  0  0  0  0  0  0  0  0  0
   37.8020   25.7240   35.6540 C   0  0  0  0  0  0  0  0  0  0  0  0
   37.8010   25.4340   34.2040 C   0  0  0  0  0  0  0  0  0  0  0  0
   38.4040   27.1230   35.9170 C   0  0  0  0  0  0  0  0  0  0  0  0
   41.2920   22.4170   36.1410 O   0  0  0  0  0  0  0  0  0  0  0  0
   42.5290   22.8370   36.2290 C   0  0  0  0  0  0  0  0  0  0  0  0
   43.0980   24.0410   36.5750 C   0  0  0  0  0  0  0  0  0  0  0  0
   44.4500   24.1510   36.5660 C   0  0  0  0  0  0  0  0  0  0  0  0
   45.2270   23.0320   36.2010 C   0  0  0  0  0  0  0  0  0  0  0  0
   43.9360   21.7110   35.8410 S   0  0  0  0  0  0  0  0  0  0  0  0
   46.6390   22.8250   36.0910 C   0  0  0  0  0  0  0  0  0  0  0  0
   47.5250   23.5470   37.0480 C   0  0  0  0  0  0  0  0  0  0  0  0
   38.4077   23.0299   39.4410 H   0  0  0  0  0  0  0  0  0  0  0  0
   37.1520   24.8431   38.2149 H   0  0  0  0  0  0  0  0  0  0  0  0
   36.7482   25.7068   35.9690 H   0  0  0  0  0  0  0  0  0  0  0  0
   37.7972   24.3451   34.0478 H   0  0  0  0  0  0  0  0  0  0  0  0
   36.9044   25.8737   33.7428 H   0  0  0  0  0  0  0  0  0  0  0  0
   38.7006   25.8675   33.7428 H   0  0  0  0  0  0  0  0  0  0  0  0
   38.4771   27.2928   37.0014 H   0  0  0  0  0  0  0  0  0  0  0  0
   39.4067   27.1809   35.4684 H   0  0  0  0  0  0  0  0  0  0  0  0
   37.7567   27.8910   35.4684 H   0  0  0  0  0  0  0  0  0  0  0  0
   42.4681   24.8986   36.8538 H   0  0  0  0  0  0  0  0  0  0  0  0
   44.9338   25.1002   36.8397 H   0  0  0  0  0  0  0  0  0  0  0  0
   46.8237   21.7485   36.2214 H   0  0  0  0  0  0  0  0  0  0  0  0
   46.9029   23.2365   35.1056 H   0  0  0  0  0  0  0  0  0  0  0  0
   47.2268   23.3040   38.0785 H   0  0  0  0  0  0  0  0  0  0  0  0
   48.5684   23.2386   36.8858 H   0  0  0  0  0  0  0  0  0  0  0  0
   47.4336   24.6311   36.8858 H   0  0  0  0  0  0  0  0  0  0  0  0
  2  1  2  0
  3  2  1  0
  4  3  2  0
  4  5  1  0
  5  6  2  0
  6  1  1  0
  7  9  1  0
  7  3  1  0
  8  7  1  0
 10 11  1  0
 10  5  1  0
 11 12  2  0
 13 12  1  0
 14 13  2  0
 15 14  1  0
 15 11  1  0
 16 14  1  0
 16 17  1  0
  1 18  1  0
  2 19  1  0
  7 20  1  0
  8 21  1  0
  8 22  1  0
  8 23  1  0
  9 24  1  0
  9 25  1  0
  9 26  1  0
 12 27  1  0
 13 28  1  0
 16 29  1  0
 16 30  1  0
 17 31  1  0
 17 32  1  0
 17 33  1  0
M  ISO  8  18  14  19  14  20   8  21   8  22   8  23   8  24   8  25   8
M  ISO  8  26   8  27  14  28  14  29   8  30   8  31   8  32   8  33   8
M  END
>  <minimizedAffinity>  (1) 
-4.32922077

>  <minimizedRMSD>  (1) 
0.349763185

$$$$
