
     RDKit          3D

 30 31  0  0  0  0  0  0  0  0999 V2000
   38.7240   23.3820   38.4610 C   0  0  0  0  0  0  0  0  0  0  0  0
   38.0320   24.4050   37.7960 C   0  0  0  0  0  0  0  0  0  0  0  0
   38.4470   24.7060   36.4940 C   0  0  0  0  0  0  0  0  0  0  0  0
   39.4970   24.0090   35.9170 N   0  0  0  0  0  0  0  0  0  0  0  0
   40.0970   23.0470   36.6340 C   0  0  0  0  0  0  0  0  0  0  0  0
   39.7260   22.7310   37.8860 N   0  0  0  0  0  0  0  0  0  0  0  0
   37.7850   25.7470   35.6630 C   0  0  0  0  0  0  0  0  0  0  0  0
   37.7790   25.4680   34.2130 C   0  0  0  0  0  0  0  0  0  0  0  0
   38.4030   27.1360   35.9350 C   0  0  0  0  0  0  0  0  0  0  0  0
   41.1610   22.3130   36.0960 O   0  0  0  0  0  0  0  0  0  0  0  0
   42.4210   22.6730   36.1680 C   0  0  0  0  0  0  0  0  0  0  0  0
   43.0670   23.8240   36.5470 C   0  0  0  0  0  0  0  0  0  0  0  0
   44.4120   23.8730   36.5060 C   0  0  0  0  0  0  0  0  0  0  0  0
   45.1120   22.7300   36.0710 C   0  0  0  0  0  0  0  0  0  0  0  0
   43.7490   21.5020   35.6940 S   0  0  0  0  0  0  0  0  0  0  0  0
   46.5480   22.4940   35.9230 C   0  0  0  0  0  0  0  0  0  0  0  0
   38.4279   23.1129   39.4857 H   0  0  0  0  0  0  0  0  0  0  0  0
   37.2023   24.9451   38.2754 H   0  0  0  0  0  0  0  0  0  0  0  0
   36.7297   25.7337   35.9731 H   0  0  0  0  0  0  0  0  0  0  0  0
   37.7556   24.3806   34.0489 H   0  0  0  0  0  0  0  0  0  0  0  0
   36.8905   25.9271   33.7549 H   0  0  0  0  0  0  0  0  0  0  0  0
   38.6864   25.8885   33.7549 H   0  0  0  0  0  0  0  0  0  0  0  0
   38.4755   27.2989   37.0205 H   0  0  0  0  0  0  0  0  0  0  0  0
   39.4074   27.1841   35.4891 H   0  0  0  0  0  0  0  0  0  0  0  0
   37.7663   27.9143   35.4891 H   0  0  0  0  0  0  0  0  0  0  0  0
   42.4903   24.6990   36.8814 H   0  0  0  0  0  0  0  0  0  0  0  0
   44.9516   24.7837   36.8050 H   0  0  0  0  0  0  0  0  0  0  0  0
   47.0115   22.4178   36.9177 H   0  0  0  0  0  0  0  0  0  0  0  0
   46.7105   21.5571   35.3700 H   0  0  0  0  0  0  0  0  0  0  0  0
   47.0018   23.3296   35.3700 H   0  0  0  0  0  0  0  0  0  0  0  0
  2  1  2  0
  3  2  1  0
  4  3  2  0
  4  5  1  0
  5  6  2  0
  6  1  1  0
  7  9  1  0
  7  3  1  0
  8  7  1  0
 10 11  1  0
 10  5  1  0
 11 12  2  0
 13 12  1  0
 14 13  2  0
 15 14  1  0
 15 11  1  0
 16 14  1  0
  1 17  1  0
  2 18  1  0
  7 19  1  0
  8 20  1  0
  8 21  1  0
  8 22  1  0
  9 23  1  0
  9 24  1  0
  9 25  1  0
 12 26  1  0
 13 27  1  0
 16 28  1  0
 16 29  1  0
 16 30  1  0
M  ISO  8  17  14  18  14  19   8  20   8  21   8  22   8  23   8  24   8
M  ISO  6  25   8  26  14  27  14  28   8  29   8  30   8
M  END
>  <minimizedAffinity>  (1) 
-4.32892132

>  <minimizedRMSD>  (1) 
0.0745117962

$$$$
