
     RDKit          3D

 29 30  0  0  0  0  0  0  0  0999 V2000
   38.7210   23.3840   38.4620 C   0  0  0  0  0  0  0  0  0  0  0  0
   38.0320   24.4110   37.7850 C   0  0  0  0  0  0  0  0  0  0  0  0
   38.4430   24.7120   36.4870 C   0  0  0  0  0  0  0  0  0  0  0  0
   39.4940   24.0060   35.9240 N   0  0  0  0  0  0  0  0  0  0  0  0
   40.0940   23.0410   36.6430 C   0  0  0  0  0  0  0  0  0  0  0  0
   39.7280   22.7250   37.8870 N   0  0  0  0  0  0  0  0  0  0  0  0
   37.7870   25.7490   35.6580 C   0  0  0  0  0  0  0  0  0  0  0  0
   37.7880   25.4600   34.2080 C   0  0  0  0  0  0  0  0  0  0  0  0
   38.3930   27.1440   35.9270 C   0  0  0  0  0  0  0  0  0  0  0  0
   41.1530   22.3100   36.1050 O   0  0  0  0  0  0  0  0  0  0  0  0
   42.4130   22.6630   36.1670 C   0  0  0  0  0  0  0  0  0  0  0  0
   43.0680   23.8080   36.5540 C   0  0  0  0  0  0  0  0  0  0  0  0
   44.4080   23.8730   36.5050 C   0  0  0  0  0  0  0  0  0  0  0  0
   45.1190   22.7320   36.0490 C   0  0  0  0  0  0  0  0  0  0  0  0
   43.7510   21.5140   35.6740 S   0  0  0  0  0  0  0  0  0  0  0  0
   46.4810   22.4280   35.8650 C   0  0  0  0  0  0  0  0  0  0  0  0
   47.2860   22.8530   36.7320 O   0  0  0  0  0  0  0  0  0  0  0  0
   38.4214   23.1204   39.4871 H   0  0  0  0  0  0  0  0  0  0  0  0
   37.2026   24.9536   38.2621 H   0  0  0  0  0  0  0  0  0  0  0  0
   36.7320   25.7396   35.9694 H   0  0  0  0  0  0  0  0  0  0  0  0
   37.7918   24.3712   34.0511 H   0  0  0  0  0  0  0  0  0  0  0  0
   36.8883   25.8938   33.7470 H   0  0  0  0  0  0  0  0  0  0  0  0
   38.6846   25.9000   33.7470 H   0  0  0  0  0  0  0  0  0  0  0  0
   38.4649   27.3095   37.0121 H   0  0  0  0  0  0  0  0  0  0  0  0
   39.3966   27.2001   35.4802 H   0  0  0  0  0  0  0  0  0  0  0  0
   37.7491   27.9159   35.4802 H   0  0  0  0  0  0  0  0  0  0  0  0
   42.4909   24.6758   36.9058 H   0  0  0  0  0  0  0  0  0  0  0  0
   44.9407   24.7858   36.8100 H   0  0  0  0  0  0  0  0  0  0  0  0
   46.8263   21.8435   34.9995 H   0  0  0  0  0  0  0  0  0  0  0  0
  2  1  2  0
  3  2  1  0
  4  3  2  0
  4  5  1  0
  5  6  2  0
  6  1  1  0
  7  9  1  0
  7  3  1  0
  8  7  1  0
 10 11  1  0
 10  5  1  0
 11 12  2  0
 13 12  1  0
 14 13  2  0
 15 14  1  0
 15 11  1  0
 16 14  1  0
 16 17  2  0
  1 18  1  0
  2 19  1  0
  7 20  1  0
  8 21  1  0
  8 22  1  0
  8 23  1  0
  9 24  1  0
  9 25  1  0
  9 26  1  0
 12 27  1  0
 13 28  1  0
 16 29  1  0
M  ISO  8  18  14  19  14  20   8  21   8  22   8  23   8  24   8  25   8
M  ISO  4  26   8  27  14  28  14  29   6
M  END
>  <minimizedAffinity>  (1) 
-4.238276

>  <minimizedRMSD>  (1) 
0.092946142

$$$$
