
     RDKit          3D

 37 39  0  0  0  0  0  0  0  0999 V2000
   38.6960   23.3550   38.4110 C   0  0  0  0  0  0  0  0  0  0  0  0
   37.9930   24.3690   37.7380 C   0  0  0  0  0  0  0  0  0  0  0  0
   38.4270   24.7190   36.4610 C   0  0  0  0  0  0  0  0  0  0  0  0
   39.5170   24.0700   35.9030 N   0  0  0  0  0  0  0  0  0  0  0  0
   40.1360   23.1050   36.6190 C   0  0  0  0  0  0  0  0  0  0  0  0
   39.7400   22.7490   37.8480 N   0  0  0  0  0  0  0  0  0  0  0  0
   37.7440   25.7550   35.6430 C   0  0  0  0  0  0  0  0  0  0  0  0
   37.7500   25.4750   34.1910 C   0  0  0  0  0  0  0  0  0  0  0  0
   38.3290   27.1560   35.9200 C   0  0  0  0  0  0  0  0  0  0  0  0
   41.2320   22.4350   36.0830 O   0  0  0  0  0  0  0  0  0  0  0  0
   42.4740   22.8230   36.1950 C   0  0  0  0  0  0  0  0  0  0  0  0
   43.0770   24.0220   36.4860 C   0  0  0  0  0  0  0  0  0  0  0  0
   44.4140   24.1180   36.5330 C   0  0  0  0  0  0  0  0  0  0  0  0
   45.1640   22.9200   36.2650 C   0  0  0  0  0  0  0  0  0  0  0  0
   43.8550   21.6440   35.9440 S   0  0  0  0  0  0  0  0  0  0  0  0
   46.6010   22.7210   36.2450 C   0  0  0  0  0  0  0  0  0  0  0  0
   47.1670   21.7400   35.5070 C   0  0  0  0  0  0  0  0  0  0  0  0
   48.5440   21.6420   35.5620 C   0  0  0  0  0  0  0  0  0  0  0  0
   49.2890   22.5100   36.3360 C   0  0  0  0  0  0  0  0  0  0  0  0
   48.6870   23.5050   37.0810 C   0  0  0  0  0  0  0  0  0  0  0  0
   47.3110   23.5890   37.0140 C   0  0  0  0  0  0  0  0  0  0  0  0
   38.3783   23.0565   39.4209 H   0  0  0  0  0  0  0  0  0  0  0  0
   37.1305   24.8688   38.2030 H   0  0  0  0  0  0  0  0  0  0  0  0
   36.6904   25.7283   35.9581 H   0  0  0  0  0  0  0  0  0  0  0  0
   37.7733   24.3875   34.0274 H   0  0  0  0  0  0  0  0  0  0  0  0
   36.8426   25.8954   33.7328 H   0  0  0  0  0  0  0  0  0  0  0  0
   38.6385   25.9339   33.7328 H   0  0  0  0  0  0  0  0  0  0  0  0
   38.3963   27.3171   37.0061 H   0  0  0  0  0  0  0  0  0  0  0  0
   39.3326   27.2287   35.4757 H   0  0  0  0  0  0  0  0  0  0  0  0
   37.6751   27.9208   35.4757 H   0  0  0  0  0  0  0  0  0  0  0  0
   42.4588   24.9105   36.6820 H   0  0  0  0  0  0  0  0  0  0  0  0
   44.9143   25.0696   36.7659 H   0  0  0  0  0  0  0  0  0  0  0  0
   46.5624   21.0551   34.8943 H   0  0  0  0  0  0  0  0  0  0  0  0
   49.0549   20.8606   34.9803 H   0  0  0  0  0  0  0  0  0  0  0  0
   50.3839   22.4068   36.3596 H   0  0  0  0  0  0  0  0  0  0  0  0
   49.2767   24.1982   37.6989 H   0  0  0  0  0  0  0  0  0  0  0  0
   46.7839   24.3653   37.5880 H   0  0  0  0  0  0  0  0  0  0  0  0
  2  1  2  0
  3  2  1  0
  4  3  2  0
  4  5  1  0
  5  6  2  0
  6  1  1  0
  7  9  1  0
  7  3  1  0
  8  7  1  0
 10 11  1  0
 10  5  1  0
 11 12  2  0
 12 13  1  0
 14 13  2  0
 15 11  1  0
 15 14  1  0
 16 14  1  0
 16 21  2  0
 17 18  2  0
 17 16  1  0
 18 19  1  0
 19 20  2  0
 21 20  1  0
  1 22  1  0
  2 23  1  0
  7 24  1  0
  8 25  1  0
  8 26  1  0
  8 27  1  0
  9 28  1  0
  9 29  1  0
  9 30  1  0
 12 31  1  0
 13 32  1  0
 17 33  1  0
 18 34  1  0
 19 35  1  0
 20 36  1  0
 21 37  1  0
M  ISO  8  22  14  23  14  24   8  25   8  26   8  27   8  28   8  29   8
M  ISO  8  30   8  31  14  32  14  33  14  34  14  35  14  36  14  37  14
M  END
>  <minimizedAffinity>  (1) 
-4.57847261

>  <minimizedRMSD>  (1) 
0.624216259

$$$$
