
     RDKit          3D

 40 42  0  0  0  0  0  0  0  0999 V2000
   42.3580   23.8270   35.6610 C   0  0  0  0  0  0  0  0  0  0  0  0
   42.6860   25.0720   35.2140 C   0  0  0  0  0  0  0  0  0  0  0  0
   43.9340   25.5510   35.3740 C   0  0  0  0  0  0  0  0  0  0  0  0
   44.8770   24.7130   36.0240 C   0  0  0  0  0  0  0  0  0  0  0  0
   43.8980   23.1770   36.4030 S   0  0  0  0  0  0  0  0  0  0  0  0
   46.2680   24.9890   36.3310 C   0  0  0  0  0  0  0  0  0  0  0  0
   47.2130   24.8890   35.3410 C   0  0  0  0  0  0  0  0  0  0  0  0
   48.5090   25.1930   35.6610 C   0  0  0  0  0  0  0  0  0  0  0  0
   48.8100   25.5770   36.9360 C   0  0  0  0  0  0  0  0  0  0  0  0
   47.8480   25.6660   37.9060 C   0  0  0  0  0  0  0  0  0  0  0  0
   46.5260   25.3680   37.6220 C   0  0  0  0  0  0  0  0  0  0  0  0
   45.6610   25.5710   38.8020 C   0  0  0  0  0  0  0  0  0  0  0  0
   46.0400   24.8620   39.9180 F   0  0  0  0  0  0  0  0  0  0  0  0
   44.3280   25.6370   38.5880 F   0  0  0  0  0  0  0  0  0  0  0  0
   45.9150   26.9210   39.3070 F   0  0  0  0  0  0  0  0  0  0  0  0
   41.2590   23.1140   35.6450 O   0  0  0  0  0  0  0  0  0  0  0  0
   38.3140   23.2410   37.6270 C   0  0  0  0  0  0  0  0  0  0  0  0
   37.5970   24.3180   37.0890 C   0  0  0  0  0  0  0  0  0  0  0  0
   38.1610   25.0020   36.0210 C   0  0  0  0  0  0  0  0  0  0  0  0
   39.3990   24.6090   35.5210 N   0  0  0  0  0  0  0  0  0  0  0  0
   40.0220   23.5550   36.1020 C   0  0  0  0  0  0  0  0  0  0  0  0
   39.5010   22.8830   37.1290 N   0  0  0  0  0  0  0  0  0  0  0  0
   37.4900   26.1480   35.3440 C   0  0  0  0  0  0  0  0  0  0  0  0
   37.3720   26.0010   33.8930 C   0  0  0  0  0  0  0  0  0  0  0  0
   38.1920   27.4920   35.7080 C   0  0  0  0  0  0  0  0  0  0  0  0
   41.9241   25.6912   34.7179 H   0  0  0  0  0  0  0  0  0  0  0  0
   44.2119   26.5529   35.0149 H   0  0  0  0  0  0  0  0  0  0  0  0
   46.9381   24.5748   34.3233 H   0  0  0  0  0  0  0  0  0  0  0  0
   49.2994   25.1285   34.8987 H   0  0  0  0  0  0  0  0  0  0  0  0
   49.8520   25.8211   37.1904 H   0  0  0  0  0  0  0  0  0  0  0  0
   48.1286   25.9779   38.9229 H   0  0  0  0  0  0  0  0  0  0  0  0
   37.8922   22.6804   38.4742 H   0  0  0  0  0  0  0  0  0  0  0  0
   36.6196   24.6117   37.4994 H   0  0  0  0  0  0  0  0  0  0  0  0
   36.4587   26.1573   35.7266 H   0  0  0  0  0  0  0  0  0  0  0  0
   36.6986   25.1621   33.6630 H   0  0  0  0  0  0  0  0  0  0  0  0
   36.9639   26.9274   33.4626 H   0  0  0  0  0  0  0  0  0  0  0  0
   38.3647   25.8029   33.4626 H   0  0  0  0  0  0  0  0  0  0  0  0
   38.2450   27.5934   36.8020 H   0  0  0  0  0  0  0  0  0  0  0  0
   39.2092   27.4995   35.2894 H   0  0  0  0  0  0  0  0  0  0  0  0
   37.6170   28.3311   35.2894 H   0  0  0  0  0  0  0  0  0  0  0  0
  1  5  1  0
  2  3  1  0
  2  1  2  0
  3  4  2  0
  4  6  1  0
  4  5  1  0
  6 11  2  0
  7  8  2  0
  7  6  1  0
  8  9  1  0
  9 10  2  0
 11 10  1  0
 11 12  1  0
 12 15  1  0
 12 13  1  0
 14 12  1  0
 16  1  1  0
 16 21  1  0
 18 17  2  0
 19 18  1  0
 20 19  2  0
 20 21  1  0
 21 22  2  0
 22 17  1  0
 23 25  1  0
 23 19  1  0
 24 23  1  0
  2 26  1  0
  3 27  1  0
  7 28  1  0
  8 29  1  0
  9 30  1  0
 10 31  1  0
 17 32  1  0
 18 33  1  0
 23 34  1  0
 24 35  1  0
 24 36  1  0
 24 37  1  0
 25 38  1  0
 25 39  1  0
 25 40  1  0
M  ISO  8  26  14  27  14  28  14  29  14  30  14  31  14  32  14  33  14
M  ISO  7  34   8  35   8  36   8  37   8  38   8  39   8  40   8
M  END
>  <minimizedAffinity>  (1) 
-5.98708916

>  <minimizedRMSD>  (1) 
1.80300486

$$$$
