
     RDKit          3D

 42 44  0  0  0  0  0  0  0  0999 V2000
   42.2580   23.6070   35.4100 C   0  0  0  0  0  0  0  0  0  0  0  0
   42.8890   24.7720   35.0860 C   0  0  0  0  0  0  0  0  0  0  0  0
   44.1490   24.9880   35.4890 C   0  0  0  0  0  0  0  0  0  0  0  0
   44.7790   23.9590   36.2550 C   0  0  0  0  0  0  0  0  0  0  0  0
   43.4780   22.6340   36.3860 S   0  0  0  0  0  0  0  0  0  0  0  0
   46.1100   23.8920   36.8160 C   0  0  0  0  0  0  0  0  0  0  0  0
   47.0800   23.1200   36.3120 C   0  0  0  0  0  0  0  0  0  0  0  0
   48.3170   23.1850   36.9200 C   0  0  0  0  0  0  0  0  0  0  0  0
   48.5500   23.9930   37.9840 C   0  0  0  0  0  0  0  0  0  0  0  0
   47.5520   24.7760   38.4910 C   0  0  0  0  0  0  0  0  0  0  0  0
   46.3270   24.6940   37.8700 C   0  0  0  0  0  0  0  0  0  0  0  0
   45.4120   25.5320   38.6090 C   0  0  0  0  0  0  0  0  0  0  0  0
   45.6420   26.6280   39.2380 O   0  0  0  0  0  0  0  0  0  0  0  0
   44.3870   26.1480   39.2350 O   0  0  0  0  0  0  0  0  0  0  0  0
   41.0650   23.1120   35.1730 O   0  0  0  0  0  0  0  0  0  0  0  0
   38.2990   23.2690   37.3960 C   0  0  0  0  0  0  0  0  0  0  0  0
   37.5830   24.3910   36.9550 C   0  0  0  0  0  0  0  0  0  0  0  0
   38.0860   25.0920   35.8660 C   0  0  0  0  0  0  0  0  0  0  0  0
   39.2660   24.6730   35.2500 N   0  0  0  0  0  0  0  0  0  0  0  0
   39.8870   23.5780   35.7450 C   0  0  0  0  0  0  0  0  0  0  0  0
   39.4230   22.8870   36.7930 N   0  0  0  0  0  0  0  0  0  0  0  0
   37.4100   26.2870   35.2850 C   0  0  0  0  0  0  0  0  0  0  0  0
   37.2350   26.2290   33.8320 C   0  0  0  0  0  0  0  0  0  0  0  0
   38.1430   27.5960   35.7020 C   0  0  0  0  0  0  0  0  0  0  0  0
   42.3633   25.5351   34.4933 H   0  0  0  0  0  0  0  0  0  0  0  0
   44.6771   25.9202   35.2400 H   0  0  0  0  0  0  0  0  0  0  0  0
   46.8989   22.4616   35.4496 H   0  0  0  0  0  0  0  0  0  0  0  0
   49.1372   22.5640   36.5307 H   0  0  0  0  0  0  0  0  0  0  0  0
   49.5498   24.0181   38.4420 H   0  0  0  0  0  0  0  0  0  0  0  0
   47.7194   25.4389   39.3527 H   0  0  0  0  0  0  0  0  0  0  0  0
   44.6334   25.7957   37.8781 H   0  0  0  0  0  0  0  0  0  0  0  0
   45.2784   24.8786   39.4838 H   0  0  0  0  0  0  0  0  0  0  0  0
   44.0768   26.0294   40.1676 H   0  0  0  0  0  0  0  0  0  0  0  0
   37.9253   22.6938   38.2559 H   0  0  0  0  0  0  0  0  0  0  0  0
   36.6546   24.7055   37.4542 H   0  0  0  0  0  0  0  0  0  0  0  0
   36.3943   26.2877   35.7073 H   0  0  0  0  0  0  0  0  0  0  0  0
   36.2146   25.8908   33.5988 H   0  0  0  0  0  0  0  0  0  0  0  0
   37.3969   27.2289   33.4030 H   0  0  0  0  0  0  0  0  0  0  0  0
   37.9620   25.5238   33.4030 H   0  0  0  0  0  0  0  0  0  0  0  0
   38.1799   27.6619   36.7994 H   0  0  0  0  0  0  0  0  0  0  0  0
   39.1671   27.5866   35.3006 H   0  0  0  0  0  0  0  0  0  0  0  0
   37.5998   28.4642   35.3006 H   0  0  0  0  0  0  0  0  0  0  0  0
  1  5  1  0
  2  1  2  0
  2  3  1  0
  3  4  2  0
  4  5  1  0
  4  6  1  0
  6 11  1  0
  7  6  2  0
  7  8  1  0
  8  9  2  0
  9 10  1  0
 11 10  2  0
 11 12  1  0
 12 13  1  0
 14 13  1  0
 15  1  1  0
 15 20  1  0
 17 16  2  0
 18 17  1  0
 19 20  1  0
 19 18  2  0
 20 21  2  0
 21 16  1  0
 22 24  1  0
 22 18  1  0
 23 22  1  0
  2 25  1  0
  3 26  1  0
  7 27  1  0
  8 28  1  0
  9 29  1  0
 10 30  1  0
 12 31  1  0
 12 32  1  0
 14 33  1  0
 16 34  1  0
 17 35  1  0
 22 36  1  0
 23 37  1  0
 23 38  1  0
 23 39  1  0
 24 40  1  0
 24 41  1  0
 24 42  1  0
M  ISO  8  25  14  26  14  27  14  28  14  29  14  30  14  31   8  32   8
M  ISO  8  33   3  34  14  35  14  36   8  37   8  38   8  39   8  40   8
M  ISO  2  41   8  42   8
M  END
>  <minimizedAffinity>  (1) 
-5.79779911

>  <minimizedRMSD>  (1) 
1.46879804

$$$$
