
     RDKit          3D

 46 48  0  0  0  0  0  0  0  0999 V2000
   42.3560   24.0570   35.3270 C   0  0  0  0  0  0  0  0  0  0  0  0
   42.5730   25.2570   34.7190 C   0  0  0  0  0  0  0  0  0  0  0  0
   43.7760   25.8510   34.8030 C   0  0  0  0  0  0  0  0  0  0  0  0
   44.7910   25.1840   35.5470 C   0  0  0  0  0  0  0  0  0  0  0  0
   43.9500   23.6460   36.1210 S   0  0  0  0  0  0  0  0  0  0  0  0
   46.1570   25.6150   35.7960 C   0  0  0  0  0  0  0  0  0  0  0  0
   46.9380   25.9940   34.7310 C   0  0  0  0  0  0  0  0  0  0  0  0
   48.1720   26.5250   34.9970 C   0  0  0  0  0  0  0  0  0  0  0  0
   48.5580   26.6510   36.3010 C   0  0  0  0  0  0  0  0  0  0  0  0
   47.7540   26.2570   37.3410 C   0  0  0  0  0  0  0  0  0  0  0  0
   46.5190   25.7190   37.1120 C   0  0  0  0  0  0  0  0  0  0  0  0
   45.9210   25.3210   38.4110 C   0  0  0  0  0  0  0  0  0  0  0  0
   46.8900   24.7730   39.4170 C   0  0  0  0  0  0  0  0  0  0  0  0
   44.8910   26.2820   38.9640 C   0  0  0  0  0  0  0  0  0  0  0  0
   41.3250   23.2580   35.4180 O   0  0  0  0  0  0  0  0  0  0  0  0
   38.3990   23.1940   37.4490 C   0  0  0  0  0  0  0  0  0  0  0  0
   37.6380   24.2770   36.9730 C   0  0  0  0  0  0  0  0  0  0  0  0
   38.1760   25.0220   35.9340 C   0  0  0  0  0  0  0  0  0  0  0  0
   39.4190   24.6940   35.3970 N   0  0  0  0  0  0  0  0  0  0  0  0
   40.0780   23.6270   35.9250 C   0  0  0  0  0  0  0  0  0  0  0  0
   39.5870   22.8970   36.9200 N   0  0  0  0  0  0  0  0  0  0  0  0
   37.4600   26.1800   35.3310 C   0  0  0  0  0  0  0  0  0  0  0  0
   37.2800   26.0860   33.8800 C   0  0  0  0  0  0  0  0  0  0  0  0
   38.1630   27.5190   35.7060 C   0  0  0  0  0  0  0  0  0  0  0  0
   41.7607   25.7415   34.1573 H   0  0  0  0  0  0  0  0  0  0  0  0
   43.9695   26.8175   34.3147 H   0  0  0  0  0  0  0  0  0  0  0  0
   46.5831   25.8746   33.6967 H   0  0  0  0  0  0  0  0  0  0  0  0
   48.8365   26.8425   34.1799 H   0  0  0  0  0  0  0  0  0  0  0  0
   49.5449   27.0821   36.5248 H   0  0  0  0  0  0  0  0  0  0  0  0
   48.1093   26.3762   38.3752 H   0  0  0  0  0  0  0  0  0  0  0  0
   45.3179   24.4396   38.1476 H   0  0  0  0  0  0  0  0  0  0  0  0
   46.5215   24.9814   40.4323 H   0  0  0  0  0  0  0  0  0  0  0  0
   46.9873   23.6861   39.2781 H   0  0  0  0  0  0  0  0  0  0  0  0
   47.8716   25.2497   39.2781 H   0  0  0  0  0  0  0  0  0  0  0  0
   44.9185   26.2563   40.0634 H   0  0  0  0  0  0  0  0  0  0  0  0
   45.1156   27.3008   38.6153 H   0  0  0  0  0  0  0  0  0  0  0  0
   43.8902   25.9874   38.6153 H   0  0  0  0  0  0  0  0  0  0  0  0
   38.0069   22.5802   38.2733 H   0  0  0  0  0  0  0  0  0  0  0  0
   36.6574   24.5228   37.4065 H   0  0  0  0  0  0  0  0  0  0  0  0
   36.4482   26.1581   35.7620 H   0  0  0  0  0  0  0  0  0  0  0  0
   36.3245   25.5870   33.6606 H   0  0  0  0  0  0  0  0  0  0  0  0
   37.2744   27.0963   33.4450 H   0  0  0  0  0  0  0  0  0  0  0  0
   38.1059   25.5041   33.4450 H   0  0  0  0  0  0  0  0  0  0  0  0
   38.2124   27.6131   36.8009 H   0  0  0  0  0  0  0  0  0  0  0  0
   39.1817   27.5271   35.2909 H   0  0  0  0  0  0  0  0  0  0  0  0
   37.5912   28.3621   35.2909 H   0  0  0  0  0  0  0  0  0  0  0  0
  1 15  1  0
  1  5  1  0
  2  3  1  0
  2  1  2  0
  3  4  2  0
  4  6  1  0
  4  5  1  0
  6 11  2  0
  7  8  2  0
  7  6  1  0
  8  9  1  0
  9 10  2  0
 11 10  1  0
 11 12  1  0
 12 14  1  0
 12 13  1  0
 15 20  1  0
 17 16  2  0
 18 17  1  0
 19 20  1  0
 19 18  2  0
 20 21  2  0
 21 16  1  0
 22 24  1  0
 22 18  1  0
 23 22  1  0
  2 25  1  0
  3 26  1  0
  7 27  1  0
  8 28  1  0
  9 29  1  0
 10 30  1  0
 12 31  1  0
 13 32  1  0
 13 33  1  0
 13 34  1  0
 14 35  1  0
 14 36  1  0
 14 37  1  0
 16 38  1  0
 17 39  1  0
 22 40  1  0
 23 41  1  0
 23 42  1  0
 23 43  1  0
 24 44  1  0
 24 45  1  0
 24 46  1  0
M  ISO  8  25  14  26  14  27  14  28  14  29  14  30  14  31   8  32   8
M  ISO  8  33   8  34   8  35   8  36   8  37   8  38  14  39  14  40   8
M  ISO  6  41   8  42   8  43   8  44   8  45   8  46   8
M  END
>  <minimizedAffinity>  (1) 
-5.62279701

>  <minimizedRMSD>  (1) 
2.22670913

$$$$
