
     RDKit          3D

 44 47  0  0  0  0  0  0  0  0999 V2000
   42.2980   23.2340   35.4830 C   0  0  0  0  0  0  0  0  0  0  0  0
   42.4560   24.1870   34.5190 C   0  0  0  0  0  0  0  0  0  0  0  0
   43.6780   24.6500   34.2340 C   0  0  0  0  0  0  0  0  0  0  0  0
   44.7780   24.1180   34.9650 C   0  0  0  0  0  0  0  0  0  0  0  0
   43.9860   22.9010   36.1010 S   0  0  0  0  0  0  0  0  0  0  0  0
   46.1870   24.4350   34.8490 C   0  0  0  0  0  0  0  0  0  0  0  0
   46.8640   24.1790   33.6910 C   0  0  0  0  0  0  0  0  0  0  0  0
   48.1910   24.5540   33.6520 C   0  0  0  0  0  0  0  0  0  0  0  0
   48.7740   25.1580   34.7490 C   0  0  0  0  0  0  0  0  0  0  0  0
   48.0730   25.4060   35.9040 C   0  0  0  0  0  0  0  0  0  0  0  0
   46.7470   25.0220   35.9260 C   0  0  0  0  0  0  0  0  0  0  0  0
   46.1910   25.3500   37.2490 C   0  0  0  0  0  0  0  0  0  0  0  0
   46.5740   24.9440   38.5140 C   0  0  0  0  0  0  0  0  0  0  0  0
   45.7650   25.4900   39.4380 N   0  0  0  0  0  0  0  0  0  0  0  0
   44.8510   26.2570   38.7730 C   0  0  0  0  0  0  0  0  0  0  0  0
   45.1130   26.1690   37.4470 N   0  0  0  0  0  0  0  0  0  0  0  0
   41.2610   22.5950   35.9780 O   0  0  0  0  0  0  0  0  0  0  0  0
   38.6890   23.3090   38.3190 C   0  0  0  0  0  0  0  0  0  0  0  0
   37.9530   24.3300   37.6990 C   0  0  0  0  0  0  0  0  0  0  0  0
   38.3710   24.7650   36.4500 C   0  0  0  0  0  0  0  0  0  0  0  0
   39.4920   24.1890   35.8510 N   0  0  0  0  0  0  0  0  0  0  0  0
   40.1430   23.2070   36.5230 C   0  0  0  0  0  0  0  0  0  0  0  0
   39.7560   22.7740   37.7290 N   0  0  0  0  0  0  0  0  0  0  0  0
   37.6640   25.8200   35.6820 C   0  0  0  0  0  0  0  0  0  0  0  0
   37.6060   25.5790   34.2380 C   0  0  0  0  0  0  0  0  0  0  0  0
   38.2740   27.2260   35.9650 C   0  0  0  0  0  0  0  0  0  0  0  0
   41.5801   24.5736   33.9775 H   0  0  0  0  0  0  0  0  0  0  0  0
   43.8283   25.4170   33.4599 H   0  0  0  0  0  0  0  0  0  0  0  0
   46.3751   23.6973   32.8314 H   0  0  0  0  0  0  0  0  0  0  0  0
   48.7863   24.3716   32.7452 H   0  0  0  0  0  0  0  0  0  0  0  0
   49.8333   25.4497   34.6960 H   0  0  0  0  0  0  0  0  0  0  0  0
   48.5465   25.8885   36.7718 H   0  0  0  0  0  0  0  0  0  0  0  0
   47.4174   24.2724   38.7322 H   0  0  0  0  0  0  0  0  0  0  0  0
   44.0429   26.8439   39.2341 H   0  0  0  0  0  0  0  0  0  0  0  0
   44.5829   26.6449   36.7031 H   0  0  0  0  0  0  0  0  0  0  0  0
   38.3792   22.9443   39.3095 H   0  0  0  0  0  0  0  0  0  0  0  0
   37.0722   24.7716   38.1880 H   0  0  0  0  0  0  0  0  0  0  0  0
   36.6249   25.7864   36.0415 H   0  0  0  0  0  0  0  0  0  0  0  0
   37.3523   24.5249   34.0521 H   0  0  0  0  0  0  0  0  0  0  0  0
   36.8379   26.2257   33.7889 H   0  0  0  0  0  0  0  0  0  0  0  0
   38.5843   25.8054   33.7889 H   0  0  0  0  0  0  0  0  0  0  0  0
   38.3426   27.3840   37.0514 H   0  0  0  0  0  0  0  0  0  0  0  0
   39.2789   27.2857   35.5217 H   0  0  0  0  0  0  0  0  0  0  0  0
   37.6310   28.0006   35.5217 H   0  0  0  0  0  0  0  0  0  0  0  0
  1 17  1  0
  1  5  1  0
  2  1  2  0
  3  2  1  0
  3  4  2  0
  4  5  1  0
  6  4  1  0
  6 11  1  0
  7  6  2  0
  8  7  1  0
  8  9  2  0
  9 10  1  0
 10 11  2  0
 11 12  1  0
 12 16  1  0
 12 13  2  0
 13 14  1  0
 15 14  2  0
 16 15  1  0
 17 22  1  0
 19 18  2  0
 20 19  1  0
 21 20  2  0
 21 22  1  0
 22 23  2  0
 23 18  1  0
 24 26  1  0
 24 20  1  0
 25 24  1  0
  2 27  1  0
  3 28  1  0
  7 29  1  0
  8 30  1  0
  9 31  1  0
 10 32  1  0
 13 33  1  0
 15 34  1  0
 16 35  1  0
 18 36  1  0
 19 37  1  0
 24 38  1  0
 25 39  1  0
 25 40  1  0
 25 41  1  0
 26 42  1  0
 26 43  1  0
 26 44  1  0
M  ISO  8  27  14  28  14  29  14  30  14  31  14  32  14  33  14  34  14
M  ISO  8  35   9  36  14  37  14  38   8  39   8  40   8  41   8  42   8
M  ISO  2  43   8  44   8
M  END
>  <minimizedAffinity>  (1) 
-5.37726068

>  <minimizedRMSD>  (1) 
1.60117459

$$$$
