
     RDKit          3D

 44 49  0  0  0  0  0  0  0  0999 V2000
   38.1060   24.2280   31.3810 C   0  0  0  0  0  0  0  0  0  0  0  0
   37.4400   25.4520   31.3370 C   0  0  0  0  0  0  0  0  0  0  0  0
   37.5780   26.2360   32.4700 C   0  0  0  0  0  0  0  0  0  0  0  0
   38.3120   25.7640   33.4680 N   0  0  0  0  0  0  0  0  0  0  0  0
   38.9500   24.6160   33.5390 C   0  0  0  0  0  0  0  0  0  0  0  0
   38.8120   23.8750   32.4550 N   0  0  0  0  0  0  0  0  0  0  0  0
   36.9610   27.5100   32.5780 N   0  0  0  0  0  0  0  0  0  0  0  0
   37.0890   28.5400   31.7250 C   0  0  0  0  0  0  0  0  0  0  0  0
   36.3770   29.5670   32.1320 N   0  0  0  0  0  0  0  0  0  0  0  0
   35.7730   29.2010   33.2730 C   0  0  0  0  0  0  0  0  0  0  0  0
   36.1510   27.9350   33.5180 N   0  0  0  0  0  0  0  0  0  0  0  0
   39.7700   23.9990   34.5590 C   0  0  0  0  0  0  0  0  0  0  0  0
   41.0660   23.5760   34.2950 C   0  0  0  0  0  0  0  0  0  0  0  0
   41.8890   22.9870   35.2140 C   0  0  0  0  0  0  0  0  0  0  0  0
   41.4410   22.7810   36.5030 C   0  0  0  0  0  0  0  0  0  0  0  0
   40.1790   23.1790   36.8070 C   0  0  0  0  0  0  0  0  0  0  0  0
   39.7190   22.9760   38.1000 C   0  0  0  0  0  0  0  0  0  0  0  0
   38.4630   23.3420   38.5040 C   0  0  0  0  0  0  0  0  0  0  0  0
   37.6460   23.9380   37.5510 C   0  0  0  0  0  0  0  0  0  0  0  0
   38.1370   24.1230   36.2770 C   0  0  0  0  0  0  0  0  0  0  0  0
   39.3800   23.7650   35.8640 C   0  0  0  0  0  0  0  0  0  0  0  0
   34.8700   29.8700   34.1960 C   0  0  0  0  0  0  0  0  0  0  0  0
   33.6980   29.5620   34.7870 N   0  0  0  0  0  0  0  0  0  0  0  0
   33.3030   30.5470   35.5480 O   0  0  0  0  0  0  0  0  0  0  0  0
   34.2070   31.5080   35.4640 C   0  0  0  0  0  0  0  0  0  0  0  0
   35.2050   31.1270   34.6280 N   0  0  0  0  0  0  0  0  0  0  0  0
   34.0590   32.7270   36.1860 N   0  0  0  0  0  0  0  0  0  0  0  0
   34.4190   32.8930   37.4520 N   0  0  0  0  0  0  0  0  0  0  0  0
   34.1510   34.1680   37.8560 C   0  0  0  0  0  0  0  0  0  0  0  0
   33.5950   34.7740   36.7330 C   0  0  0  0  0  0  0  0  0  0  0  0
   33.5360   33.8750   35.6880 C   0  0  0  0  0  0  0  0  0  0  0  0
   38.0482   23.5460   30.5198 H   0  0  0  0  0  0  0  0  0  0  0  0
   36.8485   25.7714   30.4663 H   0  0  0  0  0  0  0  0  0  0  0  0
   37.7040   28.5258   30.8131 H   0  0  0  0  0  0  0  0  0  0  0  0
   41.4568   23.7249   33.2776 H   0  0  0  0  0  0  0  0  0  0  0  0
   42.9050   22.6782   34.9270 H   0  0  0  0  0  0  0  0  0  0  0  0
   42.0855   22.3096   37.2596 H   0  0  0  0  0  0  0  0  0  0  0  0
   40.3908   22.5016   38.8305 H   0  0  0  0  0  0  0  0  0  0  0  0
   38.1170   23.1723   39.5343 H   0  0  0  0  0  0  0  0  0  0  0  0
   36.6253   24.2565   37.8092 H   0  0  0  0  0  0  0  0  0  0  0  0
   37.4723   24.5961   35.5392 H   0  0  0  0  0  0  0  0  0  0  0  0
   34.3329   34.6154   38.8443 H   0  0  0  0  0  0  0  0  0  0  0  0
   33.2523   35.8182   36.6855 H   0  0  0  0  0  0  0  0  0  0  0  0
   33.1495   34.0508   34.6733 H   0  0  0  0  0  0  0  0  0  0  0  0
  1  6  2  0
  2  1  1  0
  2  3  2  0
  3  7  1  0
  3  4  1  0
  4  5  2  0
  5 12  1  0
  6  5  1  0
  7 11  1  0
  8  9  2  0
  8  7  1  0
  9 10  1  0
 10 11  2  0
 10 22  1  0
 12 21  1  0
 13 12  2  0
 13 14  1  0
 14 15  2  0
 15 16  1  0
 16 17  2  0
 17 18  1  0
 19 18  2  0
 20 19  1  0
 21 20  2  0
 21 16  1  0
 22 26  1  0
 22 23  2  0
 23 24  1  0
 25 24  1  0
 25 27  1  0
 26 25  2  0
 27 28  1  0
 28 29  2  0
 30 29  1  0
 31 27  1  0
 31 30  2  0
  1 32  1  0
  2 33  1  0
  8 34  1  0
 13 35  1  0
 14 36  1  0
 15 37  1  0
 17 38  1  0
 18 39  1  0
 19 40  1  0
 20 41  1  0
 29 42  1  0
 30 43  1  0
 31 44  1  0
M  ISO  8  32  14  33  14  34  14  35  14  36  14  37  14  38  14  39  14
M  ISO  5  40  14  41  14  42  14  43  14  44  14
M  END
>  <minimizedAffinity>  (1) 
-6.98349428

>  <minimizedRMSD>  (1) 
1.40606332

$$$$
