
     RDKit          3D

 52 55  0  0  0  0  0  0  0  0999 V2000
   42.1860   22.7780   35.7500 C   0  0  0  0  0  0  0  0  0  0  0  0
   42.3770   23.8470   34.9230 C   0  0  0  0  0  0  0  0  0  0  0  0
   43.5950   24.0980   34.4120 C   0  0  0  0  0  0  0  0  0  0  0  0
   44.6530   23.2180   34.7670 C   0  0  0  0  0  0  0  0  0  0  0  0
   43.8290   21.9840   35.8850 S   0  0  0  0  0  0  0  0  0  0  0  0
   46.0480   23.2450   34.3690 C   0  0  0  0  0  0  0  0  0  0  0  0
   46.4740   22.5400   33.2840 C   0  0  0  0  0  0  0  0  0  0  0  0
   47.8110   22.6590   32.9590 C   0  0  0  0  0  0  0  0  0  0  0  0
   48.6440   23.4510   33.7070 C   0  0  0  0  0  0  0  0  0  0  0  0
   48.1840   24.1590   34.8100 C   0  0  0  0  0  0  0  0  0  0  0  0
   46.8390   24.0320   35.1280 C   0  0  0  0  0  0  0  0  0  0  0  0
   46.5980   24.8070   36.3010 N   0  0  0  0  0  0  0  0  0  0  0  0
   45.8980   26.0930   36.4760 C   0  0  0  0  0  0  0  0  0  0  0  0
   44.7510   25.8670   37.4510 C   0  0  0  0  0  0  0  0  0  0  0  0
   45.2520   25.4150   38.7940 C   0  0  0  0  0  0  0  0  0  0  0  0
   46.7380   25.1150   38.7390 C   0  0  0  0  0  0  0  0  0  0  0  0
   47.0960   24.2480   37.5690 C   0  0  0  0  0  0  0  0  0  0  0  0
   41.1490   22.2970   36.3790 O   0  0  0  0  0  0  0  0  0  0  0  0
   38.6410   23.4680   38.6040 C   0  0  0  0  0  0  0  0  0  0  0  0
   37.9710   24.4560   37.8620 C   0  0  0  0  0  0  0  0  0  0  0  0
   38.4170   24.7050   36.5670 C   0  0  0  0  0  0  0  0  0  0  0  0
   39.4880   23.9810   36.0620 N   0  0  0  0  0  0  0  0  0  0  0  0
   40.0730   23.0480   36.8430 C   0  0  0  0  0  0  0  0  0  0  0  0
   39.6640   22.7910   38.0910 N   0  0  0  0  0  0  0  0  0  0  0  0
   37.7810   25.7050   35.6670 C   0  0  0  0  0  0  0  0  0  0  0  0
   37.8500   25.3580   34.2460 C   0  0  0  0  0  0  0  0  0  0  0  0
   38.3620   27.1280   35.9230 C   0  0  0  0  0  0  0  0  0  0  0  0
   41.5317   24.5053   34.6738 H   0  0  0  0  0  0  0  0  0  0  0  0
   43.7665   24.9541   33.7429 H   0  0  0  0  0  0  0  0  0  0  0  0
   45.7894   21.9094   32.6978 H   0  0  0  0  0  0  0  0  0  0  0  0
   48.2115   22.1133   32.0919 H   0  0  0  0  0  0  0  0  0  0  0  0
   49.7047   23.5277   33.4260 H   0  0  0  0  0  0  0  0  0  0  0  0
   48.8569   24.7931   35.4059 H   0  0  0  0  0  0  0  0  0  0  0  0
   46.5913   26.8448   36.8811 H   0  0  0  0  0  0  0  0  0  0  0  0
   45.5169   26.4585   35.5110 H   0  0  0  0  0  0  0  0  0  0  0  0
   44.1960   26.8086   37.5747 H   0  0  0  0  0  0  0  0  0  0  0  0
   44.1000   25.0802   37.0423 H   0  0  0  0  0  0  0  0  0  0  0  0
   45.0712   26.2095   39.5329 H   0  0  0  0  0  0  0  0  0  0  0  0
   44.7165   24.4979   39.0808 H   0  0  0  0  0  0  0  0  0  0  0  0
   47.2886   26.0639   38.6588 H   0  0  0  0  0  0  0  0  0  0  0  0
   47.0081   24.5729   39.6572 H   0  0  0  0  0  0  0  0  0  0  0  0
   46.6547   23.2512   37.7163 H   0  0  0  0  0  0  0  0  0  0  0  0
   48.1929   24.1901   37.5095 H   0  0  0  0  0  0  0  0  0  0  0  0
   38.3121   23.2502   39.6308 H   0  0  0  0  0  0  0  0  0  0  0  0
   37.1241   25.0128   38.2895 H   0  0  0  0  0  0  0  0  0  0  0  0
   36.7108   25.6996   35.9212 H   0  0  0  0  0  0  0  0  0  0  0  0
   38.0635   24.2841   34.1408 H   0  0  0  0  0  0  0  0  0  0  0  0
   36.8882   25.5895   33.7649 H   0  0  0  0  0  0  0  0  0  0  0  0
   38.6500   25.9398   33.7649 H   0  0  0  0  0  0  0  0  0  0  0  0
   38.4343   27.3051   37.0062 H   0  0  0  0  0  0  0  0  0  0  0  0
   39.3624   27.2022   35.4717 H   0  0  0  0  0  0  0  0  0  0  0  0
   37.6994   27.8812   35.4717 H   0  0  0  0  0  0  0  0  0  0  0  0
  1  5  1  0
  1 18  1  0
  2  1  2  0
  3  4  2  0
  3  2  1  0
  4  5  1  0
  6  4  1  0
  6 11  1  0
  7  6  2  0
  8  7  1  0
  8  9  2  0
  9 10  1  0
 10 11  2  0
 11 12  1  0
 12 13  1  0
 12 17  1  0
 13 14  1  0
 14 15  1  0
 16 15  1  0
 17 16  1  0
 18 23  1  0
 20 19  2  0
 21 20  1  0
 22 21  2  0
 22 23  1  0
 23 24  2  0
 24 19  1  0
 25 27  1  0
 25 21  1  0
 26 25  1  0
  2 28  1  0
  3 29  1  0
  7 30  1  0
  8 31  1  0
  9 32  1  0
 10 33  1  0
 13 34  1  0
 13 35  1  0
 14 36  1  0
 14 37  1  0
 15 38  1  0
 15 39  1  0
 16 40  1  0
 16 41  1  0
 17 42  1  0
 17 43  1  0
 19 44  1  0
 20 45  1  0
 25 46  1  0
 26 47  1  0
 26 48  1  0
 26 49  1  0
 27 50  1  0
 27 51  1  0
 27 52  1  0
M  ISO  8  28  14  29  14  30  14  31  14  32  14  33  14  34  13  35  13
M  ISO  8  36  13  37  13  38  13  39  13  40  13  41  13  42  13  43  13
M  ISO  8  44  14  45  14  46   8  47   8  48   8  49   8  50   8  51   8
M  ISO  1  52   8
M  END
>  <minimizedAffinity>  (1) 
-5.24849081

>  <minimizedRMSD>  (1) 
1.51787806

$$$$
