
     RDKit          3D

 38 40  0  0  0  0  0  0  0  0999 V2000
   41.1320   23.3330   34.9100 O   0  0  0  0  0  0  0  0  0  0  0  0
   38.4180   23.2900   37.1940 C   0  0  0  0  0  0  0  0  0  0  0  0
   37.6500   24.4030   36.8180 C   0  0  0  0  0  0  0  0  0  0  0  0
   38.0970   25.1680   35.7560 C   0  0  0  0  0  0  0  0  0  0  0  0
   39.2770   24.8190   35.0980 N   0  0  0  0  0  0  0  0  0  0  0  0
   39.9530   23.7350   35.5230 C   0  0  0  0  0  0  0  0  0  0  0  0
   39.5370   22.9790   36.5500 N   0  0  0  0  0  0  0  0  0  0  0  0
   37.3660   26.3550   35.2440 C   0  0  0  0  0  0  0  0  0  0  0  0
   37.1510   26.3600   33.7970 C   0  0  0  0  0  0  0  0  0  0  0  0
   38.0680   27.6770   35.6770 C   0  0  0  0  0  0  0  0  0  0  0  0
   42.3230   23.7700   35.2140 C   0  0  0  0  0  0  0  0  0  0  0  0
   43.0710   24.8360   34.8080 C   0  0  0  0  0  0  0  0  0  0  0  0
   44.3070   25.0540   35.2960 C   0  0  0  0  0  0  0  0  0  0  0  0
   44.7880   24.1180   36.2560 C   0  0  0  0  0  0  0  0  0  0  0  0
   43.3790   22.9080   36.4220 S   0  0  0  0  0  0  0  0  0  0  0  0
   46.0480   24.0760   36.9610 C   0  0  0  0  0  0  0  0  0  0  0  0
   47.0650   23.2650   36.5580 C   0  0  0  0  0  0  0  0  0  0  0  0
   48.2310   23.2870   37.2800 C   0  0  0  0  0  0  0  0  0  0  0  0
   48.3490   24.1090   38.3700 C   0  0  0  0  0  0  0  0  0  0  0  0
   47.3020   24.9360   38.7720 C   0  0  0  0  0  0  0  0  0  0  0  0
   46.1360   24.8980   38.0330 C   0  0  0  0  0  0  0  0  0  0  0  0
   44.9210   25.9960   38.7450 S   0  0  0  0  0  0  0  0  0  0  0  0
   38.0874   22.6647   38.0364 H   0  0  0  0  0  0  0  0  0  0  0  0
   36.7223   24.6587   37.3509 H   0  0  0  0  0  0  0  0  0  0  0  0
   36.3687   26.2891   35.7033 H   0  0  0  0  0  0  0  0  0  0  0  0
   36.0716   26.3851   33.5868 H   0  0  0  0  0  0  0  0  0  0  0  0
   37.6308   27.2472   33.3581 H   0  0  0  0  0  0  0  0  0  0  0  0
   37.5890   25.4514   33.3581 H   0  0  0  0  0  0  0  0  0  0  0  0
   38.0980   27.7336   36.7751 H   0  0  0  0  0  0  0  0  0  0  0  0
   39.0940   27.6941   35.2808 H   0  0  0  0  0  0  0  0  0  0  0  0
   37.5075   28.5366   35.2808 H   0  0  0  0  0  0  0  0  0  0  0  0
   42.6553   25.5330   34.0655 H   0  0  0  0  0  0  0  0  0  0  0  0
   44.9143   25.9112   34.9699 H   0  0  0  0  0  0  0  0  0  0  0  0
   46.9547   22.6119   35.6798 H   0  0  0  0  0  0  0  0  0  0  0  0
   49.0727   22.6438   36.9836 H   0  0  0  0  0  0  0  0  0  0  0  0
   49.2900   24.1162   38.9396 H   0  0  0  0  0  0  0  0  0  0  0  0
   47.4007   25.5956   39.6468 H   0  0  0  0  0  0  0  0  0  0  0  0
   44.9924   25.9315   40.1116 H   0  0  0  0  0  0  0  0  0  0  0  0
  1 11  1  0
  1  6  1  0
  3  2  2  0
  4  3  1  0
  5  6  1  0
  5  4  2  0
  6  7  2  0
  7  2  1  0
  8 10  1  0
  8  4  1  0
  9  8  1  0
 11 15  1  0
 12 11  2  0
 12 13  1  0
 13 14  2  0
 14 15  1  0
 14 16  1  0
 16 21  1  0
 17 16  2  0
 17 18  1  0
 18 19  2  0
 19 20  1  0
 21 22  1  0
 21 20  2  0
  2 23  1  0
  3 24  1  0
  8 25  1  0
  9 26  1  0
  9 27  1  0
  9 28  1  0
 10 29  1  0
 10 30  1  0
 10 31  1  0
 12 32  1  0
 13 33  1  0
 17 34  1  0
 18 35  1  0
 19 36  1  0
 20 37  1  0
 22 38  1  0
M  ISO  8  23  14  24  14  25   8  26   8  27   8  28   8  29   8  30   8
M  ISO  8  31   8  32  14  33  14  34  14  35  14  36  14  37  14  38  11
M  END
>  <minimizedAffinity>  (1) 
-5.22233009

>  <minimizedRMSD>  (1) 
1.64128447

$$$$
