
     RDKit          3D

 48 51  0  0  0  0  0  0  0  0999 V2000
   42.2390   22.6150   36.0030 C   0  0  0  0  0  0  0  0  0  0  0  0
   42.9460   23.5480   36.7020 C   0  0  0  0  0  0  0  0  0  0  0  0
   44.2940   23.5660   36.6690 C   0  0  0  0  0  0  0  0  0  0  0  0
   44.9260   22.5620   35.8730 C   0  0  0  0  0  0  0  0  0  0  0  0
   43.5090   21.5970   35.1730 S   0  0  0  0  0  0  0  0  0  0  0  0
   46.3430   22.3320   35.6470 C   0  0  0  0  0  0  0  0  0  0  0  0
   46.8890   21.1010   35.8570 C   0  0  0  0  0  0  0  0  0  0  0  0
   48.2300   20.9650   35.5670 C   0  0  0  0  0  0  0  0  0  0  0  0
   48.9540   22.0330   35.0910 C   0  0  0  0  0  0  0  0  0  0  0  0
   48.3720   23.2820   34.8870 C   0  0  0  0  0  0  0  0  0  0  0  0
   47.0330   23.3950   35.1830 C   0  0  0  0  0  0  0  0  0  0  0  0
   46.6550   24.7600   34.9420 N   0  0  0  0  0  0  0  0  0  0  0  0
   46.0640   25.0380   33.7370 C   0  0  0  0  0  0  0  0  0  0  0  0
   45.6900   26.3700   33.5560 C   0  0  0  0  0  0  0  0  0  0  0  0
   45.9290   27.3020   34.5700 C   0  0  0  0  0  0  0  0  0  0  0  0
   45.5060   28.6360   34.2790 N   0  0  0  0  0  0  0  0  0  0  0  0
   46.5170   26.9640   35.7380 N   0  0  0  0  0  0  0  0  0  0  0  0
   46.8920   25.6680   35.9380 C   0  0  0  0  0  0  0  0  0  0  0  0
   47.4360   25.2850   36.9850 O   0  0  0  0  0  0  0  0  0  0  0  0
   40.9660   22.3710   35.8550 O   0  0  0  0  0  0  0  0  0  0  0  0
   38.5670   23.4010   38.2580 C   0  0  0  0  0  0  0  0  0  0  0  0
   37.9270   24.4920   37.6430 C   0  0  0  0  0  0  0  0  0  0  0  0
   38.3500   24.8600   36.3770 C   0  0  0  0  0  0  0  0  0  0  0  0
   39.3790   24.1520   35.7570 N   0  0  0  0  0  0  0  0  0  0  0  0
   39.9360   23.1130   36.4280 C   0  0  0  0  0  0  0  0  0  0  0  0
   39.5450   22.7430   37.6460 N   0  0  0  0  0  0  0  0  0  0  0  0
   37.7420   25.9800   35.6060 C   0  0  0  0  0  0  0  0  0  0  0  0
   37.5880   25.7100   34.1760 C   0  0  0  0  0  0  0  0  0  0  0  0
   38.5340   27.3030   35.8290 C   0  0  0  0  0  0  0  0  0  0  0  0
   42.4087   24.2973   37.3019 H   0  0  0  0  0  0  0  0  0  0  0  0
   44.8766   24.3147   37.2259 H   0  0  0  0  0  0  0  0  0  0  0  0
   46.2910   20.2600   36.2379 H   0  0  0  0  0  0  0  0  0  0  0  0
   48.7249   19.9942   35.7176 H   0  0  0  0  0  0  0  0  0  0  0  0
   50.0220   21.8972   34.8652 H   0  0  0  0  0  0  0  0  0  0  0  0
   48.9537   24.1353   34.5082 H   0  0  0  0  0  0  0  0  0  0  0  0
   45.8969   24.2680   32.9694 H   0  0  0  0  0  0  0  0  0  0  0  0
   45.2087   26.6856   32.6186 H   0  0  0  0  0  0  0  0  0  0  0  0
   45.6456   29.3836   34.9736 H   0  0  0  0  0  0  0  0  0  0  0  0
   45.0616   28.8497   33.3747 H   0  0  0  0  0  0  0  0  0  0  0  0
   38.2519   23.0870   39.2640 H   0  0  0  0  0  0  0  0  0  0  0  0
   37.1167   25.0353   38.1513 H   0  0  0  0  0  0  0  0  0  0  0  0
   36.7223   26.0897   36.0037 H   0  0  0  0  0  0  0  0  0  0  0  0
   37.0473   24.7620   34.0380 H   0  0  0  0  0  0  0  0  0  0  0  0
   37.0203   26.5275   33.7076 H   0  0  0  0  0  0  0  0  0  0  0  0
   38.5806   25.6375   33.7076 H   0  0  0  0  0  0  0  0  0  0  0  0
   38.6441   27.4870   36.9079 H   0  0  0  0  0  0  0  0  0  0  0  0
   39.5291   27.2167   35.3683 H   0  0  0  0  0  0  0  0  0  0  0  0
   37.9879   28.1394   35.3683 H   0  0  0  0  0  0  0  0  0  0  0  0
  1  2  2  0
  3  2  1  0
  4  3  2  0
  5  4  1  0
  5  1  1  0
  6  7  2  0
  6  4  1  0
  8  7  1  0
  9  8  2  0
 10  9  1  0
 10 11  2  0
 11  6  1  0
 12 11  1  0
 12 18  1  0
 13 12  1  0
 14 13  2  0
 14 15  1  0
 15 17  2  0
 16 15  1  0
 17 18  1  0
 18 19  2  0
 20  1  1  0
 20 25  1  0
 22 21  2  0
 23 22  1  0
 24 23  2  0
 24 25  1  0
 25 26  2  0
 26 21  1  0
 27 29  1  0
 27 23  1  0
 28 27  1  0
  2 30  1  0
  3 31  1  0
  7 32  1  0
  8 33  1  0
  9 34  1  0
 10 35  1  0
 13 36  1  0
 14 37  1  0
 16 38  1  0
 16 39  1  0
 21 40  1  0
 22 41  1  0
 27 42  1  0
 28 43  1  0
 28 44  1  0
 28 45  1  0
 29 46  1  0
 29 47  1  0
 29 48  1  0
M  ISO  8  30  14  31  14  32  14  33  14  34  14  35  14  36  14  37  14
M  ISO  8  40  14  41  14  42   8  43   8  44   8  45   8  46   8  47   8
M  ISO  1  48   8
M  END
>  <minimizedAffinity>  (1) 
-5.19965696

>  <minimizedRMSD>  (1) 
2.52146888

$$$$
