
     RDKit          3D

 50 53  0  0  0  0  0  0  0  0999 V2000
   41.0910   21.9060   35.6320 C   0  0  0  0  0  0  0  0  0  0  0  0
   41.7760   22.0860   34.4680 C   0  0  0  0  0  0  0  0  0  0  0  0
   43.1220   22.0170   34.4320 C   0  0  0  0  0  0  0  0  0  0  0  0
   43.7780   21.7490   35.6720 C   0  0  0  0  0  0  0  0  0  0  0  0
   42.3880   21.5990   36.8830 S   0  0  0  0  0  0  0  0  0  0  0  0
   45.1990   21.6170   35.9410 C   0  0  0  0  0  0  0  0  0  0  0  0
   45.7990   20.3930   35.9170 C   0  0  0  0  0  0  0  0  0  0  0  0
   47.1620   20.3730   36.1340 C   0  0  0  0  0  0  0  0  0  0  0  0
   47.8510   21.5480   36.3600 C   0  0  0  0  0  0  0  0  0  0  0  0
   47.2170   22.7820   36.3820 C   0  0  0  0  0  0  0  0  0  0  0  0
   45.8600   22.7720   36.1640 C   0  0  0  0  0  0  0  0  0  0  0  0
   45.3970   24.1380   36.2660 N   0  0  0  0  0  0  0  0  0  0  0  0
   44.6390   24.7860   37.3540 C   0  0  0  0  0  0  0  0  0  0  0  0
   45.6120   25.8000   37.9630 C   0  0  0  0  0  0  0  0  0  0  0  0
   46.6700   26.0940   37.1090 O   0  0  0  0  0  0  0  0  0  0  0  0
   46.1810   26.3270   35.8250 C   0  0  0  0  0  0  0  0  0  0  0  0
   45.7330   25.0470   35.1560 C   0  0  0  0  0  0  0  0  0  0  0  0
   39.8280   21.9170   35.9450 O   0  0  0  0  0  0  0  0  0  0  0  0
   38.2840   23.8970   38.4540 C   0  0  0  0  0  0  0  0  0  0  0  0
   37.8290   25.0230   37.7530 C   0  0  0  0  0  0  0  0  0  0  0  0
   38.0720   25.0810   36.3850 C   0  0  0  0  0  0  0  0  0  0  0  0
   38.7470   24.0390   35.7640 N   0  0  0  0  0  0  0  0  0  0  0  0
   39.1510   22.9880   36.5090 C   0  0  0  0  0  0  0  0  0  0  0  0
   38.9270   22.9130   37.8300 N   0  0  0  0  0  0  0  0  0  0  0  0
   37.6200   26.2100   35.5290 C   0  0  0  0  0  0  0  0  0  0  0  0
   37.5220   25.8770   34.1070 C   0  0  0  0  0  0  0  0  0  0  0  0
   38.5240   27.4620   35.7400 C   0  0  0  0  0  0  0  0  0  0  0  0
   41.2208   22.2913   33.5409 H   0  0  0  0  0  0  0  0  0  0  0  0
   43.6848   22.1595   33.4977 H   0  0  0  0  0  0  0  0  0  0  0  0
   45.2276   19.4709   35.7345 H   0  0  0  0  0  0  0  0  0  0  0  0
   47.7026   19.4151   36.1268 H   0  0  0  0  0  0  0  0  0  0  0  0
   48.9372   21.5044   36.5280 H   0  0  0  0  0  0  0  0  0  0  0  0
   47.7693   23.7158   36.5637 H   0  0  0  0  0  0  0  0  0  0  0  0
   43.7489   25.2949   36.9557 H   0  0  0  0  0  0  0  0  0  0  0  0
   44.2791   24.0595   38.0975 H   0  0  0  0  0  0  0  0  0  0  0  0
   45.0646   26.7289   38.1810 H   0  0  0  0  0  0  0  0  0  0  0  0
   46.0311   25.3569   38.8784 H   0  0  0  0  0  0  0  0  0  0  0  0
   45.3246   27.0143   35.8890 H   0  0  0  0  0  0  0  0  0  0  0  0
   46.9921   26.7626   35.2231 H   0  0  0  0  0  0  0  0  0  0  0  0
   44.8514   25.2286   34.5238 H   0  0  0  0  0  0  0  0  0  0  0  0
   46.5095   24.6291   34.4984 H   0  0  0  0  0  0  0  0  0  0  0  0
   38.1066   23.8259   39.5373 H   0  0  0  0  0  0  0  0  0  0  0  0
   37.2963   25.8353   38.2692 H   0  0  0  0  0  0  0  0  0  0  0  0
   36.5952   26.4400   35.8558 H   0  0  0  0  0  0  0  0  0  0  0  0
   37.2130   24.8271   33.9967 H   0  0  0  0  0  0  0  0  0  0  0  0
   36.7781   26.5304   33.6278 H   0  0  0  0  0  0  0  0  0  0  0  0
   38.5013   26.0233   33.6278 H   0  0  0  0  0  0  0  0  0  0  0  0
   38.6545   27.6427   36.8172 H   0  0  0  0  0  0  0  0  0  0  0  0
   39.5059   27.2877   35.2759 H   0  0  0  0  0  0  0  0  0  0  0  0
   38.0496   28.3392   35.2759 H   0  0  0  0  0  0  0  0  0  0  0  0
  1 18  1  0
  1  5  1  0
  2  1  2  0
  3  2  1  0
  3  4  2  0
  4  6  1  0
  4  5  1  0
  6 11  1  0
  7  6  2  0
  7  8  1  0
  8  9  2  0
  9 10  1  0
 11 12  1  0
 11 10  2  0
 12 13  1  0
 13 14  1  0
 15 14  1  0
 16 15  1  0
 17 16  1  0
 17 12  1  0
 18 23  1  0
 20 19  2  0
 21 20  1  0
 22 21  2  0
 22 23  1  0
 23 24  2  0
 24 19  1  0
 25 27  1  0
 25 21  1  0
 26 25  1  0
  2 28  1  0
  3 29  1  0
  7 30  1  0
  8 31  1  0
  9 32  1  0
 10 33  1  0
 13 34  1  0
 13 35  1  0
 14 36  1  0
 14 37  1  0
 16 38  1  0
 16 39  1  0
 17 40  1  0
 17 41  1  0
 19 42  1  0
 20 43  1  0
 25 44  1  0
 26 45  1  0
 26 46  1  0
 26 47  1  0
 27 48  1  0
 27 49  1  0
 27 50  1  0
M  ISO  8  28  14  29  14  30  14  31  14  32  14  33  14  34  13  35  13
M  ISO  8  36  13  37  13  38  13  39  13  40  13  41  13  42  14  43  14
M  ISO  7  44   8  45   8  46   8  47   8  48   8  49   8  50   8
M  END
>  <minimizedAffinity>  (1) 
-5.11620092

>  <minimizedRMSD>  (1) 
2.09486699

$$$$
