
     RDKit          3D

 40 42  0  0  0  0  0  0  0  0999 V2000
   41.1050   23.3770   34.8980 O   0  0  0  0  0  0  0  0  0  0  0  0
   38.3550   23.2890   37.1390 C   0  0  0  0  0  0  0  0  0  0  0  0
   37.5890   24.4120   36.7730 C   0  0  0  0  0  0  0  0  0  0  0  0
   38.0580   25.1960   35.7290 C   0  0  0  0  0  0  0  0  0  0  0  0
   39.2470   24.8620   35.0840 N   0  0  0  0  0  0  0  0  0  0  0  0
   39.9180   23.7600   35.5060 C   0  0  0  0  0  0  0  0  0  0  0  0
   39.4890   22.9900   36.5050 N   0  0  0  0  0  0  0  0  0  0  0  0
   37.3290   26.3970   35.2300 C   0  0  0  0  0  0  0  0  0  0  0  0
   37.1080   26.4050   33.7830 C   0  0  0  0  0  0  0  0  0  0  0  0
   38.0440   27.7040   35.6920 C   0  0  0  0  0  0  0  0  0  0  0  0
   42.2900   23.8160   35.2190 C   0  0  0  0  0  0  0  0  0  0  0  0
   43.0570   24.8590   34.7890 C   0  0  0  0  0  0  0  0  0  0  0  0
   44.2810   25.0910   35.3030 C   0  0  0  0  0  0  0  0  0  0  0  0
   44.7250   24.1960   36.3190 C   0  0  0  0  0  0  0  0  0  0  0  0
   43.3060   23.0010   36.4960 S   0  0  0  0  0  0  0  0  0  0  0  0
   45.9580   24.1970   37.0710 C   0  0  0  0  0  0  0  0  0  0  0  0
   47.0210   23.4330   36.6870 C   0  0  0  0  0  0  0  0  0  0  0  0
   48.1650   23.4920   37.4380 C   0  0  0  0  0  0  0  0  0  0  0  0
   48.2240   24.3010   38.5420 C   0  0  0  0  0  0  0  0  0  0  0  0
   47.1280   25.0740   38.9200 C   0  0  0  0  0  0  0  0  0  0  0  0
   45.9730   25.0090   38.1570 C   0  0  0  0  0  0  0  0  0  0  0  0
   44.9210   25.8640   38.7660 C   0  0  0  0  0  0  0  0  0  0  0  0
   38.0116   22.6465   37.9632 H   0  0  0  0  0  0  0  0  0  0  0  0
   36.6530   24.6588   37.2956 H   0  0  0  0  0  0  0  0  0  0  0  0
   36.3265   26.3493   35.6802 H   0  0  0  0  0  0  0  0  0  0  0  0
   36.0281   26.4441   33.5772 H   0  0  0  0  0  0  0  0  0  0  0  0
   37.5974   27.2860   33.3422 H   0  0  0  0  0  0  0  0  0  0  0  0
   37.5324   25.4909   33.3422 H   0  0  0  0  0  0  0  0  0  0  0  0
   38.0647   27.7417   36.7912 H   0  0  0  0  0  0  0  0  0  0  0  0
   39.0737   27.7149   35.3053 H   0  0  0  0  0  0  0  0  0  0  0  0
   37.4978   28.5770   35.3053 H   0  0  0  0  0  0  0  0  0  0  0  0
   42.6677   25.5255   34.0053 H   0  0  0  0  0  0  0  0  0  0  0  0
   44.9050   25.9279   34.9562 H   0  0  0  0  0  0  0  0  0  0  0  0
   46.9610   22.7872   35.7985 H   0  0  0  0  0  0  0  0  0  0  0  0
   49.0392   22.8878   37.1537 H   0  0  0  0  0  0  0  0  0  0  0  0
   49.1480   24.3409   39.1374 H   0  0  0  0  0  0  0  0  0  0  0  0
   47.1786   25.7231   39.8066 H   0  0  0  0  0  0  0  0  0  0  0  0
   44.9912   25.8069   39.8623 H   0  0  0  0  0  0  0  0  0  0  0  0
   45.0630   26.9060   38.4432 H   0  0  0  0  0  0  0  0  0  0  0  0
   43.9301   25.5120   38.4432 H   0  0  0  0  0  0  0  0  0  0  0  0
  1 11  1  0
  1  6  1  0
  3  2  2  0
  4  3  1  0
  5  6  1  0
  5  4  2  0
  6  7  2  0
  7  2  1  0
  8 10  1  0
  8  4  1  0
  9  8  1  0
 11 15  1  0
 12 11  2  0
 12 13  1  0
 13 14  2  0
 14 15  1  0
 14 16  1  0
 16 21  1  0
 17 16  2  0
 17 18  1  0
 18 19  2  0
 19 20  1  0
 21 22  1  0
 21 20  2  0
  2 23  1  0
  3 24  1  0
  8 25  1  0
  9 26  1  0
  9 27  1  0
  9 28  1  0
 10 29  1  0
 10 30  1  0
 10 31  1  0
 12 32  1  0
 13 33  1  0
 17 34  1  0
 18 35  1  0
 19 36  1  0
 20 37  1  0
 22 38  1  0
 22 39  1  0
 22 40  1  0
M  ISO  8  23  14  24  14  25   8  26   8  27   8  28   8  29   8  30   8
M  ISO  8  31   8  32  14  33  14  34  14  35  14  36  14  37  14  38   8
M  ISO  2  39   8  40   8
M  END
>  <minimizedAffinity>  (1) 
-5.54225254

>  <minimizedRMSD>  (1) 
1.76688087

$$$$
