
     RDKit          3D

 41 45  0  0  1  0  0  0  0  0999 V2000
   44.0980   25.9380   34.6830 C   0  0  0  0  0  0  0  0  0  0  0  0
   42.8230   25.8000   35.2360 C   0  0  0  0  0  0  0  0  0  0  0  0
   41.7640   26.4040   34.5430 C   0  0  0  0  0  0  0  0  0  0  0  0
   42.0300   27.0830   33.3890 N   0  0  0  0  0  0  0  0  0  0  0  0
   43.2670   27.2020   32.8790 C   0  0  0  0  0  0  0  0  0  0  0  0
   44.2480   26.6130   33.5670 N   0  0  0  0  0  0  0  0  0  0  0  0
   40.4050   26.5780   34.9830 C   0  0  0  0  0  0  0  0  0  0  0  0
   39.2480   26.7260   35.3580 N   0  0  0  0  0  0  0  0  0  0  0  0
   38.1160   26.9740   35.7340 C   0  0  0  0  0  0  0  0  0  0  0  0
   37.7500   25.6880   35.7320 N   0  0  0  0  0  0  0  0  0  0  0  0
   38.6710   24.7520   35.3510 C   0  0  0  0  0  0  0  0  0  0  0  0
   38.1210   23.4440   35.3290 C   0  0  0  0  0  0  0  0  0  0  0  0
   38.9660   22.4680   34.8780 C   0  0  0  0  0  0  0  0  0  0  0  0
   40.2600   22.6480   34.4590 C   0  0  0  0  0  0  0  0  0  0  0  0
   40.6190   23.9820   34.5540 C   0  0  0  0  0  0  0  0  0  0  0  0
   39.9630   25.1890   34.9840 C   0  0  0  0  0  0  0  0  0  0  0  0
   45.2460   25.3460   35.2950 N   0  0  0  0  0  0  0  0  0  0  0  0
   46.2260   24.6570   34.6460 C   0  0  0  0  0  0  0  0  0  0  0  0
   47.1100   24.2560   35.5970 N   0  0  0  0  0  0  0  0  0  0  0  0
   46.6820   24.6860   36.7680 C   0  0  0  0  0  0  0  0  0  0  0  0
   47.1190   24.6090   38.0880 C   0  0  0  0  0  0  0  0  0  0  0  0
   46.4470   25.1710   39.1270 N   0  0  0  0  0  0  0  0  0  0  0  0
   45.2880   25.8440   38.8880 C   0  0  0  0  0  0  0  0  0  0  0  0
   44.8060   25.9570   37.6350 N   0  0  0  0  0  0  0  0  0  0  0  0
   45.4980   25.3880   36.6310 C   0  0  0  0  0  0  0  0  0  0  0  0
   48.3060   23.8940   38.3660 N   0  0  0  0  0  0  0  0  0  0  0  0
   42.6574   25.2440   36.1706 H   0  0  0  0  0  0  0  0  0  0  0  0
   43.4608   27.7535   31.9472 H   0  0  0  0  0  0  0  0  0  0  0  0
   40.0796   26.6808   33.9373 H   0  0  0  0  0  0  0  0  0  0  0  0
   38.8907   26.2119   34.5401 H   0  0  0  0  0  0  0  0  0  0  0  0
   38.0795   27.4360   36.7316 H   0  0  0  0  0  0  0  0  0  0  0  0
   37.5154   27.6934   35.1580 H   0  0  0  0  0  0  0  0  0  0  0  0
   36.7983   25.4095   36.0104 H   0  0  0  0  0  0  0  0  0  0  0  0
   37.0910   23.2309   35.6510 H   0  0  0  0  0  0  0  0  0  0  0  0
   38.5710   21.4418   34.8484 H   0  0  0  0  0  0  0  0  0  0  0  0
   40.9198   21.8452   34.0982 H   0  0  0  0  0  0  0  0  0  0  0  0
   41.6519   24.1624   34.2216 H   0  0  0  0  0  0  0  0  0  0  0  0
   46.2892   24.4634   33.5650 H   0  0  0  0  0  0  0  0  0  0  0  0
   44.7399   26.2998   39.7258 H   0  0  0  0  0  0  0  0  0  0  0  0
   48.6495   23.8229   39.3344 H   0  0  0  0  0  0  0  0  0  0  0  0
   48.8275   23.4441   37.6002 H   0  0  0  0  0  0  0  0  0  0  0  0
  1  2  2  0
  1 17  1  0
  3  2  1  0
  4  3  2  0
  5  4  1  0
  5  6  2  0
  6  1  1  0
  7  3  1  0
  7 16  1  0
  7  8  1  0
  8  9  1  0
 10  9  1  0
 11 10  1  0
 12 11  2  0
 13 12  1  0
 14 15  1  0
 14 13  2  0
 15 16  2  0
 16 11  1  0
 17 25  1  0
 18 17  1  0
 18 19  2  0
 19 20  1  0
 20 21  2  0
 21 26  1  0
 21 22  1  0
 23 22  2  0
 24 23  1  0
 25 20  1  0
 25 24  2  0
  2 27  1  0
  5 28  1  0
  7 29  1  0
  8 30  1  0
  9 31  1  0
  9 32  1  0
 10 33  1  0
 12 34  1  0
 13 35  1  0
 14 36  1  0
 15 37  1  0
 18 38  1  0
 23 39  1  0
 26 40  1  0
 26 41  1  0
M  ISO  8  27  14  28  14  29  13  30   5  31  13  32  13  34  14  35  14
M  ISO  4  36  14  37  14  38  14  39  14
M  END
>  <minimizedAffinity>  (1) 
-5.42871857

>  <minimizedRMSD>  (1) 
5.67859316

$$$$
