
     RDKit          3D

 30 33  0  0  0  0  0  0  0  0999 V2000
   38.4290   23.6750   34.9950 C   0  0  0  0  0  0  0  0  0  0  0  0
   39.8140   23.3280   34.9950 C   0  0  0  0  0  0  0  0  0  0  0  0
   40.3810   22.9820   36.2290 C   0  0  0  0  0  0  0  0  0  0  0  0
   39.5940   22.9970   37.3440 N   0  0  0  0  0  0  0  0  0  0  0  0
   38.2890   23.3320   37.2950 C   0  0  0  0  0  0  0  0  0  0  0  0
   37.7180   23.6690   36.1150 N   0  0  0  0  0  0  0  0  0  0  0  0
   41.7620   22.6320   36.2590 N   0  0  0  0  0  0  0  0  0  0  0  0
   42.3020   21.4100   36.3490 N   0  0  0  0  0  0  0  0  0  0  0  0
   43.6510   21.4860   36.3470 C   0  0  0  0  0  0  0  0  0  0  0  0
   43.9450   22.8430   36.2480 C   0  0  0  0  0  0  0  0  0  0  0  0
   42.7480   23.5670   36.1930 C   0  0  0  0  0  0  0  0  0  0  0  0
   37.7700   24.0400   33.7860 N   0  0  0  0  0  0  0  0  0  0  0  0
   37.4310   23.1880   32.7840 C   0  0  0  0  0  0  0  0  0  0  0  0
   36.8240   23.9520   31.8260 N   0  0  0  0  0  0  0  0  0  0  0  0
   36.8000   25.2120   32.2350 C   0  0  0  0  0  0  0  0  0  0  0  0
   36.3380   26.4080   31.7290 C   0  0  0  0  0  0  0  0  0  0  0  0
   36.4600   27.5950   32.4090 N   0  0  0  0  0  0  0  0  0  0  0  0
   37.0580   27.6010   33.6310 C   0  0  0  0  0  0  0  0  0  0  0  0
   37.5250   26.4570   34.1670 N   0  0  0  0  0  0  0  0  0  0  0  0
   37.3920   25.3020   33.4750 C   0  0  0  0  0  0  0  0  0  0  0  0
   35.7110   26.4320   30.4550 N   0  0  0  0  0  0  0  0  0  0  0  0
   40.4084   23.3321   34.0694 H   0  0  0  0  0  0  0  0  0  0  0  0
   37.6872   23.3314   38.2158 H   0  0  0  0  0  0  0  0  0  0  0  0
   44.3656   20.6521   36.4102 H   0  0  0  0  0  0  0  0  0  0  0  0
   44.9554   23.2768   36.2178 H   0  0  0  0  0  0  0  0  0  0  0  0
   42.6301   24.6578   36.1135 H   0  0  0  0  0  0  0  0  0  0  0  0
   37.6088   22.1030   32.7500 H   0  0  0  0  0  0  0  0  0  0  0  0
   37.1607   28.5459   34.1847 H   0  0  0  0  0  0  0  0  0  0  0  0
   35.3628   27.3212   30.0691 H   0  0  0  0  0  0  0  0  0  0  0  0
   35.6045   25.5602   29.9169 H   0  0  0  0  0  0  0  0  0  0  0  0
  1  6  1  0
  2  1  2  0
  2  3  1  0
  3  7  1  0
  3  4  2  0
  5  4  1  0
  6  5  2  0
  7  8  1  0
  9  8  2  0
 10  9  1  0
 11 10  2  0
 11  7  1  0
 12  1  1  0
 13 12  1  0
 14 15  1  0
 14 13  2  0
 15 20  2  0
 16 15  1  0
 16 17  2  0
 17 18  1  0
 18 19  2  0
 20 12  1  0
 20 19  1  0
 21 16  1  0
  2 22  1  0
  5 23  1  0
  9 24  1  0
 10 25  1  0
 11 26  1  0
 13 27  1  0
 18 28  1  0
 21 29  1  0
 21 30  1  0
M  ISO  7  22  14  23  14  24  14  25  14  26  14  27  14  28  14
M  END
>  <minimizedAffinity>  (1) 
-5.18791151

>  <minimizedRMSD>  (1) 
6.04998684

$$$$
