
     RDKit          3D

 36 39  0  0  0  0  0  0  0  0999 V2000
   39.4530   23.7600   35.5330 C   0  0  0  0  0  0  0  0  0  0  0  0
   40.8220   23.5620   35.2720 C   0  0  0  0  0  0  0  0  0  0  0  0
   41.5990   22.9160   36.2380 C   0  0  0  0  0  0  0  0  0  0  0  0
   40.9880   22.5130   37.3820 N   0  0  0  0  0  0  0  0  0  0  0  0
   39.6750   22.7130   37.6100 C   0  0  0  0  0  0  0  0  0  0  0  0
   38.9220   23.3350   36.6810 N   0  0  0  0  0  0  0  0  0  0  0  0
   42.9850   22.7150   35.9770 N   0  0  0  0  0  0  0  0  0  0  0  0
   43.4520   21.4680   36.2780 C   0  0  0  0  0  0  0  0  0  0  0  0
   44.8050   21.1900   36.0500 C   0  0  0  0  0  0  0  0  0  0  0  0
   45.4110   19.8790   36.3380 C   0  0  0  0  0  0  0  0  0  0  0  0
   45.5110   22.2330   35.5380 C   0  0  0  0  0  0  0  0  0  0  0  0
   46.7490   22.0070   35.3190 O   0  0  0  0  0  0  0  0  0  0  0  0
   45.0910   23.4740   35.2280 N   0  0  0  0  0  0  0  0  0  0  0  0
   43.7720   23.6830   35.4710 C   0  0  0  0  0  0  0  0  0  0  0  0
   43.2880   24.8240   35.2090 O   0  0  0  0  0  0  0  0  0  0  0  0
   38.6010   24.4080   34.5990 N   0  0  0  0  0  0  0  0  0  0  0  0
   38.1080   23.8620   33.4640 C   0  0  0  0  0  0  0  0  0  0  0  0
   37.3400   24.8210   32.8660 N   0  0  0  0  0  0  0  0  0  0  0  0
   37.3690   25.9140   33.6210 C   0  0  0  0  0  0  0  0  0  0  0  0
   36.8180   27.1720   33.5620 C   0  0  0  0  0  0  0  0  0  0  0  0
   37.0330   28.1240   34.5200 N   0  0  0  0  0  0  0  0  0  0  0  0
   37.8340   27.8240   35.5970 C   0  0  0  0  0  0  0  0  0  0  0  0
   38.3990   26.5990   35.7010 N   0  0  0  0  0  0  0  0  0  0  0  0
   38.1630   25.6880   34.7340 C   0  0  0  0  0  0  0  0  0  0  0  0
   35.9840   27.5210   32.4640 N   0  0  0  0  0  0  0  0  0  0  0  0
   41.2704   23.9079   34.3290 H   0  0  0  0  0  0  0  0  0  0  0  0
   39.2195   22.3700   38.5506 H   0  0  0  0  0  0  0  0  0  0  0  0
   42.7810   20.6998   36.6899 H   0  0  0  0  0  0  0  0  0  0  0  0
   45.4768   19.7367   37.4268 H   0  0  0  0  0  0  0  0  0  0  0  0
   44.7892   19.0837   35.9012 H   0  0  0  0  0  0  0  0  0  0  0  0
   46.4197   19.8374   35.9012 H   0  0  0  0  0  0  0  0  0  0  0  0
   45.7133   24.1983   34.8419 H   0  0  0  0  0  0  0  0  0  0  0  0
   38.2902   22.8424   33.0937 H   0  0  0  0  0  0  0  0  0  0  0  0
   38.0155   28.5806   36.3745 H   0  0  0  0  0  0  0  0  0  0  0  0
   35.5673   28.4615   32.4123 H   0  0  0  0  0  0  0  0  0  0  0  0
   35.7967   26.8332   31.7205 H   0  0  0  0  0  0  0  0  0  0  0  0
  1  6  1  0
  2  1  2  0
  2  3  1  0
  3  4  2  0
  4  5  1  0
  6  5  2  0
  7  3  1  0
  7  8  1  0
  9  8  2  0
  9 10  1  0
 11  9  1  0
 12 11  2  0
 13 14  1  0
 13 11  1  0
 14  7  1  0
 15 14  2  0
 16 24  1  0
 16  1  1  0
 17 16  1  0
 18 17  2  0
 18 19  1  0
 19 24  2  0
 20 19  1  0
 20 21  2  0
 21 22  1  0
 22 23  2  0
 24 23  1  0
 25 20  1  0
  2 26  1  0
  5 27  1  0
  8 28  1  0
 10 29  1  0
 10 30  1  0
 10 31  1  0
 13 32  1  0
 17 33  1  0
 22 34  1  0
 25 35  1  0
 25 36  1  0
M  ISO  8  26  14  27  14  28  14  29   8  30   8  31   8  32   9  33  14
M  ISO  1  34  14
M  END
>  <minimizedAffinity>  (1) 
-5.07988262

>  <minimizedRMSD>  (1) 
7.21834517

$$$$
