
     RDKit          3D

 26 28  0  0  0  0  0  0  0  0999 V2000
   42.3910   22.0760   36.1890 N   0  0  0  0  0  0  0  0  0  0  0  0
   42.9540   20.8440   36.1810 C   0  0  0  0  0  0  0  0  0  0  0  0
   44.3020   21.0330   36.1300 N   0  0  0  0  0  0  0  0  0  0  0  0
   44.5400   22.3510   36.1070 C   0  0  0  0  0  0  0  0  0  0  0  0
   45.6670   23.1330   36.0580 C   0  0  0  0  0  0  0  0  0  0  0  0
   45.6040   24.4960   36.0460 N   0  0  0  0  0  0  0  0  0  0  0  0
   44.3860   25.1100   36.0840 C   0  0  0  0  0  0  0  0  0  0  0  0
   43.2530   24.3770   36.1330 N   0  0  0  0  0  0  0  0  0  0  0  0
   43.3480   23.0290   36.1440 C   0  0  0  0  0  0  0  0  0  0  0  0
   40.9830   22.3570   36.2370 C   0  0  0  0  0  0  0  0  0  0  0  0
   40.3750   22.8570   37.4030 C   0  0  0  0  0  0  0  0  0  0  0  0
   38.9910   23.0910   37.3210 C   0  0  0  0  0  0  0  0  0  0  0  0
   38.3300   22.8350   36.1730 N   0  0  0  0  0  0  0  0  0  0  0  0
   38.9500   22.3520   35.0680 C   0  0  0  0  0  0  0  0  0  0  0  0
   40.2830   22.1160   35.1110 N   0  0  0  0  0  0  0  0  0  0  0  0
   38.3090   23.6230   38.5390 C   0  0  0  0  0  0  0  0  0  0  0  0
   37.8440   24.9150   38.2640 F   0  0  0  0  0  0  0  0  0  0  0  0
   39.2410   23.7710   39.5550 F   0  0  0  0  0  0  0  0  0  0  0  0
   37.3060   22.8050   38.9740 F   0  0  0  0  0  0  0  0  0  0  0  0
   46.9500   22.5390   36.0160 N   0  0  0  0  0  0  0  0  0  0  0  0
   42.4259   19.8795   36.2100 H   0  0  0  0  0  0  0  0  0  0  0  0
   44.3268   26.2084   36.0747 H   0  0  0  0  0  0  0  0  0  0  0  0
   40.9470   23.0528   38.3220 H   0  0  0  0  0  0  0  0  0  0  0  0
   38.3782   22.1546   34.1493 H   0  0  0  0  0  0  0  0  0  0  0  0
   47.7912   23.1322   35.9793 H   0  0  0  0  0  0  0  0  0  0  0  0
   47.0431   21.5132   36.0221 H   0  0  0  0  0  0  0  0  0  0  0  0
  1 10  1  0
  2  1  1  0
  3  2  2  0
  4  3  1  0
  4  9  2  0
  5  4  1  0
  6  5  2  0
  6  7  1  0
  7  8  2  0
  8  9  1  0
  9  1  1  0
 10 11  2  0
 12 11  1  0
 12 16  1  0
 13 12  2  0
 14 15  2  0
 14 13  1  0
 15 10  1  0
 16 19  1  0
 16 18  1  0
 17 16  1  0
 20  5  1  0
  2 21  1  0
  7 22  1  0
 11 23  1  0
 14 24  1  0
 20 25  1  0
 20 26  1  0
M  ISO  4  21  14  22  14  23  14  24  14
M  END
>  <minimizedAffinity>  (1) 
-4.93403244

>  <minimizedRMSD>  (1) 
2.32298446

$$$$
