
     RDKit          3D

 29 32  0  0  0  0  0  0  0  0999 V2000
   38.5420   27.0580   34.3460 N   0  0  0  0  0  0  0  0  0  0  0  0
   37.7950   27.6450   35.3100 C   0  0  0  0  0  0  0  0  0  0  0  0
   36.6770   28.1280   34.7070 N   0  0  0  0  0  0  0  0  0  0  0  0
   36.7500   27.8390   33.4050 C   0  0  0  0  0  0  0  0  0  0  0  0
   35.9500   28.0550   32.3030 C   0  0  0  0  0  0  0  0  0  0  0  0
   36.2860   27.6320   31.0430 N   0  0  0  0  0  0  0  0  0  0  0  0
   37.4590   26.9700   30.8680 C   0  0  0  0  0  0  0  0  0  0  0  0
   38.2790   26.7310   31.9120 N   0  0  0  0  0  0  0  0  0  0  0  0
   37.9200   27.1580   33.1290 C   0  0  0  0  0  0  0  0  0  0  0  0
   39.7960   26.4220   34.5310 C   0  0  0  0  0  0  0  0  0  0  0  0
   39.9060   25.1970   35.2190 C   0  0  0  0  0  0  0  0  0  0  0  0
   41.1610   24.6190   35.3720 C   0  0  0  0  0  0  0  0  0  0  0  0
   42.2270   25.2690   34.8470 N   0  0  0  0  0  0  0  0  0  0  0  0
   42.1080   26.4410   34.1910 C   0  0  0  0  0  0  0  0  0  0  0  0
   40.8820   27.0130   34.0380 N   0  0  0  0  0  0  0  0  0  0  0  0
   41.2450   23.3820   36.0700 N   0  0  0  0  0  0  0  0  0  0  0  0
   40.3240   22.8760   36.9370 C   0  0  0  0  0  0  0  0  0  0  0  0
   40.8060   21.6790   37.3690 N   0  0  0  0  0  0  0  0  0  0  0  0
   42.0100   21.4520   36.7730 C   0  0  0  0  0  0  0  0  0  0  0  0
   42.2380   22.5360   35.9770 N   0  0  0  0  0  0  0  0  0  0  0  0
   34.7130   28.7520   32.4740 N   0  0  0  0  0  0  0  0  0  0  0  0
   38.0453   27.7174   36.3787 H   0  0  0  0  0  0  0  0  0  0  0  0
   37.7436   26.6247   29.8631 H   0  0  0  0  0  0  0  0  0  0  0  0
   39.0116   24.7052   35.6291 H   0  0  0  0  0  0  0  0  0  0  0  0
   43.0008   26.9346   33.7797 H   0  0  0  0  0  0  0  0  0  0  0  0
   39.3735   23.3449   37.2313 H   0  0  0  0  0  0  0  0  0  0  0  0
   42.6626   20.5765   36.9061 H   0  0  0  0  0  0  0  0  0  0  0  0
   34.1018   28.9230   31.6628 H   0  0  0  0  0  0  0  0  0  0  0  0
   34.4333   29.0830   33.4084 H   0  0  0  0  0  0  0  0  0  0  0  0
  1 10  1  0
  1  2  1  0
  3  2  2  0
  4  3  1  0
  5 21  1  0
  5  4  2  0
  6  5  1  0
  7  6  2  0
  7  8  1  0
  8  9  2  0
  9  4  1  0
  9  1  1  0
 10 11  2  0
 11 12  1  0
 12 16  1  0
 13 12  2  0
 14 13  1  0
 15 14  2  0
 15 10  1  0
 16 17  1  0
 17 18  2  0
 19 18  1  0
 20 16  1  0
 20 19  2  0
  2 22  1  0
  7 23  1  0
 11 24  1  0
 14 25  1  0
 17 26  1  0
 19 27  1  0
 21 28  1  0
 21 29  1  0
M  ISO  6  22  14  23  14  24  14  25  14  26  14  27  14
M  END
>  <minimizedAffinity>  (1) 
-4.91608906

>  <minimizedRMSD>  (1) 
6.42758703

$$$$
