
     RDKit          3D

 35 38  0  0  0  0  0  0  0  0999 V2000
   39.1870   24.1730   34.5200 N   0  0  0  0  0  0  0  0  0  0  0  0
   38.7430   23.6480   33.3490 C   0  0  0  0  0  0  0  0  0  0  0  0
   37.8860   24.5600   32.8170 N   0  0  0  0  0  0  0  0  0  0  0  0
   37.8200   25.6050   33.6510 C   0  0  0  0  0  0  0  0  0  0  0  0
   37.1450   26.8160   33.6750 C   0  0  0  0  0  0  0  0  0  0  0  0
   37.2770   27.7120   34.6850 N   0  0  0  0  0  0  0  0  0  0  0  0
   38.1080   27.4260   35.7360 C   0  0  0  0  0  0  0  0  0  0  0  0
   38.7870   26.2590   35.7600 N   0  0  0  0  0  0  0  0  0  0  0  0
   38.6340   25.3910   34.7400 C   0  0  0  0  0  0  0  0  0  0  0  0
   40.1070   23.5440   35.4040 C   0  0  0  0  0  0  0  0  0  0  0  0
   41.4680   23.9000   35.4290 C   0  0  0  0  0  0  0  0  0  0  0  0
   42.3090   23.2400   36.3230 C   0  0  0  0  0  0  0  0  0  0  0  0
   41.7910   22.2900   37.1270 N   0  0  0  0  0  0  0  0  0  0  0  0
   40.4670   21.9560   37.0910 C   0  0  0  0  0  0  0  0  0  0  0  0
   39.6370   22.5940   36.2230 N   0  0  0  0  0  0  0  0  0  0  0  0
   43.6950   23.5560   36.3930 N   0  0  0  0  0  0  0  0  0  0  0  0
   44.2610   24.7530   37.0130 C   0  0  0  0  0  0  0  0  0  0  0  0
   45.6880   24.8290   36.4540 C   0  0  0  0  0  0  0  0  0  0  0  0
   46.0330   23.3350   36.4920 C   0  0  0  0  0  0  0  0  0  0  0  0
   44.7790   22.7500   35.8670 C   0  0  0  0  0  0  0  0  0  0  0  0
   36.2730   27.1500   32.6000 N   0  0  0  0  0  0  0  0  0  0  0  0
   39.0218   22.6760   32.9159 H   0  0  0  0  0  0  0  0  0  0  0  0
   38.2220   28.1463   36.5595 H   0  0  0  0  0  0  0  0  0  0  0  0
   41.8587   24.6802   34.7592 H   0  0  0  0  0  0  0  0  0  0  0  0
   40.0746   21.1759   37.7599 H   0  0  0  0  0  0  0  0  0  0  0  0
   43.6844   25.6469   36.7330 H   0  0  0  0  0  0  0  0  0  0  0  0
   44.2413   24.7072   38.1119 H   0  0  0  0  0  0  0  0  0  0  0  0
   46.3531   25.4235   37.0975 H   0  0  0  0  0  0  0  0  0  0  0  0
   45.7891   25.3157   35.4727 H   0  0  0  0  0  0  0  0  0  0  0  0
   46.9287   23.1090   35.8948 H   0  0  0  0  0  0  0  0  0  0  0  0
   46.2744   22.9439   37.4914 H   0  0  0  0  0  0  0  0  0  0  0  0
   44.6557   21.6965   36.1583 H   0  0  0  0  0  0  0  0  0  0  0  0
   44.8150   22.7674   34.7677 H   0  0  0  0  0  0  0  0  0  0  0  0
   35.7665   28.0468   32.6073 H   0  0  0  0  0  0  0  0  0  0  0  0
   36.1487   26.4948   31.8151 H   0  0  0  0  0  0  0  0  0  0  0  0
  1  9  1  0
  1 10  1  0
  2  1  1  0
  3  2  2  0
  3  4  1  0
  4  5  2  0
  4  9  1  0
  5  6  1  0
  6  7  2  0
  7  8  1  0
  9  8  2  0
 10 11  2  0
 10 15  1  0
 11 12  1  0
 12 16  1  0
 12 13  2  0
 14 13  1  0
 15 14  2  0
 16 17  1  0
 18 19  1  0
 18 17  1  0
 20 16  1  0
 20 19  1  0
 21  5  1  0
  2 22  1  0
  7 23  1  0
 11 24  1  0
 14 25  1  0
 17 26  1  0
 17 27  1  0
 18 28  1  0
 18 29  1  0
 19 30  1  0
 19 31  1  0
 20 32  1  0
 20 33  1  0
 21 34  1  0
 21 35  1  0
M  ISO  8  22  14  23  14  24  14  25  14  26  13  27  13  28  13  29  13
M  ISO  4  30  13  31  13  32  13  33  13
M  END
>  <minimizedAffinity>  (1) 
-4.86857796

>  <minimizedRMSD>  (1) 
6.19061852

$$$$
