
     RDKit          3D

 29 32  0  0  0  0  0  0  0  0999 V2000
   39.6800   24.2680   34.0780 N   0  0  0  0  0  0  0  0  0  0  0  0
   39.4720   23.7630   32.8500 C   0  0  0  0  0  0  0  0  0  0  0  0
   38.4570   24.4800   32.2940 N   0  0  0  0  0  0  0  0  0  0  0  0
   38.0650   25.4020   33.1760 C   0  0  0  0  0  0  0  0  0  0  0  0
   37.1070   26.4030   33.2120 C   0  0  0  0  0  0  0  0  0  0  0  0
   36.9270   27.2150   34.2940 N   0  0  0  0  0  0  0  0  0  0  0  0
   37.7130   27.0480   35.3880 C   0  0  0  0  0  0  0  0  0  0  0  0
   38.6640   26.0840   35.4030 N   0  0  0  0  0  0  0  0  0  0  0  0
   38.8170   25.3040   34.3300 C   0  0  0  0  0  0  0  0  0  0  0  0
   40.6560   23.8210   35.0280 C   0  0  0  0  0  0  0  0  0  0  0  0
   41.8900   24.4860   35.1800 C   0  0  0  0  0  0  0  0  0  0  0  0
   42.7620   23.9820   36.1260 C   0  0  0  0  0  0  0  0  0  0  0  0
   42.4070   22.8820   36.8590 N   0  0  0  0  0  0  0  0  0  0  0  0
   41.2140   22.2690   36.6850 C   0  0  0  0  0  0  0  0  0  0  0  0
   40.3450   22.7530   35.7620 N   0  0  0  0  0  0  0  0  0  0  0  0
   44.0790   24.6340   36.3450 C   0  0  0  0  0  0  0  0  0  0  0  0
   44.8900   24.9900   35.2250 C   0  0  0  0  0  0  0  0  0  0  0  0
   46.3560   25.7360   36.0400 S   0  0  0  0  0  0  0  0  0  0  0  0
   45.6300   25.4420   37.7470 C   0  0  0  0  0  0  0  0  0  0  0  0
   44.5580   24.9110   37.5410 N   0  0  0  0  0  0  0  0  0  0  0  0
   36.2660   26.6060   32.0910 N   0  0  0  0  0  0  0  0  0  0  0  0
   40.0176   22.9296   32.3833 H   0  0  0  0  0  0  0  0  0  0  0  0
   37.5771   27.6977   36.2651 H   0  0  0  0  0  0  0  0  0  0  0  0
   42.1470   25.3665   34.5728 H   0  0  0  0  0  0  0  0  0  0  0  0
   40.9506   21.3863   37.2861 H   0  0  0  0  0  0  0  0  0  0  0  0
   44.6886   24.8528   34.1523 H   0  0  0  0  0  0  0  0  0  0  0  0
   46.0776   25.6952   38.7194 H   0  0  0  0  0  0  0  0  0  0  0  0
   35.5518   27.3480   32.1106 H   0  0  0  0  0  0  0  0  0  0  0  0
   36.3684   26.0117   31.2560 H   0  0  0  0  0  0  0  0  0  0  0  0
  1  9  1  0
  1 10  1  0
  2  1  1  0
  3  2  2  0
  3  4  1  0
  4  5  2  0
  4  9  1  0
  5  6  1  0
  6  7  2  0
  7  8  1  0
  9  8  2  0
 10 11  2  0
 10 15  1  0
 11 12  1  0
 12 16  1  0
 12 13  2  0
 14 13  1  0
 15 14  2  0
 16 20  1  0
 17 18  1  0
 17 16  2  0
 18 19  1  0
 20 19  2  0
 21  5  1  0
  2 22  1  0
  7 23  1  0
 11 24  1  0
 14 25  1  0
 17 26  1  0
 19 27  1  0
 21 28  1  0
 21 29  1  0
M  ISO  6  22  14  23  14  24  14  25  14  26  14  27  14
M  END
>  <minimizedAffinity>  (1) 
-4.2437458

>  <minimizedRMSD>  (1) 
6.35974121

$$$$
