
     RDKit          3D

 36 39  0  0  0  0  0  0  0  0999 V2000
   41.4560   23.9150   35.3870 N   0  0  0  0  0  0  0  0  0  0  0  0
   41.9200   23.1580   36.4170 C   0  0  0  0  0  0  0  0  0  0  0  0
   43.1560   23.6280   36.7150 N   0  0  0  0  0  0  0  0  0  0  0  0
   43.4390   24.6450   35.8910 C   0  0  0  0  0  0  0  0  0  0  0  0
   44.5100   25.5000   35.7080 C   0  0  0  0  0  0  0  0  0  0  0  0
   44.5140   26.4690   34.7580 N   0  0  0  0  0  0  0  0  0  0  0  0
   43.4290   26.6200   33.9430 C   0  0  0  0  0  0  0  0  0  0  0  0
   42.3630   25.8060   34.0860 N   0  0  0  0  0  0  0  0  0  0  0  0
   42.3870   24.8520   35.0400 C   0  0  0  0  0  0  0  0  0  0  0  0
   40.1970   23.7770   34.7490 C   0  0  0  0  0  0  0  0  0  0  0  0
   39.4010   24.8960   34.4500 C   0  0  0  0  0  0  0  0  0  0  0  0
   38.1730   24.7310   33.8250 C   0  0  0  0  0  0  0  0  0  0  0  0
   37.8050   23.4470   33.5310 N   0  0  0  0  0  0  0  0  0  0  0  0
   38.5800   22.3730   33.8220 C   0  0  0  0  0  0  0  0  0  0  0  0
   39.7790   22.5570   34.4340 N   0  0  0  0  0  0  0  0  0  0  0  0
   37.2730   25.8620   33.4770 C   0  0  0  0  0  0  0  0  0  0  0  0
   36.5750   25.7020   32.1740 C   0  0  0  0  0  0  0  0  0  0  0  0
   37.0490   26.8340   31.3230 C   0  0  0  0  0  0  0  0  0  0  0  0
   38.1180   27.5580   32.0700 C   0  0  0  0  0  0  0  0  0  0  0  0
   37.9550   27.2040   33.5090 C   0  0  0  0  0  0  0  0  0  0  0  0
   45.6570   25.3720   36.5400 N   0  0  0  0  0  0  0  0  0  0  0  0
   41.3952   22.3272   36.9114 H   0  0  0  0  0  0  0  0  0  0  0  0
   43.4242   27.4039   33.1713 H   0  0  0  0  0  0  0  0  0  0  0  0
   39.7522   25.9050   34.7120 H   0  0  0  0  0  0  0  0  0  0  0  0
   38.2401   21.3591   33.5642 H   0  0  0  0  0  0  0  0  0  0  0  0
   36.5164   25.8325   34.2749 H   0  0  0  0  0  0  0  0  0  0  0  0
   36.8384   24.7386   31.7130 H   0  0  0  0  0  0  0  0  0  0  0  0
   35.4816   25.7129   32.2939 H   0  0  0  0  0  0  0  0  0  0  0  0
   36.2133   27.5173   31.1118 H   0  0  0  0  0  0  0  0  0  0  0  0
   37.4410   26.4550   30.3676 H   0  0  0  0  0  0  0  0  0  0  0  0
   39.1094   27.2426   31.7126 H   0  0  0  0  0  0  0  0  0  0  0  0
   38.0370   28.6447   31.9198 H   0  0  0  0  0  0  0  0  0  0  0  0
   37.3313   27.9477   34.0267 H   0  0  0  0  0  0  0  0  0  0  0  0
   38.9119   27.1807   34.0511 H   0  0  0  0  0  0  0  0  0  0  0  0
   46.4598   26.0043   36.4112 H   0  0  0  0  0  0  0  0  0  0  0  0
   45.6846   24.6470   37.2711 H   0  0  0  0  0  0  0  0  0  0  0  0
  1  2  1  0
  2  3  2  0
  4  3  1  0
  5  4  2  0
  5 21  1  0
  6  5  1  0
  7  8  1  0
  7  6  2  0
  8  9  2  0
  9  1  1  0
  9  4  1  0
 10  1  1  0
 11 10  2  0
 12 11  1  0
 13 14  1  0
 13 12  2  0
 14 15  2  0
 15 10  1  0
 16 20  1  0
 16 12  1  0
 17 16  1  0
 18 19  1  0
 18 17  1  0
 19 20  1  0
  2 22  1  0
  7 23  1  0
 11 24  1  0
 14 25  1  0
 16 26  1  0
 17 27  1  0
 17 28  1  0
 18 29  1  0
 18 30  1  0
 19 31  1  0
 19 32  1  0
 20 33  1  0
 20 34  1  0
 21 35  1  0
 21 36  1  0
M  ISO  8  22  14  23  14  24  14  25  14  26  13  27  13  28  13  29  13
M  ISO  5  30  13  31  13  32  13  33  13  34  13
M  END
>  <minimizedAffinity>  (1) 
-4.21999693

>  <minimizedRMSD>  (1) 
4.21186543

$$$$
