
     RDKit          3D

 30 33  0  0  0  0  0  0  0  0999 V2000
   42.2250   22.9570   36.2830 N   0  0  0  0  0  0  0  0  0  0  0  0
   41.1930   22.6810   37.1240 C   0  0  0  0  0  0  0  0  0  0  0  0
   41.3650   21.4120   37.5550 N   0  0  0  0  0  0  0  0  0  0  0  0
   42.4720   20.9280   36.9920 C   0  0  0  0  0  0  0  0  0  0  0  0
   43.1690   19.7300   37.0250 C   0  0  0  0  0  0  0  0  0  0  0  0
   44.3170   19.5180   36.3150 N   0  0  0  0  0  0  0  0  0  0  0  0
   44.8130   20.5230   35.5320 C   0  0  0  0  0  0  0  0  0  0  0  0
   44.1670   21.7030   35.4710 N   0  0  0  0  0  0  0  0  0  0  0  0
   43.0450   21.8860   36.1750 C   0  0  0  0  0  0  0  0  0  0  0  0
   42.4350   24.2020   35.5960 C   0  0  0  0  0  0  0  0  0  0  0  0
   43.7220   24.8030   35.5870 C   0  0  0  0  0  0  0  0  0  0  0  0
   43.8220   26.0150   34.8920 C   0  0  0  0  0  0  0  0  0  0  0  0
   42.7430   26.5430   34.2860 N   0  0  0  0  0  0  0  0  0  0  0  0
   41.5230   25.9240   34.3240 C   0  0  0  0  0  0  0  0  0  0  0  0
   41.3980   24.7600   34.9830 N   0  0  0  0  0  0  0  0  0  0  0  0
   45.1500   26.6610   34.8680 C   0  0  0  0  0  0  0  0  0  0  0  0
   45.5370   27.8040   34.3260 C   0  0  0  0  0  0  0  0  0  0  0  0
   46.8400   28.2100   34.4290 C   0  0  0  0  0  0  0  0  0  0  0  0
   47.7060   27.3480   35.1320 C   0  0  0  0  0  0  0  0  0  0  0  0
   46.5150   25.9490   35.6130 S   0  0  0  0  0  0  0  0  0  0  0  0
   42.6720   18.6650   37.8350 N   0  0  0  0  0  0  0  0  0  0  0  0
   40.3740   23.3612   37.4008 H   0  0  0  0  0  0  0  0  0  0  0  0
   45.7361   20.3683   34.9541 H   0  0  0  0  0  0  0  0  0  0  0  0
   44.5849   24.3459   36.0934 H   0  0  0  0  0  0  0  0  0  0  0  0
   40.6547   26.3744   33.8207 H   0  0  0  0  0  0  0  0  0  0  0  0
   44.8087   28.4306   33.7904 H   0  0  0  0  0  0  0  0  0  0  0  0
   47.1913   29.1547   33.9885 H   0  0  0  0  0  0  0  0  0  0  0  0
   48.7799   27.4562   35.3443 H   0  0  0  0  0  0  0  0  0  0  0  0
   43.1763   17.7677   37.8721 H   0  0  0  0  0  0  0  0  0  0  0  0
   41.8090   18.7938   38.3824 H   0  0  0  0  0  0  0  0  0  0  0  0
  1  2  1  0
  2  3  2  0
  4  5  2  0
  4  3  1  0
  5 21  1  0
  6  5  1  0
  7  6  2  0
  8  7  1  0
  8  9  2  0
  9  1  1  0
  9  4  1  0
 10  1  1  0
 11 10  2  0
 12 11  1  0
 13 14  1  0
 13 12  2  0
 14 15  2  0
 15 10  1  0
 16 12  1  0
 16 20  1  0
 17 18  1  0
 17 16  2  0
 18 19  2  0
 19 20  1  0
  2 22  1  0
  7 23  1  0
 11 24  1  0
 14 25  1  0
 17 26  1  0
 18 27  1  0
 19 28  1  0
 21 29  1  0
 21 30  1  0
M  ISO  7  22  14  23  14  24  14  25  14  26  14  27  14  28  14
M  END
>  <minimizedAffinity>  (1) 
-4.21488237

>  <minimizedRMSD>  (1) 
7.35854578

$$$$
