
     RDKit          3D

 29 31  0  0  0  0  0  0  0  0999 V2000
   42.0340   23.6840   35.9030 N   0  0  0  0  0  0  0  0  0  0  0  0
   43.0020   23.1060   36.6460 C   0  0  0  0  0  0  0  0  0  0  0  0
   44.1180   23.8570   36.4940 N   0  0  0  0  0  0  0  0  0  0  0  0
   43.8230   24.8680   35.6730 C   0  0  0  0  0  0  0  0  0  0  0  0
   44.5160   25.9450   35.1430 C   0  0  0  0  0  0  0  0  0  0  0  0
   43.9330   26.8450   34.3010 N   0  0  0  0  0  0  0  0  0  0  0  0
   42.6160   26.6980   33.9540 C   0  0  0  0  0  0  0  0  0  0  0  0
   41.9020   25.6640   34.4470 N   0  0  0  0  0  0  0  0  0  0  0  0
   42.5040   24.7880   35.2780 C   0  0  0  0  0  0  0  0  0  0  0  0
   40.6850   23.2110   35.7760 C   0  0  0  0  0  0  0  0  0  0  0  0
   39.7180   23.4460   36.7740 C   0  0  0  0  0  0  0  0  0  0  0  0
   38.4310   22.9470   36.5620 C   0  0  0  0  0  0  0  0  0  0  0  0
   38.1790   22.2710   35.4220 N   0  0  0  0  0  0  0  0  0  0  0  0
   39.1240   22.0570   34.4760 C   0  0  0  0  0  0  0  0  0  0  0  0
   40.3840   22.5290   34.6550 N   0  0  0  0  0  0  0  0  0  0  0  0
   37.4220   23.2010   37.6190 C   0  0  0  0  0  0  0  0  0  0  0  0
   37.9940   24.2730   38.5300 C   0  0  0  0  0  0  0  0  0  0  0  0
   45.8810   26.1230   35.4840 N   0  0  0  0  0  0  0  0  0  0  0  0
   42.9027   22.1976   37.2584 H   0  0  0  0  0  0  0  0  0  0  0  0
   42.1411   27.4213   33.2748 H   0  0  0  0  0  0  0  0  0  0  0  0
   39.9684   24.0034   37.6887 H   0  0  0  0  0  0  0  0  0  0  0  0
   38.8704   21.5003   33.5618 H   0  0  0  0  0  0  0  0  0  0  0  0
   36.4819   23.5510   37.1676 H   0  0  0  0  0  0  0  0  0  0  0  0
   37.2040   22.2819   38.1828 H   0  0  0  0  0  0  0  0  0  0  0  0
   37.8392   23.9829   39.5797 H   0  0  0  0  0  0  0  0  0  0  0  0
   39.0709   24.3835   38.3351 H   0  0  0  0  0  0  0  0  0  0  0  0
   37.4861   25.2291   38.3351 H   0  0  0  0  0  0  0  0  0  0  0  0
   46.4088   26.9187   35.0978 H   0  0  0  0  0  0  0  0  0  0  0  0
   46.3446   25.4565   36.1179 H   0  0  0  0  0  0  0  0  0  0  0  0
  1  2  1  0
  3  2  2  0
  4  3  1  0
  5 18  1  0
  5  4  2  0
  6  5  1  0
  7  6  2  0
  7  8  1  0
  8  9  2  0
  9  4  1  0
  9  1  1  0
 10  1  1  0
 10 11  2  0
 12 11  1  0
 12 16  1  0
 13 12  2  0
 14 15  2  0
 14 13  1  0
 15 10  1  0
 16 17  1  0
  2 19  1  0
  7 20  1  0
 11 21  1  0
 14 22  1  0
 16 23  1  0
 16 24  1  0
 17 25  1  0
 17 26  1  0
 17 27  1  0
 18 28  1  0
 18 29  1  0
M  ISO  8  19  14  20  14  21  14  22  14  23   8  24   8  25   8  26   8
M  ISO  1  27   8
M  END
>  <minimizedAffinity>  (1) 
-4.15331984

>  <minimizedRMSD>  (1) 
1.39964366

$$$$
