
     RDKit          3D

 25 27  0  0  0  0  0  0  0  0999 V2000
   41.7670   22.0760   36.3460 N   0  0  0  0  0  0  0  0  0  0  0  0
   42.3270   20.8710   36.5990 C   0  0  0  0  0  0  0  0  0  0  0  0
   43.6750   21.0330   36.4940 N   0  0  0  0  0  0  0  0  0  0  0  0
   43.9220   22.3100   36.1850 C   0  0  0  0  0  0  0  0  0  0  0  0
   45.0480   23.0670   35.9530 C   0  0  0  0  0  0  0  0  0  0  0  0
   44.9910   24.3910   35.6480 N   0  0  0  0  0  0  0  0  0  0  0  0
   43.7710   25.0120   35.5640 C   0  0  0  0  0  0  0  0  0  0  0  0
   42.6380   24.3120   35.7830 N   0  0  0  0  0  0  0  0  0  0  0  0
   42.7300   22.9980   36.0850 C   0  0  0  0  0  0  0  0  0  0  0  0
   40.3660   22.3700   36.3480 C   0  0  0  0  0  0  0  0  0  0  0  0
   39.7330   22.9430   37.4650 C   0  0  0  0  0  0  0  0  0  0  0  0
   38.3690   23.1970   37.3900 C   0  0  0  0  0  0  0  0  0  0  0  0
   37.7170   22.8830   36.2470 N   0  0  0  0  0  0  0  0  0  0  0  0
   38.3460   22.3290   35.1810 C   0  0  0  0  0  0  0  0  0  0  0  0
   39.6800   22.0690   35.2280 N   0  0  0  0  0  0  0  0  0  0  0  0
   37.7090   23.7930   38.5470 C   0  0  0  0  0  0  0  0  0  0  0  0
   38.0410   24.9260   38.9860 O   0  0  0  0  0  0  0  0  0  0  0  0
   46.3290   22.4480   36.0320 N   0  0  0  0  0  0  0  0  0  0  0  0
   41.7956   19.9392   36.8427 H   0  0  0  0  0  0  0  0  0  0  0  0
   43.7158   26.0826   35.3177 H   0  0  0  0  0  0  0  0  0  0  0  0
   40.3027   23.1839   38.3746 H   0  0  0  0  0  0  0  0  0  0  0  0
   37.7738   22.0885   34.2729 H   0  0  0  0  0  0  0  0  0  0  0  0
   36.9015   23.2391   39.0482 H   0  0  0  0  0  0  0  0  0  0  0  0
   47.1802   23.0021   35.8608 H   0  0  0  0  0  0  0  0  0  0  0  0
   46.4038   21.4464   36.2603 H   0  0  0  0  0  0  0  0  0  0  0  0
  1 10  1  0
  1  2  1  0
  3  2  2  0
  4  3  1  0
  5 18  1  0
  5  4  2  0
  6  5  1  0
  7  6  2  0
  7  8  1  0
  8  9  2  0
  9  4  1  0
  9  1  1  0
 10 11  2  0
 12 11  1  0
 12 16  1  0
 13 12  2  0
 14 15  2  0
 14 13  1  0
 15 10  1  0
 16 17  2  0
  2 19  1  0
  7 20  1  0
 11 21  1  0
 14 22  1  0
 16 23  1  0
 18 24  1  0
 18 25  1  0
M  ISO  5  19  14  20  14  21  14  22  14  23   6
M  END
>  <minimizedAffinity>  (1) 
-4.09102249

>  <minimizedRMSD>  (1) 
2.03982091

$$$$
