
     RDKit          3D

 28 31  0  0  0  0  0  0  0  0999 V2000
   41.7610   23.4350   35.2620 N   0  0  0  0  0  0  0  0  0  0  0  0
   42.1070   22.5940   36.2710 C   0  0  0  0  0  0  0  0  0  0  0  0
   43.2550   23.0850   36.8080 N   0  0  0  0  0  0  0  0  0  0  0  0
   43.5950   24.1940   36.1420 C   0  0  0  0  0  0  0  0  0  0  0  0
   44.6160   25.1090   36.2110 C   0  0  0  0  0  0  0  0  0  0  0  0
   44.7060   26.1730   35.3760 N   0  0  0  0  0  0  0  0  0  0  0  0
   43.7470   26.3610   34.4130 C   0  0  0  0  0  0  0  0  0  0  0  0
   42.7210   25.4890   34.3040 N   0  0  0  0  0  0  0  0  0  0  0  0
   42.6620   24.4370   35.1550 C   0  0  0  0  0  0  0  0  0  0  0  0
   40.6160   23.3020   34.4210 C   0  0  0  0  0  0  0  0  0  0  0  0
   39.4820   22.5780   34.8300 C   0  0  0  0  0  0  0  0  0  0  0  0
   38.3950   22.4840   33.9620 C   0  0  0  0  0  0  0  0  0  0  0  0
   38.4860   23.1030   32.7570 N   0  0  0  0  0  0  0  0  0  0  0  0
   39.5900   23.7960   32.3850 C   0  0  0  0  0  0  0  0  0  0  0  0
   40.6400   23.8840   33.2260 N   0  0  0  0  0  0  0  0  0  0  0  0
   37.2160   21.7330   34.3830 C   0  0  0  0  0  0  0  0  0  0  0  0
   36.2220   21.0260   33.7830 N   0  0  0  0  0  0  0  0  0  0  0  0
   35.4270   20.5700   34.7160 O   0  0  0  0  0  0  0  0  0  0  0  0
   35.8450   20.9410   35.9110 C   0  0  0  0  0  0  0  0  0  0  0  0
   36.9780   21.6790   35.7240 N   0  0  0  0  0  0  0  0  0  0  0  0
   45.6310   24.9450   37.1980 N   0  0  0  0  0  0  0  0  0  0  0  0
   41.5644   21.6922   36.5909 H   0  0  0  0  0  0  0  0  0  0  0  0
   43.8135   27.2210   33.7303 H   0  0  0  0  0  0  0  0  0  0  0  0
   39.4531   22.0943   35.8175 H   0  0  0  0  0  0  0  0  0  0  0  0
   39.6290   24.2849   31.4004 H   0  0  0  0  0  0  0  0  0  0  0  0
   35.3710   20.7014   36.8743 H   0  0  0  0  0  0  0  0  0  0  0  0
   46.4028   25.6242   37.2608 H   0  0  0  0  0  0  0  0  0  0  0  0
   45.5927   24.1473   37.8485 H   0  0  0  0  0  0  0  0  0  0  0  0
  1  2  1  0
  2  3  2  0
  4  5  2  0
  4  3  1  0
  5 21  1  0
  6  5  1  0
  7  6  2  0
  8  7  1  0
  8  9  2  0
  9  1  1  0
  9  4  1  0
 10 11  2  0
 10  1  1  0
 12 16  1  0
 12 11  1  0
 13 12  2  0
 14 13  1  0
 14 15  2  0
 15 10  1  0
 16 20  1  0
 17 16  2  0
 17 18  1  0
 18 19  1  0
 20 19  2  0
  2 22  1  0
  7 23  1  0
 11 24  1  0
 14 25  1  0
 19 26  1  0
 21 27  1  0
 21 28  1  0
M  ISO  5  22  14  23  14  24  14  25  14  26  14
M  END
>  <minimizedAffinity>  (1) 
-4.05080271

>  <minimizedRMSD>  (1) 
3.6920135

$$$$
