
     RDKit          3D

 39 43  0  0  0  0  0  0  0  0999 V2000
   42.7920   23.9180   35.8230 C   0  0  0  0  0  0  0  0  0  0  0  0
   42.4740   22.9450   36.7700 C   0  0  0  0  0  0  0  0  0  0  0  0
   41.1390   22.5200   36.8480 C   0  0  0  0  0  0  0  0  0  0  0  0
   40.2430   23.0720   36.0100 N   0  0  0  0  0  0  0  0  0  0  0  0
   40.5560   24.0200   35.0890 C   0  0  0  0  0  0  0  0  0  0  0  0
   41.8370   24.4080   35.0350 N   0  0  0  0  0  0  0  0  0  0  0  0
   40.7840   21.5180   37.8070 N   0  0  0  0  0  0  0  0  0  0  0  0
   39.4190   24.4450   34.3180 C   0  0  0  0  0  0  0  0  0  0  0  0
   38.9420   23.7500   33.2740 N   0  0  0  0  0  0  0  0  0  0  0  0
   37.8890   24.1070   32.5280 C   0  0  0  0  0  0  0  0  0  0  0  0
   37.1840   25.2270   32.7560 N   0  0  0  0  0  0  0  0  0  0  0  0
   37.5800   25.9870   33.7760 C   0  0  0  0  0  0  0  0  0  0  0  0
   36.8880   27.1440   34.0470 C   0  0  0  0  0  0  0  0  0  0  0  0
   37.2510   27.9710   35.0890 C   0  0  0  0  0  0  0  0  0  0  0  0
   38.3540   27.5860   35.8590 C   0  0  0  0  0  0  0  0  0  0  0  0
   39.0160   26.4210   35.5500 C   0  0  0  0  0  0  0  0  0  0  0  0
   38.6690   25.5830   34.5160 C   0  0  0  0  0  0  0  0  0  0  0  0
   44.1060   24.4230   35.6570 N   0  0  0  0  0  0  0  0  0  0  0  0
   44.8190   24.4350   34.5070 C   0  0  0  0  0  0  0  0  0  0  0  0
   46.0190   24.9940   34.7860 N   0  0  0  0  0  0  0  0  0  0  0  0
   46.0320   25.3150   36.0820 C   0  0  0  0  0  0  0  0  0  0  0  0
   46.9600   25.8940   36.9160 C   0  0  0  0  0  0  0  0  0  0  0  0
   46.7050   26.1070   38.2340 N   0  0  0  0  0  0  0  0  0  0  0  0
   45.4910   25.7380   38.7560 C   0  0  0  0  0  0  0  0  0  0  0  0
   44.5550   25.1680   37.9760 N   0  0  0  0  0  0  0  0  0  0  0  0
   44.8370   24.9660   36.6590 C   0  0  0  0  0  0  0  0  0  0  0  0
   48.2250   26.2940   36.4360 N   0  0  0  0  0  0  0  0  0  0  0  0
   43.2440   22.5247   37.4337 H   0  0  0  0  0  0  0  0  0  0  0  0
   39.8085   21.1949   37.8772 H   0  0  0  0  0  0  0  0  0  0  0  0
   41.5041   21.1202   38.4267 H   0  0  0  0  0  0  0  0  0  0  0  0
   37.5889   23.4559   31.6937 H   0  0  0  0  0  0  0  0  0  0  0  0
   36.0265   27.4156   33.4192 H   0  0  0  0  0  0  0  0  0  0  0  0
   36.6961   28.8956   35.3060 H   0  0  0  0  0  0  0  0  0  0  0  0
   38.6879   28.2084   36.7023 H   0  0  0  0  0  0  0  0  0  0  0  0
   39.8799   26.1408   36.1706 H   0  0  0  0  0  0  0  0  0  0  0  0
   44.4853   24.0602   33.5281 H   0  0  0  0  0  0  0  0  0  0  0  0
   45.2812   25.9098   39.8220 H   0  0  0  0  0  0  0  0  0  0  0  0
   48.9060   26.7258   37.0768 H   0  0  0  0  0  0  0  0  0  0  0  0
   48.4675   26.1542   35.4448 H   0  0  0  0  0  0  0  0  0  0  0  0
  1  2  2  0
  2  3  1  0
  3  7  1  0
  4  3  2  0
  5  4  1  0
  6  5  2  0
  6  1  1  0
  8 17  1  0
  8  5  1  0
  9  8  2  0
 10 11  2  0
 10  9  1  0
 11 12  1  0
 12 13  1  0
 12 17  2  0
 13 14  2  0
 14 15  1  0
 16 15  2  0
 17 16  1  0
 18  1  1  0
 18 26  1  0
 19 20  2  0
 19 18  1  0
 20 21  1  0
 21 26  2  0
 21 22  1  0
 22 23  2  0
 23 24  1  0
 25 24  2  0
 26 25  1  0
 27 22  1  0
  2 28  1  0
  7 29  1  0
  7 30  1  0
 10 31  1  0
 13 32  1  0
 14 33  1  0
 15 34  1  0
 16 35  1  0
 19 36  1  0
 24 37  1  0
 27 38  1  0
 27 39  1  0
M  ISO  8  28  14  31  14  32  14  33  14  34  14  35  14  36  14  37  14
M  END
>  <minimizedAffinity>  (1) 
-6.69097137

>  <minimizedRMSD>  (1) 
4.32514095

$$$$
