
     RDKit          3D

 36 40  0  0  0  0  0  0  0  0999 V2000
   41.2700   22.9880   36.3900 C   0  0  0  0  0  0  0  0  0  0  0  0
   40.6010   22.5490   37.5490 C   0  0  0  0  0  0  0  0  0  0  0  0
   39.3140   23.0370   37.8040 C   0  0  0  0  0  0  0  0  0  0  0  0
   38.7940   23.9000   36.9230 N   0  0  0  0  0  0  0  0  0  0  0  0
   39.4370   24.3240   35.8050 C   0  0  0  0  0  0  0  0  0  0  0  0
   40.6780   23.8530   35.5570 N   0  0  0  0  0  0  0  0  0  0  0  0
   38.6080   22.6200   38.9600 N   0  0  0  0  0  0  0  0  0  0  0  0
   38.7570   25.2360   34.9710 N   0  0  0  0  0  0  0  0  0  0  0  0
   38.7860   26.5770   35.1590 C   0  0  0  0  0  0  0  0  0  0  0  0
   38.0610   27.2170   34.2320 N   0  0  0  0  0  0  0  0  0  0  0  0
   37.5300   26.2860   33.3990 C   0  0  0  0  0  0  0  0  0  0  0  0
   36.7200   26.3860   32.2980 C   0  0  0  0  0  0  0  0  0  0  0  0
   36.3700   25.2260   31.6890 N   0  0  0  0  0  0  0  0  0  0  0  0
   36.8150   24.0540   32.1710 C   0  0  0  0  0  0  0  0  0  0  0  0
   37.6200   23.9450   33.2660 N   0  0  0  0  0  0  0  0  0  0  0  0
   37.9860   25.0820   33.8940 C   0  0  0  0  0  0  0  0  0  0  0  0
   42.5800   22.5380   36.0610 N   0  0  0  0  0  0  0  0  0  0  0  0
   42.8970   21.4080   35.4050 C   0  0  0  0  0  0  0  0  0  0  0  0
   44.2500   21.3710   35.3060 N   0  0  0  0  0  0  0  0  0  0  0  0
   44.7420   22.4630   35.8960 C   0  0  0  0  0  0  0  0  0  0  0  0
   46.0050   22.9680   36.1090 C   0  0  0  0  0  0  0  0  0  0  0  0
   46.2060   24.1370   36.7580 N   0  0  0  0  0  0  0  0  0  0  0  0
   45.1460   24.8490   37.2200 C   0  0  0  0  0  0  0  0  0  0  0  0
   43.8880   24.3950   37.0360 N   0  0  0  0  0  0  0  0  0  0  0  0
   43.7030   23.2210   36.3820 C   0  0  0  0  0  0  0  0  0  0  0  0
   47.1390   22.2680   35.6490 N   0  0  0  0  0  0  0  0  0  0  0  0
   41.0794   21.8381   38.2388 H   0  0  0  0  0  0  0  0  0  0  0  0
   37.6612   22.9817   39.1436 H   0  0  0  0  0  0  0  0  0  0  0  0
   39.0417   21.9553   39.6165 H   0  0  0  0  0  0  0  0  0  0  0  0
   39.3353   27.0772   35.9702 H   0  0  0  0  0  0  0  0  0  0  0  0
   36.3705   27.3605   31.9261 H   0  0  0  0  0  0  0  0  0  0  0  0
   36.5134   23.1312   31.6538 H   0  0  0  0  0  0  0  0  0  0  0  0
   42.1926   20.6555   35.0210 H   0  0  0  0  0  0  0  0  0  0  0  0
   45.3132   25.8002   37.7466 H   0  0  0  0  0  0  0  0  0  0  0  0
   48.0814   22.6508   35.8113 H   0  0  0  0  0  0  0  0  0  0  0  0
   47.0251   21.3738   35.1506 H   0  0  0  0  0  0  0  0  0  0  0  0
  1  2  2  0
  2  3  1  0
  3  7  1  0
  4  3  2  0
  5  4  1  0
  6  5  2  0
  6  1  1  0
  8  9  1  0
  8  5  1  0
 10  9  2  0
 11 16  2  0
 11 10  1  0
 12 11  1  0
 13 14  1  0
 13 12  2  0
 14 15  2  0
 15 16  1  0
 16  8  1  0
 17 25  1  0
 17  1  1  0
 18 17  1  0
 19 18  2  0
 19 20  1  0
 20 21  2  0
 20 25  1  0
 21 22  1  0
 22 23  2  0
 24 23  1  0
 25 24  2  0
 26 21  1  0
  2 27  1  0
  7 28  1  0
  7 29  1  0
  9 30  1  0
 12 31  1  0
 14 32  1  0
 18 33  1  0
 23 34  1  0
 26 35  1  0
 26 36  1  0
M  ISO  6  27  14  30  14  31  14  32  14  33  14  34  14
M  END
>  <minimizedAffinity>  (1) 
-6.37187767

>  <minimizedRMSD>  (1) 
3.93132687

$$$$
