
     RDKit          3D

 35 38  0  0  0  0  0  0  0  0999 V2000
   39.6170   23.4930   35.7630 C   0  0  0  0  0  0  0  0  0  0  0  0
   39.0600   23.4480   37.0430 C   0  0  0  0  0  0  0  0  0  0  0  0
   37.8620   22.7020   37.1870 C   0  0  0  0  0  0  0  0  0  0  0  0
   37.3360   22.0920   36.1120 N   0  0  0  0  0  0  0  0  0  0  0  0
   37.8920   22.1510   34.8900 C   0  0  0  0  0  0  0  0  0  0  0  0
   39.0350   22.8540   34.7190 N   0  0  0  0  0  0  0  0  0  0  0  0
   37.2570   22.6290   38.4760 N   0  0  0  0  0  0  0  0  0  0  0  0
   37.3500   21.5110   33.7410 N   0  0  0  0  0  0  0  0  0  0  0  0
   37.9360   21.5400   32.5130 C   0  0  0  0  0  0  0  0  0  0  0  0
   37.4140   20.9260   31.4090 C   0  0  0  0  0  0  0  0  0  0  0  0
   36.2110   20.2450   31.6090 C   0  0  0  0  0  0  0  0  0  0  0  0
   35.6890   19.6610   30.6230 O   0  0  0  0  0  0  0  0  0  0  0  0
   35.6250   20.2150   32.8340 N   0  0  0  0  0  0  0  0  0  0  0  0
   36.2010   20.8480   33.8830 C   0  0  0  0  0  0  0  0  0  0  0  0
   35.5400   20.7300   34.9500 O   0  0  0  0  0  0  0  0  0  0  0  0
   40.8250   24.2130   35.4900 N   0  0  0  0  0  0  0  0  0  0  0  0
   42.0640   23.8660   35.8880 C   0  0  0  0  0  0  0  0  0  0  0  0
   42.9040   24.8220   35.4130 N   0  0  0  0  0  0  0  0  0  0  0  0
   42.1860   25.7180   34.7490 C   0  0  0  0  0  0  0  0  0  0  0  0
   42.4720   26.8780   34.0670 C   0  0  0  0  0  0  0  0  0  0  0  0
   41.5050   27.6230   33.4600 N   0  0  0  0  0  0  0  0  0  0  0  0
   40.1970   27.2210   33.5200 C   0  0  0  0  0  0  0  0  0  0  0  0
   39.8780   26.0880   34.1810 N   0  0  0  0  0  0  0  0  0  0  0  0
   40.8550   25.3740   34.7700 C   0  0  0  0  0  0  0  0  0  0  0  0
   43.7890   27.3560   33.9590 N   0  0  0  0  0  0  0  0  0  0  0  0
   39.5261   23.9642   37.8952 H   0  0  0  0  0  0  0  0  0  0  0  0
   36.3868   22.0937   38.6069 H   0  0  0  0  0  0  0  0  0  0  0  0
   37.6901   23.1116   39.2763 H   0  0  0  0  0  0  0  0  0  0  0  0
   38.8831   22.0885   32.4027 H   0  0  0  0  0  0  0  0  0  0  0  0
   37.9089   20.9656   30.4274 H   0  0  0  0  0  0  0  0  0  0  0  0
   34.7380   19.7082   32.9655 H   0  0  0  0  0  0  0  0  0  0  0  0
   42.3412   22.9821   36.4812 H   0  0  0  0  0  0  0  0  0  0  0  0
   39.4116   27.8175   33.0328 H   0  0  0  0  0  0  0  0  0  0  0  0
   43.9801   28.2270   33.4435 H   0  0  0  0  0  0  0  0  0  0  0  0
   44.5632   26.8354   34.3953 H   0  0  0  0  0  0  0  0  0  0  0  0
  1  2  2  0
  2  3  1  0
  3  7  1  0
  4  3  2  0
  5  4  1  0
  6  5  2  0
  6  1  1  0
  8 14  1  0
  8  5  1  0
  9  8  1  0
 10 11  1  0
 10  9  2  0
 11 13  1  0
 12 11  2  0
 13 14  1  0
 14 15  2  0
 16  1  1  0
 16 17  1  0
 18 17  2  0
 19 24  2  0
 19 18  1  0
 20 19  1  0
 21 22  1  0
 21 20  2  0
 22 23  2  0
 23 24  1  0
 24 16  1  0
 25 20  1  0
  2 26  1  0
  7 27  1  0
  7 28  1  0
  9 29  1  0
 10 30  1  0
 13 31  1  0
 17 32  1  0
 22 33  1  0
 25 34  1  0
 25 35  1  0
M  ISO  6  26  14  29  14  30  14  31   9  32  14  33  14
M  END
>  <minimizedAffinity>  (1) 
-6.12760639

>  <minimizedRMSD>  (1) 
1.42161906

$$$$
