
     RDKit          3D

 38 41  0  0  0  0  0  0  0  0999 V2000
   39.5440   23.4980   35.6330 C   0  0  0  0  0  0  0  0  0  0  0  0
   38.9840   23.3940   36.9200 C   0  0  0  0  0  0  0  0  0  0  0  0
   37.7910   22.6690   37.0420 C   0  0  0  0  0  0  0  0  0  0  0  0
   37.2490   22.1180   35.9510 N   0  0  0  0  0  0  0  0  0  0  0  0
   37.8070   22.2300   34.7110 C   0  0  0  0  0  0  0  0  0  0  0  0
   38.9470   22.9190   34.5650 N   0  0  0  0  0  0  0  0  0  0  0  0
   37.1790   22.5460   38.3130 N   0  0  0  0  0  0  0  0  0  0  0  0
   37.1480   21.6040   33.5990 N   0  0  0  0  0  0  0  0  0  0  0  0
   35.9240   20.8880   33.8730 C   0  0  0  0  0  0  0  0  0  0  0  0
   35.1170   20.5290   32.7010 C   0  0  0  0  0  0  0  0  0  0  0  0
   35.7410   20.8140   31.3650 C   0  0  0  0  0  0  0  0  0  0  0  0
   37.2570   20.6180   31.4380 C   0  0  0  0  0  0  0  0  0  0  0  0
   37.7640   21.7390   32.2920 C   0  0  0  0  0  0  0  0  0  0  0  0
   40.7570   24.2140   35.3960 N   0  0  0  0  0  0  0  0  0  0  0  0
   41.9880   23.8530   35.8230 C   0  0  0  0  0  0  0  0  0  0  0  0
   42.8430   24.8170   35.3770 N   0  0  0  0  0  0  0  0  0  0  0  0
   42.1480   25.7180   34.7080 C   0  0  0  0  0  0  0  0  0  0  0  0
   42.4550   26.8820   34.0460 C   0  0  0  0  0  0  0  0  0  0  0  0
   41.4990   27.6390   33.4200 N   0  0  0  0  0  0  0  0  0  0  0  0
   40.1920   27.2340   33.4490 C   0  0  0  0  0  0  0  0  0  0  0  0
   39.8550   26.0990   34.0880 N   0  0  0  0  0  0  0  0  0  0  0  0
   40.8210   25.3710   34.6980 C   0  0  0  0  0  0  0  0  0  0  0  0
   43.7840   27.3470   33.9840 N   0  0  0  0  0  0  0  0  0  0  0  0
   39.4624   23.8619   37.7930 H   0  0  0  0  0  0  0  0  0  0  0  0
   36.3020   22.0152   38.4131 H   0  0  0  0  0  0  0  0  0  0  0  0
   37.6108   22.9873   39.1374 H   0  0  0  0  0  0  0  0  0  0  0  0
   35.6158   20.6280   34.8964 H   0  0  0  0  0  0  0  0  0  0  0  0
   34.1176   20.0793   32.7952 H   0  0  0  0  0  0  0  0  0  0  0  0
   35.5223   21.8525   31.0758 H   0  0  0  0  0  0  0  0  0  0  0  0
   35.3247   20.1211   30.6189 H   0  0  0  0  0  0  0  0  0  0  0  0
   37.4976   19.6470   31.8954 H   0  0  0  0  0  0  0  0  0  0  0  0
   37.7182   20.6246   30.4394 H   0  0  0  0  0  0  0  0  0  0  0  0
   38.8583   21.6758   32.3841 H   0  0  0  0  0  0  0  0  0  0  0  0
   37.5132   22.7118   31.8438 H   0  0  0  0  0  0  0  0  0  0  0  0
   42.2476   22.9609   36.4119 H   0  0  0  0  0  0  0  0  0  0  0  0
   39.4179   27.8358   32.9504 H   0  0  0  0  0  0  0  0  0  0  0  0
   44.0009   28.2213   33.4845 H   0  0  0  0  0  0  0  0  0  0  0  0
   44.5383   26.8126   34.4382 H   0  0  0  0  0  0  0  0  0  0  0  0
  1  2  2  0
  2  3  1  0
  3  7  1  0
  4  3  2  0
  5  4  1  0
  6  5  2  0
  6  1  1  0
  8  9  1  0
  8  5  1  0
 10  9  2  0
 11 12  1  0
 11 10  1  0
 12 13  1  0
 13  8  1  0
 14  1  1  0
 14 15  1  0
 16 15  2  0
 17 16  1  0
 18 17  2  0
 19 20  2  0
 19 18  1  0
 20 21  1  0
 21 22  2  0
 22 17  1  0
 22 14  1  0
 23 18  1  0
  2 24  1  0
  7 25  1  0
  7 26  1  0
  9 27  1  0
 10 28  1  0
 11 29  1  0
 11 30  1  0
 12 31  1  0
 12 32  1  0
 13 33  1  0
 13 34  1  0
 15 35  1  0
 20 36  1  0
 23 37  1  0
 23 38  1  0
M  ISO  8  24  14  27  13  28  13  29  13  30  13  31  13  32  13  33  13
M  ISO  3  34  13  35  14  36  14
M  END
>  <minimizedAffinity>  (1) 
-5.93788862

>  <minimizedRMSD>  (1) 
1.47062802

$$$$
