
     RDKit          3D

 41 44  0  0  0  0  0  0  0  0999 V2000
   39.6030   23.4560   35.6090 C   0  0  0  0  0  0  0  0  0  0  0  0
   39.0050   23.4000   36.8890 C   0  0  0  0  0  0  0  0  0  0  0  0
   37.8110   22.6510   36.9990 C   0  0  0  0  0  0  0  0  0  0  0  0
   37.3210   22.0480   35.9040 N   0  0  0  0  0  0  0  0  0  0  0  0
   37.9120   22.1150   34.6820 C   0  0  0  0  0  0  0  0  0  0  0  0
   39.0610   22.8310   34.5580 N   0  0  0  0  0  0  0  0  0  0  0  0
   37.1600   22.5530   38.2520 N   0  0  0  0  0  0  0  0  0  0  0  0
   40.8110   24.1870   35.3950 N   0  0  0  0  0  0  0  0  0  0  0  0
   42.0290   23.8700   35.8310 C   0  0  0  0  0  0  0  0  0  0  0  0
   42.8800   24.8430   35.3960 N   0  0  0  0  0  0  0  0  0  0  0  0
   42.1760   25.7210   34.7150 C   0  0  0  0  0  0  0  0  0  0  0  0
   42.4540   26.9040   34.0390 C   0  0  0  0  0  0  0  0  0  0  0  0
   41.4990   27.6350   33.3990 N   0  0  0  0  0  0  0  0  0  0  0  0
   40.2100   27.2020   33.4120 C   0  0  0  0  0  0  0  0  0  0  0  0
   39.8750   26.0610   34.0510 N   0  0  0  0  0  0  0  0  0  0  0  0
   40.8530   25.3540   34.6820 C   0  0  0  0  0  0  0  0  0  0  0  0
   43.7800   27.3950   33.9960 N   0  0  0  0  0  0  0  0  0  0  0  0
   37.3680   21.4520   33.4920 C   0  0  0  0  0  0  0  0  0  0  0  0
   35.9780   20.9130   33.7180 C   0  0  0  0  0  0  0  0  0  0  0  0
   35.0320   21.2150   32.5840 C   0  0  0  0  0  0  0  0  0  0  0  0
   35.6460   21.0620   31.2210 C   0  0  0  0  0  0  0  0  0  0  0  0
   37.0350   21.6410   31.1060 C   0  0  0  0  0  0  0  0  0  0  0  0
   37.2710   22.4640   32.3510 C   0  0  0  0  0  0  0  0  0  0  0  0
   39.4466   23.9135   37.7558 H   0  0  0  0  0  0  0  0  0  0  0  0
   36.2898   22.0089   38.3391 H   0  0  0  0  0  0  0  0  0  0  0  0
   37.5565   23.0258   39.0767 H   0  0  0  0  0  0  0  0  0  0  0  0
   42.2984   22.9878   36.4303 H   0  0  0  0  0  0  0  0  0  0  0  0
   39.4334   27.7867   32.8972 H   0  0  0  0  0  0  0  0  0  0  0  0
   43.9889   28.2710   33.4960 H   0  0  0  0  0  0  0  0  0  0  0  0
   44.5366   26.8765   34.4647 H   0  0  0  0  0  0  0  0  0  0  0  0
   38.0452   20.6180   33.2556 H   0  0  0  0  0  0  0  0  0  0  0  0
   36.0417   19.8215   33.8388 H   0  0  0  0  0  0  0  0  0  0  0  0
   35.5786   21.4058   34.6167 H   0  0  0  0  0  0  0  0  0  0  0  0
   34.1747   20.5296   32.6565 H   0  0  0  0  0  0  0  0  0  0  0  0
   34.7391   22.2704   32.6853 H   0  0  0  0  0  0  0  0  0  0  0  0
   35.6974   19.9893   30.9830 H   0  0  0  0  0  0  0  0  0  0  0  0
   35.0087   21.6208   30.5198 H   0  0  0  0  0  0  0  0  0  0  0  0
   37.7778   20.8324   31.0405 H   0  0  0  0  0  0  0  0  0  0  0  0
   37.1306   22.2590   30.2011 H   0  0  0  0  0  0  0  0  0  0  0  0
   38.2064   23.0360   32.2630 H   0  0  0  0  0  0  0  0  0  0  0  0
   36.4655   23.1942   32.5183 H   0  0  0  0  0  0  0  0  0  0  0  0
  1  2  2  0
  2  3  1  0
  3  7  1  0
  4  3  2  0
  5  4  1  0
  6  5  2  0
  6  1  1  0
  8  1  1  0
  8  9  1  0
 10  9  2  0
 11 10  1  0
 12 11  2  0
 13 14  2  0
 13 12  1  0
 14 15  1  0
 15 16  2  0
 16 11  1  0
 16  8  1  0
 17 12  1  0
 18 19  1  0
 18  5  1  0
 20 19  1  0
 21 20  1  0
 22 21  1  0
 22 23  1  0
 23 18  1  0
  2 24  1  0
  7 25  1  0
  7 26  1  0
  9 27  1  0
 14 28  1  0
 17 29  1  0
 17 30  1  0
 18 31  1  0
 19 32  1  0
 19 33  1  0
 20 34  1  0
 20 35  1  0
 21 36  1  0
 21 37  1  0
 22 38  1  0
 22 39  1  0
 23 40  1  0
 23 41  1  0
M  ISO  8  24  14  27  14  28  14  31  13  32  13  33  13  34  13  35  13
M  ISO  6  36  13  37  13  38  13  39  13  40  13  41  13
M  END
>  <minimizedAffinity>  (1) 
-5.88071299

>  <minimizedRMSD>  (1) 
1.51887429

$$$$
