
     RDKit          3D

 35 38  0  0  0  0  0  0  0  0999 V2000
   39.6490   23.5310   35.6540 C   0  0  0  0  0  0  0  0  0  0  0  0
   39.1630   23.4520   36.9810 C   0  0  0  0  0  0  0  0  0  0  0  0
   37.9480   22.7480   37.1880 C   0  0  0  0  0  0  0  0  0  0  0  0
   37.3360   22.2010   36.1060 N   0  0  0  0  0  0  0  0  0  0  0  0
   37.8250   22.2930   34.8510 C   0  0  0  0  0  0  0  0  0  0  0  0
   38.9770   22.9600   34.6490 N   0  0  0  0  0  0  0  0  0  0  0  0
   37.4340   22.6590   38.5040 N   0  0  0  0  0  0  0  0  0  0  0  0
   40.8550   24.2170   35.3540 N   0  0  0  0  0  0  0  0  0  0  0  0
   42.0890   23.8640   35.7030 C   0  0  0  0  0  0  0  0  0  0  0  0
   42.9360   24.8060   35.2060 N   0  0  0  0  0  0  0  0  0  0  0  0
   42.2180   25.7150   34.5650 C   0  0  0  0  0  0  0  0  0  0  0  0
   42.4930   26.8780   33.8710 C   0  0  0  0  0  0  0  0  0  0  0  0
   41.5190   27.6280   33.3040 N   0  0  0  0  0  0  0  0  0  0  0  0
   40.2110   27.2470   33.4040 C   0  0  0  0  0  0  0  0  0  0  0  0
   39.8960   26.1180   34.0720 N   0  0  0  0  0  0  0  0  0  0  0  0
   40.8830   25.3830   34.6320 C   0  0  0  0  0  0  0  0  0  0  0  0
   43.8180   27.3250   33.7250 N   0  0  0  0  0  0  0  0  0  0  0  0
   37.0840   21.6660   33.7610 C   0  0  0  0  0  0  0  0  0  0  0  0
   37.4330   21.9200   32.4490 C   0  0  0  0  0  0  0  0  0  0  0  0
   36.6610   21.2710   31.5070 C   0  0  0  0  0  0  0  0  0  0  0  0
   35.6120   20.4240   31.7900 C   0  0  0  0  0  0  0  0  0  0  0  0
   35.2920   20.1940   33.1210 C   0  0  0  0  0  0  0  0  0  0  0  0
   36.0420   20.8260   34.0970 C   0  0  0  0  0  0  0  0  0  0  0  0
   39.7048   23.9172   37.8177 H   0  0  0  0  0  0  0  0  0  0  0  0
   36.5540   22.1536   38.6801 H   0  0  0  0  0  0  0  0  0  0  0  0
   37.9400   23.0997   39.2854 H   0  0  0  0  0  0  0  0  0  0  0  0
   42.3724   22.9750   36.2856 H   0  0  0  0  0  0  0  0  0  0  0  0
   39.4199   27.8566   32.9430 H   0  0  0  0  0  0  0  0  0  0  0  0
   44.0145   28.1929   33.2063 H   0  0  0  0  0  0  0  0  0  0  0  0
   44.5922   26.7846   34.1368 H   0  0  0  0  0  0  0  0  0  0  0  0
   38.2628   22.5884   32.1758 H   0  0  0  0  0  0  0  0  0  0  0  0
   36.9020   21.4434   30.4477 H   0  0  0  0  0  0  0  0  0  0  0  0
   35.0424   19.9422   30.9817 H   0  0  0  0  0  0  0  0  0  0  0  0
   34.4621   19.5253   33.3933 H   0  0  0  0  0  0  0  0  0  0  0  0
   35.8039   20.6562   35.1574 H   0  0  0  0  0  0  0  0  0  0  0  0
  1  2  2  0
  2  3  1  0
  3  7  1  0
  4  3  2  0
  5  4  1  0
  6  5  2  0
  6  1  1  0
  8  1  1  0
  8  9  1  0
 10  9  2  0
 11 16  2  0
 11 10  1  0
 12 11  1  0
 13 14  1  0
 13 12  2  0
 14 15  2  0
 15 16  1  0
 16  8  1  0
 17 12  1  0
 18 23  1  0
 18  5  1  0
 19 18  2  0
 20 21  2  0
 20 19  1  0
 21 22  1  0
 22 23  2  0
  2 24  1  0
  7 25  1  0
  7 26  1  0
  9 27  1  0
 14 28  1  0
 17 29  1  0
 17 30  1  0
 19 31  1  0
 20 32  1  0
 21 33  1  0
 22 34  1  0
 23 35  1  0
M  ISO  8  24  14  27  14  28  14  31  14  32  14  33  14  34  14  35  14
M  END
>  <minimizedAffinity>  (1) 
-5.74197912

>  <minimizedRMSD>  (1) 
1.51355541

$$$$
