
     RDKit          3D

 17 17  0  0  0  0  0  0  0  0999 V2000
   39.8560   22.7380   37.4530 C   0  0  0  0  0  0  0  0  0  0  0  0
   39.1270   23.4070   38.4460 C   0  0  0  0  0  0  0  0  0  0  0  0
   37.7440   23.5120   38.2510 C   0  0  0  0  0  0  0  0  0  0  0  0
   37.1990   22.9630   37.1200 N   0  0  0  0  0  0  0  0  0  0  0  0
   37.9430   22.3300   36.1970 C   0  0  0  0  0  0  0  0  0  0  0  0
   39.2800   22.2180   36.3660 N   0  0  0  0  0  0  0  0  0  0  0  0
   37.3440   21.7700   35.0310 N   0  0  0  0  0  0  0  0  0  0  0  0
   36.1450   21.0110   35.1520 C   0  0  0  0  0  0  0  0  0  0  0  0
   35.7090   20.6940   36.3410 N   0  0  0  0  0  0  0  0  0  0  0  0
   35.4370   20.6060   33.9620 N   0  0  0  0  0  0  0  0  0  0  0  0
   34.8290   20.1370   36.4060 H   0  0  0  0  0  0  0  0  0  0  0  0
   40.9447   22.6374   37.5738 H   0  0  0  0  0  0  0  0  0  0  0  0
   39.6175   23.8292   39.3355 H   0  0  0  0  0  0  0  0  0  0  0  0
   37.1094   24.0239   38.9894 H   0  0  0  0  0  0  0  0  0  0  0  0
   37.7756   21.9134   34.1068 H   0  0  0  0  0  0  0  0  0  0  0  0
   34.5691   20.0569   34.0409 H   0  0  0  0  0  0  0  0  0  0  0  0
   35.7994   20.8659   33.0336 H   0  0  0  0  0  0  0  0  0  0  0  0
  1  2  2  0
  3  2  1  0
  4  3  2  0
  5  6  2  0
  5  4  1  0
  6  1  1  0
  7  8  1  0
  7  5  1  0
  8  9  2  0
  9 11  1  0
 10  8  1  0
  1 12  1  0
  2 13  1  0
  3 14  1  0
  7 15  1  0
 10 16  1  0
 10 17  1  0
M  ISO  3  12  14  13  14  14  14
M  END
>  <minimizedAffinity>  (1) 
-3.94833469

>  <minimizedRMSD>  (1) 
0.999385715

$$$$
