
     RDKit          3D

 33 36  0  0  0  0  0  0  0  0999 V2000
   39.6020   23.5290   35.7160 C   0  0  0  0  0  0  0  0  0  0  0  0
   39.1250   23.4540   37.0260 C   0  0  0  0  0  0  0  0  0  0  0  0
   37.9260   22.7430   37.2350 C   0  0  0  0  0  0  0  0  0  0  0  0
   37.3050   22.1740   36.1730 N   0  0  0  0  0  0  0  0  0  0  0  0
   37.7870   22.2620   34.9270 C   0  0  0  0  0  0  0  0  0  0  0  0
   38.9290   22.9350   34.6980 N   0  0  0  0  0  0  0  0  0  0  0  0
   37.4070   22.6460   38.5650 N   0  0  0  0  0  0  0  0  0  0  0  0
   40.8040   24.2200   35.3760 N   0  0  0  0  0  0  0  0  0  0  0  0
   42.0480   23.8490   35.6970 C   0  0  0  0  0  0  0  0  0  0  0  0
   42.8920   24.7850   35.1780 N   0  0  0  0  0  0  0  0  0  0  0  0
   42.1570   25.6960   34.5610 C   0  0  0  0  0  0  0  0  0  0  0  0
   42.4250   26.8600   33.8610 C   0  0  0  0  0  0  0  0  0  0  0  0
   41.4380   27.6310   33.3110 N   0  0  0  0  0  0  0  0  0  0  0  0
   40.1310   27.2460   33.4530 C   0  0  0  0  0  0  0  0  0  0  0  0
   39.8200   26.1250   34.1250 N   0  0  0  0  0  0  0  0  0  0  0  0
   40.8200   25.3780   34.6610 C   0  0  0  0  0  0  0  0  0  0  0  0
   43.7600   27.2930   33.6890 N   0  0  0  0  0  0  0  0  0  0  0  0
   37.0760   21.6320   33.8240 C   0  0  0  0  0  0  0  0  0  0  0  0
   35.9640   20.8390   34.0870 C   0  0  0  0  0  0  0  0  0  0  0  0
   35.3450   20.2760   32.9780 C   0  0  0  0  0  0  0  0  0  0  0  0
   35.7820   20.4730   31.7220 N   0  0  0  0  0  0  0  0  0  0  0  0
   36.8640   21.2480   31.5170 C   0  0  0  0  0  0  0  0  0  0  0  0
   37.5160   21.8300   32.5590 N   0  0  0  0  0  0  0  0  0  0  0  0
   39.6622   23.9297   37.8598 H   0  0  0  0  0  0  0  0  0  0  0  0
   36.5323   22.1312   38.7402 H   0  0  0  0  0  0  0  0  0  0  0  0
   37.9082   23.0910   39.3471 H   0  0  0  0  0  0  0  0  0  0  0  0
   42.3360   22.9564   36.2717 H   0  0  0  0  0  0  0  0  0  0  0  0
   39.3304   27.8591   33.0136 H   0  0  0  0  0  0  0  0  0  0  0  0
   43.9574   28.1593   33.1679 H   0  0  0  0  0  0  0  0  0  0  0  0
   44.5351   26.7422   34.0848 H   0  0  0  0  0  0  0  0  0  0  0  0
   35.5973   20.6682   35.1099 H   0  0  0  0  0  0  0  0  0  0  0  0
   34.4597   19.6421   33.1342 H   0  0  0  0  0  0  0  0  0  0  0  0
   37.2259   21.4128   30.4914 H   0  0  0  0  0  0  0  0  0  0  0  0
  1  2  2  0
  2  3  1  0
  3  7  1  0
  4  3  2  0
  5  4  1  0
  6  5  2  0
  6  1  1  0
  8  9  1  0
  8  1  1  0
 10  9  2  0
 11 16  2  0
 11 10  1  0
 12 11  1  0
 13 14  1  0
 13 12  2  0
 14 15  2  0
 15 16  1  0
 16  8  1  0
 17 12  1  0
 18 19  2  0
 18  5  1  0
 20 19  1  0
 21 20  2  0
 22 21  1  0
 22 23  2  0
 23 18  1  0
  2 24  1  0
  7 25  1  0
  7 26  1  0
  9 27  1  0
 14 28  1  0
 17 29  1  0
 17 30  1  0
 19 31  1  0
 20 32  1  0
 22 33  1  0
M  ISO  6  24  14  27  14  28  14  31  14  32  14  33  14
M  END
>  <minimizedAffinity>  (1) 
-5.38994169

>  <minimizedRMSD>  (1) 
1.54073977

$$$$
