
     RDKit          3D

 32 35  0  0  0  0  0  0  0  0999 V2000
   39.5820   23.5010   35.7410 C   0  0  0  0  0  0  0  0  0  0  0  0
   39.0420   23.4150   37.0250 C   0  0  0  0  0  0  0  0  0  0  0  0
   37.8500   22.7070   37.2210 C   0  0  0  0  0  0  0  0  0  0  0  0
   37.2810   22.1420   36.1490 N   0  0  0  0  0  0  0  0  0  0  0  0
   37.8080   22.2260   34.9000 C   0  0  0  0  0  0  0  0  0  0  0  0
   38.9550   22.9070   34.7140 N   0  0  0  0  0  0  0  0  0  0  0  0
   37.2830   22.6060   38.5150 N   0  0  0  0  0  0  0  0  0  0  0  0
   40.7930   24.2050   35.4690 N   0  0  0  0  0  0  0  0  0  0  0  0
   42.0240   23.8550   35.8500 C   0  0  0  0  0  0  0  0  0  0  0  0
   42.8720   24.8070   35.3770 N   0  0  0  0  0  0  0  0  0  0  0  0
   42.1560   25.7190   34.7210 C   0  0  0  0  0  0  0  0  0  0  0  0
   42.4330   26.8890   34.0370 C   0  0  0  0  0  0  0  0  0  0  0  0
   41.4560   27.6350   33.4490 N   0  0  0  0  0  0  0  0  0  0  0  0
   40.1540   27.2340   33.5220 C   0  0  0  0  0  0  0  0  0  0  0  0
   39.8370   26.0990   34.1780 N   0  0  0  0  0  0  0  0  0  0  0  0
   40.8140   25.3740   34.7540 C   0  0  0  0  0  0  0  0  0  0  0  0
   43.7690   27.3350   33.9410 N   0  0  0  0  0  0  0  0  0  0  0  0
   37.1010   21.5670   33.7880 C   0  0  0  0  0  0  0  0  0  0  0  0
   37.1920   21.4080   32.4180 C   0  0  0  0  0  0  0  0  0  0  0  0
   36.1260   20.6190   32.0210 C   0  0  0  0  0  0  0  0  0  0  0  0
   35.4300   20.3350   33.2010 C   0  0  0  0  0  0  0  0  0  0  0  0
   36.0360   20.9100   34.2150 O   0  0  0  0  0  0  0  0  0  0  0  0
   39.5475   23.8983   37.8741 H   0  0  0  0  0  0  0  0  0  0  0  0
   36.4060   22.0840   38.6537 H   0  0  0  0  0  0  0  0  0  0  0  0
   37.7477   23.0546   39.3173 H   0  0  0  0  0  0  0  0  0  0  0  0
   42.2998   22.9654   36.4354 H   0  0  0  0  0  0  0  0  0  0  0  0
   39.3646   27.8350   33.0469 H   0  0  0  0  0  0  0  0  0  0  0  0
   43.9864   28.2048   33.4340 H   0  0  0  0  0  0  0  0  0  0  0  0
   44.5263   26.7906   34.3779 H   0  0  0  0  0  0  0  0  0  0  0  0
   37.9686   21.8306   31.7636 H   0  0  0  0  0  0  0  0  0  0  0  0
   35.8801   20.2879   31.0012 H   0  0  0  0  0  0  0  0  0  0  0  0
   34.5172   19.7250   33.2692 H   0  0  0  0  0  0  0  0  0  0  0  0
  1  2  2  0
  2  3  1  0
  3  7  1  0
  4  3  2  0
  5  4  1  0
  6  5  2  0
  6  1  1  0
  8  1  1  0
  8  9  1  0
 10  9  2  0
 11 16  2  0
 11 10  1  0
 12 11  1  0
 13 14  1  0
 13 12  2  0
 14 15  2  0
 15 16  1  0
 16  8  1  0
 17 12  1  0
 18 22  1  0
 18  5  1  0
 19 18  2  0
 20 19  1  0
 20 21  2  0
 21 22  1  0
  2 23  1  0
  7 24  1  0
  7 25  1  0
  9 26  1  0
 14 27  1  0
 17 28  1  0
 17 29  1  0
 19 30  1  0
 20 31  1  0
 21 32  1  0
M  ISO  6  23  14  26  14  27  14  30  14  31  14  32  14
M  END
>  <minimizedAffinity>  (1) 
-5.25518799

>  <minimizedRMSD>  (1) 
1.5072118

$$$$
