
     RDKit          3D

 32 35  0  0  0  0  0  0  0  0999 V2000
   39.6410   23.5530   35.7100 C   0  0  0  0  0  0  0  0  0  0  0  0
   39.1810   23.4630   37.0250 C   0  0  0  0  0  0  0  0  0  0  0  0
   37.9650   22.7720   37.2430 C   0  0  0  0  0  0  0  0  0  0  0  0
   37.3320   22.2480   36.1860 N   0  0  0  0  0  0  0  0  0  0  0  0
   37.7990   22.3500   34.9230 C   0  0  0  0  0  0  0  0  0  0  0  0
   38.9550   23.0050   34.7010 N   0  0  0  0  0  0  0  0  0  0  0  0
   37.4610   22.6570   38.5680 N   0  0  0  0  0  0  0  0  0  0  0  0
   37.1400   21.8000   33.7870 N   0  0  0  0  0  0  0  0  0  0  0  0
   36.1320   20.9210   33.5390 C   0  0  0  0  0  0  0  0  0  0  0  0
   35.9890   20.8320   32.1650 C   0  0  0  0  0  0  0  0  0  0  0  0
   36.8960   21.6440   31.5930 N   0  0  0  0  0  0  0  0  0  0  0  0
   37.6050   22.2420   32.5820 C   0  0  0  0  0  0  0  0  0  0  0  0
   40.8650   24.2350   35.3910 N   0  0  0  0  0  0  0  0  0  0  0  0
   42.0980   23.8650   35.7410 C   0  0  0  0  0  0  0  0  0  0  0  0
   42.9500   24.7960   35.2300 N   0  0  0  0  0  0  0  0  0  0  0  0
   42.2270   25.7110   34.5820 C   0  0  0  0  0  0  0  0  0  0  0  0
   42.5130   26.8620   33.8770 C   0  0  0  0  0  0  0  0  0  0  0  0
   41.5370   27.6270   33.3010 N   0  0  0  0  0  0  0  0  0  0  0  0
   40.2320   27.2520   33.4170 C   0  0  0  0  0  0  0  0  0  0  0  0
   39.9080   26.1370   34.0960 N   0  0  0  0  0  0  0  0  0  0  0  0
   40.8810   25.3890   34.6610 C   0  0  0  0  0  0  0  0  0  0  0  0
   43.8420   27.2960   33.7250 N   0  0  0  0  0  0  0  0  0  0  0  0
   39.7413   23.9113   37.8587 H   0  0  0  0  0  0  0  0  0  0  0  0
   36.5774   22.1569   38.7413 H   0  0  0  0  0  0  0  0  0  0  0  0
   37.9796   23.0738   39.3543 H   0  0  0  0  0  0  0  0  0  0  0  0
   35.5395   20.3804   34.2918 H   0  0  0  0  0  0  0  0  0  0  0  0
   35.2589   20.2049   31.6324 H   0  0  0  0  0  0  0  0  0  0  0  0
   38.4213   22.9650   32.4371 H   0  0  0  0  0  0  0  0  0  0  0  0
   42.3736   22.9776   36.3297 H   0  0  0  0  0  0  0  0  0  0  0  0
   39.4422   27.8622   32.9545 H   0  0  0  0  0  0  0  0  0  0  0  0
   44.0455   28.1566   33.1969 H   0  0  0  0  0  0  0  0  0  0  0  0
   44.6119   26.7533   34.1418 H   0  0  0  0  0  0  0  0  0  0  0  0
  1  2  2  0
  2  3  1  0
  3  7  1  0
  4  3  2  0
  5  4  1  0
  6  5  2  0
  6  1  1  0
  8  5  1  0
  9  8  1  0
 10  9  2  0
 11 10  1  0
 11 12  2  0
 12  8  1  0
 13  1  1  0
 13 14  1  0
 15 14  2  0
 16 21  2  0
 16 15  1  0
 17 16  1  0
 18 19  1  0
 18 17  2  0
 19 20  2  0
 20 21  1  0
 21 13  1  0
 22 17  1  0
  2 23  1  0
  7 24  1  0
  7 25  1  0
  9 26  1  0
 10 27  1  0
 12 28  1  0
 14 29  1  0
 19 30  1  0
 22 31  1  0
 22 32  1  0
M  ISO  6  23  14  26  14  27  14  28  14  29  14  30  14
M  END
>  <minimizedAffinity>  (1) 
-5.24606037

>  <minimizedRMSD>  (1) 
1.50295043

$$$$
