
     RDKit          3D

 32 35  0  0  0  0  0  0  0  0999 V2000
   39.6890   23.5470   35.6910 C   0  0  0  0  0  0  0  0  0  0  0  0
   39.1900   23.5090   37.0130 C   0  0  0  0  0  0  0  0  0  0  0  0
   37.9850   22.8080   37.2390 C   0  0  0  0  0  0  0  0  0  0  0  0
   37.3830   22.2160   36.1770 N   0  0  0  0  0  0  0  0  0  0  0  0
   37.8820   22.2700   34.9360 C   0  0  0  0  0  0  0  0  0  0  0  0
   39.0320   22.9350   34.6990 N   0  0  0  0  0  0  0  0  0  0  0  0
   37.4510   22.7460   38.5520 N   0  0  0  0  0  0  0  0  0  0  0  0
   40.8970   24.2320   35.3800 N   0  0  0  0  0  0  0  0  0  0  0  0
   42.1340   23.8840   35.7270 C   0  0  0  0  0  0  0  0  0  0  0  0
   42.9820   24.8160   35.2240 N   0  0  0  0  0  0  0  0  0  0  0  0
   42.2480   25.7220   34.5750 C   0  0  0  0  0  0  0  0  0  0  0  0
   42.5300   26.8730   33.8760 C   0  0  0  0  0  0  0  0  0  0  0  0
   41.5430   27.6310   33.2950 N   0  0  0  0  0  0  0  0  0  0  0  0
   40.2420   27.2440   33.4060 C   0  0  0  0  0  0  0  0  0  0  0  0
   39.9310   26.1230   34.0840 N   0  0  0  0  0  0  0  0  0  0  0  0
   40.9240   25.3890   34.6510 C   0  0  0  0  0  0  0  0  0  0  0  0
   43.8670   27.3220   33.7290 N   0  0  0  0  0  0  0  0  0  0  0  0
   37.1880   21.6130   33.8300 C   0  0  0  0  0  0  0  0  0  0  0  0
   37.6000   21.5780   32.5150 C   0  0  0  0  0  0  0  0  0  0  0  0
   36.6930   20.8750   31.7910 N   0  0  0  0  0  0  0  0  0  0  0  0
   35.7260   20.4750   32.6410 C   0  0  0  0  0  0  0  0  0  0  0  0
   36.0470   20.9330   33.8640 N   0  0  0  0  0  0  0  0  0  0  0  0
   39.7216   24.0079   37.8368 H   0  0  0  0  0  0  0  0  0  0  0  0
   36.5727   22.2372   38.7273 H   0  0  0  0  0  0  0  0  0  0  0  0
   37.9416   23.2097   39.3299 H   0  0  0  0  0  0  0  0  0  0  0  0
   42.4179   22.9994   36.3160 H   0  0  0  0  0  0  0  0  0  0  0  0
   39.4466   27.8462   32.9426 H   0  0  0  0  0  0  0  0  0  0  0  0
   44.0655   28.1853   33.2034 H   0  0  0  0  0  0  0  0  0  0  0  0
   44.6396   26.7849   34.1478 H   0  0  0  0  0  0  0  0  0  0  0  0
   38.5140   22.0436   32.1178 H   0  0  0  0  0  0  0  0  0  0  0  0
   34.8366   19.8821   32.3815 H   0  0  0  0  0  0  0  0  0  0  0  0
   35.4843   20.7776   34.7126 H   0  0  0  0  0  0  0  0  0  0  0  0
  1  2  2  0
  2  3  1  0
  3  7  1  0
  4  3  2  0
  5  4  1  0
  6  5  2  0
  6  1  1  0
  8  1  1  0
  8  9  1  0
 10  9  2  0
 11 16  2  0
 11 10  1  0
 12 11  1  0
 13 14  1  0
 13 12  2  0
 14 15  2  0
 15 16  1  0
 16  8  1  0
 17 12  1  0
 18 22  1  0
 18  5  1  0
 19 18  2  0
 20 19  1  0
 20 21  2  0
 21 22  1  0
  2 23  1  0
  7 24  1  0
  7 25  1  0
  9 26  1  0
 14 27  1  0
 17 28  1  0
 17 29  1  0
 19 30  1  0
 21 31  1  0
 22 32  1  0
M  ISO  6  23  14  26  14  27  14  30  14  31  14  32   9
M  END
>  <minimizedAffinity>  (1) 
-5.02154064

>  <minimizedRMSD>  (1) 
1.51972878

$$$$
