
     RDKit          3D

 34 36  0  0  0  0  0  0  0  0999 V2000
   40.6780   24.1720   35.4300 N   0  0  0  0  0  0  0  0  0  0  0  0
   41.9240   23.8220   35.8160 C   0  0  0  0  0  0  0  0  0  0  0  0
   42.7550   24.8020   35.3460 N   0  0  0  0  0  0  0  0  0  0  0  0
   42.0330   25.6990   34.7050 C   0  0  0  0  0  0  0  0  0  0  0  0
   42.2980   26.8760   34.0370 C   0  0  0  0  0  0  0  0  0  0  0  0
   41.3230   27.6260   33.4500 N   0  0  0  0  0  0  0  0  0  0  0  0
   40.0300   27.2100   33.5160 C   0  0  0  0  0  0  0  0  0  0  0  0
   39.7160   26.0670   34.1580 N   0  0  0  0  0  0  0  0  0  0  0  0
   40.7080   25.3420   34.7330 C   0  0  0  0  0  0  0  0  0  0  0  0
   39.4810   23.4520   35.6930 C   0  0  0  0  0  0  0  0  0  0  0  0
   38.9290   23.3860   36.9800 C   0  0  0  0  0  0  0  0  0  0  0  0
   37.7380   22.6490   37.1460 C   0  0  0  0  0  0  0  0  0  0  0  0
   37.1990   22.0540   36.0750 N   0  0  0  0  0  0  0  0  0  0  0  0
   37.7460   22.1290   34.8330 C   0  0  0  0  0  0  0  0  0  0  0  0
   38.8810   22.8270   34.6550 N   0  0  0  0  0  0  0  0  0  0  0  0
   37.1490   22.5590   38.4310 N   0  0  0  0  0  0  0  0  0  0  0  0
   37.0700   21.4310   33.6930 C   0  0  0  0  0  0  0  0  0  0  0  0
   35.8040   20.7280   34.1820 C   0  0  0  0  0  0  0  0  0  0  0  0
   36.7800   22.3490   32.5370 C   0  0  0  0  0  0  0  0  0  0  0  0
   43.6270   27.3490   33.9420 N   0  0  0  0  0  0  0  0  0  0  0  0
   42.2122   22.9300   36.3915 H   0  0  0  0  0  0  0  0  0  0  0  0
   39.2372   27.8086   33.0436 H   0  0  0  0  0  0  0  0  0  0  0  0
   39.4083   23.8917   37.8312 H   0  0  0  0  0  0  0  0  0  0  0  0
   36.2793   22.0231   38.5625 H   0  0  0  0  0  0  0  0  0  0  0  0
   37.5904   23.0294   39.2340 H   0  0  0  0  0  0  0  0  0  0  0  0
   37.7698   20.6741   33.3091 H   0  0  0  0  0  0  0  0  0  0  0  0
   35.7904   20.7204   35.2819 H   0  0  0  0  0  0  0  0  0  0  0  0
   34.9192   21.2640   33.8080 H   0  0  0  0  0  0  0  0  0  0  0  0
   35.7913   19.6936   33.8080 H   0  0  0  0  0  0  0  0  0  0  0  0
   36.4693   23.3327   32.9189 H   0  0  0  0  0  0  0  0  0  0  0  0
   37.6858   22.4633   31.9234 H   0  0  0  0  0  0  0  0  0  0  0  0
   35.9729   21.9222   31.9234 H   0  0  0  0  0  0  0  0  0  0  0  0
   43.8264   28.2279   33.4434 H   0  0  0  0  0  0  0  0  0  0  0  0
   44.3958   26.8147   34.3714 H   0  0  0  0  0  0  0  0  0  0  0  0
  1 10  1  0
  1  2  1  0
  3  2  2  0
  4  9  2  0
  4  3  1  0
  5  4  1  0
  6  7  1  0
  6  5  2  0
  7  8  2  0
  8  9  1  0
  9  1  1  0
 10 11  2  0
 11 12  1  0
 12 16  1  0
 13 12  2  0
 14 13  1  0
 15 14  2  0
 15 10  1  0
 17 18  1  0
 17 14  1  0
 19 17  1  0
 20  5  1  0
  2 21  1  0
  7 22  1  0
 11 23  1  0
 16 24  1  0
 16 25  1  0
 17 26  1  0
 18 27  1  0
 18 28  1  0
 18 29  1  0
 19 30  1  0
 19 31  1  0
 19 32  1  0
 20 33  1  0
 20 34  1  0
M  ISO  8  21  14  22  14  23  14  26   8  27   8  28   8  29   8  30   8
M  ISO  2  31   8  32   8
M  END
>  <minimizedAffinity>  (1) 
-4.90690851

>  <minimizedRMSD>  (1) 
1.6112752

$$$$
