
     RDKit          3D

 28 30  0  0  0  0  0  0  0  0999 V2000
   40.9860   24.0570   35.4250 N   0  0  0  0  0  0  0  0  0  0  0  0
   42.2020   23.6050   35.7280 C   0  0  0  0  0  0  0  0  0  0  0  0
   43.1040   24.4910   35.2480 N   0  0  0  0  0  0  0  0  0  0  0  0
   42.4320   25.4800   34.6550 C   0  0  0  0  0  0  0  0  0  0  0  0
   42.7700   26.6410   33.9940 C   0  0  0  0  0  0  0  0  0  0  0  0
   41.8490   27.4910   33.4720 N   0  0  0  0  0  0  0  0  0  0  0  0
   40.5140   27.1940   33.5970 C   0  0  0  0  0  0  0  0  0  0  0  0
   40.1310   26.0690   34.2340 N   0  0  0  0  0  0  0  0  0  0  0  0
   41.0690   25.2410   34.7440 C   0  0  0  0  0  0  0  0  0  0  0  0
   39.7400   23.4420   35.7350 C   0  0  0  0  0  0  0  0  0  0  0  0
   39.2230   23.4400   37.0330 C   0  0  0  0  0  0  0  0  0  0  0  0
   37.9730   22.8030   37.2350 C   0  0  0  0  0  0  0  0  0  0  0  0
   37.3580   22.2380   36.1720 N   0  0  0  0  0  0  0  0  0  0  0  0
   37.8810   22.2520   34.9180 C   0  0  0  0  0  0  0  0  0  0  0  0
   39.0640   22.8530   34.7160 N   0  0  0  0  0  0  0  0  0  0  0  0
   37.4130   22.7840   38.5350 N   0  0  0  0  0  0  0  0  0  0  0  0
   37.1620   21.6210   33.8150 C   0  0  0  0  0  0  0  0  0  0  0  0
   37.5960   21.7270   32.6400 O   0  0  0  0  0  0  0  0  0  0  0  0
   36.0020   20.9080   34.0760 O   0  0  0  0  0  0  0  0  0  0  0  0
   44.1290   26.9920   33.8390 N   0  0  0  0  0  0  0  0  0  0  0  0
   42.4315   22.6767   36.2717 H   0  0  0  0  0  0  0  0  0  0  0  0
   39.7575   27.8736   33.1776 H   0  0  0  0  0  0  0  0  0  0  0  0
   39.7645   23.9139   37.8650 H   0  0  0  0  0  0  0  0  0  0  0  0
   36.5054   22.3251   38.6981 H   0  0  0  0  0  0  0  0  0  0  0  0
   37.9131   23.2291   39.3177 H   0  0  0  0  0  0  0  0  0  0  0  0
   35.5083   20.4770   33.3339 H   0  0  0  0  0  0  0  0  0  0  0  0
   44.3838   27.8593   33.3453 H   0  0  0  0  0  0  0  0  0  0  0  0
   44.8654   26.3807   34.2197 H   0  0  0  0  0  0  0  0  0  0  0  0
  1  2  1  0
  1 10  1  0
  3  2  2  0
  4  9  2  0
  4  3  1  0
  5  4  1  0
  6  7  1  0
  6  5  2  0
  7  8  2  0
  8  9  1  0
  9  1  1  0
 10 11  2  0
 11 12  1  0
 12 16  1  0
 13 12  2  0
 14 13  1  0
 15 14  2  0
 15 10  1  0
 17 19  1  0
 17 14  1  0
 18 17  2  0
 20  5  1  0
  2 21  1  0
  7 22  1  0
 11 23  1  0
 16 24  1  0
 16 25  1  0
 19 26  1  0
 20 27  1  0
 20 28  1  0
M  ISO  4  21  14  22  14  23  14  26   3
M  END
>  <minimizedAffinity>  (1) 
-4.50389194

>  <minimizedRMSD>  (1) 
1.32841527

$$$$
