
     RDKit          3D

 31 33  0  0  0  0  0  0  0  0999 V2000
   41.5920   23.7330   35.7490 N   0  0  0  0  0  0  0  0  0  0  0  0
   42.7010   23.1170   36.2170 C   0  0  0  0  0  0  0  0  0  0  0  0
   43.7640   23.8980   35.8700 N   0  0  0  0  0  0  0  0  0  0  0  0
   43.3020   24.9520   35.2130 C   0  0  0  0  0  0  0  0  0  0  0  0
   43.8640   26.0630   34.6290 C   0  0  0  0  0  0  0  0  0  0  0  0
   43.1290   27.0160   34.0100 N   0  0  0  0  0  0  0  0  0  0  0  0
   41.7650   26.8980   33.9420 C   0  0  0  0  0  0  0  0  0  0  0  0
   41.1690   25.8220   34.5000 N   0  0  0  0  0  0  0  0  0  0  0  0
   41.9260   24.8900   35.1110 C   0  0  0  0  0  0  0  0  0  0  0  0
   40.2560   23.2660   35.8830 C   0  0  0  0  0  0  0  0  0  0  0  0
   39.5640   23.3250   37.0920 C   0  0  0  0  0  0  0  0  0  0  0  0
   38.2510   22.8310   37.1060 C   0  0  0  0  0  0  0  0  0  0  0  0
   37.7210   22.3310   35.9770 N   0  0  0  0  0  0  0  0  0  0  0  0
   38.4090   22.2840   34.8140 C   0  0  0  0  0  0  0  0  0  0  0  0
   39.6740   22.7540   34.7800 N   0  0  0  0  0  0  0  0  0  0  0  0
   37.5060   22.8660   38.3330 N   0  0  0  0  0  0  0  0  0  0  0  0
   37.8130   21.7290   33.5720 C   0  0  0  0  0  0  0  0  0  0  0  0
   36.4400   21.1810   33.8910 C   0  0  0  0  0  0  0  0  0  0  0  0
   45.2520   26.2650   34.6310 N   0  0  0  0  0  0  0  0  0  0  0  0
   42.7387   22.1677   36.7715 H   0  0  0  0  0  0  0  0  0  0  0  0
   41.1635   27.6698   33.4394 H   0  0  0  0  0  0  0  0  0  0  0  0
   40.0285   23.7418   37.9978 H   0  0  0  0  0  0  0  0  0  0  0  0
   36.5409   22.5072   38.3599 H   0  0  0  0  0  0  0  0  0  0  0  0
   37.9367   23.2499   39.1862 H   0  0  0  0  0  0  0  0  0  0  0  0
   38.4520   20.9219   33.1843 H   0  0  0  0  0  0  0  0  0  0  0  0
   37.7317   22.5197   32.8116 H   0  0  0  0  0  0  0  0  0  0  0  0
   36.3103   21.1292   34.9821 H   0  0  0  0  0  0  0  0  0  0  0  0
   35.6726   21.8418   33.4615 H   0  0  0  0  0  0  0  0  0  0  0  0
   36.3385   20.1734   33.4615 H   0  0  0  0  0  0  0  0  0  0  0  0
   45.6509   27.1047   34.1874 H   0  0  0  0  0  0  0  0  0  0  0  0
   45.8724   25.5737   35.0760 H   0  0  0  0  0  0  0  0  0  0  0  0
  1 10  1  0
  1  2  1  0
  3  2  2  0
  4  3  1  0
  5 19  1  0
  5  4  2  0
  6  5  1  0
  7  6  2  0
  7  8  1  0
  8  9  2  0
  9  4  1  0
  9  1  1  0
 10 11  2  0
 11 12  1  0
 12 16  1  0
 13 12  2  0
 14 13  1  0
 15 14  2  0
 15 10  1  0
 17 18  1  0
 17 14  1  0
  2 20  1  0
  7 21  1  0
 11 22  1  0
 16 23  1  0
 16 24  1  0
 17 25  1  0
 17 26  1  0
 18 27  1  0
 18 28  1  0
 18 29  1  0
 19 30  1  0
 19 31  1  0
M  ISO  8  20  14  21  14  22  14  25   8  26   8  27   8  28   8  29   8
M  END
>  <minimizedAffinity>  (1) 
-4.27345753

>  <minimizedRMSD>  (1) 
0.445285171

$$$$
