
     RDKit          3D

 28 30  0  0  0  0  0  0  0  0999 V2000
   41.7590   23.5200   35.9510 N   0  0  0  0  0  0  0  0  0  0  0  0
   42.8020   22.8730   36.4990 C   0  0  0  0  0  0  0  0  0  0  0  0
   43.9160   23.5900   36.1970 N   0  0  0  0  0  0  0  0  0  0  0  0
   43.5470   24.6510   35.4770 C   0  0  0  0  0  0  0  0  0  0  0  0
   44.2120   25.7150   34.8960 C   0  0  0  0  0  0  0  0  0  0  0  0
   43.5480   26.6850   34.1940 N   0  0  0  0  0  0  0  0  0  0  0  0
   42.1950   26.6140   34.0570 C   0  0  0  0  0  0  0  0  0  0  0  0
   41.5190   25.5850   34.6160 N   0  0  0  0  0  0  0  0  0  0  0  0
   42.1850   24.6340   35.3050 C   0  0  0  0  0  0  0  0  0  0  0  0
   40.3890   23.1320   36.0110 C   0  0  0  0  0  0  0  0  0  0  0  0
   39.6550   23.2220   37.2110 C   0  0  0  0  0  0  0  0  0  0  0  0
   38.3140   22.8200   37.1820 C   0  0  0  0  0  0  0  0  0  0  0  0
   37.8010   22.3740   36.0280 N   0  0  0  0  0  0  0  0  0  0  0  0
   38.5230   22.2940   34.8810 C   0  0  0  0  0  0  0  0  0  0  0  0
   39.8160   22.6770   34.8910 N   0  0  0  0  0  0  0  0  0  0  0  0
   37.5350   22.8980   38.3850 N   0  0  0  0  0  0  0  0  0  0  0  0
   37.9230   21.7900   33.6040 C   0  0  0  0  0  0  0  0  0  0  0  0
   45.6150   25.8210   35.0180 N   0  0  0  0  0  0  0  0  0  0  0  0
   42.7614   21.9406   37.0811 H   0  0  0  0  0  0  0  0  0  0  0  0
   41.6548   27.3897   33.4945 H   0  0  0  0  0  0  0  0  0  0  0  0
   40.1187   23.5944   38.1364 H   0  0  0  0  0  0  0  0  0  0  0  0
   36.5473   22.6058   38.3788 H   0  0  0  0  0  0  0  0  0  0  0  0
   37.9636   23.2462   39.2544 H   0  0  0  0  0  0  0  0  0  0  0  0
   37.0993   21.0981   33.8339 H   0  0  0  0  0  0  0  0  0  0  0  0
   37.5369   22.6386   33.0203 H   0  0  0  0  0  0  0  0  0  0  0  0
   38.6923   21.2632   33.0203 H   0  0  0  0  0  0  0  0  0  0  0  0
   46.1112   26.6133   34.5855 H   0  0  0  0  0  0  0  0  0  0  0  0
   46.1421   25.1060   35.5395 H   0  0  0  0  0  0  0  0  0  0  0  0
  1 10  1  0
  1  2  1  0
  3  2  2  0
  4  3  1  0
  5 18  1  0
  5  4  2  0
  6  5  1  0
  7  6  2  0
  7  8  1  0
  8  9  2  0
  9  4  1  0
  9  1  1  0
 10 11  2  0
 12 11  1  0
 12 16  1  0
 13 12  2  0
 14 15  2  0
 14 13  1  0
 15 10  1  0
 17 14  1  0
  2 19  1  0
  7 20  1  0
 11 21  1  0
 16 22  1  0
 16 23  1  0
 17 24  1  0
 17 25  1  0
 17 26  1  0
 18 27  1  0
 18 28  1  0
M  ISO  6  19  14  20  14  21  14  24   8  25   8  26   8
M  END
>  <minimizedAffinity>  (1) 
-4.17688084

>  <minimizedRMSD>  (1) 
0.047345642

$$$$
