
     RDKit          3D

 27 29  0  0  0  0  0  0  0  0999 V2000
   41.7750   23.5450   35.9570 N   0  0  0  0  0  0  0  0  0  0  0  0
   42.8240   22.8960   36.5110 C   0  0  0  0  0  0  0  0  0  0  0  0
   43.9400   23.6090   36.2100 N   0  0  0  0  0  0  0  0  0  0  0  0
   43.5700   24.6570   35.4940 C   0  0  0  0  0  0  0  0  0  0  0  0
   44.2340   25.7240   34.9050 C   0  0  0  0  0  0  0  0  0  0  0  0
   43.5710   26.6880   34.2030 N   0  0  0  0  0  0  0  0  0  0  0  0
   42.2150   26.6230   34.0610 C   0  0  0  0  0  0  0  0  0  0  0  0
   41.5350   25.5970   34.6200 N   0  0  0  0  0  0  0  0  0  0  0  0
   42.2070   24.6510   35.3120 C   0  0  0  0  0  0  0  0  0  0  0  0
   40.4100   23.1490   36.0240 C   0  0  0  0  0  0  0  0  0  0  0  0
   39.6740   23.2380   37.2230 C   0  0  0  0  0  0  0  0  0  0  0  0
   38.3290   22.8110   37.1530 C   0  0  0  0  0  0  0  0  0  0  0  0
   37.8290   22.3570   35.9980 N   0  0  0  0  0  0  0  0  0  0  0  0
   38.5620   22.2820   34.8620 C   0  0  0  0  0  0  0  0  0  0  0  0
   39.8450   22.6790   34.8900 N   0  0  0  0  0  0  0  0  0  0  0  0
   37.5350   22.8800   38.3480 N   0  0  0  0  0  0  0  0  0  0  0  0
   38.0300   21.8050   33.6580 N   0  0  0  0  0  0  0  0  0  0  0  0
   45.6350   25.8330   35.0260 N   0  0  0  0  0  0  0  0  0  0  0  0
   42.7814   21.9653   37.0957 H   0  0  0  0  0  0  0  0  0  0  0  0
   41.6794   27.3999   33.4958 H   0  0  0  0  0  0  0  0  0  0  0  0
   40.1191   23.6163   38.1551 H   0  0  0  0  0  0  0  0  0  0  0  0
   36.5509   22.5764   38.3307 H   0  0  0  0  0  0  0  0  0  0  0  0
   37.9497   23.2331   39.2222 H   0  0  0  0  0  0  0  0  0  0  0  0
   37.0485   21.4957   33.6154 H   0  0  0  0  0  0  0  0  0  0  0  0
   38.6202   21.7634   32.8149 H   0  0  0  0  0  0  0  0  0  0  0  0
   46.1296   26.6241   34.5896 H   0  0  0  0  0  0  0  0  0  0  0  0
   46.1635   25.1215   35.5507 H   0  0  0  0  0  0  0  0  0  0  0  0
  1 10  1  0
  1  2  1  0
  3  2  2  0
  4  3  1  0
  5 18  1  0
  5  4  2  0
  6  5  1  0
  7  6  2  0
  7  8  1  0
  8  9  2  0
  9  4  1  0
  9  1  1  0
 10 11  2  0
 12 11  1  0
 12 16  1  0
 13 12  2  0
 14 15  2  0
 14 13  1  0
 15 10  1  0
 17 14  1  0
  2 19  1  0
  7 20  1  0
 11 21  1  0
 16 22  1  0
 16 23  1  0
 17 24  1  0
 17 25  1  0
 18 26  1  0
 18 27  1  0
M  ISO  3  19  14  20  14  21  14
M  END
>  <minimizedAffinity>  (1) 
-4.15111256

>  <minimizedRMSD>  (1) 
0.0273858644

$$$$
