
     RDKit          3D

 27 28  0  0  0  0  0  0  0  0999 V2000
   41.2430   24.5360   34.9590 C   0  0  0  0  0  0  0  0  0  0  0  0
   40.4870   25.5410   34.3560 C   0  0  0  0  0  0  0  0  0  0  0  0
   39.1540   25.6310   34.7330 C   0  0  0  0  0  0  0  0  0  0  0  0
   38.6710   24.7510   35.6490 N   0  0  0  0  0  0  0  0  0  0  0  0
   39.4440   23.7890   36.2080 C   0  0  0  0  0  0  0  0  0  0  0  0
   40.7340   23.6860   35.8570 N   0  0  0  0  0  0  0  0  0  0  0  0
   38.8750   22.8950   37.1650 N   0  0  0  0  0  0  0  0  0  0  0  0
   38.0600   23.3850   38.2120 C   0  0  0  0  0  0  0  0  0  0  0  0
   37.9640   24.6690   38.3920 N   0  0  0  0  0  0  0  0  0  0  0  0
   37.3520   22.4540   39.0600 N   0  0  0  0  0  0  0  0  0  0  0  0
   37.3540   25.0130   39.1690 H   0  0  0  0  0  0  0  0  0  0  0  0
   38.2250   26.6150   34.2070 C   0  0  0  0  0  0  0  0  0  0  0  0
   38.2750   26.9060   32.8600 C   0  0  0  0  0  0  0  0  0  0  0  0
   37.4150   27.8420   32.2830 C   0  0  0  0  0  0  0  0  0  0  0  0
   36.4890   28.4870   33.1040 C   0  0  0  0  0  0  0  0  0  0  0  0
   36.4380   28.1990   34.4430 C   0  0  0  0  0  0  0  0  0  0  0  0
   37.2920   27.2820   34.9720 C   0  0  0  0  0  0  0  0  0  0  0  0
   42.3036   24.4384   34.6840 H   0  0  0  0  0  0  0  0  0  0  0  0
   40.9255   26.2286   33.6179 H   0  0  0  0  0  0  0  0  0  0  0  0
   39.0597   21.8843   37.0922 H   0  0  0  0  0  0  0  0  0  0  0  0
   36.7567   22.8037   39.8244 H   0  0  0  0  0  0  0  0  0  0  0  0
   37.4425   21.4405   38.9002 H   0  0  0  0  0  0  0  0  0  0  0  0
   39.0096   26.3886   32.2255 H   0  0  0  0  0  0  0  0  0  0  0  0
   37.4660   28.0658   31.2072 H   0  0  0  0  0  0  0  0  0  0  0  0
   35.7984   29.2283   32.6755 H   0  0  0  0  0  0  0  0  0  0  0  0
   35.7077   28.7086   35.0887 H   0  0  0  0  0  0  0  0  0  0  0  0
   37.2362   27.0648   36.0489 H   0  0  0  0  0  0  0  0  0  0  0  0
  1  6  2  0
  2  3  2  0
  2  1  1  0
  3  4  1  0
  4  5  2  0
  5  7  1  0
  6  5  1  0
  7  8  1  0
  8  9  2  0
  8 10  1  0
  9 11  1  0
 12  3  1  0
 12 17  1  0
 13 12  2  0
 14 13  1  0
 14 15  2  0
 15 16  1  0
 16 17  2  0
  1 18  1  0
  2 19  1  0
  7 20  1  0
 10 21  1  0
 10 22  1  0
 13 23  1  0
 14 24  1  0
 15 25  1  0
 16 26  1  0
 17 27  1  0
M  ISO  7  18  14  19  14  23  14  24  14  25  14  26  14  27  14
M  END
>  <minimizedAffinity>  (1) 
-5.00237608

>  <minimizedRMSD>  (1) 
5.45923185

$$$$
