
     RDKit          3D

 39 42  0  0  0  0  0  0  0  0999 V2000
   36.9200   25.9290   31.0210 C   0  0  0  0  0  0  0  0  0  0  0  0
   37.9100   24.9840   31.0500 C   0  0  0  0  0  0  0  0  0  0  0  0
   37.5650   23.6400   31.1810 C   0  0  0  0  0  0  0  0  0  0  0  0
   36.2330   23.2380   31.2840 C   0  0  0  0  0  0  0  0  0  0  0  0
   35.2130   24.1820   31.2560 C   0  0  0  0  0  0  0  0  0  0  0  0
   35.6080   25.4930   31.1250 C   0  0  0  0  0  0  0  0  0  0  0  0
   36.5510   20.8040   30.6420 C   0  0  0  0  0  0  0  0  0  0  0  0
   35.9830   21.8090   31.4210 C   0  0  0  0  0  0  0  0  0  0  0  0
   35.0960   21.3960   32.4230 C   0  0  0  0  0  0  0  0  0  0  0  0
   34.8320   20.0770   32.5930 N   0  0  0  0  0  0  0  0  0  0  0  0
   35.4210   19.1360   31.7950 C   0  0  0  0  0  0  0  0  0  0  0  0
   36.2900   19.5130   30.8110 N   0  0  0  0  0  0  0  0  0  0  0  0
   37.3900   27.5990   30.8620 S   0  0  0  0  0  0  0  0  0  0  0  0
   38.9000   27.7040   30.8620 O   0  0  0  0  0  0  0  0  0  0  0  0
   36.8180   28.1560   29.6050 O   0  0  0  0  0  0  0  0  0  0  0  0
   36.7230   28.4640   32.2180 C   0  0  0  0  0  0  0  0  0  0  0  0
   36.6770   27.9230   33.5020 C   0  0  0  0  0  0  0  0  0  0  0  0
   36.1600   28.5650   34.6090 C   0  0  0  0  0  0  0  0  0  0  0  0
   35.6450   29.8390   34.4510 C   0  0  0  0  0  0  0  0  0  0  0  0
   35.6610   30.4370   33.1940 C   0  0  0  0  0  0  0  0  0  0  0  0
   35.1410   31.7110   33.0620 C   0  0  0  0  0  0  0  0  0  0  0  0
   35.1610   32.2960   31.8100 C   0  0  0  0  0  0  0  0  0  0  0  0
   35.6890   31.6150   30.7330 C   0  0  0  0  0  0  0  0  0  0  0  0
   36.1910   30.3630   30.9040 C   0  0  0  0  0  0  0  0  0  0  0  0
   36.1970   29.7240   32.1400 C   0  0  0  0  0  0  0  0  0  0  0  0
   38.9659   25.2820   30.9708 H   0  0  0  0  0  0  0  0  0  0  0  0
   38.3599   22.8800   31.2037 H   0  0  0  0  0  0  0  0  0  0  0  0
   34.1533   23.8976   31.3340 H   0  0  0  0  0  0  0  0  0  0  0  0
   34.8182   26.2583   31.1008 H   0  0  0  0  0  0  0  0  0  0  0  0
   37.2520   21.0946   29.8456 H   0  0  0  0  0  0  0  0  0  0  0  0
   34.6135   22.1416   33.0720 H   0  0  0  0  0  0  0  0  0  0  0  0
   35.1940   18.0703   31.9461 H   0  0  0  0  0  0  0  0  0  0  0  0
   37.0825   26.9102   33.6432 H   0  0  0  0  0  0  0  0  0  0  0  0
   36.1576   28.0750   35.5938 H   0  0  0  0  0  0  0  0  0  0  0  0
   35.2251   30.3767   35.3139 H   0  0  0  0  0  0  0  0  0  0  0  0
   34.7232   32.2440   33.9288 H   0  0  0  0  0  0  0  0  0  0  0  0
   34.7542   33.3087   31.6719 H   0  0  0  0  0  0  0  0  0  0  0  0
   35.7039   32.0837   29.7380 H   0  0  0  0  0  0  0  0  0  0  0  0
   36.6077   29.8359   30.0331 H   0  0  0  0  0  0  0  0  0  0  0  0
  1  2  2  0
  1  6  1  0
  2  3  1  0
  3  4  2  0
  4  8  1  0
  5  4  1  0
  6  5  2  0
  7 12  2  0
  7  8  1  0
  8  9  2  0
  9 10  1  0
 11 10  2  0
 12 11  1  0
 13  1  1  0
 13 16  1  0
 14 13  2  0
 15 13  2  0
 16 17  2  0
 17 18  1  0
 19 18  2  0
 20 19  1  0
 21 20  2  0
 22 21  1  0
 23 24  1  0
 23 22  2  0
 24 25  2  0
 25 16  1  0
 25 20  1  0
  2 26  1  0
  3 27  1  0
  5 28  1  0
  6 29  1  0
  7 30  1  0
  9 31  1  0
 11 32  1  0
 17 33  1  0
 18 34  1  0
 19 35  1  0
 21 36  1  0
 22 37  1  0
 23 38  1  0
 24 39  1  0
M  ISO  8  26  14  27  14  28  14  29  14  30  14  31  14  32  14  33  14
M  ISO  6  34  14  35  14  36  14  37  14  38  14  39  14
M  END
>  <minimizedAffinity>  (1) 
-6.06317234

>  <minimizedRMSD>  (1) 
2.31685472

$$$$
