
     RDKit          3D

 37 40  0  0  0  0  0  0  0  0999 V2000
   36.9430   25.9200   31.0110 C   0  0  0  0  0  0  0  0  0  0  0  0
   37.9190   24.9620   30.9970 C   0  0  0  0  0  0  0  0  0  0  0  0
   37.5680   23.6230   31.1290 C   0  0  0  0  0  0  0  0  0  0  0  0
   36.2490   23.2150   31.2760 C   0  0  0  0  0  0  0  0  0  0  0  0
   35.2280   24.1780   31.2930 C   0  0  0  0  0  0  0  0  0  0  0  0
   35.6370   25.4810   31.1590 C   0  0  0  0  0  0  0  0  0  0  0  0
   36.5550   20.7910   30.6300 C   0  0  0  0  0  0  0  0  0  0  0  0
   35.9870   21.7940   31.4090 C   0  0  0  0  0  0  0  0  0  0  0  0
   35.0780   21.3920   32.4160 C   0  0  0  0  0  0  0  0  0  0  0  0
   34.8090   20.0660   32.5680 N   0  0  0  0  0  0  0  0  0  0  0  0
   35.3930   19.1300   31.7790 C   0  0  0  0  0  0  0  0  0  0  0  0
   36.2690   19.4980   30.8070 N   0  0  0  0  0  0  0  0  0  0  0  0
   37.3780   27.6010   30.8620 S   0  0  0  0  0  0  0  0  0  0  0  0
   38.9070   27.6930   30.8860 O   0  0  0  0  0  0  0  0  0  0  0  0
   36.8800   28.1350   29.5640 O   0  0  0  0  0  0  0  0  0  0  0  0
   36.7260   28.4030   32.2690 C   0  0  0  0  0  0  0  0  0  0  0  0
   36.9520   27.7770   33.4650 N   0  0  0  0  0  0  0  0  0  0  0  0
   36.5090   28.2790   34.6300 C   0  0  0  0  0  0  0  0  0  0  0  0
   35.8040   29.4470   34.6690 N   0  0  0  0  0  0  0  0  0  0  0  0
   35.5460   30.1110   33.5320 C   0  0  0  0  0  0  0  0  0  0  0  0
   34.8400   31.2940   33.4620 C   0  0  0  0  0  0  0  0  0  0  0  0
   34.5920   31.9450   32.2570 C   0  0  0  0  0  0  0  0  0  0  0  0
   35.0750   31.3780   31.0760 C   0  0  0  0  0  0  0  0  0  0  0  0
   35.7750   30.1990   31.1770 C   0  0  0  0  0  0  0  0  0  0  0  0
   36.0170   29.5650   32.3640 C   0  0  0  0  0  0  0  0  0  0  0  0
   38.9747   25.2489   30.8821 H   0  0  0  0  0  0  0  0  0  0  0  0
   38.3618   22.8616   31.1165 H   0  0  0  0  0  0  0  0  0  0  0  0
   34.1683   23.9057   31.4064 H   0  0  0  0  0  0  0  0  0  0  0  0
   34.8522   26.2516   31.1701 H   0  0  0  0  0  0  0  0  0  0  0  0
   37.2658   21.0729   29.8392 H   0  0  0  0  0  0  0  0  0  0  0  0
   34.5967   22.1383   33.0652 H   0  0  0  0  0  0  0  0  0  0  0  0
   35.1561   18.0660   31.9267 H   0  0  0  0  0  0  0  0  0  0  0  0
   36.7177   27.7406   35.5662 H   0  0  0  0  0  0  0  0  0  0  0  0
   34.4589   31.7393   34.3929 H   0  0  0  0  0  0  0  0  0  0  0  0
   34.0263   32.8881   32.2355 H   0  0  0  0  0  0  0  0  0  0  0  0
   34.9019   31.8568   30.1009 H   0  0  0  0  0  0  0  0  0  0  0  0
   36.1608   29.7416   30.2540 H   0  0  0  0  0  0  0  0  0  0  0  0
  1  6  1  0
  2  1  2  0
  2  3  1  0
  3  4  2  0
  4  5  1  0
  4  8  1  0
  6  5  2  0
  7 12  2  0
  7  8  1  0
  8  9  2  0
  9 10  1  0
 11 10  2  0
 12 11  1  0
 13 14  2  0
 13  1  1  0
 13 16  1  0
 15 13  2  0
 16 25  1  0
 16 17  2  0
 17 18  1  0
 18 19  2  0
 20 19  1  0
 21 20  2  0
 22 21  1  0
 23 24  1  0
 23 22  2  0
 24 25  2  0
 25 20  1  0
  2 26  1  0
  3 27  1  0
  5 28  1  0
  6 29  1  0
  7 30  1  0
  9 31  1  0
 11 32  1  0
 18 33  1  0
 21 34  1  0
 22 35  1  0
 23 36  1  0
 24 37  1  0
M  ISO  8  26  14  27  14  28  14  29  14  30  14  31  14  32  14  33  14
M  ISO  4  34  14  35  14  36  14  37  14
M  END
>  <minimizedAffinity>  (1) 
-5.7137475

>  <minimizedRMSD>  (1) 
1.45447564

$$$$
