
     RDKit          3D

 36 38  0  0  0  0  0  0  0  0999 V2000
   36.9230   25.7880   31.1740 C   0  0  0  0  0  0  0  0  0  0  0  0
   37.9260   24.8780   31.3680 C   0  0  0  0  0  0  0  0  0  0  0  0
   37.6000   23.5310   31.5370 C   0  0  0  0  0  0  0  0  0  0  0  0
   36.2880   23.0960   31.5140 C   0  0  0  0  0  0  0  0  0  0  0  0
   35.2390   24.0160   31.3160 C   0  0  0  0  0  0  0  0  0  0  0  0
   35.6150   25.3240   31.1550 C   0  0  0  0  0  0  0  0  0  0  0  0
   36.2220   20.7010   30.7000 C   0  0  0  0  0  0  0  0  0  0  0  0
   36.0200   21.6740   31.6980 C   0  0  0  0  0  0  0  0  0  0  0  0
   35.5350   21.2370   32.9320 C   0  0  0  0  0  0  0  0  0  0  0  0
   35.2860   19.9080   33.1030 N   0  0  0  0  0  0  0  0  0  0  0  0
   35.4910   19.0070   32.1230 C   0  0  0  0  0  0  0  0  0  0  0  0
   35.9610   19.4060   30.9160 N   0  0  0  0  0  0  0  0  0  0  0  0
   37.3690   27.4600   30.9760 S   0  0  0  0  0  0  0  0  0  0  0  0
   38.8780   27.5930   30.9880 O   0  0  0  0  0  0  0  0  0  0  0  0
   36.8050   27.9720   29.6940 O   0  0  0  0  0  0  0  0  0  0  0  0
   35.5350   30.0030   34.2310 C   0  0  0  0  0  0  0  0  0  0  0  0
   36.0730   28.7910   34.5760 C   0  0  0  0  0  0  0  0  0  0  0  0
   36.6430   27.9870   33.6010 C   0  0  0  0  0  0  0  0  0  0  0  0
   36.6770   28.3890   32.2890 C   0  0  0  0  0  0  0  0  0  0  0  0
   36.1290   29.6200   31.9450 C   0  0  0  0  0  0  0  0  0  0  0  0
   35.5620   30.4160   32.9220 C   0  0  0  0  0  0  0  0  0  0  0  0
   34.7980   31.0700   35.4090 S   0  0  0  0  0  0  0  0  0  0  0  0
   34.0100   32.1620   34.7640 O   0  0  0  0  0  0  0  0  0  0  0  0
   35.8670   31.6850   36.2590 O   0  0  0  0  0  0  0  0  0  0  0  0
   38.9765   25.2036   31.3906 H   0  0  0  0  0  0  0  0  0  0  0  0
   38.4060   22.7987   31.6921 H   0  0  0  0  0  0  0  0  0  0  0  0
   34.1845   23.7038   31.2922 H   0  0  0  0  0  0  0  0  0  0  0  0
   34.8170   26.0648   30.9983 H   0  0  0  0  0  0  0  0  0  0  0  0
   36.6043   21.0135   29.7171 H   0  0  0  0  0  0  0  0  0  0  0  0
   35.3574   21.9509   33.7498 H   0  0  0  0  0  0  0  0  0  0  0  0
   35.2761   17.9433   32.3030 H   0  0  0  0  0  0  0  0  0  0  0  0
   36.0527   28.4568   35.6238 H   0  0  0  0  0  0  0  0  0  0  0  0
   37.0735   27.0146   33.8824 H   0  0  0  0  0  0  0  0  0  0  0  0
   36.1468   29.9589   30.8987 H   0  0  0  0  0  0  0  0  0  0  0  0
   35.1284   31.3892   32.6484 H   0  0  0  0  0  0  0  0  0  0  0  0
   33.9409   30.3171   36.1675 H   0  0  0  0  0  0  0  0  0  0  0  0
  1  2  2  0
  2  3  1  0
  4  3  2  0
  4  8  1  0
  5  4  1  0
  6  1  1  0
  6  5  2  0
  7 12  2  0
  7  8  1  0
  8  9  2  0
  9 10  1  0
 11 10  2  0
 12 11  1  0
 13 14  2  0
 13  1  1  0
 13 19  1  0
 15 13  2  0
 16 17  2  0
 16 22  1  0
 18 17  1  0
 19 18  2  0
 20 19  1  0
 20 21  2  0
 21 16  1  0
 22 24  2  0
 23 22  2  0
  2 25  1  0
  3 26  1  0
  5 27  1  0
  6 28  1  0
  7 29  1  0
  9 30  1  0
 11 31  1  0
 17 32  1  0
 18 33  1  0
 20 34  1  0
 21 35  1  0
 22 36  1  0
M  ISO  8  25  14  26  14  27  14  28  14  29  14  30  14  31  14  32  14
M  ISO  4  33  14  34  14  35  14  36  11
M  END
>  <minimizedAffinity>  (1) 
-5.62549114

>  <minimizedRMSD>  (1) 
1.46907938

$$$$
