
     RDKit          3D

 38 40  0  0  0  0  0  0  0  0999 V2000
   36.5190   25.8540   31.5400 C   0  0  0  0  0  0  0  0  0  0  0  0
   37.4200   25.0800   32.2280 C   0  0  0  0  0  0  0  0  0  0  0  0
   37.1940   23.7080   32.3590 C   0  0  0  0  0  0  0  0  0  0  0  0
   36.0850   23.1020   31.8150 C   0  0  0  0  0  0  0  0  0  0  0  0
   35.1470   23.8730   31.1050 C   0  0  0  0  0  0  0  0  0  0  0  0
   35.4110   25.2170   31.0030 C   0  0  0  0  0  0  0  0  0  0  0  0
   35.9630   20.7450   30.9250 C   0  0  0  0  0  0  0  0  0  0  0  0
   35.9020   21.6670   31.9850 C   0  0  0  0  0  0  0  0  0  0  0  0
   35.6510   21.1610   33.2610 C   0  0  0  0  0  0  0  0  0  0  0  0
   35.4810   19.8120   33.4040 N   0  0  0  0  0  0  0  0  0  0  0  0
   35.5470   18.9610   32.3620 C   0  0  0  0  0  0  0  0  0  0  0  0
   35.7890   19.4350   31.1240 N   0  0  0  0  0  0  0  0  0  0  0  0
   36.8320   27.5550   31.3970 S   0  0  0  0  0  0  0  0  0  0  0  0
   38.1690   27.8830   32.0270 O   0  0  0  0  0  0  0  0  0  0  0  0
   36.8230   27.9480   29.9530 O   0  0  0  0  0  0  0  0  0  0  0  0
   35.2810   30.8420   33.9240 N   0  0  0  0  0  0  0  0  0  0  0  0
   35.7480   30.9140   32.5710 C   0  0  0  0  0  0  0  0  0  0  0  0
   35.2800   29.7700   31.7130 C   0  0  0  0  0  0  0  0  0  0  0  0
   35.5780   28.4210   32.3120 C   0  0  0  0  0  0  0  0  0  0  0  0
   36.0490   28.5770   33.7400 C   0  0  0  0  0  0  0  0  0  0  0  0
   35.0800   29.5210   34.4300 C   0  0  0  0  0  0  0  0  0  0  0  0
   38.3153   25.5379   32.6738 H   0  0  0  0  0  0  0  0  0  0  0  0
   37.9218   23.0958   32.9117 H   0  0  0  0  0  0  0  0  0  0  0  0
   34.2495   23.4234   30.6552 H   0  0  0  0  0  0  0  0  0  0  0  0
   34.6872   25.8359   30.4525 H   0  0  0  0  0  0  0  0  0  0  0  0
   36.1589   21.1112   29.9064 H   0  0  0  0  0  0  0  0  0  0  0  0
   35.5913   21.8315   34.1310 H   0  0  0  0  0  0  0  0  0  0  0  0
   35.4037   17.8820   32.5212 H   0  0  0  0  0  0  0  0  0  0  0  0
   34.3831   31.3437   33.9780 H   0  0  0  0  0  0  0  0  0  0  0  0
   35.3858   31.8530   32.1271 H   0  0  0  0  0  0  0  0  0  0  0  0
   36.8464   30.8650   32.6047 H   0  0  0  0  0  0  0  0  0  0  0  0
   35.7810   29.8375   30.7360 H   0  0  0  0  0  0  0  0  0  0  0  0
   34.1870   29.8541   31.6224 H   0  0  0  0  0  0  0  0  0  0  0  0
   34.6457   27.8384   32.2755 H   0  0  0  0  0  0  0  0  0  0  0  0
   36.0489   27.6003   34.2460 H   0  0  0  0  0  0  0  0  0  0  0  0
   37.0737   28.9757   33.7726 H   0  0  0  0  0  0  0  0  0  0  0  0
   35.2624   29.5094   35.5147 H   0  0  0  0  0  0  0  0  0  0  0  0
   34.0457   29.2009   34.2356 H   0  0  0  0  0  0  0  0  0  0  0  0
  1  2  2  0
  2  3  1  0
  4  8  1  0
  4  3  2  0
  5  4  1  0
  6  5  2  0
  6  1  1  0
  7 12  2  0
  7  8  1  0
  8  9  2  0
  9 10  1  0
 11 10  2  0
 12 11  1  0
 13  1  1  0
 13 14  2  0
 13 19  1  0
 15 13  2  0
 16 21  1  0
 17 16  1  0
 18 19  1  0
 18 17  1  0
 19 20  1  0
 20 21  1  0
  2 22  1  0
  3 23  1  0
  5 24  1  0
  6 25  1  0
  7 26  1  0
  9 27  1  0
 11 28  1  0
 16 29  1  0
 17 30  1  0
 17 31  1  0
 18 32  1  0
 18 33  1  0
 19 34  1  0
 20 35  1  0
 20 36  1  0
 21 37  1  0
 21 38  1  0
M  ISO  8  22  14  23  14  24  14  25  14  26  14  27  14  28  14  29   5
M  ISO  8  30  13  31  13  32  13  33  13  34  13  35  13  36  13  37  13
M  ISO  1  38  13
M  END
>  <minimizedAffinity>  (1) 
-5.16452408

>  <minimizedRMSD>  (1) 
1.53885806

$$$$
