
     RDKit          3D

 31 33  0  0  0  0  0  0  0  0999 V2000
   36.7950   26.0100   31.1200 C   0  0  0  0  0  0  0  0  0  0  0  0
   37.8170   25.0990   31.1810 C   0  0  0  0  0  0  0  0  0  0  0  0
   37.5230   23.7360   31.2970 C   0  0  0  0  0  0  0  0  0  0  0  0
   36.2300   23.2740   31.3540 C   0  0  0  0  0  0  0  0  0  0  0  0
   35.1670   24.1970   31.2930 C   0  0  0  0  0  0  0  0  0  0  0  0
   35.4980   25.5180   31.1800 C   0  0  0  0  0  0  0  0  0  0  0  0
   36.6660   20.8720   30.7090 C   0  0  0  0  0  0  0  0  0  0  0  0
   35.9990   21.8500   31.4750 C   0  0  0  0  0  0  0  0  0  0  0  0
   35.0530   21.4020   32.4120 C   0  0  0  0  0  0  0  0  0  0  0  0
   34.8330   20.0620   32.5280 N   0  0  0  0  0  0  0  0  0  0  0  0
   35.4880   19.1580   31.7800 C   0  0  0  0  0  0  0  0  0  0  0  0
   36.3990   19.5690   30.8760 N   0  0  0  0  0  0  0  0  0  0  0  0
   37.2130   27.6870   30.9810 S   0  0  0  0  0  0  0  0  0  0  0  0
   38.6870   27.8820   31.2330 O   0  0  0  0  0  0  0  0  0  0  0  0
   36.8310   28.1830   29.6270 O   0  0  0  0  0  0  0  0  0  0  0  0
   36.2550   28.5500   32.1670 C   0  0  0  0  0  0  0  0  0  0  0  0
   36.2790   28.4040   33.5390 C   0  0  0  0  0  0  0  0  0  0  0  0
   35.4420   29.1840   34.2840 C   0  0  0  0  0  0  0  0  0  0  0  0
   34.5950   30.0870   33.7530 N   0  0  0  0  0  0  0  0  0  0  0  0
   34.5920   30.2080   32.4110 C   0  0  0  0  0  0  0  0  0  0  0  0
   35.3990   29.4640   31.6230 N   0  0  0  0  0  0  0  0  0  0  0  0
   38.8628   25.4375   31.1390 H   0  0  0  0  0  0  0  0  0  0  0  0
   38.3509   23.0132   31.3439 H   0  0  0  0  0  0  0  0  0  0  0  0
   34.1179   23.8689   31.3345 H   0  0  0  0  0  0  0  0  0  0  0  0
   34.6750   26.2464   31.1330 H   0  0  0  0  0  0  0  0  0  0  0  0
   37.4147   21.1821   29.9652 H   0  0  0  0  0  0  0  0  0  0  0  0
   34.5013   22.1179   33.0390 H   0  0  0  0  0  0  0  0  0  0  0  0
   35.2810   18.0849   31.9053 H   0  0  0  0  0  0  0  0  0  0  0  0
   36.9535   27.6796   34.0189 H   0  0  0  0  0  0  0  0  0  0  0  0
   35.4602   29.0688   35.3778 H   0  0  0  0  0  0  0  0  0  0  0  0
   33.9118   30.9346   31.9427 H   0  0  0  0  0  0  0  0  0  0  0  0
  1  6  1  0
  1  2  2  0
  2  3  1  0
  3  4  2  0
  4  8  1  0
  5  4  1  0
  6  5  2  0
  7 12  2  0
  7  8  1  0
  8  9  2  0
  9 10  1  0
 11 10  2  0
 12 11  1  0
 13  1  1  0
 13 14  2  0
 13 16  1  0
 15 13  2  0
 16 17  2  0
 17 18  1  0
 19 18  2  0
 20 19  1  0
 21 16  1  0
 21 20  2  0
  2 22  1  0
  3 23  1  0
  5 24  1  0
  6 25  1  0
  7 26  1  0
  9 27  1  0
 11 28  1  0
 17 29  1  0
 18 30  1  0
 20 31  1  0
M  ISO  8  22  14  23  14  24  14  25  14  26  14  27  14  28  14  29  14
M  ISO  2  30  14  31  14
M  END
>  <minimizedAffinity>  (1) 
-5.0722928

>  <minimizedRMSD>  (1) 
1.24090254

$$$$
