
     RDKit          3D

 30 32  0  0  0  0  0  0  0  0999 V2000
   36.8170   26.0200   31.1360 C   0  0  0  0  0  0  0  0  0  0  0  0
   37.8350   25.1060   31.2020 C   0  0  0  0  0  0  0  0  0  0  0  0
   37.5240   23.7520   31.3070 C   0  0  0  0  0  0  0  0  0  0  0  0
   36.2230   23.2970   31.3490 C   0  0  0  0  0  0  0  0  0  0  0  0
   35.1750   24.2270   31.2820 C   0  0  0  0  0  0  0  0  0  0  0  0
   35.5170   25.5450   31.1790 C   0  0  0  0  0  0  0  0  0  0  0  0
   36.6300   20.8920   30.6960 C   0  0  0  0  0  0  0  0  0  0  0  0
   35.9950   21.8670   31.4600 C   0  0  0  0  0  0  0  0  0  0  0  0
   35.0540   21.4260   32.4220 C   0  0  0  0  0  0  0  0  0  0  0  0
   34.8300   20.0870   32.5380 N   0  0  0  0  0  0  0  0  0  0  0  0
   35.4710   19.1830   31.7740 C   0  0  0  0  0  0  0  0  0  0  0  0
   36.3710   19.5880   30.8530 N   0  0  0  0  0  0  0  0  0  0  0  0
   37.2580   27.7090   31.0080 S   0  0  0  0  0  0  0  0  0  0  0  0
   38.7340   27.8700   31.1620 O   0  0  0  0  0  0  0  0  0  0  0  0
   36.8170   28.2070   29.6480 O   0  0  0  0  0  0  0  0  0  0  0  0
   36.5080   28.6410   32.3020 C   0  0  0  0  0  0  0  0  0  0  0  0
   36.3170   28.3110   33.6380 C   0  0  0  0  0  0  0  0  0  0  0  0
   35.7000   29.2410   34.4140 C   0  0  0  0  0  0  0  0  0  0  0  0
   35.3020   30.4310   33.8650 C   0  0  0  0  0  0  0  0  0  0  0  0
   35.8330   30.2460   32.1100 S   0  0  0  0  0  0  0  0  0  0  0  0
   38.8838   25.4365   31.1725 H   0  0  0  0  0  0  0  0  0  0  0  0
   38.3443   23.0210   31.3581 H   0  0  0  0  0  0  0  0  0  0  0  0
   34.1226   23.9082   31.3112 H   0  0  0  0  0  0  0  0  0  0  0  0
   34.7019   26.2817   31.1265 H   0  0  0  0  0  0  0  0  0  0  0  0
   37.3668   21.2023   29.9405 H   0  0  0  0  0  0  0  0  0  0  0  0
   34.5181   22.1453   33.0587 H   0  0  0  0  0  0  0  0  0  0  0  0
   35.2608   18.1107   31.9005 H   0  0  0  0  0  0  0  0  0  0  0  0
   36.6485   27.3453   34.0474 H   0  0  0  0  0  0  0  0  0  0  0  0
   35.5208   29.0384   35.4802 H   0  0  0  0  0  0  0  0  0  0  0  0
   34.7953   31.2796   34.3478 H   0  0  0  0  0  0  0  0  0  0  0  0
  1  6  1  0
  1  2  2  0
  2  3  1  0
  3  4  2  0
  4  8  1  0
  5  4  1  0
  6  5  2  0
  7 12  2  0
  7  8  1  0
  8  9  2  0
  9 10  1  0
 11 10  2  0
 12 11  1  0
 13  1  1  0
 13 14  2  0
 13 16  1  0
 15 13  2  0
 16 17  2  0
 17 18  1  0
 19 18  2  0
 20 16  1  0
 20 19  1  0
  2 21  1  0
  3 22  1  0
  5 23  1  0
  6 24  1  0
  7 25  1  0
  9 26  1  0
 11 27  1  0
 17 28  1  0
 18 29  1  0
 19 30  1  0
M  ISO  8  21  14  22  14  23  14  24  14  25  14  26  14  27  14  28  14
M  ISO  2  29  14  30  14
M  END
>  <minimizedAffinity>  (1) 
-5.01832628

>  <minimizedRMSD>  (1) 
1.40245521

$$$$
