
     RDKit          3D

 24 25  0  0  0  0  0  0  0  0999 V2000
   40.1950   21.6810   33.7880 C   0  0  0  0  0  0  0  0  0  0  0  0
   40.0840   22.2360   35.0680 C   0  0  0  0  0  0  0  0  0  0  0  0
   38.7900   22.4990   35.4990 C   0  0  0  0  0  0  0  0  0  0  0  0
   37.7310   22.2180   34.6910 N   0  0  0  0  0  0  0  0  0  0  0  0
   37.8930   21.6810   33.4620 C   0  0  0  0  0  0  0  0  0  0  0  0
   39.1370   21.4130   33.0110 N   0  0  0  0  0  0  0  0  0  0  0  0
   36.7860   21.3910   32.6250 N   0  0  0  0  0  0  0  0  0  0  0  0
   35.6350   20.7710   33.1860 C   0  0  0  0  0  0  0  0  0  0  0  0
   35.6860   20.3050   34.3960 N   0  0  0  0  0  0  0  0  0  0  0  0
   34.4220   20.6680   32.4040 N   0  0  0  0  0  0  0  0  0  0  0  0
   34.8370   19.8360   34.7930 H   0  0  0  0  0  0  0  0  0  0  0  0
   38.6100   23.0780   36.8240 C   0  0  0  0  0  0  0  0  0  0  0  0
   37.6230   23.9500   37.2300 C   0  0  0  0  0  0  0  0  0  0  0  0
   37.9040   24.1920   38.5760 C   0  0  0  0  0  0  0  0  0  0  0  0
   39.0170   23.4830   38.9300 N   0  0  0  0  0  0  0  0  0  0  0  0
   39.4240   22.8170   37.8510 N   0  0  0  0  0  0  0  0  0  0  0  0
   41.1994   21.4539   33.4012 H   0  0  0  0  0  0  0  0  0  0  0  0
   40.9642   22.4500   35.6921 H   0  0  0  0  0  0  0  0  0  0  0  0
   36.8148   21.6264   31.6227 H   0  0  0  0  0  0  0  0  0  0  0  0
   33.5864   20.2199   32.8063 H   0  0  0  0  0  0  0  0  0  0  0  0
   34.3941   21.0428   31.4450 H   0  0  0  0  0  0  0  0  0  0  0  0
   36.7993   24.3625   36.6289 H   0  0  0  0  0  0  0  0  0  0  0  0
   37.3238   24.8468   39.2428 H   0  0  0  0  0  0  0  0  0  0  0  0
   39.4596   23.4666   39.8599 H   0  0  0  0  0  0  0  0  0  0  0  0
  1  2  2  0
  2  3  1  0
  3 12  1  0
  4  3  2  0
  5  4  1  0
  6  5  2  0
  6  1  1  0
  7  8  1  0
  7  5  1  0
  8  9  2  0
  9 11  1  0
 10  8  1  0
 12 13  1  0
 12 16  2  0
 13 14  2  0
 14 15  1  0
 16 15  1  0
  1 17  1  0
  2 18  1  0
  7 19  1  0
 10 20  1  0
 10 21  1  0
 13 22  1  0
 14 23  1  0
 15 24  1  0
M  ISO  5  17  14  18  14  22  14  23  14  24   9
M  END
>  <minimizedAffinity>  (1) 
-4.55968523

>  <minimizedRMSD>  (1) 
3.03975868

$$$$
