
     RDKit          3D

 29 31  0  0  0  0  0  0  0  0999 V2000
   36.8810   26.0410   31.1150 C   0  0  0  0  0  0  0  0  0  0  0  0
   37.8890   25.1200   31.2170 C   0  0  0  0  0  0  0  0  0  0  0  0
   37.5610   23.7660   31.3330 C   0  0  0  0  0  0  0  0  0  0  0  0
   36.2470   23.3200   31.3480 C   0  0  0  0  0  0  0  0  0  0  0  0
   35.2080   24.2570   31.2440 C   0  0  0  0  0  0  0  0  0  0  0  0
   35.5740   25.5720   31.1320 C   0  0  0  0  0  0  0  0  0  0  0  0
   36.6410   20.9100   30.7020 C   0  0  0  0  0  0  0  0  0  0  0  0
   35.9940   21.9010   31.4710 C   0  0  0  0  0  0  0  0  0  0  0  0
   35.0520   21.4690   32.4060 C   0  0  0  0  0  0  0  0  0  0  0  0
   34.8090   20.1310   32.5270 N   0  0  0  0  0  0  0  0  0  0  0  0
   35.4490   19.2190   31.7730 C   0  0  0  0  0  0  0  0  0  0  0  0
   36.3760   19.6100   30.8490 N   0  0  0  0  0  0  0  0  0  0  0  0
   37.3160   27.7260   30.9750 S   0  0  0  0  0  0  0  0  0  0  0  0
   38.8230   27.8590   31.0770 O   0  0  0  0  0  0  0  0  0  0  0  0
   36.8460   28.2470   29.6570 O   0  0  0  0  0  0  0  0  0  0  0  0
   36.5600   28.6900   32.2230 C   0  0  0  0  0  0  0  0  0  0  0  0
   36.3350   28.2560   33.5820 C   0  0  0  0  0  0  0  0  0  0  0  0
   35.5120   29.7190   34.3640 S   0  0  0  0  0  0  0  0  0  0  0  0
   35.6160   30.6510   32.7350 C   0  0  0  0  0  0  0  0  0  0  0  0
   36.1190   29.9140   32.0390 N   0  0  0  0  0  0  0  0  0  0  0  0
   38.9412   25.4407   31.2078 H   0  0  0  0  0  0  0  0  0  0  0  0
   38.3729   23.0284   31.4153 H   0  0  0  0  0  0  0  0  0  0  0  0
   34.1516   23.9506   31.2520 H   0  0  0  0  0  0  0  0  0  0  0  0
   34.7682   26.3162   31.0489 H   0  0  0  0  0  0  0  0  0  0  0  0
   37.3886   21.2192   29.9567 H   0  0  0  0  0  0  0  0  0  0  0  0
   34.5146   22.1942   33.0347 H   0  0  0  0  0  0  0  0  0  0  0  0
   35.2240   18.1500   31.9016 H   0  0  0  0  0  0  0  0  0  0  0  0
   36.5907   27.2898   34.0415 H   0  0  0  0  0  0  0  0  0  0  0  0
   35.2700   31.6709   32.5113 H   0  0  0  0  0  0  0  0  0  0  0  0
  1  6  1  0
  1  2  2  0
  2  3  1  0
  3  4  2  0
  4  8  1  0
  5  4  1  0
  6  5  2  0
  7 12  2  0
  7  8  1  0
  8  9  2  0
  9 10  1  0
 11 10  2  0
 12 11  1  0
 13 14  2  0
 13  1  1  0
 13 16  1  0
 15 13  2  0
 16 17  2  0
 17 18  1  0
 19 18  1  0
 20 16  1  0
 20 19  2  0
  2 21  1  0
  3 22  1  0
  5 23  1  0
  6 24  1  0
  7 25  1  0
  9 26  1  0
 11 27  1  0
 17 28  1  0
 19 29  1  0
M  ISO  8  21  14  22  14  23  14  24  14  25  14  26  14  27  14  28  14
M  ISO  1  29  14
M  END
>  <minimizedAffinity>  (1) 
-4.80777788

>  <minimizedRMSD>  (1) 
1.25679004

$$$$
