
     RDKit          3D

 26 27  0  0  0  0  0  0  0  0999 V2000
   36.6110   25.5610   32.1190 C   0  0  0  0  0  0  0  0  0  0  0  0
   37.4580   24.7260   32.7950 C   0  0  0  0  0  0  0  0  0  0  0  0
   37.2700   23.3540   32.7170 C   0  0  0  0  0  0  0  0  0  0  0  0
   36.2350   22.7920   31.9660 C   0  0  0  0  0  0  0  0  0  0  0  0
   35.3690   23.6300   31.2760 C   0  0  0  0  0  0  0  0  0  0  0  0
   35.5910   24.9780   31.3790 C   0  0  0  0  0  0  0  0  0  0  0  0
   37.1930   20.4530   31.8790 C   0  0  0  0  0  0  0  0  0  0  0  0
   36.1300   21.3500   31.9600 C   0  0  0  0  0  0  0  0  0  0  0  0
   34.8320   20.7970   32.0430 C   0  0  0  0  0  0  0  0  0  0  0  0
   34.7080   19.4400   32.0390 N   0  0  0  0  0  0  0  0  0  0  0  0
   35.7660   18.6130   31.9600 C   0  0  0  0  0  0  0  0  0  0  0  0
   37.0070   19.1280   31.8800 N   0  0  0  0  0  0  0  0  0  0  0  0
   36.8720   27.2800   32.2450 S   0  0  0  0  0  0  0  0  0  0  0  0
   38.2220   27.6340   31.6640 O   0  0  0  0  0  0  0  0  0  0  0  0
   35.7820   27.9950   31.5210 O   0  0  0  0  0  0  0  0  0  0  0  0
   36.7860   27.7470   33.9620 C   0  0  0  0  0  0  0  0  0  0  0  0
   38.2816   25.1394   33.3956 H   0  0  0  0  0  0  0  0  0  0  0  0
   37.9559   22.6892   33.2624 H   0  0  0  0  0  0  0  0  0  0  0  0
   34.5409   23.2290   30.6731 H   0  0  0  0  0  0  0  0  0  0  0  0
   34.9101   25.6488   30.8346 H   0  0  0  0  0  0  0  0  0  0  0  0
   38.2179   20.8467   31.8121 H   0  0  0  0  0  0  0  0  0  0  0  0
   33.9454   21.4448   32.1091 H   0  0  0  0  0  0  0  0  0  0  0  0
   35.6179   17.5230   31.9608 H   0  0  0  0  0  0  0  0  0  0  0  0
   36.9493   26.8601   34.5918 H   0  0  0  0  0  0  0  0  0  0  0  0
   37.5611   28.4973   34.1772 H   0  0  0  0  0  0  0  0  0  0  0  0
   35.7945   28.1720   34.1772 H   0  0  0  0  0  0  0  0  0  0  0  0
  1 13  1  0
  1  2  2  0
  3  2  1  0
  4  3  2  0
  5  6  2  0
  5  4  1  0
  6  1  1  0
  7 12  2  0
  7  8  1  0
  8  4  1  0
  8  9  2  0
 10  9  1  0
 11 10  2  0
 12 11  1  0
 13 16  1  0
 14 13  2  0
 15 13  2  0
  2 17  1  0
  3 18  1  0
  5 19  1  0
  6 20  1  0
  7 21  1  0
  9 22  1  0
 11 23  1  0
 16 24  1  0
 16 25  1  0
 16 26  1  0
M  ISO  8  17  14  18  14  19  14  20  14  21  14  22  14  23  14  24   8
M  ISO  2  25   8  26   8
M  END
>  <minimizedAffinity>  (1) 
-4.19354582

>  <minimizedRMSD>  (1) 
0.437812448

$$$$
