
     RDKit          3D

 56 58  0  0  1  0  0  0  0  0999 V2000
   41.9970   72.8410   33.0330 C   0  0  0  0  0  0  0  0  0  0  0  0
   40.5850   72.8930   33.1830 N   0  0  0  0  0  0  0  0  0  0  0  0
   40.0500   72.2470   34.3400 C   0  0  0  0  0  0  0  0  0  0  0  0
   38.5670   72.4160   34.0910 C   0  0  0  0  0  0  0  0  0  0  0  0
   38.4400   72.9260   32.6420 C   0  0  0  0  0  0  0  0  0  0  0  0
   39.7850   72.4410   32.1020 C   0  0  2  0  0  0  0  0  0  0  0  0
   39.5900   70.9950   31.9230 C   0  0  0  0  0  0  0  0  0  0  0  0
   40.7690   70.1210   31.6420 C   0  0  0  0  0  0  0  0  0  0  0  0
   38.6800   70.8480   30.7120 C   0  0  0  0  0  0  0  0  0  0  0  0
   42.2810   73.6400   31.9290 O   0  0  0  0  0  0  0  0  0  0  0  0
   43.3110   74.5360   31.8430 C   0  0  0  0  0  0  0  0  0  0  0  0
   43.5550   74.6480   30.6120 O   0  0  0  0  0  0  0  0  0  0  0  0
   45.0350   74.6190   33.6930 C   0  0  0  0  0  0  0  0  0  0  0  0
   43.9830   75.2130   32.9340 C   0  0  0  0  0  0  0  0  0  0  0  0
   43.5210   76.5110   33.1940 C   0  0  0  0  0  0  0  0  0  0  0  0
   44.1690   77.1360   34.2290 N   0  0  0  0  0  0  0  0  0  0  0  0
   45.1540   76.5720   34.9360 C   0  0  0  0  0  0  0  0  0  0  0  0
   45.5800   75.3330   34.6730 N   0  0  0  0  0  0  0  0  0  0  0  0
   45.8160   77.3060   36.0490 C   0  0  0  0  0  0  0  0  0  0  0  0
   45.0290   78.4800   36.5450 C   0  0  0  0  0  0  0  0  0  0  0  0
   43.8450   78.0840   37.3840 C   0  0  0  0  0  0  0  0  0  0  0  0
   44.3060   77.2320   38.5470 C   0  0  0  0  0  0  0  0  0  0  0  0
   44.9800   75.9760   38.0220 C   0  0  0  0  0  0  0  0  0  0  0  0
   46.1480   76.3680   37.1770 C   0  0  0  0  0  0  0  0  0  0  0  0
   42.4530   77.1710   32.4550 C   0  0  0  0  0  0  0  0  0  0  0  0
   42.0980   78.3960   33.0000 F   0  0  0  0  0  0  0  0  0  0  0  0
   42.9960   77.5830   31.1940 F   0  0  0  0  0  0  0  0  0  0  0  0
   41.4150   76.4110   32.0710 F   0  0  0  0  0  0  0  0  0  0  0  0
   42.4943   73.2352   33.9315 H   0  0  0  0  0  0  0  0  0  0  0  0
   42.3561   71.8104   32.8954 H   0  0  0  0  0  0  0  0  0  0  0  0
   40.3363   71.1857   34.3811 H   0  0  0  0  0  0  0  0  0  0  0  0
   40.4031   72.6570   35.2977 H   0  0  0  0  0  0  0  0  0  0  0  0
   38.0472   71.4533   34.2052 H   0  0  0  0  0  0  0  0  0  0  0  0
   38.1133   73.1161   34.8079 H   0  0  0  0  0  0  0  0  0  0  0  0
   37.5925   72.4641   32.1145 H   0  0  0  0  0  0  0  0  0  0  0  0
   38.2464   74.0034   32.5339 H   0  0  0  0  0  0  0  0  0  0  0  0
   40.2164   72.7753   31.1470 H   0  0  0  0  0  0  0  0  0  0  0  0
   39.2225   70.6520   32.9014 H   0  0  0  0  0  0  0  0  0  0  0  0
   41.2150   69.7904   32.5916 H   0  0  0  0  0  0  0  0  0  0  0  0
   40.4451   69.2431   31.0638 H   0  0  0  0  0  0  0  0  0  0  0  0
   41.5148   70.6861   31.0638 H   0  0  0  0  0  0  0  0  0  0  0  0
   37.6461   70.6810   31.0484 H   0  0  0  0  0  0  0  0  0  0  0  0
   38.7249   71.7650   30.1062 H   0  0  0  0  0  0  0  0  0  0  0  0
   39.0113   69.9917   30.1062 H   0  0  0  0  0  0  0  0  0  0  0  0
   45.3850   73.5995   33.4736 H   0  0  0  0  0  0  0  0  0  0  0  0
   46.7473   77.7197   35.6348 H   0  0  0  0  0  0  0  0  0  0  0  0
   45.6916   79.1146   37.1518 H   0  0  0  0  0  0  0  0  0  0  0  0
   44.6431   79.0126   35.6633 H   0  0  0  0  0  0  0  0  0  0  0  0
   43.3494   78.9883   37.7670 H   0  0  0  0  0  0  0  0  0  0  0  0
   43.1384   77.5083   36.7682 H   0  0  0  0  0  0  0  0  0  0  0  0
   45.0204   77.8027   39.1585 H   0  0  0  0  0  0  0  0  0  0  0  0
   43.4378   76.9514   39.1614 H   0  0  0  0  0  0  0  0  0  0  0  0
   45.3255   75.3622   38.8669 H   0  0  0  0  0  0  0  0  0  0  0  0
   44.2654   75.3940   37.4215 H   0  0  0  0  0  0  0  0  0  0  0  0
   46.5828   75.4538   36.7467 H   0  0  0  0  0  0  0  0  0  0  0  0
   46.8442   76.9067   37.8367 H   0  0  0  0  0  0  0  0  0  0  0  0
  1  2  1  0
  2  3  1  0
  4  3  1  0
  5  4  1  0
  6  5  1  0
  6  2  1  0
  7  6  1  0
  8  7  1  0
  9  7  1  0
 10  1  1  0
 11 10  1  0
 11 14  1  0
 12 11  2  0
 13 18  2  0
 14 15  2  0
 14 13  1  0
 15 16  1  0
 16 17  2  0
 17 19  1  0
 18 17  1  0
 19 20  1  0
 19 24  1  0
 20 21  1  0
 21 22  1  0
 23 22  1  0
 24 23  1  0
 25 26  1  0
 25 15  1  0
 27 25  1  0
 28 25  1  0
  1 29  1  0
  1 30  1  0
  3 31  1  0
  3 32  1  0
  4 33  1  0
  4 34  1  0
  5 35  1  0
  5 36  1  0
  6 37  1  6
  7 38  1  0
  8 39  1  0
  8 40  1  0
  8 41  1  0
  9 42  1  0
  9 43  1  0
  9 44  1  0
 13 45  1  0
 19 46  1  0
 20 47  1  0
 20 48  1  0
 21 49  1  0
 21 50  1  0
 22 51  1  0
 22 52  1  0
 23 53  1  0
 23 54  1  0
 24 55  1  0
 24 56  1  0
M  ISO  8  29   8  30   8  31  13  32  13  33  13  34  13  35  13  36  13
M  ISO  8  37  13  38   8  39   8  40   8  41   8  42   8  43   8  44   8
M  ISO  8  45  14  46  13  47  13  48  13  49  13  50  13  51  13  52  13
M  ISO  4  53  13  54  13  55  13  56  13
M  END
>  <minimizedAffinity>  (1) 
-4.05911684

>  <minimizedRMSD>  (1) 
7.01734304

$$$$
