
     RDKit          3D

 26 28  0  0  0  0  0  0  0  0999 V2000
   43.5240   31.5830   42.3510 C   0  0  0  0  0  0  0  0  0  0  0  0
   42.4310   32.2380   41.7680 C   0  0  0  0  0  0  0  0  0  0  0  0
   42.6420   33.4140   41.0860 C   0  0  0  0  0  0  0  0  0  0  0  0
   43.9060   33.9270   40.9870 N   0  0  0  0  0  0  0  0  0  0  0  0
   44.9360   33.2510   41.5720 C   0  0  0  0  0  0  0  0  0  0  0  0
   44.7590   32.0920   42.2500 N   0  0  0  0  0  0  0  0  0  0  0  0
   46.3200   33.7460   41.5050 C   0  0  0  0  0  0  0  0  0  0  0  0
   46.6670   34.9330   42.0880 C   0  0  0  0  0  0  0  0  0  0  0  0
   47.9430   35.4540   42.0630 C   0  0  0  0  0  0  0  0  0  0  0  0
   48.9410   34.7590   41.4220 C   0  0  0  0  0  0  0  0  0  0  0  0
   48.5660   33.5650   40.8420 C   0  0  0  0  0  0  0  0  0  0  0  0
   47.3080   33.0670   40.8760 N   0  0  0  0  0  0  0  0  0  0  0  0
   40.7480   31.5480   41.9040 S   0  0  0  0  0  0  0  0  0  0  0  0
   39.7210   32.3110   40.6420 C   0  0  0  0  0  0  0  0  0  0  0  0
   39.6960   31.6070   39.4150 C   0  0  0  0  0  0  0  0  0  0  0  0
   38.5480   32.6720   38.3540 S   0  0  0  0  0  0  0  0  0  0  0  0
   38.3430   33.8610   39.8180 C   0  0  0  0  0  0  0  0  0  0  0  0
   38.9750   33.4120   40.6300 N   0  0  0  0  0  0  0  0  0  0  0  0
   43.3663   30.6413   42.8972 H   0  0  0  0  0  0  0  0  0  0  0  0
   41.7956   33.9408   40.6211 H   0  0  0  0  0  0  0  0  0  0  0  0
   45.8833   35.5048   42.6065 H   0  0  0  0  0  0  0  0  0  0  0  0
   48.1604   36.4157   42.5508 H   0  0  0  0  0  0  0  0  0  0  0  0
   49.9747   35.1320   41.3746 H   0  0  0  0  0  0  0  0  0  0  0  0
   49.3377   32.9810   40.3191 H   0  0  0  0  0  0  0  0  0  0  0  0
   40.2140   30.6747   39.1457 H   0  0  0  0  0  0  0  0  0  0  0  0
   37.7417   34.7811   39.8614 H   0  0  0  0  0  0  0  0  0  0  0  0
  2 13  1  0
  2  1  2  0
  3  2  1  0
  4  3  2  0
  4  5  1  0
  5  6  2  0
  6  1  1  0
  7  5  1  0
  7  8  2  0
  9  8  1  0
 10  9  2  0
 11 12  2  0
 11 10  1  0
 12  7  1  0
 14 13  1  0
 15 14  2  0
 16 15  1  0
 16 17  1  0
 17 18  2  0
 18 14  1  0
  1 19  1  0
  3 20  1  0
  8 21  1  0
  9 22  1  0
 10 23  1  0
 11 24  1  0
 15 25  1  0
 17 26  1  0
M  ISO  8  19  14  20  14  21  14  22  14  23  14  24  14  25  14  26  14
M  END
>  <minimizedAffinity>  (1) 
-4.03118515

>  <minimizedRMSD>  (1) 
3.58953547

$$$$
