
     RDKit          3D

 17 18  0  0  0  0  0  0  0  0999 V2000
   44.5010   35.9530   44.5090 C   0  0  0  0  0  0  0  0  0  0  0  0
   45.1850   35.9370   43.2710 C   0  0  0  0  0  0  0  0  0  0  0  0
   46.1520   34.9290   43.0680 C   0  0  0  0  0  0  0  0  0  0  0  0
   46.3710   34.0300   44.0730 N   0  0  0  0  0  0  0  0  0  0  0  0
   45.6860   34.1020   45.2260 C   0  0  0  0  0  0  0  0  0  0  0  0
   44.7670   35.0380   45.4530 N   0  0  0  0  0  0  0  0  0  0  0  0
   46.0200   32.8940   46.5020 S   0  0  0  0  0  0  0  0  0  0  0  0
   47.0240   31.5690   45.7820 C   0  0  0  0  0  0  0  0  0  0  0  0
   47.5280   30.6230   46.6780 C   0  0  0  0  0  0  0  0  0  0  0  0
   48.4640   29.4850   45.5690 S   0  0  0  0  0  0  0  0  0  0  0  0
   47.9850   30.5340   44.0510 C   0  0  0  0  0  0  0  0  0  0  0  0
   47.3670   31.3410   44.5290 N   0  0  0  0  0  0  0  0  0  0  0  0
   43.7415   36.7254   44.7000 H   0  0  0  0  0  0  0  0  0  0  0  0
   44.9707   36.6845   42.4930 H   0  0  0  0  0  0  0  0  0  0  0  0
   46.7148   34.8689   42.1248 H   0  0  0  0  0  0  0  0  0  0  0  0
   47.3991   30.5703   47.7691 H   0  0  0  0  0  0  0  0  0  0  0  0
   48.2441   30.3882   42.9919 H   0  0  0  0  0  0  0  0  0  0  0  0
  1  6  2  0
  2  1  1  0
  3  2  2  0
  3  4  1  0
  4  5  2  0
  5  6  1  0
  5  7  1  0
  8  7  1  0
  8  9  2  0
 10  9  1  0
 11 12  2  0
 11 10  1  0
 12  8  1  0
  1 13  1  0
  2 14  1  0
  3 15  1  0
  9 16  1  0
 11 17  1  0
M  ISO  5  13  14  14  14  15  14  16  14  17  14
M  END
>  <minimizedAffinity>  (1) 
-3.44280195

>  <minimizedRMSD>  (1) 
0.417598158

$$$$
