
     RDKit          3D

 35 37  0  0  1  0  0  0  0  0999 V2000
   44.4910   35.3800   43.1810 C   0  0  1  0  0  0  0  0  0  0  0  0
   45.5190   34.4250   43.6450 C   0  0  0  0  0  0  0  0  0  0  0  0
   46.5580   34.0830   42.7500 C   0  0  0  0  0  0  0  0  0  0  0  0
   47.5530   33.1720   43.1680 C   0  0  0  0  0  0  0  0  0  0  0  0
   47.4400   32.6740   44.4310 N   0  0  0  0  0  0  0  0  0  0  0  0
   46.4510   33.0190   45.2400 C   0  0  0  0  0  0  0  0  0  0  0  0
   45.4880   33.8840   44.8730 N   0  0  0  0  0  0  0  0  0  0  0  0
   46.3410   32.4660   46.6090 C   0  0  0  0  0  0  0  0  0  0  0  0
   47.3270   31.5410   47.0090 C   0  0  0  0  0  0  0  0  0  0  0  0
   46.7540   31.1470   48.7490 S   0  0  0  0  0  0  0  0  0  0  0  0
   45.2960   32.3250   48.5570 C   0  0  0  0  0  0  0  0  0  0  0  0
   45.4230   32.7190   47.5230 N   0  0  0  0  0  0  0  0  0  0  0  0
   44.9510   36.7940   43.3800 C   0  0  0  0  0  0  0  0  0  0  0  0
   44.1170   35.1470   41.7220 C   0  0  0  0  0  0  0  0  0  0  0  0
   42.7470   34.7930   41.5280 N   0  0  0  0  0  0  0  0  0  0  0  0
   41.6880   35.6250   41.4900 C   0  0  0  0  0  0  0  0  0  0  0  0
   40.3960   35.1750   41.2940 C   0  0  0  0  0  0  0  0  0  0  0  0
   40.1750   33.8170   41.1310 C   0  0  0  0  0  0  0  0  0  0  0  0
   38.9980   33.3700   40.9490 O   0  0  0  0  0  0  0  0  0  0  0  0
   41.2250   32.9780   41.1660 N   0  0  0  0  0  0  0  0  0  0  0  0
   42.4660   33.4680   41.3610 C   0  0  0  0  0  0  0  0  0  0  0  0
   43.4160   32.6210   41.3840 O   0  0  0  0  0  0  0  0  0  0  0  0
   43.5902   35.2092   43.7888 H   0  0  0  0  0  0  0  0  0  0  0  0
   46.5913   34.5205   41.7413 H   0  0  0  0  0  0  0  0  0  0  0  0
   48.3802   32.8784   42.5050 H   0  0  0  0  0  0  0  0  0  0  0  0
   48.1944   31.1563   46.4525 H   0  0  0  0  0  0  0  0  0  0  0  0
   44.5103   32.5652   49.2884 H   0  0  0  0  0  0  0  0  0  0  0  0
   45.0209   37.0088   44.4566 H   0  0  0  0  0  0  0  0  0  0  0  0
   45.9388   36.9272   42.9147 H   0  0  0  0  0  0  0  0  0  0  0  0
   44.2306   37.4829   42.9147 H   0  0  0  0  0  0  0  0  0  0  0  0
   44.3195   36.0708   41.1602 H   0  0  0  0  0  0  0  0  0  0  0  0
   44.7206   34.2983   41.3679 H   0  0  0  0  0  0  0  0  0  0  0  0
   41.8582   36.7040   41.6200 H   0  0  0  0  0  0  0  0  0  0  0  0
   39.5557   35.8844   41.2678 H   0  0  0  0  0  0  0  0  0  0  0  0
   41.0820   31.9652   41.0444 H   0  0  0  0  0  0  0  0  0  0  0  0
  1 13  1  0
  1  2  1  0
  2  7  2  0
  3  4  2  0
  3  2  1  0
  4  5  1  0
  5  6  2  0
  6  8  1  0
  7  6  1  0
  8  9  2  0
  8 12  1  0
  9 10  1  0
 11 10  1  0
 12 11  2  0
 14  1  1  0
 15 14  1  0
 16 15  1  0
 17 16  2  0
 18 20  1  0
 18 17  1  0
 19 18  2  0
 20 21  1  0
 21 22  2  0
 21 15  1  0
  1 23  1  1
  3 24  1  0
  4 25  1  0
  9 26  1  0
 11 27  1  0
 13 28  1  0
 13 29  1  0
 13 30  1  0
 14 31  1  0
 14 32  1  0
 16 33  1  0
 17 34  1  0
 20 35  1  0
M  ISO  8  23   8  24  14  25  14  26  14  27  14  28   8  29   8  30   8
M  ISO  5  31   8  32   8  33  14  34  14  35   9
M  END
>  <minimizedAffinity>  (1) 
-5.49108171

>  <minimizedRMSD>  (1) 
2.08495855

$$$$
