
     RDKit          3D

 44 47  0  0  1  0  0  0  0  0999 V2000
   45.5540   33.6710   45.8420 C   0  0  0  0  0  0  0  0  0  0  0  0
   46.1980   33.4150   44.5940 C   0  0  0  0  0  0  0  0  0  0  0  0
   47.1650   32.3690   44.5820 C   0  0  0  0  0  0  0  0  0  0  0  0
   47.4340   31.6920   45.6810 N   0  0  0  0  0  0  0  0  0  0  0  0
   46.7940   31.9740   46.8510 C   0  0  0  0  0  0  0  0  0  0  0  0
   45.8520   32.9700   46.9160 N   0  0  0  0  0  0  0  0  0  0  0  0
   45.9250   34.3330   43.4700 C   0  0  2  0  0  0  0  0  0  0  0  0
   45.1550   35.4830   43.9110 C   0  0  0  0  0  0  0  0  0  0  0  0
   44.1520   36.0950   43.0280 C   0  0  0  0  0  0  0  0  0  0  0  0
   43.9420   35.5330   41.6640 C   0  0  0  0  0  0  0  0  0  0  0  0
   45.0300   34.6420   41.2600 C   0  0  0  0  0  0  0  0  0  0  0  0
   45.1080   33.5510   42.3910 C   0  0  0  0  0  0  0  0  0  0  0  0
   47.9200   31.8310   43.5010 C   0  0  0  0  0  0  0  0  0  0  0  0
   48.8910   32.4370   42.9280 N   0  0  0  0  0  0  0  0  0  0  0  0
   49.3610   31.6830   41.9760 O   0  0  0  0  0  0  0  0  0  0  0  0
   48.7380   30.5640   41.8750 C   0  0  0  0  0  0  0  0  0  0  0  0
   47.8310   30.5980   42.7970 N   0  0  0  0  0  0  0  0  0  0  0  0
   49.0430   29.5260   40.9000 C   0  0  0  0  0  0  0  0  0  0  0  0
   48.2980   29.3400   39.8870 O   0  0  0  0  0  0  0  0  0  0  0  0
   50.2560   28.6730   41.0890 C   0  0  1  0  0  0  0  0  0  0  0  0
   50.8070   27.9770   39.9360 C   0  0  0  0  0  0  0  0  0  0  0  0
   51.4930   29.2160   40.4630 C   0  0  1  0  0  0  0  0  0  0  0  0
   51.7410   30.3710   39.6220 C   0  0  0  0  0  0  0  0  0  0  0  0
   52.4550   31.4970   40.3050 C   0  0  0  0  0  0  0  0  0  0  0  0
   44.7969   34.4663   45.9075 H   0  0  0  0  0  0  0  0  0  0  0  0
   47.0357   31.3957   47.7550 H   0  0  0  0  0  0  0  0  0  0  0  0
   46.8785   34.6958   43.0586 H   0  0  0  0  0  0  0  0  0  0  0  0
   45.3241   35.8996   44.9149 H   0  0  0  0  0  0  0  0  0  0  0  0
   43.5628   36.9585   43.3703 H   0  0  0  0  0  0  0  0  0  0  0  0
   42.9988   34.9670   41.6554 H   0  0  0  0  0  0  0  0  0  0  0  0
   43.9115   36.3725   40.9538 H   0  0  0  0  0  0  0  0  0  0  0  0
   44.8071   34.1761   40.2888 H   0  0  0  0  0  0  0  0  0  0  0  0
   45.9815   35.1811   41.1411 H   0  0  0  0  0  0  0  0  0  0  0  0
   44.1093   33.2723   42.7584 H   0  0  0  0  0  0  0  0  0  0  0  0
   45.5508   32.5933   42.0799 H   0  0  0  0  0  0  0  0  0  0  0  0
   49.9581   28.3310   42.0912 H   0  0  0  0  0  0  0  0  0  0  0  0
   50.2797   28.0093   38.9712 H   0  0  0  0  0  0  0  0  0  0  0  0
   51.1216   26.9432   39.7304 H   0  0  0  0  0  0  0  0  0  0  0  0
   52.4469   29.5484   40.8983 H   0  0  0  0  0  0  0  0  0  0  0  0
   50.7723   30.7473   39.2613 H   0  0  0  0  0  0  0  0  0  0  0  0
   52.4003   30.0301   38.8102 H   0  0  0  0  0  0  0  0  0  0  0  0
   52.3765   31.3733   41.3952 H   0  0  0  0  0  0  0  0  0  0  0  0
   53.5149   31.4913   40.0107 H   0  0  0  0  0  0  0  0  0  0  0  0
   51.9979   32.4532   40.0107 H   0  0  0  0  0  0  0  0  0  0  0  0
  1  6  2  0
  2  1  1  0
  3  2  2  0
  3  4  1  0
  4  5  2  0
  5  6  1  0
  7  8  1  0
  7  2  1  0
  9  8  2  0
 10  9  1  0
 11 10  1  0
 11 12  1  0
 12  7  1  0
 13  3  1  0
 14 13  2  0
 15 14  1  0
 16 15  1  0
 16 17  2  0
 17 13  1  0
 18 20  1  0
 18 16  1  0
 19 18  2  0
 21 22  1  0
 21 20  1  0
 22 20  1  0
 23 24  1  0
 23 22  1  0
  1 25  1  0
  5 26  1  0
  7 27  1  6
  8 28  1  0
  9 29  1  0
 10 30  1  0
 10 31  1  0
 11 32  1  0
 11 33  1  0
 12 34  1  0
 12 35  1  0
 20 36  1  1
 21 37  1  0
 21 38  1  0
 22 39  1  1
 23 40  1  0
 23 41  1  0
 24 42  1  0
 24 43  1  0
 24 44  1  0
M  ISO  8  25  14  26  14  27  13  28  13  29  13  30  13  31  13  32  13
M  ISO  8  33  13  34  13  35  13  36  13  37  13  38  13  39  13  40   8
M  ISO  4  41   8  42   8  43   8  44   8
M  END
>  <minimizedAffinity>  (1) 
-3.84212756

>  <minimizedRMSD>  (1) 
2.88529992

$$$$
