
     RDKit          3D

 30 32  0  0  1  0  0  0  0  0999 V2000
   45.3180   34.0250   42.3600 N   0  0  0  0  0  0  0  0  0  0  0  0
   46.2930   34.3920   41.5760 C   0  0  0  0  0  0  0  0  0  0  0  0
   45.9480   34.1250   40.2460 C   0  0  0  0  0  0  0  0  0  0  0  0
   44.7250   33.5840   40.2730 N   0  0  0  0  0  0  0  0  0  0  0  0
   44.3240   33.5150   41.5620 C   0  0  0  0  0  0  0  0  0  0  0  0
   44.6240   35.2760   44.2630 C   0  0  0  0  0  0  0  0  0  0  0  0
   45.2300   34.0980   43.7450 C   0  0  0  0  0  0  0  0  0  0  0  0
   45.6620   33.1580   44.6710 C   0  0  0  0  0  0  0  0  0  0  0  0
   45.4890   33.4080   45.9910 N   0  0  0  0  0  0  0  0  0  0  0  0
   44.9120   34.5350   46.4360 C   0  0  0  0  0  0  0  0  0  0  0  0
   44.4820   35.4620   45.5820 N   0  0  0  0  0  0  0  0  0  0  0  0
   47.6220   35.0240   41.8170 C   0  0  2  0  0  0  0  0  0  0  0  0
   48.5420   35.2210   40.6300 C   0  0  0  0  0  0  0  0  0  0  0  0
   48.8690   34.1710   41.6340 C   0  0  1  0  0  0  0  0  0  0  0  0
   50.0880   34.4390   42.4640 C   0  0  0  0  0  0  0  0  0  0  0  0
   51.0130   33.2350   42.3550 C   0  0  0  0  0  0  0  0  0  0  0  0
   46.5616   34.3214   39.3544 H   0  0  0  0  0  0  0  0  0  0  0  0
   43.3609   33.1163   41.9134 H   0  0  0  0  0  0  0  0  0  0  0  0
   44.2652   36.0489   43.5674 H   0  0  0  0  0  0  0  0  0  0  0  0
   46.1378   32.2239   44.3376 H   0  0  0  0  0  0  0  0  0  0  0  0
   44.7930   34.6948   47.5178 H   0  0  0  0  0  0  0  0  0  0  0  0
   47.2204   35.6646   42.6160 H   0  0  0  0  0  0  0  0  0  0  0  0
   49.1628   36.1266   40.5628 H   0  0  0  0  0  0  0  0  0  0  0  0
   48.4041   35.2303   39.5387 H   0  0  0  0  0  0  0  0  0  0  0  0
   49.0388   33.0842   41.6342 H   0  0  0  0  0  0  0  0  0  0  0  0
   50.6015   35.3378   42.0918 H   0  0  0  0  0  0  0  0  0  0  0  0
   49.8035   34.6053   43.5135 H   0  0  0  0  0  0  0  0  0  0  0  0
   51.2811   32.8861   43.3632 H   0  0  0  0  0  0  0  0  0  0  0  0
   50.5010   32.4272   41.8115 H   0  0  0  0  0  0  0  0  0  0  0  0
   51.9254   33.5216   41.8115 H   0  0  0  0  0  0  0  0  0  0  0  0
  1  7  1  0
  2 12  1  0
  2  1  1  0
  3  4  1  0
  3  2  2  0
  4  5  2  0
  5  1  1  0
  6 11  2  0
  7  6  1  0
  7  8  2  0
  8  9  1  0
  9 10  2  0
 11 10  1  0
 13 14  1  0
 13 12  1  0
 14 12  1  0
 14 15  1  0
 16 15  1  0
  3 17  1  0
  5 18  1  0
  6 19  1  0
  8 20  1  0
 10 21  1  0
 12 22  1  1
 13 23  1  0
 13 24  1  0
 14 25  1  6
 15 26  1  0
 15 27  1  0
 16 28  1  0
 16 29  1  0
 16 30  1  0
M  ISO  8  17  14  18  14  19  14  20  14  21  14  22  13  23  13  24  13
M  ISO  6  25  13  26   8  27   8  28   8  29   8  30   8
M  END
>  <minimizedAffinity>  (1) 
-4.54621029

>  <minimizedRMSD>  (1) 
1.04788303

$$$$
