
     RDKit          3D

 46 50  0  0  1  0  0  0  0  0999 V2000
   46.8240   34.5380   41.3600 C   0  0  0  0  0  0  0  0  0  0  0  0
   48.1060   34.9300   40.9820 C   0  0  0  0  0  0  0  0  0  0  0  0
   48.3470   34.5730   39.7270 N   0  0  0  0  0  0  0  0  0  0  0  0
   47.2400   33.9550   39.2770 C   0  0  0  0  0  0  0  0  0  0  0  0
   46.9660   33.3890   38.0290 C   0  0  0  0  0  0  0  0  0  0  0  0
   45.7490   32.8120   37.8230 C   0  0  0  0  0  0  0  0  0  0  0  0
   44.7430   32.7430   38.7730 C   0  0  0  0  0  0  0  0  0  0  0  0
   45.0620   33.3110   39.9790 C   0  0  0  0  0  0  0  0  0  0  0  0
   46.2590   33.9100   40.2680 C   0  0  0  0  0  0  0  0  0  0  0  0
   44.7360   36.0440   44.0610 C   0  0  0  0  0  0  0  0  0  0  0  0
   45.3610   35.8650   42.8110 C   0  0  0  0  0  0  0  0  0  0  0  0
   46.1680   34.7370   42.6530 C   0  0  0  0  0  0  0  0  0  0  0  0
   46.3250   33.8590   43.6920 N   0  0  0  0  0  0  0  0  0  0  0  0
   45.6960   34.0850   44.8770 C   0  0  0  0  0  0  0  0  0  0  0  0
   44.9060   35.1690   45.0640 N   0  0  0  0  0  0  0  0  0  0  0  0
   49.0420   35.6420   41.8830 C   0  0  0  0  0  0  0  0  0  0  0  0
   49.9980   34.7050   42.5550 C   0  0  0  0  0  0  0  0  0  0  0  0
   50.0790   33.3480   41.9130 C   0  0  1  0  0  0  0  0  0  0  0  0
   50.9610   32.2770   42.3870 C   0  0  0  0  0  0  0  0  0  0  0  0
   49.5350   32.2040   42.8020 C   0  0  2  0  0  0  0  0  0  0  0  0
   48.7770   31.2410   42.2080 O   0  0  0  0  0  0  0  0  0  0  0  0
   47.5240   30.7770   42.4670 C   0  0  0  0  0  0  0  0  0  0  0  0
   47.2840   30.5480   43.8270 C   0  0  0  0  0  0  0  0  0  0  0  0
   46.0510   30.0720   44.2590 C   0  0  0  0  0  0  0  0  0  0  0  0
   45.0770   29.8330   43.3350 N   0  0  0  0  0  0  0  0  0  0  0  0
   45.3190   30.0600   42.0150 C   0  0  0  0  0  0  0  0  0  0  0  0
   46.5080   30.5150   41.6170 N   0  0  0  0  0  0  0  0  0  0  0  0
   49.2156   34.7376   39.1984 H   0  0  0  0  0  0  0  0  0  0  0  0
   47.7192   33.4089   37.2275 H   0  0  0  0  0  0  0  0  0  0  0  0
   45.5518   32.3708   36.8348 H   0  0  0  0  0  0  0  0  0  0  0  0
   43.7690   32.2715   38.5758 H   0  0  0  0  0  0  0  0  0  0  0  0
   44.3008   33.2837   40.7727 H   0  0  0  0  0  0  0  0  0  0  0  0
   44.0930   36.9225   44.2185 H   0  0  0  0  0  0  0  0  0  0  0  0
   45.2187   36.5855   41.9921 H   0  0  0  0  0  0  0  0  0  0  0  0
   45.8323   33.3707   45.7024 H   0  0  0  0  0  0  0  0  0  0  0  0
   49.6159   36.3720   41.2934 H   0  0  0  0  0  0  0  0  0  0  0  0
   48.4485   36.1391   42.6644 H   0  0  0  0  0  0  0  0  0  0  0  0
   50.9999   35.1585   42.5324 H   0  0  0  0  0  0  0  0  0  0  0  0
   49.6252   34.5506   43.5783 H   0  0  0  0  0  0  0  0  0  0  0  0
   49.9306   33.7769   40.9110 H   0  0  0  0  0  0  0  0  0  0  0  0
   51.3537   31.5421   41.6689 H   0  0  0  0  0  0  0  0  0  0  0  0
   51.9129   32.2665   42.9382 H   0  0  0  0  0  0  0  0  0  0  0  0
   48.9807   32.1443   43.7502 H   0  0  0  0  0  0  0  0  0  0  0  0
   48.0787   30.7466   44.5612 H   0  0  0  0  0  0  0  0  0  0  0  0
   45.8644   29.8913   45.3279 H   0  0  0  0  0  0  0  0  0  0  0  0
   44.5303   29.8673   41.2729 H   0  0  0  0  0  0  0  0  0  0  0  0
  1 12  1  0
  2  1  2  0
  2 16  1  0
  3  2  1  0
  4  3  1  0
  4  9  2  0
  5  4  1  0
  6  5  2  0
  6  7  1  0
  7  8  2  0
  8  9  1  0
  9  1  1  0
 10 15  2  0
 11 10  1  0
 12 11  2  0
 12 13  1  0
 13 14  2  0
 14 15  1  0
 16 17  1  0
 18 19  1  0
 18 17  1  0
 18 20  1  0
 19 20  1  0
 21 22  1  0
 21 20  1  0
 22 23  2  0
 23 24  1  0
 25 24  2  0
 26 25  1  0
 27 26  2  0
 27 22  1  0
  3 28  1  0
  5 29  1  0
  6 30  1  0
  7 31  1  0
  8 32  1  0
 10 33  1  0
 11 34  1  0
 14 35  1  0
 16 36  1  0
 16 37  1  0
 17 38  1  0
 17 39  1  0
 18 40  1  6
 19 41  1  0
 19 42  1  0
 20 43  1  1
 23 44  1  0
 24 45  1  0
 26 46  1  0
M  ISO  8  28   9  29  14  30  14  31  14  32  14  33  14  34  14  35  14
M  ISO  8  36   8  37   8  38   8  39   8  40  13  41  13  42  13  43  13
M  ISO  3  44  14  45  14  46  14
M  END
>  <minimizedAffinity>  (1) 
-5.53768444

>  <minimizedRMSD>  (1) 
0.847245634

$$$$
