
     RDKit          3D

 45 48  0  0  1  0  0  0  0  0999 V2000
   46.7640   33.3770   45.0980 C   0  0  0  0  0  0  0  0  0  0  0  0
   45.7650   34.1940   44.3620 C   0  0  0  0  0  0  0  0  0  0  0  0
   44.9780   35.0660   45.0520 C   0  0  0  0  0  0  0  0  0  0  0  0
   44.1470   35.6990   44.1640 C   0  0  0  0  0  0  0  0  0  0  0  0
   44.4960   35.1520   42.9540 N   0  0  0  0  0  0  0  0  0  0  0  0
   45.4540   34.2590   43.0600 N   0  0  0  0  0  0  0  0  0  0  0  0
   44.4120   34.6920   40.5940 N   0  0  0  0  0  0  0  0  0  0  0  0
   43.2730   34.2310   39.8260 C   0  0  0  0  0  0  0  0  0  0  0  0
   42.2330   33.9970   40.9170 C   0  0  0  0  0  0  0  0  0  0  0  0
   42.3900   35.2780   41.7150 C   0  0  0  0  0  0  0  0  0  0  0  0
   43.8890   35.4960   41.6600 C   0  0  1  0  0  0  0  0  0  0  0  0
   46.2290   32.0240   45.2740 C   0  0  2  0  0  0  0  0  0  0  0  0
   45.8180   32.2210   48.9310 C   0  0  0  0  0  0  0  0  0  0  0  0
   45.3220   30.9000   49.2370 C   0  0  0  0  0  0  0  0  0  0  0  0
   45.1500   29.9740   48.1610 C   0  0  0  0  0  0  0  0  0  0  0  0
   45.4680   30.3990   46.8990 N   0  0  0  0  0  0  0  0  0  0  0  0
   45.9250   31.6340   46.6630 C   0  0  0  0  0  0  0  0  0  0  0  0
   46.0990   32.5400   47.6730 N   0  0  0  0  0  0  0  0  0  0  0  0
   47.1350   30.9360   44.6560 C   0  0  0  0  0  0  0  0  0  0  0  0
   47.3990   31.1290   43.2760 N   0  0  0  0  0  0  0  0  0  0  0  0
   48.6300   31.4830   42.8260 C   0  0  0  0  0  0  0  0  0  0  0  0
   48.6160   31.6140   41.4530 C   0  0  0  0  0  0  0  0  0  0  0  0
   47.3580   31.3380   41.0440 N   0  0  0  0  0  0  0  0  0  0  0  0
   46.6670   31.0560   42.1540 C   0  0  0  0  0  0  0  0  0  0  0  0
   46.9585   33.8287   46.0819 H   0  0  0  0  0  0  0  0  0  0  0  0
   47.7052   33.3362   44.5302 H   0  0  0  0  0  0  0  0  0  0  0  0
   45.0047   35.2340   46.1388 H   0  0  0  0  0  0  0  0  0  0  0  0
   43.3830   36.4628   44.3714 H   0  0  0  0  0  0  0  0  0  0  0  0
   45.0378   35.2538   39.9993 H   0  0  0  0  0  0  0  0  0  0  0  0
   42.9370   34.9956   39.1101 H   0  0  0  0  0  0  0  0  0  0  0  0
   43.4809   33.3425   39.2117 H   0  0  0  0  0  0  0  0  0  0  0  0
   41.2199   33.8981   40.5000 H   0  0  0  0  0  0  0  0  0  0  0  0
   42.3712   33.0721   41.4962 H   0  0  0  0  0  0  0  0  0  0  0  0
   41.8466   36.1114   41.2457 H   0  0  0  0  0  0  0  0  0  0  0  0
   41.9857   35.2189   42.7363 H   0  0  0  0  0  0  0  0  0  0  0  0
   44.1268   36.5522   41.4652 H   0  0  0  0  0  0  0  0  0  0  0  0
   45.2731   32.0825   44.7329 H   0  0  0  0  0  0  0  0  0  0  0  0
   45.9621   32.9582   49.7346 H   0  0  0  0  0  0  0  0  0  0  0  0
   45.0825   30.6132   50.2716 H   0  0  0  0  0  0  0  0  0  0  0  0
   44.7752   28.9556   48.3410 H   0  0  0  0  0  0  0  0  0  0  0  0
   48.0934   30.9346   45.1959 H   0  0  0  0  0  0  0  0  0  0  0  0
   46.5986   29.9802   44.7497 H   0  0  0  0  0  0  0  0  0  0  0  0
   49.5115   31.6424   43.4644 H   0  0  0  0  0  0  0  0  0  0  0  0
   49.4668   31.8905   40.8129 H   0  0  0  0  0  0  0  0  0  0  0  0
   45.5998   30.7895   42.1475 H   0  0  0  0  0  0  0  0  0  0  0  0
  1 12  1  0
  2  3  1  0
  2  1  1  0
  4  3  2  0
  5  6  1  0
  5  4  1  0
  6  2  2  0
  7 11  1  0
  8  7  1  0
  8  9  1  0
  9 10  1  0
 11 10  1  0
 11  5  1  0
 12 17  1  0
 13 14  2  0
 15 14  1  0
 16 15  2  0
 17 16  1  0
 17 18  2  0
 18 13  1  0
 19 12  1  0
 20 19  1  0
 21 20  1  0
 22 21  2  0
 23 22  1  0
 23 24  2  0
 24 20  1  0
  1 25  1  0
  1 26  1  0
  3 27  1  0
  4 28  1  0
  7 29  1  0
  8 30  1  0
  8 31  1  0
  9 32  1  0
  9 33  1  0
 10 34  1  0
 10 35  1  0
 11 36  1  6
 12 37  1  6
 13 38  1  0
 14 39  1  0
 15 40  1  0
 19 41  1  0
 19 42  1  0
 21 43  1  0
 22 44  1  0
 24 45  1  0
M  ISO  8  25   8  26   8  27  14  28  14  29   5  30  13  31  13  32  13
M  ISO  8  33  13  34  13  35  13  36  13  37   8  38  14  39  14  40  14
M  ISO  5  41   8  42   8  43  14  44  14  45  14
M  END
>  <minimizedAffinity>  (1) 
-5.08418989

>  <minimizedRMSD>  (1) 
0.578776479

$$$$
