
     RDKit          3D

 20 20  0  0  0  0  0  0  0  0999 V2000
   44.7240   35.3650   44.9790 C   0  0  0  0  0  0  0  0  0  0  0  0
   45.6150   34.8610   44.0320 C   0  0  0  0  0  0  0  0  0  0  0  0
   46.3380   33.7570   44.3800 C   0  0  0  0  0  0  0  0  0  0  0  0
   46.1320   33.2280   45.6340 N   0  0  0  0  0  0  0  0  0  0  0  0
   45.2790   33.7220   46.5220 C   0  0  0  0  0  0  0  0  0  0  0  0
   44.5730   34.8000   46.1810 N   0  0  0  0  0  0  0  0  0  0  0  0
   45.7490   35.4930   42.7140 C   0  0  0  0  0  0  0  0  0  0  0  0
   44.9830   36.6690   42.7330 F   0  0  0  0  0  0  0  0  0  0  0  0
   45.1550   34.7370   41.7180 F   0  0  0  0  0  0  0  0  0  0  0  0
   47.0320   35.7850   42.3910 F   0  0  0  0  0  0  0  0  0  0  0  0
   47.3400   33.0720   43.5580 C   0  0  0  0  0  0  0  0  0  0  0  0
   46.9230   32.7580   42.2780 F   0  0  0  0  0  0  0  0  0  0  0  0
   47.8200   31.9200   44.1860 F   0  0  0  0  0  0  0  0  0  0  0  0
   48.4680   33.8530   43.3830 F   0  0  0  0  0  0  0  0  0  0  0  0
   45.0860   33.1760   47.7770 O   0  0  0  0  0  0  0  0  0  0  0  0
   45.8680   32.1670   48.3300 C   0  0  0  0  0  0  0  0  0  0  0  0
   47.2010   32.5160   48.3930 F   0  0  0  0  0  0  0  0  0  0  0  0
   45.6700   30.9630   47.6950 F   0  0  0  0  0  0  0  0  0  0  0  0
   45.4780   32.0450   49.6750 F   0  0  0  0  0  0  0  0  0  0  0  0
   44.1272   36.2547   44.7292 H   0  0  0  0  0  0  0  0  0  0  0  0
  1  6  2  0
  2  3  2  0
  2  1  1  0
  3  4  1  0
  4  5  2  0
  5 15  1  0
  6  5  1  0
  7  8  1  0
  7  2  1  0
  9  7  1  0
 10  7  1  0
 11 13  1  0
 11  3  1  0
 12 11  1  0
 14 11  1  0
 15 16  1  0
 16 17  1  0
 16 19  1  0
 18 16  1  0
  1 20  1  0
M  ISO  1  20  14
M  END
>  <minimizedAffinity>  (1) 
-5.30928516

>  <minimizedRMSD>  (1) 
0.430747002

$$$$
