
     RDKit          3D

 45 47  0  0  1  0  0  0  0  0999 V2000
   46.8820   34.3440   40.3290 C   0  0  1  0  0  0  0  0  0  0  0  0
   48.1320   34.0280   39.4900 C   0  0  0  0  0  0  0  0  0  0  0  0
   47.5900   33.7100   38.0980 C   0  0  0  0  0  0  0  0  0  0  0  0
   46.8680   32.3980   38.1600 C   0  0  0  0  0  0  0  0  0  0  0  0
   46.5910   32.0050   39.5740 C   0  0  0  0  0  0  0  0  0  0  0  0
   46.0150   33.1840   40.3930 C   0  0  2  0  0  0  0  0  0  0  0  0
   47.3300   34.7530   41.7500 C   0  0  0  0  0  0  0  0  0  0  0  0
   46.7820   33.7530   42.6700 C   0  0  0  0  0  0  0  0  0  0  0  0
   45.9630   33.6720   44.9320 C   0  0  0  0  0  0  0  0  0  0  0  0
   46.0160   34.3730   43.7270 C   0  0  0  0  0  0  0  0  0  0  0  0
   45.3470   35.5290   43.5410 C   0  0  0  0  0  0  0  0  0  0  0  0
   44.6050   35.9990   44.5780 N   0  0  0  0  0  0  0  0  0  0  0  0
   44.5300   35.3450   45.7600 C   0  0  0  0  0  0  0  0  0  0  0  0
   45.2060   34.1850   45.9390 N   0  0  0  0  0  0  0  0  0  0  0  0
   44.6920   33.4250   39.7380 C   0  0  0  0  0  0  0  0  0  0  0  0
   43.8600   34.4550   40.5050 C   0  0  0  0  0  0  0  0  0  0  0  0
   42.5600   34.5130   39.7880 N   0  0  0  0  0  0  0  0  0  0  0  0
   42.2710   33.7660   38.6810 C   0  0  0  0  0  0  0  0  0  0  0  0
   41.0070   34.0590   38.2750 C   0  0  0  0  0  0  0  0  0  0  0  0
   40.5340   34.9700   39.1240 N   0  0  0  0  0  0  0  0  0  0  0  0
   41.4680   35.2530   40.0470 C   0  0  0  0  0  0  0  0  0  0  0  0
   46.3210   35.1679   39.8637 H   0  0  0  0  0  0  0  0  0  0  0  0
   48.8064   34.8963   39.4553 H   0  0  0  0  0  0  0  0  0  0  0  0
   48.7177   33.1970   39.9100 H   0  0  0  0  0  0  0  0  0  0  0  0
   48.4221   33.6427   37.3817 H   0  0  0  0  0  0  0  0  0  0  0  0
   46.9035   34.5041   37.7691 H   0  0  0  0  0  0  0  0  0  0  0  0
   45.9149   32.4861   37.6180 H   0  0  0  0  0  0  0  0  0  0  0  0
   47.5033   31.6267   37.7002 H   0  0  0  0  0  0  0  0  0  0  0  0
   45.8645   31.1791   39.5787 H   0  0  0  0  0  0  0  0  0  0  0  0
   47.5404   31.6974   40.0367 H   0  0  0  0  0  0  0  0  0  0  0  0
   45.9236   32.9723   41.4686 H   0  0  0  0  0  0  0  0  0  0  0  0
   48.4282   34.7638   41.8126 H   0  0  0  0  0  0  0  0  0  0  0  0
   46.9703   35.7614   42.0027 H   0  0  0  0  0  0  0  0  0  0  0  0
   46.1285   33.0696   42.1079 H   0  0  0  0  0  0  0  0  0  0  0  0
   47.6202   33.2052   43.1253 H   0  0  0  0  0  0  0  0  0  0  0  0
   46.5176   32.7312   45.0640 H   0  0  0  0  0  0  0  0  0  0  0  0
   45.3999   36.0713   42.5855 H   0  0  0  0  0  0  0  0  0  0  0  0
   43.9189   35.7561   46.5771 H   0  0  0  0  0  0  0  0  0  0  0  0
   44.8622   33.7941   38.7159 H   0  0  0  0  0  0  0  0  0  0  0  0
   44.1368   32.4754   39.7269 H   0  0  0  0  0  0  0  0  0  0  0  0
   43.7126   34.1340   41.5467 H   0  0  0  0  0  0  0  0  0  0  0  0
   44.3536   35.4373   40.5440 H   0  0  0  0  0  0  0  0  0  0  0  0
   42.9488   33.0466   38.1982 H   0  0  0  0  0  0  0  0  0  0  0  0
   40.4776   33.6275   37.4127 H   0  0  0  0  0  0  0  0  0  0  0  0
   41.3579   35.9691   40.8747 H   0  0  0  0  0  0  0  0  0  0  0  0
  1  6  1  0
  1  7  1  0
  2  1  1  0
  3  4  1  0
  3  2  1  0
  4  5  1  0
  5  6  1  0
  7  8  1  0
  8 10  1  0
  9 14  2  0
 10  9  1  0
 11 10  2  0
 11 12  1  0
 12 13  2  0
 13 14  1  0
 15  6  1  0
 15 16  1  0
 17 21  1  0
 17 16  1  0
 18 17  1  0
 19 18  2  0
 19 20  1  0
 20 21  2  0
  1 22  1  6
  2 23  1  0
  2 24  1  0
  3 25  1  0
  3 26  1  0
  4 27  1  0
  4 28  1  0
  5 29  1  0
  5 30  1  0
  6 31  1  1
  7 32  1  0
  7 33  1  0
  8 34  1  0
  8 35  1  0
  9 36  1  0
 11 37  1  0
 13 38  1  0
 15 39  1  0
 15 40  1  0
 16 41  1  0
 16 42  1  0
 18 43  1  0
 19 44  1  0
 21 45  1  0
M  ISO  8  22  13  23  13  24  13  25  13  26  13  27  13  28  13  29  13
M  ISO  8  30  13  31  13  32   8  33   8  34   8  35   8  36  14  37  14
M  ISO  8  38  14  39   8  40   8  41   8  42   8  43  14  44  14  45  14
M  END
>  <minimizedAffinity>  (1) 
-4.75432301

>  <minimizedRMSD>  (1) 
1.79827309

$$$$
