
     RDKit          3D

 19 19  0  0  0  0  0  0  0  0999 V2000
   47.4000   34.3840   42.4300 C   0  0  0  0  0  0  0  0  0  0  0  0
   46.3530   35.2540   42.8450 C   0  0  0  0  0  0  0  0  0  0  0  0
   45.6490   34.9720   44.0080 C   0  0  0  0  0  0  0  0  0  0  0  0
   45.9910   33.8710   44.7040 N   0  0  0  0  0  0  0  0  0  0  0  0
   47.0020   33.0450   44.2880 C   0  0  0  0  0  0  0  0  0  0  0  0
   47.6880   33.3190   43.1590 N   0  0  0  0  0  0  0  0  0  0  0  0
   44.5550   35.8280   44.4950 C   0  0  0  0  0  0  0  0  0  0  0  0
   44.3410   35.4540   45.8250 F   0  0  0  0  0  0  0  0  0  0  0  0
   44.9180   37.1600   44.5160 F   0  0  0  0  0  0  0  0  0  0  0  0
   43.4280   35.6600   43.7210 F   0  0  0  0  0  0  0  0  0  0  0  0
   48.0330   34.8300   41.1810 C   0  0  0  0  0  0  0  0  0  0  0  0
   49.0540   35.9020   41.4230 C   0  0  0  0  0  0  0  0  0  0  0  0
   46.1032   36.1438   42.2484 H   0  0  0  0  0  0  0  0  0  0  0  0
   47.2561   32.1524   44.8785 H   0  0  0  0  0  0  0  0  0  0  0  0
   47.2560   35.2241   40.5095 H   0  0  0  0  0  0  0  0  0  0  0  0
   48.5453   33.9667   40.7313 H   0  0  0  0  0  0  0  0  0  0  0  0
   49.1882   36.0429   42.5057 H   0  0  0  0  0  0  0  0  0  0  0  0
   50.0116   35.6052   40.9704 H   0  0  0  0  0  0  0  0  0  0  0  0
   48.7109   36.8440   40.9704 H   0  0  0  0  0  0  0  0  0  0  0  0
  1  2  2  0
  1  6  1  0
  2  3  1  0
  3  7  1  0
  3  4  2  0
  5  4  1  0
  6  5  2  0
  7  9  1  0
  7  8  1  0
 10  7  1  0
 11 12  1  0
 11  1  1  0
  2 13  1  0
  5 14  1  0
 11 15  1  0
 11 16  1  0
 12 17  1  0
 12 18  1  0
 12 19  1  0
M  ISO  7  13  14  14  14  15   8  16   8  17   8  18   8  19   8
M  END
>  <minimizedAffinity>  (1) 
-4.53075123

>  <minimizedRMSD>  (1) 
0.836112022

$$$$
