
     RDKit          3D

 34 37  0  0  0  0  0  0  0  0999 V2000
   43.7250   35.5560   42.5130 C   0  0  0  0  0  0  0  0  0  0  0  0
   43.0640   35.0790   41.3500 C   0  0  0  0  0  0  0  0  0  0  0  0
   43.7840   34.3770   40.4090 C   0  0  0  0  0  0  0  0  0  0  0  0
   45.1080   34.1670   40.6320 N   0  0  0  0  0  0  0  0  0  0  0  0
   45.7170   34.6340   41.7520 C   0  0  0  0  0  0  0  0  0  0  0  0
   45.0390   35.3210   42.6850 N   0  0  0  0  0  0  0  0  0  0  0  0
   47.1480   34.4130   42.0010 C   0  0  0  0  0  0  0  0  0  0  0  0
   48.0360   35.4540   41.7740 C   0  0  0  0  0  0  0  0  0  0  0  0
   49.3990   35.3070   41.9900 C   0  0  0  0  0  0  0  0  0  0  0  0
   49.8900   34.0890   42.4440 C   0  0  0  0  0  0  0  0  0  0  0  0
   48.9640   33.0790   42.6560 C   0  0  0  0  0  0  0  0  0  0  0  0
   47.6460   33.2440   42.4400 N   0  0  0  0  0  0  0  0  0  0  0  0
   41.2910   35.4280   41.1680 S   0  0  0  0  0  0  0  0  0  0  0  0
   40.4100   33.8950   40.9550 C   0  0  0  0  0  0  0  0  0  0  0  0
   40.4230   32.9460   41.9190 N   0  0  0  0  0  0  0  0  0  0  0  0
   39.7530   31.7770   41.7600 C   0  0  0  0  0  0  0  0  0  0  0  0
   39.0620   31.5520   40.6270 N   0  0  0  0  0  0  0  0  0  0  0  0
   39.0550   32.4930   39.6830 C   0  0  0  0  0  0  0  0  0  0  0  0
   38.3330   32.2260   38.5280 C   0  0  0  0  0  0  0  0  0  0  0  0
   38.2520   33.1240   37.4830 C   0  0  0  0  0  0  0  0  0  0  0  0
   38.9350   34.3140   37.6450 C   0  0  0  0  0  0  0  0  0  0  0  0
   39.6810   34.6520   38.7760 C   0  0  0  0  0  0  0  0  0  0  0  0
   39.7190   33.7210   39.7740 C   0  0  0  0  0  0  0  0  0  0  0  0
   43.1628   36.1177   43.2735 H   0  0  0  0  0  0  0  0  0  0  0  0
   43.2989   33.9953   39.4985 H   0  0  0  0  0  0  0  0  0  0  0  0
   47.6506   36.4194   41.4141 H   0  0  0  0  0  0  0  0  0  0  0  0
   50.0843   36.1470   41.8035 H   0  0  0  0  0  0  0  0  0  0  0  0
   50.9635   33.9333   42.6267 H   0  0  0  0  0  0  0  0  0  0  0  0
   49.3214   32.1028   43.0155 H   0  0  0  0  0  0  0  0  0  0  0  0
   39.7744   31.0160   42.5540 H   0  0  0  0  0  0  0  0  0  0  0  0
   37.8064   31.2640   38.4424 H   0  0  0  0  0  0  0  0  0  0  0  0
   37.6758   32.9045   36.5720 H   0  0  0  0  0  0  0  0  0  0  0  0
   38.8878   35.0465   36.8257 H   0  0  0  0  0  0  0  0  0  0  0  0
   40.2082   35.6139   38.8582 H   0  0  0  0  0  0  0  0  0  0  0  0
  1  6  2  0
  2  1  1  0
  3  4  1  0
  3  2  2  0
  4  5  2  0
  5  7  1  0
  5  6  1  0
  7 12  2  0
  8  9  2  0
  8  7  1  0
  9 10  1  0
 10 11  2  0
 12 11  1  0
 13  2  1  0
 14 13  1  0
 14 15  2  0
 16 15  1  0
 17 16  2  0
 18 23  2  0
 18 17  1  0
 19 18  1  0
 20 21  1  0
 20 19  2  0
 21 22  2  0
 22 23  1  0
 23 14  1  0
  1 24  1  0
  3 25  1  0
  8 26  1  0
  9 27  1  0
 10 28  1  0
 11 29  1  0
 16 30  1  0
 19 31  1  0
 20 32  1  0
 21 33  1  0
 22 34  1  0
M  ISO  8  24  14  25  14  26  14  27  14  28  14  29  14  30  14  31  14
M  ISO  3  32  14  33  14  34  14
M  END
>  <minimizedAffinity>  (1) 
-6.75941801

>  <minimizedRMSD>  (1) 
1.57987309

$$$$
