
     RDKit          3D

 20 20  0  0  0  0  0  0  0  0999 V2000
   44.7700   34.9700   45.5600 C   0  0  0  0  0  0  0  0  0  0  0  0
   45.4360   34.9110   44.3090 C   0  0  0  0  0  0  0  0  0  0  0  0
   46.3720   33.8870   44.0970 C   0  0  0  0  0  0  0  0  0  0  0  0
   46.6000   32.9830   45.1160 N   0  0  0  0  0  0  0  0  0  0  0  0
   45.9340   33.0930   46.2860 C   0  0  0  0  0  0  0  0  0  0  0  0
   45.0380   34.0540   46.5200 N   0  0  0  0  0  0  0  0  0  0  0  0
   46.2990   32.0340   47.2850 C   0  0  0  0  0  0  0  0  0  0  0  0
   47.5590   32.3910   48.0430 C   0  0  0  0  0  0  0  0  0  0  0  0
   45.1270   31.8570   48.2540 C   0  0  0  0  0  0  0  0  0  0  0  0
   45.0910   36.1190   43.0270 S   0  0  0  0  0  0  0  0  0  0  0  0
   44.0325   35.7635   45.7509 H   0  0  0  0  0  0  0  0  0  0  0  0
   46.9114   33.8063   43.1417 H   0  0  0  0  0  0  0  0  0  0  0  0
   46.4995   31.0931   46.7515 H   0  0  0  0  0  0  0  0  0  0  0  0
   47.3645   32.3359   49.1243 H   0  0  0  0  0  0  0  0  0  0  0  0
   48.3591   31.6842   47.7779 H   0  0  0  0  0  0  0  0  0  0  0  0
   47.8694   33.4124   47.7779 H   0  0  0  0  0  0  0  0  0  0  0  0
   45.4954   31.9126   49.2890 H   0  0  0  0  0  0  0  0  0  0  0  0
   44.3877   32.6537   48.0846 H   0  0  0  0  0  0  0  0  0  0  0  0
   44.6559   30.8775   48.0846 H   0  0  0  0  0  0  0  0  0  0  0  0
   44.7499   37.3134   43.6049 H   0  0  0  0  0  0  0  0  0  0  0  0
  1  6  2  0
  2  1  1  0
  3  2  2  0
  3  4  1  0
  4  5  2  0
  5  6  1  0
  5  7  1  0
  7  8  1  0
  7  9  1  0
 10  2  1  0
  1 11  1  0
  3 12  1  0
  7 13  1  0
  8 14  1  0
  8 15  1  0
  8 16  1  0
  9 17  1  0
  9 18  1  0
  9 19  1  0
 10 20  1  0
M  ISO  8  11  14  12  14  13   8  14   8  15   8  16   8  17   8  18   8
M  ISO  2  19   8  20  11
M  END
>  <minimizedAffinity>  (1) 
-3.41396284

>  <minimizedRMSD>  (1) 
1.75320077

$$$$
