
     RDKit          3D

 39 41  0  0  0  0  0  0  0  0999 V2000
   43.4800   35.2770   41.3470 C   0  0  0  0  0  0  0  0  0  0  0  0
   42.9030   34.4680   40.3570 C   0  0  0  0  0  0  0  0  0  0  0  0
   43.0450   33.1030   40.5090 C   0  0  0  0  0  0  0  0  0  0  0  0
   43.7280   32.6050   41.5950 N   0  0  0  0  0  0  0  0  0  0  0  0
   44.2560   33.4270   42.5040 C   0  0  0  0  0  0  0  0  0  0  0  0
   44.1330   34.7510   42.3820 N   0  0  0  0  0  0  0  0  0  0  0  0
   42.4600   32.2650   39.5040 N   0  0  0  0  0  0  0  0  0  0  0  0
   43.1480   32.0850   38.3430 C   0  0  0  0  0  0  0  0  0  0  0  0
   42.5680   31.2800   37.3990 C   0  0  0  0  0  0  0  0  0  0  0  0
   41.3350   30.6590   37.5840 C   0  0  0  0  0  0  0  0  0  0  0  0
   40.8800   29.9420   36.6730 O   0  0  0  0  0  0  0  0  0  0  0  0
   40.6890   30.8690   38.7590 N   0  0  0  0  0  0  0  0  0  0  0  0
   41.2610   31.6570   39.6780 C   0  0  0  0  0  0  0  0  0  0  0  0
   40.6320   31.8230   40.7440 O   0  0  0  0  0  0  0  0  0  0  0  0
   43.3340   31.0860   36.1180 C   0  0  0  0  0  0  0  0  0  0  0  0
   42.2380   35.1070   39.3090 N   0  0  0  0  0  0  0  0  0  0  0  0
   42.8350   35.3730   38.1910 N   0  0  0  0  0  0  0  0  0  0  0  0
   41.9700   35.9930   37.3450 C   0  0  0  0  0  0  0  0  0  0  0  0
   40.7710   36.0840   38.0580 C   0  0  0  0  0  0  0  0  0  0  0  0
   40.9710   35.5110   39.3080 C   0  0  0  0  0  0  0  0  0  0  0  0
   39.9330   35.4250   40.3330 C   0  0  0  0  0  0  0  0  0  0  0  0
   40.4890   34.8840   41.6290 C   0  0  0  0  0  0  0  0  0  0  0  0
   38.8400   34.4300   39.9190 C   0  0  0  0  0  0  0  0  0  0  0  0
   43.3912   36.3705   41.2669 H   0  0  0  0  0  0  0  0  0  0  0  0
   44.7992   33.0088   43.3643 H   0  0  0  0  0  0  0  0  0  0  0  0
   44.1235   32.5635   38.1713 H   0  0  0  0  0  0  0  0  0  0  0  0
   39.7751   30.4300   38.9405 H   0  0  0  0  0  0  0  0  0  0  0  0
   44.3763   30.8220   36.3504 H   0  0  0  0  0  0  0  0  0  0  0  0
   42.8723   30.2764   35.5337 H   0  0  0  0  0  0  0  0  0  0  0  0
   43.3133   32.0177   35.5337 H   0  0  0  0  0  0  0  0  0  0  0  0
   42.1700   36.3460   36.3226 H   0  0  0  0  0  0  0  0  0  0  0  0
   39.8341   36.5306   37.6936 H   0  0  0  0  0  0  0  0  0  0  0  0
   39.5388   36.4447   40.4547 H   0  0  0  0  0  0  0  0  0  0  0  0
   39.9862   35.3732   42.4763 H   0  0  0  0  0  0  0  0  0  0  0  0
   40.3165   33.7987   41.6773 H   0  0  0  0  0  0  0  0  0  0  0  0
   41.5692   35.0861   41.6773 H   0  0  0  0  0  0  0  0  0  0  0  0
   38.3721   34.0040   40.8188 H   0  0  0  0  0  0  0  0  0  0  0  0
   38.0777   34.9506   39.3208 H   0  0  0  0  0  0  0  0  0  0  0  0
   39.2869   33.6223   39.3208 H   0  0  0  0  0  0  0  0  0  0  0  0
  1  6  2  0
  2  3  2  0
  2  1  1  0
  3  4  1  0
  4  5  2  0
  6  5  1  0
  7 13  1  0
  7  3  1  0
  8  7  1  0
  9 10  1  0
  9  8  2  0
 10 12  1  0
 11 10  2  0
 12 13  1  0
 13 14  2  0
 15  9  1  0
 16  2  1  0
 17 16  1  0
 18 19  1  0
 18 17  2  0
 19 20  2  0
 20 16  1  0
 20 21  1  0
 21 22  1  0
 23 21  1  0
  1 24  1  0
  5 25  1  0
  8 26  1  0
 12 27  1  0
 15 28  1  0
 15 29  1  0
 15 30  1  0
 18 31  1  0
 19 32  1  0
 21 33  1  0
 22 34  1  0
 22 35  1  0
 22 36  1  0
 23 37  1  0
 23 38  1  0
 23 39  1  0
M  ISO  8  24  14  25  14  26  14  27   9  28   8  29   8  30   8  31  14
M  ISO  8  32  14  33   8  34   8  35   8  36   8  37   8  38   8  39   8
M  END
>  <minimizedAffinity>  (1) 
-4.56314945

>  <minimizedRMSD>  (1) 
2.17588711

$$$$
