
     RDKit          3D

 51 54  0  0  0  0  0  0  0  0999 V2000
   44.5290   35.0640   46.1420 C   0  0  0  0  0  0  0  0  0  0  0  0
   44.7710   35.0760   44.7640 C   0  0  0  0  0  0  0  0  0  0  0  0
   45.4470   33.9790   44.2010 C   0  0  0  0  0  0  0  0  0  0  0  0
   45.8240   32.9790   45.0190 N   0  0  0  0  0  0  0  0  0  0  0  0
   45.5650   33.0140   46.3570 C   0  0  0  0  0  0  0  0  0  0  0  0
   44.9250   34.0430   46.9100 N   0  0  0  0  0  0  0  0  0  0  0  0
   45.6730   34.0290   42.8060 N   0  0  0  0  0  0  0  0  0  0  0  0
   44.9270   33.8520   41.7190 C   0  0  0  0  0  0  0  0  0  0  0  0
   45.6640   34.0220   40.5990 N   0  0  0  0  0  0  0  0  0  0  0  0
   46.9180   34.3160   40.9770 C   0  0  0  0  0  0  0  0  0  0  0  0
   48.0510   34.5800   40.2250 C   0  0  0  0  0  0  0  0  0  0  0  0
   48.0580   34.5780   38.9940 O   0  0  0  0  0  0  0  0  0  0  0  0
   49.2200   34.8540   40.8480 N   0  0  0  0  0  0  0  0  0  0  0  0
   49.2050   34.8540   42.1960 C   0  0  0  0  0  0  0  0  0  0  0  0
   50.3640   35.1270   42.9630 N   0  0  0  0  0  0  0  0  0  0  0  0
   48.1200   34.6010   42.9190 N   0  0  0  0  0  0  0  0  0  0  0  0
   46.9270   34.3210   42.3640 C   0  0  0  0  0  0  0  0  0  0  0  0
   45.9840   31.9090   47.2450 C   0  0  0  0  0  0  0  0  0  0  0  0
   47.1890   32.3150   48.0830 C   0  0  0  0  0  0  0  0  0  0  0  0
   44.8700   31.4480   48.1530 C   0  0  0  0  0  0  0  0  0  0  0  0
   46.4340   30.7630   46.3530 C   0  0  0  0  0  0  0  0  0  0  0  0
   45.6590   29.5110   46.6370 C   0  0  0  0  0  0  0  0  0  0  0  0
   46.0500   28.6940   47.6380 C   0  0  0  0  0  0  0  0  0  0  0  0
   44.8570   27.3030   47.6530 S   0  0  0  0  0  0  0  0  0  0  0  0
   43.9580   28.1130   46.1960 C   0  0  0  0  0  0  0  0  0  0  0  0
   44.6000   29.0750   46.0190 N   0  0  0  0  0  0  0  0  0  0  0  0
   42.7190   27.6520   45.4370 C   0  0  0  0  0  0  0  0  0  0  0  0
   41.7460   28.7710   45.2630 C   0  0  0  0  0  0  0  0  0  0  0  0
   42.1970   26.4450   46.1380 C   0  0  0  0  0  0  0  0  0  0  0  0
   44.0020   35.9121   46.6035 H   0  0  0  0  0  0  0  0  0  0  0  0
   44.4419   35.9193   44.1390 H   0  0  0  0  0  0  0  0  0  0  0  0
   43.8560   33.6014   41.7302 H   0  0  0  0  0  0  0  0  0  0  0  0
   50.0804   35.0531   40.3179 H   0  0  0  0  0  0  0  0  0  0  0  0
   50.3146   35.1181   43.9918 H   0  0  0  0  0  0  0  0  0  0  0  0
   51.2562   35.3344   42.4920 H   0  0  0  0  0  0  0  0  0  0  0  0
   46.9383   32.2305   49.1507 H   0  0  0  0  0  0  0  0  0  0  0  0
   48.0363   31.6527   47.8518 H   0  0  0  0  0  0  0  0  0  0  0  0
   47.4628   33.3550   47.8518 H   0  0  0  0  0  0  0  0  0  0  0  0
   45.1759   31.5746   49.2020 H   0  0  0  0  0  0  0  0  0  0  0  0
   43.9677   32.0466   47.9594 H   0  0  0  0  0  0  0  0  0  0  0  0
   44.6545   30.3868   47.9594 H   0  0  0  0  0  0  0  0  0  0  0  0
   47.5025   30.5703   46.5298 H   0  0  0  0  0  0  0  0  0  0  0  0
   46.2568   31.0495   45.3059 H   0  0  0  0  0  0  0  0  0  0  0  0
   46.9104   28.8347   48.3088 H   0  0  0  0  0  0  0  0  0  0  0  0
   42.9488   27.3581   44.4022 H   0  0  0  0  0  0  0  0  0  0  0  0
   41.4277   29.1370   46.2503 H   0  0  0  0  0  0  0  0  0  0  0  0
   42.2245   29.5895   44.7053 H   0  0  0  0  0  0  0  0  0  0  0  0
   40.8689   28.4109   44.7053 H   0  0  0  0  0  0  0  0  0  0  0  0
   42.2622   26.5958   47.2257 H   0  0  0  0  0  0  0  0  0  0  0  0
   41.1474   26.2806   45.8529 H   0  0  0  0  0  0  0  0  0  0  0  0
   42.7961   25.5676   45.8529 H   0  0  0  0  0  0  0  0  0  0  0  0
  1  6  2  0
  2  1  1  0
  3  2  2  0
  3  4  1  0
  4  5  2  0
  5  6  1  0
  5 18  1  0
  7  3  1  0
  8  7  1  0
  9 10  1  0
  9  8  2  0
 10 17  2  0
 11 13  1  0
 11 10  1  0
 12 11  2  0
 13 14  1  0
 14 16  2  0
 14 15  1  0
 17  7  1  0
 17 16  1  0
 18 19  1  0
 18 20  1  0
 21 22  1  0
 21 18  1  0
 22 23  2  0
 23 24  1  0
 25 24  1  0
 26 25  2  0
 26 22  1  0
 27 29  1  0
 27 25  1  0
 28 27  1  0
  1 30  1  0
  2 31  1  0
  8 32  1  0
 13 33  1  0
 15 34  1  0
 15 35  1  0
 19 36  1  0
 19 37  1  0
 19 38  1  0
 20 39  1  0
 20 40  1  0
 20 41  1  0
 21 42  1  0
 21 43  1  0
 23 44  1  0
 27 45  1  0
 28 46  1  0
 28 47  1  0
 28 48  1  0
 29 49  1  0
 29 50  1  0
 29 51  1  0
M  END
>  <minimizedAffinity>  (1) 
-7.04578543

>  <minimizedRMSD>  (1) 
0.196793571

$$$$
