
     RDKit          3D

 41 45  0  0  1  0  0  0  0  0999 V2000
   45.6860   33.8190   45.3700 C   0  0  0  0  0  0  0  0  0  0  0  0
   46.4910   33.8340   44.2320 C   0  0  0  0  0  0  0  0  0  0  0  0
   46.3240   34.8540   43.3010 C   0  0  0  0  0  0  0  0  0  0  0  0
   45.3770   35.8030   43.5390 N   0  0  0  0  0  0  0  0  0  0  0  0
   44.6080   35.7680   44.6500 C   0  0  0  0  0  0  0  0  0  0  0  0
   44.7670   34.7790   45.5570 N   0  0  0  0  0  0  0  0  0  0  0  0
   47.1710   34.8590   42.1190 C   0  0  0  0  0  0  0  0  0  0  0  0
   48.4220   35.4820   41.9970 C   0  0  0  0  0  0  0  0  0  0  0  0
   48.9050   35.2790   40.7710 N   0  0  0  0  0  0  0  0  0  0  0  0
   47.9890   34.5380   40.0980 C   0  0  0  0  0  0  0  0  0  0  0  0
   47.9980   34.0670   38.8040 C   0  0  0  0  0  0  0  0  0  0  0  0
   46.9320   33.3310   38.3380 C   0  0  0  0  0  0  0  0  0  0  0  0
   45.8200   33.0330   39.1260 C   0  0  0  0  0  0  0  0  0  0  0  0
   45.8720   33.5380   40.4270 C   0  0  0  0  0  0  0  0  0  0  0  0
   46.8930   34.2580   40.9120 C   0  0  0  0  0  0  0  0  0  0  0  0
   45.8030   32.8350   46.3270 O   0  0  0  0  0  0  0  0  0  0  0  0
   45.3630   32.9290   47.6500 C   0  0  1  0  0  0  0  0  0  0  0  0
   44.8290   31.6790   48.2600 C   0  0  0  0  0  0  0  0  0  0  0  0
   46.2090   32.2180   48.6560 C   0  0  1  0  0  0  0  0  0  0  0  0
   47.3700   31.4150   48.1580 C   0  0  0  0  0  0  0  0  0  0  0  0
   47.7990   31.6220   46.9900 O   0  0  0  0  0  0  0  0  0  0  0  0
   48.0490   30.4420   48.8290 O   0  0  0  0  0  0  0  0  0  0  0  0
   49.1580   30.7950   49.6220 C   0  0  0  0  0  0  0  0  0  0  0  0
   49.8810   32.0520   49.6290 C   0  0  0  0  0  0  0  0  0  0  0  0
   51.1630   31.7060   50.9220 S   0  0  0  0  0  0  0  0  0  0  0  0
   50.4890   29.9520   51.2050 C   0  0  0  0  0  0  0  0  0  0  0  0
   49.6100   29.8840   50.4710 N   0  0  0  0  0  0  0  0  0  0  0  0
   47.2470   33.0510   44.0726 H   0  0  0  0  0  0  0  0  0  0  0  0
   43.8499   36.5475   44.8165 H   0  0  0  0  0  0  0  0  0  0  0  0
   48.9272   36.0510   42.7914 H   0  0  0  0  0  0  0  0  0  0  0  0
   49.8046   35.6206   40.4037 H   0  0  0  0  0  0  0  0  0  0  0  0
   48.8534   34.2780   38.1454 H   0  0  0  0  0  0  0  0  0  0  0  0
   46.9581   32.9628   37.3018 H   0  0  0  0  0  0  0  0  0  0  0  0
   44.9684   32.4459   38.7517 H   0  0  0  0  0  0  0  0  0  0  0  0
   45.0225   33.3321   41.0949 H   0  0  0  0  0  0  0  0  0  0  0  0
   44.9756   33.9536   47.5493 H   0  0  0  0  0  0  0  0  0  0  0  0
   43.9925   31.7261   48.9728 H   0  0  0  0  0  0  0  0  0  0  0  0
   44.4433   30.7235   47.8751 H   0  0  0  0  0  0  0  0  0  0  0  0
   46.7159   32.5206   49.5841 H   0  0  0  0  0  0  0  0  0  0  0  0
   49.7145   32.9605   49.0316 H   0  0  0  0  0  0  0  0  0  0  0  0
   50.8541   29.1858   51.9047 H   0  0  0  0  0  0  0  0  0  0  0  0
  1  6  1  0
  1 16  1  0
  2  1  2  0
  3  4  2  0
  3  2  1  0
  4  5  1  0
  5  6  2  0
  7  3  1  0
  8  7  2  0
  9  8  1  0
 10  9  1  0
 10 15  2  0
 11 10  1  0
 12 11  2  0
 12 13  1  0
 13 14  2  0
 14 15  1  0
 15  7  1  0
 16 17  1  0
 17 18  1  0
 17 19  1  0
 18 19  1  0
 20 19  1  0
 20 22  1  0
 21 20  2  0
 22 23  1  0
 23 24  2  0
 23 27  1  0
 24 25  1  0
 25 26  1  0
 27 26  2  0
  2 28  1  0
  5 29  1  0
  8 30  1  0
  9 31  1  0
 11 32  1  0
 12 33  1  0
 13 34  1  0
 14 35  1  0
 17 36  1  1
 18 37  1  0
 18 38  1  0
 19 39  1  1
 24 40  1  0
 26 41  1  0
M  END
>  <minimizedAffinity>  (1) 
-7.05038404

>  <minimizedRMSD>  (1) 
0.848097384

$$$$
