
     RDKit          3D

 46 49  0  0  1  0  0  0  0  0999 V2000
   46.9440   34.5170   41.3210 C   0  0  0  0  0  0  0  0  0  0  0  0
   48.2100   34.9600   40.9740 C   0  0  0  0  0  0  0  0  0  0  0  0
   48.4750   34.6560   39.7090 N   0  0  0  0  0  0  0  0  0  0  0  0
   47.3890   34.0130   39.2220 C   0  0  0  0  0  0  0  0  0  0  0  0
   47.1450   33.4820   37.9530 C   0  0  0  0  0  0  0  0  0  0  0  0
   45.9550   32.8790   37.7230 C   0  0  0  0  0  0  0  0  0  0  0  0
   44.9300   32.7370   38.6530 C   0  0  0  0  0  0  0  0  0  0  0  0
   45.2260   33.2800   39.8900 C   0  0  0  0  0  0  0  0  0  0  0  0
   46.4040   33.9050   40.2060 C   0  0  0  0  0  0  0  0  0  0  0  0
   44.7800   35.8600   44.0520 C   0  0  0  0  0  0  0  0  0  0  0  0
   45.4230   35.7410   42.8080 C   0  0  0  0  0  0  0  0  0  0  0  0
   46.2690   34.6490   42.6150 C   0  0  0  0  0  0  0  0  0  0  0  0
   46.4500   33.7370   43.6190 N   0  0  0  0  0  0  0  0  0  0  0  0
   45.7990   33.9060   44.8030 C   0  0  0  0  0  0  0  0  0  0  0  0
   44.9750   34.9440   45.0300 N   0  0  0  0  0  0  0  0  0  0  0  0
   49.1120   35.6710   41.9090 C   0  0  0  0  0  0  0  0  0  0  0  0
   50.0270   34.7210   42.6180 C   0  0  0  0  0  0  0  0  0  0  0  0
   50.2700   33.4200   41.8950 C   0  0  1  0  0  0  0  0  0  0  0  0
   51.0190   32.3250   42.4890 C   0  0  0  0  0  0  0  0  0  0  0  0
   49.5500   32.2210   42.5440 C   0  0  2  0  0  0  0  0  0  0  0  0
   48.8820   31.2410   41.6120 C   0  0  0  0  0  0  0  0  0  0  0  0
   49.6800   31.1760   40.3260 C   0  0  0  0  0  0  0  0  0  0  0  0
   48.9880   29.8680   42.2420 C   0  0  0  0  0  0  0  0  0  0  0  0
   49.3424   34.8692   39.1961 H   0  0  0  0  0  0  0  0  0  0  0  0
   47.9027   33.5523   37.1587 H   0  0  0  0  0  0  0  0  0  0  0  0
   45.7843   32.4671   36.7174 H   0  0  0  0  0  0  0  0  0  0  0  0
   43.9752   32.2402   38.4260 H   0  0  0  0  0  0  0  0  0  0  0  0
   44.4609   33.2048   40.6768 H   0  0  0  0  0  0  0  0  0  0  0  0
   44.1074   36.7111   44.2342 H   0  0  0  0  0  0  0  0  0  0  0  0
   45.2643   36.4844   42.0129 H   0  0  0  0  0  0  0  0  0  0  0  0
   45.9528   33.1666   45.6027 H   0  0  0  0  0  0  0  0  0  0  0  0
   49.7169   36.3938   41.3419 H   0  0  0  0  0  0  0  0  0  0  0  0
   48.4947   36.1826   42.6622 H   0  0  0  0  0  0  0  0  0  0  0  0
   50.9968   35.2206   42.7590 H   0  0  0  0  0  0  0  0  0  0  0  0
   49.5312   34.4615   43.5650 H   0  0  0  0  0  0  0  0  0  0  0  0
   50.3542   33.9187   40.9182 H   0  0  0  0  0  0  0  0  0  0  0  0
   51.5846   31.6421   41.8380 H   0  0  0  0  0  0  0  0  0  0  0  0
   51.8097   32.2759   43.2521 H   0  0  0  0  0  0  0  0  0  0  0  0
   48.7996   32.0751   43.3350 H   0  0  0  0  0  0  0  0  0  0  0  0
   47.8402   31.5415   41.4266 H   0  0  0  0  0  0  0  0  0  0  0  0
   50.7507   31.0888   40.5629 H   0  0  0  0  0  0  0  0  0  0  0  0
   49.3615   30.3008   39.7407 H   0  0  0  0  0  0  0  0  0  0  0  0
   49.5073   32.0912   39.7407 H   0  0  0  0  0  0  0  0  0  0  0  0
   48.9805   29.9657   43.3376 H   0  0  0  0  0  0  0  0  0  0  0  0
   48.1348   29.2513   41.9230 H   0  0  0  0  0  0  0  0  0  0  0  0
   49.9258   29.3896   41.9230 H   0  0  0  0  0  0  0  0  0  0  0  0
  1 12  1  0
  2  1  2  0
  2 16  1  0
  3  2  1  0
  4  3  1  0
  4  9  2  0
  5  4  1  0
  6  5  2  0
  6  7  1  0
  7  8  2  0
  8  9  1  0
  9  1  1  0
 10 15  2  0
 11 10  1  0
 12 11  2  0
 12 13  1  0
 13 14  2  0
 14 15  1  0
 16 17  1  0
 18 19  1  0
 18 20  1  0
 18 17  1  0
 19 20  1  0
 21 23  1  0
 21 20  1  0
 22 21  1  0
  3 24  1  0
  5 25  1  0
  6 26  1  0
  7 27  1  0
  8 28  1  0
 10 29  1  0
 11 30  1  0
 14 31  1  0
 16 32  1  0
 16 33  1  0
 17 34  1  0
 17 35  1  0
 18 36  1  6
 19 37  1  0
 19 38  1  0
 20 39  1  1
 21 40  1  0
 22 41  1  0
 22 42  1  0
 22 43  1  0
 23 44  1  0
 23 45  1  0
 23 46  1  0
M  ISO  8  24   9  25  14  26  14  27  14  28  14  29  14  30  14  31  14
M  ISO  8  32   8  33   8  34   8  35   8  36  13  37  13  38  13  39  13
M  ISO  7  40   8  41   8  42   8  43   8  44   8  45   8  46   8
M  END
>  <minimizedAffinity>  (1) 
-5.68631554

>  <minimizedRMSD>  (1) 
0.251135826

$$$$
