
     RDKit          3D

 50 54  0  0  0  0  0  0  0  0999 V2000
   46.8210   34.7150   41.9570 C   0  0  0  0  0  0  0  0  0  0  0  0
   48.1520   35.1020   41.7360 C   0  0  0  0  0  0  0  0  0  0  0  0
   48.3690   34.7180   40.4160 C   0  0  0  0  0  0  0  0  0  0  0  0
   47.1960   34.1410   39.9360 C   0  0  0  0  0  0  0  0  0  0  0  0
   46.2970   34.1660   40.9060 O   0  0  0  0  0  0  0  0  0  0  0  0
   44.5140   36.0850   44.5440 C   0  0  0  0  0  0  0  0  0  0  0  0
   45.2270   35.9490   43.3090 C   0  0  0  0  0  0  0  0  0  0  0  0
   46.0760   34.8880   43.1990 C   0  0  0  0  0  0  0  0  0  0  0  0
   46.2020   34.0250   44.2500 N   0  0  0  0  0  0  0  0  0  0  0  0
   45.5140   34.1820   45.4010 C   0  0  0  0  0  0  0  0  0  0  0  0
   44.6630   35.2210   45.5470 N   0  0  0  0  0  0  0  0  0  0  0  0
   45.7630   33.1850   46.4020 N   0  0  0  0  0  0  0  0  0  0  0  0
   45.1280   33.1420   47.5760 N   0  0  0  0  0  0  0  0  0  0  0  0
   45.5640   32.1070   48.3040 C   0  0  0  0  0  0  0  0  0  0  0  0
   46.5380   31.4440   47.5500 C   0  0  0  0  0  0  0  0  0  0  0  0
   46.6410   32.1470   46.3590 C   0  0  0  0  0  0  0  0  0  0  0  0
   47.0010   33.6190   38.6330 N   0  0  0  0  0  0  0  0  0  0  0  0
   46.0050   32.7220   38.4520 C   0  0  0  0  0  0  0  0  0  0  0  0
   45.7730   32.1870   37.2180 C   0  0  0  0  0  0  0  0  0  0  0  0
   46.5700   32.5740   36.1560 C   0  0  0  0  0  0  0  0  0  0  0  0
   46.3490   32.0760   35.0150 O   0  0  0  0  0  0  0  0  0  0  0  0
   47.5490   33.4710   36.3870 N   0  0  0  0  0  0  0  0  0  0  0  0
   47.7610   33.9890   37.6250 C   0  0  0  0  0  0  0  0  0  0  0  0
   48.6910   34.8180   37.7670 O   0  0  0  0  0  0  0  0  0  0  0  0
   44.6830   31.1920   37.0740 C   0  0  0  0  0  0  0  0  0  0  0  0
   43.4040   31.6650   37.4610 N   0  0  0  0  0  0  0  0  0  0  0  0
   43.1330   32.8040   38.1290 C   0  0  0  0  0  0  0  0  0  0  0  0
   41.8340   33.1900   38.4700 C   0  0  0  0  0  0  0  0  0  0  0  0
   41.6800   34.4740   39.2070 C   0  0  0  0  0  0  0  0  0  0  0  0
   40.8030   32.3570   38.0970 C   0  0  0  0  0  0  0  0  0  0  0  0
   39.6470   32.7480   38.4270 O   0  0  0  0  0  0  0  0  0  0  0  0
   41.0390   31.2150   37.4320 N   0  0  0  0  0  0  0  0  0  0  0  0
   42.3190   30.9300   37.1500 C   0  0  0  0  0  0  0  0  0  0  0  0
   42.4850   29.8330   36.5160 O   0  0  0  0  0  0  0  0  0  0  0  0
   48.8503   35.5882   42.4331 H   0  0  0  0  0  0  0  0  0  0  0  0
   49.3037   34.8476   39.8507 H   0  0  0  0  0  0  0  0  0  0  0  0
   43.8210   36.9302   44.6682 H   0  0  0  0  0  0  0  0  0  0  0  0
   45.0955   36.6679   42.4869 H   0  0  0  0  0  0  0  0  0  0  0  0
   45.2195   31.8287   49.3109 H   0  0  0  0  0  0  0  0  0  0  0  0
   47.1060   30.5484   47.8420 H   0  0  0  0  0  0  0  0  0  0  0  0
   47.3158   31.9068   45.5242 H   0  0  0  0  0  0  0  0  0  0  0  0
   45.3781   32.4218   39.3046 H   0  0  0  0  0  0  0  0  0  0  0  0
   48.1506   33.7709   35.6066 H   0  0  0  0  0  0  0  0  0  0  0  0
   44.6323   30.8875   36.0182 H   0  0  0  0  0  0  0  0  0  0  0  0
   44.9272   30.3586   37.7492 H   0  0  0  0  0  0  0  0  0  0  0  0
   43.9696   33.4571   38.4179 H   0  0  0  0  0  0  0  0  0  0  0  0
   41.7032   34.2804   40.2896 H   0  0  0  0  0  0  0  0  0  0  0  0
   42.5032   35.1522   38.9380 H   0  0  0  0  0  0  0  0  0  0  0  0
   40.7197   34.9383   38.9380 H   0  0  0  0  0  0  0  0  0  0  0  0
   40.2726   30.5867   37.1513 H   0  0  0  0  0  0  0  0  0  0  0  0
  1  8  1  0
  2  1  2  0
  3  2  1  0
  4  3  2  0
  4  5  1  0
  5  1  1  0
  6 11  2  0
  7  6  1  0
  8  7  2  0
  8  9  1  0
  9 10  2  0
 10 11  1  0
 10 12  1  0
 12 13  1  0
 13 14  2  0
 15 14  1  0
 16 12  1  0
 16 15  2  0
 17  4  1  0
 18 17  1  0
 19 18  2  0
 20 22  1  0
 20 19  1  0
 21 20  2  0
 22 23  1  0
 23 24  2  0
 23 17  1  0
 25 19  1  0
 25 26  1  0
 26 27  1  0
 27 28  2  0
 28 29  1  0
 30 31  2  0
 30 28  1  0
 32 30  1  0
 33 32  1  0
 33 26  1  0
 34 33  2  0
  2 35  1  0
  3 36  1  0
  6 37  1  0
  7 38  1  0
 14 39  1  0
 15 40  1  0
 16 41  1  0
 18 42  1  0
 22 43  1  0
 25 44  1  0
 25 45  1  0
 27 46  1  0
 29 47  1  0
 29 48  1  0
 29 49  1  0
 32 50  1  0
M  END
>  <minimizedAffinity>  (1) 
-8.19954586

>  <minimizedRMSD>  (1) 
1.96236241

$$$$
