
     RDKit          3D

 42 44  0  0  0  0  0  0  0  0999 V2000
   46.5140   34.5780   42.2210 C   0  0  0  0  0  0  0  0  0  0  0  0
   47.8180   34.9550   42.0770 C   0  0  0  0  0  0  0  0  0  0  0  0
   48.4940   34.8610   40.8580 C   0  0  0  0  0  0  0  0  0  0  0  0
   47.8180   34.3610   39.7330 C   0  0  0  0  0  0  0  0  0  0  0  0
   46.5090   33.9840   39.8800 C   0  0  0  0  0  0  0  0  0  0  0  0
   45.8740   34.0950   41.1150 C   0  0  0  0  0  0  0  0  0  0  0  0
   44.5170   33.6920   41.2200 N   0  0  0  0  0  0  0  0  0  0  0  0
   43.6850   34.6590   40.7170 C   0  0  0  0  0  0  0  0  0  0  0  0
   42.2990   34.4720   40.7190 C   0  0  0  0  0  0  0  0  0  0  0  0
   41.8120   33.2850   41.2430 C   0  0  0  0  0  0  0  0  0  0  0  0
   40.5790   33.0600   41.2720 O   0  0  0  0  0  0  0  0  0  0  0  0
   42.6690   32.3680   41.7240 N   0  0  0  0  0  0  0  0  0  0  0  0
   43.9940   32.5600   41.7160 C   0  0  0  0  0  0  0  0  0  0  0  0
   44.8610   31.7670   42.1410 O   0  0  0  0  0  0  0  0  0  0  0  0
   41.3640   35.4960   40.1830 C   0  0  0  0  0  0  0  0  0  0  0  0
   44.4840   35.7400   45.1730 C   0  0  0  0  0  0  0  0  0  0  0  0
   45.0090   35.7230   43.8770 C   0  0  0  0  0  0  0  0  0  0  0  0
   45.8970   34.7120   43.5290 C   0  0  0  0  0  0  0  0  0  0  0  0
   46.2100   33.7930   44.4570 N   0  0  0  0  0  0  0  0  0  0  0  0
   45.6790   33.8400   45.7140 C   0  0  0  0  0  0  0  0  0  0  0  0
   44.8210   34.8120   46.0580 N   0  0  0  0  0  0  0  0  0  0  0  0
   46.0310   32.8200   46.7350 C   0  0  0  0  0  0  0  0  0  0  0  0
   45.0990   32.7500   47.8910 C   0  0  0  0  0  0  0  0  0  0  0  0
   46.1080   31.4960   45.9660 C   0  0  0  0  0  0  0  0  0  0  0  0
   48.3561   35.3471   42.9526 H   0  0  0  0  0  0  0  0  0  0  0  0
   49.5452   35.1754   40.7801 H   0  0  0  0  0  0  0  0  0  0  0  0
   48.3254   34.2745   38.7609 H   0  0  0  0  0  0  0  0  0  0  0  0
   45.9546   33.5903   39.0153 H   0  0  0  0  0  0  0  0  0  0  0  0
   44.1105   35.5878   40.3093 H   0  0  0  0  0  0  0  0  0  0  0  0
   42.2946   31.4899   42.1109 H   0  0  0  0  0  0  0  0  0  0  0  0
   40.8813   36.0247   41.0181 H   0  0  0  0  0  0  0  0  0  0  0  0
   41.9227   36.2161   39.5671 H   0  0  0  0  0  0  0  0  0  0  0  0
   40.5962   35.0049   39.5671 H   0  0  0  0  0  0  0  0  0  0  0  0
   43.7811   36.5350   45.4625 H   0  0  0  0  0  0  0  0  0  0  0  0
   44.7246   36.4950   43.1469 H   0  0  0  0  0  0  0  0  0  0  0  0
   46.9843   33.0826   47.2169 H   0  0  0  0  0  0  0  0  0  0  0  0
   45.6733   32.7931   48.8282 H   0  0  0  0  0  0  0  0  0  0  0  0
   44.3997   33.5982   47.8501 H   0  0  0  0  0  0  0  0  0  0  0  0
   44.5343   31.8069   47.8501 H   0  0  0  0  0  0  0  0  0  0  0  0
   46.1566   30.6600   46.6793 H   0  0  0  0  0  0  0  0  0  0  0  0
   45.2147   31.3869   45.3335 H   0  0  0  0  0  0  0  0  0  0  0  0
   47.0079   31.4911   45.3335 H   0  0  0  0  0  0  0  0  0  0  0  0
  1 18  1  0
  2  1  2  0
  3  2  1  0
  4  5  1  0
  4  3  2  0
  5  6  2  0
  6  7  1  0
  6  1  1  0
  7 13  1  0
  8  9  2  0
  8  7  1  0
  9 10  1  0
 10 11  2  0
 10 12  1  0
 13 12  1  0
 13 14  2  0
 15  9  1  0
 16 21  2  0
 17 16  1  0
 18 17  2  0
 18 19  1  0
 19 20  2  0
 20 21  1  0
 20 22  1  0
 22 23  1  0
 24 22  1  0
  2 25  1  0
  3 26  1  0
  4 27  1  0
  5 28  1  0
  8 29  1  0
 12 30  1  0
 15 31  1  0
 15 32  1  0
 15 33  1  0
 16 34  1  0
 17 35  1  0
 22 36  1  0
 23 37  1  0
 23 38  1  0
 23 39  1  0
 24 40  1  0
 24 41  1  0
 24 42  1  0
M  ISO  8  25  14  26  14  27  14  28  14  29  14  30   9  31   8  32   8
M  ISO  8  33   8  34  14  35  14  36   8  37   8  38   8  39   8  40   8
M  ISO  2  41   8  42   8
M  END
>  <minimizedAffinity>  (1) 
-6.80155182

>  <minimizedRMSD>  (1) 
0.302761644

$$$$
