
     RDKit          3D

 36 37  0  0  0  0  0  0  0  0999 V2000
   45.7140   33.9220   41.6210 C   0  0  0  0  0  0  0  0  0  0  0  0
   45.3730   33.9460   45.2700 C   0  0  0  0  0  0  0  0  0  0  0  0
   44.7750   35.1920   45.5390 C   0  0  0  0  0  0  0  0  0  0  0  0
   44.4900   36.0250   44.4520 C   0  0  0  0  0  0  0  0  0  0  0  0
   44.8080   35.5810   43.1910 N   0  0  0  0  0  0  0  0  0  0  0  0
   45.3860   34.3670   42.9970 C   0  0  0  0  0  0  0  0  0  0  0  0
   45.6570   33.5740   44.0280 N   0  0  0  0  0  0  0  0  0  0  0  0
   44.5380   34.2280   40.7060 C   0  0  0  0  0  0  0  0  0  0  0  0
   45.8880   32.4250   41.5970 C   0  0  0  0  0  0  0  0  0  0  0  0
   46.9070   34.6230   41.0410 C   0  0  0  0  0  0  0  0  0  0  0  0
   48.1850   34.2580   41.6470 C   0  0  0  0  0  0  0  0  0  0  0  0
   48.8670   34.6550   42.7400 N   0  0  0  0  0  0  0  0  0  0  0  0
   50.0020   33.9980   42.8420 O   0  0  0  0  0  0  0  0  0  0  0  0
   50.1020   33.1590   41.8380 C   0  0  0  0  0  0  0  0  0  0  0  0
   48.9930   33.3060   41.0890 N   0  0  0  0  0  0  0  0  0  0  0  0
   51.2000   32.2080   41.5270 C   0  0  0  0  0  0  0  0  0  0  0  0
   51.0370   31.5610   40.1760 C   0  0  0  0  0  0  0  0  0  0  0  0
   51.2360   31.0680   42.5410 C   0  0  0  0  0  0  0  0  0  0  0  0
   45.6090   33.2688   46.1041 H   0  0  0  0  0  0  0  0  0  0  0  0
   44.5400   35.4998   46.5686 H   0  0  0  0  0  0  0  0  0  0  0  0
   44.0235   37.0097   44.6027 H   0  0  0  0  0  0  0  0  0  0  0  0
   43.6508   34.4589   41.3139 H   0  0  0  0  0  0  0  0  0  0  0  0
   44.7826   35.0924   40.0712 H   0  0  0  0  0  0  0  0  0  0  0  0
   44.3302   33.3540   40.0712 H   0  0  0  0  0  0  0  0  0  0  0  0
   45.9322   32.0444   42.6281 H   0  0  0  0  0  0  0  0  0  0  0  0
   45.0372   31.9653   41.0727 H   0  0  0  0  0  0  0  0  0  0  0  0
   46.8215   32.1727   41.0727 H   0  0  0  0  0  0  0  0  0  0  0  0
   46.9562   34.3846   39.9683 H   0  0  0  0  0  0  0  0  0  0  0  0
   46.7641   35.6953   41.2405 H   0  0  0  0  0  0  0  0  0  0  0  0
   52.1216   32.8079   41.5526 H   0  0  0  0  0  0  0  0  0  0  0  0
   50.7702   30.5019   40.3065 H   0  0  0  0  0  0  0  0  0  0  0  0
   50.2400   32.0738   39.6176 H   0  0  0  0  0  0  0  0  0  0  0  0
   51.9818   31.6350   39.6176 H   0  0  0  0  0  0  0  0  0  0  0  0
   51.2229   31.4828   43.5597 H   0  0  0  0  0  0  0  0  0  0  0  0
   50.3578   30.4214   42.3971 H   0  0  0  0  0  0  0  0  0  0  0  0
   52.1532   30.4781   42.3971 H   0  0  0  0  0  0  0  0  0  0  0  0
  1  6  1  0
  2  3  2  0
  4  3  1  0
  5  4  2  0
  6  5  1  0
  6  7  2  0
  7  2  1  0
  8  1  1  0
  9  1  1  0
 10  1  1  0
 10 11  1  0
 11 12  2  0
 12 13  1  0
 14 13  1  0
 15 11  1  0
 15 14  2  0
 16 14  1  0
 16 18  1  0
 17 16  1  0
  2 19  1  0
  3 20  1  0
  4 21  1  0
  8 22  1  0
  8 23  1  0
  8 24  1  0
  9 25  1  0
  9 26  1  0
  9 27  1  0
 10 28  1  0
 10 29  1  0
 16 30  1  0
 17 31  1  0
 17 32  1  0
 17 33  1  0
 18 34  1  0
 18 35  1  0
 18 36  1  0
M  ISO  8  19  14  20  14  21  14  22   8  23   8  24   8  25   8  26   8
M  ISO  8  27   8  28   8  29   8  30   8  31   8  32   8  33   8  34   8
M  ISO  2  35   8  36   8
M  END
>  <minimizedAffinity>  (1) 
-4.42885303

>  <minimizedRMSD>  (1) 
1.41205084

$$$$
