
     RDKit          3D

 41 43  0  0  0  0  0  0  0  0999 V2000
   44.4580   35.8830   44.4900 C   0  0  0  0  0  0  0  0  0  0  0  0
   45.1780   35.7670   43.3110 C   0  0  0  0  0  0  0  0  0  0  0  0
   46.1470   34.7890   43.2260 C   0  0  0  0  0  0  0  0  0  0  0  0
   46.3520   33.9840   44.3000 N   0  0  0  0  0  0  0  0  0  0  0  0
   45.6160   34.1280   45.4550 C   0  0  0  0  0  0  0  0  0  0  0  0
   44.6750   35.0610   45.5690 N   0  0  0  0  0  0  0  0  0  0  0  0
   45.8540   33.2720   46.5590 N   0  0  0  0  0  0  0  0  0  0  0  0
   47.0200   32.6180   46.6290 C   0  0  0  0  0  0  0  0  0  0  0  0
   46.9600   31.8670   47.8060 C   0  0  0  0  0  0  0  0  0  0  0  0
   45.7850   32.0800   48.4060 N   0  0  0  0  0  0  0  0  0  0  0  0
   45.0940   32.9290   47.6670 C   0  0  0  0  0  0  0  0  0  0  0  0
   48.0010   30.9920   48.3070 C   0  0  0  0  0  0  0  0  0  0  0  0
   48.9270   31.4930   49.1790 C   0  0  0  0  0  0  0  0  0  0  0  0
   49.9470   30.7290   49.7000 C   0  0  0  0  0  0  0  0  0  0  0  0
   50.0090   29.4000   49.3060 C   0  0  0  0  0  0  0  0  0  0  0  0
   49.0740   28.8710   48.4180 C   0  0  0  0  0  0  0  0  0  0  0  0
   48.0710   29.6660   47.9200 C   0  0  0  0  0  0  0  0  0  0  0  0
   49.1370   27.4380   47.9900 C   0  0  0  0  0  0  0  0  0  0  0  0
   49.8570   26.5700   49.0010 C   0  0  0  0  0  0  0  0  0  0  0  0
   49.8810   27.3270   46.6740 C   0  0  0  0  0  0  0  0  0  0  0  0
   47.7530   26.8680   47.7520 C   0  0  0  0  0  0  0  0  0  0  0  0
   47.1380   29.1020   47.0230 N   0  0  0  0  0  0  0  0  0  0  0  0
   43.6847   36.6617   44.5642 H   0  0  0  0  0  0  0  0  0  0  0  0
   44.9811   36.4393   42.4629 H   0  0  0  0  0  0  0  0  0  0  0  0
   46.7406   34.6640   42.3084 H   0  0  0  0  0  0  0  0  0  0  0  0
   47.8515   32.6625   45.9103 H   0  0  0  0  0  0  0  0  0  0  0  0
   44.0840   33.3018   47.8928 H   0  0  0  0  0  0  0  0  0  0  0  0
   48.8542   32.5495   49.4765 H   0  0  0  0  0  0  0  0  0  0  0  0
   50.6819   31.1543   50.3993 H   0  0  0  0  0  0  0  0  0  0  0  0
   50.8077   28.7545   49.7002 H   0  0  0  0  0  0  0  0  0  0  0  0
   49.5893   26.8927   50.0180 H   0  0  0  0  0  0  0  0  0  0  0  0
   49.5610   25.5200   48.8596 H   0  0  0  0  0  0  0  0  0  0  0  0
   50.9436   26.6669   48.8596 H   0  0  0  0  0  0  0  0  0  0  0  0
   50.9515   27.1673   46.8703 H   0  0  0  0  0  0  0  0  0  0  0  0
   49.4832   26.4783   46.0983 H   0  0  0  0  0  0  0  0  0  0  0  0
   49.7482   28.2549   46.0983 H   0  0  0  0  0  0  0  0  0  0  0  0
   47.2676   26.6681   48.7186 H   0  0  0  0  0  0  0  0  0  0  0  0
   47.1514   27.5916   47.1823 H   0  0  0  0  0  0  0  0  0  0  0  0
   47.8355   25.9306   47.1823 H   0  0  0  0  0  0  0  0  0  0  0  0
   47.2166   28.1109   46.7538 H   0  0  0  0  0  0  0  0  0  0  0  0
   46.3787   29.6816   46.6378 H   0  0  0  0  0  0  0  0  0  0  0  0
  1  6  2  0
  2  1  1  0
  3  2  2  0
  3  4  1  0
  4  5  2  0
  5  6  1  0
  5  7  1  0
  7  8  1  0
  7 11  1  0
  8  9  2  0
  9 12  1  0
  9 10  1  0
 11 10  2  0
 12 13  2  0
 13 14  1  0
 15 14  2  0
 16 15  1  0
 17 12  1  0
 17 16  2  0
 18 16  1  0
 18 19  1  0
 20 18  1  0
 21 18  1  0
 22 17  1  0
  1 23  1  0
  2 24  1  0
  3 25  1  0
  8 26  1  0
 11 27  1  0
 13 28  1  0
 14 29  1  0
 15 30  1  0
 19 31  1  0
 19 32  1  0
 19 33  1  0
 20 34  1  0
 20 35  1  0
 20 36  1  0
 21 37  1  0
 21 38  1  0
 21 39  1  0
 22 40  1  0
 22 41  1  0
M  ISO  8  23  14  24  14  25  14  26  14  27  14  28  14  29  14  30  14
M  ISO  8  31   8  32   8  33   8  34   8  35   8  36   8  37   8  38   8
M  ISO  1  39   8
M  END
>  <minimizedAffinity>  (1) 
-5.76252556

>  <minimizedRMSD>  (1) 
0.156651601

$$$$
