
     RDKit          3D

 26 26  0  0  0  0  0  0  0  0999 V2000
   44.7180   35.0430   45.3850 C   0  0  0  0  0  0  0  0  0  0  0  0
   45.5220   34.5000   44.3680 C   0  0  0  0  0  0  0  0  0  0  0  0
   46.2700   33.3830   44.6910 C   0  0  0  0  0  0  0  0  0  0  0  0
   46.1760   32.8900   45.9610 N   0  0  0  0  0  0  0  0  0  0  0  0
   45.3990   33.4320   46.9070 C   0  0  0  0  0  0  0  0  0  0  0  0
   44.6620   34.5160   46.6240 N   0  0  0  0  0  0  0  0  0  0  0  0
   45.5150   35.1440   43.0560 C   0  0  0  0  0  0  0  0  0  0  0  0
   45.1310   36.6050   43.2370 C   0  0  0  0  0  0  0  0  0  0  0  0
   44.4810   34.5480   42.1350 C   0  0  0  0  0  0  0  0  0  0  0  0
   46.8910   34.9860   42.4440 C   0  0  0  0  0  0  0  0  0  0  0  0
   45.3020   32.9330   48.1930 O   0  0  0  0  0  0  0  0  0  0  0  0
   45.4230   31.5750   48.5250 C   0  0  0  0  0  0  0  0  0  0  0  0
   46.7280   31.1370   48.5040 F   0  0  0  0  0  0  0  0  0  0  0  0
   44.5800   30.8020   47.7390 F   0  0  0  0  0  0  0  0  0  0  0  0
   45.0250   31.4330   49.8660 F   0  0  0  0  0  0  0  0  0  0  0  0
   44.1110   35.9326   45.1609 H   0  0  0  0  0  0  0  0  0  0  0  0
   46.9226   32.9048   43.9458 H   0  0  0  0  0  0  0  0  0  0  0  0
   45.0698   36.8378   44.3103 H   0  0  0  0  0  0  0  0  0  0  0  0
   45.8914   37.2451   42.7658 H   0  0  0  0  0  0  0  0  0  0  0  0
   44.1541   36.7885   42.7658 H   0  0  0  0  0  0  0  0  0  0  0  0
   43.6806   34.0866   42.7320 H   0  0  0  0  0  0  0  0  0  0  0  0
   44.0555   35.3394   41.5005 H   0  0  0  0  0  0  0  0  0  0  0  0
   44.9525   33.7831   41.5005 H   0  0  0  0  0  0  0  0  0  0  0  0
   47.6406   34.8999   43.2444 H   0  0  0  0  0  0  0  0  0  0  0  0
   46.9135   34.0794   41.8215 H   0  0  0  0  0  0  0  0  0  0  0  0
   47.1184   35.8639   41.8215 H   0  0  0  0  0  0  0  0  0  0  0  0
  1  6  2  0
  2  3  2  0
  2  1  1  0
  3  4  1  0
  4  5  2  0
  5 11  1  0
  6  5  1  0
  7  8  1  0
  7  2  1  0
  9  7  1  0
 10  7  1  0
 11 12  1  0
 12 15  1  0
 13 12  1  0
 14 12  1  0
  1 16  1  0
  3 17  1  0
  8 18  1  0
  8 19  1  0
  8 20  1  0
  9 21  1  0
  9 22  1  0
  9 23  1  0
 10 24  1  0
 10 25  1  0
 10 26  1  0
M  ISO  8  16  14  17  14  18   8  19   8  20   8  21   8  22   8  23   8
M  ISO  3  24   8  25   8  26   8
M  END
>  <minimizedAffinity>  (1) 
-4.63854265

>  <minimizedRMSD>  (1) 
1.65200853

$$$$
