
     RDKit          3D

 50 55  0  0  1  0  0  0  0  0999 V2000
   44.3140   34.0100   40.7140 C   0  0  2  0  0  0  0  0  0  0  0  0
   42.7870   34.2480   40.8670 C   0  0  0  0  0  0  0  0  0  0  0  0
   42.5640   34.9610   39.5270 C   0  0  0  0  0  0  0  0  0  0  0  0
   43.3530   34.1190   38.5960 C   0  0  0  0  0  0  0  0  0  0  0  0
   44.3190   33.2840   39.4520 C   0  0  1  0  0  0  0  0  0  0  0  0
   46.0920   33.8930   42.4170 C   0  0  0  0  0  0  0  0  0  0  0  0
   44.8980   33.3380   41.8820 C   0  0  0  0  0  0  0  0  0  0  0  0
   44.3380   32.1760   42.4530 C   0  0  0  0  0  0  0  0  0  0  0  0
   44.9760   31.6140   43.5160 N   0  0  0  0  0  0  0  0  0  0  0  0
   46.1300   32.1740   44.0100 C   0  0  0  0  0  0  0  0  0  0  0  0
   46.6820   33.2890   43.4760 N   0  0  0  0  0  0  0  0  0  0  0  0
   46.7890   31.5700   45.1260 N   0  0  0  0  0  0  0  0  0  0  0  0
   47.8170   30.7040   45.1700 C   0  0  0  0  0  0  0  0  0  0  0  0
   48.0390   30.4570   46.4840 N   0  0  0  0  0  0  0  0  0  0  0  0
   47.1780   31.1480   47.2200 C   0  0  0  0  0  0  0  0  0  0  0  0
   47.0680   31.1770   48.5920 C   0  0  0  0  0  0  0  0  0  0  0  0
   46.0900   31.9740   49.1070 N   0  0  0  0  0  0  0  0  0  0  0  0
   45.2730   32.6970   48.2950 C   0  0  0  0  0  0  0  0  0  0  0  0
   45.4290   32.6270   46.9750 N   0  0  0  0  0  0  0  0  0  0  0  0
   46.3680   31.8660   46.3780 C   0  0  0  0  0  0  0  0  0  0  0  0
   47.8550   30.4740   49.5220 N   0  0  0  0  0  0  0  0  0  0  0  0
   45.5860   33.1530   38.7690 N   0  0  0  0  0  0  0  0  0  0  0  0
   46.7940   33.2450   39.3570 C   0  0  0  0  0  0  0  0  0  0  0  0
   47.7640   33.0870   38.4580 N   0  0  0  0  0  0  0  0  0  0  0  0
   47.1470   32.8920   37.2760 C   0  0  0  0  0  0  0  0  0  0  0  0
   47.7120   32.6840   36.0390 C   0  0  0  0  0  0  0  0  0  0  0  0
   48.9650   32.6510   35.8810 O   0  0  0  0  0  0  0  0  0  0  0  0
   46.8730   32.5180   35.0000 N   0  0  0  0  0  0  0  0  0  0  0  0
   45.5140   32.5540   35.1670 C   0  0  0  0  0  0  0  0  0  0  0  0
   44.7400   32.3740   33.9810 N   0  0  0  0  0  0  0  0  0  0  0  0
   44.9930   32.7600   36.4020 N   0  0  0  0  0  0  0  0  0  0  0  0
   45.7820   32.9310   37.4620 C   0  0  0  0  0  0  0  0  0  0  0  0
   44.9594   34.9002   40.6840 H   0  0  0  0  0  0  0  0  0  0  0  0
   42.2213   33.3075   40.9408 H   0  0  0  0  0  0  0  0  0  0  0  0
   42.4645   34.7895   41.7685 H   0  0  0  0  0  0  0  0  0  0  0  0
   41.4990   34.9713   39.2519 H   0  0  0  0  0  0  0  0  0  0  0  0
   42.8646   36.0191   39.5317 H   0  0  0  0  0  0  0  0  0  0  0  0
   43.9191   34.7549   37.8994 H   0  0  0  0  0  0  0  0  0  0  0  0
   42.6943   33.4690   38.0013 H   0  0  0  0  0  0  0  0  0  0  0  0
   44.0485   32.2330   39.6317 H   0  0  0  0  0  0  0  0  0  0  0  0
   46.5309   34.8006   41.9770 H   0  0  0  0  0  0  0  0  0  0  0  0
   43.4130   31.7370   42.0511 H   0  0  0  0  0  0  0  0  0  0  0  0
   48.3654   30.2825   44.3147 H   0  0  0  0  0  0  0  0  0  0  0  0
   44.4882   33.3357   48.7264 H   0  0  0  0  0  0  0  0  0  0  0  0
   47.6758   30.5778   50.5310 H   0  0  0  0  0  0  0  0  0  0  0  0
   48.6105   29.8555   49.1940 H   0  0  0  0  0  0  0  0  0  0  0  0
   46.9569   33.4254   40.4298 H   0  0  0  0  0  0  0  0  0  0  0  0
   47.2611   32.3605   34.0590 H   0  0  0  0  0  0  0  0  0  0  0  0
   43.7113   32.3892   34.0301 H   0  0  0  0  0  0  0  0  0  0  0  0
   45.2103   32.2290   33.0762 H   0  0  0  0  0  0  0  0  0  0  0  0
  1  2  1  0
  1  7  1  0
  3  2  1  0
  4  5  1  0
  4  3  1  0
  5  1  1  0
  6 11  2  0
  7  6  1  0
  7  8  2  0
  8  9  1  0
  9 10  2  0
 10 12  1  0
 11 10  1  0
 12 13  1  0
 12 20  1  0
 13 14  2  0
 14 15  1  0
 15 16  2  0
 16 17  1  0
 16 21  1  0
 18 17  2  0
 19 18  1  0
 20 19  2  0
 20 15  1  0
 22 23  1  0
 22  5  1  0
 24 23  2  0
 25 32  2  0
 25 24  1  0
 26 25  1  0
 27 26  2  0
 28 29  1  0
 28 26  1  0
 29 31  2  0
 30 29  1  0
 31 32  1  0
 32 22  1  0
  1 33  1  6
  2 34  1  0
  2 35  1  0
  3 36  1  0
  3 37  1  0
  4 38  1  0
  4 39  1  0
  5 40  1  1
  6 41  1  0
  8 42  1  0
 13 43  1  0
 18 44  1  0
 21 45  1  0
 21 46  1  0
 23 47  1  0
 28 48  1  0
 30 49  1  0
 30 50  1  0
M  END
>  <minimizedAffinity>  (1) 
-7.60645437

>  <minimizedRMSD>  (1) 
1.560431

$$$$
