
     RDKit          3D

 42 45  0  0  1  0  0  0  0  0999 V2000
   45.6060   32.8060   47.6140 C   0  0  0  0  0  0  0  0  0  0  0  0
   45.8830   32.5240   46.3140 C   0  0  0  0  0  0  0  0  0  0  0  0
   45.8990   31.1690   45.9570 C   0  0  0  0  0  0  0  0  0  0  0  0
   45.6550   30.2070   46.8540 N   0  0  0  0  0  0  0  0  0  0  0  0
   45.3770   30.5180   48.1670 C   0  0  0  0  0  0  0  0  0  0  0  0
   45.3550   31.8030   48.5270 N   0  0  0  0  0  0  0  0  0  0  0  0
   45.1360   29.4850   49.1190 N   0  0  0  0  0  0  0  0  0  0  0  0
   46.1170   33.5350   45.3290 C   0  0  2  0  0  0  0  0  0  0  0  0
   44.9780   34.6100   45.5150 C   0  0  0  0  0  0  0  0  0  0  0  0
   44.7710   35.5400   44.4370 C   0  0  0  0  0  0  0  0  0  0  0  0
   45.5770   35.4670   43.2270 C   0  0  1  0  0  0  0  0  0  0  0  0
   46.6670   34.4820   43.2190 C   0  0  0  0  0  0  0  0  0  0  0  0
   46.2040   33.2270   43.9350 C   0  0  0  0  0  0  0  0  0  0  0  0
   44.6080   35.1960   42.0490 C   0  0  0  0  0  0  0  0  0  0  0  0
   43.5830   34.3420   42.3830 F   0  0  0  0  0  0  0  0  0  0  0  0
   44.0200   36.4180   41.7320 F   0  0  0  0  0  0  0  0  0  0  0  0
   45.3370   34.7900   40.9340 F   0  0  0  0  0  0  0  0  0  0  0  0
   46.1370   30.4670   44.7460 N   0  0  0  0  0  0  0  0  0  0  0  0
   45.1230   30.0960   43.9360 C   0  0  0  0  0  0  0  0  0  0  0  0
   45.6390   29.4780   42.8310 N   0  0  0  0  0  0  0  0  0  0  0  0
   46.9970   29.4720   42.9660 C   0  0  0  0  0  0  0  0  0  0  0  0
   48.0880   29.0310   42.2550 C   0  0  0  0  0  0  0  0  0  0  0  0
   49.3440   29.1810   42.6740 N   0  0  0  0  0  0  0  0  0  0  0  0
   49.6180   29.7870   43.8410 C   0  0  0  0  0  0  0  0  0  0  0  0
   48.5930   30.2550   44.6080 N   0  0  0  0  0  0  0  0  0  0  0  0
   47.3310   30.0960   44.1750 C   0  0  0  0  0  0  0  0  0  0  0  0
   47.7980   28.3840   41.0080 N   0  0  0  0  0  0  0  0  0  0  0  0
   45.5814   33.8548   47.9448 H   0  0  0  0  0  0  0  0  0  0  0  0
   44.9288   29.7257   50.0988 H   0  0  0  0  0  0  0  0  0  0  0  0
   45.1690   28.4978   48.8272 H   0  0  0  0  0  0  0  0  0  0  0  0
   47.1534   33.8370   45.5404 H   0  0  0  0  0  0  0  0  0  0  0  0
   44.3681   34.6471   46.4297 H   0  0  0  0  0  0  0  0  0  0  0  0
   43.9953   36.3146   44.5281 H   0  0  0  0  0  0  0  0  0  0  0  0
   46.1056   36.4284   43.1479 H   0  0  0  0  0  0  0  0  0  0  0  0
   46.9348   34.2367   42.1807 H   0  0  0  0  0  0  0  0  0  0  0  0
   47.5476   34.8981   43.7303 H   0  0  0  0  0  0  0  0  0  0  0  0
   45.2180   32.9203   43.5558 H   0  0  0  0  0  0  0  0  0  0  0  0
   46.9096   32.4006   43.7640 H   0  0  0  0  0  0  0  0  0  0  0  0
   44.0539   30.2638   44.1332 H   0  0  0  0  0  0  0  0  0  0  0  0
   50.6596   29.9045   44.1745 H   0  0  0  0  0  0  0  0  0  0  0  0
   46.8215   28.2761   40.6986 H   0  0  0  0  0  0  0  0  0  0  0  0
   48.5663   28.0273   40.4220 H   0  0  0  0  0  0  0  0  0  0  0  0
  1  6  2  0
  2  1  1  0
  3  2  2  0
  3  4  1  0
  4  5  2  0
  5  6  1  0
  5  7  1  0
  8  9  1  0
  8  2  1  0
 10  9  2  0
 11 10  1  0
 12 11  1  0
 12 13  1  0
 13  8  1  0
 14 15  1  0
 14 11  1  0
 16 14  1  0
 17 14  1  0
 18  3  1  0
 19 18  1  0
 20 21  1  0
 20 19  2  0
 21 26  2  0
 22 23  2  0
 22 21  1  0
 23 24  1  0
 24 25  2  0
 26 25  1  0
 26 18  1  0
 27 22  1  0
  1 28  1  0
  7 29  1  0
  7 30  1  0
  8 31  1  1
  9 32  1  0
 10 33  1  0
 11 34  1  6
 12 35  1  0
 12 36  1  0
 13 37  1  0
 13 38  1  0
 19 39  1  0
 24 40  1  0
 27 41  1  0
 27 42  1  0
M  ISO  8  28  14  31  13  32  13  33  13  34  13  35  13  36  13  37  13
M  ISO  3  38  13  39  14  40  14
M  END
>  <minimizedAffinity>  (1) 
-5.75828981

>  <minimizedRMSD>  (1) 
0.880492032

$$$$
