
     RDKit          3D

 37 41  0  0  0  0  0  0  0  0999 V2000
   44.4680   35.8610   44.2850 C   0  0  0  0  0  0  0  0  0  0  0  0
   45.3100   35.8650   43.1560 C   0  0  0  0  0  0  0  0  0  0  0  0
   46.3670   34.9840   43.1610 C   0  0  0  0  0  0  0  0  0  0  0  0
   46.5340   34.1820   44.2230 N   0  0  0  0  0  0  0  0  0  0  0  0
   45.7070   34.2010   45.2950 C   0  0  0  0  0  0  0  0  0  0  0  0
   44.6570   35.0430   45.3450 N   0  0  0  0  0  0  0  0  0  0  0  0
   45.9670   33.2940   46.4010 C   0  0  0  0  0  0  0  0  0  0  0  0
   45.0750   33.1300   47.4290 C   0  0  0  0  0  0  0  0  0  0  0  0
   45.5830   32.2150   48.3280 C   0  0  0  0  0  0  0  0  0  0  0  0
   46.7930   31.8390   47.8210 N   0  0  0  0  0  0  0  0  0  0  0  0
   47.0190   32.4780   46.6810 N   0  0  0  0  0  0  0  0  0  0  0  0
   49.0140   29.1840   48.7400 N   0  0  0  0  0  0  0  0  0  0  0  0
   47.9350   29.6220   48.0780 N   0  0  0  0  0  0  0  0  0  0  0  0
   47.7790   30.9300   48.2960 C   0  0  0  0  0  0  0  0  0  0  0  0
   48.8140   31.3570   49.1430 C   0  0  0  0  0  0  0  0  0  0  0  0
   49.5660   30.2310   49.3970 C   0  0  0  0  0  0  0  0  0  0  0  0
   47.2320   34.9700   42.0300 N   0  0  0  0  0  0  0  0  0  0  0  0
   48.4540   35.5320   41.8340 C   0  0  0  0  0  0  0  0  0  0  0  0
   48.8860   35.2390   40.5800 N   0  0  0  0  0  0  0  0  0  0  0  0
   47.9450   34.4850   39.9570 C   0  0  0  0  0  0  0  0  0  0  0  0
   47.8060   33.8960   38.7160 C   0  0  0  0  0  0  0  0  0  0  0  0
   46.7140   33.1820   38.3830 N   0  0  0  0  0  0  0  0  0  0  0  0
   45.7250   33.0320   39.2770 C   0  0  0  0  0  0  0  0  0  0  0  0
   45.8620   33.6100   40.4920 N   0  0  0  0  0  0  0  0  0  0  0  0
   46.9220   34.3260   40.8720 C   0  0  0  0  0  0  0  0  0  0  0  0
   48.8490   34.0520   37.7660 N   0  0  0  0  0  0  0  0  0  0  0  0
   43.6160   36.5565   44.3055 H   0  0  0  0  0  0  0  0  0  0  0  0
   45.1306   36.5423   42.3080 H   0  0  0  0  0  0  0  0  0  0  0  0
   44.1080   33.6459   47.5223 H   0  0  0  0  0  0  0  0  0  0  0  0
   45.1120   31.8628   49.2576 H   0  0  0  0  0  0  0  0  0  0  0  0
   49.3641   28.2154   48.7478 H   0  0  0  0  0  0  0  0  0  0  0  0
   48.9876   32.3745   49.5231 H   0  0  0  0  0  0  0  0  0  0  0  0
   50.4656   30.1896   50.0287 H   0  0  0  0  0  0  0  0  0  0  0  0
   49.0060   36.1298   42.5742 H   0  0  0  0  0  0  0  0  0  0  0  0
   44.8239   32.4525   39.0277 H   0  0  0  0  0  0  0  0  0  0  0  0
   48.7657   33.6209   36.8343 H   0  0  0  0  0  0  0  0  0  0  0  0
   49.6892   34.5963   38.0083 H   0  0  0  0  0  0  0  0  0  0  0  0
  1  6  2  0
  2  3  2  0
  2  1  1  0
  3  4  1  0
  4  5  2  0
  5  6  1  0
  5  7  1  0
  7 11  2  0
  7  8  1  0
  8  9  2  0
 10 14  1  0
 10  9  1  0
 11 10  1  0
 12 16  1  0
 13 14  2  0
 13 12  1  0
 14 15  1  0
 15 16  2  0
 17  3  1  0
 18 17  1  0
 19 18  2  0
 20 19  1  0
 20 25  2  0
 21 20  1  0
 22 21  2  0
 22 23  1  0
 23 24  2  0
 24 25  1  0
 25 17  1  0
 26 21  1  0
  1 27  1  0
  2 28  1  0
  8 29  1  0
  9 30  1  0
 12 31  1  0
 15 32  1  0
 16 33  1  0
 18 34  1  0
 23 35  1  0
 26 36  1  0
 26 37  1  0
M  END
>  <minimizedAffinity>  (1) 
-7.60359049

>  <minimizedRMSD>  (1) 
0.810165405

$$$$
