
     RDKit          3D

 52 57  0  0  1  0  0  0  0  0999 V2000
   49.2570   35.2790   42.0530 C   0  0  0  0  0  0  0  0  0  0  0  0
   46.9630   34.4210   41.3890 C   0  0  0  0  0  0  0  0  0  0  0  0
   48.2800   34.7130   41.0750 C   0  0  0  0  0  0  0  0  0  0  0  0
   48.5360   34.4220   39.8080 N   0  0  0  0  0  0  0  0  0  0  0  0
   47.3950   33.9400   39.2860 C   0  0  0  0  0  0  0  0  0  0  0  0
   47.1140   33.4870   37.9950 C   0  0  0  0  0  0  0  0  0  0  0  0
   45.8470   33.0380   37.7180 C   0  0  0  0  0  0  0  0  0  0  0  0
   44.8190   33.0010   38.6260 C   0  0  0  0  0  0  0  0  0  0  0  0
   45.1490   33.4590   39.8800 C   0  0  0  0  0  0  0  0  0  0  0  0
   46.3870   33.9220   40.2410 C   0  0  0  0  0  0  0  0  0  0  0  0
   44.8230   35.8700   44.0740 C   0  0  0  0  0  0  0  0  0  0  0  0
   45.4700   35.7140   42.8310 C   0  0  0  0  0  0  0  0  0  0  0  0
   46.2840   34.5940   42.6770 C   0  0  0  0  0  0  0  0  0  0  0  0
   46.4320   33.6970   43.7070 N   0  0  0  0  0  0  0  0  0  0  0  0
   45.7800   33.9100   44.8740 C   0  0  0  0  0  0  0  0  0  0  0  0
   44.9800   34.9790   45.0720 N   0  0  0  0  0  0  0  0  0  0  0  0
   50.2060   34.2520   42.5430 C   0  0  0  0  0  0  0  0  0  0  0  0
   50.1160   32.9250   41.8500 C   0  0  1  0  0  0  0  0  0  0  0  0
   51.2690   32.1920   41.3140 C   0  0  0  0  0  0  0  0  0  0  0  0
   50.7340   31.7600   42.6370 C   0  0  2  0  0  0  0  0  0  0  0  0
   50.0990   30.5470   42.6750 O   0  0  0  0  0  0  0  0  0  0  0  0
   50.1140   29.8380   43.8840 C   0  0  0  0  0  0  0  0  0  0  0  0
   51.2170   29.1970   44.2880 N   0  0  0  0  0  0  0  0  0  0  0  0
   51.2930   28.4890   45.4530 C   0  0  0  0  0  0  0  0  0  0  0  0
   50.2010   28.4360   46.2380 N   0  0  0  0  0  0  0  0  0  0  0  0
   49.0710   29.0640   45.8720 C   0  0  0  0  0  0  0  0  0  0  0  0
   47.9630   28.9810   46.7160 C   0  0  0  0  0  0  0  0  0  0  0  0
   46.7790   29.6090   46.3840 C   0  0  0  0  0  0  0  0  0  0  0  0
   46.7740   30.2980   45.2060 C   0  0  0  0  0  0  0  0  0  0  0  0
   47.8270   30.4300   44.3130 C   0  0  0  0  0  0  0  0  0  0  0  0
   48.9880   29.7820   44.6930 C   0  0  0  0  0  0  0  0  0  0  0  0
   48.7042   35.6904   42.9104 H   0  0  0  0  0  0  0  0  0  0  0  0
   49.8361   36.0622   41.5420 H   0  0  0  0  0  0  0  0  0  0  0  0
   49.4343   34.5418   39.3185 H   0  0  0  0  0  0  0  0  0  0  0  0
   47.8915   33.4900   37.2169 H   0  0  0  0  0  0  0  0  0  0  0  0
   45.6414   32.6832   36.6973 H   0  0  0  0  0  0  0  0  0  0  0  0
   43.8133   32.6350   38.3717 H   0  0  0  0  0  0  0  0  0  0  0  0
   44.3622   33.4532   40.6488 H   0  0  0  0  0  0  0  0  0  0  0  0
   44.1726   36.7427   44.2330 H   0  0  0  0  0  0  0  0  0  0  0  0
   45.3379   36.4442   42.0190 H   0  0  0  0  0  0  0  0  0  0  0  0
   45.9068   33.1849   45.6914 H   0  0  0  0  0  0  0  0  0  0  0  0
   51.2270   34.6388   42.4087 H   0  0  0  0  0  0  0  0  0  0  0  0
   49.9441   34.0680   43.5954 H   0  0  0  0  0  0  0  0  0  0  0  0
   49.1614   33.2105   41.3839 H   0  0  0  0  0  0  0  0  0  0  0  0
   51.1385   31.5411   40.4369 H   0  0  0  0  0  0  0  0  0  0  0  0
   52.2644   32.4930   40.9553 H   0  0  0  0  0  0  0  0  0  0  0  0
   51.1131   31.6384   43.6624 H   0  0  0  0  0  0  0  0  0  0  0  0
   52.2219   27.9757   45.7423 H   0  0  0  0  0  0  0  0  0  0  0  0
   48.0334   28.4104   47.6538 H   0  0  0  0  0  0  0  0  0  0  0  0
   45.8913   29.5570   47.0315 H   0  0  0  0  0  0  0  0  0  0  0  0
   45.8346   30.8025   44.9359 H   0  0  0  0  0  0  0  0  0  0  0  0
   47.7452   31.0038   43.3781 H   0  0  0  0  0  0  0  0  0  0  0  0
  1 17  1  0
  2 13  1  0
  3  2  2  0
  3  1  1  0
  4  3  1  0
  5  4  1  0
  5 10  2  0
  6  5  1  0
  7  6  2  0
  7  8  1  0
  8  9  2  0
  9 10  1  0
 10  2  1  0
 11 16  2  0
 12 11  1  0
 13 12  2  0
 13 14  1  0
 14 15  2  0
 15 16  1  0
 18 17  1  0
 18 20  1  0
 19 18  1  0
 19 20  1  0
 20 21  1  0
 21 22  1  0
 22 23  2  0
 22 31  1  0
 23 24  1  0
 24 25  2  0
 26 25  1  0
 26 27  2  0
 28 27  1  0
 29 28  2  0
 30 31  2  0
 30 29  1  0
 31 26  1  0
  1 32  1  0
  1 33  1  0
  4 34  1  0
  6 35  1  0
  7 36  1  0
  8 37  1  0
  9 38  1  0
 11 39  1  0
 12 40  1  0
 15 41  1  0
 17 42  1  0
 17 43  1  0
 18 44  1  6
 19 45  1  0
 19 46  1  0
 20 47  1  1
 24 48  1  0
 27 49  1  0
 28 50  1  0
 29 51  1  0
 30 52  1  0
M  ISO  8  32   8  33   8  34   9  35  14  36  14  37  14  38  14  39  14
M  ISO  8  40  14  41  14  42   8  43   8  44  13  45  13  46  13  47  13
M  ISO  5  48  14  49  14  50  14  51  14  52  14
M  END
>  <minimizedAffinity>  (1) 
-6.08721018

>  <minimizedRMSD>  (1) 
2.90470505

$$$$
