
     RDKit          3D

 52 56  0  0  0  0  0  0  0  0999 V2000
   46.5080   34.4840   41.5170 N   0  0  0  0  0  0  0  0  0  0  0  0
   47.7040   35.1790   41.4290 C   0  0  0  0  0  0  0  0  0  0  0  0
   48.4970   35.0880   40.3230 C   0  0  0  0  0  0  0  0  0  0  0  0
   48.0630   34.2680   39.2790 C   0  0  0  0  0  0  0  0  0  0  0  0
   48.7720   34.1750   38.2570 O   0  0  0  0  0  0  0  0  0  0  0  0
   46.8950   33.6160   39.4210 N   0  0  0  0  0  0  0  0  0  0  0  0
   46.1360   33.7270   40.5190 C   0  0  0  0  0  0  0  0  0  0  0  0
   45.0730   33.1740   40.7060 O   0  0  0  0  0  0  0  0  0  0  0  0
   44.3980   36.1200   44.0690 C   0  0  0  0  0  0  0  0  0  0  0  0
   45.0290   35.8620   42.8320 C   0  0  0  0  0  0  0  0  0  0  0  0
   45.8650   34.7480   42.7760 C   0  0  0  0  0  0  0  0  0  0  0  0
   46.0490   33.9680   43.8680 N   0  0  0  0  0  0  0  0  0  0  0  0
   45.4140   34.2660   45.0380 C   0  0  0  0  0  0  0  0  0  0  0  0
   44.6080   35.3130   45.1450 N   0  0  0  0  0  0  0  0  0  0  0  0
   45.6580   33.3990   46.1410 N   0  0  0  0  0  0  0  0  0  0  0  0
   45.1690   33.6330   47.3940 C   0  0  0  0  0  0  0  0  0  0  0  0
   45.5260   32.6780   48.2840 N   0  0  0  0  0  0  0  0  0  0  0  0
   46.2670   31.8070   47.5750 C   0  0  0  0  0  0  0  0  0  0  0  0
   46.9390   30.6150   47.8560 C   0  0  0  0  0  0  0  0  0  0  0  0
   47.6210   29.9430   46.9090 N   0  0  0  0  0  0  0  0  0  0  0  0
   47.6520   30.4360   45.6590 C   0  0  0  0  0  0  0  0  0  0  0  0
   47.0200   31.5810   45.3400 N   0  0  0  0  0  0  0  0  0  0  0  0
   46.3460   32.2490   46.2680 C   0  0  0  0  0  0  0  0  0  0  0  0
   46.8430   30.1760   49.2180 N   0  0  0  0  0  0  0  0  0  0  0  0
   46.4200   32.7680   38.4010 C   0  0  0  0  0  0  0  0  0  0  0  0
   45.6030   33.1800   37.3740 C   0  0  0  0  0  0  0  0  0  0  0  0
   45.1750   32.3020   36.4090 C   0  0  0  0  0  0  0  0  0  0  0  0
   45.5590   30.9790   36.4500 C   0  0  0  0  0  0  0  0  0  0  0  0
   46.3650   30.5940   37.4730 C   0  0  0  0  0  0  0  0  0  0  0  0
   46.8340   31.4430   38.4860 C   0  0  0  0  0  0  0  0  0  0  0  0
   47.7200   30.9150   39.5600 C   0  0  0  0  0  0  0  0  0  0  0  0
   49.0730   31.5300   39.6280 C   0  0  0  0  0  0  0  0  0  0  0  0
   47.1260   31.0050   40.9300 C   0  0  0  0  0  0  0  0  0  0  0  0
   48.0199   35.8166   42.2678 H   0  0  0  0  0  0  0  0  0  0  0  0
   49.4454   35.6412   40.2556 H   0  0  0  0  0  0  0  0  0  0  0  0
   43.7267   36.9862   44.1644 H   0  0  0  0  0  0  0  0  0  0  0  0
   44.8687   36.5081   41.9563 H   0  0  0  0  0  0  0  0  0  0  0  0
   44.5505   34.5051   47.6527 H   0  0  0  0  0  0  0  0  0  0  0  0
   48.2059   29.8920   44.8797 H   0  0  0  0  0  0  0  0  0  0  0  0
   47.3090   29.3060   49.5127 H   0  0  0  0  0  0  0  0  0  0  0  0
   46.3081   30.7307   49.9014 H   0  0  0  0  0  0  0  0  0  0  0  0
   45.2867   34.2324   37.3249 H   0  0  0  0  0  0  0  0  0  0  0  0
   44.5217   32.6567   35.5982 H   0  0  0  0  0  0  0  0  0  0  0  0
   45.2258   30.2631   35.6842 H   0  0  0  0  0  0  0  0  0  0  0  0
   46.6726   29.5385   37.5098 H   0  0  0  0  0  0  0  0  0  0  0  0
   47.8250   29.8634   39.2549 H   0  0  0  0  0  0  0  0  0  0  0  0
   49.3633   31.6620   40.6808 H   0  0  0  0  0  0  0  0  0  0  0  0
   49.7997   30.8737   39.1268 H   0  0  0  0  0  0  0  0  0  0  0  0
   49.0564   32.5090   39.1268 H   0  0  0  0  0  0  0  0  0  0  0  0
   47.9195   30.8848   41.6823 H   0  0  0  0  0  0  0  0  0  0  0  0
   46.6454   31.9862   41.0575 H   0  0  0  0  0  0  0  0  0  0  0  0
   46.3763   30.2102   41.0575 H   0  0  0  0  0  0  0  0  0  0  0  0
  1 11  1  0
  2  1  1  0
  3  2  2  0
  4  6  1  0
  4  3  1  0
  5  4  2  0
  6  7  1  0
  7  8  2  0
  7  1  1  0
  9 14  2  0
 10  9  1  0
 11 10  2  0
 11 12  1  0
 12 13  2  0
 13 14  1  0
 13 15  1  0
 15 23  1  0
 15 16  1  0
 16 17  2  0
 18 19  2  0
 18 17  1  0
 19 24  1  0
 20 19  1  0
 21 20  2  0
 22 21  1  0
 22 23  2  0
 23 18  1  0
 25 30  1  0
 25  6  1  0
 26 25  2  0
 27 28  2  0
 27 26  1  0
 28 29  1  0
 29 30  2  0
 30 31  1  0
 31 32  1  0
 31 33  1  0
  2 34  1  0
  3 35  1  0
  9 36  1  0
 10 37  1  0
 16 38  1  0
 21 39  1  0
 24 40  1  0
 24 41  1  0
 26 42  1  0
 27 43  1  0
 28 44  1  0
 29 45  1  0
 31 46  1  0
 32 47  1  0
 32 48  1  0
 32 49  1  0
 33 50  1  0
 33 51  1  0
 33 52  1  0
M  ISO  8  34  14  35  14  36  14  37  14  38  14  39  14  42  14  43  14
M  ISO  8  44  14  45  14  46   8  47   8  48   8  49   8  50   8  51   8
M  ISO  1  52   8
M  END
>  <minimizedAffinity>  (1) 
-6.9570365

>  <minimizedRMSD>  (1) 
0.503913581

$$$$
