
     RDKit          3D

 45 49  0  0  1  0  0  0  0  0999 V2000
   49.1930   29.4870   49.1920 N   0  0  0  0  0  0  0  0  0  0  0  0
   49.5470   28.2230   48.6170 C   0  0  0  0  0  0  0  0  0  0  0  0
   51.0380   28.0050   48.5790 C   0  0  0  0  0  0  0  0  0  0  0  0
   51.7270   28.5980   49.7760 C   0  0  0  0  0  0  0  0  0  0  0  0
   50.7260   28.8070   50.9160 C   0  0  0  0  0  0  0  0  0  0  0  0
   49.7850   29.8800   50.4580 C   0  0  1  0  0  0  0  0  0  0  0  0
   50.3740   31.1860   50.4570 N   0  0  0  0  0  0  0  0  0  0  0  0
   50.4310   32.1000   49.4590 C   0  0  0  0  0  0  0  0  0  0  0  0
   51.0890   33.2050   49.9060 N   0  0  0  0  0  0  0  0  0  0  0  0
   51.4500   32.9960   51.1830 C   0  0  0  0  0  0  0  0  0  0  0  0
   52.1150   33.6750   52.1890 C   0  0  0  0  0  0  0  0  0  0  0  0
   52.3220   33.1690   53.4130 N   0  0  0  0  0  0  0  0  0  0  0  0
   51.8760   31.9420   53.7130 C   0  0  0  0  0  0  0  0  0  0  0  0
   51.2260   31.2550   52.7600 N   0  0  0  0  0  0  0  0  0  0  0  0
   51.0060   31.7320   51.5370 C   0  0  0  0  0  0  0  0  0  0  0  0
   52.5960   34.9820   51.8820 N   0  0  0  0  0  0  0  0  0  0  0  0
   46.8730   32.2310   47.3160 C   0  0  0  0  0  0  0  0  0  0  0  0
   46.5550   32.0350   48.6340 C   0  0  0  0  0  0  0  0  0  0  0  0
   47.2720   31.1380   49.3450 C   0  0  0  0  0  0  0  0  0  0  0  0
   48.2890   30.4790   48.6750 C   0  0  0  0  0  0  0  0  0  0  0  0
   48.2260   31.1340   47.0310 S   0  0  0  0  0  0  0  0  0  0  0  0
   44.7240   34.7610   45.7450 C   0  0  0  0  0  0  0  0  0  0  0  0
   45.2130   34.7540   44.4150 C   0  0  0  0  0  0  0  0  0  0  0  0
   46.2640   33.8830   44.0940 C   0  0  0  0  0  0  0  0  0  0  0  0
   46.7800   33.0730   45.0770 N   0  0  0  0  0  0  0  0  0  0  0  0
   46.2890   33.1100   46.3230 C   0  0  0  0  0  0  0  0  0  0  0  0
   45.2730   33.9450   46.6590 N   0  0  0  0  0  0  0  0  0  0  0  0
   49.0883   27.4221   49.2154 H   0  0  0  0  0  0  0  0  0  0  0  0
   49.1805   28.2125   47.5799 H   0  0  0  0  0  0  0  0  0  0  0  0
   51.2378   26.9236   48.5544 H   0  0  0  0  0  0  0  0  0  0  0  0
   51.4304   28.5040   47.6807 H   0  0  0  0  0  0  0  0  0  0  0  0
   52.5222   27.9161   50.1118 H   0  0  0  0  0  0  0  0  0  0  0  0
   52.1580   29.5704   49.4955 H   0  0  0  0  0  0  0  0  0  0  0  0
   50.1746   27.8760   51.1142 H   0  0  0  0  0  0  0  0  0  0  0  0
   51.2354   29.0930   51.8480 H   0  0  0  0  0  0  0  0  0  0  0  0
   48.9700   29.9768   51.1904 H   0  0  0  0  0  0  0  0  0  0  0  0
   50.0130   31.9704   48.4498 H   0  0  0  0  0  0  0  0  0  0  0  0
   52.0377   31.5097   54.7115 H   0  0  0  0  0  0  0  0  0  0  0  0
   53.0973   35.5275   52.5976 H   0  0  0  0  0  0  0  0  0  0  0  0
   52.4421   35.3804   50.9447 H   0  0  0  0  0  0  0  0  0  0  0  0
   45.7334   32.5961   49.1032 H   0  0  0  0  0  0  0  0  0  0  0  0
   47.0582   30.9404   50.4058 H   0  0  0  0  0  0  0  0  0  0  0  0
   43.8989   35.4315   46.0271 H   0  0  0  0  0  0  0  0  0  0  0  0
   44.7782   35.4165   43.6521 H   0  0  0  0  0  0  0  0  0  0  0  0
   46.6689   33.8486   43.0718 H   0  0  0  0  0  0  0  0  0  0  0  0
  1  6  1  0
  2  1  1  0
  3  2  1  0
  3  4  1  0
  4  5  1  0
  6  5  1  0
  7  6  1  0
  7 15  1  0
  8  9  2  0
  8  7  1  0
  9 10  1  0
 10 15  2  0
 10 11  1  0
 11 12  2  0
 12 13  1  0
 14 13  2  0
 15 14  1  0
 16 11  1  0
 17 18  2  0
 18 19  1  0
 20  1  1  0
 20 19  2  0
 21 17  1  0
 21 20  1  0
 22 27  2  0
 23 22  1  0
 24 23  2  0
 24 25  1  0
 25 26  2  0
 26 27  1  0
 26 17  1  0
  2 28  1  0
  2 29  1  0
  3 30  1  0
  3 31  1  0
  4 32  1  0
  4 33  1  0
  5 34  1  0
  5 35  1  0
  6 36  1  1
  8 37  1  0
 13 38  1  0
 16 39  1  0
 16 40  1  0
 18 41  1  0
 19 42  1  0
 22 43  1  0
 23 44  1  0
 24 45  1  0
M  ISO  8  28  13  29  13  30  13  31  13  32  13  33  13  34  13  35  13
M  ISO  8  36  13  37  14  38  14  41  14  42  14  43  14  44  14  45  14
M  END
>  <minimizedAffinity>  (1) 
-5.48479271

>  <minimizedRMSD>  (1) 
2.12857819

$$$$
