
     RDKit          3D

 45 48  0  0  1  0  0  0  0  0999 V2000
   45.8950   33.9800   40.3200 C   0  0  1  0  0  0  0  0  0  0  0  0
   46.7790   33.3720   39.2370 C   0  0  0  0  0  0  0  0  0  0  0  0
   45.8680   32.8690   38.1460 C   0  0  0  0  0  0  0  0  0  0  0  0
   44.9990   31.7410   38.6530 C   0  0  0  0  0  0  0  0  0  0  0  0
   45.1790   31.5580   40.1410 C   0  0  0  0  0  0  0  0  0  0  0  0
   45.0430   32.8870   40.8850 C   0  0  2  0  0  0  0  0  0  0  0  0
   43.6280   33.1410   40.8950 N   0  0  0  0  0  0  0  0  0  0  0  0
   43.1130   34.2410   40.2680 C   0  0  0  0  0  0  0  0  0  0  0  0
   41.7800   34.2270   40.4380 N   0  0  0  0  0  0  0  0  0  0  0  0
   41.4140   33.1630   41.1500 C   0  0  0  0  0  0  0  0  0  0  0  0
   40.2510   32.6100   41.6380 C   0  0  0  0  0  0  0  0  0  0  0  0
   40.2280   31.4560   42.3660 N   0  0  0  0  0  0  0  0  0  0  0  0
   41.4060   30.8380   42.6100 C   0  0  0  0  0  0  0  0  0  0  0  0
   42.5430   31.3770   42.1340 N   0  0  0  0  0  0  0  0  0  0  0  0
   42.5950   32.4980   41.4230 C   0  0  0  0  0  0  0  0  0  0  0  0
   39.0290   33.2760   41.3690 N   0  0  0  0  0  0  0  0  0  0  0  0
   46.7800   34.5840   41.4250 C   0  0  0  0  0  0  0  0  0  0  0  0
   46.6470   33.6620   42.6090 C   0  0  0  0  0  0  0  0  0  0  0  0
   45.8390   33.6630   44.9120 C   0  0  0  0  0  0  0  0  0  0  0  0
   45.9180   34.2960   43.6640 C   0  0  0  0  0  0  0  0  0  0  0  0
   45.2850   35.5030   43.4890 C   0  0  0  0  0  0  0  0  0  0  0  0
   44.6030   36.0380   44.5460 N   0  0  0  0  0  0  0  0  0  0  0  0
   44.5310   35.4210   45.7510 C   0  0  0  0  0  0  0  0  0  0  0  0
   45.1510   34.2310   45.9300 N   0  0  0  0  0  0  0  0  0  0  0  0
   45.2615   34.7770   39.9035 H   0  0  0  0  0  0  0  0  0  0  0  0
   47.4616   34.1354   38.8355 H   0  0  0  0  0  0  0  0  0  0  0  0
   47.3877   32.5519   39.6455 H   0  0  0  0  0  0  0  0  0  0  0  0
   46.4776   32.5054   37.3056 H   0  0  0  0  0  0  0  0  0  0  0  0
   45.2196   33.6949   37.8181 H   0  0  0  0  0  0  0  0  0  0  0  0
   43.9448   31.9743   38.4425 H   0  0  0  0  0  0  0  0  0  0  0  0
   45.2924   30.8112   38.1436 H   0  0  0  0  0  0  0  0  0  0  0  0
   44.4136   30.8601   40.5113 H   0  0  0  0  0  0  0  0  0  0  0  0
   46.1886   31.1605   40.3222 H   0  0  0  0  0  0  0  0  0  0  0  0
   45.4337   32.8416   41.9123 H   0  0  0  0  0  0  0  0  0  0  0  0
   43.6879   35.0028   39.7211 H   0  0  0  0  0  0  0  0  0  0  0  0
   41.4341   29.9046   43.1914 H   0  0  0  0  0  0  0  0  0  0  0  0
   38.1423   32.8872   41.7205 H   0  0  0  0  0  0  0  0  0  0  0  0
   39.0277   34.1488   40.8220 H   0  0  0  0  0  0  0  0  0  0  0  0
   47.8276   34.6320   41.0930 H   0  0  0  0  0  0  0  0  0  0  0  0
   46.4713   35.6099   41.6747 H   0  0  0  0  0  0  0  0  0  0  0  0
   46.1146   32.7507   42.2991 H   0  0  0  0  0  0  0  0  0  0  0  0
   47.6529   33.4101   42.9759 H   0  0  0  0  0  0  0  0  0  0  0  0
   46.3405   32.6961   45.0656 H   0  0  0  0  0  0  0  0  0  0  0  0
   45.3261   36.0259   42.5221 H   0  0  0  0  0  0  0  0  0  0  0  0
   43.9725   35.8842   46.5777 H   0  0  0  0  0  0  0  0  0  0  0  0
  1  6  1  0
  1 17  1  0
  2  1  1  0
  3  4  1  0
  3  2  1  0
  4  5  1  0
  5  6  1  0
  6  7  1  0
  7 15  1  0
  8  9  2  0
  8  7  1  0
  9 10  1  0
 10 15  2  0
 10 11  1  0
 11 12  2  0
 12 13  1  0
 14 13  2  0
 15 14  1  0
 16 11  1  0
 17 18  1  0
 18 20  1  0
 19 24  2  0
 20 19  1  0
 21 20  2  0
 21 22  1  0
 22 23  2  0
 23 24  1  0
  1 25  1  6
  2 26  1  0
  2 27  1  0
  3 28  1  0
  3 29  1  0
  4 30  1  0
  4 31  1  0
  5 32  1  0
  5 33  1  0
  6 34  1  1
  8 35  1  0
 13 36  1  0
 16 37  1  0
 16 38  1  0
 17 39  1  0
 17 40  1  0
 18 41  1  0
 18 42  1  0
 19 43  1  0
 21 44  1  0
 23 45  1  0
M  ISO  8  25  13  26  13  27  13  28  13  29  13  30  13  31  13  32  13
M  ISO  8  33  13  34  13  35  14  36  14  39   8  40   8  41   8  42   8
M  ISO  3  43  14  44  14  45  14
M  END
>  <minimizedAffinity>  (1) 
-5.52873087

>  <minimizedRMSD>  (1) 
4.16097975

$$$$
