
     RDKit          3D

 35 38  0  0  0  0  0  0  0  0999 V2000
   46.1860   30.3990   49.1390 N   0  0  0  0  0  0  0  0  0  0  0  0
   45.3050   31.3950   49.4240 C   0  0  0  0  0  0  0  0  0  0  0  0
   45.2320   32.2190   48.3510 N   0  0  0  0  0  0  0  0  0  0  0  0
   46.0760   31.7040   47.4280 C   0  0  0  0  0  0  0  0  0  0  0  0
   46.3240   32.2140   46.1790 C   0  0  0  0  0  0  0  0  0  0  0  0
   47.2210   31.5330   45.3950 N   0  0  0  0  0  0  0  0  0  0  0  0
   47.8220   30.4220   45.8400 C   0  0  0  0  0  0  0  0  0  0  0  0
   47.5470   29.9680   47.0610 N   0  0  0  0  0  0  0  0  0  0  0  0
   46.6870   30.5650   47.8930 C   0  0  0  0  0  0  0  0  0  0  0  0
   48.7600   29.6680   45.0810 N   0  0  0  0  0  0  0  0  0  0  0  0
   49.3260   28.5830   45.6860 C   0  0  0  0  0  0  0  0  0  0  0  0
   50.2420   27.8490   44.9410 C   0  0  0  0  0  0  0  0  0  0  0  0
   50.5960   28.1680   43.6400 C   0  0  0  0  0  0  0  0  0  0  0  0
   51.4290   27.4860   42.9860 O   0  0  0  0  0  0  0  0  0  0  0  0
   49.9980   29.2490   43.1110 N   0  0  0  0  0  0  0  0  0  0  0  0
   49.1060   29.9860   43.8000 C   0  0  0  0  0  0  0  0  0  0  0  0
   48.5310   31.0080   43.3230 O   0  0  0  0  0  0  0  0  0  0  0  0
   45.6280   33.6560   45.4320 S   0  0  0  0  0  0  0  0  0  0  0  0
   47.7700   34.7100   42.3370 C   0  0  0  0  0  0  0  0  0  0  0  0
   47.0610   34.3340   41.2130 C   0  0  0  0  0  0  0  0  0  0  0  0
   45.8360   33.7120   41.4150 C   0  0  0  0  0  0  0  0  0  0  0  0
   45.4110   33.5110   42.6950 N   0  0  0  0  0  0  0  0  0  0  0  0
   46.1440   33.8990   43.7550 C   0  0  0  0  0  0  0  0  0  0  0  0
   47.3220   34.4980   43.5830 N   0  0  0  0  0  0  0  0  0  0  0  0
   49.0740   35.3730   42.1400 C   0  0  0  0  0  0  0  0  0  0  0  0
   49.2460   36.1470   41.1720 O   0  0  0  0  0  0  0  0  0  0  0  0
   50.1040   35.1320   43.0310 O   0  0  0  0  0  0  0  0  0  0  0  0
   46.4354   29.6307   49.7781 H   0  0  0  0  0  0  0  0  0  0  0  0
   44.7471   31.5117   50.3648 H   0  0  0  0  0  0  0  0  0  0  0  0
   49.0686   28.3018   46.7178 H   0  0  0  0  0  0  0  0  0  0  0  0
   50.7097   26.9699   45.4084 H   0  0  0  0  0  0  0  0  0  0  0  0
   50.2298   29.5232   42.1456 H   0  0  0  0  0  0  0  0  0  0  0  0
   47.4501   34.5193   40.2009 H   0  0  0  0  0  0  0  0  0  0  0  0
   45.2221   33.3886   40.5614 H   0  0  0  0  0  0  0  0  0  0  0  0
   50.9811   35.5734   42.9048 H   0  0  0  0  0  0  0  0  0  0  0  0
  1  2  1  0
  3  2  2  0
  4  9  2  0
  4  3  1  0
  5  4  1  0
  6  7  1  0
  6  5  2  0
  7  8  2  0
  8  9  1  0
  9  1  1  0
 10 11  1  0
 10  7  1  0
 12 11  2  0
 13 12  1  0
 14 13  2  0
 15 13  1  0
 15 16  1  0
 16 10  1  0
 17 16  2  0
 18  5  1  0
 19 24  2  0
 20 21  2  0
 20 19  1  0
 21 22  1  0
 22 23  2  0
 23 18  1  0
 24 23  1  0
 25 19  1  0
 25 27  1  0
 26 25  2  0
  1 28  1  0
  2 29  1  0
 11 30  1  0
 12 31  1  0
 15 32  1  0
 20 33  1  0
 21 34  1  0
 27 35  1  0
M  ISO  8  28   9  29  14  30  14  31  14  32   9  33  14  34  14  35   3
M  END
>  <minimizedAffinity>  (1) 
-6.17283058

>  <minimizedRMSD>  (1) 
0.218436196

$$$$
