
     RDKit          3D

 27 29  0  0  0  0  0  0  0  0999 V2000
   45.0950   33.9000   41.5550 N   0  0  0  0  0  0  0  0  0  0  0  0
   46.1250   33.4840   40.8500 C   0  0  0  0  0  0  0  0  0  0  0  0
   45.7060   33.2500   39.5320 C   0  0  0  0  0  0  0  0  0  0  0  0
   44.4040   33.5390   39.4750 N   0  0  0  0  0  0  0  0  0  0  0  0
   44.0180   33.9400   40.7160 C   0  0  0  0  0  0  0  0  0  0  0  0
   44.5630   35.5810   43.1740 C   0  0  0  0  0  0  0  0  0  0  0  0
   45.0330   34.2530   42.9020 C   0  0  0  0  0  0  0  0  0  0  0  0
   45.3760   33.4470   43.9920 C   0  0  0  0  0  0  0  0  0  0  0  0
   45.2500   33.9610   45.2510 N   0  0  0  0  0  0  0  0  0  0  0  0
   44.8050   35.2190   45.4670 C   0  0  0  0  0  0  0  0  0  0  0  0
   44.4630   36.0250   44.4340 N   0  0  0  0  0  0  0  0  0  0  0  0
   47.4650   33.2660   41.2110 N   0  0  0  0  0  0  0  0  0  0  0  0
   47.8840   32.0340   41.6310 C   0  0  0  0  0  0  0  0  0  0  0  0
   49.1520   31.6530   42.0140 C   0  0  0  0  0  0  0  0  0  0  0  0
   50.1040   32.6520   41.9630 C   0  0  0  0  0  0  0  0  0  0  0  0
   51.2800   32.3650   42.3030 O   0  0  0  0  0  0  0  0  0  0  0  0
   49.7280   33.8750   41.5560 N   0  0  0  0  0  0  0  0  0  0  0  0
   48.4720   34.1950   41.1900 C   0  0  0  0  0  0  0  0  0  0  0  0
   48.1400   35.3510   40.8110 O   0  0  0  0  0  0  0  0  0  0  0  0
   46.3330   32.8948   38.7009 H   0  0  0  0  0  0  0  0  0  0  0  0
   43.0005   34.2476   40.9989 H   0  0  0  0  0  0  0  0  0  0  0  0
   44.2821   36.2409   42.3400 H   0  0  0  0  0  0  0  0  0  0  0  0
   45.7398   32.4203   43.8386 H   0  0  0  0  0  0  0  0  0  0  0  0
   44.7194   35.5937   46.4977 H   0  0  0  0  0  0  0  0  0  0  0  0
   47.1135   31.2497   41.6678 H   0  0  0  0  0  0  0  0  0  0  0  0
   49.3883   30.6283   42.3366 H   0  0  0  0  0  0  0  0  0  0  0  0
   50.4444   34.6142   41.5216 H   0  0  0  0  0  0  0  0  0  0  0  0
  1  7  1  0
  2 12  1  0
  2  1  1  0
  3  2  2  0
  4  3  1  0
  4  5  2  0
  5  1  1  0
  6 11  2  0
  7  6  1  0
  7  8  2  0
  8  9  1  0
  9 10  2  0
 11 10  1  0
 12 13  1  0
 13 14  2  0
 15 14  1  0
 15 16  2  0
 17 15  1  0
 18 12  1  0
 18 17  1  0
 19 18  2  0
  3 20  1  0
  5 21  1  0
  6 22  1  0
  8 23  1  0
 10 24  1  0
 13 25  1  0
 14 26  1  0
 17 27  1  0
M  ISO  8  20  14  21  14  22  14  23  14  24  14  25  14  26  14  27   9
M  END
>  <minimizedAffinity>  (1) 
-4.62702703

>  <minimizedRMSD>  (1) 
2.78014374

$$$$
