
     RDKit          3D

 34 36  0  0  1  0  0  0  0  0999 V2000
   46.2230   32.9730   45.1360 C   0  0  2  0  0  0  0  0  0  0  0  0
   45.9790   31.5130   44.8250 C   0  0  0  0  0  0  0  0  0  0  0  0
   46.3100   30.5570   45.8580 C   0  0  0  0  0  0  0  0  0  0  0  0
   46.8570   31.0030   47.1410 C   0  0  2  0  0  0  0  0  0  0  0  0
   47.1220   32.4500   47.2880 C   0  0  0  0  0  0  0  0  0  0  0  0
   46.0240   33.2280   46.5980 C   0  0  0  0  0  0  0  0  0  0  0  0
   45.0020   33.2970   43.0000 C   0  0  0  0  0  0  0  0  0  0  0  0
   45.3910   33.8000   44.2420 C   0  0  0  0  0  0  0  0  0  0  0  0
   44.9710   35.1110   44.5900 C   0  0  0  0  0  0  0  0  0  0  0  0
   44.2150   35.8030   43.6980 N   0  0  0  0  0  0  0  0  0  0  0  0
   43.8580   35.2760   42.5000 C   0  0  0  0  0  0  0  0  0  0  0  0
   44.2560   34.0270   42.1660 N   0  0  0  0  0  0  0  0  0  0  0  0
   48.0910   30.2830   47.3930 N   0  0  0  0  0  0  0  0  0  0  0  0
   48.6200   29.7100   46.2860 C   0  0  0  0  0  0  0  0  0  0  0  0
   49.8000   29.0000   46.4270 C   0  0  0  0  0  0  0  0  0  0  0  0
   50.4060   28.8870   47.6690 C   0  0  0  0  0  0  0  0  0  0  0  0
   51.4930   28.2410   47.8400 O   0  0  0  0  0  0  0  0  0  0  0  0
   49.8070   29.4920   48.7190 N   0  0  0  0  0  0  0  0  0  0  0  0
   48.6600   30.1900   48.6140 C   0  0  0  0  0  0  0  0  0  0  0  0
   48.1010   30.7510   49.5850 O   0  0  0  0  0  0  0  0  0  0  0  0
   47.2665   33.2578   44.9358 H   0  0  0  0  0  0  0  0  0  0  0  0
   45.5681   31.1928   43.8562 H   0  0  0  0  0  0  0  0  0  0  0  0
   46.1493   29.4838   45.6783 H   0  0  0  0  0  0  0  0  0  0  0  0
   46.0627   30.7877   47.8709 H   0  0  0  0  0  0  0  0  0  0  0  0
   47.1447   32.7135   48.3557 H   0  0  0  0  0  0  0  0  0  0  0  0
   48.0925   32.6966   46.8327 H   0  0  0  0  0  0  0  0  0  0  0  0
   46.1149   34.3019   46.8183 H   0  0  0  0  0  0  0  0  0  0  0  0
   45.0245   32.9186   46.9375 H   0  0  0  0  0  0  0  0  0  0  0  0
   45.3140   32.2848   42.7032 H   0  0  0  0  0  0  0  0  0  0  0  0
   45.2505   35.5549   45.5569 H   0  0  0  0  0  0  0  0  0  0  0  0
   43.2453   35.8639   41.8007 H   0  0  0  0  0  0  0  0  0  0  0  0
   48.1282   29.8056   45.3067 H   0  0  0  0  0  0  0  0  0  0  0  0
   50.2594   28.5228   45.5488 H   0  0  0  0  0  0  0  0  0  0  0  0
   50.2500   29.4153   49.6457 H   0  0  0  0  0  0  0  0  0  0  0  0
  1  6  1  0
  2  1  1  0
  2  3  2  0
  3  4  1  0
  4  5  1  0
  4 13  1  0
  6  5  1  0
  7  8  2  0
  8  9  1  0
  8  1  1  0
 10  9  2  0
 11 10  1  0
 12 11  2  0
 12  7  1  0
 13 19  1  0
 14 15  2  0
 14 13  1  0
 15 16  1  0
 16 17  2  0
 16 18  1  0
 19 18  1  0
 19 20  2  0
  1 21  1  6
  2 22  1  0
  3 23  1  0
  4 24  1  1
  5 25  1  0
  5 26  1  0
  6 27  1  0
  6 28  1  0
  7 29  1  0
  9 30  1  0
 11 31  1  0
 14 32  1  0
 15 33  1  0
 18 34  1  0
M  ISO  8  21  13  22  13  23  13  24  13  25  13  26  13  27  13  28  13
M  ISO  6  29  14  30  14  31  14  32  14  33  14  34   9
M  END
>  <minimizedAffinity>  (1) 
-4.62352467

>  <minimizedRMSD>  (1) 
7.94523811

$$$$
