
     RDKit          3D

 45 48  0  0  1  0  0  0  0  0999 V2000
   45.8280   33.5960   41.6940 N   0  0  0  0  0  0  0  0  0  0  0  0
   47.0730   33.7280   40.9380 C   0  0  0  0  0  0  0  0  0  0  0  0
   46.5140   33.9230   39.5470 C   0  0  0  0  0  0  0  0  0  0  0  0
   45.5430   32.7720   39.4850 C   0  0  0  0  0  0  0  0  0  0  0  0
   44.9380   32.7860   40.8520 C   0  0  2  0  0  0  0  0  0  0  0  0
   44.5450   35.7790   44.4140 C   0  0  0  0  0  0  0  0  0  0  0  0
   44.8470   35.3380   43.1220 C   0  0  0  0  0  0  0  0  0  0  0  0
   45.4920   34.1070   42.9490 C   0  0  0  0  0  0  0  0  0  0  0  0
   45.7860   33.4120   44.0780 N   0  0  0  0  0  0  0  0  0  0  0  0
   45.4880   33.8480   45.3280 C   0  0  0  0  0  0  0  0  0  0  0  0
   44.8720   35.0250   45.4720 N   0  0  0  0  0  0  0  0  0  0  0  0
   45.8170   33.0810   46.4810 N   0  0  0  0  0  0  0  0  0  0  0  0
   45.2460   33.1760   47.6980 C   0  0  0  0  0  0  0  0  0  0  0  0
   45.6610   32.3700   48.7340 C   0  0  0  0  0  0  0  0  0  0  0  0
   46.6820   31.4470   48.5160 C   0  0  0  0  0  0  0  0  0  0  0  0
   47.0790   30.6910   49.4620 O   0  0  0  0  0  0  0  0  0  0  0  0
   47.2310   31.3780   47.2820 N   0  0  0  0  0  0  0  0  0  0  0  0
   46.8020   32.1900   46.2720 C   0  0  0  0  0  0  0  0  0  0  0  0
   47.4370   31.9720   45.2080 O   0  0  0  0  0  0  0  0  0  0  0  0
   43.5660   33.1410   40.9390 N   0  0  0  0  0  0  0  0  0  0  0  0
   42.9510   34.1440   40.3170 C   0  0  0  0  0  0  0  0  0  0  0  0
   41.6010   34.4060   40.4710 C   0  0  0  0  0  0  0  0  0  0  0  0
   40.8360   33.6110   41.2970 C   0  0  0  0  0  0  0  0  0  0  0  0
   39.5840   33.7980   41.4830 O   0  0  0  0  0  0  0  0  0  0  0  0
   41.4620   32.6030   41.9200 N   0  0  0  0  0  0  0  0  0  0  0  0
   42.7640   32.3890   41.7410 C   0  0  0  0  0  0  0  0  0  0  0  0
   43.2610   31.4060   42.3780 O   0  0  0  0  0  0  0  0  0  0  0  0
   40.9330   35.5320   39.7670 C   0  0  0  0  0  0  0  0  0  0  0  0
   47.6609   34.5974   41.2676 H   0  0  0  0  0  0  0  0  0  0  0  0
   47.7714   32.8847   41.0434 H   0  0  0  0  0  0  0  0  0  0  0  0
   46.0038   34.8922   39.4453 H   0  0  0  0  0  0  0  0  0  0  0  0
   47.2668   33.9348   38.7450 H   0  0  0  0  0  0  0  0  0  0  0  0
   44.7795   32.9371   38.7105 H   0  0  0  0  0  0  0  0  0  0  0  0
   46.0150   31.8133   39.2238 H   0  0  0  0  0  0  0  0  0  0  0  0
   44.8800   31.7503   41.2179 H   0  0  0  0  0  0  0  0  0  0  0  0
   44.0392   36.7446   44.5617 H   0  0  0  0  0  0  0  0  0  0  0  0
   44.5804   35.9524   42.2494 H   0  0  0  0  0  0  0  0  0  0  0  0
   44.4397   33.9053   47.8653 H   0  0  0  0  0  0  0  0  0  0  0  0
   45.1909   32.4538   49.7250 H   0  0  0  0  0  0  0  0  0  0  0  0
   47.9859   30.7010   47.1011 H   0  0  0  0  0  0  0  0  0  0  0  0
   43.5408   34.7923   39.6523 H   0  0  0  0  0  0  0  0  0  0  0  0
   40.9278   31.9844   42.5468 H   0  0  0  0  0  0  0  0  0  0  0  0
   40.5176   36.2322   40.5068 H   0  0  0  0  0  0  0  0  0  0  0  0
   41.6660   36.0568   39.1366 H   0  0  0  0  0  0  0  0  0  0  0  0
   40.1211   35.1403   39.1366 H   0  0  0  0  0  0  0  0  0  0  0  0
  1  8  1  0
  2  1  1  0
  3  2  1  0
  4  3  1  0
  4  5  1  0
  5 20  1  0
  5  1  1  0
  6 11  2  0
  7  6  1  0
  8  7  2  0
  8  9  1  0
  9 10  2  0
 10 11  1  0
 10 12  1  0
 12 13  1  0
 13 14  2  0
 15 14  1  0
 15 16  2  0
 17 15  1  0
 18 12  1  0
 18 17  1  0
 19 18  2  0
 20 26  1  0
 21 22  2  0
 21 20  1  0
 22 23  1  0
 23 24  2  0
 23 25  1  0
 26 25  1  0
 26 27  2  0
 28 22  1  0
  2 29  1  0
  2 30  1  0
  3 31  1  0
  3 32  1  0
  4 33  1  0
  4 34  1  0
  5 35  1  1
  6 36  1  0
  7 37  1  0
 13 38  1  0
 14 39  1  0
 17 40  1  0
 21 41  1  0
 25 42  1  0
 28 43  1  0
 28 44  1  0
 28 45  1  0
M  END
>  <minimizedAffinity>  (1) 
-7.1207633

>  <minimizedRMSD>  (1) 
0.908172548

$$$$
