
     RDKit          3D

 27 28  0  0  0  0  0  0  0  0999 V2000
   44.8700   35.2500   44.9370 C   0  0  0  0  0  0  0  0  0  0  0  0
   45.6810   34.8730   43.8750 C   0  0  0  0  0  0  0  0  0  0  0  0
   46.4470   33.7380   44.0290 C   0  0  0  0  0  0  0  0  0  0  0  0
   46.3730   33.0440   45.2030 N   0  0  0  0  0  0  0  0  0  0  0  0
   45.5810   33.4280   46.2160 C   0  0  0  0  0  0  0  0  0  0  0  0
   44.8350   34.5300   46.0730 N   0  0  0  0  0  0  0  0  0  0  0  0
   47.3090   33.2730   42.9960 N   0  0  0  0  0  0  0  0  0  0  0  0
   48.5880   33.7410   43.0880 C   0  0  0  0  0  0  0  0  0  0  0  0
   49.5470   33.3770   42.1500 C   0  0  0  0  0  0  0  0  0  0  0  0
   49.1460   32.5270   41.1320 C   0  0  0  0  0  0  0  0  0  0  0  0
   49.9680   32.1460   40.2330 O   0  0  0  0  0  0  0  0  0  0  0  0
   47.8830   32.0810   41.0640 N   0  0  0  0  0  0  0  0  0  0  0  0
   46.9740   32.4400   41.9710 C   0  0  0  0  0  0  0  0  0  0  0  0
   45.7540   32.0600   41.9750 O   0  0  0  0  0  0  0  0  0  0  0  0
   45.7180   35.6620   42.6360 C   0  0  0  0  0  0  0  0  0  0  0  0
   45.0360   36.8590   42.8830 F   0  0  0  0  0  0  0  0  0  0  0  0
   45.0220   35.0480   41.6150 F   0  0  0  0  0  0  0  0  0  0  0  0
   46.9930   35.9270   42.2200 F   0  0  0  0  0  0  0  0  0  0  0  0
   45.4850   32.7480   47.4150 O   0  0  0  0  0  0  0  0  0  0  0  0
   46.5570   32.1190   48.0480 C   0  0  0  0  0  0  0  0  0  0  0  0
   47.6940   32.8980   48.0320 F   0  0  0  0  0  0  0  0  0  0  0  0
   46.7470   30.8550   47.5570 F   0  0  0  0  0  0  0  0  0  0  0  0
   46.2130   32.0350   49.4170 F   0  0  0  0  0  0  0  0  0  0  0  0
   44.2462   36.1517   44.8482 H   0  0  0  0  0  0  0  0  0  0  0  0
   48.8628   34.4138   43.9137 H   0  0  0  0  0  0  0  0  0  0  0  0
   50.5806   33.7481   42.2132 H   0  0  0  0  0  0  0  0  0  0  0  0
   47.6103   31.4497   40.2972 H   0  0  0  0  0  0  0  0  0  0  0  0
  1  6  2  0
  2  3  2  0
  2  1  1  0
  3  4  1  0
  4  5  2  0
  5 19  1  0
  6  5  1  0
  7  8  1  0
  7  3  1  0
  9  8  2  0
 10  9  1  0
 11 10  2  0
 12 10  1  0
 12 13  1  0
 13 14  2  0
 13  7  1  0
 15 16  1  0
 15  2  1  0
 17 15  1  0
 18 15  1  0
 19 20  1  0
 20 23  1  0
 21 20  1  0
 22 20  1  0
  1 24  1  0
  8 25  1  0
  9 26  1  0
 12 27  1  0
M  ISO  4  24  14  25  14  26  14  27   9
M  END
>  <minimizedAffinity>  (1) 
-5.7545495

>  <minimizedRMSD>  (1) 
1.02759993

$$$$
