
     RDKit          3D

 49 51  0  0  0  0  0  0  0  0999 V2000
   50.7770   33.0910   42.0580 C   0  0  0  0  0  0  0  0  0  0  0  0
   50.7910   31.6980   41.9920 C   0  0  0  0  0  0  0  0  0  0  0  0
   49.6700   31.0260   42.4570 C   0  0  0  0  0  0  0  0  0  0  0  0
   48.6270   31.7630   42.9480 N   0  0  0  0  0  0  0  0  0  0  0  0
   48.6500   33.1060   42.9960 C   0  0  0  0  0  0  0  0  0  0  0  0
   49.7070   33.7370   42.5570 N   0  0  0  0  0  0  0  0  0  0  0  0
   47.4890   33.7030   43.5370 N   0  0  0  0  0  0  0  0  0  0  0  0
   47.0870   33.2410   44.7400 C   0  0  0  0  0  0  0  0  0  0  0  0
   45.9620   33.7590   45.3680 C   0  0  0  0  0  0  0  0  0  0  0  0
   45.2510   34.7650   44.7380 C   0  0  0  0  0  0  0  0  0  0  0  0
   44.2320   35.2600   45.2730 O   0  0  0  0  0  0  0  0  0  0  0  0
   45.6750   35.2130   43.5270 N   0  0  0  0  0  0  0  0  0  0  0  0
   46.7690   34.6940   42.9400 C   0  0  0  0  0  0  0  0  0  0  0  0
   47.1840   35.0850   41.8260 O   0  0  0  0  0  0  0  0  0  0  0  0
   45.5400   33.2210   46.6990 C   0  0  0  0  0  0  0  0  0  0  0  0
   44.9070   36.2620   42.8980 C   0  0  0  0  0  0  0  0  0  0  0  0
   43.9630   35.6740   41.9340 C   0  0  0  0  0  0  0  0  0  0  0  0
   42.6570   35.2980   42.4220 N   0  0  0  0  0  0  0  0  0  0  0  0
   41.5390   35.3430   41.5800 C   0  0  0  0  0  0  0  0  0  0  0  0
   40.9360   36.4080   41.1490 O   0  0  0  0  0  0  0  0  0  0  0  0
   40.6750   34.3100   40.9210 C   0  0  0  0  0  0  0  0  0  0  0  0
   39.6900   35.0780   40.0500 C   0  0  0  0  0  0  0  0  0  0  0  0
   38.5410   34.2050   39.6300 C   0  0  0  0  0  0  0  0  0  0  0  0
   38.9490   32.7700   39.7510 C   0  0  0  0  0  0  0  0  0  0  0  0
   39.1420   32.4530   41.2320 C   0  0  0  0  0  0  0  0  0  0  0  0
   39.8610   33.5490   41.9460 C   0  0  0  0  0  0  0  0  0  0  0  0
   51.6448   33.6646   41.7004 H   0  0  0  0  0  0  0  0  0  0  0  0
   51.6569   31.1536   41.5872 H   0  0  0  0  0  0  0  0  0  0  0  0
   49.6208   29.9274   42.4316 H   0  0  0  0  0  0  0  0  0  0  0  0
   47.6602   32.4408   45.2311 H   0  0  0  0  0  0  0  0  0  0  0  0
   46.0059   33.8150   47.4990 H   0  0  0  0  0  0  0  0  0  0  0  0
   44.4452   33.2806   46.7882 H   0  0  0  0  0  0  0  0  0  0  0  0
   45.8586   32.1719   46.7882 H   0  0  0  0  0  0  0  0  0  0  0  0
   44.3478   36.8168   43.6658 H   0  0  0  0  0  0  0  0  0  0  0  0
   45.5877   36.9466   42.3708 H   0  0  0  0  0  0  0  0  0  0  0  0
   44.4337   34.7690   41.5225 H   0  0  0  0  0  0  0  0  0  0  0  0
   43.7693   36.4768   41.2073 H   0  0  0  0  0  0  0  0  0  0  0  0
   42.5466   34.9935   43.3997 H   0  0  0  0  0  0  0  0  0  0  0  0
   41.3006   33.5995   40.3609 H   0  0  0  0  0  0  0  0  0  0  0  0
   39.3003   35.9350   40.6190 H   0  0  0  0  0  0  0  0  0  0  0  0
   40.2165   35.4196   39.1466 H   0  0  0  0  0  0  0  0  0  0  0  0
   38.2729   34.4253   38.5862 H   0  0  0  0  0  0  0  0  0  0  0  0
   37.6715   34.3996   40.2751 H   0  0  0  0  0  0  0  0  0  0  0  0
   38.1649   32.1231   39.3307 H   0  0  0  0  0  0  0  0  0  0  0  0
   39.8839   32.5926   39.1991 H   0  0  0  0  0  0  0  0  0  0  0  0
   38.1552   32.3127   41.6973 H   0  0  0  0  0  0  0  0  0  0  0  0
   39.7498   31.5394   41.3090 H   0  0  0  0  0  0  0  0  0  0  0  0
   40.5262   33.1238   42.7119 H   0  0  0  0  0  0  0  0  0  0  0  0
   39.1447   34.2192   42.4437 H   0  0  0  0  0  0  0  0  0  0  0  0
  1  6  2  0
  2  1  1  0
  2  3  2  0
  3  4  1  0
  4  5  2  0
  5  7  1  0
  6  5  1  0
  7  8  1  0
  8  9  2  0
  9 15  1  0
 10 11  2  0
 10  9  1  0
 12 10  1  0
 13 12  1  0
 13  7  1  0
 14 13  2  0
 16 12  1  0
 17 18  1  0
 17 16  1  0
 19 18  1  0
 20 19  2  0
 21 19  1  0
 21 26  1  0
 22 21  1  0
 23 24  1  0
 23 22  1  0
 24 25  1  0
 25 26  1  0
  1 27  1  0
  2 28  1  0
  3 29  1  0
  8 30  1  0
 15 31  1  0
 15 32  1  0
 15 33  1  0
 16 34  1  0
 16 35  1  0
 17 36  1  0
 17 37  1  0
 18 38  1  0
 21 39  1  0
 22 40  1  0
 22 41  1  0
 23 42  1  0
 23 43  1  0
 24 44  1  0
 24 45  1  0
 25 46  1  0
 25 47  1  0
 26 48  1  0
 26 49  1  0
M  END
>  <minimizedAffinity>  (1) 
-7.23544216

>  <minimizedRMSD>  (1) 
0.392878711

$$$$
