
     RDKit          3D

 35 38  0  0  0  0  0  0  0  0999 V2000
   44.3830   36.0650   44.6020 C   0  0  0  0  0  0  0  0  0  0  0  0
   45.0450   35.9970   43.3580 C   0  0  0  0  0  0  0  0  0  0  0  0
   45.9610   34.9970   43.1460 C   0  0  0  0  0  0  0  0  0  0  0  0
   46.1770   34.1250   44.1580 N   0  0  0  0  0  0  0  0  0  0  0  0
   45.5600   34.1770   45.3350 C   0  0  0  0  0  0  0  0  0  0  0  0
   44.6540   35.1490   45.5730 N   0  0  0  0  0  0  0  0  0  0  0  0
   45.8850   33.1910   46.3100 N   0  0  0  0  0  0  0  0  0  0  0  0
   45.3030   33.2390   47.5200 C   0  0  0  0  0  0  0  0  0  0  0  0
   45.6990   32.2300   48.3770 C   0  0  0  0  0  0  0  0  0  0  0  0
   46.6120   31.2390   48.0580 C   0  0  0  0  0  0  0  0  0  0  0  0
   46.9490   30.3390   48.8590 O   0  0  0  0  0  0  0  0  0  0  0  0
   47.1610   31.2450   46.8300 N   0  0  0  0  0  0  0  0  0  0  0  0
   46.7860   32.2180   45.9890 C   0  0  0  0  0  0  0  0  0  0  0  0
   47.2840   32.2530   44.8250 O   0  0  0  0  0  0  0  0  0  0  0  0
   46.7170   34.7970   41.9240 C   0  0  0  0  0  0  0  0  0  0  0  0
   47.9760   35.2640   41.7210 C   0  0  0  0  0  0  0  0  0  0  0  0
   48.7090   35.0830   40.5700 C   0  0  0  0  0  0  0  0  0  0  0  0
   48.1320   34.3890   39.5690 N   0  0  0  0  0  0  0  0  0  0  0  0
   46.8960   33.9190   39.7410 C   0  0  0  0  0  0  0  0  0  0  0  0
   46.1920   34.0990   40.8610 N   0  0  0  0  0  0  0  0  0  0  0  0
   46.3350   33.1920   38.6470 N   0  0  0  0  0  0  0  0  0  0  0  0
   45.3320   32.3280   38.5160 N   0  0  0  0  0  0  0  0  0  0  0  0
   45.2260   31.9350   37.2400 C   0  0  0  0  0  0  0  0  0  0  0  0
   46.2260   32.5930   36.5210 C   0  0  0  0  0  0  0  0  0  0  0  0
   46.9030   33.3730   37.4290 C   0  0  0  0  0  0  0  0  0  0  0  0
   43.6459   36.8600   44.7883 H   0  0  0  0  0  0  0  0  0  0  0  0
   44.8304   36.7340   42.5701 H   0  0  0  0  0  0  0  0  0  0  0  0
   44.5752   34.0135   47.8035 H   0  0  0  0  0  0  0  0  0  0  0  0
   45.2575   32.2128   49.3844 H   0  0  0  0  0  0  0  0  0  0  0  0
   47.8443   30.5282   46.5469 H   0  0  0  0  0  0  0  0  0  0  0  0
   48.4459   35.8301   42.5388 H   0  0  0  0  0  0  0  0  0  0  0  0
   49.7265   35.4891   40.4710 H   0  0  0  0  0  0  0  0  0  0  0  0
   44.4890   31.2264   36.8343 H   0  0  0  0  0  0  0  0  0  0  0  0
   46.4312   32.5050   35.4439 H   0  0  0  0  0  0  0  0  0  0  0  0
   47.7569   34.0296   37.2060 H   0  0  0  0  0  0  0  0  0  0  0  0
  1  6  2  0
  2  1  1  0
  3  2  2  0
  3  4  1  0
  4  5  2  0
  5  6  1  0
  5  7  1  0
  7  8  1  0
  8  9  2  0
 10  9  1  0
 10 11  2  0
 12 10  1  0
 13  7  1  0
 13 12  1  0
 14 13  2  0
 15  3  1  0
 16 15  2  0
 17 16  1  0
 18 19  1  0
 18 17  2  0
 19 20  2  0
 20 15  1  0
 21 19  1  0
 22 21  1  0
 23 22  2  0
 24 23  1  0
 24 25  2  0
 25 21  1  0
  1 26  1  0
  2 27  1  0
  8 28  1  0
  9 29  1  0
 12 30  1  0
 16 31  1  0
 17 32  1  0
 23 33  1  0
 24 34  1  0
 25 35  1  0
M  END
>  <minimizedAffinity>  (1) 
-7.17557812

>  <minimizedRMSD>  (1) 
0.237447783

$$$$
