
     RDKit          3D

 27 28  0  0  0  0  0  0  0  0999 V2000
   45.2110   34.6960   44.8980 C   0  0  0  0  0  0  0  0  0  0  0  0
   46.0920   34.5260   43.8450 C   0  0  0  0  0  0  0  0  0  0  0  0
   47.0120   33.5330   43.9530 C   0  0  0  0  0  0  0  0  0  0  0  0
   47.0340   32.7480   45.0830 N   0  0  0  0  0  0  0  0  0  0  0  0
   46.1750   32.9310   46.0830 C   0  0  0  0  0  0  0  0  0  0  0  0
   45.2840   33.9030   45.9660 N   0  0  0  0  0  0  0  0  0  0  0  0
   46.0470   35.3830   42.6450 C   0  0  0  0  0  0  0  0  0  0  0  0
   45.1870   36.4550   42.9370 F   0  0  0  0  0  0  0  0  0  0  0  0
   45.4030   34.7320   41.5930 F   0  0  0  0  0  0  0  0  0  0  0  0
   47.2570   35.8390   42.2450 F   0  0  0  0  0  0  0  0  0  0  0  0
   48.0120   33.1760   42.9980 C   0  0  0  0  0  0  0  0  0  0  0  0
   47.8550   32.4070   42.0170 O   0  0  0  0  0  0  0  0  0  0  0  0
   49.3310   33.3910   42.6790 O   0  0  0  0  0  0  0  0  0  0  0  0
   50.2020   32.4800   42.1620 C   0  0  0  0  0  0  0  0  0  0  0  0
   50.9840   31.4210   42.6090 C   0  0  0  0  0  0  0  0  0  0  0  0
   51.6390   30.9230   41.5210 N   0  0  0  0  0  0  0  0  0  0  0  0
   51.2910   31.6300   40.4310 C   0  0  0  0  0  0  0  0  0  0  0  0
   50.4200   32.5750   40.8190 N   0  0  0  0  0  0  0  0  0  0  0  0
   46.1500   32.1770   47.2370 O   0  0  0  0  0  0  0  0  0  0  0  0
   47.2900   31.8540   47.9770 C   0  0  0  0  0  0  0  0  0  0  0  0
   48.0680   32.9700   48.2380 F   0  0  0  0  0  0  0  0  0  0  0  0
   48.0050   30.8400   47.4170 F   0  0  0  0  0  0  0  0  0  0  0  0
   46.8520   31.4500   49.2520 F   0  0  0  0  0  0  0  0  0  0  0  0
   44.4486   35.4877   44.8533 H   0  0  0  0  0  0  0  0  0  0  0  0
   51.0601   31.0544   43.6433 H   0  0  0  0  0  0  0  0  0  0  0  0
   51.6546   31.4638   39.4062 H   0  0  0  0  0  0  0  0  0  0  0  0
   49.9819   33.2681   40.1957 H   0  0  0  0  0  0  0  0  0  0  0  0
  1  6  2  0
  2  3  2  0
  2  1  1  0
  3  4  1  0
  4  5  2  0
  5 19  1  0
  6  5  1  0
  7  8  1  0
  7  2  1  0
  9  7  1  0
 10  7  1  0
 11  3  1  0
 12 11  2  0
 13 11  1  0
 14 15  2  0
 14 13  1  0
 16 15  1  0
 17 18  1  0
 17 16  2  0
 18 14  1  0
 19 20  1  0
 20 21  1  0
 20 23  1  0
 22 20  1  0
  1 24  1  0
 15 25  1  0
 17 26  1  0
 18 27  1  0
M  ISO  4  24  14  25  14  26  14  27   9
M  END
>  <minimizedAffinity>  (1) 
-5.35645294

>  <minimizedRMSD>  (1) 
1.22465611

$$$$
