
     RDKit          3D

 38 40  0  0  0  0  0  0  0  0999 V2000
   46.2650   34.1860   43.5430 C   0  0  0  0  0  0  0  0  0  0  0  0
   45.9400   35.3700   42.9170 C   0  0  0  0  0  0  0  0  0  0  0  0
   45.0790   36.2730   43.5070 C   0  0  0  0  0  0  0  0  0  0  0  0
   44.5480   35.9670   44.7410 C   0  0  0  0  0  0  0  0  0  0  0  0
   44.8460   34.7960   45.4020 C   0  0  0  0  0  0  0  0  0  0  0  0
   45.7090   33.9260   44.7770 C   0  0  0  0  0  0  0  0  0  0  0  0
   47.5100   31.4730   41.4400 C   0  0  0  0  0  0  0  0  0  0  0  0
   48.8860   31.4780   41.6660 C   0  0  0  0  0  0  0  0  0  0  0  0
   49.3820   32.4370   42.5610 C   0  0  0  0  0  0  0  0  0  0  0  0
   48.4990   33.2980   43.1500 N   0  0  0  0  0  0  0  0  0  0  0  0
   47.1700   33.2560   42.9000 C   0  0  0  0  0  0  0  0  0  0  0  0
   46.7100   32.3440   42.0510 N   0  0  0  0  0  0  0  0  0  0  0  0
   45.9910   32.7240   45.5310 C   0  0  0  0  0  0  0  0  0  0  0  0
   45.8190   31.5250   45.1430 O   0  0  0  0  0  0  0  0  0  0  0  0
   46.5470   32.8490   46.9280 C   0  0  0  0  0  0  0  0  0  0  0  0
   45.3660   32.9300   47.8780 C   0  0  0  0  0  0  0  0  0  0  0  0
   44.9160   31.5400   48.1970 C   0  0  0  0  0  0  0  0  0  0  0  0
   45.9590   30.9250   49.1070 C   0  0  0  0  0  0  0  0  0  0  0  0
   47.3120   31.4680   48.7620 C   0  0  0  0  0  0  0  0  0  0  0  0
   47.4730   31.7240   47.2800 C   0  0  0  0  0  0  0  0  0  0  0  0
   46.3734   35.5988   41.9322 H   0  0  0  0  0  0  0  0  0  0  0  0
   44.8223   37.2165   43.0030 H   0  0  0  0  0  0  0  0  0  0  0  0
   43.8614   36.6837   45.2153 H   0  0  0  0  0  0  0  0  0  0  0  0
   44.4128   34.5665   46.3867 H   0  0  0  0  0  0  0  0  0  0  0  0
   47.0785   30.7372   40.7454 H   0  0  0  0  0  0  0  0  0  0  0  0
   49.5530   30.7614   41.1644 H   0  0  0  0  0  0  0  0  0  0  0  0
   50.4576   32.4949   42.7840 H   0  0  0  0  0  0  0  0  0  0  0  0
   47.1628   33.7573   47.0039 H   0  0  0  0  0  0  0  0  0  0  0  0
   45.6684   33.4433   48.8027 H   0  0  0  0  0  0  0  0  0  0  0  0
   44.5450   33.4935   47.4107 H   0  0  0  0  0  0  0  0  0  0  0  0
   43.9415   31.5677   48.7065 H   0  0  0  0  0  0  0  0  0  0  0  0
   44.8040   30.9469   47.2774 H   0  0  0  0  0  0  0  0  0  0  0  0
   45.7223   31.1701   50.1529 H   0  0  0  0  0  0  0  0  0  0  0  0
   45.9598   29.8329   48.9751 H   0  0  0  0  0  0  0  0  0  0  0  0
   47.4601   32.4150   49.3017 H   0  0  0  0  0  0  0  0  0  0  0  0
   48.0587   30.7149   49.0540 H   0  0  0  0  0  0  0  0  0  0  0  0
   47.2062   30.8222   46.7094 H   0  0  0  0  0  0  0  0  0  0  0  0
   48.5144   31.9810   47.0362 H   0  0  0  0  0  0  0  0  0  0  0  0
  1  6  2  0
  2  3  2  0
  2  1  1  0
  3  4  1  0
  4  5  2  0
  6  5  1  0
  6 13  1  0
  7  8  2  0
  7 12  1  0
  8  9  1  0
  9 10  2  0
 11 10  1  0
 11  1  1  0
 12 11  2  0
 13 15  1  0
 14 13  2  0
 15 20  1  0
 15 16  1  0
 16 17  1  0
 17 18  1  0
 19 18  1  0
 20 19  1  0
  2 21  1  0
  3 22  1  0
  4 23  1  0
  5 24  1  0
  7 25  1  0
  8 26  1  0
  9 27  1  0
 15 28  1  0
 16 29  1  0
 16 30  1  0
 17 31  1  0
 17 32  1  0
 18 33  1  0
 18 34  1  0
 19 35  1  0
 19 36  1  0
 20 37  1  0
 20 38  1  0
M  ISO  8  21  14  22  14  23  14  24  14  25  14  26  14  27  14  28  13
M  ISO  8  29  13  30  13  31  13  32  13  33  13  34  13  35  13  36  13
M  ISO  2  37  13  38  13
M  END
>  <minimizedAffinity>  (1) 
-5.69635248

>  <minimizedRMSD>  (1) 
5.69652319

$$$$
