
     RDKit          3D

 44 47  0  0  0  0  0  0  0  0999 V2000
   47.6760   34.2390   42.0750 C   0  0  0  0  0  0  0  0  0  0  0  0
   48.5990   35.3660   41.7130 C   0  0  0  0  0  0  0  0  0  0  0  0
   49.8940   35.3870   42.4120 C   0  0  0  0  0  0  0  0  0  0  0  0
   50.5710   34.0580   42.5470 C   0  0  0  0  0  0  0  0  0  0  0  0
   49.7160   32.8960   42.1160 C   0  0  0  0  0  0  0  0  0  0  0  0
   48.3560   33.0910   42.7660 C   0  0  0  0  0  0  0  0  0  0  0  0
   45.2070   34.4640   44.8320 C   0  0  0  0  0  0  0  0  0  0  0  0
   44.5200   35.6390   44.5320 C   0  0  0  0  0  0  0  0  0  0  0  0
   44.9050   36.3440   43.3970 C   0  0  0  0  0  0  0  0  0  0  0  0
   45.9230   35.8520   42.6490 N   0  0  0  0  0  0  0  0  0  0  0  0
   46.5750   34.7050   42.9630 C   0  0  0  0  0  0  0  0  0  0  0  0
   46.1960   34.0240   44.0680 N   0  0  0  0  0  0  0  0  0  0  0  0
   47.0850   33.6880   40.7970 C   0  0  0  0  0  0  0  0  0  0  0  0
   45.9150   33.0530   40.4110 C   0  0  0  0  0  0  0  0  0  0  0  0
   45.8130   32.7170   39.1070 C   0  0  0  0  0  0  0  0  0  0  0  0
   46.7780   32.9740   38.2120 C   0  0  0  0  0  0  0  0  0  0  0  0
   48.0720   33.8160   39.2750 S   0  0  0  0  0  0  0  0  0  0  0  0
   46.9180   32.7400   36.8510 N   0  0  0  0  0  0  0  0  0  0  0  0
   45.7930   32.4210   36.1740 C   0  0  0  0  0  0  0  0  0  0  0  0
   45.9210   32.1830   34.8010 C   0  0  0  0  0  0  0  0  0  0  0  0
   47.1560   32.2780   34.1950 C   0  0  0  0  0  0  0  0  0  0  0  0
   47.3260   32.0450   32.8190 N   0  0  0  0  0  0  0  0  0  0  0  0
   48.2390   32.6000   34.9300 N   0  0  0  0  0  0  0  0  0  0  0  0
   48.1220   32.8330   36.2660 C   0  0  0  0  0  0  0  0  0  0  0  0
   49.1450   33.1270   36.9030 O   0  0  0  0  0  0  0  0  0  0  0  0
   48.7999   35.3033   40.6333 H   0  0  0  0  0  0  0  0  0  0  0  0
   48.0801   36.2858   42.0207 H   0  0  0  0  0  0  0  0  0  0  0  0
   50.5681   36.0569   41.8581 H   0  0  0  0  0  0  0  0  0  0  0  0
   49.6806   35.7247   43.4369 H   0  0  0  0  0  0  0  0  0  0  0  0
   51.4809   34.0675   41.9290 H   0  0  0  0  0  0  0  0  0  0  0  0
   50.7905   33.9164   43.6155 H   0  0  0  0  0  0  0  0  0  0  0  0
   49.6148   32.8852   41.0207 H   0  0  0  0  0  0  0  0  0  0  0  0
   50.1662   31.9392   42.4189 H   0  0  0  0  0  0  0  0  0  0  0  0
   48.4815   33.3191   43.8348 H   0  0  0  0  0  0  0  0  0  0  0  0
   47.7522   32.1760   42.6748 H   0  0  0  0  0  0  0  0  0  0  0  0
   44.9212   33.8881   45.7246 H   0  0  0  0  0  0  0  0  0  0  0  0
   43.7001   35.9969   45.1721 H   0  0  0  0  0  0  0  0  0  0  0  0
   44.3965   37.2772   43.1132 H   0  0  0  0  0  0  0  0  0  0  0  0
   45.1113   32.8341   41.1295 H   0  0  0  0  0  0  0  0  0  0  0  0
   44.8987   32.2105   38.7641 H   0  0  0  0  0  0  0  0  0  0  0  0
   44.8189   32.3514   36.6802 H   0  0  0  0  0  0  0  0  0  0  0  0
   45.0352   31.9198   34.2043 H   0  0  0  0  0  0  0  0  0  0  0  0
   48.2614   32.1236   32.3951 H   0  0  0  0  0  0  0  0  0  0  0  0
   46.5151   31.7957   32.2348 H   0  0  0  0  0  0  0  0  0  0  0  0
  1  6  1  0
  1 11  1  0
  2  1  1  0
  2  3  1  0
  3  4  1  0
  5  4  1  0
  5  6  1  0
  8  7  2  0
  9  8  1  0
 10 11  1  0
 10  9  2  0
 11 12  2  0
 12  7  1  0
 13  1  1  0
 14 13  2  0
 15 14  1  0
 16 15  2  0
 16 17  1  0
 17 13  1  0
 18 16  1  0
 19 18  1  0
 20 19  2  0
 21 20  1  0
 21 23  2  0
 22 21  1  0
 23 24  1  0
 24 18  1  0
 24 25  2  0
  2 26  1  0
  2 27  1  0
  3 28  1  0
  3 29  1  0
  4 30  1  0
  4 31  1  0
  5 32  1  0
  5 33  1  0
  6 34  1  0
  6 35  1  0
  7 36  1  0
  8 37  1  0
  9 38  1  0
 14 39  1  0
 15 40  1  0
 19 41  1  0
 20 42  1  0
 22 43  1  0
 22 44  1  0
M  ISO  8  26  13  27  13  28  13  29  13  30  13  31  13  32  13  33  13
M  ISO  8  34  13  35  13  36  14  37  14  38  14  39  14  40  14  41  14
M  ISO  1  42  14
M  END
>  <minimizedAffinity>  (1) 
-6.68622875

>  <minimizedRMSD>  (1) 
0.528579652

$$$$
