
     RDKit          3D

 37 39  0  0  0  0  0  0  0  0999 V2000
   47.5390   34.0530   42.2060 C   0  0  0  0  0  0  0  0  0  0  0  0
   48.4530   35.1870   41.7700 C   0  0  0  0  0  0  0  0  0  0  0  0
   49.7900   35.2460   42.4040 C   0  0  0  0  0  0  0  0  0  0  0  0
   50.4620   33.9080   42.4740 C   0  0  0  0  0  0  0  0  0  0  0  0
   49.5590   32.7340   42.1530 C   0  0  0  0  0  0  0  0  0  0  0  0
   48.2710   32.9730   42.9050 C   0  0  0  0  0  0  0  0  0  0  0  0
   46.8120   33.6290   41.0400 N   0  0  0  0  0  0  0  0  0  0  0  0
   45.6890   32.9170   41.3680 C   0  0  0  0  0  0  0  0  0  0  0  0
   44.8050   32.3850   40.4630 C   0  0  0  0  0  0  0  0  0  0  0  0
   45.0370   32.5650   39.1100 C   0  0  0  0  0  0  0  0  0  0  0  0
   44.1670   32.0430   38.1250 N   0  0  0  0  0  0  0  0  0  0  0  0
   46.1480   33.2700   38.7780 N   0  0  0  0  0  0  0  0  0  0  0  0
   46.9540   33.7520   39.7170 C   0  0  0  0  0  0  0  0  0  0  0  0
   47.9640   34.3950   39.3500 O   0  0  0  0  0  0  0  0  0  0  0  0
   45.2880   34.4250   45.1370 C   0  0  0  0  0  0  0  0  0  0  0  0
   44.5650   35.6010   44.8310 C   0  0  0  0  0  0  0  0  0  0  0  0
   44.8590   36.2590   43.6250 C   0  0  0  0  0  0  0  0  0  0  0  0
   45.8190   35.7140   42.8370 N   0  0  0  0  0  0  0  0  0  0  0  0
   46.4940   34.6010   43.1380 C   0  0  0  0  0  0  0  0  0  0  0  0
   46.2120   33.9710   44.2960 N   0  0  0  0  0  0  0  0  0  0  0  0
   48.6030   35.0953   40.6841 H   0  0  0  0  0  0  0  0  0  0  0  0
   47.9421   36.1079   42.0876 H   0  0  0  0  0  0  0  0  0  0  0  0
   50.4256   35.9278   41.8200 H   0  0  0  0  0  0  0  0  0  0  0  0
   49.6505   35.5997   43.4362 H   0  0  0  0  0  0  0  0  0  0  0  0
   51.2971   33.9050   41.7580 H   0  0  0  0  0  0  0  0  0  0  0  0
   50.7886   33.7759   43.5161 H   0  0  0  0  0  0  0  0  0  0  0  0
   49.3655   32.6868   41.0712 H   0  0  0  0  0  0  0  0  0  0  0  0
   50.0226   31.7806   42.4463 H   0  0  0  0  0  0  0  0  0  0  0  0
   48.4911   33.2772   43.9389 H   0  0  0  0  0  0  0  0  0  0  0  0
   47.6664   32.0546   42.9377 H   0  0  0  0  0  0  0  0  0  0  0  0
   45.4800   32.7598   42.4365 H   0  0  0  0  0  0  0  0  0  0  0  0
   43.9243   31.8233   40.8078 H   0  0  0  0  0  0  0  0  0  0  0  0
   44.3690   32.1952   37.1265 H   0  0  0  0  0  0  0  0  0  0  0  0
   43.3313   31.5106   38.4060 H   0  0  0  0  0  0  0  0  0  0  0  0
   45.0854   33.8844   46.0733 H   0  0  0  0  0  0  0  0  0  0  0  0
   43.7964   35.9886   45.5158 H   0  0  0  0  0  0  0  0  0  0  0  0
   44.3320   37.1789   43.3317 H   0  0  0  0  0  0  0  0  0  0  0  0
  1  6  1  0
  1 19  1  0
  2  1  1  0
  2  3  1  0
  3  4  1  0
  5  4  1  0
  5  6  1  0
  7  8  1  0
  7  1  1  0
  9  8  2  0
 10  9  1  0
 11 10  1  0
 12 10  2  0
 12 13  1  0
 13  7  1  0
 14 13  2  0
 16 15  2  0
 17 16  1  0
 18 19  1  0
 18 17  2  0
 19 20  2  0
 20 15  1  0
  2 21  1  0
  2 22  1  0
  3 23  1  0
  3 24  1  0
  4 25  1  0
  4 26  1  0
  5 27  1  0
  5 28  1  0
  6 29  1  0
  6 30  1  0
  8 31  1  0
  9 32  1  0
 11 33  1  0
 11 34  1  0
 15 35  1  0
 16 36  1  0
 17 37  1  0
M  ISO  8  21  13  22  13  23  13  24  13  25  13  26  13  27  13  28  13
M  ISO  7  29  13  30  13  31  14  32  14  35  14  36  14  37  14
M  END
>  <minimizedAffinity>  (1) 
-5.70072699

>  <minimizedRMSD>  (1) 
0.624259531

$$$$
