
     RDKit          3D

 51 55  0  0  0  0  0  0  0  0999 V2000
   45.2400   33.9590   41.8650 C   0  0  0  0  0  0  0  0  0  0  0  0
   44.1830   33.4830   41.1430 C   0  0  0  0  0  0  0  0  0  0  0  0
   44.9430   33.2650   39.4620 S   0  0  0  0  0  0  0  0  0  0  0  0
   46.5980   33.8770   40.0650 C   0  0  0  0  0  0  0  0  0  0  0  0
   46.3500   34.0890   41.1680 N   0  0  0  0  0  0  0  0  0  0  0  0
   44.4600   35.8060   45.0550 C   0  0  0  0  0  0  0  0  0  0  0  0
   44.5560   35.5150   43.7000 C   0  0  0  0  0  0  0  0  0  0  0  0
   45.1240   34.2950   43.3060 C   0  0  0  0  0  0  0  0  0  0  0  0
   45.5600   33.4460   44.2640 N   0  0  0  0  0  0  0  0  0  0  0  0
   45.4490   33.7640   45.5720 C   0  0  0  0  0  0  0  0  0  0  0  0
   44.9140   34.9130   45.9550 N   0  0  0  0  0  0  0  0  0  0  0  0
   45.9340   32.8110   46.5580 C   0  0  0  0  0  0  0  0  0  0  0  0
   46.9870   31.9410   46.2540 C   0  0  0  0  0  0  0  0  0  0  0  0
   47.4970   31.0180   47.1310 C   0  0  0  0  0  0  0  0  0  0  0  0
   46.9740   30.9320   48.3410 N   0  0  0  0  0  0  0  0  0  0  0  0
   45.9520   31.7700   48.6520 C   0  0  0  0  0  0  0  0  0  0  0  0
   45.4190   32.7030   47.8000 N   0  0  0  0  0  0  0  0  0  0  0  0
   45.2480   31.8320   49.9180 N   0  0  0  0  0  0  0  0  0  0  0  0
   47.7480   33.9650   39.1560 C   0  0  0  0  0  0  0  0  0  0  0  0
   48.2620   32.5890   38.8520 C   0  0  0  0  0  0  0  0  0  0  0  0
   47.9640   32.3330   37.3980 C   0  0  0  0  0  0  0  0  0  0  0  0
   49.0020   32.6850   36.5420 C   0  0  0  0  0  0  0  0  0  0  0  0
   48.7950   32.4760   35.1980 C   0  0  0  0  0  0  0  0  0  0  0  0
   47.6730   31.9690   34.7360 N   0  0  0  0  0  0  0  0  0  0  0  0
   46.6750   31.6330   35.5770 C   0  0  0  0  0  0  0  0  0  0  0  0
   46.8580   31.8280   36.8870 N   0  0  0  0  0  0  0  0  0  0  0  0
   45.4530   31.0810   35.0970 N   0  0  0  0  0  0  0  0  0  0  0  0
   44.4410   31.1550   35.9820 C   0  0  0  0  0  0  0  0  0  0  0  0
   43.1920   30.6630   35.6610 C   0  0  0  0  0  0  0  0  0  0  0  0
   43.0500   30.1040   34.4070 C   0  0  0  0  0  0  0  0  0  0  0  0
   41.7770   29.5740   34.0130 N   0  0  0  0  0  0  0  0  0  0  0  0
   44.0570   30.0320   33.5290 N   0  0  0  0  0  0  0  0  0  0  0  0
   45.2470   30.5170   33.8720 C   0  0  0  0  0  0  0  0  0  0  0  0
   46.2890   30.5120   33.1330 O   0  0  0  0  0  0  0  0  0  0  0  0
   43.1524   33.2816   41.4707 H   0  0  0  0  0  0  0  0  0  0  0  0
   44.0177   36.7561   45.3893 H   0  0  0  0  0  0  0  0  0  0  0  0
   44.1921   36.2305   42.9479 H   0  0  0  0  0  0  0  0  0  0  0  0
   47.4330   32.0010   45.2503 H   0  0  0  0  0  0  0  0  0  0  0  0
   48.3270   30.3609   46.8320 H   0  0  0  0  0  0  0  0  0  0  0  0
   44.4830   32.5091   50.0492 H   0  0  0  0  0  0  0  0  0  0  0  0
   45.5129   31.1990   50.6861 H   0  0  0  0  0  0  0  0  0  0  0  0
   47.4376   34.4537   38.2207 H   0  0  0  0  0  0  0  0  0  0  0  0
   48.5451   34.5529   39.6347 H   0  0  0  0  0  0  0  0  0  0  0  0
   49.3460   32.5398   39.0322 H   0  0  0  0  0  0  0  0  0  0  0  0
   47.7844   31.8349   39.4948 H   0  0  0  0  0  0  0  0  0  0  0  0
   49.9431   33.1100   36.9212 H   0  0  0  0  0  0  0  0  0  0  0  0
   49.5924   32.7411   34.4882 H   0  0  0  0  0  0  0  0  0  0  0  0
   44.6109   31.6111   36.9685 H   0  0  0  0  0  0  0  0  0  0  0  0
   42.3518   30.7138   36.3691 H   0  0  0  0  0  0  0  0  0  0  0  0
   41.6603   29.1547   33.0795 H   0  0  0  0  0  0  0  0  0  0  0  0
   40.9794   29.6126   34.6635 H   0  0  0  0  0  0  0  0  0  0  0  0
  1  8  1  0
  2  1  2  0
  3  4  1  0
  3  2  1  0
  4  5  2  0
  5  1  1  0
  6 11  2  0
  7  6  1  0
  8  7  2  0
  8  9  1  0
  9 10  2  0
 10 11  1  0
 10 12  1  0
 12 17  1  0
 13 12  2  0
 13 14  1  0
 14 15  2  0
 15 16  1  0
 16 18  1  0
 17 16  2  0
 19  4  1  0
 20 19  1  0
 21 20  1  0
 22 21  2  0
 23 22  1  0
 24 23  2  0
 24 25  1  0
 25 26  2  0
 26 21  1  0
 27 25  1  0
 27 28  1  0
 29 28  2  0
 30 29  1  0
 31 30  1  0
 32 33  1  0
 32 30  2  0
 33 27  1  0
 34 33  2  0
  2 35  1  0
  6 36  1  0
  7 37  1  0
 13 38  1  0
 14 39  1  0
 18 40  1  0
 18 41  1  0
 19 42  1  0
 19 43  1  0
 20 44  1  0
 20 45  1  0
 22 46  1  0
 23 47  1  0
 28 48  1  0
 29 49  1  0
 31 50  1  0
 31 51  1  0
M  END
>  <minimizedAffinity>  (1) 
-7.38280296

>  <minimizedRMSD>  (1) 
1.45239341

$$$$
