
     RDKit          3D

 44 47  0  0  0  0  0  0  0  0999 V2000
   46.3330   34.6220   41.9370 C   0  0  0  0  0  0  0  0  0  0  0  0
   47.6420   34.9490   41.7440 C   0  0  0  0  0  0  0  0  0  0  0  0
   48.3000   34.7020   40.5360 C   0  0  0  0  0  0  0  0  0  0  0  0
   47.5990   34.0940   39.4740 C   0  0  0  0  0  0  0  0  0  0  0  0
   46.2880   33.7710   39.6820 C   0  0  0  0  0  0  0  0  0  0  0  0
   45.6660   34.0320   40.8960 C   0  0  0  0  0  0  0  0  0  0  0  0
   44.4200   36.2000   44.7630 C   0  0  0  0  0  0  0  0  0  0  0  0
   44.9400   36.0280   43.4800 C   0  0  0  0  0  0  0  0  0  0  0  0
   45.7360   34.9160   43.2190 C   0  0  0  0  0  0  0  0  0  0  0  0
   45.9560   34.0700   44.2330 N   0  0  0  0  0  0  0  0  0  0  0  0
   45.4460   34.2500   45.4760 C   0  0  0  0  0  0  0  0  0  0  0  0
   44.6800   35.3150   45.7330 N   0  0  0  0  0  0  0  0  0  0  0  0
   45.7580   33.2730   46.4620 N   0  0  0  0  0  0  0  0  0  0  0  0
   45.1500   33.1940   47.6580 C   0  0  0  0  0  0  0  0  0  0  0  0
   45.4870   32.2300   48.5830 C   0  0  0  0  0  0  0  0  0  0  0  0
   46.4700   31.3020   48.3110 C   0  0  0  0  0  0  0  0  0  0  0  0
   46.9260   30.2530   49.1590 N   0  0  0  0  0  0  0  0  0  0  0  0
   47.0880   31.3800   47.0980 N   0  0  0  0  0  0  0  0  0  0  0  0
   46.7070   32.3500   46.2440 C   0  0  0  0  0  0  0  0  0  0  0  0
   47.2960   32.4090   45.1130 O   0  0  0  0  0  0  0  0  0  0  0  0
   44.3000   33.6770   41.0570 N   0  0  0  0  0  0  0  0  0  0  0  0
   43.4870   34.6390   40.5130 C   0  0  0  0  0  0  0  0  0  0  0  0
   42.0990   34.4970   40.5570 C   0  0  0  0  0  0  0  0  0  0  0  0
   41.5870   33.3570   41.1650 C   0  0  0  0  0  0  0  0  0  0  0  0
   40.3480   33.1690   41.2370 O   0  0  0  0  0  0  0  0  0  0  0  0
   42.4310   32.4440   41.6820 N   0  0  0  0  0  0  0  0  0  0  0  0
   43.7590   32.5960   41.6320 C   0  0  0  0  0  0  0  0  0  0  0  0
   44.6120   31.8030   42.0840 O   0  0  0  0  0  0  0  0  0  0  0  0
   41.1770   35.5130   39.9820 C   0  0  0  0  0  0  0  0  0  0  0  0
   48.1988   35.4228   42.5659 H   0  0  0  0  0  0  0  0  0  0  0  0
   49.3573   34.9799   40.4144 H   0  0  0  0  0  0  0  0  0  0  0  0
   48.0906   33.8871   38.5119 H   0  0  0  0  0  0  0  0  0  0  0  0
   45.7144   33.2953   38.8729 H   0  0  0  0  0  0  0  0  0  0  0  0
   43.7883   37.0739   44.9803 H   0  0  0  0  0  0  0  0  0  0  0  0
   44.7245   36.7594   42.6871 H   0  0  0  0  0  0  0  0  0  0  0  0
   44.3610   33.9195   47.9054 H   0  0  0  0  0  0  0  0  0  0  0  0
   44.9652   32.2003   49.5509 H   0  0  0  0  0  0  0  0  0  0  0  0
   47.6728   29.6199   48.8390 H   0  0  0  0  0  0  0  0  0  0  0  0
   46.5090   30.1273   50.0924 H   0  0  0  0  0  0  0  0  0  0  0  0
   43.9313   35.5270   40.0396 H   0  0  0  0  0  0  0  0  0  0  0  0
   42.0418   31.6022   42.1300 H   0  0  0  0  0  0  0  0  0  0  0  0
   40.6804   36.0603   40.7968 H   0  0  0  0  0  0  0  0  0  0  0  0
   41.7495   36.2186   39.3620 H   0  0  0  0  0  0  0  0  0  0  0  0
   40.4193   35.0114   39.3620 H   0  0  0  0  0  0  0  0  0  0  0  0
  1  9  1  0
  2  1  2  0
  3  2  1  0
  4  5  1  0
  4  3  2  0
  5  6  2  0
  6 21  1  0
  6  1  1  0
  7 12  2  0
  8  7  1  0
  9  8  2  0
  9 10  1  0
 10 11  2  0
 11 12  1  0
 11 13  1  0
 13 14  1  0
 14 15  2  0
 16 15  1  0
 16 17  1  0
 18 16  2  0
 19 13  1  0
 19 18  1  0
 20 19  2  0
 21 27  1  0
 22 23  2  0
 22 21  1  0
 23 24  1  0
 24 25  2  0
 24 26  1  0
 27 26  1  0
 27 28  2  0
 29 23  1  0
  2 30  1  0
  3 31  1  0
  4 32  1  0
  5 33  1  0
  7 34  1  0
  8 35  1  0
 14 36  1  0
 15 37  1  0
 17 38  1  0
 17 39  1  0
 22 40  1  0
 26 41  1  0
 29 42  1  0
 29 43  1  0
 29 44  1  0
M  ISO  8  30  14  31  14  32  14  33  14  34  14  35  14  36  14  37  14
M  ISO  5  40  14  41   9  42   8  43   8  44   8
M  END
>  <minimizedAffinity>  (1) 
-8.56802559

>  <minimizedRMSD>  (1) 
0.274276614

$$$$
