
     RDKit          3D

 44 48  0  0  1  0  0  0  0  0999 V2000
   46.9290   34.5220   41.3120 C   0  0  0  0  0  0  0  0  0  0  0  0
   48.1870   34.9580   40.9590 C   0  0  0  0  0  0  0  0  0  0  0  0
   48.4570   34.6580   39.6930 N   0  0  0  0  0  0  0  0  0  0  0  0
   47.3740   34.0190   39.2050 C   0  0  0  0  0  0  0  0  0  0  0  0
   47.1210   33.4910   37.9450 C   0  0  0  0  0  0  0  0  0  0  0  0
   45.9150   32.8830   37.7110 C   0  0  0  0  0  0  0  0  0  0  0  0
   44.9110   32.7520   38.6480 C   0  0  0  0  0  0  0  0  0  0  0  0
   45.2040   33.2910   39.8880 C   0  0  0  0  0  0  0  0  0  0  0  0
   46.3880   33.9120   40.1900 C   0  0  0  0  0  0  0  0  0  0  0  0
   44.7770   35.8630   44.0510 C   0  0  0  0  0  0  0  0  0  0  0  0
   45.4140   35.7440   42.8030 C   0  0  0  0  0  0  0  0  0  0  0  0
   46.2600   34.6570   42.6100 C   0  0  0  0  0  0  0  0  0  0  0  0
   46.4450   33.7470   43.6230 N   0  0  0  0  0  0  0  0  0  0  0  0
   45.7990   33.9260   44.7970 C   0  0  0  0  0  0  0  0  0  0  0  0
   44.9720   34.9620   45.0300 N   0  0  0  0  0  0  0  0  0  0  0  0
   49.1040   35.6700   41.8900 C   0  0  0  0  0  0  0  0  0  0  0  0
   49.9530   34.7130   42.6620 C   0  0  0  0  0  0  0  0  0  0  0  0
   50.3150   33.4460   41.9240 C   0  0  1  0  0  0  0  0  0  0  0  0
   51.0720   32.3710   42.5310 C   0  0  0  0  0  0  0  0  0  0  0  0
   49.5910   32.1960   42.4600 C   0  0  2  0  0  0  0  0  0  0  0  0
   49.1310   31.2150   41.5100 N   0  0  0  0  0  0  0  0  0  0  0  0
   47.8550   30.8940   41.2250 C   0  0  0  0  0  0  0  0  0  0  0  0
   47.8310   29.9120   40.2610 C   0  0  0  0  0  0  0  0  0  0  0  0
   49.1220   29.6460   39.9730 N   0  0  0  0  0  0  0  0  0  0  0  0
   49.9010   30.4450   40.7380 C   0  0  0  0  0  0  0  0  0  0  0  0
   49.3257   34.8721   39.1827 H   0  0  0  0  0  0  0  0  0  0  0  0
   47.8762   33.5598   37.1482 H   0  0  0  0  0  0  0  0  0  0  0  0
   45.7354   32.4712   36.7069 H   0  0  0  0  0  0  0  0  0  0  0  0
   43.9533   32.2581   38.4267 H   0  0  0  0  0  0  0  0  0  0  0  0
   44.4421   33.2168   40.6779 H   0  0  0  0  0  0  0  0  0  0  0  0
   44.1030   36.7136   44.2307 H   0  0  0  0  0  0  0  0  0  0  0  0
   45.2489   36.4850   42.0069 H   0  0  0  0  0  0  0  0  0  0  0  0
   45.9567   33.1904   45.5995 H   0  0  0  0  0  0  0  0  0  0  0  0
   49.7566   36.3373   41.3080 H   0  0  0  0  0  0  0  0  0  0  0  0
   48.4940   36.2431   42.6038 H   0  0  0  0  0  0  0  0  0  0  0  0
   50.8860   35.2277   42.9353 H   0  0  0  0  0  0  0  0  0  0  0  0
   49.3556   34.4032   43.5321 H   0  0  0  0  0  0  0  0  0  0  0  0
   50.4561   33.9856   40.9759 H   0  0  0  0  0  0  0  0  0  0  0  0
   51.7216   31.7445   41.9021 H   0  0  0  0  0  0  0  0  0  0  0  0
   51.8027   32.3271   43.3521 H   0  0  0  0  0  0  0  0  0  0  0  0
   48.7600   32.0158   43.1579 H   0  0  0  0  0  0  0  0  0  0  0  0
   46.9676   31.3471   41.6911 H   0  0  0  0  0  0  0  0  0  0  0  0
   46.9419   29.4408   39.8166 H   0  0  0  0  0  0  0  0  0  0  0  0
   51.0009   30.4581   40.7257 H   0  0  0  0  0  0  0  0  0  0  0  0
  1 12  1  0
  2  1  2  0
  2 16  1  0
  3  2  1  0
  4  3  1  0
  4  9  2  0
  5  4  1  0
  6  5  2  0
  6  7  1  0
  7  8  2  0
  8  9  1  0
  9  1  1  0
 10 15  2  0
 11 10  1  0
 12 11  2  0
 12 13  1  0
 13 14  2  0
 14 15  1  0
 16 17  1  0
 18 20  1  0
 18 19  1  0
 18 17  1  0
 20 19  1  0
 21 20  1  0
 22 21  1  0
 23 22  2  0
 24 23  1  0
 24 25  2  0
 25 21  1  0
  3 26  1  0
  5 27  1  0
  6 28  1  0
  7 29  1  0
  8 30  1  0
 10 31  1  0
 11 32  1  0
 14 33  1  0
 16 34  1  0
 16 35  1  0
 17 36  1  0
 17 37  1  0
 18 38  1  6
 19 39  1  0
 19 40  1  0
 20 41  1  1
 22 42  1  0
 23 43  1  0
 25 44  1  0
M  ISO  8  26   9  27  14  28  14  29  14  30  14  31  14  32  14  33  14
M  ISO  8  34   8  35   8  36   8  37   8  38  13  39  13  40  13  41  13
M  ISO  3  42  14  43  14  44  14
M  END
>  <minimizedAffinity>  (1) 
-5.68686867

>  <minimizedRMSD>  (1) 
0.420313925

$$$$
