
     RDKit          3D

 23 24  0  0  0  0  0  0  0  0999 V2000
   47.1330   34.5910   41.9890 C   0  0  0  0  0  0  0  0  0  0  0  0
   45.8530   34.6080   41.4160 C   0  0  0  0  0  0  0  0  0  0  0  0
   44.7330   34.3050   42.2210 C   0  0  0  0  0  0  0  0  0  0  0  0
   44.9660   34.0120   43.5190 N   0  0  0  0  0  0  0  0  0  0  0  0
   46.2270   34.0040   44.0490 C   0  0  0  0  0  0  0  0  0  0  0  0
   47.2870   34.2950   43.2710 N   0  0  0  0  0  0  0  0  0  0  0  0
   43.4170   34.3120   41.6730 N   0  0  0  0  0  0  0  0  0  0  0  0
   42.6080   33.2760   41.3740 C   0  0  0  0  0  0  0  0  0  0  0  0
   41.4420   33.7990   40.8700 C   0  0  0  0  0  0  0  0  0  0  0  0
   41.5250   35.1600   40.8550 N   0  0  0  0  0  0  0  0  0  0  0  0
   42.7500   35.4370   41.3550 C   0  0  0  0  0  0  0  0  0  0  0  0
   48.1850   34.9270   41.0210 C   0  0  0  0  0  0  0  0  0  0  0  0
   49.1270   35.9840   41.5560 C   0  0  0  0  0  0  0  0  0  0  0  0
   45.7230   34.8545   40.3519 H   0  0  0  0  0  0  0  0  0  0  0  0
   46.3753   33.7597   45.1112 H   0  0  0  0  0  0  0  0  0  0  0  0
   42.8389   32.2090   41.5087 H   0  0  0  0  0  0  0  0  0  0  0  0
   40.5761   33.2113   40.5312 H   0  0  0  0  0  0  0  0  0  0  0  0
   43.1509   36.4530   41.4854 H   0  0  0  0  0  0  0  0  0  0  0  0
   47.7145   35.3029   40.1005 H   0  0  0  0  0  0  0  0  0  0  0  0
   48.7703   34.0168   40.8237 H   0  0  0  0  0  0  0  0  0  0  0  0
   49.1113   35.9664   42.6557 H   0  0  0  0  0  0  0  0  0  0  0  0
   50.1477   35.7793   41.2005 H   0  0  0  0  0  0  0  0  0  0  0  0
   48.8066   36.9745   41.2005 H   0  0  0  0  0  0  0  0  0  0  0  0
  1  6  2  0
  2  1  1  0
  2  3  2  0
  3  4  1  0
  4  5  2  0
  6  5  1  0
  7  3  1  0
  8  7  1  0
  9  8  2  0
 10  9  1  0
 10 11  2  0
 11  7  1  0
 12 13  1  0
 12  1  1  0
  2 14  1  0
  5 15  1  0
  8 16  1  0
  9 17  1  0
 11 18  1  0
 12 19  1  0
 12 20  1  0
 13 21  1  0
 13 22  1  0
 13 23  1  0
M  ISO  8  14  14  15  14  16  14  17  14  18  14  19   8  20   8  21   8
M  ISO  2  22   8  23   8
M  END
>  <minimizedAffinity>  (1) 
-4.32422638

>  <minimizedRMSD>  (1) 
2.69303894

$$$$
