
     RDKit          3D

 53 57  0  0  0  0  0  0  0  0999 V2000
   45.3560   34.0630   41.9540 C   0  0  0  0  0  0  0  0  0  0  0  0
   44.3220   33.6300   41.1740 C   0  0  0  0  0  0  0  0  0  0  0  0
   45.1540   33.4490   39.5170 S   0  0  0  0  0  0  0  0  0  0  0  0
   46.7930   34.0080   40.2110 C   0  0  0  0  0  0  0  0  0  0  0  0
   46.4970   34.1890   41.3050 N   0  0  0  0  0  0  0  0  0  0  0  0
   44.4200   35.8060   45.1620 C   0  0  0  0  0  0  0  0  0  0  0  0
   44.5690   35.5480   43.8050 C   0  0  0  0  0  0  0  0  0  0  0  0
   45.1860   34.3560   43.3950 C   0  0  0  0  0  0  0  0  0  0  0  0
   45.6090   33.5060   44.3500 N   0  0  0  0  0  0  0  0  0  0  0  0
   45.4500   33.7830   45.6620 C   0  0  0  0  0  0  0  0  0  0  0  0
   44.8710   34.9000   46.0580 N   0  0  0  0  0  0  0  0  0  0  0  0
   45.9350   32.8120   46.6380 C   0  0  0  0  0  0  0  0  0  0  0  0
   46.9860   31.9470   46.3310 C   0  0  0  0  0  0  0  0  0  0  0  0
   47.4880   31.0160   47.1960 C   0  0  0  0  0  0  0  0  0  0  0  0
   46.9620   30.9120   48.3940 N   0  0  0  0  0  0  0  0  0  0  0  0
   45.9340   31.7430   48.7260 C   0  0  0  0  0  0  0  0  0  0  0  0
   45.4080   32.6890   47.8760 N   0  0  0  0  0  0  0  0  0  0  0  0
   45.2210   31.7950   49.9750 N   0  0  0  0  0  0  0  0  0  0  0  0
   47.9770   34.0980   39.3570 C   0  0  0  0  0  0  0  0  0  0  0  0
   48.5410   32.7270   39.1120 C   0  0  0  0  0  0  0  0  0  0  0  0
   48.1800   32.3650   37.6930 C   0  0  0  0  0  0  0  0  0  0  0  0
   49.2320   32.5340   36.7960 C   0  0  0  0  0  0  0  0  0  0  0  0
   48.9680   32.2210   35.4810 C   0  0  0  0  0  0  0  0  0  0  0  0
   47.7910   31.7860   35.0840 N   0  0  0  0  0  0  0  0  0  0  0  0
   46.7860   31.6300   35.9710 C   0  0  0  0  0  0  0  0  0  0  0  0
   47.0170   31.9270   37.2530 N   0  0  0  0  0  0  0  0  0  0  0  0
   45.5080   31.1610   35.5570 N   0  0  0  0  0  0  0  0  0  0  0  0
   44.9360   30.1690   36.2950 C   0  0  0  0  0  0  0  0  0  0  0  0
   43.6850   29.6720   35.9340 C   0  0  0  0  0  0  0  0  0  0  0  0
   43.0340   28.5870   36.7220 C   0  0  0  0  0  0  0  0  0  0  0  0
   43.0800   30.2130   34.8390 C   0  0  0  0  0  0  0  0  0  0  0  0
   41.9540   29.7480   34.5350 O   0  0  0  0  0  0  0  0  0  0  0  0
   43.6930   31.1930   34.1460 N   0  0  0  0  0  0  0  0  0  0  0  0
   44.9050   31.6900   34.4780 C   0  0  0  0  0  0  0  0  0  0  0  0
   45.4590   32.6060   33.8160 O   0  0  0  0  0  0  0  0  0  0  0  0
   43.2748   33.4387   41.4509 H   0  0  0  0  0  0  0  0  0  0  0  0
   43.9411   36.7357   45.5029 H   0  0  0  0  0  0  0  0  0  0  0  0
   44.2069   36.2710   43.0592 H   0  0  0  0  0  0  0  0  0  0  0  0
   47.4383   32.0191   45.3309 H   0  0  0  0  0  0  0  0  0  0  0  0
   48.3202   30.3636   46.8930 H   0  0  0  0  0  0  0  0  0  0  0  0
   44.4568   32.4734   50.1039 H   0  0  0  0  0  0  0  0  0  0  0  0
   45.4749   31.1538   50.7400 H   0  0  0  0  0  0  0  0  0  0  0  0
   47.6986   34.5542   38.3956 H   0  0  0  0  0  0  0  0  0  0  0  0
   48.7366   34.7161   39.8579 H   0  0  0  0  0  0  0  0  0  0  0  0
   49.6340   32.7377   39.2355 H   0  0  0  0  0  0  0  0  0  0  0  0
   48.1346   31.9953   39.8258 H   0  0  0  0  0  0  0  0  0  0  0  0
   50.2186   32.8972   37.1197 H   0  0  0  0  0  0  0  0  0  0  0  0
   49.7690   32.3387   34.7364 H   0  0  0  0  0  0  0  0  0  0  0  0
   45.4596   29.7618   37.1725 H   0  0  0  0  0  0  0  0  0  0  0  0
   43.1559   28.7902   37.7962 H   0  0  0  0  0  0  0  0  0  0  0  0
   41.9627   28.5471   36.4757 H   0  0  0  0  0  0  0  0  0  0  0  0
   43.5030   27.6230   36.4757 H   0  0  0  0  0  0  0  0  0  0  0  0
   43.2136   31.5827   33.3219 H   0  0  0  0  0  0  0  0  0  0  0  0
  1  8  1  0
  2  1  2  0
  3  4  1  0
  3  2  1  0
  4  5  2  0
  5  1  1  0
  6 11  2  0
  7  6  1  0
  8  7  2  0
  8  9  1  0
  9 10  2  0
 10 11  1  0
 10 12  1  0
 12 17  1  0
 13 12  2  0
 13 14  1  0
 14 15  2  0
 15 16  1  0
 16 18  1  0
 17 16  2  0
 19  4  1  0
 20 19  1  0
 21 20  1  0
 22 21  2  0
 23 22  1  0
 24 23  2  0
 24 25  1  0
 25 26  2  0
 26 21  1  0
 27 25  1  0
 27 28  1  0
 29 28  2  0
 29 30  1  0
 31 29  1  0
 32 31  2  0
 33 34  1  0
 33 31  1  0
 34 27  1  0
 35 34  2  0
  2 36  1  0
  6 37  1  0
  7 38  1  0
 13 39  1  0
 14 40  1  0
 18 41  1  0
 18 42  1  0
 19 43  1  0
 19 44  1  0
 20 45  1  0
 20 46  1  0
 22 47  1  0
 23 48  1  0
 28 49  1  0
 30 50  1  0
 30 51  1  0
 30 52  1  0
 33 53  1  0
M  END
>  <minimizedAffinity>  (1) 
-7.35115242

>  <minimizedRMSD>  (1) 
1.64867008

$$$$
