
     RDKit          3D

 46 50  0  0  1  0  0  0  0  0999 V2000
   46.8710   34.5580   41.3500 C   0  0  0  0  0  0  0  0  0  0  0  0
   48.1460   34.9460   40.9860 C   0  0  0  0  0  0  0  0  0  0  0  0
   48.4010   34.6060   39.7350 N   0  0  0  0  0  0  0  0  0  0  0  0
   47.2990   33.9910   39.2600 C   0  0  0  0  0  0  0  0  0  0  0  0
   47.0400   33.4450   38.0120 C   0  0  0  0  0  0  0  0  0  0  0  0
   45.8220   32.8730   37.7930 C   0  0  0  0  0  0  0  0  0  0  0  0
   44.8140   32.7890   38.7120 C   0  0  0  0  0  0  0  0  0  0  0  0
   45.1120   33.3480   39.9480 C   0  0  0  0  0  0  0  0  0  0  0  0
   46.3150   33.9420   40.2470 C   0  0  0  0  0  0  0  0  0  0  0  0
   44.7390   36.0150   44.0470 C   0  0  0  0  0  0  0  0  0  0  0  0
   45.3770   35.8570   42.7960 C   0  0  0  0  0  0  0  0  0  0  0  0
   46.1990   34.7410   42.6380 C   0  0  0  0  0  0  0  0  0  0  0  0
   46.3570   33.8610   43.6650 N   0  0  0  0  0  0  0  0  0  0  0  0
   45.7120   34.0710   44.8470 C   0  0  0  0  0  0  0  0  0  0  0  0
   44.9080   35.1400   45.0390 N   0  0  0  0  0  0  0  0  0  0  0  0
   49.0820   35.6510   41.9060 C   0  0  0  0  0  0  0  0  0  0  0  0
   50.0210   34.7100   42.5850 C   0  0  0  0  0  0  0  0  0  0  0  0
   50.1210   33.3550   41.9230 C   0  0  1  0  0  0  0  0  0  0  0  0
   51.0470   32.3110   42.3620 C   0  0  0  0  0  0  0  0  0  0  0  0
   49.6490   32.1960   42.8190 C   0  0  2  0  0  0  0  0  0  0  0  0
   48.8770   31.1990   42.2590 O   0  0  0  0  0  0  0  0  0  0  0  0
   47.6240   30.8350   42.6910 C   0  0  0  0  0  0  0  0  0  0  0  0
   47.4390   30.5240   44.0210 C   0  0  0  0  0  0  0  0  0  0  0  0
   46.2590   30.1420   44.6200 C   0  0  0  0  0  0  0  0  0  0  0  0
   45.1800   30.0710   43.8020 N   0  0  0  0  0  0  0  0  0  0  0  0
   45.3190   30.3710   42.4770 C   0  0  0  0  0  0  0  0  0  0  0  0
   46.4900   30.7370   41.9480 N   0  0  0  0  0  0  0  0  0  0  0  0
   49.2762   34.7782   39.2199 H   0  0  0  0  0  0  0  0  0  0  0  0
   47.7997   33.4727   37.2170 H   0  0  0  0  0  0  0  0  0  0  0  0
   45.6357   32.4449   36.7970 H   0  0  0  0  0  0  0  0  0  0  0  0
   43.8454   32.3170   38.4908 H   0  0  0  0  0  0  0  0  0  0  0  0
   44.3415   33.3134   40.7323 H   0  0  0  0  0  0  0  0  0  0  0  0
   44.0844   36.8844   44.2070 H   0  0  0  0  0  0  0  0  0  0  0  0
   45.2318   36.5826   41.9821 H   0  0  0  0  0  0  0  0  0  0  0  0
   45.8496   33.3508   45.6670 H   0  0  0  0  0  0  0  0  0  0  0  0
   49.6680   36.3789   41.3257 H   0  0  0  0  0  0  0  0  0  0  0  0
   48.4819   36.1481   42.6824 H   0  0  0  0  0  0  0  0  0  0  0  0
   51.0221   35.1659   42.5923 H   0  0  0  0  0  0  0  0  0  0  0  0
   49.6246   34.5407   43.5970 H   0  0  0  0  0  0  0  0  0  0  0  0
   49.9252   33.7841   40.9293 H   0  0  0  0  0  0  0  0  0  0  0  0
   51.4373   31.5905   41.6281 H   0  0  0  0  0  0  0  0  0  0  0  0
   52.0163   32.3263   42.8819 H   0  0  0  0  0  0  0  0  0  0  0  0
   49.1313   32.1152   43.7862 H   0  0  0  0  0  0  0  0  0  0  0  0
   48.3245   30.5874   44.6706 H   0  0  0  0  0  0  0  0  0  0  0  0
   46.1960   29.9094   45.6933 H   0  0  0  0  0  0  0  0  0  0  0  0
   44.4367   30.3092   41.8229 H   0  0  0  0  0  0  0  0  0  0  0  0
  1 12  1  0
  2  1  2  0
  2 16  1  0
  3  2  1  0
  4  3  1  0
  4  9  2  0
  5  4  1  0
  6  5  2  0
  6  7  1  0
  7  8  2  0
  8  9  1  0
  9  1  1  0
 10 15  2  0
 11 10  1  0
 12 11  2  0
 12 13  1  0
 13 14  2  0
 14 15  1  0
 16 17  1  0
 18 19  1  0
 18 17  1  0
 18 20  1  0
 19 20  1  0
 21 22  1  0
 21 20  1  0
 22 23  2  0
 23 24  1  0
 25 24  2  0
 26 25  1  0
 27 26  2  0
 27 22  1  0
  3 28  1  0
  5 29  1  0
  6 30  1  0
  7 31  1  0
  8 32  1  0
 10 33  1  0
 11 34  1  0
 14 35  1  0
 16 36  1  0
 16 37  1  0
 17 38  1  0
 17 39  1  0
 18 40  1  6
 19 41  1  0
 19 42  1  0
 20 43  1  1
 23 44  1  0
 24 45  1  0
 26 46  1  0
M  ISO  8  28   9  29  14  30  14  31  14  32  14  33  14  34  14  35  14
M  ISO  8  36   8  37   8  38   8  39   8  40  13  41  13  42  13  43  13
M  ISO  3  44  14  45  14  46  14
M  END
>  <minimizedAffinity>  (1) 
-5.60454893

>  <minimizedRMSD>  (1) 
0.620629549

$$$$
