
     RDKit          3D

 51 55  0  0  1  0  0  0  0  0999 V2000
   47.2740   34.9260   41.7930 C   0  0  0  0  0  0  0  0  0  0  0  0
   48.5170   35.5580   41.7070 C   0  0  0  0  0  0  0  0  0  0  0  0
   49.0270   35.3500   40.4940 N   0  0  0  0  0  0  0  0  0  0  0  0
   48.1430   34.6030   39.8030 C   0  0  0  0  0  0  0  0  0  0  0  0
   48.2140   34.1300   38.5120 C   0  0  0  0  0  0  0  0  0  0  0  0
   47.1730   33.3870   38.0440 C   0  0  0  0  0  0  0  0  0  0  0  0
   46.0340   33.0700   38.7870 C   0  0  0  0  0  0  0  0  0  0  0  0
   46.0450   33.5820   40.0690 C   0  0  0  0  0  0  0  0  0  0  0  0
   47.0350   34.3210   40.5910 C   0  0  0  0  0  0  0  0  0  0  0  0
   44.5120   35.8330   44.1380 C   0  0  0  0  0  0  0  0  0  0  0  0
   45.3410   35.8540   43.0160 C   0  0  0  0  0  0  0  0  0  0  0  0
   46.4060   34.9190   42.9430 C   0  0  0  0  0  0  0  0  0  0  0  0
   46.5160   34.0760   43.9940 N   0  0  0  0  0  0  0  0  0  0  0  0
   45.7190   34.0620   45.0600 C   0  0  0  0  0  0  0  0  0  0  0  0
   44.7160   34.9420   45.1330 N   0  0  0  0  0  0  0  0  0  0  0  0
   45.8840   33.1480   46.1400 N   0  0  0  0  0  0  0  0  0  0  0  0
   46.7310   32.0880   45.9880 C   0  0  0  0  0  0  0  0  0  0  0  0
   46.9060   31.1830   47.0330 C   0  0  0  0  0  0  0  0  0  0  0  0
   47.8200   30.0290   46.8850 C   0  0  0  0  0  0  0  0  0  0  0  0
   46.2120   31.3780   48.2100 C   0  0  0  0  0  0  0  0  0  0  0  0
   46.3520   30.5790   49.1630 O   0  0  0  0  0  0  0  0  0  0  0  0
   45.3780   32.4260   48.3510 N   0  0  0  0  0  0  0  0  0  0  0  0
   45.2420   33.2760   47.3110 C   0  0  0  0  0  0  0  0  0  0  0  0
   44.4530   34.2370   47.4940 O   0  0  0  0  0  0  0  0  0  0  0  0
   44.8400   33.2030   40.7710 N   0  0  0  0  0  0  0  0  0  0  0  0
   43.4650   33.6000   40.9250 C   0  0  0  0  0  0  0  0  0  0  0  0
   42.7710   32.4070   41.5270 C   0  0  0  0  0  0  0  0  0  0  0  0
   43.8510   31.9680   42.5050 C   0  0  0  0  0  0  0  0  0  0  0  0
   45.0640   32.0180   41.6140 C   0  0  1  0  0  0  0  0  0  0  0  0
   45.2320   30.7820   40.8500 C   0  0  0  0  0  0  0  0  0  0  0  0
   44.4390   30.2420   40.0750 O   0  0  0  0  0  0  0  0  0  0  0  0
   48.9972   36.1345   42.5114 H   0  0  0  0  0  0  0  0  0  0  0  0
   49.9326   35.6971   40.1471 H   0  0  0  0  0  0  0  0  0  0  0  0
   49.0860   34.3459   37.8771 H   0  0  0  0  0  0  0  0  0  0  0  0
   47.2335   33.0115   37.0118 H   0  0  0  0  0  0  0  0  0  0  0  0
   45.2045   32.4679   38.3877 H   0  0  0  0  0  0  0  0  0  0  0  0
   43.6819   36.5508   44.2135 H   0  0  0  0  0  0  0  0  0  0  0  0
   45.1728   36.5791   42.2061 H   0  0  0  0  0  0  0  0  0  0  0  0
   47.2745   31.9486   45.0419 H   0  0  0  0  0  0  0  0  0  0  0  0
   48.1109   29.6617   47.8802 H   0  0  0  0  0  0  0  0  0  0  0  0
   47.3102   29.2260   46.3324 H   0  0  0  0  0  0  0  0  0  0  0  0
   48.7184   30.3413   46.3324 H   0  0  0  0  0  0  0  0  0  0  0  0
   44.8584   32.5749   49.2278 H   0  0  0  0  0  0  0  0  0  0  0  0
   43.3878   34.4691   41.5949 H   0  0  0  0  0  0  0  0  0  0  0  0
   43.0141   33.8956   39.9662 H   0  0  0  0  0  0  0  0  0  0  0  0
   41.8397   32.6879   42.0405 H   0  0  0  0  0  0  0  0  0  0  0  0
   42.4436   31.6399   40.8098 H   0  0  0  0  0  0  0  0  0  0  0  0
   43.9399   32.6647   43.3516 H   0  0  0  0  0  0  0  0  0  0  0  0
   43.6706   30.9923   42.9798 H   0  0  0  0  0  0  0  0  0  0  0  0
   46.0057   32.0994   42.1766 H   0  0  0  0  0  0  0  0  0  0  0  0
   46.1937   30.2653   40.9846 H   0  0  0  0  0  0  0  0  0  0  0  0
  1 12  1  0
  2  1  2  0
  3  2  1  0
  4  3  1  0
  4  9  2  0
  5  4  1  0
  6  5  2  0
  6  7  1  0
  7  8  2  0
  8  9  1  0
  8 25  1  0
  9  1  1  0
 10 15  2  0
 11 10  1  0
 12 11  2  0
 12 13  1  0
 13 14  2  0
 14 15  1  0
 14 16  1  0
 16 23  1  0
 17 16  1  0
 17 18  2  0
 18 20  1  0
 19 18  1  0
 20 22  1  0
 20 21  2  0
 23 24  2  0
 23 22  1  0
 25 26  1  0
 25 29  1  0
 26 27  1  0
 27 28  1  0
 29 28  1  0
 30 29  1  0
 31 30  2  0
  2 32  1  0
  3 33  1  0
  5 34  1  0
  6 35  1  0
  7 36  1  0
 10 37  1  0
 11 38  1  0
 17 39  1  0
 19 40  1  0
 19 41  1  0
 19 42  1  0
 22 43  1  0
 26 44  1  0
 26 45  1  0
 27 46  1  0
 27 47  1  0
 28 48  1  0
 28 49  1  0
 29 50  1  1
 30 51  1  0
M  END
>  <minimizedAffinity>  (1) 
-7.83698797

>  <minimizedRMSD>  (1) 
0.186459199

$$$$
