
     RDKit          3D

 55 59  0  0  0  0  0  0  0  0999 V2000
   46.0930   31.8380   47.2780 C   0  0  0  0  0  0  0  0  0  0  0  0
   44.5670   34.9590   46.1950 C   0  0  0  0  0  0  0  0  0  0  0  0
   44.7990   34.9700   44.8120 C   0  0  0  0  0  0  0  0  0  0  0  0
   45.4900   33.8890   44.2360 C   0  0  0  0  0  0  0  0  0  0  0  0
   45.8930   32.9000   45.0540 N   0  0  0  0  0  0  0  0  0  0  0  0
   45.6500   32.9250   46.3920 C   0  0  0  0  0  0  0  0  0  0  0  0
   44.9940   33.9440   46.9510 N   0  0  0  0  0  0  0  0  0  0  0  0
   45.7010   33.9440   42.8370 N   0  0  0  0  0  0  0  0  0  0  0  0
   44.9500   33.7430   41.7580 C   0  0  0  0  0  0  0  0  0  0  0  0
   45.6750   33.9320   40.6340 N   0  0  0  0  0  0  0  0  0  0  0  0
   46.9280   34.2630   41.0030 C   0  0  0  0  0  0  0  0  0  0  0  0
   48.0600   34.5600   40.2440 C   0  0  0  0  0  0  0  0  0  0  0  0
   48.0490   34.5550   39.0200 O   0  0  0  0  0  0  0  0  0  0  0  0
   49.2150   34.8660   40.8560 N   0  0  0  0  0  0  0  0  0  0  0  0
   49.2050   34.8660   42.2040 C   0  0  0  0  0  0  0  0  0  0  0  0
   50.3670   35.1740   42.9630 N   0  0  0  0  0  0  0  0  0  0  0  0
   48.1330   34.5850   42.9350 N   0  0  0  0  0  0  0  0  0  0  0  0
   46.9470   34.2700   42.3900 C   0  0  0  0  0  0  0  0  0  0  0  0
   47.2760   32.2790   48.1280 C   0  0  0  0  0  0  0  0  0  0  0  0
   45.0050   31.3450   48.1970 C   0  0  0  0  0  0  0  0  0  0  0  0
   46.5850   30.7050   46.3870 C   0  0  0  0  0  0  0  0  0  0  0  0
   45.6530   29.5330   46.4320 C   0  0  0  0  0  0  0  0  0  0  0  0
   45.9060   28.4980   47.2580 C   0  0  0  0  0  0  0  0  0  0  0  0
   44.5490   27.2970   47.0120 S   0  0  0  0  0  0  0  0  0  0  0  0
   43.7950   28.4750   45.7320 C   0  0  0  0  0  0  0  0  0  0  0  0
   44.5510   29.3530   45.7390 N   0  0  0  0  0  0  0  0  0  0  0  0
   42.5850   28.3670   44.9150 N   0  0  0  0  0  0  0  0  0  0  0  0
   42.5780   29.1950   43.8280 C   0  0  0  0  0  0  0  0  0  0  0  0
   41.5290   29.2210   42.9630 C   0  0  0  0  0  0  0  0  0  0  0  0
   41.5220   30.1170   41.7860 C   0  0  0  0  0  0  0  0  0  0  0  0
   40.4730   28.3720   43.2390 C   0  0  0  0  0  0  0  0  0  0  0  0
   39.4800   28.3650   42.4640 O   0  0  0  0  0  0  0  0  0  0  0  0
   40.5080   27.5710   44.3150 N   0  0  0  0  0  0  0  0  0  0  0  0
   41.5470   27.5460   45.1710 C   0  0  0  0  0  0  0  0  0  0  0  0
   41.6490   26.8240   46.1940 O   0  0  0  0  0  0  0  0  0  0  0  0
   44.0273   35.7957   46.6625 H   0  0  0  0  0  0  0  0  0  0  0  0
   44.4477   35.8069   44.1905 H   0  0  0  0  0  0  0  0  0  0  0  0
   43.8867   33.4620   41.7780 H   0  0  0  0  0  0  0  0  0  0  0  0
   50.0668   35.0897   40.3219 H   0  0  0  0  0  0  0  0  0  0  0  0
   50.3271   35.1655   43.9922 H   0  0  0  0  0  0  0  0  0  0  0  0
   51.2488   35.4057   42.4837 H   0  0  0  0  0  0  0  0  0  0  0  0
   47.0183   32.1829   49.1931 H   0  0  0  0  0  0  0  0  0  0  0  0
   48.1461   31.6448   47.9026 H   0  0  0  0  0  0  0  0  0  0  0  0
   47.5186   33.3280   47.9026 H   0  0  0  0  0  0  0  0  0  0  0  0
   45.3163   31.4861   49.2426 H   0  0  0  0  0  0  0  0  0  0  0  0
   44.0816   31.9126   48.0096 H   0  0  0  0  0  0  0  0  0  0  0  0
   44.8230   30.2765   48.0096 H   0  0  0  0  0  0  0  0  0  0  0  0
   47.5798   30.3851   46.7306 H   0  0  0  0  0  0  0  0  0  0  0  0
   46.6306   31.0727   45.3513 H   0  0  0  0  0  0  0  0  0  0  0  0
   46.7597   28.3961   47.9441 H   0  0  0  0  0  0  0  0  0  0  0  0
   43.4396   29.8549   43.6487 H   0  0  0  0  0  0  0  0  0  0  0  0
   41.5138   31.1642   42.1225 H   0  0  0  0  0  0  0  0  0  0  0  0
   42.4216   29.9335   41.1802 H   0  0  0  0  0  0  0  0  0  0  0  0
   40.6254   29.9195   41.1802 H   0  0  0  0  0  0  0  0  0  0  0  0
   39.7065   26.9492   44.4936 H   0  0  0  0  0  0  0  0  0  0  0  0
  1 19  1  0
  1 20  1  0
  2  7  2  0
  3  2  1  0
  4  3  2  0
  4  5  1  0
  5  6  2  0
  6  7  1  0
  6  1  1  0
  8  4  1  0
  9  8  1  0
 10 11  1  0
 10  9  2  0
 11 18  2  0
 12 14  1  0
 12 11  1  0
 13 12  2  0
 14 15  1  0
 15 17  2  0
 15 16  1  0
 18  8  1  0
 18 17  1  0
 21 22  1  0
 21  1  1  0
 22 23  2  0
 24 23  1  0
 25 26  2  0
 25 24  1  0
 26 22  1  0
 27 34  1  0
 27 25  1  0
 28 27  1  0
 29 31  1  0
 29 28  2  0
 30 29  1  0
 31 33  1  0
 32 31  2  0
 33 34  1  0
 34 35  2  0
  2 36  1  0
  3 37  1  0
  9 38  1  0
 14 39  1  0
 16 40  1  0
 16 41  1  0
 19 42  1  0
 19 43  1  0
 19 44  1  0
 20 45  1  0
 20 46  1  0
 20 47  1  0
 21 48  1  0
 21 49  1  0
 23 50  1  0
 28 51  1  0
 30 52  1  0
 30 53  1  0
 30 54  1  0
 33 55  1  0
M  END
>  <minimizedAffinity>  (1) 
-7.98318005

>  <minimizedRMSD>  (1) 
0.479273558

$$$$
