
     RDKit          3D

 45 48  0  0  0  0  0  0  0  0999 V2000
   46.7110   34.6620   41.7050 C   0  0  0  0  0  0  0  0  0  0  0  0
   44.5770   35.8090   44.5500 C   0  0  0  0  0  0  0  0  0  0  0  0
   45.1690   35.7430   43.2870 C   0  0  0  0  0  0  0  0  0  0  0  0
   46.0790   34.7400   43.0420 C   0  0  0  0  0  0  0  0  0  0  0  0
   46.3560   33.8640   44.0440 N   0  0  0  0  0  0  0  0  0  0  0  0
   45.7740   33.9410   45.2670 C   0  0  0  0  0  0  0  0  0  0  0  0
   44.8730   34.9330   45.5110 N   0  0  0  0  0  0  0  0  0  0  0  0
   46.0920   32.9920   46.3130 C   0  0  0  0  0  0  0  0  0  0  0  0
   45.4040   33.0240   47.5110 C   0  0  0  0  0  0  0  0  0  0  0  0
   45.6490   32.1500   48.5610 C   0  0  0  0  0  0  0  0  0  0  0  0
   46.6270   31.2640   48.2980 C   0  0  0  0  0  0  0  0  0  0  0  0
   47.3510   31.1730   47.1330 C   0  0  0  0  0  0  0  0  0  0  0  0
   47.0260   32.0770   46.1780 N   0  0  0  0  0  0  0  0  0  0  0  0
   44.3760   34.0150   47.6760 N   0  0  0  0  0  0  0  0  0  0  0  0
   48.0440   35.3670   41.6610 C   0  0  0  0  0  0  0  0  0  0  0  0
   49.1780   34.4240   41.8000 C   0  0  0  0  0  0  0  0  0  0  0  0
   50.2170   34.6850   42.6010 N   0  0  0  0  0  0  0  0  0  0  0  0
   51.0460   33.6950   42.5230 O   0  0  0  0  0  0  0  0  0  0  0  0
   50.5800   32.7820   41.6860 C   0  0  0  0  0  0  0  0  0  0  0  0
   49.4030   33.2360   41.2270 N   0  0  0  0  0  0  0  0  0  0  0  0
   51.3360   31.5990   41.4480 N   0  0  0  0  0  0  0  0  0  0  0  0
   52.2840   31.4820   40.5100 C   0  0  0  0  0  0  0  0  0  0  0  0
   52.9810   30.2830   40.3410 C   0  0  0  0  0  0  0  0  0  0  0  0
   54.0250   30.1800   39.2970 C   0  0  0  0  0  0  0  0  0  0  0  0
   52.6660   29.2210   41.1680 C   0  0  0  0  0  0  0  0  0  0  0  0
   53.2910   28.1540   41.0120 O   0  0  0  0  0  0  0  0  0  0  0  0
   51.7020   29.3950   42.0950 N   0  0  0  0  0  0  0  0  0  0  0  0
   51.0290   30.5660   42.2530 C   0  0  0  0  0  0  0  0  0  0  0  0
   50.1730   30.5110   43.1740 O   0  0  0  0  0  0  0  0  0  0  0  0
   46.8616   33.6036   41.4459 H   0  0  0  0  0  0  0  0  0  0  0  0
   46.0427   35.1596   40.9868 H   0  0  0  0  0  0  0  0  0  0  0  0
   43.8468   36.6050   44.7578 H   0  0  0  0  0  0  0  0  0  0  0  0
   44.9141   36.4751   42.5066 H   0  0  0  0  0  0  0  0  0  0  0  0
   45.0987   32.1787   49.5130 H   0  0  0  0  0  0  0  0  0  0  0  0
   46.8707   30.5428   49.0920 H   0  0  0  0  0  0  0  0  0  0  0  0
   48.1387   30.4193   46.9866 H   0  0  0  0  0  0  0  0  0  0  0  0
   43.8452   34.0646   48.5573 H   0  0  0  0  0  0  0  0  0  0  0  0
   44.1702   34.6755   46.9129 H   0  0  0  0  0  0  0  0  0  0  0  0
   48.1357   35.8926   40.6991 H   0  0  0  0  0  0  0  0  0  0  0  0
   48.0831   36.0706   42.5056 H   0  0  0  0  0  0  0  0  0  0  0  0
   52.5172   32.3411   39.8639 H   0  0  0  0  0  0  0  0  0  0  0  0
   55.0117   30.0827   39.7735 H   0  0  0  0  0  0  0  0  0  0  0  0
   53.8315   29.2966   38.6708 H   0  0  0  0  0  0  0  0  0  0  0  0
   54.0078   31.0842   38.6708 H   0  0  0  0  0  0  0  0  0  0  0  0
   51.4647   28.6047   42.7115 H   0  0  0  0  0  0  0  0  0  0  0  0
  1  4  1  0
  2  7  2  0
  3  2  1  0
  4  3  2  0
  4  5  1  0
  5  6  2  0
  6  7  1  0
  6  8  1  0
  8  9  2  0
  9 14  1  0
  9 10  1  0
 11 10  2  0
 12 11  1  0
 13  8  1  0
 13 12  2  0
 15  1  1  0
 15 16  1  0
 16 17  2  0
 18 17  1  0
 19 18  1  0
 20 19  2  0
 20 16  1  0
 21 19  1  0
 21 28  1  0
 22 21  1  0
 23 22  2  0
 23 25  1  0
 24 23  1  0
 25 27  1  0
 26 25  2  0
 27 28  1  0
 28 29  2  0
  1 30  1  0
  1 31  1  0
  2 32  1  0
  3 33  1  0
 10 34  1  0
 11 35  1  0
 12 36  1  0
 14 37  1  0
 14 38  1  0
 15 39  1  0
 15 40  1  0
 22 41  1  0
 24 42  1  0
 24 43  1  0
 24 44  1  0
 27 45  1  0
M  END
>  <minimizedAffinity>  (1) 
-7.59599018

>  <minimizedRMSD>  (1) 
0.351196259

$$$$
