
     RDKit          3D

 52 56  0  0  0  0  0  0  0  0999 V2000
   48.1360   30.8470   48.4290 C   0  0  0  0  0  0  0  0  0  0  0  0
   49.0590   31.3880   49.2780 C   0  0  0  0  0  0  0  0  0  0  0  0
   50.0740   30.6280   49.7950 C   0  0  0  0  0  0  0  0  0  0  0  0
   50.1440   29.2860   49.4350 C   0  0  0  0  0  0  0  0  0  0  0  0
   49.2160   28.7450   48.5810 C   0  0  0  0  0  0  0  0  0  0  0  0
   48.2090   29.5080   48.0700 C   0  0  0  0  0  0  0  0  0  0  0  0
   44.5270   35.7280   44.6510 C   0  0  0  0  0  0  0  0  0  0  0  0
   45.2530   35.6130   43.4630 C   0  0  0  0  0  0  0  0  0  0  0  0
   46.2340   34.6290   43.3580 C   0  0  0  0  0  0  0  0  0  0  0  0
   46.4440   33.8170   44.4240 N   0  0  0  0  0  0  0  0  0  0  0  0
   45.7160   33.9560   45.5730 C   0  0  0  0  0  0  0  0  0  0  0  0
   44.7640   34.9000   45.6960 N   0  0  0  0  0  0  0  0  0  0  0  0
   45.9440   33.0980   46.6850 N   0  0  0  0  0  0  0  0  0  0  0  0
   47.1250   32.4640   46.7600 C   0  0  0  0  0  0  0  0  0  0  0  0
   47.0870   31.7090   47.9170 C   0  0  0  0  0  0  0  0  0  0  0  0
   45.8860   31.9060   48.5120 N   0  0  0  0  0  0  0  0  0  0  0  0
   45.1850   32.7470   47.7740 C   0  0  0  0  0  0  0  0  0  0  0  0
   47.2520   28.9560   47.1930 N   0  0  0  0  0  0  0  0  0  0  0  0
   49.3010   27.3350   48.2110 C   0  0  0  0  0  0  0  0  0  0  0  0
   48.3380   26.5450   48.3300 O   0  0  0  0  0  0  0  0  0  0  0  0
   50.5880   26.8060   47.6640 C   0  0  0  0  0  0  0  0  0  0  0  0
   51.2210   25.6770   48.3100 C   0  0  0  0  0  0  0  0  0  0  0  0
   52.7050   25.4310   47.2950 S   0  0  0  0  0  0  0  0  0  0  0  0
   52.2570   26.8770   46.1560 C   0  0  0  0  0  0  0  0  0  0  0  0
   51.2400   27.2470   46.6380 N   0  0  0  0  0  0  0  0  0  0  0  0
   53.0450   27.2850   45.0490 N   0  0  0  0  0  0  0  0  0  0  0  0
   50.7320   24.9930   49.4510 N   0  0  0  0  0  0  0  0  0  0  0  0
   49.9420   23.9080   49.2720 C   0  0  0  0  0  0  0  0  0  0  0  0
   49.4260   23.1860   50.3210 C   0  0  0  0  0  0  0  0  0  0  0  0
   48.5600   21.9950   50.0700 C   0  0  0  0  0  0  0  0  0  0  0  0
   49.6950   23.5430   51.6310 C   0  0  0  0  0  0  0  0  0  0  0  0
   49.2640   22.9380   52.6300 O   0  0  0  0  0  0  0  0  0  0  0  0
   50.4850   24.6280   51.7550 N   0  0  0  0  0  0  0  0  0  0  0  0
   50.9870   25.3310   50.7210 C   0  0  0  0  0  0  0  0  0  0  0  0
   51.7160   26.3330   50.9080 O   0  0  0  0  0  0  0  0  0  0  0  0
   48.9859   32.4511   49.5508 H   0  0  0  0  0  0  0  0  0  0  0  0
   50.8157   31.0677   50.4781 H   0  0  0  0  0  0  0  0  0  0  0  0
   50.9491   28.6539   49.8379 H   0  0  0  0  0  0  0  0  0  0  0  0
   43.7511   36.5028   44.7389 H   0  0  0  0  0  0  0  0  0  0  0  0
   45.0526   36.2912   42.6205 H   0  0  0  0  0  0  0  0  0  0  0  0
   46.8222   34.5138   42.4356 H   0  0  0  0  0  0  0  0  0  0  0  0
   47.9569   32.5319   46.0435 H   0  0  0  0  0  0  0  0  0  0  0  0
   44.1683   33.1047   47.9937 H   0  0  0  0  0  0  0  0  0  0  0  0
   47.3087   27.9622   46.9284 H   0  0  0  0  0  0  0  0  0  0  0  0
   46.4965   29.5467   46.8172 H   0  0  0  0  0  0  0  0  0  0  0  0
   53.9182   26.7860   44.8266 H   0  0  0  0  0  0  0  0  0  0  0  0
   52.7439   28.0802   44.4677 H   0  0  0  0  0  0  0  0  0  0  0  0
   49.7038   23.5919   48.2457 H   0  0  0  0  0  0  0  0  0  0  0  0
   48.2450   21.5617   51.0307 H   0  0  0  0  0  0  0  0  0  0  0  0
   47.6723   22.3013   49.4972 H   0  0  0  0  0  0  0  0  0  0  0  0
   49.1251   21.2449   49.4972 H   0  0  0  0  0  0  0  0  0  0  0  0
   50.7216   24.9418   52.7071 H   0  0  0  0  0  0  0  0  0  0  0  0
  1  2  2  0
  2  3  1  0
  4  3  2  0
  5  4  1  0
  6  1  1  0
  6  5  2  0
  7 12  2  0
  8  7  1  0
  9  8  2  0
  9 10  1  0
 10 11  2  0
 11 12  1  0
 11 13  1  0
 13 14  1  0
 13 17  1  0
 14 15  2  0
 15  1  1  0
 15 16  1  0
 17 16  2  0
 18  6  1  0
 19 20  2  0
 19  5  1  0
 21 19  1  0
 21 22  2  0
 22 27  1  0
 23 22  1  0
 24 25  2  0
 24 23  1  0
 25 21  1  0
 26 24  1  0
 27 34  1  0
 28 27  1  0
 28 29  2  0
 29 31  1  0
 30 29  1  0
 31 33  1  0
 31 32  2  0
 34 35  2  0
 34 33  1  0
  2 36  1  0
  3 37  1  0
  4 38  1  0
  7 39  1  0
  8 40  1  0
  9 41  1  0
 14 42  1  0
 17 43  1  0
 18 44  1  0
 18 45  1  0
 26 46  1  0
 26 47  1  0
 28 48  1  0
 30 49  1  0
 30 50  1  0
 30 51  1  0
 33 52  1  0
M  ISO  8  36  14  37  14  38  14  39  14  40  14  41  14  42  14  43  14
M  ISO  5  48  14  49   8  50   8  51   8  52   9
M  END
>  <minimizedAffinity>  (1) 
-6.95732117

>  <minimizedRMSD>  (1) 
1.86958146

$$$$
