
     RDKit          3D

 31 32  0  0  1  0  0  0  0  0999 V2000
   45.5810   33.7730   41.7910 N   0  0  0  0  0  0  0  0  0  0  0  0
   44.8540   32.6620   41.2280 C   0  0  0  0  0  0  0  0  0  0  0  0
   44.8650   32.5430   39.7670 C   0  0  0  0  0  0  0  0  0  0  0  0
   45.7720   33.2790   39.0830 O   0  0  0  0  0  0  0  0  0  0  0  0
   46.8930   33.6320   39.7640 C   0  0  0  0  0  0  0  0  0  0  0  0
   46.5930   34.4440   41.0210 C   0  0  2  0  0  0  0  0  0  0  0  0
   45.3900   34.0140   45.5170 C   0  0  0  0  0  0  0  0  0  0  0  0
   45.6730   33.5130   44.2440 C   0  0  0  0  0  0  0  0  0  0  0  0
   45.3190   34.2320   43.1070 C   0  0  0  0  0  0  0  0  0  0  0  0
   44.6790   35.4590   43.2810 N   0  0  0  0  0  0  0  0  0  0  0  0
   44.4240   35.9070   44.5310 C   0  0  0  0  0  0  0  0  0  0  0  0
   44.7730   35.1980   45.6210 N   0  0  0  0  0  0  0  0  0  0  0  0
   47.8730   34.6780   41.7430 C   0  0  0  0  0  0  0  0  0  0  0  0
   48.5920   33.7510   42.1160 O   0  0  0  0  0  0  0  0  0  0  0  0
   49.8970   33.4450   41.8260 C   0  0  0  0  0  0  0  0  0  0  0  0
   50.3600   32.5450   40.8290 N   0  0  0  0  0  0  0  0  0  0  0  0
   50.7420   34.0610   42.5570 O   0  0  0  0  0  0  0  0  0  0  0  0
   45.2842   31.7379   41.6413 H   0  0  0  0  0  0  0  0  0  0  0  0
   43.8019   32.8379   41.4967 H   0  0  0  0  0  0  0  0  0  0  0  0
   45.0496   31.4860   39.5248 H   0  0  0  0  0  0  0  0  0  0  0  0
   43.8890   32.9379   39.4483 H   0  0  0  0  0  0  0  0  0  0  0  0
   47.4287   32.7169   40.0567 H   0  0  0  0  0  0  0  0  0  0  0  0
   47.4981   34.2652   39.0984 H   0  0  0  0  0  0  0  0  0  0  0  0
   46.1772   35.4355   40.7887 H   0  0  0  0  0  0  0  0  0  0  0  0
   45.6688   33.4465   46.4171 H   0  0  0  0  0  0  0  0  0  0  0  0
   46.1798   32.5423   44.1399 H   0  0  0  0  0  0  0  0  0  0  0  0
   43.9186   36.8754   44.6606 H   0  0  0  0  0  0  0  0  0  0  0  0
   48.4918   35.2990   41.0786 H   0  0  0  0  0  0  0  0  0  0  0  0
   47.5250   35.0980   42.6982 H   0  0  0  0  0  0  0  0  0  0  0  0
   51.3708   32.3937   40.7012 H   0  0  0  0  0  0  0  0  0  0  0  0
   49.6849   32.0439   40.2340 H   0  0  0  0  0  0  0  0  0  0  0  0
  1  9  1  0
  2  1  1  0
  3  2  1  0
  4  5  1  0
  4  3  1  0
  5  6  1  0
  6 13  1  0
  6  1  1  0
  7 12  2  0
  8  7  1  0
  9 10  1  0
  9  8  2  0
 10 11  2  0
 11 12  1  0
 13 14  1  0
 15 14  1  0
 15 17  2  0
 16 15  1  0
  2 18  1  0
  2 19  1  0
  3 20  1  0
  3 21  1  0
  5 22  1  0
  5 23  1  0
  6 24  1  6
  7 25  1  0
  8 26  1  0
 11 27  1  0
 13 28  1  0
 13 29  1  0
 16 30  1  0
 16 31  1  0
M  ISO  8  18  13  19  13  20  13  21  13  22  13  23  13  24  13  25  14
M  ISO  4  26  14  27  14  28   8  29   8
M  END
>  <minimizedAffinity>  (1) 
-4.32228613

>  <minimizedRMSD>  (1) 
2.29077983

$$$$
