
     RDKit          3D

 42 42  0  0  1  0  0  0  0  0999 V2000
   44.4310   35.9180   44.7320 C   0  0  0  0  0  0  0  0  0  0  0  0
   44.5310   35.6930   43.3550 C   0  0  0  0  0  0  0  0  0  0  0  0
   45.4560   34.6730   43.0110 C   0  0  0  0  0  0  0  0  0  0  0  0
   45.4740   33.6560   43.9140 N   0  0  0  0  0  0  0  0  0  0  0  0
   45.4310   33.9050   45.2180 C   0  0  0  0  0  0  0  0  0  0  0  0
   44.8850   35.0640   45.6570 N   0  0  0  0  0  0  0  0  0  0  0  0
   45.9220   32.9830   46.1110 N   0  0  0  0  0  0  0  0  0  0  0  0
   45.2720   32.9840   47.4480 C   0  0  0  0  0  0  0  0  0  0  0  0
   46.0690   32.2140   48.4730 C   0  0  0  0  0  0  0  0  0  0  0  0
   47.2920   31.7520   48.0300 O   0  0  0  0  0  0  0  0  0  0  0  0
   47.0990   31.0490   46.8640 C   0  0  0  0  0  0  0  0  0  0  0  0
   47.0160   32.1280   45.7990 C   0  0  1  0  0  0  0  0  0  0  0  0
   45.5000   33.5290   43.0430 H   0  0  0  0  0  0  0  0  0  0  0  0
   46.8020   31.7610   44.4830 N   0  0  0  0  0  0  0  0  0  0  0  0
   45.5500   31.3420   44.1550 C   0  0  0  0  0  0  0  0  0  0  0  0
   45.5860   31.0180   42.6810 C   0  0  0  0  0  0  0  0  0  0  0  0
   46.8750   31.7240   42.2080 C   0  0  0  0  0  0  0  0  0  0  0  0
   47.3430   32.4380   43.4440 C   0  0  2  0  0  0  0  0  0  0  0  0
   48.5920   31.7080   43.6630 O   0  0  0  0  0  0  0  0  0  0  0  0
   43.9529   36.8480   45.0733 H   0  0  0  0  0  0  0  0  0  0  0  0
   44.9718   34.7011   43.1766 H   0  0  0  0  0  0  0  0  0  0  0  0
   43.5292   35.7357   42.9028 H   0  0  0  0  0  0  0  0  0  0  0  0
   45.1706   36.4652   42.9028 H   0  0  0  0  0  0  0  0  0  0  0  0
   45.4560   34.6730   44.1110 H   0  0  0  0  0  0  0  0  0  0  0  0
   45.4560   35.7101   42.6443 H   0  0  0  0  0  0  0  0  0  0  0  0
   46.3541   34.1545   42.6443 H   0  0  0  0  0  0  0  0  0  0  0  0
   44.5579   34.1545   42.6443 H   0  0  0  0  0  0  0  0  0  0  0  0
   45.1675   34.0243   47.7898 H   0  0  0  0  0  0  0  0  0  0  0  0
   44.2923   32.4943   47.3463 H   0  0  0  0  0  0  0  0  0  0  0  0
   46.2448   32.8738   49.3354 H   0  0  0  0  0  0  0  0  0  0  0  0
   45.4737   31.3229   48.7212 H   0  0  0  0  0  0  0  0  0  0  0  0
   47.9439   30.3718   46.6705 H   0  0  0  0  0  0  0  0  0  0  0  0
   46.2024   30.4124   46.8949 H   0  0  0  0  0  0  0  0  0  0  0  0
   48.0253   32.5639   45.8350 H   0  0  0  0  0  0  0  0  0  0  0  0
   45.2834   30.4466   44.7357 H   0  0  0  0  0  0  0  0  0  0  0  0
   44.7984   32.1138   44.3771 H   0  0  0  0  0  0  0  0  0  0  0  0
   45.6451   29.9322   42.5152 H   0  0  0  0  0  0  0  0  0  0  0  0
   44.6859   31.3461   42.1405 H   0  0  0  0  0  0  0  0  0  0  0  0
   47.6231   30.9935   41.8663 H   0  0  0  0  0  0  0  0  0  0  0  0
   46.7115   32.3979   41.3541 H   0  0  0  0  0  0  0  0  0  0  0  0
   47.2376   33.5307   43.3737 H   0  0  0  0  0  0  0  0  0  0  0  0
   48.7531   31.6139   44.6353 H   0  0  0  0  0  0  0  0  0  0  0  0
  1  6  2  0
  2  1  1  0
  4  5  2  0
  5  6  1  0
  5  7  1  0
  7  8  1  0
  8  9  1  0
 10  9  1  0
 11 10  1  0
 12  7  1  0
 12 11  1  0
 13  4  1  0
 14 15  1  0
 14 12  1  0
 16 15  1  0
 17 16  1  0
 17 18  1  0
 18 19  1  0
 18 14  1  0
  1 20  1  0
  2 21  1  0
  2 22  1  0
  2 23  1  0
  3 24  1  0
  3 25  1  0
  3 26  1  0
  3 27  1  0
  8 28  1  0
  8 29  1  0
  9 30  1  0
  9 31  1  0
 11 32  1  0
 11 33  1  0
 12 34  1  6
 15 35  1  0
 15 36  1  0
 16 37  1  0
 16 38  1  0
 17 39  1  0
 17 40  1  0
 18 41  1  6
 19 42  1  0
M  ISO  8  21   8  22   8  23   8  24   8  25   8  26   8  27   8  28  13
M  ISO  8  29  13  30  13  31  13  32  13  33  13  34  13  35  13  36  13
M  ISO  6  37  13  38  13  39  13  40  13  41  13  42   3
M  END
>  <minimizedAffinity>  (1) 
-4.57963037

>  <minimizedRMSD>  (1) 
0.487239242

$$$$
