
     RDKit          3D

 45 47  0  0  0  0  0  0  0  0999 V2000
   50.7560   33.0600   42.0390 C   0  0  0  0  0  0  0  0  0  0  0  0
   50.7570   31.6700   41.9220 C   0  0  0  0  0  0  0  0  0  0  0  0
   49.6260   31.0040   42.3770 C   0  0  0  0  0  0  0  0  0  0  0  0
   48.5980   31.7390   42.9030 N   0  0  0  0  0  0  0  0  0  0  0  0
   48.6420   33.0780   42.9960 C   0  0  0  0  0  0  0  0  0  0  0  0
   49.7070   33.7030   42.5670 N   0  0  0  0  0  0  0  0  0  0  0  0
   47.4950   33.6730   43.5650 N   0  0  0  0  0  0  0  0  0  0  0  0
   47.0890   33.1800   44.7530 C   0  0  0  0  0  0  0  0  0  0  0  0
   45.9770   33.6910   45.4030 C   0  0  0  0  0  0  0  0  0  0  0  0
   45.2790   34.7300   44.8060 C   0  0  0  0  0  0  0  0  0  0  0  0
   44.2680   35.2190   45.3660 O   0  0  0  0  0  0  0  0  0  0  0  0
   45.6990   35.2150   43.6110 N   0  0  0  0  0  0  0  0  0  0  0  0
   46.7870   34.6970   43.0020 C   0  0  0  0  0  0  0  0  0  0  0  0
   47.2030   35.1190   41.9010 O   0  0  0  0  0  0  0  0  0  0  0  0
   45.5650   33.1190   46.7270 C   0  0  0  0  0  0  0  0  0  0  0  0
   44.9450   36.2880   43.0300 C   0  0  0  0  0  0  0  0  0  0  0  0
   44.0340   35.7560   42.0010 C   0  0  0  0  0  0  0  0  0  0  0  0
   42.7420   35.2820   42.4250 N   0  0  0  0  0  0  0  0  0  0  0  0
   41.6460   35.3050   41.5580 C   0  0  0  0  0  0  0  0  0  0  0  0
   40.9640   36.3380   41.1790 O   0  0  0  0  0  0  0  0  0  0  0  0
   40.9800   34.2030   40.8670 N   0  0  0  0  0  0  0  0  0  0  0  0
   39.8810   33.5200   41.5180 C   0  0  0  0  0  0  0  0  0  0  0  0
   38.7540   33.7020   40.5020 C   0  0  0  0  0  0  0  0  0  0  0  0
   39.4950   33.3820   39.2200 C   0  0  0  0  0  0  0  0  0  0  0  0
   40.9730   33.4190   39.6390 C   0  0  0  0  0  0  0  0  0  0  0  0
   51.6277   33.6349   41.6932 H   0  0  0  0  0  0  0  0  0  0  0  0
   51.6114   31.1279   41.4906 H   0  0  0  0  0  0  0  0  0  0  0  0
   49.5579   29.9078   42.3158 H   0  0  0  0  0  0  0  0  0  0  0  0
   47.6519   32.3557   45.2152 H   0  0  0  0  0  0  0  0  0  0  0  0
   45.9993   33.7220   47.5380 H   0  0  0  0  0  0  0  0  0  0  0  0
   44.4680   33.1327   46.8070 H   0  0  0  0  0  0  0  0  0  0  0  0
   45.9256   32.0828   46.8070 H   0  0  0  0  0  0  0  0  0  0  0  0
   44.3581   36.7887   43.8141 H   0  0  0  0  0  0  0  0  0  0  0  0
   45.6352   37.0089   42.5674 H   0  0  0  0  0  0  0  0  0  0  0  0
   44.5473   34.9148   41.5123 H   0  0  0  0  0  0  0  0  0  0  0  0
   43.8131   36.6188   41.3554 H   0  0  0  0  0  0  0  0  0  0  0  0
   42.6237   34.9204   43.3822 H   0  0  0  0  0  0  0  0  0  0  0  0
   40.1088   32.4557   41.6771 H   0  0  0  0  0  0  0  0  0  0  0  0
   39.6451   33.9093   42.5194 H   0  0  0  0  0  0  0  0  0  0  0  0
   37.9268   32.9993   40.6808 H   0  0  0  0  0  0  0  0  0  0  0  0
   38.2703   34.6898   40.5213 H   0  0  0  0  0  0  0  0  0  0  0  0
   39.2868   34.1365   38.4471 H   0  0  0  0  0  0  0  0  0  0  0  0
   39.1981   32.4168   38.7839 H   0  0  0  0  0  0  0  0  0  0  0  0
   41.3512   32.4027   39.8235 H   0  0  0  0  0  0  0  0  0  0  0  0
   41.6195   33.8512   38.8610 H   0  0  0  0  0  0  0  0  0  0  0  0
  1  6  2  0
  2  1  1  0
  2  3  2  0
  3  4  1  0
  4  5  2  0
  5  7  1  0
  6  5  1  0
  7  8  1  0
  8  9  2  0
  9 15  1  0
 10 11  2  0
 10  9  1  0
 12 10  1  0
 13  7  1  0
 13 12  1  0
 14 13  2  0
 16 12  1  0
 17 18  1  0
 17 16  1  0
 19 18  1  0
 20 19  2  0
 21 22  1  0
 21 19  1  0
 23 22  1  0
 24 25  1  0
 24 23  1  0
 25 21  1  0
  1 26  1  0
  2 27  1  0
  3 28  1  0
  8 29  1  0
 15 30  1  0
 15 31  1  0
 15 32  1  0
 16 33  1  0
 16 34  1  0
 17 35  1  0
 17 36  1  0
 18 37  1  0
 22 38  1  0
 22 39  1  0
 23 40  1  0
 23 41  1  0
 24 42  1  0
 24 43  1  0
 25 44  1  0
 25 45  1  0
M  ISO  8  26  14  27  14  28  14  29  14  30   8  31   8  32   8  33   8
M  ISO  8  34   8  35   8  36   8  38  13  39  13  40  13  41  13  42  13
M  ISO  3  43  13  44  13  45  13
M  END
>  <minimizedAffinity>  (1) 
-6.87496948

>  <minimizedRMSD>  (1) 
0.30491209

$$$$
