
     RDKit          3D

 37 39  0  0  1  0  0  0  0  0999 V2000
   47.0580   30.8060   47.5110 N   0  0  0  0  0  0  0  0  0  0  0  0
   47.0870   31.1540   48.9290 C   0  0  0  0  0  0  0  0  0  0  0  0
   45.9290   32.1100   49.0310 C   0  0  0  0  0  0  0  0  0  0  0  0
   44.8630   31.4630   48.1960 C   0  0  0  0  0  0  0  0  0  0  0  0
   45.7080   30.7300   47.1390 C   0  0  2  0  0  0  0  0  0  0  0  0
   45.1440   29.3530   47.1120 C   0  0  0  0  0  0  0  0  0  0  0  0
   45.1870   28.1890   47.8660 C   0  0  0  0  0  0  0  0  0  0  0  0
   44.4130   27.2590   47.2620 C   0  0  0  0  0  0  0  0  0  0  0  0
   43.8910   27.8320   46.1430 N   0  0  0  0  0  0  0  0  0  0  0  0
   44.3330   29.0910   46.0560 N   0  0  0  0  0  0  0  0  0  0  0  0
   45.5250   31.1900   45.8580 O   0  0  0  0  0  0  0  0  0  0  0  0
   46.3550   32.1570   45.1920 C   0  0  0  0  0  0  0  0  0  0  0  0
   47.5090   31.8680   44.8950 O   0  0  0  0  0  0  0  0  0  0  0  0
   44.6290   35.3470   45.6500 C   0  0  0  0  0  0  0  0  0  0  0  0
   44.4770   35.8300   44.3550 C   0  0  0  0  0  0  0  0  0  0  0  0
   44.9690   35.0580   43.3190 C   0  0  0  0  0  0  0  0  0  0  0  0
   45.5770   33.8600   43.6290 N   0  0  0  0  0  0  0  0  0  0  0  0
   45.6910   33.4510   44.9290 C   0  0  0  0  0  0  0  0  0  0  0  0
   45.2210   34.1890   45.9190 N   0  0  0  0  0  0  0  0  0  0  0  0
   44.8760   35.4320   41.9870 O   0  0  0  0  0  0  0  0  0  0  0  0
   43.7080   35.2270   41.2680 C   0  0  0  0  0  0  0  0  0  0  0  0
   43.9880   34.7710   39.9300 N   0  0  0  0  0  0  0  0  0  0  0  0
   42.5190   35.3710   41.5920 O   0  0  0  0  0  0  0  0  0  0  0  0
   47.5377   31.5308   46.9583 H   0  0  0  0  0  0  0  0  0  0  0  0
   46.9330   30.2682   49.5627 H   0  0  0  0  0  0  0  0  0  0  0  0
   48.0455   31.5752   49.2664 H   0  0  0  0  0  0  0  0  0  0  0  0
   45.5991   32.2174   50.0749 H   0  0  0  0  0  0  0  0  0  0  0  0
   46.1814   33.1251   48.6906 H   0  0  0  0  0  0  0  0  0  0  0  0
   44.2602   30.7588   48.7882 H   0  0  0  0  0  0  0  0  0  0  0  0
   44.1308   32.1684   47.7761 H   0  0  0  0  0  0  0  0  0  0  0  0
   45.7546   28.0468   48.7974 H   0  0  0  0  0  0  0  0  0  0  0  0
   44.2378   26.2304   47.6103 H   0  0  0  0  0  0  0  0  0  0  0  0
   43.2589   27.3712   45.4729 H   0  0  0  0  0  0  0  0  0  0  0  0
   44.2431   35.9488   46.4860 H   0  0  0  0  0  0  0  0  0  0  0  0
   43.9823   36.7932   44.1615 H   0  0  0  0  0  0  0  0  0  0  0  0
   44.9627   34.6395   39.6241 H   0  0  0  0  0  0  0  0  0  0  0  0
   43.2134   34.5766   39.2795 H   0  0  0  0  0  0  0  0  0  0  0  0
  1  2  1  0
  2  3  1  0
  4  3  1  0
  5 11  1  6
  5  1  1  0
  5  4  1  0
  6  5  1  0
  6  7  1  0
  8  7  2  0
  9  8  1  0
 10  9  1  0
 10  6  2  0
 12 11  1  0
 13 12  2  0
 14 19  2  0
 15 14  1  0
 16 17  1  0
 16 15  2  0
 17 18  2  0
 18 12  1  0
 18 19  1  0
 20 16  1  0
 21 23  2  0
 21 20  1  0
 22 21  1  0
  1 24  1  0
  2 25  1  0
  2 26  1  0
  3 27  1  0
  3 28  1  0
  4 29  1  0
  4 30  1  0
  7 31  1  0
  8 32  1  0
  9 33  1  0
 14 34  1  0
 15 35  1  0
 22 36  1  0
 22 37  1  0
M  ISO  8  24   5  25  13  26  13  27  13  28  13  29  13  30  13  31  14
M  ISO  4  32  14  33   9  34  14  35  14
M  END
>  <minimizedAffinity>  (1) 
-5.34557295

>  <minimizedRMSD>  (1) 
0.52334094

$$$$
