
     RDKit          3D

 31 33  0  0  0  0  0  0  0  0999 V2000
   47.2280   34.7520   42.6880 C   0  0  0  0  0  0  0  0  0  0  0  0
   47.7150   33.5630   43.2570 C   0  0  0  0  0  0  0  0  0  0  0  0
   46.9110   32.8660   44.1490 C   0  0  0  0  0  0  0  0  0  0  0  0
   45.6690   33.3820   44.4300 N   0  0  0  0  0  0  0  0  0  0  0  0
   45.2460   34.5240   43.8610 C   0  0  0  0  0  0  0  0  0  0  0  0
   46.0120   35.2010   43.0020 N   0  0  0  0  0  0  0  0  0  0  0  0
   48.1960   35.3820   41.7590 C   0  0  0  0  0  0  0  0  0  0  0  0
   49.6030   35.2180   42.2710 C   0  0  0  0  0  0  0  0  0  0  0  0
   47.4110   31.3750   44.9200 S   0  0  0  0  0  0  0  0  0  0  0  0
   46.3690   30.9170   46.2950 C   0  0  0  0  0  0  0  0  0  0  0  0
   45.6720   31.5250   47.3390 C   0  0  0  0  0  0  0  0  0  0  0  0
   45.0670   30.5240   48.0360 C   0  0  0  0  0  0  0  0  0  0  0  0
   45.3690   29.3400   47.4570 N   0  0  0  0  0  0  0  0  0  0  0  0
   46.1590   29.5770   46.4020 N   0  0  0  0  0  0  0  0  0  0  0  0
   44.8600   28.1070   47.9910 C   0  0  0  0  0  0  0  0  0  0  0  0
   45.4850   26.7940   47.7560 C   0  0  0  0  0  0  0  0  0  0  0  0
   44.1760   27.1120   47.0830 C   0  0  0  0  0  0  0  0  0  0  0  0
   48.7175   33.1903   42.9998 H   0  0  0  0  0  0  0  0  0  0  0  0
   44.2460   34.9096   44.1087 H   0  0  0  0  0  0  0  0  0  0  0  0
   47.9662   36.4540   41.6692 H   0  0  0  0  0  0  0  0  0  0  0  0
   48.1159   34.8931   40.7769 H   0  0  0  0  0  0  0  0  0  0  0  0
   49.5953   35.2189   43.3710 H   0  0  0  0  0  0  0  0  0  0  0  0
   50.0166   34.2656   41.9080 H   0  0  0  0  0  0  0  0  0  0  0  0
   50.2246   36.0498   41.9080 H   0  0  0  0  0  0  0  0  0  0  0  0
   45.6211   32.6021   47.5566 H   0  0  0  0  0  0  0  0  0  0  0  0
   44.4347   30.6570   48.9262 H   0  0  0  0  0  0  0  0  0  0  0  0
   44.5977   28.6640   48.9026 H   0  0  0  0  0  0  0  0  0  0  0  0
   46.4055   26.7252   47.1578 H   0  0  0  0  0  0  0  0  0  0  0  0
   45.8419   25.9812   48.4056 H   0  0  0  0  0  0  0  0  0  0  0  0
   44.1389   27.2865   45.9976 H   0  0  0  0  0  0  0  0  0  0  0  0
   43.1816   26.6442   47.0358 H   0  0  0  0  0  0  0  0  0  0  0  0
  1  6  2  0
  1  2  1  0
  2  3  2  0
  3  4  1  0
  3  9  1  0
  5  4  2  0
  6  5  1  0
  7  8  1  0
  7  1  1  0
  9 10  1  0
 10 14  2  0
 10 11  1  0
 11 12  2  0
 13 15  1  0
 13 12  1  0
 14 13  1  0
 16 15  1  0
 17 16  1  0
 17 15  1  0
  2 18  1  0
  5 19  1  0
  7 20  1  0
  7 21  1  0
  8 22  1  0
  8 23  1  0
  8 24  1  0
 11 25  1  0
 12 26  1  0
 15 27  1  0
 16 28  1  0
 16 29  1  0
 17 30  1  0
 17 31  1  0
M  ISO  8  18  14  19  14  20   8  21   8  22   8  23   8  24   8  25  14
M  ISO  6  26  14  27  13  28  13  29  13  30  13  31  13
M  END
>  <minimizedAffinity>  (1) 
-4.1644907

>  <minimizedRMSD>  (1) 
0.963481188

$$$$
