
     RDKit          3D

 38 41  0  0  1  0  0  0  0  0999 V2000
   46.4680   33.1650   45.6810 C   0  0  2  0  0  0  0  0  0  0  0  0
   45.3450   34.1480   45.4320 C   0  0  0  0  0  0  0  0  0  0  0  0
   45.3790   34.9110   44.2050 C   0  0  0  0  0  0  0  0  0  0  0  0
   46.4740   34.7120   43.2570 C   0  0  1  0  0  0  0  0  0  0  0  0
   47.5630   33.8070   43.6580 C   0  0  0  0  0  0  0  0  0  0  0  0
   47.0070   32.6200   44.4000 C   0  0  0  0  0  0  0  0  0  0  0  0
   45.8860   34.3400   41.9640 N   0  0  0  0  0  0  0  0  0  0  0  0
   46.4980   33.7420   40.9250 C   0  0  0  0  0  0  0  0  0  0  0  0
   45.6450   33.5650   39.9240 N   0  0  0  0  0  0  0  0  0  0  0  0
   44.4480   34.0500   40.2970 C   0  0  0  0  0  0  0  0  0  0  0  0
   43.2230   34.1140   39.6330 C   0  0  0  0  0  0  0  0  0  0  0  0
   43.0790   33.6710   38.4630 O   0  0  0  0  0  0  0  0  0  0  0  0
   42.2090   34.6780   40.3200 N   0  0  0  0  0  0  0  0  0  0  0  0
   42.3550   35.1610   41.5880 C   0  0  0  0  0  0  0  0  0  0  0  0
   41.1710   35.7250   42.1620 N   0  0  0  0  0  0  0  0  0  0  0  0
   43.5500   35.0970   42.2330 N   0  0  0  0  0  0  0  0  0  0  0  0
   44.6030   34.5430   41.5950 C   0  0  0  0  0  0  0  0  0  0  0  0
   45.4180   32.5200   47.8390 C   0  0  0  0  0  0  0  0  0  0  0  0
   45.9960   32.1350   46.6290 C   0  0  0  0  0  0  0  0  0  0  0  0
   46.1150   30.7400   46.3740 C   0  0  0  0  0  0  0  0  0  0  0  0
   45.6650   29.8700   47.3120 N   0  0  0  0  0  0  0  0  0  0  0  0
   45.1090   30.2900   48.4770 C   0  0  0  0  0  0  0  0  0  0  0  0
   44.9930   31.6170   48.7220 N   0  0  0  0  0  0  0  0  0  0  0  0
   47.3263   33.6705   46.1477 H   0  0  0  0  0  0  0  0  0  0  0  0
   44.5306   34.2775   46.1600 H   0  0  0  0  0  0  0  0  0  0  0  0
   44.5839   35.6387   43.9852 H   0  0  0  0  0  0  0  0  0  0  0  0
   47.0103   35.6710   43.2042 H   0  0  0  0  0  0  0  0  0  0  0  0
   48.0943   33.4579   42.7603 H   0  0  0  0  0  0  0  0  0  0  0  0
   48.2560   34.3499   44.3176 H   0  0  0  0  0  0  0  0  0  0  0  0
   46.2046   32.1441   43.8172 H   0  0  0  0  0  0  0  0  0  0  0  0
   47.7754   31.8526   44.5750 H   0  0  0  0  0  0  0  0  0  0  0  0
   47.5562   33.4422   40.9080 H   0  0  0  0  0  0  0  0  0  0  0  0
   41.2856   34.7472   39.8689 H   0  0  0  0  0  0  0  0  0  0  0  0
   41.1953   36.1121   43.1162 H   0  0  0  0  0  0  0  0  0  0  0  0
   40.2948   35.7437   41.6208 H   0  0  0  0  0  0  0  0  0  0  0  0
   45.3110   33.5904   48.0687 H   0  0  0  0  0  0  0  0  0  0  0  0
   46.5619   30.3756   45.4372 H   0  0  0  0  0  0  0  0  0  0  0  0
   44.7550   29.5574   49.2172 H   0  0  0  0  0  0  0  0  0  0  0  0
  1 19  1  0
  2  1  1  0
  3  2  2  0
  4  5  1  0
  4  3  1  0
  5  6  1  0
  6  1  1  0
  7  4  1  0
  8  7  1  0
  9 10  1  0
  9  8  2  0
 10 17  2  0
 11 10  1  0
 11 13  1  0
 12 11  2  0
 13 14  1  0
 14 15  1  0
 14 16  2  0
 17  7  1  0
 17 16  1  0
 18 23  2  0
 19 18  1  0
 20 19  2  0
 20 21  1  0
 21 22  2  0
 22 23  1  0
  1 24  1  1
  2 25  1  0
  3 26  1  0
  4 27  1  6
  5 28  1  0
  5 29  1  0
  6 30  1  0
  6 31  1  0
  8 32  1  0
 13 33  1  0
 15 34  1  0
 15 35  1  0
 18 36  1  0
 20 37  1  0
 22 38  1  0
M  ISO  8  24  13  25  13  26  13  27  13  28  13  29  13  30  13  31  13
M  ISO  5  32  14  33   9  36  14  37  14  38  14
M  END
>  <minimizedAffinity>  (1) 
-6.46717787

>  <minimizedRMSD>  (1) 
1.82418406

$$$$
