
     RDKit          3D

 52 57  0  0  1  0  0  0  0  0999 V2000
   47.2860   34.9750   41.8080 C   0  0  0  0  0  0  0  0  0  0  0  0
   48.5100   35.6290   41.6840 C   0  0  0  0  0  0  0  0  0  0  0  0
   48.9990   35.4130   40.4590 N   0  0  0  0  0  0  0  0  0  0  0  0
   48.1170   34.6370   39.7980 C   0  0  0  0  0  0  0  0  0  0  0  0
   48.1520   34.1410   38.5190 C   0  0  0  0  0  0  0  0  0  0  0  0
   47.1240   33.3720   38.0830 C   0  0  0  0  0  0  0  0  0  0  0  0
   46.0120   33.0490   38.8650 C   0  0  0  0  0  0  0  0  0  0  0  0
   46.0470   33.5800   40.1280 C   0  0  0  0  0  0  0  0  0  0  0  0
   47.0320   34.3440   40.6170 C   0  0  0  0  0  0  0  0  0  0  0  0
   44.6790   35.9780   44.2820 C   0  0  0  0  0  0  0  0  0  0  0  0
   45.4850   35.9990   43.1490 C   0  0  0  0  0  0  0  0  0  0  0  0
   46.4450   34.9680   42.9750 C   0  0  0  0  0  0  0  0  0  0  0  0
   46.4820   34.0370   43.9610 N   0  0  0  0  0  0  0  0  0  0  0  0
   45.7050   34.0280   45.0410 C   0  0  0  0  0  0  0  0  0  0  0  0
   44.8030   35.0000   45.2020 N   0  0  0  0  0  0  0  0  0  0  0  0
   45.9490   32.9360   45.9210 N   0  0  0  0  0  0  0  0  0  0  0  0
   45.4000   32.8390   47.1620 C   0  0  0  0  0  0  0  0  0  0  0  0
   45.8110   31.7050   47.7540 N   0  0  0  0  0  0  0  0  0  0  0  0
   46.6270   31.0510   46.9160 C   0  0  0  0  0  0  0  0  0  0  0  0
   47.3180   29.8510   47.0220 C   0  0  0  0  0  0  0  0  0  0  0  0
   47.2150   29.1790   48.0790 O   0  0  0  0  0  0  0  0  0  0  0  0
   48.0610   29.4950   45.9590 N   0  0  0  0  0  0  0  0  0  0  0  0
   48.1260   30.2660   44.8570 C   0  0  0  0  0  0  0  0  0  0  0  0
   48.9520   29.7530   43.8200 N   0  0  0  0  0  0  0  0  0  0  0  0
   47.4660   31.4430   44.7150 N   0  0  0  0  0  0  0  0  0  0  0  0
   46.7030   31.8310   45.7790 C   0  0  0  0  0  0  0  0  0  0  0  0
   44.8690   33.1860   40.8670 N   0  0  0  0  0  0  0  0  0  0  0  0
   43.5100   33.6020   41.1160 C   0  0  0  0  0  0  0  0  0  0  0  0
   42.8130   32.3940   41.6660 C   0  0  0  0  0  0  0  0  0  0  0  0
   43.9260   31.8700   42.5720 C   0  0  0  0  0  0  0  0  0  0  0  0
   45.0990   31.9470   41.6300 C   0  0  1  0  0  0  0  0  0  0  0  0
   45.1970   30.7510   40.7900 C   0  0  0  0  0  0  0  0  0  0  0  0
   44.3170   30.2120   40.1160 O   0  0  0  0  0  0  0  0  0  0  0  0
   48.9961   36.2273   42.4687 H   0  0  0  0  0  0  0  0  0  0  0  0
   49.8890   35.7742   40.0872 H   0  0  0  0  0  0  0  0  0  0  0  0
   49.0018   34.3641   37.8571 H   0  0  0  0  0  0  0  0  0  0  0  0
   47.1678   32.9804   37.0560 H   0  0  0  0  0  0  0  0  0  0  0  0
   45.1832   32.4248   38.4998 H   0  0  0  0  0  0  0  0  0  0  0  0
   43.9301   36.7700   44.4297 H   0  0  0  0  0  0  0  0  0  0  0  0
   45.3806   36.7994   42.4017 H   0  0  0  0  0  0  0  0  0  0  0  0
   44.7215   33.5780   47.6130 H   0  0  0  0  0  0  0  0  0  0  0  0
   48.5921   28.6130   45.9885 H   0  0  0  0  0  0  0  0  0  0  0  0
   49.0599   30.2778   42.9403 H   0  0  0  0  0  0  0  0  0  0  0  0
   49.4426   28.8565   43.9483 H   0  0  0  0  0  0  0  0  0  0  0  0
   43.4878   34.4240   41.8466 H   0  0  0  0  0  0  0  0  0  0  0  0
   43.0233   33.9715   40.2013 H   0  0  0  0  0  0  0  0  0  0  0  0
   41.9099   32.6615   42.2342 H   0  0  0  0  0  0  0  0  0  0  0  0
   42.4373   31.6817   40.9167 H   0  0  0  0  0  0  0  0  0  0  0  0
   44.0692   32.5121   43.4536 H   0  0  0  0  0  0  0  0  0  0  0  0
   43.7419   30.8724   42.9973 H   0  0  0  0  0  0  0  0  0  0  0  0
   46.0678   31.9766   42.1502 H   0  0  0  0  0  0  0  0  0  0  0  0
   46.1860   30.2707   40.7563 H   0  0  0  0  0  0  0  0  0  0  0  0
  1 12  1  0
  2  1  2  0
  3  2  1  0
  4  3  1  0
  4  9  2  0
  5  4  1  0
  6  5  2  0
  6  7  1  0
  7  8  2  0
  8  9  1  0
  8 27  1  0
  9  1  1  0
 10 15  2  0
 11 10  1  0
 12 11  2  0
 12 13  1  0
 13 14  2  0
 14 15  1  0
 14 16  1  0
 16 17  1  0
 17 18  2  0
 19 20  1  0
 19 18  1  0
 20 21  2  0
 22 20  1  0
 23 22  1  0
 24 23  1  0
 25 23  2  0
 25 26  1  0
 26 16  1  0
 26 19  2  0
 27 28  1  0
 27 31  1  0
 28 29  1  0
 29 30  1  0
 31 30  1  0
 32 31  1  0
 33 32  2  0
  2 34  1  0
  3 35  1  0
  5 36  1  0
  6 37  1  0
  7 38  1  0
 10 39  1  0
 11 40  1  0
 17 41  1  0
 22 42  1  0
 24 43  1  0
 24 44  1  0
 28 45  1  0
 28 46  1  0
 29 47  1  0
 29 48  1  0
 30 49  1  0
 30 50  1  0
 31 51  1  1
 32 52  1  0
M  END
>  <minimizedAffinity>  (1) 
-7.57521677

>  <minimizedRMSD>  (1) 
0.30597055

$$$$
