
     RDKit          3D

 46 50  0  0  1  0  0  0  0  0999 V2000
   46.2600   32.7930   38.7800 N   0  0  0  0  0  0  0  0  0  0  0  0
   45.2070   33.2180   38.0950 N   0  0  0  0  0  0  0  0  0  0  0  0
   45.3700   33.1380   36.7930 C   0  0  0  0  0  0  0  0  0  0  0  0
   46.6050   32.6270   36.5780 C   0  0  0  0  0  0  0  0  0  0  0  0
   47.1150   32.4320   37.8510 C   0  0  0  0  0  0  0  0  0  0  0  0
   47.3180   32.3200   35.3820 N   0  0  0  0  0  0  0  0  0  0  0  0
   48.5020   32.9560   35.1620 C   0  0  0  0  0  0  0  0  0  0  0  0
   49.0330   32.5500   33.9990 N   0  0  0  0  0  0  0  0  0  0  0  0
   48.2160   31.6610   33.4540 C   0  0  0  0  0  0  0  0  0  0  0  0
   48.1490   30.8770   32.3130 C   0  0  0  0  0  0  0  0  0  0  0  0
   49.0990   30.9690   31.4920 O   0  0  0  0  0  0  0  0  0  0  0  0
   47.0810   30.0590   32.1330 N   0  0  0  0  0  0  0  0  0  0  0  0
   46.0650   29.9560   33.0030 C   0  0  0  0  0  0  0  0  0  0  0  0
   45.0760   29.0470   32.6010 N   0  0  0  0  0  0  0  0  0  0  0  0
   46.0920   30.7100   34.1390 N   0  0  0  0  0  0  0  0  0  0  0  0
   47.1480   31.5170   34.3160 C   0  0  0  0  0  0  0  0  0  0  0  0
   46.2420   32.8080   40.2360 C   0  0  0  0  0  0  0  0  0  0  0  0
   46.5860   34.1280   40.7590 C   0  0  2  0  0  0  0  0  0  0  0  0
   48.5040   35.4250   41.5740 C   0  0  0  0  0  0  0  0  0  0  0  0
   47.8450   34.2500   41.3700 C   0  0  0  0  0  0  0  0  0  0  0  0
   48.5210   33.1050   41.7850 C   0  0  0  0  0  0  0  0  0  0  0  0
   49.7510   33.1460   42.3520 N   0  0  0  0  0  0  0  0  0  0  0  0
   50.3390   34.3760   42.5170 C   0  0  0  0  0  0  0  0  0  0  0  0
   49.7210   35.4770   42.1340 N   0  0  0  0  0  0  0  0  0  0  0  0
   45.4520   34.6970   41.6320 C   0  0  0  0  0  0  0  0  0  0  0  0
   44.1720   34.9050   41.0830 C   0  0  0  0  0  0  0  0  0  0  0  0
   43.4630   35.4120   42.1580 C   0  0  0  0  0  0  0  0  0  0  0  0
   44.3250   35.4820   43.2700 C   0  0  0  0  0  0  0  0  0  0  0  0
   45.5070   35.0440   42.9130 O   0  0  0  0  0  0  0  0  0  0  0  0
   48.4150   31.9060   38.2380 N   0  0  0  0  0  0  0  0  0  0  0  0
   44.6406   33.4310   36.0235 H   0  0  0  0  0  0  0  0  0  0  0  0
   48.9563   33.6945   35.8389 H   0  0  0  0  0  0  0  0  0  0  0  0
   47.0487   29.4840   31.2790 H   0  0  0  0  0  0  0  0  0  0  0  0
   44.2493   28.8894   33.1949 H   0  0  0  0  0  0  0  0  0  0  0  0
   45.1761   28.5369   31.7118 H   0  0  0  0  0  0  0  0  0  0  0  0
   45.2347   32.5362   40.5844 H   0  0  0  0  0  0  0  0  0  0  0  0
   46.9882   32.0861   40.5992 H   0  0  0  0  0  0  0  0  0  0  0  0
   46.6915   34.7527   39.8598 H   0  0  0  0  0  0  0  0  0  0  0  0
   48.0202   36.3644   41.2683 H   0  0  0  0  0  0  0  0  0  0  0  0
   48.0364   32.1272   41.6467 H   0  0  0  0  0  0  0  0  0  0  0  0
   51.3373   34.4441   42.9740 H   0  0  0  0  0  0  0  0  0  0  0  0
   43.8233   34.7128   40.0576 H   0  0  0  0  0  0  0  0  0  0  0  0
   42.4043   35.7102   42.1461 H   0  0  0  0  0  0  0  0  0  0  0  0
   44.0511   35.8443   44.2719 H   0  0  0  0  0  0  0  0  0  0  0  0
   48.6585   31.8168   39.2348 H   0  0  0  0  0  0  0  0  0  0  0  0
   49.0919   31.6228   37.5152 H   0  0  0  0  0  0  0  0  0  0  0  0
  1 17  1  0
  2  1  1  0
  3  2  2  0
  4  3  1  0
  4  5  2  0
  5 30  1  0
  5  1  1  0
  6  4  1  0
  7  6  1  0
  8  7  2  0
  9  8  1  0
  9 16  2  0
 10  9  1  0
 11 10  2  0
 12 10  1  0
 12 13  1  0
 13 15  2  0
 14 13  1  0
 15 16  1  0
 16  6  1  0
 17 18  1  0
 18 20  1  0
 18 25  1  0
 19 24  2  0
 20 19  1  0
 20 21  2  0
 21 22  1  0
 22 23  2  0
 24 23  1  0
 25 29  1  0
 26 25  2  0
 26 27  1  0
 27 28  2  0
 29 28  1  0
  3 31  1  0
  7 32  1  0
 12 33  1  0
 14 34  1  0
 14 35  1  0
 17 36  1  0
 17 37  1  0
 18 38  1  6
 19 39  1  0
 21 40  1  0
 23 41  1  0
 26 42  1  0
 27 43  1  0
 28 44  1  0
 30 45  1  0
 30 46  1  0
M  ISO  8  31  14  32  14  33   9  36   8  37   8  38   8  39  14  40  14
M  ISO  4  41  14  42  14  43  14  44  14
M  END
>  <minimizedAffinity>  (1) 
-6.20404816

>  <minimizedRMSD>  (1) 
0.905805051

$$$$
