
     RDKit          3D

 41 44  0  0  1  0  0  0  0  0999 V2000
   47.6800   31.2140   46.6450 C   0  0  0  0  0  0  0  0  0  0  0  0
   46.7970   31.4960   45.6190 C   0  0  0  0  0  0  0  0  0  0  0  0
   45.9680   30.4500   45.1910 C   0  0  0  0  0  0  0  0  0  0  0  0
   46.0500   29.2350   45.7680 N   0  0  0  0  0  0  0  0  0  0  0  0
   46.9320   28.9860   46.7790 C   0  0  0  0  0  0  0  0  0  0  0  0
   47.7330   29.9730   47.2030 N   0  0  0  0  0  0  0  0  0  0  0  0
   47.0110   27.7060   47.3790 N   0  0  0  0  0  0  0  0  0  0  0  0
   48.0150   27.0280   47.9690 C   0  0  0  0  0  0  0  0  0  0  0  0
   47.5390   25.8260   48.3780 N   0  0  0  0  0  0  0  0  0  0  0  0
   46.2280   25.7430   48.0460 C   0  0  0  0  0  0  0  0  0  0  0  0
   45.3120   24.7270   48.2460 C   0  0  0  0  0  0  0  0  0  0  0  0
   45.6020   23.6470   48.8150 O   0  0  0  0  0  0  0  0  0  0  0  0
   44.0350   24.8720   47.8180 N   0  0  0  0  0  0  0  0  0  0  0  0
   43.7520   26.0450   47.2090 C   0  0  0  0  0  0  0  0  0  0  0  0
   42.4420   26.3150   46.7170 N   0  0  0  0  0  0  0  0  0  0  0  0
   44.6040   27.0620   46.9900 N   0  0  0  0  0  0  0  0  0  0  0  0
   45.8910   26.9380   47.4100 C   0  0  0  0  0  0  0  0  0  0  0  0
   46.7720   32.8260   45.0390 C   0  0  2  0  0  0  0  0  0  0  0  0
   45.5330   33.5580   45.4910 C   0  0  0  0  0  0  0  0  0  0  0  0
   45.1130   34.6880   44.6950 C   0  0  0  0  0  0  0  0  0  0  0  0
   45.8550   35.0950   43.5160 C   0  0  1  0  0  0  0  0  0  0  0  0
   47.1020   34.3540   43.2150 C   0  0  0  0  0  0  0  0  0  0  0  0
   46.9380   32.9020   43.5610 C   0  0  0  0  0  0  0  0  0  0  0  0
   44.9070   35.0160   42.3110 C   0  0  0  0  0  0  0  0  0  0  0  0
   43.8950   34.1010   42.4880 F   0  0  0  0  0  0  0  0  0  0  0  0
   44.2920   36.2650   42.1860 F   0  0  0  0  0  0  0  0  0  0  0  0
   45.6340   34.8010   41.1540 F   0  0  0  0  0  0  0  0  0  0  0  0
   48.3496   32.0039   47.0160 H   0  0  0  0  0  0  0  0  0  0  0  0
   45.2460   30.6220   44.3791 H   0  0  0  0  0  0  0  0  0  0  0  0
   49.0463   27.3886   48.0972 H   0  0  0  0  0  0  0  0  0  0  0  0
   43.3259   24.1364   47.9482 H   0  0  0  0  0  0  0  0  0  0  0  0
   42.2404   27.2132   46.2549 H   0  0  0  0  0  0  0  0  0  0  0  0
   41.6968   25.6119   46.8235 H   0  0  0  0  0  0  0  0  0  0  0  0
   47.6761   33.3222   45.4216 H   0  0  0  0  0  0  0  0  0  0  0  0
   44.9748   33.2456   46.3859 H   0  0  0  0  0  0  0  0  0  0  0  0
   44.2141   35.2504   44.9879 H   0  0  0  0  0  0  0  0  0  0  0  0
   46.2068   36.1148   43.7313 H   0  0  0  0  0  0  0  0  0  0  0  0
   47.3314   34.4486   42.1433 H   0  0  0  0  0  0  0  0  0  0  0  0
   47.9234   34.7752   43.8132 H   0  0  0  0  0  0  0  0  0  0  0  0
   46.0496   32.4914   43.0589 H   0  0  0  0  0  0  0  0  0  0  0  0
   47.8100   32.3177   43.2320 H   0  0  0  0  0  0  0  0  0  0  0  0
  1  6  2  0
  2  1  1  0
  3  2  2  0
  3  4  1  0
  4  5  2  0
  5  6  1  0
  5  7  1  0
  7 17  1  0
  7  8  1  0
  8  9  2  0
 10 11  1  0
 10  9  1  0
 11 12  2  0
 13 11  1  0
 14 13  1  0
 15 14  1  0
 16 14  2  0
 16 17  1  0
 17 10  2  0
 18 19  1  0
 18  2  1  0
 20 19  2  0
 21 20  1  0
 22 21  1  0
 22 23  1  0
 23 18  1  0
 24 25  1  0
 24 21  1  0
 26 24  1  0
 27 24  1  0
  1 28  1  0
  3 29  1  0
  8 30  1  0
 13 31  1  0
 15 32  1  0
 15 33  1  0
 18 34  1  1
 19 35  1  0
 20 36  1  0
 21 37  1  1
 22 38  1  0
 22 39  1  0
 23 40  1  0
 23 41  1  0
M  ISO  8  28  14  29  14  30  14  31   9  34  13  35  13  36  13  37  13
M  ISO  4  38  13  39  13  40  13  41  13
M  END
>  <minimizedAffinity>  (1) 
-5.82734108

>  <minimizedRMSD>  (1) 
2.24168897

$$$$
