
     RDKit          3D

 27 29  0  0  0  0  0  0  0  0999 V2000
   45.2080   34.6160   41.2870 C   0  0  0  0  0  0  0  0  0  0  0  0
   46.0520   33.8280   40.4720 C   0  0  0  0  0  0  0  0  0  0  0  0
   45.5090   33.1930   39.3800 C   0  0  0  0  0  0  0  0  0  0  0  0
   44.1730   33.3180   39.0800 N   0  0  0  0  0  0  0  0  0  0  0  0
   43.4090   34.1000   39.9130 C   0  0  0  0  0  0  0  0  0  0  0  0
   43.9190   34.7220   40.9770 N   0  0  0  0  0  0  0  0  0  0  0  0
   41.9650   34.2960   39.6720 C   0  0  0  0  0  0  0  0  0  0  0  0
   41.4220   33.9450   38.4580 C   0  0  0  0  0  0  0  0  0  0  0  0
   40.0770   34.1050   38.1750 C   0  0  0  0  0  0  0  0  0  0  0  0
   39.2310   34.6390   39.1430 C   0  0  0  0  0  0  0  0  0  0  0  0
   39.8230   34.9790   40.3540 C   0  0  0  0  0  0  0  0  0  0  0  0
   41.1370   34.8150   40.6100 N   0  0  0  0  0  0  0  0  0  0  0  0
   47.8200   33.6240   40.8080 S   0  0  0  0  0  0  0  0  0  0  0  0
   48.3030   34.8800   42.0350 C   0  0  0  0  0  0  0  0  0  0  0  0
   49.0930   36.0000   41.4610 C   0  0  0  0  0  0  0  0  0  0  0  0
   49.6870   35.0580   42.4640 C   0  0  0  0  0  0  0  0  0  0  0  0
   45.6127   35.1358   42.1679 H   0  0  0  0  0  0  0  0  0  0  0  0
   46.1532   32.5756   38.7366 H   0  0  0  0  0  0  0  0  0  0  0  0
   42.0802   33.5221   37.6847 H   0  0  0  0  0  0  0  0  0  0  0  0
   39.6791   33.8123   37.1921 H   0  0  0  0  0  0  0  0  0  0  0  0
   38.1560   34.7836   38.9602 H   0  0  0  0  0  0  0  0  0  0  0  0
   39.1868   35.4038   41.1444 H   0  0  0  0  0  0  0  0  0  0  0  0
   47.3804   34.7387   42.6171 H   0  0  0  0  0  0  0  0  0  0  0  0
   49.4177   35.9675   40.4105 H   0  0  0  0  0  0  0  0  0  0  0  0
   48.9696   37.0903   41.3834 H   0  0  0  0  0  0  0  0  0  0  0  0
   49.9052   35.4077   43.4839 H   0  0  0  0  0  0  0  0  0  0  0  0
   50.5796   34.4158   42.4920 H   0  0  0  0  0  0  0  0  0  0  0  0
  2 13  1  0
  2  1  2  0
  3  2  1  0
  4  3  2  0
  4  5  1  0
  5  6  2  0
  6  1  1  0
  7  5  1  0
  7 12  1  0
  8  7  2  0
  9  8  1  0
  9 10  2  0
 10 11  1  0
 11 12  2  0
 13 14  1  0
 14 16  1  0
 15 14  1  0
 15 16  1  0
  1 17  1  0
  3 18  1  0
  8 19  1  0
  9 20  1  0
 10 21  1  0
 11 22  1  0
 14 23  1  0
 15 24  1  0
 15 25  1  0
 16 26  1  0
 16 27  1  0
M  ISO  8  17  14  18  14  19  14  20  14  21  14  22  14  23  13  24  13
M  ISO  3  25  13  26  13  27  13
M  END
>  <minimizedAffinity>  (1) 
-4.80100107

>  <minimizedRMSD>  (1) 
7.15929508

$$$$
