
     RDKit          3D

 43 46  0  0  1  0  0  0  0  0999 V2000
   49.5800   33.2970   37.1880 N   0  0  0  0  0  0  0  0  0  0  0  0
   48.5610   34.1530   37.0370 C   0  0  0  0  0  0  0  0  0  0  0  0
   47.7880   34.0650   38.1340 N   0  0  0  0  0  0  0  0  0  0  0  0
   48.3080   33.1590   38.9860 C   0  0  0  0  0  0  0  0  0  0  0  0
   47.9240   32.6930   40.2270 C   0  0  0  0  0  0  0  0  0  0  0  0
   48.7350   31.7670   40.7520 N   0  0  0  0  0  0  0  0  0  0  0  0
   49.8380   31.2800   40.1930 C   0  0  0  0  0  0  0  0  0  0  0  0
   50.2050   31.7420   38.9780 N   0  0  0  0  0  0  0  0  0  0  0  0
   49.4520   32.6820   38.3600 C   0  0  0  0  0  0  0  0  0  0  0  0
   50.6400   30.2440   40.9110 C   0  0  0  0  0  0  0  0  0  0  0  0
   51.4310   30.8830   42.0470 C   0  0  0  0  0  0  0  0  0  0  0  0
   51.2200   30.1890   43.3200 C   0  0  0  0  0  0  0  0  0  0  0  0
   52.1960   29.7990   44.2130 C   0  0  0  0  0  0  0  0  0  0  0  0
   51.9270   29.1470   45.4010 C   0  0  0  0  0  0  0  0  0  0  0  0
   50.5670   28.9150   45.6170 C   0  0  0  0  0  0  0  0  0  0  0  0
   49.5670   29.2910   44.7460 C   0  0  0  0  0  0  0  0  0  0  0  0
   49.9100   29.9320   43.5950 N   0  0  0  0  0  0  0  0  0  0  0  0
   46.4500   33.3260   41.0050 S   0  0  0  0  0  0  0  0  0  0  0  0
   46.7180   34.8400   41.9020 C   0  0  1  0  0  0  0  0  0  0  0  0
   46.0870   34.8000   43.2440 C   0  0  0  0  0  0  0  0  0  0  0  0
   45.1770   35.8750   43.4250 C   0  0  0  0  0  0  0  0  0  0  0  0
   44.5270   35.9230   44.6700 C   0  0  0  0  0  0  0  0  0  0  0  0
   44.7960   34.9560   45.6180 N   0  0  0  0  0  0  0  0  0  0  0  0
   45.6710   33.9700   45.3690 C   0  0  0  0  0  0  0  0  0  0  0  0
   46.3080   33.9190   44.1570 N   0  0  0  0  0  0  0  0  0  0  0  0
   48.2460   35.1220   42.0530 C   0  0  0  0  0  0  0  0  0  0  0  0
   50.3379   33.1408   36.5083 H   0  0  0  0  0  0  0  0  0  0  0  0
   48.3876   34.8096   36.1717 H   0  0  0  0  0  0  0  0  0  0  0  0
   49.9626   29.4820   41.3239 H   0  0  0  0  0  0  0  0  0  0  0  0
   51.3416   29.7792   40.2027 H   0  0  0  0  0  0  0  0  0  0  0  0
   52.5017   30.8493   41.7972 H   0  0  0  0  0  0  0  0  0  0  0  0
   51.0823   31.9198   42.1630 H   0  0  0  0  0  0  0  0  0  0  0  0
   53.2451   30.0189   43.9661 H   0  0  0  0  0  0  0  0  0  0  0  0
   52.7101   28.8397   46.1097 H   0  0  0  0  0  0  0  0  0  0  0  0
   50.2745   28.3983   46.5430 H   0  0  0  0  0  0  0  0  0  0  0  0
   48.5128   29.0774   44.9764 H   0  0  0  0  0  0  0  0  0  0  0  0
   46.2497   35.6501   41.3237 H   0  0  0  0  0  0  0  0  0  0  0  0
   44.9925   36.6231   42.6400 H   0  0  0  0  0  0  0  0  0  0  0  0
   43.8080   36.7264   44.8880 H   0  0  0  0  0  0  0  0  0  0  0  0
   45.8760   33.2065   46.1339 H   0  0  0  0  0  0  0  0  0  0  0  0
   48.5062   35.1700   43.1207 H   0  0  0  0  0  0  0  0  0  0  0  0
   48.8172   34.3141   41.5724 H   0  0  0  0  0  0  0  0  0  0  0  0
   48.4912   36.0806   41.5724 H   0  0  0  0  0  0  0  0  0  0  0  0
  1  9  1  0
  2  1  1  0
  2  3  2  0
  3  4  1  0
  4  5  2  0
  5  6  1  0
  5 18  1  0
  7  6  2  0
  7 10  1  0
  8  7  1  0
  9  8  2  0
  9  4  1  0
 10 11  1  0
 11 12  1  0
 12 17  1  0
 12 13  2  0
 13 14  1  0
 14 15  2  0
 16 15  1  0
 17 16  2  0
 18 19  1  0
 19 26  1  0
 19 20  1  0
 20 21  2  0
 20 25  1  0
 21 22  1  0
 22 23  2  0
 24 23  1  0
 25 24  2  0
  1 27  1  0
  2 28  1  0
 10 29  1  0
 10 30  1  0
 11 31  1  0
 11 32  1  0
 13 33  1  0
 14 34  1  0
 15 35  1  0
 16 36  1  0
 19 37  1  6
 21 38  1  0
 22 39  1  0
 24 40  1  0
 26 41  1  0
 26 42  1  0
 26 43  1  0
M  ISO  8  27   9  28  14  29   8  30   8  31   8  32   8  33  14  34  14
M  ISO  8  35  14  36  14  37   8  38  14  39  14  40  14  41   8  42   8
M  ISO  1  43   8
M  END
>  <minimizedAffinity>  (1) 
-5.07766628

>  <minimizedRMSD>  (1) 
1.0280236

$$$$
