
     RDKit          3D

 42 46  0  0  1  0  0  0  0  0999 V2000
   46.9380   34.6170   42.2750 N   0  0  0  0  0  0  0  0  0  0  0  0
   48.3740   34.6510   42.4090 C   0  0  0  0  0  0  0  0  0  0  0  0
   49.0160   33.9010   41.2830 C   0  0  0  0  0  0  0  0  0  0  0  0
   48.4800   34.4530   40.0410 N   0  0  0  0  0  0  0  0  0  0  0  0
   47.1550   33.8940   39.9390 C   0  0  0  0  0  0  0  0  0  0  0  0
   46.2410   34.3870   41.0290 C   0  0  1  0  0  0  0  0  0  0  0  0
   44.4700   35.9930   44.7270 C   0  0  0  0  0  0  0  0  0  0  0  0
   45.2170   35.8710   43.5550 C   0  0  0  0  0  0  0  0  0  0  0  0
   46.1330   34.8210   43.4310 C   0  0  0  0  0  0  0  0  0  0  0  0
   46.2170   33.9810   44.5050 N   0  0  0  0  0  0  0  0  0  0  0  0
   45.4990   34.1080   45.6160 C   0  0  0  0  0  0  0  0  0  0  0  0
   44.6260   35.1090   45.7330 N   0  0  0  0  0  0  0  0  0  0  0  0
   45.7370   33.1230   46.6200 N   0  0  0  0  0  0  0  0  0  0  0  0
   45.1210   32.8260   47.7500 N   0  0  0  0  0  0  0  0  0  0  0  0
   45.7400   31.7910   48.3610 C   0  0  0  0  0  0  0  0  0  0  0  0
   46.8100   31.4410   47.5330 C   0  0  0  0  0  0  0  0  0  0  0  0
   46.7960   32.2880   46.4400 C   0  0  0  0  0  0  0  0  0  0  0  0
   45.0900   33.5310   41.1460 N   0  0  0  0  0  0  0  0  0  0  0  0
   45.0050   32.2490   41.4890 C   0  0  0  0  0  0  0  0  0  0  0  0
   43.7240   31.7890   41.4840 N   0  0  0  0  0  0  0  0  0  0  0  0
   42.9380   32.8150   41.1210 C   0  0  0  0  0  0  0  0  0  0  0  0
   41.5860   33.0280   40.9230 C   0  0  0  0  0  0  0  0  0  0  0  0
   41.1210   34.2490   40.5390 N   0  0  0  0  0  0  0  0  0  0  0  0
   41.9910   35.2660   40.3490 C   0  0  0  0  0  0  0  0  0  0  0  0
   43.3120   35.0980   40.5310 N   0  0  0  0  0  0  0  0  0  0  0  0
   43.7940   33.8820   40.9160 C   0  0  0  0  0  0  0  0  0  0  0  0
   48.7160   35.6963   42.3911 H   0  0  0  0  0  0  0  0  0  0  0  0
   48.6570   34.1797   43.3618 H   0  0  0  0  0  0  0  0  0  0  0  0
   50.1076   34.0332   41.3150 H   0  0  0  0  0  0  0  0  0  0  0  0
   48.8039   32.8242   41.3575 H   0  0  0  0  0  0  0  0  0  0  0  0
   48.4387   35.4811   40.0876 H   0  0  0  0  0  0  0  0  0  0  0  0
   46.7271   34.1739   38.9651 H   0  0  0  0  0  0  0  0  0  0  0  0
   47.2418   32.8022   40.0410 H   0  0  0  0  0  0  0  0  0  0  0  0
   45.8644   35.3805   40.7440 H   0  0  0  0  0  0  0  0  0  0  0  0
   43.7483   36.8166   44.8311 H   0  0  0  0  0  0  0  0  0  0  0  0
   45.0869   36.5938   42.7360 H   0  0  0  0  0  0  0  0  0  0  0  0
   45.4589   31.3206   49.3148 H   0  0  0  0  0  0  0  0  0  0  0  0
   47.5349   30.6346   47.7179 H   0  0  0  0  0  0  0  0  0  0  0  0
   47.4998   32.2869   45.5947 H   0  0  0  0  0  0  0  0  0  0  0  0
   45.8751   31.6280   41.7485 H   0  0  0  0  0  0  0  0  0  0  0  0
   40.8774   32.2009   41.0776 H   0  0  0  0  0  0  0  0  0  0  0  0
   41.6103   36.2505   40.0393 H   0  0  0  0  0  0  0  0  0  0  0  0
  1  2  1  0
  1  9  1  0
  3  2  1  0
  4  3  1  0
  5  4  1  0
  5  6  1  0
  6 18  1  0
  6  1  1  0
  7 12  2  0
  8  7  1  0
  9  8  2  0
  9 10  1  0
 10 11  2  0
 11 12  1  0
 11 13  1  0
 13 14  1  0
 14 15  2  0
 16 15  1  0
 17 13  1  0
 17 16  2  0
 18 19  1  0
 20 19  2  0
 21 20  1  0
 22 21  2  0
 23 22  1  0
 24 25  1  0
 24 23  2  0
 25 26  2  0
 26 21  1  0
 26 18  1  0
  2 27  1  0
  2 28  1  0
  3 29  1  0
  3 30  1  0
  4 31  1  0
  5 32  1  0
  5 33  1  0
  6 34  1  6
  7 35  1  0
  8 36  1  0
 15 37  1  0
 16 38  1  0
 17 39  1  0
 19 40  1  0
 22 41  1  0
 24 42  1  0
M  END
>  <minimizedAffinity>  (1) 
-7.13446188

>  <minimizedRMSD>  (1) 
0.11273741

$$$$
