
     RDKit          3D

 45 49  0  0  1  0  0  0  0  0999 V2000
   47.2960   34.9270   41.8870 C   0  0  0  0  0  0  0  0  0  0  0  0
   48.5150   35.5910   41.7760 C   0  0  0  0  0  0  0  0  0  0  0  0
   49.0020   35.3980   40.5440 N   0  0  0  0  0  0  0  0  0  0  0  0
   48.1250   34.6310   39.8770 C   0  0  0  0  0  0  0  0  0  0  0  0
   48.1600   34.1530   38.5860 C   0  0  0  0  0  0  0  0  0  0  0  0
   47.1330   33.3870   38.1440 C   0  0  0  0  0  0  0  0  0  0  0  0
   46.0220   33.0410   38.9190 C   0  0  0  0  0  0  0  0  0  0  0  0
   46.0570   33.5560   40.2020 C   0  0  0  0  0  0  0  0  0  0  0  0
   47.0390   34.3170   40.6950 C   0  0  0  0  0  0  0  0  0  0  0  0
   44.5790   35.7850   44.2940 C   0  0  0  0  0  0  0  0  0  0  0  0
   45.3810   35.8180   43.1610 C   0  0  0  0  0  0  0  0  0  0  0  0
   46.4600   34.9010   43.0620 C   0  0  0  0  0  0  0  0  0  0  0  0
   46.6070   34.0580   44.1120 N   0  0  0  0  0  0  0  0  0  0  0  0
   45.8380   34.0290   45.1960 C   0  0  0  0  0  0  0  0  0  0  0  0
   44.8210   34.8900   45.2930 N   0  0  0  0  0  0  0  0  0  0  0  0
   46.0510   33.1140   46.2660 N   0  0  0  0  0  0  0  0  0  0  0  0
   45.1560   33.0940   47.2650 N   0  0  0  0  0  0  0  0  0  0  0  0
   45.5070   32.1780   48.1860 C   0  0  0  0  0  0  0  0  0  0  0  0
   46.6780   31.6150   47.7170 C   0  0  0  0  0  0  0  0  0  0  0  0
   47.0300   32.1940   46.5090 C   0  0  0  0  0  0  0  0  0  0  0  0
   44.8800   33.1460   40.9350 N   0  0  0  0  0  0  0  0  0  0  0  0
   43.5050   33.5300   41.1300 C   0  0  0  0  0  0  0  0  0  0  0  0
   42.8440   32.3140   41.7290 C   0  0  0  0  0  0  0  0  0  0  0  0
   43.9580   31.8750   42.6730 C   0  0  0  0  0  0  0  0  0  0  0  0
   45.1450   31.9550   41.7520 C   0  0  1  0  0  0  0  0  0  0  0  0
   45.3020   30.7310   40.9620 C   0  0  0  0  0  0  0  0  0  0  0  0
   44.4930   30.1840   40.2090 O   0  0  0  0  0  0  0  0  0  0  0  0
   48.9987   36.1781   42.5706 H   0  0  0  0  0  0  0  0  0  0  0  0
   49.8886   35.7704   40.1749 H   0  0  0  0  0  0  0  0  0  0  0  0
   49.0069   34.3888   37.9249 H   0  0  0  0  0  0  0  0  0  0  0  0
   47.1763   33.0139   37.1101 H   0  0  0  0  0  0  0  0  0  0  0  0
   45.1973   32.4175   38.5434 H   0  0  0  0  0  0  0  0  0  0  0  0
   43.7389   36.4891   44.3863 H   0  0  0  0  0  0  0  0  0  0  0  0
   45.1840   36.5409   42.3556 H   0  0  0  0  0  0  0  0  0  0  0  0
   44.9741   31.9299   49.1158 H   0  0  0  0  0  0  0  0  0  0  0  0
   47.2468   30.8238   48.2274 H   0  0  0  0  0  0  0  0  0  0  0  0
   47.9050   31.9635   45.8836 H   0  0  0  0  0  0  0  0  0  0  0  0
   43.4360   34.3861   41.8173 H   0  0  0  0  0  0  0  0  0  0  0  0
   43.0249   33.8420   40.1908 H   0  0  0  0  0  0  0  0  0  0  0  0
   41.9220   32.5711   42.2710 H   0  0  0  0  0  0  0  0  0  0  0  0
   42.5099   31.5542   41.0071 H   0  0  0  0  0  0  0  0  0  0  0  0
   44.0600   32.5603   43.5274 H   0  0  0  0  0  0  0  0  0  0  0  0
   43.8037   30.8899   43.1375 H   0  0  0  0  0  0  0  0  0  0  0  0
   46.1016   32.0409   42.2883 H   0  0  0  0  0  0  0  0  0  0  0  0
   46.2772   30.2304   41.0533 H   0  0  0  0  0  0  0  0  0  0  0  0
  1 12  1  0
  2  1  2  0
  3  2  1  0
  4  3  1  0
  4  9  2  0
  5  4  1  0
  6  5  2  0
  6  7  1  0
  7  8  2  0
  8  9  1  0
  8 21  1  0
  9  1  1  0
 10 15  2  0
 11 10  1  0
 12 11  2  0
 12 13  1  0
 13 14  2  0
 14 15  1  0
 14 16  1  0
 16 20  1  0
 16 17  1  0
 17 18  2  0
 19 18  1  0
 20 19  2  0
 21 22  1  0
 21 25  1  0
 22 23  1  0
 23 24  1  0
 25 24  1  0
 26 25  1  0
 27 26  2  0
  2 28  1  0
  3 29  1  0
  5 30  1  0
  6 31  1  0
  7 32  1  0
 10 33  1  0
 11 34  1  0
 18 35  1  0
 19 36  1  0
 20 37  1  0
 22 38  1  0
 22 39  1  0
 23 40  1  0
 23 41  1  0
 24 42  1  0
 24 43  1  0
 25 44  1  1
 26 45  1  0
M  END
>  <minimizedAffinity>  (1) 
-7.13034868

>  <minimizedRMSD>  (1) 
0.0972530842

$$$$
