
     RDKit          3D

 19 20  0  0  0  0  0  0  0  0999 V2000
   44.9120   35.0280   44.4880 C   0  0  0  0  0  0  0  0  0  0  0  0
   45.9140   34.7700   43.5470 C   0  0  0  0  0  0  0  0  0  0  0  0
   46.9270   33.8600   43.8870 C   0  0  0  0  0  0  0  0  0  0  0  0
   46.8790   33.2730   45.1280 N   0  0  0  0  0  0  0  0  0  0  0  0
   45.8970   33.5540   45.9950 C   0  0  0  0  0  0  0  0  0  0  0  0
   44.9340   34.4190   45.6690 N   0  0  0  0  0  0  0  0  0  0  0  0
   43.8300   35.9190   44.2830 N   0  0  0  0  0  0  0  0  0  0  0  0
   47.9270   33.6090   42.9310 N   0  0  0  0  0  0  0  0  0  0  0  0
   49.0560   34.3230   42.9950 N   0  0  0  0  0  0  0  0  0  0  0  0
   49.8910   33.9570   42.0190 C   0  0  0  0  0  0  0  0  0  0  0  0
   49.2900   32.9490   41.2640 C   0  0  0  0  0  0  0  0  0  0  0  0
   48.0740   32.7800   41.8830 C   0  0  0  0  0  0  0  0  0  0  0  0
   45.9083   35.2674   42.5659 H   0  0  0  0  0  0  0  0  0  0  0  0
   45.8842   33.0687   46.9821 H   0  0  0  0  0  0  0  0  0  0  0  0
   43.7443   36.4287   43.3921 H   0  0  0  0  0  0  0  0  0  0  0  0
   43.1289   36.0571   45.0249 H   0  0  0  0  0  0  0  0  0  0  0  0
   50.8899   34.3811   41.8395 H   0  0  0  0  0  0  0  0  0  0  0  0
   49.6912   32.4190   40.3876 H   0  0  0  0  0  0  0  0  0  0  0  0
   47.3133   32.0541   41.5597 H   0  0  0  0  0  0  0  0  0  0  0  0
  1  6  2  0
  2  3  2  0
  2  1  1  0
  3  4  1  0
  4  5  2  0
  6  5  1  0
  7  1  1  0
  8  9  1  0
  8  3  1  0
 10  9  2  0
 11 12  2  0
 11 10  1  0
 12  8  1  0
  2 13  1  0
  5 14  1  0
  7 15  1  0
  7 16  1  0
 10 17  1  0
 11 18  1  0
 12 19  1  0
M  ISO  5  13  14  14  14  17  14  18  14  19  14
M  END
>  <minimizedAffinity>  (1) 
-4.06785965

>  <minimizedRMSD>  (1) 
0.586224794

$$$$
