
     RDKit          3D

 49 52  0  0  0  0  0  0  0  0999 V2000
   50.7170   33.0770   42.0350 C   0  0  0  0  0  0  0  0  0  0  0  0
   50.7570   31.6800   42.1140 C   0  0  0  0  0  0  0  0  0  0  0  0
   49.6420   31.0380   42.6320 C   0  0  0  0  0  0  0  0  0  0  0  0
   48.5720   31.7960   43.0370 N   0  0  0  0  0  0  0  0  0  0  0  0
   48.5650   33.1360   42.9490 C   0  0  0  0  0  0  0  0  0  0  0  0
   49.6220   33.7470   42.4570 N   0  0  0  0  0  0  0  0  0  0  0  0
   47.3840   33.7630   43.4110 N   0  0  0  0  0  0  0  0  0  0  0  0
   46.9770   33.4290   44.6430 C   0  0  0  0  0  0  0  0  0  0  0  0
   45.8440   33.9820   45.1920 C   0  0  0  0  0  0  0  0  0  0  0  0
   45.1170   34.9020   44.4510 C   0  0  0  0  0  0  0  0  0  0  0  0
   44.0780   35.4320   44.9210 O   0  0  0  0  0  0  0  0  0  0  0  0
   45.5510   35.2210   43.2080 N   0  0  0  0  0  0  0  0  0  0  0  0
   46.6600   34.6710   42.6840 C   0  0  0  0  0  0  0  0  0  0  0  0
   47.0830   34.9430   41.5430 O   0  0  0  0  0  0  0  0  0  0  0  0
   45.4020   33.5700   46.5730 C   0  0  0  0  0  0  0  0  0  0  0  0
   44.7700   36.1880   42.4600 C   0  0  0  0  0  0  0  0  0  0  0  0
   43.7330   35.4850   41.6830 C   0  0  0  0  0  0  0  0  0  0  0  0
   42.4480   35.3120   42.2970 N   0  0  0  0  0  0  0  0  0  0  0  0
   41.2500   35.3840   41.5810 C   0  0  0  0  0  0  0  0  0  0  0  0
   40.7030   36.4570   41.1040 O   0  0  0  0  0  0  0  0  0  0  0  0
   40.4270   34.1440   41.2960 C   0  0  0  0  0  0  0  0  0  0  0  0
   40.1350   33.1570   42.2180 C   0  0  0  0  0  0  0  0  0  0  0  0
   39.3280   32.1180   41.8110 C   0  0  0  0  0  0  0  0  0  0  0  0
   38.8000   32.0210   40.5340 C   0  0  0  0  0  0  0  0  0  0  0  0
   39.0850   33.0020   39.6020 C   0  0  0  0  0  0  0  0  0  0  0  0
   38.5700   32.9140   38.3270 C   0  0  0  0  0  0  0  0  0  0  0  0
   38.8520   33.8790   37.3850 C   0  0  0  0  0  0  0  0  0  0  0  0
   39.6720   34.9360   37.7730 C   0  0  0  0  0  0  0  0  0  0  0  0
   40.1610   34.9800   39.0550 C   0  0  0  0  0  0  0  0  0  0  0  0
   39.8930   34.0250   40.0330 C   0  0  0  0  0  0  0  0  0  0  0  0
   51.5772   33.6296   41.6293 H   0  0  0  0  0  0  0  0  0  0  0  0
   51.6382   31.1136   41.7784 H   0  0  0  0  0  0  0  0  0  0  0  0
   49.6158   29.9416   42.7166 H   0  0  0  0  0  0  0  0  0  0  0  0
   47.5593   32.6998   45.2254 H   0  0  0  0  0  0  0  0  0  0  0  0
   45.9895   34.1176   47.3246 H   0  0  0  0  0  0  0  0  0  0  0  0
   44.3346   33.8029   46.7011 H   0  0  0  0  0  0  0  0  0  0  0  0
   45.5594   32.4889   46.7011 H   0  0  0  0  0  0  0  0  0  0  0  0
   44.2920   36.8917   43.1573 H   0  0  0  0  0  0  0  0  0  0  0  0
   45.4293   36.7418   41.7755 H   0  0  0  0  0  0  0  0  0  0  0  0
   44.1218   34.4839   41.4449 H   0  0  0  0  0  0  0  0  0  0  0  0
   43.5438   36.1351   40.8160 H   0  0  0  0  0  0  0  0  0  0  0  0
   42.4066   35.1267   43.3093 H   0  0  0  0  0  0  0  0  0  0  0  0
   40.5337   33.1998   43.2423 H   0  0  0  0  0  0  0  0  0  0  0  0
   39.0908   31.3256   42.5361 H   0  0  0  0  0  0  0  0  0  0  0  0
   38.1584   31.1695   40.2632 H   0  0  0  0  0  0  0  0  0  0  0  0
   37.9263   32.0635   38.0582 H   0  0  0  0  0  0  0  0  0  0  0  0
   38.4449   33.8171   36.3650 H   0  0  0  0  0  0  0  0  0  0  0  0
   39.9263   35.7308   37.0563 H   0  0  0  0  0  0  0  0  0  0  0  0
   40.8081   35.8265   39.3284 H   0  0  0  0  0  0  0  0  0  0  0  0
  1  2  2  0
  1  6  1  0
  2  3  1  0
  3  4  2  0
  5  4  1  0
  5  7  1  0
  6  5  2  0
  7  8  1  0
  8  9  2  0
  9 15  1  0
 10 11  2  0
 10  9  1  0
 12 10  1  0
 13 12  1  0
 13  7  1  0
 14 13  2  0
 16 12  1  0
 17 18  1  0
 17 16  1  0
 19 18  1  0
 20 19  2  0
 21 19  1  0
 21 22  2  0
 23 22  1  0
 24 23  2  0
 25 30  2  0
 25 24  1  0
 26 25  1  0
 27 28  1  0
 27 26  2  0
 28 29  2  0
 29 30  1  0
 30 21  1  0
  1 31  1  0
  2 32  1  0
  3 33  1  0
  8 34  1  0
 15 35  1  0
 15 36  1  0
 15 37  1  0
 16 38  1  0
 16 39  1  0
 17 40  1  0
 17 41  1  0
 18 42  1  0
 22 43  1  0
 23 44  1  0
 24 45  1  0
 26 46  1  0
 27 47  1  0
 28 48  1  0
 29 49  1  0
M  END
>  <minimizedAffinity>  (1) 
-7.87717581

>  <minimizedRMSD>  (1) 
0.545448542

$$$$
