
     RDKit          3D

 42 45  0  0  1  0  0  0  0  0999 V2000
   46.4570   33.8330   42.3170 N   0  0  0  0  0  0  0  0  0  0  0  0
   47.7670   34.1640   41.7630 C   0  0  0  0  0  0  0  0  0  0  0  0
   47.3930   34.4280   40.3290 C   0  0  0  0  0  0  0  0  0  0  0  0
   46.5550   33.2050   40.0280 C   0  0  0  0  0  0  0  0  0  0  0  0
   45.7790   33.0260   41.2930 C   0  0  2  0  0  0  0  0  0  0  0  0
   44.5620   35.5790   44.9850 C   0  0  0  0  0  0  0  0  0  0  0  0
   45.0750   35.2940   43.7150 C   0  0  0  0  0  0  0  0  0  0  0  0
   45.9070   34.1800   43.5510 C   0  0  0  0  0  0  0  0  0  0  0  0
   46.1660   33.4360   44.6590 N   0  0  0  0  0  0  0  0  0  0  0  0
   45.6620   33.7230   45.8830 C   0  0  0  0  0  0  0  0  0  0  0  0
   44.8660   34.7920   46.0270 N   0  0  0  0  0  0  0  0  0  0  0  0
   45.9320   32.9470   47.0310 N   0  0  0  0  0  0  0  0  0  0  0  0
   44.9740   32.6330   47.8840 N   0  0  0  0  0  0  0  0  0  0  0  0
   45.4830   31.8950   48.8840 C   0  0  0  0  0  0  0  0  0  0  0  0
   46.8350   31.7730   48.5870 C   0  0  0  0  0  0  0  0  0  0  0  0
   47.1290   32.4400   47.4070 C   0  0  0  0  0  0  0  0  0  0  0  0
   44.3800   33.2310   41.2180 N   0  0  0  0  0  0  0  0  0  0  0  0
   43.7400   34.1860   40.5310 C   0  0  0  0  0  0  0  0  0  0  0  0
   42.3590   34.3000   40.5240 C   0  0  0  0  0  0  0  0  0  0  0  0
   41.5900   33.4090   41.2460 C   0  0  0  0  0  0  0  0  0  0  0  0
   40.3120   33.4630   41.2800 O   0  0  0  0  0  0  0  0  0  0  0  0
   42.2440   32.4580   41.9320 N   0  0  0  0  0  0  0  0  0  0  0  0
   43.5680   32.3880   41.9070 C   0  0  0  0  0  0  0  0  0  0  0  0
   44.0850   31.4490   42.5920 O   0  0  0  0  0  0  0  0  0  0  0  0
   41.6730   35.3610   39.7560 C   0  0  0  0  0  0  0  0  0  0  0  0
   48.1981   35.0555   42.2420 H   0  0  0  0  0  0  0  0  0  0  0  0
   48.5356   33.3897   41.9036 H   0  0  0  0  0  0  0  0  0  0  0  0
   46.8092   35.3546   40.2264 H   0  0  0  0  0  0  0  0  0  0  0  0
   48.2488   34.5727   39.6532 H   0  0  0  0  0  0  0  0  0  0  0  0
   45.8861   33.3819   39.1729 H   0  0  0  0  0  0  0  0  0  0  0  0
   47.1503   32.3228   39.7499 H   0  0  0  0  0  0  0  0  0  0  0  0
   45.7889   31.9586   41.5585 H   0  0  0  0  0  0  0  0  0  0  0  0
   43.9074   36.4512   45.1290 H   0  0  0  0  0  0  0  0  0  0  0  0
   44.8280   35.9365   42.8570 H   0  0  0  0  0  0  0  0  0  0  0  0
   44.9467   31.4781   49.7492 H   0  0  0  0  0  0  0  0  0  0  0  0
   47.5668   31.2261   49.1996 H   0  0  0  0  0  0  0  0  0  0  0  0
   48.1004   32.5341   46.8995 H   0  0  0  0  0  0  0  0  0  0  0  0
   44.3333   34.9075   39.9501 H   0  0  0  0  0  0  0  0  0  0  0  0
   41.7097   31.7731   42.4855 H   0  0  0  0  0  0  0  0  0  0  0  0
   41.2104   36.0765   40.4518 H   0  0  0  0  0  0  0  0  0  0  0  0
   42.4033   35.8856   39.1224 H   0  0  0  0  0  0  0  0  0  0  0  0
   40.8949   34.9103   39.1224 H   0  0  0  0  0  0  0  0  0  0  0  0
  1  8  1  0
  2  1  1  0
  3  2  1  0
  4  3  1  0
  4  5  1  0
  5  1  1  0
  6 11  2  0
  7  6  1  0
  8  7  2  0
  8  9  1  0
  9 10  2  0
 10 11  1  0
 10 12  1  0
 12 16  1  0
 12 13  1  0
 13 14  2  0
 15 14  1  0
 16 15  2  0
 17  5  1  0
 17 23  1  0
 18 17  1  0
 19 18  2  0
 19 20  1  0
 20 21  2  0
 20 22  1  0
 23 22  1  0
 23 24  2  0
 25 19  1  0
  2 26  1  0
  2 27  1  0
  3 28  1  0
  3 29  1  0
  4 30  1  0
  4 31  1  0
  5 32  1  1
  6 33  1  0
  7 34  1  0
 14 35  1  0
 15 36  1  0
 16 37  1  0
 18 38  1  0
 22 39  1  0
 25 40  1  0
 25 41  1  0
 25 42  1  0
M  ISO  8  26  13  27  13  28  13  29  13  30  13  31  13  32  13  33  14
M  ISO  8  34  14  35  14  36  14  37  14  38  14  39   9  40   8  41   8
M  ISO  1  42   8
M  END
>  <minimizedAffinity>  (1) 
-6.87644672

>  <minimizedRMSD>  (1) 
0.549869537

$$$$
