
     RDKit          3D

 40 43  0  0  0  0  0  0  0  0999 V2000
   46.4110   34.6380   42.2010 C   0  0  0  0  0  0  0  0  0  0  0  0
   47.7240   34.9950   42.0600 C   0  0  0  0  0  0  0  0  0  0  0  0
   48.4160   34.8050   40.8580 C   0  0  0  0  0  0  0  0  0  0  0  0
   47.7590   34.2370   39.7690 C   0  0  0  0  0  0  0  0  0  0  0  0
   46.4460   33.8810   39.9170 C   0  0  0  0  0  0  0  0  0  0  0  0
   45.7860   34.0830   41.1230 C   0  0  0  0  0  0  0  0  0  0  0  0
   44.3840   36.0660   45.0370 C   0  0  0  0  0  0  0  0  0  0  0  0
   44.9420   35.9390   43.7690 C   0  0  0  0  0  0  0  0  0  0  0  0
   45.7770   34.8720   43.4800 C   0  0  0  0  0  0  0  0  0  0  0  0
   46.0110   33.9880   44.4690 N   0  0  0  0  0  0  0  0  0  0  0  0
   45.4600   34.1250   45.7010 C   0  0  0  0  0  0  0  0  0  0  0  0
   44.6510   35.1600   45.9830 N   0  0  0  0  0  0  0  0  0  0  0  0
   45.7120   33.1840   46.7510 N   0  0  0  0  0  0  0  0  0  0  0  0
   46.9700   32.7250   46.7250 N   0  0  0  0  0  0  0  0  0  0  0  0
   47.1490   31.8500   47.7260 C   0  0  0  0  0  0  0  0  0  0  0  0
   45.9490   31.7580   48.4080 C   0  0  0  0  0  0  0  0  0  0  0  0
   45.0570   32.6120   47.7700 C   0  0  0  0  0  0  0  0  0  0  0  0
   44.4220   33.7000   41.2310 N   0  0  0  0  0  0  0  0  0  0  0  0
   43.6100   34.6610   40.6870 C   0  0  0  0  0  0  0  0  0  0  0  0
   42.2200   34.4930   40.6820 C   0  0  0  0  0  0  0  0  0  0  0  0
   41.7130   33.3280   41.2460 C   0  0  0  0  0  0  0  0  0  0  0  0
   40.4750   33.1130   41.2750 O   0  0  0  0  0  0  0  0  0  0  0  0
   42.5590   32.4160   41.7670 N   0  0  0  0  0  0  0  0  0  0  0  0
   43.8850   32.5950   41.7620 C   0  0  0  0  0  0  0  0  0  0  0  0
   44.7380   31.8070   42.2210 O   0  0  0  0  0  0  0  0  0  0  0  0
   41.3020   35.5090   40.1020 C   0  0  0  0  0  0  0  0  0  0  0  0
   48.2508   35.4439   42.9150 H   0  0  0  0  0  0  0  0  0  0  0  0
   49.4717   35.1023   40.7741 H   0  0  0  0  0  0  0  0  0  0  0  0
   48.2822   34.0787   38.8144 H   0  0  0  0  0  0  0  0  0  0  0  0
   45.9066   33.4296   39.0712 H   0  0  0  0  0  0  0  0  0  0  0  0
   43.7211   36.9145   45.2619 H   0  0  0  0  0  0  0  0  0  0  0  0
   44.7197   36.6875   42.9941 H   0  0  0  0  0  0  0  0  0  0  0  0
   48.0765   31.3072   47.9606 H   0  0  0  0  0  0  0  0  0  0  0  0
   45.7407   31.1297   49.2865 H   0  0  0  0  0  0  0  0  0  0  0  0
   44.0075   32.7859   48.0500 H   0  0  0  0  0  0  0  0  0  0  0  0
   44.0528   35.5691   40.2520 H   0  0  0  0  0  0  0  0  0  0  0  0
   42.1727   31.5557   42.1813 H   0  0  0  0  0  0  0  0  0  0  0  0
   40.8045   36.0596   40.9139 H   0  0  0  0  0  0  0  0  0  0  0  0
   41.8776   36.2116   39.4815 H   0  0  0  0  0  0  0  0  0  0  0  0
   40.5448   35.0073   39.4815 H   0  0  0  0  0  0  0  0  0  0  0  0
  1  9  1  0
  2  1  2  0
  3  2  1  0
  4  5  1  0
  4  3  2  0
  5  6  2  0
  6 18  1  0
  6  1  1  0
  7 12  2  0
  8  7  1  0
  9  8  2  0
  9 10  1  0
 10 11  2  0
 11 12  1  0
 11 13  1  0
 13 17  1  0
 14 13  1  0
 14 15  2  0
 15 16  1  0
 17 16  2  0
 18 24  1  0
 19 18  1  0
 20 19  2  0
 20 21  1  0
 21 22  2  0
 21 23  1  0
 24 23  1  0
 24 25  2  0
 26 20  1  0
  2 27  1  0
  3 28  1  0
  4 29  1  0
  5 30  1  0
  7 31  1  0
  8 32  1  0
 15 33  1  0
 16 34  1  0
 17 35  1  0
 19 36  1  0
 23 37  1  0
 26 38  1  0
 26 39  1  0
 26 40  1  0
M  ISO  8  27  14  28  14  29  14  30  14  31  14  32  14  33  14  34  14
M  ISO  6  35  14  36  14  37   9  38   8  39   8  40   8
M  END
>  <minimizedAffinity>  (1) 
-7.78004837

>  <minimizedRMSD>  (1) 
0.115366951

$$$$
