
     RDKit          3D

 36 38  0  0  0  0  0  0  0  0999 V2000
   44.1090   35.7690   42.6620 C   0  0  0  0  0  0  0  0  0  0  0  0
   43.3330   35.1590   41.6530 C   0  0  0  0  0  0  0  0  0  0  0  0
   43.9640   34.2990   40.7860 C   0  0  0  0  0  0  0  0  0  0  0  0
   45.3090   34.0400   40.8970 N   0  0  0  0  0  0  0  0  0  0  0  0
   46.0080   34.6520   41.8820 C   0  0  0  0  0  0  0  0  0  0  0  0
   45.4150   35.5050   42.7530 N   0  0  0  0  0  0  0  0  0  0  0  0
   47.4470   34.4310   42.0740 C   0  0  0  0  0  0  0  0  0  0  0  0
   48.3220   35.4860   41.9800 C   0  0  0  0  0  0  0  0  0  0  0  0
   49.6900   35.2790   42.1640 C   0  0  0  0  0  0  0  0  0  0  0  0
   50.1930   34.0260   42.4410 C   0  0  0  0  0  0  0  0  0  0  0  0
   49.2770   32.9990   42.5240 C   0  0  0  0  0  0  0  0  0  0  0  0
   47.9730   33.2350   42.3430 N   0  0  0  0  0  0  0  0  0  0  0  0
   41.5640   35.4960   41.5210 S   0  0  0  0  0  0  0  0  0  0  0  0
   40.9170   34.6180   40.1050 C   0  0  0  0  0  0  0  0  0  0  0  0
   41.5840   35.0000   38.8060 C   0  0  0  0  0  0  0  0  0  0  0  0
   40.5590   35.5440   37.8210 C   0  0  0  0  0  0  0  0  0  0  0  0
   39.5600   34.4590   37.4700 C   0  0  0  0  0  0  0  0  0  0  0  0
   39.0830   33.8040   38.7590 C   0  0  0  0  0  0  0  0  0  0  0  0
   39.4250   34.7070   39.9500 C   0  0  0  0  0  0  0  0  0  0  0  0
   43.6376   36.4624   43.3740 H   0  0  0  0  0  0  0  0  0  0  0  0
   43.3828   33.8101   39.9903 H   0  0  0  0  0  0  0  0  0  0  0  0
   47.9440   36.4952   41.7594 H   0  0  0  0  0  0  0  0  0  0  0  0
   50.3799   36.1322   42.0865 H   0  0  0  0  0  0  0  0  0  0  0  0
   51.2695   33.8543   42.5882 H   0  0  0  0  0  0  0  0  0  0  0  0
   49.6214   31.9771   42.7409 H   0  0  0  0  0  0  0  0  0  0  0  0
   41.1636   33.5696   40.3288 H   0  0  0  0  0  0  0  0  0  0  0  0
   42.3430   35.7717   39.0019 H   0  0  0  0  0  0  0  0  0  0  0  0
   42.0557   34.1062   38.3717 H   0  0  0  0  0  0  0  0  0  0  0  0
   40.0301   36.3943   38.2763 H   0  0  0  0  0  0  0  0  0  0  0  0
   41.0731   35.8748   36.9065 H   0  0  0  0  0  0  0  0  0  0  0  0
   38.7036   34.9010   36.9397 H   0  0  0  0  0  0  0  0  0  0  0  0
   40.0327   33.7086   36.8192 H   0  0  0  0  0  0  0  0  0  0  0  0
   37.9941   33.6549   38.7131 H   0  0  0  0  0  0  0  0  0  0  0  0
   39.5822   32.8315   38.8818 H   0  0  0  0  0  0  0  0  0  0  0  0
   39.1208   35.7442   39.7460 H   0  0  0  0  0  0  0  0  0  0  0  0
   38.9000   34.3933   40.8643 H   0  0  0  0  0  0  0  0  0  0  0  0
  1  6  2  0
  2  1  1  0
  3  4  1  0
  3  2  2  0
  4  5  2  0
  5  7  1  0
  5  6  1  0
  7 12  1  0
  8  7  2  0
  8  9  1  0
  9 10  2  0
 10 11  1  0
 12 11  2  0
 13  2  1  0
 14 13  1  0
 15 14  1  0
 16 15  1  0
 17 16  1  0
 17 18  1  0
 18 19  1  0
 19 14  1  0
  1 20  1  0
  3 21  1  0
  8 22  1  0
  9 23  1  0
 10 24  1  0
 11 25  1  0
 14 26  1  0
 15 27  1  0
 15 28  1  0
 16 29  1  0
 16 30  1  0
 17 31  1  0
 17 32  1  0
 18 33  1  0
 18 34  1  0
 19 35  1  0
 19 36  1  0
M  ISO  8  20  14  21  14  22  14  23  14  24  14  25  14  26  13  27  13
M  ISO  8  28  13  29  13  30  13  31  13  32  13  33  13  34  13  35  13
M  ISO  1  36  13
M  END
>  <minimizedAffinity>  (1) 
-5.92858791

>  <minimizedRMSD>  (1) 
0.728549063

$$$$
