
     RDKit          3D

 46 50  0  0  0  0  0  0  0  0999 V2000
   46.7590   34.7150   41.7200 C   0  0  0  0  0  0  0  0  0  0  0  0
   44.5840   35.8480   44.5660 C   0  0  0  0  0  0  0  0  0  0  0  0
   45.1910   35.7950   43.3000 C   0  0  0  0  0  0  0  0  0  0  0  0
   46.1030   34.7930   43.0520 C   0  0  0  0  0  0  0  0  0  0  0  0
   46.3730   33.9000   44.0470 N   0  0  0  0  0  0  0  0  0  0  0  0
   45.7690   33.9750   45.2660 C   0  0  0  0  0  0  0  0  0  0  0  0
   44.8660   34.9660   45.5170 N   0  0  0  0  0  0  0  0  0  0  0  0
   46.0710   33.0140   46.3100 C   0  0  0  0  0  0  0  0  0  0  0  0
   45.3640   33.0420   47.5040 C   0  0  0  0  0  0  0  0  0  0  0  0
   45.5960   32.1440   48.5520 C   0  0  0  0  0  0  0  0  0  0  0  0
   46.5760   31.2520   48.2800 C   0  0  0  0  0  0  0  0  0  0  0  0
   47.3170   31.1800   47.1010 C   0  0  0  0  0  0  0  0  0  0  0  0
   47.0080   32.0940   46.1610 N   0  0  0  0  0  0  0  0  0  0  0  0
   44.3730   34.0340   47.6550 N   0  0  0  0  0  0  0  0  0  0  0  0
   48.1710   35.2640   41.7640 C   0  0  0  0  0  0  0  0  0  0  0  0
   49.1770   34.2070   42.0190 C   0  0  0  0  0  0  0  0  0  0  0  0
   50.4430   34.4800   42.3630 N   0  0  0  0  0  0  0  0  0  0  0  0
   51.0560   33.3420   42.5130 O   0  0  0  0  0  0  0  0  0  0  0  0
   50.2440   32.3450   42.2810 C   0  0  0  0  0  0  0  0  0  0  0  0
   49.0440   32.8730   41.9640 N   0  0  0  0  0  0  0  0  0  0  0  0
   50.7040   30.9940   42.3850 N   0  0  0  0  0  0  0  0  0  0  0  0
   50.6350   30.0730   43.3510 N   0  0  0  0  0  0  0  0  0  0  0  0
   51.2360   28.9440   42.9270 C   0  0  0  0  0  0  0  0  0  0  0  0
   51.7010   29.1780   41.6310 C   0  0  0  0  0  0  0  0  0  0  0  0
   51.3430   30.4910   41.3250 C   0  0  0  0  0  0  0  0  0  0  0  0
   51.7030   30.9910   40.0410 N   0  0  0  0  0  0  0  0  0  0  0  0
   51.0230   31.3820   38.9690 N   0  0  0  0  0  0  0  0  0  0  0  0
   51.8800   31.7730   38.0060 C   0  0  0  0  0  0  0  0  0  0  0  0
   53.1610   31.6130   38.5210 C   0  0  0  0  0  0  0  0  0  0  0  0
   53.0230   31.1130   39.8170 C   0  0  0  0  0  0  0  0  0  0  0  0
   46.1707   35.2990   40.9969 H   0  0  0  0  0  0  0  0  0  0  0  0
   46.8087   33.6576   41.4208 H   0  0  0  0  0  0  0  0  0  0  0  0
   43.8538   36.6436   44.7752 H   0  0  0  0  0  0  0  0  0  0  0  0
   44.9438   36.5359   42.5255 H   0  0  0  0  0  0  0  0  0  0  0  0
   45.0384   32.1617   49.5001 H   0  0  0  0  0  0  0  0  0  0  0  0
   46.8102   30.5146   49.0619 H   0  0  0  0  0  0  0  0  0  0  0  0
   48.1030   30.4257   46.9484 H   0  0  0  0  0  0  0  0  0  0  0  0
   43.8266   34.0877   48.5265 H   0  0  0  0  0  0  0  0  0  0  0  0
   44.1956   34.7048   46.8938 H   0  0  0  0  0  0  0  0  0  0  0  0
   48.3956   35.7406   40.7984 H   0  0  0  0  0  0  0  0  0  0  0  0
   48.2254   35.9872   42.5910 H   0  0  0  0  0  0  0  0  0  0  0  0
   51.3411   28.0092   43.4972 H   0  0  0  0  0  0  0  0  0  0  0  0
   52.2399   28.4708   40.9834 H   0  0  0  0  0  0  0  0  0  0  0  0
   51.6168   32.1467   37.0054 H   0  0  0  0  0  0  0  0  0  0  0  0
   54.1058   31.8380   38.0045 H   0  0  0  0  0  0  0  0  0  0  0  0
   53.8348   30.8671   40.5174 H   0  0  0  0  0  0  0  0  0  0  0  0
  1 15  1  0
  1  4  1  0
  2  7  2  0
  3  2  1  0
  4  3  2  0
  4  5  1  0
  5  6  2  0
  6  7  1  0
  6  8  1  0
  8  9  2  0
  9 14  1  0
  9 10  1  0
 11 10  2  0
 12 11  1  0
 13  8  1  0
 13 12  2  0
 15 16  1  0
 16 17  2  0
 17 18  1  0
 19 21  1  0
 19 18  1  0
 20 16  1  0
 20 19  2  0
 21 22  1  0
 23 22  2  0
 24 23  1  0
 25 24  2  0
 25 21  1  0
 26 25  1  0
 27 26  1  0
 28 29  1  0
 28 27  2  0
 29 30  2  0
 30 26  1  0
  1 31  1  0
  1 32  1  0
  2 33  1  0
  3 34  1  0
 10 35  1  0
 11 36  1  0
 12 37  1  0
 14 38  1  0
 14 39  1  0
 15 40  1  0
 15 41  1  0
 23 42  1  0
 24 43  1  0
 28 44  1  0
 29 45  1  0
 30 46  1  0
M  END
>  <minimizedAffinity>  (1) 
-7.45630598

>  <minimizedRMSD>  (1) 
1.1608125

$$$$
