
     RDKit          3D

 29 31  0  0  1  0  0  0  0  0999 V2000
   43.9760   34.9190   41.5960 C   0  0  2  0  0  0  0  0  0  0  0  0
   42.4410   34.7620   41.4440 C   0  0  0  0  0  0  0  0  0  0  0  0
   42.3870   35.1200   39.9410 C   0  0  1  0  0  0  0  0  0  0  0  0
   43.4710   34.2060   39.4120 C   0  0  0  0  0  0  0  0  0  0  0  0
   44.4480   33.9900   40.5660 C   0  0  0  0  0  0  0  0  0  0  0  0
   44.2270   35.7200   43.8940 C   0  0  0  0  0  0  0  0  0  0  0  0
   44.4360   34.6730   42.9650 C   0  0  0  0  0  0  0  0  0  0  0  0
   45.0840   33.4780   43.3900 C   0  0  0  0  0  0  0  0  0  0  0  0
   45.4690   33.4180   44.6820 N   0  0  0  0  0  0  0  0  0  0  0  0
   45.2640   34.4320   45.5680 C   0  0  0  0  0  0  0  0  0  0  0  0
   44.6440   35.5790   45.1740 N   0  0  0  0  0  0  0  0  0  0  0  0
   41.0940   34.8880   39.3780 N   0  0  0  0  0  0  0  0  0  0  0  0
   39.9400   34.8580   40.0690 C   0  0  0  0  0  0  0  0  0  0  0  0
   38.9890   34.6130   39.1580 N   0  0  0  0  0  0  0  0  0  0  0  0
   39.5720   34.4990   37.9410 C   0  0  0  0  0  0  0  0  0  0  0  0
   40.9000   34.6730   38.0860 N   0  0  0  0  0  0  0  0  0  0  0  0
   44.3735   35.9336   41.4461 H   0  0  0  0  0  0  0  0  0  0  0  0
   42.0967   33.7376   41.6490 H   0  0  0  0  0  0  0  0  0  0  0  0
   41.8076   35.3523   42.1225 H   0  0  0  0  0  0  0  0  0  0  0  0
   42.5501   36.1803   39.6980 H   0  0  0  0  0  0  0  0  0  0  0  0
   43.0385   33.2459   39.0940 H   0  0  0  0  0  0  0  0  0  0  0  0
   43.9742   34.6454   38.5381 H   0  0  0  0  0  0  0  0  0  0  0  0
   44.4074   32.9513   40.9257 H   0  0  0  0  0  0  0  0  0  0  0  0
   45.4949   34.1670   40.2783 H   0  0  0  0  0  0  0  0  0  0  0  0
   43.7266   36.6467   43.5764 H   0  0  0  0  0  0  0  0  0  0  0  0
   45.2624   32.6425   42.6971 H   0  0  0  0  0  0  0  0  0  0  0  0
   45.6016   34.3238   46.6093 H   0  0  0  0  0  0  0  0  0  0  0  0
   39.8060   35.0036   41.1511 H   0  0  0  0  0  0  0  0  0  0  0  0
   39.0495   34.2982   36.9941 H   0  0  0  0  0  0  0  0  0  0  0  0
  1  7  1  0
  2  1  1  0
  3  2  1  0
  4  3  1  0
  4  5  1  0
  5  1  1  0
  6 11  2  0
  7  8  2  0
  7  6  1  0
  8  9  1  0
  9 10  2  0
 11 10  1  0
 12  3  1  0
 12 13  1  0
 14 13  2  0
 15 16  2  0
 15 14  1  0
 16 12  1  0
  1 17  1  6
  2 18  1  0
  2 19  1  0
  3 20  1  1
  4 21  1  0
  4 22  1  0
  5 23  1  0
  5 24  1  0
  6 25  1  0
  8 26  1  0
 10 27  1  0
 13 28  1  0
 15 29  1  0
M  ISO  8  17  13  18  13  19  13  20  13  21  13  22  13  23  13  24  13
M  ISO  5  25  14  26  14  27  14  28  14  29  14
M  END
>  <minimizedAffinity>  (1) 
-4.74045801

>  <minimizedRMSD>  (1) 
0.470883608

$$$$
