
     RDKit          3D

 33 35  0  0  1  0  0  0  0  0999 V2000
   45.1940   34.0190   42.3330 C   0  0  2  0  0  0  0  0  0  0  0  0
   44.6100   35.3530   42.7290 C   0  0  0  0  0  0  0  0  0  0  0  0
   43.6410   35.9340   41.8320 C   0  0  0  0  0  0  0  0  0  0  0  0
   43.2490   35.2640   40.6070 C   0  0  1  0  0  0  0  0  0  0  0  0
   43.9480   34.0020   40.2780 C   0  0  0  0  0  0  0  0  0  0  0  0
   44.2280   33.2220   41.5280 C   0  0  0  0  0  0  0  0  0  0  0  0
   45.6530   33.9730   44.7340 C   0  0  0  0  0  0  0  0  0  0  0  0
   45.7500   33.3560   43.5020 C   0  0  0  0  0  0  0  0  0  0  0  0
   46.3970   32.1220   43.4550 C   0  0  0  0  0  0  0  0  0  0  0  0
   46.9010   31.5740   44.5950 N   0  0  0  0  0  0  0  0  0  0  0  0
   46.7910   32.2030   45.7930 C   0  0  0  0  0  0  0  0  0  0  0  0
   46.1640   33.4070   45.8630 N   0  0  0  0  0  0  0  0  0  0  0  0
   47.3280   31.6050   46.9680 N   0  0  0  0  0  0  0  0  0  0  0  0
   47.2100   32.1830   48.1900 C   0  0  0  0  0  0  0  0  0  0  0  0
   47.7910   31.4420   49.1450 N   0  0  0  0  0  0  0  0  0  0  0  0
   48.2920   30.3570   48.4880 C   0  0  0  0  0  0  0  0  0  0  0  0
   48.0070   30.4640   47.1670 N   0  0  0  0  0  0  0  0  0  0  0  0
   41.7400   35.0080   40.6630 C   0  0  0  0  0  0  0  0  0  0  0  0
   41.2450   35.0100   41.9520 F   0  0  0  0  0  0  0  0  0  0  0  0
   41.1110   36.0610   40.0080 F   0  0  0  0  0  0  0  0  0  0  0  0
   41.4240   33.8530   39.9720 F   0  0  0  0  0  0  0  0  0  0  0  0
   46.0444   34.1585   41.6493 H   0  0  0  0  0  0  0  0  0  0  0  0
   44.9094   35.8590   43.6587 H   0  0  0  0  0  0  0  0  0  0  0  0
   43.1900   36.9055   42.0824 H   0  0  0  0  0  0  0  0  0  0  0  0
   43.5465   35.9484   39.7989 H   0  0  0  0  0  0  0  0  0  0  0  0
   43.3154   33.4004   39.6087 H   0  0  0  0  0  0  0  0  0  0  0  0
   44.9011   34.2391   39.7826 H   0  0  0  0  0  0  0  0  0  0  0  0
   43.2977   33.0714   42.0953 H   0  0  0  0  0  0  0  0  0  0  0  0
   44.6416   32.2315   41.2875 H   0  0  0  0  0  0  0  0  0  0  0  0
   45.1493   34.9483   44.8055 H   0  0  0  0  0  0  0  0  0  0  0  0
   46.5003   31.5912   42.4971 H   0  0  0  0  0  0  0  0  0  0  0  0
   46.7010   33.1405   48.3744 H   0  0  0  0  0  0  0  0  0  0  0  0
   48.8406   29.5263   48.9560 H   0  0  0  0  0  0  0  0  0  0  0  0
  1  2  1  0
  1  8  1  0
  3  2  2  0
  4 18  1  0
  4  3  1  0
  5  4  1  0
  5  6  1  0
  6  1  1  0
  7 12  2  0
  8  7  1  0
  9  8  2  0
  9 10  1  0
 10 11  2  0
 11 12  1  0
 11 13  1  0
 13 17  1  0
 13 14  1  0
 14 15  2  0
 16 15  1  0
 17 16  2  0
 18 19  1  0
 20 18  1  0
 21 18  1  0
  1 22  1  6
  2 23  1  0
  3 24  1  0
  4 25  1  6
  5 26  1  0
  5 27  1  0
  6 28  1  0
  6 29  1  0
  7 30  1  0
  9 31  1  0
 14 32  1  0
 16 33  1  0
M  ISO  8  22  13  23  13  24  13  25  13  26  13  27  13  28  13  29  13
M  ISO  4  30  14  31  14  32  14  33  14
M  END
>  <minimizedAffinity>  (1) 
-5.30350733

>  <minimizedRMSD>  (1) 
3.43688035

$$$$
