
     RDKit          3D

 29 32  0  0  0  0  0  0  0  0999 V2000
   46.5960   32.6710   42.6430 N   0  0  0  0  0  0  0  0  0  0  0  0
   47.4620   32.2080   41.7200 C   0  0  0  0  0  0  0  0  0  0  0  0
   48.2190   31.2670   42.2860 N   0  0  0  0  0  0  0  0  0  0  0  0
   47.8440   31.1230   43.5700 C   0  0  0  0  0  0  0  0  0  0  0  0
   48.2500   30.3230   44.6320 C   0  0  0  0  0  0  0  0  0  0  0  0
   47.6190   30.4650   45.8040 N   0  0  0  0  0  0  0  0  0  0  0  0
   46.6090   31.3330   46.0410 C   0  0  0  0  0  0  0  0  0  0  0  0
   46.2030   32.1200   45.0120 N   0  0  0  0  0  0  0  0  0  0  0  0
   46.8200   32.0070   43.8010 C   0  0  0  0  0  0  0  0  0  0  0  0
   46.0320   31.3750   47.3420 N   0  0  0  0  0  0  0  0  0  0  0  0
   45.7380   32.2730   48.2900 C   0  0  0  0  0  0  0  0  0  0  0  0
   45.1740   31.6220   49.3330 N   0  0  0  0  0  0  0  0  0  0  0  0
   45.1150   30.3220   49.0390 C   0  0  0  0  0  0  0  0  0  0  0  0
   45.6450   30.1810   47.8100 N   0  0  0  0  0  0  0  0  0  0  0  0
   44.9040   35.9390   42.8970 C   0  0  0  0  0  0  0  0  0  0  0  0
   45.8930   34.9430   43.0480 C   0  0  0  0  0  0  0  0  0  0  0  0
   45.5930   33.6800   42.4900 C   0  0  0  0  0  0  0  0  0  0  0  0
   44.4010   33.4820   41.8500 N   0  0  0  0  0  0  0  0  0  0  0  0
   43.5060   34.4740   41.7420 C   0  0  0  0  0  0  0  0  0  0  0  0
   43.7390   35.6900   42.2520 N   0  0  0  0  0  0  0  0  0  0  0  0
   45.0380   37.2480   43.3820 N   0  0  0  0  0  0  0  0  0  0  0  0
   47.5326   32.5485   40.6764 H   0  0  0  0  0  0  0  0  0  0  0  0
   49.0657   29.5948   44.5127 H   0  0  0  0  0  0  0  0  0  0  0  0
   45.9234   33.3557   48.2310 H   0  0  0  0  0  0  0  0  0  0  0  0
   44.7118   29.5215   49.6767 H   0  0  0  0  0  0  0  0  0  0  0  0
   46.8416   35.1387   43.5695 H   0  0  0  0  0  0  0  0  0  0  0  0
   42.5559   34.2843   41.2211 H   0  0  0  0  0  0  0  0  0  0  0  0
   44.2794   37.9301   43.2398 H   0  0  0  0  0  0  0  0  0  0  0  0
   45.8950   37.5273   43.8804 H   0  0  0  0  0  0  0  0  0  0  0  0
  1  9  1  0
  2  3  2  0
  2  1  1  0
  3  4  1  0
  4  9  2  0
  4  5  1  0
  5  6  2  0
  6  7  1  0
  7 10  1  0
  8  7  2  0
  9  8  1  0
 10 14  1  0
 10 11  1  0
 11 12  2  0
 13 12  1  0
 14 13  2  0
 15 16  2  0
 15 21  1  0
 17  1  1  0
 17 16  1  0
 18 17  2  0
 19 18  1  0
 19 20  2  0
 20 15  1  0
  2 22  1  0
  5 23  1  0
 11 24  1  0
 13 25  1  0
 16 26  1  0
 19 27  1  0
 21 28  1  0
 21 29  1  0
M  ISO  6  22  14  23  14  24  14  25  14  26  14  27  14
M  END
>  <minimizedAffinity>  (1) 
-5.19752741

>  <minimizedRMSD>  (1) 
5.68994761

$$$$
