
     RDKit          3D

 30 33  0  0  0  0  0  0  0  0999 V2000
   47.2270   34.9160   41.9380 C   0  0  0  0  0  0  0  0  0  0  0  0
   48.4790   35.5190   41.8090 C   0  0  0  0  0  0  0  0  0  0  0  0
   48.9640   35.2900   40.5840 N   0  0  0  0  0  0  0  0  0  0  0  0
   48.0500   34.5490   39.9160 C   0  0  0  0  0  0  0  0  0  0  0  0
   48.0710   34.0530   38.6290 C   0  0  0  0  0  0  0  0  0  0  0  0
   46.9920   33.3220   38.2010 C   0  0  0  0  0  0  0  0  0  0  0  0
   45.8660   33.0330   38.9630 C   0  0  0  0  0  0  0  0  0  0  0  0
   45.9120   33.5610   40.2400 C   0  0  0  0  0  0  0  0  0  0  0  0
   46.9380   34.2920   40.7380 C   0  0  0  0  0  0  0  0  0  0  0  0
   44.5390   35.9010   44.3280 C   0  0  0  0  0  0  0  0  0  0  0  0
   45.3630   35.8830   43.1940 C   0  0  0  0  0  0  0  0  0  0  0  0
   46.3740   34.9330   43.1120 C   0  0  0  0  0  0  0  0  0  0  0  0
   46.5140   34.0610   44.1480 N   0  0  0  0  0  0  0  0  0  0  0  0
   45.7110   34.0940   45.2320 C   0  0  0  0  0  0  0  0  0  0  0  0
   44.7190   35.0190   45.3210 N   0  0  0  0  0  0  0  0  0  0  0  0
   45.8840   33.1580   46.3120 N   0  0  0  0  0  0  0  0  0  0  0  0
   46.7170   32.1290   46.5000 C   0  0  0  0  0  0  0  0  0  0  0  0
   46.4700   31.5660   47.6950 N   0  0  0  0  0  0  0  0  0  0  0  0
   45.4740   32.2380   48.2740 C   0  0  0  0  0  0  0  0  0  0  0  0
   45.1250   33.2090   47.4170 N   0  0  0  0  0  0  0  0  0  0  0  0
   48.9891   36.0949   42.5952 H   0  0  0  0  0  0  0  0  0  0  0  0
   49.8684   35.6179   40.2161 H   0  0  0  0  0  0  0  0  0  0  0  0
   48.9282   34.2383   37.9651 H   0  0  0  0  0  0  0  0  0  0  0  0
   47.0201   32.9334   37.1723 H   0  0  0  0  0  0  0  0  0  0  0  0
   45.0192   32.4408   38.5860 H   0  0  0  0  0  0  0  0  0  0  0  0
   45.0522   33.3737   40.9001 H   0  0  0  0  0  0  0  0  0  0  0  0
   43.7351   36.6480   44.4037 H   0  0  0  0  0  0  0  0  0  0  0  0
   45.2117   36.6094   42.3819 H   0  0  0  0  0  0  0  0  0  0  0  0
   47.4853   31.7951   45.7871 H   0  0  0  0  0  0  0  0  0  0  0  0
   45.0274   32.0360   49.2588 H   0  0  0  0  0  0  0  0  0  0  0  0
  1 12  1  0
  2  1  2  0
  3  2  1  0
  4  3  1  0
  4  9  2  0
  5  4  1  0
  6  5  2  0
  6  7  1  0
  7  8  2  0
  8  9  1  0
  9  1  1  0
 10 15  2  0
 11 10  1  0
 12 11  2  0
 12 13  1  0
 13 14  2  0
 14 15  1  0
 14 16  1  0
 16 17  1  0
 16 20  1  0
 17 18  2  0
 18 19  1  0
 20 19  2  0
  2 21  1  0
  3 22  1  0
  5 23  1  0
  6 24  1  0
  7 25  1  0
  8 26  1  0
 10 27  1  0
 11 28  1  0
 17 29  1  0
 19 30  1  0
M  END
>  <minimizedAffinity>  (1) 
-7.08540678

>  <minimizedRMSD>  (1) 
0.107618183

$$$$
