
     RDKit          3D

 44 48  0  0  0  0  0  0  0  0999 V2000
   46.4170   34.6400   42.1050 C   0  0  0  0  0  0  0  0  0  0  0  0
   47.7250   34.9910   41.9440 C   0  0  0  0  0  0  0  0  0  0  0  0
   48.4000   34.7980   40.7290 C   0  0  0  0  0  0  0  0  0  0  0  0
   47.7250   34.2290   39.6390 C   0  0  0  0  0  0  0  0  0  0  0  0
   46.4190   33.8850   39.8220 C   0  0  0  0  0  0  0  0  0  0  0  0
   45.7800   34.0870   41.0280 C   0  0  0  0  0  0  0  0  0  0  0  0
   44.4830   36.0920   44.9850 C   0  0  0  0  0  0  0  0  0  0  0  0
   45.0280   35.9870   43.7070 C   0  0  0  0  0  0  0  0  0  0  0  0
   45.7940   34.8740   43.3930 C   0  0  0  0  0  0  0  0  0  0  0  0
   45.9760   33.9420   44.3470 N   0  0  0  0  0  0  0  0  0  0  0  0
   45.4330   34.0690   45.5860 C   0  0  0  0  0  0  0  0  0  0  0  0
   44.6900   35.1440   45.8960 N   0  0  0  0  0  0  0  0  0  0  0  0
   45.6330   33.0760   46.5860 N   0  0  0  0  0  0  0  0  0  0  0  0
   44.9890   33.1160   47.7870 C   0  0  0  0  0  0  0  0  0  0  0  0
   45.3640   32.0620   48.5310 N   0  0  0  0  0  0  0  0  0  0  0  0
   46.2430   31.3280   47.8430 C   0  0  0  0  0  0  0  0  0  0  0  0
   46.9390   30.1630   48.1170 C   0  0  0  0  0  0  0  0  0  0  0  0
   47.7650   29.6920   47.1620 N   0  0  0  0  0  0  0  0  0  0  0  0
   47.9010   30.3400   45.9900 C   0  0  0  0  0  0  0  0  0  0  0  0
   47.2250   31.4890   45.7000 N   0  0  0  0  0  0  0  0  0  0  0  0
   46.3930   31.9810   46.6360 C   0  0  0  0  0  0  0  0  0  0  0  0
   44.4160   33.7090   41.1530 N   0  0  0  0  0  0  0  0  0  0  0  0
   43.5890   34.6760   40.6410 C   0  0  0  0  0  0  0  0  0  0  0  0
   42.2060   34.5170   40.6570 C   0  0  0  0  0  0  0  0  0  0  0  0
   41.7060   33.3480   41.2090 C   0  0  0  0  0  0  0  0  0  0  0  0
   40.4680   33.1370   41.2560 O   0  0  0  0  0  0  0  0  0  0  0  0
   42.5530   32.4270   41.6980 N   0  0  0  0  0  0  0  0  0  0  0  0
   43.8840   32.5950   41.6760 C   0  0  0  0  0  0  0  0  0  0  0  0
   44.7390   31.7940   42.1070 O   0  0  0  0  0  0  0  0  0  0  0  0
   41.2780   35.5440   40.1120 C   0  0  0  0  0  0  0  0  0  0  0  0
   48.2663   35.4382   42.7908 H   0  0  0  0  0  0  0  0  0  0  0  0
   49.4555   35.0921   40.6316 H   0  0  0  0  0  0  0  0  0  0  0  0
   48.2295   34.0669   38.6751 H   0  0  0  0  0  0  0  0  0  0  0  0
   45.8607   33.4353   38.9877 H   0  0  0  0  0  0  0  0  0  0  0  0
   43.8735   36.9701   45.2445 H   0  0  0  0  0  0  0  0  0  0  0  0
   44.8536   36.7743   42.9588 H   0  0  0  0  0  0  0  0  0  0  0  0
   44.2733   33.8911   48.0986 H   0  0  0  0  0  0  0  0  0  0  0  0
   46.8221   29.6413   49.0783 H   0  0  0  0  0  0  0  0  0  0  0  0
   48.5854   29.9260   45.2349 H   0  0  0  0  0  0  0  0  0  0  0  0
   44.0247   35.5902   40.2116 H   0  0  0  0  0  0  0  0  0  0  0  0
   42.1675   31.5623   42.1037 H   0  0  0  0  0  0  0  0  0  0  0  0
   40.7945   36.0790   40.9427 H   0  0  0  0  0  0  0  0  0  0  0  0
   41.8430   36.2583   39.4952 H   0  0  0  0  0  0  0  0  0  0  0  0
   40.5102   35.0540   39.4952 H   0  0  0  0  0  0  0  0  0  0  0  0
  1  9  1  0
  2  1  2  0
  3  2  1  0
  4  5  1  0
  4  3  2  0
  5  6  2  0
  6 22  1  0
  6  1  1  0
  7 12  2  0
  8  7  1  0
  9  8  2  0
  9 10  1  0
 10 11  2  0
 11 12  1  0
 11 13  1  0
 13 21  1  0
 13 14  1  0
 14 15  2  0
 16 17  2  0
 16 15  1  0
 18 17  1  0
 19 18  2  0
 20 19  1  0
 20 21  2  0
 21 16  1  0
 22 28  1  0
 23 24  2  0
 23 22  1  0
 24 25  1  0
 25 26  2  0
 25 27  1  0
 28 27  1  0
 28 29  2  0
 30 24  1  0
  2 31  1  0
  3 32  1  0
  4 33  1  0
  5 34  1  0
  7 35  1  0
  8 36  1  0
 14 37  1  0
 17 38  1  0
 19 39  1  0
 23 40  1  0
 27 41  1  0
 30 42  1  0
 30 43  1  0
 30 44  1  0
M  ISO  8  31  14  32  14  33  14  34  14  35  14  36  14  37  14  38  14
M  ISO  6  39  14  40  14  41   9  42   8  43   8  44   8
M  END
>  <minimizedAffinity>  (1) 
-8.2367382

>  <minimizedRMSD>  (1) 
0.110663161

$$$$
