
     RDKit          3D

 35 39  0  0  0  0  0  0  0  0999 V2000
   44.3830   35.8840   45.0610 C   0  0  0  0  0  0  0  0  0  0  0  0
   44.6540   35.5210   43.7200 C   0  0  0  0  0  0  0  0  0  0  0  0
   45.2390   34.2860   43.4860 C   0  0  0  0  0  0  0  0  0  0  0  0
   45.5320   33.4740   44.5550 N   0  0  0  0  0  0  0  0  0  0  0  0
   45.2530   33.8690   45.8100 C   0  0  0  0  0  0  0  0  0  0  0  0
   44.6910   35.0430   46.0840 N   0  0  0  0  0  0  0  0  0  0  0  0
   45.6390   32.8730   46.7610 N   0  0  0  0  0  0  0  0  0  0  0  0
   45.2340   32.7880   48.0610 C   0  0  0  0  0  0  0  0  0  0  0  0
   45.8070   31.7120   48.6550 N   0  0  0  0  0  0  0  0  0  0  0  0
   46.5860   31.0890   47.7540 C   0  0  0  0  0  0  0  0  0  0  0  0
   47.3690   29.9620   47.8640 C   0  0  0  0  0  0  0  0  0  0  0  0
   48.0540   29.5650   46.7670 N   0  0  0  0  0  0  0  0  0  0  0  0
   47.9360   30.2910   45.6200 C   0  0  0  0  0  0  0  0  0  0  0  0
   47.1600   31.4080   45.5110 N   0  0  0  0  0  0  0  0  0  0  0  0
   46.4690   31.8220   46.5880 C   0  0  0  0  0  0  0  0  0  0  0  0
   45.4990   33.9500   42.1360 N   0  0  0  0  0  0  0  0  0  0  0  0
   44.8600   33.2380   41.1880 C   0  0  0  0  0  0  0  0  0  0  0  0
   45.5740   33.2360   40.0410 N   0  0  0  0  0  0  0  0  0  0  0  0
   46.6980   33.9610   40.2510 C   0  0  0  0  0  0  0  0  0  0  0  0
   47.7660   34.2740   39.4120 C   0  0  0  0  0  0  0  0  0  0  0  0
   47.8070   33.8680   38.2300 O   0  0  0  0  0  0  0  0  0  0  0  0
   48.7840   35.0250   39.8650 N   0  0  0  0  0  0  0  0  0  0  0  0
   48.7090   35.4380   41.1270 C   0  0  0  0  0  0  0  0  0  0  0  0
   49.7210   36.2330   41.7240 N   0  0  0  0  0  0  0  0  0  0  0  0
   47.6930   35.1460   41.9430 N   0  0  0  0  0  0  0  0  0  0  0  0
   46.6350   34.3950   41.5530 C   0  0  0  0  0  0  0  0  0  0  0  0
   43.9182   36.8571   45.2779 H   0  0  0  0  0  0  0  0  0  0  0  0
   44.4079   36.1982   42.8888 H   0  0  0  0  0  0  0  0  0  0  0  0
   44.5445   33.4888   48.5545 H   0  0  0  0  0  0  0  0  0  0  0  0
   47.4353   29.4044   48.8099 H   0  0  0  0  0  0  0  0  0  0  0  0
   48.4967   29.9586   44.7339 H   0  0  0  0  0  0  0  0  0  0  0  0
   43.8942   32.7303   41.3277 H   0  0  0  0  0  0  0  0  0  0  0  0
   49.5839   35.2691   39.2638 H   0  0  0  0  0  0  0  0  0  0  0  0
   49.6280   36.5340   42.7046 H   0  0  0  0  0  0  0  0  0  0  0  0
   50.5488   36.5092   41.1768 H   0  0  0  0  0  0  0  0  0  0  0  0
  1  6  2  0
  2  1  1  0
  3  2  2  0
  3  4  1  0
  4  5  2  0
  5  6  1  0
  5  7  1  0
  7  8  1  0
  8  9  2  0
 10 11  2  0
 10  9  1  0
 12 11  1  0
 13 12  2  0
 14 13  1  0
 14 15  2  0
 15  7  1  0
 15 10  1  0
 16  3  1  0
 17 16  1  0
 18 19  1  0
 18 17  2  0
 19 26  2  0
 20 22  1  0
 20 19  1  0
 21 20  2  0
 22 23  1  0
 23 24  1  0
 23 25  2  0
 26 25  1  0
 26 16  1  0
  1 27  1  0
  2 28  1  0
  8 29  1  0
 11 30  1  0
 13 31  1  0
 17 32  1  0
 22 33  1  0
 24 34  1  0
 24 35  1  0
M  END
>  <minimizedAffinity>  (1) 
-7.26457977

>  <minimizedRMSD>  (1) 
0.144360572

$$$$
