
     RDKit          3D

 44 48  0  0  0  0  0  0  0  0999 V2000
   45.2570   33.8180   41.9770 C   0  0  0  0  0  0  0  0  0  0  0  0
   45.8390   34.3790   43.1050 C   0  0  0  0  0  0  0  0  0  0  0  0
   47.0530   34.8380   42.8160 N   0  0  0  0  0  0  0  0  0  0  0  0
   47.2730   34.5830   41.5100 C   0  0  0  0  0  0  0  0  0  0  0  0
   48.3740   34.8530   40.7120 C   0  0  0  0  0  0  0  0  0  0  0  0
   48.3410   34.4840   39.4010 C   0  0  0  0  0  0  0  0  0  0  0  0
   47.2690   33.8410   38.7780 C   0  0  0  0  0  0  0  0  0  0  0  0
   46.1990   33.5960   39.6170 C   0  0  0  0  0  0  0  0  0  0  0  0
   46.1630   33.9380   40.9390 C   0  0  0  0  0  0  0  0  0  0  0  0
   41.6220   33.3700   41.2420 C   0  0  0  0  0  0  0  0  0  0  0  0
   42.8920   33.9680   41.3420 C   0  0  0  0  0  0  0  0  0  0  0  0
   43.9380   33.2080   41.8690 C   0  0  0  0  0  0  0  0  0  0  0  0
   43.6900   31.9200   42.2670 N   0  0  0  0  0  0  0  0  0  0  0  0
   42.4380   31.3970   42.1450 C   0  0  0  0  0  0  0  0  0  0  0  0
   41.4010   32.1150   41.6350 N   0  0  0  0  0  0  0  0  0  0  0  0
   45.1610   34.4370   44.4310 C   0  0  0  0  0  0  0  0  0  0  0  0
   46.0120   33.8130   45.4980 C   0  0  0  0  0  0  0  0  0  0  0  0
   45.9390   32.3600   45.6060 C   0  0  0  0  0  0  0  0  0  0  0  0
   46.0610   31.4810   44.5800 N   0  0  0  0  0  0  0  0  0  0  0  0
   45.9960   30.1610   44.7460 C   0  0  0  0  0  0  0  0  0  0  0  0
   45.8070   29.5460   45.9230 N   0  0  0  0  0  0  0  0  0  0  0  0
   45.6740   30.3640   47.0100 C   0  0  0  0  0  0  0  0  0  0  0  0
   45.4680   29.8080   48.2560 C   0  0  0  0  0  0  0  0  0  0  0  0
   45.3190   30.5990   49.3820 C   0  0  0  0  0  0  0  0  0  0  0  0
   45.3790   31.9840   49.2510 C   0  0  0  0  0  0  0  0  0  0  0  0
   45.5890   32.4970   47.9760 C   0  0  0  0  0  0  0  0  0  0  0  0
   45.7420   31.7430   46.8320 C   0  0  0  0  0  0  0  0  0  0  0  0
   47.7031   35.3011   43.4670 H   0  0  0  0  0  0  0  0  0  0  0  0
   49.2584   35.3562   41.1299 H   0  0  0  0  0  0  0  0  0  0  0  0
   49.2253   34.7095   38.7868 H   0  0  0  0  0  0  0  0  0  0  0  0
   47.2760   33.5555   37.7157 H   0  0  0  0  0  0  0  0  0  0  0  0
   45.3180   33.0923   39.1924 H   0  0  0  0  0  0  0  0  0  0  0  0
   40.7875   33.9547   40.8277 H   0  0  0  0  0  0  0  0  0  0  0  0
   43.0560   35.0051   41.0142 H   0  0  0  0  0  0  0  0  0  0  0  0
   42.2598   30.3611   42.4692 H   0  0  0  0  0  0  0  0  0  0  0  0
   44.9705   35.4885   44.6919 H   0  0  0  0  0  0  0  0  0  0  0  0
   44.2154   33.8787   44.3658 H   0  0  0  0  0  0  0  0  0  0  0  0
   47.0587   34.0832   45.2945 H   0  0  0  0  0  0  0  0  0  0  0  0
   45.6241   34.2011   46.4514 H   0  0  0  0  0  0  0  0  0  0  0  0
   46.1053   29.5289   43.8524 H   0  0  0  0  0  0  0  0  0  0  0  0
   45.4212   28.7136   48.3565 H   0  0  0  0  0  0  0  0  0  0  0  0
   45.1553   30.1394   50.3679 H   0  0  0  0  0  0  0  0  0  0  0  0
   45.2647   32.6461   50.1220 H   0  0  0  0  0  0  0  0  0  0  0  0
   45.6369   33.5910   47.8718 H   0  0  0  0  0  0  0  0  0  0  0  0
  1  2  2  0
  2 16  1  0
  3  2  1  0
  4  3  1  0
  5  4  2  0
  6  5  1  0
  7  6  2  0
  7  8  1  0
  8  9  2  0
  9  4  1  0
  9  1  1  0
 10 11  2  0
 10 15  1  0
 11 12  1  0
 12  1  1  0
 12 13  2  0
 14 13  1  0
 15 14  2  0
 16 17  1  0
 17 18  1  0
 18 27  2  0
 19 20  2  0
 19 18  1  0
 20 21  1  0
 21 22  2  0
 22 23  1  0
 23 24  2  0
 25 24  1  0
 26 25  2  0
 27 22  1  0
 27 26  1  0
  3 28  1  0
  5 29  1  0
  6 30  1  0
  7 31  1  0
  8 32  1  0
 10 33  1  0
 11 34  1  0
 14 35  1  0
 16 36  1  0
 16 37  1  0
 17 38  1  0
 17 39  1  0
 20 40  1  0
 23 41  1  0
 24 42  1  0
 25 43  1  0
 26 44  1  0
M  ISO  8  28   9  29  14  30  14  31  14  32  14  33  14  34  14  35  14
M  ISO  8  36   8  37   8  38   8  39   8  40  14  41  14  42  14  43  14
M  ISO  1  44  14
M  END
>  <minimizedAffinity>  (1) 
-6.43479729

>  <minimizedRMSD>  (1) 
5.9855032

$$$$
