
     RDKit          3D

 36 40  0  0  0  0  0  0  0  0999 V2000
   46.1610   30.3390   49.0490 N   0  0  0  0  0  0  0  0  0  0  0  0
   45.3050   31.3370   49.3960 C   0  0  0  0  0  0  0  0  0  0  0  0
   45.2280   32.2060   48.3560 N   0  0  0  0  0  0  0  0  0  0  0  0
   46.0350   31.7230   47.3980 C   0  0  0  0  0  0  0  0  0  0  0  0
   46.2780   32.2660   46.1640 C   0  0  0  0  0  0  0  0  0  0  0  0
   47.1350   31.6080   45.3480 N   0  0  0  0  0  0  0  0  0  0  0  0
   47.7370   30.4610   45.7160 C   0  0  0  0  0  0  0  0  0  0  0  0
   47.4760   29.9590   46.9290 N   0  0  0  0  0  0  0  0  0  0  0  0
   46.6510   30.5410   47.7850 C   0  0  0  0  0  0  0  0  0  0  0  0
   48.6330   29.7990   44.8270 N   0  0  0  0  0  0  0  0  0  0  0  0
   49.1840   28.5910   45.0400 C   0  0  0  0  0  0  0  0  0  0  0  0
   49.9750   28.2720   44.0020 N   0  0  0  0  0  0  0  0  0  0  0  0
   49.9310   29.2840   43.1140 C   0  0  0  0  0  0  0  0  0  0  0  0
   50.5910   29.3980   41.8890 C   0  0  0  0  0  0  0  0  0  0  0  0
   50.3200   30.5650   41.2390 N   0  0  0  0  0  0  0  0  0  0  0  0
   49.5000   31.4850   41.7530 C   0  0  0  0  0  0  0  0  0  0  0  0
   48.8670   31.3770   42.9290 N   0  0  0  0  0  0  0  0  0  0  0  0
   49.0750   30.2460   43.6520 C   0  0  0  0  0  0  0  0  0  0  0  0
   45.5940   33.7600   45.4850 S   0  0  0  0  0  0  0  0  0  0  0  0
   47.6720   34.7920   42.3410 C   0  0  0  0  0  0  0  0  0  0  0  0
   46.8840   34.5150   41.2350 C   0  0  0  0  0  0  0  0  0  0  0  0
   45.6340   33.9780   41.4720 C   0  0  0  0  0  0  0  0  0  0  0  0
   45.2510   33.7520   42.7630 N   0  0  0  0  0  0  0  0  0  0  0  0
   46.0670   34.0420   43.8070 C   0  0  0  0  0  0  0  0  0  0  0  0
   47.2670   34.5580   43.5930 N   0  0  0  0  0  0  0  0  0  0  0  0
   49.0190   35.3700   42.1090 C   0  0  0  0  0  0  0  0  0  0  0  0
   49.2080   36.0840   41.0970 O   0  0  0  0  0  0  0  0  0  0  0  0
   50.0300   35.1150   43.0010 O   0  0  0  0  0  0  0  0  0  0  0  0
   46.4071   29.5415   49.6526 H   0  0  0  0  0  0  0  0  0  0  0  0
   44.7687   31.4248   50.3524 H   0  0  0  0  0  0  0  0  0  0  0  0
   49.0136   27.9620   45.9262 H   0  0  0  0  0  0  0  0  0  0  0  0
   51.2622   28.6239   41.4887 H   0  0  0  0  0  0  0  0  0  0  0  0
   49.3315   32.4005   41.1669 H   0  0  0  0  0  0  0  0  0  0  0  0
   47.2388   34.7142   40.2130 H   0  0  0  0  0  0  0  0  0  0  0  0
   44.9599   33.7370   40.6369 H   0  0  0  0  0  0  0  0  0  0  0  0
   50.9306   35.4980   42.8512 H   0  0  0  0  0  0  0  0  0  0  0  0
  1  2  1  0
  3  2  2  0
  4  9  2  0
  4  3  1  0
  5  4  1  0
  6  7  1  0
  6  5  2  0
  7  8  2  0
  8  9  1  0
  9  1  1  0
 10 11  1  0
 10  7  1  0
 12 11  2  0
 13 18  2  0
 13 12  1  0
 14 13  1  0
 15 16  1  0
 15 14  2  0
 16 17  2  0
 17 18  1  0
 18 10  1  0
 19  5  1  0
 20 25  2  0
 21 22  2  0
 21 20  1  0
 22 23  1  0
 23 24  2  0
 24 19  1  0
 25 24  1  0
 26 20  1  0
 26 28  1  0
 27 26  2  0
  1 29  1  0
  2 30  1  0
 11 31  1  0
 14 32  1  0
 16 33  1  0
 21 34  1  0
 22 35  1  0
 28 36  1  0
M  ISO  8  29   9  30  14  31  14  32  14  33  14  34  14  35  14  36   3
M  END
>  <minimizedAffinity>  (1) 
-6.37290382

>  <minimizedRMSD>  (1) 
0.237475052

$$$$
