
     RDKit          3D

 28 31  0  0  0  0  0  0  0  0999 V2000
   46.1210   32.9620   45.7200 C   0  0  0  0  0  0  0  0  0  0  0  0
   45.8770   32.7310   47.0600 C   0  0  0  0  0  0  0  0  0  0  0  0
   46.3390   31.5880   47.6370 C   0  0  0  0  0  0  0  0  0  0  0  0
   47.0450   30.7090   46.8010 C   0  0  0  0  0  0  0  0  0  0  0  0
   47.0360   31.5280   45.2190 S   0  0  0  0  0  0  0  0  0  0  0  0
   47.6300   29.4720   47.1090 N   0  0  0  0  0  0  0  0  0  0  0  0
   48.9580   29.2550   47.1670 C   0  0  0  0  0  0  0  0  0  0  0  0
   49.1510   27.9530   47.4890 N   0  0  0  0  0  0  0  0  0  0  0  0
   47.9380   27.3940   47.6240 C   0  0  0  0  0  0  0  0  0  0  0  0
   47.4390   26.1260   47.9360 C   0  0  0  0  0  0  0  0  0  0  0  0
   46.1210   25.8610   47.9980 N   0  0  0  0  0  0  0  0  0  0  0  0
   45.2110   26.8200   47.7570 C   0  0  0  0  0  0  0  0  0  0  0  0
   45.6450   28.0630   47.4520 N   0  0  0  0  0  0  0  0  0  0  0  0
   46.9750   28.3310   47.3890 C   0  0  0  0  0  0  0  0  0  0  0  0
   44.4910   36.0160   44.5350 C   0  0  0  0  0  0  0  0  0  0  0  0
   45.0870   36.1670   43.2520 C   0  0  0  0  0  0  0  0  0  0  0  0
   46.0400   35.2060   42.8290 C   0  0  0  0  0  0  0  0  0  0  0  0
   46.3350   34.1780   43.6850 N   0  0  0  0  0  0  0  0  0  0  0  0
   45.7430   34.0770   44.8930 C   0  0  0  0  0  0  0  0  0  0  0  0
   44.8340   34.9800   45.3150 N   0  0  0  0  0  0  0  0  0  0  0  0
   45.3141   33.4646   47.6557 H   0  0  0  0  0  0  0  0  0  0  0  0
   46.1683   31.3653   48.7006 H   0  0  0  0  0  0  0  0  0  0  0  0
   49.7453   30.0014   46.9854 H   0  0  0  0  0  0  0  0  0  0  0  0
   48.1516   25.3129   48.1388 H   0  0  0  0  0  0  0  0  0  0  0  0
   44.1348   26.5978   47.8070 H   0  0  0  0  0  0  0  0  0  0  0  0
   43.7495   36.7483   44.8871 H   0  0  0  0  0  0  0  0  0  0  0  0
   44.8143   37.0114   42.6019 H   0  0  0  0  0  0  0  0  0  0  0  0
   46.5266   35.2835   41.8455 H   0  0  0  0  0  0  0  0  0  0  0  0
  1  2  2  0
  2  3  1  0
  4  6  1  0
  4  3  2  0
  5  1  1  0
  5  4  1  0
  6  7  1  0
  6 14  1  0
  7  8  2  0
  8  9  1  0
  9 10  2  0
 10 11  1  0
 12 11  2  0
 13 12  1  0
 14 13  2  0
 14  9  1  0
 15 20  2  0
 16 15  1  0
 17 16  2  0
 17 18  1  0
 18 19  2  0
 19 20  1  0
 19  1  1  0
  2 21  1  0
  3 22  1  0
  7 23  1  0
 10 24  1  0
 12 25  1  0
 15 26  1  0
 16 27  1  0
 17 28  1  0
M  ISO  8  21  14  22  14  23  14  24  14  25  14  26  14  27  14  28  14
M  END
>  <minimizedAffinity>  (1) 
-4.87747431

>  <minimizedRMSD>  (1) 
2.00183463

$$$$
