
     RDKit          3D

 41 45  0  0  0  0  0  0  0  0999 V2000
   46.5640   32.8790   38.8050 C   0  0  0  0  0  0  0  0  0  0  0  0
   45.4950   33.1630   37.9710 C   0  0  0  0  0  0  0  0  0  0  0  0
   45.1450   32.2740   36.9770 C   0  0  0  0  0  0  0  0  0  0  0  0
   45.8570   31.0790   36.7930 C   0  0  0  0  0  0  0  0  0  0  0  0
   46.9120   30.8290   37.6380 C   0  0  0  0  0  0  0  0  0  0  0  0
   47.3110   31.6950   38.6650 C   0  0  0  0  0  0  0  0  0  0  0  0
   46.6420   34.4280   42.0150 N   0  0  0  0  0  0  0  0  0  0  0  0
   47.7080   35.2870   41.9010 C   0  0  0  0  0  0  0  0  0  0  0  0
   48.4340   35.3740   40.7460 C   0  0  0  0  0  0  0  0  0  0  0  0
   48.0500   34.5500   39.6720 C   0  0  0  0  0  0  0  0  0  0  0  0
   48.6920   34.6020   38.5980 O   0  0  0  0  0  0  0  0  0  0  0  0
   46.9980   33.7360   39.8570 N   0  0  0  0  0  0  0  0  0  0  0  0
   46.3080   33.6710   40.9960 C   0  0  0  0  0  0  0  0  0  0  0  0
   45.3430   32.9480   41.2160 O   0  0  0  0  0  0  0  0  0  0  0  0
   44.5830   35.6640   44.8340 C   0  0  0  0  0  0  0  0  0  0  0  0
   45.1590   35.5790   43.5350 C   0  0  0  0  0  0  0  0  0  0  0  0
   46.0500   34.5270   43.3260 C   0  0  0  0  0  0  0  0  0  0  0  0
   46.3340   33.6460   44.3240 N   0  0  0  0  0  0  0  0  0  0  0  0
   45.7540   33.7780   45.5460 C   0  0  0  0  0  0  0  0  0  0  0  0
   44.8870   34.7740   45.8020 N   0  0  0  0  0  0  0  0  0  0  0  0
   48.4130   31.3800   39.5080 N   0  0  0  0  0  0  0  0  0  0  0  0
   48.2350   30.9580   40.7890 C   0  0  0  0  0  0  0  0  0  0  0  0
   49.3930   30.7220   41.3910 N   0  0  0  0  0  0  0  0  0  0  0  0
   50.3630   30.9820   40.5270 C   0  0  0  0  0  0  0  0  0  0  0  0
   51.7540   30.9560   40.4830 C   0  0  0  0  0  0  0  0  0  0  0  0
   52.4550   31.3080   39.3660 N   0  0  0  0  0  0  0  0  0  0  0  0
   51.7910   31.7000   38.2540 C   0  0  0  0  0  0  0  0  0  0  0  0
   50.4260   31.7430   38.2450 N   0  0  0  0  0  0  0  0  0  0  0  0
   49.7510   31.3900   39.3620 C   0  0  0  0  0  0  0  0  0  0  0  0
   44.9267   34.0957   38.1015 H   0  0  0  0  0  0  0  0  0  0  0  0
   44.2948   32.5050   36.3183 H   0  0  0  0  0  0  0  0  0  0  0  0
   45.5808   30.3676   36.0008 H   0  0  0  0  0  0  0  0  0  0  0  0
   47.4759   29.8947   37.5000 H   0  0  0  0  0  0  0  0  0  0  0  0
   47.9835   35.9189   42.7582 H   0  0  0  0  0  0  0  0  0  0  0  0
   49.2871   36.0629   40.6594 H   0  0  0  0  0  0  0  0  0  0  0  0
   43.8729   36.4747   45.0542 H   0  0  0  0  0  0  0  0  0  0  0  0
   44.9153   36.3014   42.7420 H   0  0  0  0  0  0  0  0  0  0  0  0
   45.9981   33.0571   46.3402 H   0  0  0  0  0  0  0  0  0  0  0  0
   47.2525   30.8286   41.2663 H   0  0  0  0  0  0  0  0  0  0  0  0
   52.3076   30.6408   41.3797 H   0  0  0  0  0  0  0  0  0  0  0  0
   52.3535   31.9854   37.3528 H   0  0  0  0  0  0  0  0  0  0  0  0
  1 12  1  0
  2  1  2  0
  3  2  1  0
  4  3  2  0
  4  5  1  0
  5  6  2  0
  6  1  1  0
  6 21  1  0
  7 17  1  0
  8  7  1  0
  9  8  2  0
 10 12  1  0
 10  9  1  0
 11 10  2  0
 12 13  1  0
 13 14  2  0
 13  7  1  0
 15 20  2  0
 16 15  1  0
 17 16  2  0
 17 18  1  0
 18 19  2  0
 19 20  1  0
 21 22  1  0
 22 23  2  0
 24 23  1  0
 25 24  2  0
 26 25  1  0
 27 26  2  0
 28 27  1  0
 28 29  2  0
 29 21  1  0
 29 24  1  0
  2 30  1  0
  3 31  1  0
  4 32  1  0
  5 33  1  0
  8 34  1  0
  9 35  1  0
 15 36  1  0
 16 37  1  0
 19 38  1  0
 22 39  1  0
 25 40  1  0
 27 41  1  0
M  ISO  8  30  14  31  14  32  14  33  14  34  14  35  14  36  14  37  14
M  ISO  4  38  14  39  14  40  14  41  14
M  END
>  <minimizedAffinity>  (1) 
-5.95511436

>  <minimizedRMSD>  (1) 
1.77410507

$$$$
