
     RDKit          3D

 24 25  0  0  0  0  0  0  0  0999 V2000
   45.9390   32.1890   44.7150 S   0  0  0  0  0  0  0  0  0  0  0  0
   46.7540   35.2030   42.2690 C   0  0  0  0  0  0  0  0  0  0  0  0
   48.1240   35.1020   42.0310 C   0  0  0  0  0  0  0  0  0  0  0  0
   48.8330   34.0600   42.6500 C   0  0  0  0  0  0  0  0  0  0  0  0
   48.1280   33.1980   43.4570 N   0  0  0  0  0  0  0  0  0  0  0  0
   46.8060   33.3400   43.6540 C   0  0  0  0  0  0  0  0  0  0  0  0
   46.1020   34.3310   43.0720 N   0  0  0  0  0  0  0  0  0  0  0  0
   48.3160   30.9520   48.3970 C   0  0  0  0  0  0  0  0  0  0  0  0
   48.1560   30.1360   47.2980 C   0  0  0  0  0  0  0  0  0  0  0  0
   47.4140   30.5770   46.2000 C   0  0  0  0  0  0  0  0  0  0  0  0
   46.8360   31.8460   46.2220 C   0  0  0  0  0  0  0  0  0  0  0  0
   47.0000   32.6580   47.3250 C   0  0  0  0  0  0  0  0  0  0  0  0
   47.7380   32.1970   48.3950 C   0  0  0  0  0  0  0  0  0  0  0  0
   49.2460   30.4150   49.7870 S   0  0  0  0  0  0  0  0  0  0  0  0
   50.2860   29.4630   49.2670 O   0  0  0  0  0  0  0  0  0  0  0  0
   49.9990   31.6030   50.3110 O   0  0  0  0  0  0  0  0  0  0  0  0
   46.1870   36.0149   41.7902 H   0  0  0  0  0  0  0  0  0  0  0  0
   48.6367   35.8206   41.3747 H   0  0  0  0  0  0  0  0  0  0  0  0
   49.9151   33.9374   42.4948 H   0  0  0  0  0  0  0  0  0  0  0  0
   48.6134   29.1357   47.2856 H   0  0  0  0  0  0  0  0  0  0  0  0
   47.2861   29.9266   45.3222 H   0  0  0  0  0  0  0  0  0  0  0  0
   46.5479   33.6605   47.3508 H   0  0  0  0  0  0  0  0  0  0  0  0
   47.8673   32.8466   49.2733 H   0  0  0  0  0  0  0  0  0  0  0  0
   48.4409   29.8530   50.7424 H   0  0  0  0  0  0  0  0  0  0  0  0
  1 11  1  0
  2  7  2  0
  3  2  1  0
  3  4  2  0
  4  5  1  0
  5  6  2  0
  6  1  1  0
  7  6  1  0
  8 14  1  0
  9  8  2  0
 10 11  2  0
 10  9  1  0
 11 12  1  0
 12 13  2  0
 13  8  1  0
 14 16  2  0
 15 14  2  0
  2 17  1  0
  3 18  1  0
  4 19  1  0
  9 20  1  0
 10 21  1  0
 12 22  1  0
 13 23  1  0
 14 24  1  0
M  ISO  8  17  14  18  14  19  14  20  14  21  14  22  14  23  14  24  11
M  END
>  <minimizedAffinity>  (1) 
-4.06180477

>  <minimizedRMSD>  (1) 
3.07298517

$$$$
