
     RDKit          3D

 46 49  0  0  1  0  0  0  0  0999 V2000
   46.9440   30.6270   47.8090 N   0  0  0  0  0  0  0  0  0  0  0  0
   46.8960   30.9940   49.2300 C   0  0  0  0  0  0  0  0  0  0  0  0
   45.7350   31.9270   49.2560 C   0  0  0  0  0  0  0  0  0  0  0  0
   44.7160   31.2500   48.3870 C   0  0  0  0  0  0  0  0  0  0  0  0
   45.6310   30.5230   47.3610 C   0  0  2  0  0  0  0  0  0  0  0  0
   45.0900   29.1380   47.3360 C   0  0  0  0  0  0  0  0  0  0  0  0
   45.1420   27.9810   48.0860 C   0  0  0  0  0  0  0  0  0  0  0  0
   44.3840   27.0320   47.4870 C   0  0  0  0  0  0  0  0  0  0  0  0
   43.8590   27.5940   46.3590 N   0  0  0  0  0  0  0  0  0  0  0  0
   44.2870   28.8570   46.2760 N   0  0  0  0  0  0  0  0  0  0  0  0
   45.4940   30.9650   46.0830 O   0  0  0  0  0  0  0  0  0  0  0  0
   46.5100   31.6110   45.3000 C   0  0  0  0  0  0  0  0  0  0  0  0
   47.5940   31.0560   45.1470 O   0  0  0  0  0  0  0  0  0  0  0  0
   45.0270   34.9340   44.9070 C   0  0  0  0  0  0  0  0  0  0  0  0
   45.4370   35.3270   43.6290 C   0  0  0  0  0  0  0  0  0  0  0  0
   46.2240   34.4370   42.9160 C   0  0  0  0  0  0  0  0  0  0  0  0
   46.5540   33.2390   43.4880 N   0  0  0  0  0  0  0  0  0  0  0  0
   46.1100   32.9290   44.7490 C   0  0  0  0  0  0  0  0  0  0  0  0
   45.3660   33.7590   45.4350 N   0  0  0  0  0  0  0  0  0  0  0  0
   46.6870   34.7260   41.6390 O   0  0  0  0  0  0  0  0  0  0  0  0
   47.9470   34.2890   41.1760 C   0  0  0  0  0  0  0  0  0  0  0  0
   48.6030   35.5000   40.5270 C   0  0  0  0  0  0  0  0  0  0  0  0
   49.3400   36.1780   41.6730 C   0  0  0  0  0  0  0  0  0  0  0  0
   49.8980   35.0030   42.4480 C   0  0  0  0  0  0  0  0  0  0  0  0
   48.8740   33.9220   42.3130 C   0  0  0  0  0  0  0  0  0  0  0  0
   47.4417   31.3533   47.2745 H   0  0  0  0  0  0  0  0  0  0  0  0
   46.7192   30.1145   49.8665 H   0  0  0  0  0  0  0  0  0  0  0  0
   47.8306   31.4299   49.6127 H   0  0  0  0  0  0  0  0  0  0  0  0
   45.3554   32.0526   50.2808 H   0  0  0  0  0  0  0  0  0  0  0  0
   45.9917   32.9373   48.9046 H   0  0  0  0  0  0  0  0  0  0  0  0
   44.1069   30.5361   48.9609 H   0  0  0  0  0  0  0  0  0  0  0  0
   43.9828   31.9335   47.9339 H   0  0  0  0  0  0  0  0  0  0  0  0
   45.7080   27.8505   49.0201 H   0  0  0  0  0  0  0  0  0  0  0  0
   44.2220   26.0035   47.8420 H   0  0  0  0  0  0  0  0  0  0  0  0
   43.2377   27.1236   45.6855 H   0  0  0  0  0  0  0  0  0  0  0  0
   44.4020   35.6200   45.4975 H   0  0  0  0  0  0  0  0  0  0  0  0
   45.1471   36.3010   43.2079 H   0  0  0  0  0  0  0  0  0  0  0  0
   47.7946   33.4208   40.5179 H   0  0  0  0  0  0  0  0  0  0  0  0
   49.3057   35.1891   39.7399 H   0  0  0  0  0  0  0  0  0  0  0  0
   47.8751   36.1652   40.0394 H   0  0  0  0  0  0  0  0  0  0  0  0
   50.1464   36.8257   41.2985 H   0  0  0  0  0  0  0  0  0  0  0  0
   48.6982   36.8357   42.2776 H   0  0  0  0  0  0  0  0  0  0  0  0
   50.8585   34.6800   42.0202 H   0  0  0  0  0  0  0  0  0  0  0  0
   50.0894   35.2586   43.5006 H   0  0  0  0  0  0  0  0  0  0  0  0
   48.3004   33.8336   43.2474 H   0  0  0  0  0  0  0  0  0  0  0  0
   49.3634   32.9583   42.1085 H   0  0  0  0  0  0  0  0  0  0  0  0
  1  2  1  0
  2  3  1  0
  4  3  1  0
  5 11  1  6
  5  1  1  0
  5  4  1  0
  6  5  1  0
  6  7  1  0
  8  7  2  0
  9  8  1  0
 10  9  1  0
 10  6  2  0
 12 11  1  0
 13 12  2  0
 14 19  2  0
 15 14  1  0
 16 17  1  0
 16 15  2  0
 17 18  2  0
 18 12  1  0
 18 19  1  0
 20 16  1  0
 21 20  1  0
 21 25  1  0
 22 21  1  0
 22 23  1  0
 23 24  1  0
 25 24  1  0
  1 26  1  0
  2 27  1  0
  2 28  1  0
  3 29  1  0
  3 30  1  0
  4 31  1  0
  4 32  1  0
  7 33  1  0
  8 34  1  0
  9 35  1  0
 14 36  1  0
 15 37  1  0
 21 38  1  0
 22 39  1  0
 22 40  1  0
 23 41  1  0
 23 42  1  0
 24 43  1  0
 24 44  1  0
 25 45  1  0
 25 46  1  0
M  ISO  8  26   5  27  13  28  13  29  13  30  13  31  13  32  13  33  14
M  ISO  8  34  14  35   9  36  14  37  14  38  13  39  13  40  13  41  13
M  ISO  5  42  13  43  13  44  13  45  13  46  13
M  END
>  <minimizedAffinity>  (1) 
-5.95504379

>  <minimizedRMSD>  (1) 
1.38919079

$$$$
