
     RDKit          3D

 47 51  0  0  0  0  0  0  0  0999 V2000
   48.2620   32.3820   41.5140 C   0  0  0  0  0  0  0  0  0  0  0  0
   47.2790   31.3430   41.1510 C   0  0  0  0  0  0  0  0  0  0  0  0
   48.1060   30.4890   39.7950 S   0  0  0  0  0  0  0  0  0  0  0  0
   49.6180   31.6180   39.9010 C   0  0  0  0  0  0  0  0  0  0  0  0
   49.3380   32.3500   40.7860 N   0  0  0  0  0  0  0  0  0  0  0  0
   50.7690   31.3930   38.9460 C   0  0  0  0  0  0  0  0  0  0  0  0
   51.9990   30.9520   39.2470 C   0  0  0  0  0  0  0  0  0  0  0  0
   52.5730   30.9470   38.0230 N   0  0  0  0  0  0  0  0  0  0  0  0
   51.7040   31.3670   37.0840 C   0  0  0  0  0  0  0  0  0  0  0  0
   50.5250   31.6570   37.6900 N   0  0  0  0  0  0  0  0  0  0  0  0
   49.3860   32.1290   36.9780 C   0  0  0  0  0  0  0  0  0  0  0  0
   49.0870   33.4910   37.0680 C   0  0  0  0  0  0  0  0  0  0  0  0
   47.9700   33.6860   36.3110 N   0  0  0  0  0  0  0  0  0  0  0  0
   47.5870   32.5170   35.7750 C   0  0  0  0  0  0  0  0  0  0  0  0
   46.5610   32.1090   34.9490 C   0  0  0  0  0  0  0  0  0  0  0  0
   46.4050   30.7890   34.5420 C   0  0  0  0  0  0  0  0  0  0  0  0
   47.3240   29.8410   34.9880 C   0  0  0  0  0  0  0  0  0  0  0  0
   48.3840   30.1880   35.8250 C   0  0  0  0  0  0  0  0  0  0  0  0
   48.4500   31.5150   36.1700 C   0  0  0  0  0  0  0  0  0  0  0  0
   48.0870   33.2810   42.4910 O   0  0  0  0  0  0  0  0  0  0  0  0
   47.3960   33.1450   43.6700 C   0  0  0  0  0  0  0  0  0  0  0  0
   48.0120   32.0930   43.9480 O   0  0  0  0  0  0  0  0  0  0  0  0
   44.6850   35.3300   44.9490 C   0  0  0  0  0  0  0  0  0  0  0  0
   45.6170   34.8570   44.0350 C   0  0  0  0  0  0  0  0  0  0  0  0
   46.3940   33.7790   44.4430 C   0  0  0  0  0  0  0  0  0  0  0  0
   46.2160   33.2470   45.6800 N   0  0  0  0  0  0  0  0  0  0  0  0
   45.3250   33.7090   46.5390 C   0  0  0  0  0  0  0  0  0  0  0  0
   44.5780   34.7370   46.1620 N   0  0  0  0  0  0  0  0  0  0  0  0
   45.7830   35.4550   42.7060 C   0  0  0  0  0  0  0  0  0  0  0  0
   44.8340   36.4770   42.5950 F   0  0  0  0  0  0  0  0  0  0  0  0
   45.4120   34.5790   41.7150 F   0  0  0  0  0  0  0  0  0  0  0  0
   47.0300   35.9350   42.4850 F   0  0  0  0  0  0  0  0  0  0  0  0
   45.0980   33.2180   47.7990 O   0  0  0  0  0  0  0  0  0  0  0  0
   45.8440   32.1600   48.3540 C   0  0  0  0  0  0  0  0  0  0  0  0
   47.1920   32.4790   48.4560 F   0  0  0  0  0  0  0  0  0  0  0  0
   45.6220   30.9680   47.6970 F   0  0  0  0  0  0  0  0  0  0  0  0
   45.4280   32.0440   49.6930 F   0  0  0  0  0  0  0  0  0  0  0  0
   46.2929   31.1409   41.5946 H   0  0  0  0  0  0  0  0  0  0  0  0
   52.4242   30.6714   40.2219 H   0  0  0  0  0  0  0  0  0  0  0  0
   51.9142   31.4593   36.0082 H   0  0  0  0  0  0  0  0  0  0  0  0
   49.6415   34.2528   37.6356 H   0  0  0  0  0  0  0  0  0  0  0  0
   47.4946   34.5891   36.1723 H   0  0  0  0  0  0  0  0  0  0  0  0
   45.8365   32.8585   34.5979 H   0  0  0  0  0  0  0  0  0  0  0  0
   45.5741   30.4990   33.8821 H   0  0  0  0  0  0  0  0  0  0  0  0
   47.2105   28.7935   34.6721 H   0  0  0  0  0  0  0  0  0  0  0  0
   49.1163   29.4497   36.1838 H   0  0  0  0  0  0  0  0  0  0  0  0
   44.0378   36.1808   44.6897 H   0  0  0  0  0  0  0  0  0  0  0  0
  1 20  1  0
  2  1  2  0
  3  4  1  0
  3  2  1  0
  4  5  2  0
  5  1  1  0
  6  7  2  0
  6  4  1  0
  8  7  1  0
  9 10  1  0
  9  8  2  0
 10  6  1  0
 11 12  2  0
 11 10  1  0
 13 12  1  0
 14 19  2  0
 14 13  1  0
 15 14  1  0
 16 15  2  0
 16 17  1  0
 17 18  2  0
 18 19  1  0
 19 11  1  0
 20 21  1  0
 21 22  2  0
 21 25  1  0
 23 28  2  0
 24 25  2  0
 24 23  1  0
 25 26  1  0
 26 27  2  0
 27 33  1  0
 28 27  1  0
 29 24  1  0
 30 29  1  0
 31 29  1  0
 32 29  1  0
 33 34  1  0
 34 35  1  0
 34 37  1  0
 36 34  1  0
  2 38  1  0
  7 39  1  0
  9 40  1  0
 12 41  1  0
 13 42  1  0
 15 43  1  0
 16 44  1  0
 17 45  1  0
 18 46  1  0
 23 47  1  0
M  ISO  8  38  14  39  14  40  14  41  14  42   9  43  14  44  14  45  14
M  ISO  2  46  14  47  14
M  END
>  <minimizedAffinity>  (1) 
-6.53483868

>  <minimizedRMSD>  (1) 
1.7761755

$$$$
