
     RDKit          3D

 40 43  0  0  0  0  0  0  0  0999 V2000
   46.4390   34.6560   42.1910 C   0  0  0  0  0  0  0  0  0  0  0  0
   47.7450   35.0230   42.0580 C   0  0  0  0  0  0  0  0  0  0  0  0
   48.4440   34.8490   40.8630 C   0  0  0  0  0  0  0  0  0  0  0  0
   47.7960   34.2830   39.7640 C   0  0  0  0  0  0  0  0  0  0  0  0
   46.4760   33.9100   39.8980 C   0  0  0  0  0  0  0  0  0  0  0  0
   45.8210   34.1030   41.1070 C   0  0  0  0  0  0  0  0  0  0  0  0
   44.4610   33.7090   41.2090 N   0  0  0  0  0  0  0  0  0  0  0  0
   43.6290   34.6640   40.6810 C   0  0  0  0  0  0  0  0  0  0  0  0
   42.2500   34.4870   40.6740 C   0  0  0  0  0  0  0  0  0  0  0  0
   41.7560   33.3100   41.2210 C   0  0  0  0  0  0  0  0  0  0  0  0
   40.5190   33.0860   41.2470 O   0  0  0  0  0  0  0  0  0  0  0  0
   42.6060   32.3950   41.7300 N   0  0  0  0  0  0  0  0  0  0  0  0
   43.9290   32.5880   41.7250 C   0  0  0  0  0  0  0  0  0  0  0  0
   44.7920   31.8000   42.1720 O   0  0  0  0  0  0  0  0  0  0  0  0
   41.3230   35.5000   40.1120 C   0  0  0  0  0  0  0  0  0  0  0  0
   44.4220   36.0530   45.0460 C   0  0  0  0  0  0  0  0  0  0  0  0
   44.9800   35.9560   43.7780 C   0  0  0  0  0  0  0  0  0  0  0  0
   45.7940   34.8770   43.4780 C   0  0  0  0  0  0  0  0  0  0  0  0
   46.0060   33.9700   44.4360 N   0  0  0  0  0  0  0  0  0  0  0  0
   45.4540   34.0770   45.6730 C   0  0  0  0  0  0  0  0  0  0  0  0
   44.6600   35.1280   45.9680 N   0  0  0  0  0  0  0  0  0  0  0  0
   45.7840   32.9790   46.6480 C   0  0  0  0  0  0  0  0  0  0  0  0
   45.1010   32.8280   47.8820 C   0  0  0  0  0  0  0  0  0  0  0  0
   45.5180   31.7810   48.6550 C   0  0  0  0  0  0  0  0  0  0  0  0
   46.5010   30.9660   48.2630 C   0  0  0  0  0  0  0  0  0  0  0  0
   46.9860   31.6230   46.6480 S   0  0  0  0  0  0  0  0  0  0  0  0
   48.2637   35.4699   42.9190 H   0  0  0  0  0  0  0  0  0  0  0  0
   49.4977   35.1556   40.7876 H   0  0  0  0  0  0  0  0  0  0  0  0
   48.3272   34.1378   38.8118 H   0  0  0  0  0  0  0  0  0  0  0  0
   45.9420   33.4599   39.0481 H   0  0  0  0  0  0  0  0  0  0  0  0
   44.0595   35.5832   40.2570 H   0  0  0  0  0  0  0  0  0  0  0  0
   42.2266   31.5261   42.1325 H   0  0  0  0  0  0  0  0  0  0  0  0
   40.8287   36.0401   40.9329 H   0  0  0  0  0  0  0  0  0  0  0  0
   41.8891   36.2118   39.4932 H   0  0  0  0  0  0  0  0  0  0  0  0
   40.5639   34.9991   39.4932 H   0  0  0  0  0  0  0  0  0  0  0  0
   43.7740   36.9079   45.2897 H   0  0  0  0  0  0  0  0  0  0  0  0
   44.7776   36.7276   43.0206 H   0  0  0  0  0  0  0  0  0  0  0  0
   44.2929   33.5057   48.1946 H   0  0  0  0  0  0  0  0  0  0  0  0
   45.0313   31.6048   49.6256 H   0  0  0  0  0  0  0  0  0  0  0  0
   46.9178   30.0991   48.7965 H   0  0  0  0  0  0  0  0  0  0  0  0
  1 18  1  0
  2  1  2  0
  3  2  1  0
  4  5  1  0
  4  3  2  0
  5  6  2  0
  6  7  1  0
  6  1  1  0
  7 13  1  0
  8  7  1  0
  9  8  2  0
  9 10  1  0
 10 11  2  0
 10 12  1  0
 13 12  1  0
 13 14  2  0
 15  9  1  0
 16 21  2  0
 17 16  1  0
 18 17  2  0
 18 19  1  0
 19 20  2  0
 20 21  1  0
 20 22  1  0
 22 26  1  0
 22 23  2  0
 23 24  1  0
 25 24  2  0
 26 25  1  0
  2 27  1  0
  3 28  1  0
  4 29  1  0
  5 30  1  0
  8 31  1  0
 12 32  1  0
 15 33  1  0
 15 34  1  0
 15 35  1  0
 16 36  1  0
 17 37  1  0
 23 38  1  0
 24 39  1  0
 25 40  1  0
M  END
>  <minimizedAffinity>  (1) 
-7.49982119

>  <minimizedRMSD>  (1) 
0.24097237

$$$$
