
     RDKit          3D

 41 44  0  0  0  0  0  0  0  0999 V2000
   47.5660   34.1480   42.1760 C   0  0  0  0  0  0  0  0  0  0  0  0
   48.4250   35.2920   41.6950 C   0  0  0  0  0  0  0  0  0  0  0  0
   49.7600   35.3820   42.3030 C   0  0  0  0  0  0  0  0  0  0  0  0
   50.4750   34.0720   42.4630 C   0  0  0  0  0  0  0  0  0  0  0  0
   49.6200   32.8700   42.1590 C   0  0  0  0  0  0  0  0  0  0  0  0
   48.3000   33.0610   42.8830 C   0  0  0  0  0  0  0  0  0  0  0  0
   45.2370   34.4670   45.0490 C   0  0  0  0  0  0  0  0  0  0  0  0
   44.5270   35.6370   44.7470 C   0  0  0  0  0  0  0  0  0  0  0  0
   44.8480   36.3030   43.5810 C   0  0  0  0  0  0  0  0  0  0  0  0
   45.8270   35.7880   42.7960 N   0  0  0  0  0  0  0  0  0  0  0  0
   46.5050   34.6520   43.1050 C   0  0  0  0  0  0  0  0  0  0  0  0
   46.1880   34.0010   44.2500 N   0  0  0  0  0  0  0  0  0  0  0  0
   46.9030   33.5250   40.9680 C   0  0  0  0  0  0  0  0  0  0  0  0
   45.7770   32.7880   40.6850 C   0  0  0  0  0  0  0  0  0  0  0  0
   45.5580   32.4260   39.4170 C   0  0  0  0  0  0  0  0  0  0  0  0
   46.4030   32.7650   38.4320 C   0  0  0  0  0  0  0  0  0  0  0  0
   47.7010   33.7230   39.3550 S   0  0  0  0  0  0  0  0  0  0  0  0
   46.4820   32.5540   36.9750 C   0  0  0  0  0  0  0  0  0  0  0  0
   47.7550   32.4790   36.4680 C   0  0  0  0  0  0  0  0  0  0  0  0
   47.7850   32.2780   35.0830 C   0  0  0  0  0  0  0  0  0  0  0  0
   46.6890   32.1680   34.3320 N   0  0  0  0  0  0  0  0  0  0  0  0
   45.4640   32.2490   34.8820 C   0  0  0  0  0  0  0  0  0  0  0  0
   45.3870   32.4460   36.2350 N   0  0  0  0  0  0  0  0  0  0  0  0
   48.5546   35.1844   40.6080 H   0  0  0  0  0  0  0  0  0  0  0  0
   47.8968   36.2104   41.9907 H   0  0  0  0  0  0  0  0  0  0  0  0
   50.3799   36.0337   41.6698 H   0  0  0  0  0  0  0  0  0  0  0  0
   49.6086   35.7751   43.3191 H   0  0  0  0  0  0  0  0  0  0  0  0
   51.3392   34.0635   41.7825 H   0  0  0  0  0  0  0  0  0  0  0  0
   50.7696   33.9956   43.5200 H   0  0  0  0  0  0  0  0  0  0  0  0
   49.4476   32.7950   41.0752 H   0  0  0  0  0  0  0  0  0  0  0  0
   50.1157   31.9455   42.4900 H   0  0  0  0  0  0  0  0  0  0  0  0
   48.4816   33.3470   43.9295 H   0  0  0  0  0  0  0  0  0  0  0  0
   47.7151   32.1294   42.8832 H   0  0  0  0  0  0  0  0  0  0  0  0
   44.9993   33.9203   45.9735 H   0  0  0  0  0  0  0  0  0  0  0  0
   43.7396   36.0124   45.4171 H   0  0  0  0  0  0  0  0  0  0  0  0
   44.3236   37.2270   43.2961 H   0  0  0  0  0  0  0  0  0  0  0  0
   45.0742   32.5035   41.4820 H   0  0  0  0  0  0  0  0  0  0  0  0
   44.6622   31.8352   39.1752 H   0  0  0  0  0  0  0  0  0  0  0  0
   48.6599   32.5678   37.0871 H   0  0  0  0  0  0  0  0  0  0  0  0
   48.7648   32.2071   34.5881 H   0  0  0  0  0  0  0  0  0  0  0  0
   44.5564   32.1602   34.2668 H   0  0  0  0  0  0  0  0  0  0  0  0
  1  6  1  0
  1 11  1  0
  2  1  1  0
  2  3  1  0
  3  4  1  0
  5  4  1  0
  5  6  1  0
  8  7  2  0
  9  8  1  0
 10 11  1  0
 10  9  2  0
 11 12  2  0
 12  7  1  0
 13  1  1  0
 14 13  2  0
 15 14  1  0
 16 17  1  0
 16 15  2  0
 17 13  1  0
 18 16  1  0
 19 18  2  0
 20 19  1  0
 21 22  1  0
 21 20  2  0
 22 23  2  0
 23 18  1  0
  2 24  1  0
  2 25  1  0
  3 26  1  0
  3 27  1  0
  4 28  1  0
  4 29  1  0
  5 30  1  0
  5 31  1  0
  6 32  1  0
  6 33  1  0
  7 34  1  0
  8 35  1  0
  9 36  1  0
 14 37  1  0
 15 38  1  0
 19 39  1  0
 20 40  1  0
 22 41  1  0
M  ISO  8  24  13  25  13  26  13  27  13  28  13  29  13  30  13  31  13
M  ISO  8  32  13  33  13  34  14  35  14  36  14  37  14  38  14  39  14
M  ISO  2  40  14  41  14
M  END
>  <minimizedAffinity>  (1) 
-6.11442566

>  <minimizedRMSD>  (1) 
0.390441418

$$$$
