
     RDKit          3D

 38 40  0  0  0  0  0  0  0  0999 V2000
   45.4070   33.5530   41.5850 C   0  0  0  0  0  0  0  0  0  0  0  0
   45.3960   33.9290   45.2330 C   0  0  0  0  0  0  0  0  0  0  0  0
   44.8270   35.1950   45.4390 C   0  0  0  0  0  0  0  0  0  0  0  0
   44.4420   35.9240   44.3000 C   0  0  0  0  0  0  0  0  0  0  0  0
   44.6450   35.3630   43.0680 N   0  0  0  0  0  0  0  0  0  0  0  0
   45.2030   34.1310   42.9410 C   0  0  0  0  0  0  0  0  0  0  0  0
   45.5740   33.4230   44.0110 N   0  0  0  0  0  0  0  0  0  0  0  0
   44.0870   33.5870   40.8510 C   0  0  0  0  0  0  0  0  0  0  0  0
   45.7900   32.0970   41.7040 C   0  0  0  0  0  0  0  0  0  0  0  0
   46.4110   34.3100   40.7720 C   0  0  0  0  0  0  0  0  0  0  0  0
   47.7250   34.4660   41.3810 C   0  0  0  0  0  0  0  0  0  0  0  0
   48.3410   35.4880   42.0230 N   0  0  0  0  0  0  0  0  0  0  0  0
   49.5520   35.1150   42.3900 O   0  0  0  0  0  0  0  0  0  0  0  0
   49.7500   33.8800   42.0090 C   0  0  0  0  0  0  0  0  0  0  0  0
   48.6400   33.4660   41.3890 N   0  0  0  0  0  0  0  0  0  0  0  0
   50.9870   33.3310   42.3210 O   0  0  0  0  0  0  0  0  0  0  0  0
   51.1520   31.9870   42.0190 C   0  0  0  0  0  0  0  0  0  0  0  0
   51.7840   31.7950   40.7990 C   0  0  0  0  0  0  0  0  0  0  0  0
   52.0390   30.5250   40.3210 C   0  0  0  0  0  0  0  0  0  0  0  0
   51.6580   29.4180   41.0710 C   0  0  0  0  0  0  0  0  0  0  0  0
   51.0310   29.6150   42.2810 C   0  0  0  0  0  0  0  0  0  0  0  0
   50.7710   30.8780   42.7700 C   0  0  0  0  0  0  0  0  0  0  0  0
   45.7049   33.3352   46.1059 H   0  0  0  0  0  0  0  0  0  0  0  0
   44.6876   35.6012   46.4517 H   0  0  0  0  0  0  0  0  0  0  0  0
   43.9884   36.9215   44.3967 H   0  0  0  0  0  0  0  0  0  0  0  0
   43.2629   33.6082   41.5793 H   0  0  0  0  0  0  0  0  0  0  0  0
   44.0416   34.4866   40.2196 H   0  0  0  0  0  0  0  0  0  0  0  0
   43.9954   32.6909   40.2196 H   0  0  0  0  0  0  0  0  0  0  0  0
   45.8622   31.8225   42.7668 H   0  0  0  0  0  0  0  0  0  0  0  0
   45.0248   31.4755   41.2160 H   0  0  0  0  0  0  0  0  0  0  0  0
   46.7620   31.9325   41.2160 H   0  0  0  0  0  0  0  0  0  0  0  0
   46.0046   35.3144   40.5820 H   0  0  0  0  0  0  0  0  0  0  0  0
   46.5704   33.7151   39.8606 H   0  0  0  0  0  0  0  0  0  0  0  0
   52.0868   32.6685   40.2030 H   0  0  0  0  0  0  0  0  0  0  0  0
   52.5411   30.3897   39.3517 H   0  0  0  0  0  0  0  0  0  0  0  0
   51.8545   28.4001   40.7033 H   0  0  0  0  0  0  0  0  0  0  0  0
   50.7288   28.7397   42.8747 H   0  0  0  0  0  0  0  0  0  0  0  0
   50.2693   31.0076   43.7403 H   0  0  0  0  0  0  0  0  0  0  0  0
  1  9  1  0
  1  6  1  0
  2  3  2  0
  4  3  1  0
  5  4  2  0
  6  5  1  0
  6  7  2  0
  7  2  1  0
  8  1  1  0
 10 11  1  0
 10  1  1  0
 11 15  1  0
 11 12  2  0
 12 13  1  0
 14 16  1  0
 14 13  1  0
 15 14  2  0
 17 16  1  0
 17 22  1  0
 18 17  2  0
 19 18  1  0
 19 20  2  0
 20 21  1  0
 21 22  2  0
  2 23  1  0
  3 24  1  0
  4 25  1  0
  8 26  1  0
  8 27  1  0
  8 28  1  0
  9 29  1  0
  9 30  1  0
  9 31  1  0
 10 32  1  0
 10 33  1  0
 18 34  1  0
 19 35  1  0
 20 36  1  0
 21 37  1  0
 22 38  1  0
M  ISO  8  23  14  24  14  25  14  26   8  27   8  28   8  29   8  30   8
M  ISO  8  31   8  32   8  33   8  34  14  35  14  36  14  37  14  38  14
M  END
>  <minimizedAffinity>  (1) 
-4.59828234

>  <minimizedRMSD>  (1) 
0.69180119

$$$$
