
     RDKit          3D

 33 35  0  0  1  0  0  0  0  0999 V2000
   44.4530   35.5850   43.3610 C   0  0  1  0  0  0  0  0  0  0  0  0
   45.4740   34.6090   43.7610 C   0  0  0  0  0  0  0  0  0  0  0  0
   46.5130   34.3000   42.8410 C   0  0  0  0  0  0  0  0  0  0  0  0
   47.5060   33.3610   43.2070 C   0  0  0  0  0  0  0  0  0  0  0  0
   47.3930   32.8070   44.4450 N   0  0  0  0  0  0  0  0  0  0  0  0
   46.4150   33.1140   45.2810 C   0  0  0  0  0  0  0  0  0  0  0  0
   45.4510   34.0110   44.9530 N   0  0  0  0  0  0  0  0  0  0  0  0
   46.3140   32.5000   46.6120 C   0  0  0  0  0  0  0  0  0  0  0  0
   47.3100   31.5990   47.0040 C   0  0  0  0  0  0  0  0  0  0  0  0
   46.7370   31.1130   48.7210 S   0  0  0  0  0  0  0  0  0  0  0  0
   45.2410   32.2460   48.5520 C   0  0  0  0  0  0  0  0  0  0  0  0
   45.3880   32.6730   47.5300 N   0  0  0  0  0  0  0  0  0  0  0  0
   44.8880   36.9810   43.7460 C   0  0  0  0  0  0  0  0  0  0  0  0
   44.1450   35.5440   41.8880 C   0  0  0  0  0  0  0  0  0  0  0  0
   42.8690   34.7960   41.6660 C   0  0  0  0  0  0  0  0  0  0  0  0
   41.6620   35.4650   41.6720 C   0  0  0  0  0  0  0  0  0  0  0  0
   40.5410   34.6710   41.4550 C   0  0  0  0  0  0  0  0  0  0  0  0
   40.6220   33.3360   41.2510 N   0  0  0  0  0  0  0  0  0  0  0  0
   41.8220   32.7320   41.2550 C   0  0  0  0  0  0  0  0  0  0  0  0
   42.9380   33.4520   41.4590 N   0  0  0  0  0  0  0  0  0  0  0  0
   43.5313   35.3113   43.8953 H   0  0  0  0  0  0  0  0  0  0  0  0
   46.5445   34.7860   41.8547 H   0  0  0  0  0  0  0  0  0  0  0  0
   48.3271   33.0925   42.5260 H   0  0  0  0  0  0  0  0  0  0  0  0
   48.1983   31.2632   46.4489 H   0  0  0  0  0  0  0  0  0  0  0  0
   44.4324   32.4375   49.2728 H   0  0  0  0  0  0  0  0  0  0  0  0
   44.9149   37.0674   44.8423 H   0  0  0  0  0  0  0  0  0  0  0  0
   45.8902   37.1784   43.3379 H   0  0  0  0  0  0  0  0  0  0  0  0
   44.1753   37.7128   43.3379 H   0  0  0  0  0  0  0  0  0  0  0  0
   44.0394   36.5704   41.5068 H   0  0  0  0  0  0  0  0  0  0  0  0
   44.9640   35.0377   41.3561 H   0  0  0  0  0  0  0  0  0  0  0  0
   41.5915   36.5503   41.8369 H   0  0  0  0  0  0  0  0  0  0  0  0
   39.5494   35.1472   41.4490 H   0  0  0  0  0  0  0  0  0  0  0  0
   41.8910   31.6465   41.0910 H   0  0  0  0  0  0  0  0  0  0  0  0
  1 13  1  0
  1  2  1  0
  2  7  2  0
  3  4  2  0
  3  2  1  0
  4  5  1  0
  5  6  2  0
  6  8  1  0
  7  6  1  0
  8  9  2  0
  8 12  1  0
  9 10  1  0
 11 10  1  0
 12 11  2  0
 14  1  1  0
 15 16  2  0
 15 14  1  0
 17 16  1  0
 18 19  1  0
 18 17  2  0
 19 20  2  0
 20 15  1  0
  1 21  1  1
  3 22  1  0
  4 23  1  0
  9 24  1  0
 11 25  1  0
 13 26  1  0
 13 27  1  0
 13 28  1  0
 14 29  1  0
 14 30  1  0
 16 31  1  0
 17 32  1  0
 19 33  1  0
M  ISO  8  21   8  22  14  23  14  24  14  25  14  26   8  27   8  28   8
M  ISO  5  29   8  30   8  31  14  32  14  33  14
M  END
>  <minimizedAffinity>  (1) 
-5.10946512

>  <minimizedRMSD>  (1) 
1.19223654

$$$$
