
     RDKit          3D

 42 45  0  0  0  0  0  0  0  0999 V2000
   46.4650   34.6210   42.2100 C   0  0  0  0  0  0  0  0  0  0  0  0
   47.7670   34.9920   42.0680 C   0  0  0  0  0  0  0  0  0  0  0  0
   48.4590   34.8510   40.8620 C   0  0  0  0  0  0  0  0  0  0  0  0
   47.7960   34.3060   39.7480 C   0  0  0  0  0  0  0  0  0  0  0  0
   46.4850   33.9330   39.8930 C   0  0  0  0  0  0  0  0  0  0  0  0
   45.8450   34.0960   41.1130 C   0  0  0  0  0  0  0  0  0  0  0  0
   44.4870   33.6950   41.2150 N   0  0  0  0  0  0  0  0  0  0  0  0
   43.6480   34.6450   40.6900 C   0  0  0  0  0  0  0  0  0  0  0  0
   42.2710   34.4630   40.6850 C   0  0  0  0  0  0  0  0  0  0  0  0
   41.7830   33.2900   41.2270 C   0  0  0  0  0  0  0  0  0  0  0  0
   40.5470   33.0510   41.2580 O   0  0  0  0  0  0  0  0  0  0  0  0
   42.6290   32.3860   41.7300 N   0  0  0  0  0  0  0  0  0  0  0  0
   43.9610   32.5720   41.7310 C   0  0  0  0  0  0  0  0  0  0  0  0
   44.8240   31.7840   42.1770 O   0  0  0  0  0  0  0  0  0  0  0  0
   41.3350   35.4760   40.1220 C   0  0  0  0  0  0  0  0  0  0  0  0
   44.4240   35.9150   45.0920 C   0  0  0  0  0  0  0  0  0  0  0  0
   44.9690   35.8450   43.8070 C   0  0  0  0  0  0  0  0  0  0  0  0
   45.8360   34.8070   43.4990 C   0  0  0  0  0  0  0  0  0  0  0  0
   46.1040   33.9150   44.4710 N   0  0  0  0  0  0  0  0  0  0  0  0
   45.5640   34.0060   45.7070 C   0  0  0  0  0  0  0  0  0  0  0  0
   44.7280   35.0070   46.0050 N   0  0  0  0  0  0  0  0  0  0  0  0
   45.9050   32.9970   46.7090 C   0  0  0  0  0  0  0  0  0  0  0  0
   45.0770   32.8240   47.8030 C   0  0  0  0  0  0  0  0  0  0  0  0
   45.4120   31.8670   48.7430 C   0  0  0  0  0  0  0  0  0  0  0  0
   46.5590   31.1220   48.5540 C   0  0  0  0  0  0  0  0  0  0  0  0
   47.3880   31.3060   47.4440 C   0  0  0  0  0  0  0  0  0  0  0  0
   47.0170   32.2530   46.5560 N   0  0  0  0  0  0  0  0  0  0  0  0
   48.2938   35.4185   42.9344 H   0  0  0  0  0  0  0  0  0  0  0  0
   49.5110   35.1630   40.7850 H   0  0  0  0  0  0  0  0  0  0  0  0
   48.3154   34.1824   38.7863 H   0  0  0  0  0  0  0  0  0  0  0  0
   45.9391   33.5034   39.0401 H   0  0  0  0  0  0  0  0  0  0  0  0
   44.0730   35.5666   40.2658 H   0  0  0  0  0  0  0  0  0  0  0  0
   42.2479   31.5170   42.1306 H   0  0  0  0  0  0  0  0  0  0  0  0
   40.8386   36.0132   40.9436 H   0  0  0  0  0  0  0  0  0  0  0  0
   41.8973   36.1909   39.5033 H   0  0  0  0  0  0  0  0  0  0  0  0
   40.5780   34.9719   39.5033 H   0  0  0  0  0  0  0  0  0  0  0  0
   43.7350   36.7337   45.3470 H   0  0  0  0  0  0  0  0  0  0  0  0
   44.7141   36.6021   43.0508 H   0  0  0  0  0  0  0  0  0  0  0  0
   44.1704   33.4353   47.9229 H   0  0  0  0  0  0  0  0  0  0  0  0
   44.7763   31.7022   49.6254 H   0  0  0  0  0  0  0  0  0  0  0  0
   46.8287   30.3601   49.3002 H   0  0  0  0  0  0  0  0  0  0  0  0
   48.2997   30.7075   47.3006 H   0  0  0  0  0  0  0  0  0  0  0  0
  1 18  1  0
  2  1  2  0
  3  2  1  0
  4  5  1  0
  4  3  2  0
  5  6  2  0
  6  7  1  0
  6  1  1  0
  7 13  1  0
  8  7  1  0
  9  8  2  0
  9 10  1  0
 10 11  2  0
 10 12  1  0
 12 13  1  0
 13 14  2  0
 15  9  1  0
 16 21  2  0
 17 16  1  0
 18 17  2  0
 18 19  1  0
 19 20  2  0
 20 21  1  0
 20 22  1  0
 22 23  2  0
 23 24  1  0
 25 24  2  0
 26 25  1  0
 27 22  1  0
 27 26  2  0
  2 28  1  0
  3 29  1  0
  4 30  1  0
  5 31  1  0
  8 32  1  0
 12 33  1  0
 15 34  1  0
 15 35  1  0
 15 36  1  0
 16 37  1  0
 17 38  1  0
 23 39  1  0
 24 40  1  0
 25 41  1  0
 26 42  1  0
M  END
>  <minimizedAffinity>  (1) 
-7.78698778

>  <minimizedRMSD>  (1) 
0.299266309

$$$$
