
     RDKit          3D

 40 41  0  0  0  0  0  0  0  0999 V2000
   50.7780   33.0350   42.0340 C   0  0  0  0  0  0  0  0  0  0  0  0
   50.8150   31.6420   41.9950 C   0  0  0  0  0  0  0  0  0  0  0  0
   49.7150   30.9560   42.4890 C   0  0  0  0  0  0  0  0  0  0  0  0
   48.6660   31.6860   42.9800 N   0  0  0  0  0  0  0  0  0  0  0  0
   48.6650   33.0300   43.0010 C   0  0  0  0  0  0  0  0  0  0  0  0
   49.7050   33.6700   42.5350 N   0  0  0  0  0  0  0  0  0  0  0  0
   47.5050   33.6230   43.5450 N   0  0  0  0  0  0  0  0  0  0  0  0
   47.1320   33.1830   44.7690 C   0  0  0  0  0  0  0  0  0  0  0  0
   46.0100   33.6920   45.4090 C   0  0  0  0  0  0  0  0  0  0  0  0
   45.2700   34.6720   44.7650 C   0  0  0  0  0  0  0  0  0  0  0  0
   44.2530   35.1590   45.3100 O   0  0  0  0  0  0  0  0  0  0  0  0
   45.6600   35.1010   43.5350 N   0  0  0  0  0  0  0  0  0  0  0  0
   46.7520   34.5860   42.9460 C   0  0  0  0  0  0  0  0  0  0  0  0
   47.1440   34.9560   41.8150 O   0  0  0  0  0  0  0  0  0  0  0  0
   45.6230   33.1800   46.7580 C   0  0  0  0  0  0  0  0  0  0  0  0
   44.8610   36.1100   42.9010 C   0  0  0  0  0  0  0  0  0  0  0  0
   43.7700   35.4990   42.1490 C   0  0  0  0  0  0  0  0  0  0  0  0
   42.4270   35.5590   42.7030 N   0  0  0  0  0  0  0  0  0  0  0  0
   41.2960   35.4360   41.9010 C   0  0  0  0  0  0  0  0  0  0  0  0
   40.8680   36.2640   40.9920 O   0  0  0  0  0  0  0  0  0  0  0  0
   40.3260   34.3320   41.9210 N   0  0  0  0  0  0  0  0  0  0  0  0
   39.3750   34.0400   40.9260 C   0  0  0  0  0  0  0  0  0  0  0  0
   39.3230   34.7850   39.8880 N   0  0  0  0  0  0  0  0  0  0  0  0
   38.5120   32.9040   41.1420 N   0  0  0  0  0  0  0  0  0  0  0  0
   38.6920   34.6980   39.0890 H   0  0  0  0  0  0  0  0  0  0  0  0
   51.6305   33.6166   41.6532 H   0  0  0  0  0  0  0  0  0  0  0  0
   51.6849   31.1062   41.5873 H   0  0  0  0  0  0  0  0  0  0  0  0
   49.6864   29.8564   42.4863 H   0  0  0  0  0  0  0  0  0  0  0  0
   47.7301   32.4059   45.2673 H   0  0  0  0  0  0  0  0  0  0  0  0
   46.0927   33.8014   47.5347 H   0  0  0  0  0  0  0  0  0  0  0  0
   44.5292   33.2224   46.8663 H   0  0  0  0  0  0  0  0  0  0  0  0
   45.9622   32.1392   46.8663 H   0  0  0  0  0  0  0  0  0  0  0  0
   44.4424   36.7764   43.6696 H   0  0  0  0  0  0  0  0  0  0  0  0
   45.4946   36.6825   42.2076 H   0  0  0  0  0  0  0  0  0  0  0  0
   44.0206   34.4358   42.0191 H   0  0  0  0  0  0  0  0  0  0  0  0
   43.7087   36.0981   41.2285 H   0  0  0  0  0  0  0  0  0  0  0  0
   42.3093   35.6963   43.7170 H   0  0  0  0  0  0  0  0  0  0  0  0
   40.3442   33.7119   42.7432 H   0  0  0  0  0  0  0  0  0  0  0  0
   37.8020   32.6555   40.4384 H   0  0  0  0  0  0  0  0  0  0  0  0
   38.6059   32.3416   41.9998 H   0  0  0  0  0  0  0  0  0  0  0  0
  1  6  2  0
  2  1  1  0
  2  3  2  0
  3  4  1  0
  4  5  2  0
  5  7  1  0
  6  5  1  0
  7  8  1  0
  8  9  2  0
  9 15  1  0
 10 11  2  0
 10  9  1  0
 12 10  1  0
 13 12  1  0
 13  7  1  0
 14 13  2  0
 16 12  1  0
 17 18  1  0
 17 16  1  0
 19 21  1  0
 19 18  1  0
 20 19  2  0
 22 24  1  0
 22 21  1  0
 23 22  2  0
 25 23  1  0
  1 26  1  0
  2 27  1  0
  3 28  1  0
  8 29  1  0
 15 30  1  0
 15 31  1  0
 15 32  1  0
 16 33  1  0
 16 34  1  0
 17 35  1  0
 17 36  1  0
 18 37  1  0
 21 38  1  0
 24 39  1  0
 24 40  1  0
M  END
>  <minimizedAffinity>  (1) 
-7.10481691

>  <minimizedRMSD>  (1) 
0.352708489

$$$$
