
     RDKit          3D

 42 45  0  0  0  0  0  0  0  0999 V2000
   47.5620   34.1540   42.1720 C   0  0  0  0  0  0  0  0  0  0  0  0
   48.4320   35.2840   41.6940 C   0  0  0  0  0  0  0  0  0  0  0  0
   49.7620   35.3810   42.3100 C   0  0  0  0  0  0  0  0  0  0  0  0
   50.4820   34.0720   42.4640 C   0  0  0  0  0  0  0  0  0  0  0  0
   49.6290   32.8710   42.1570 C   0  0  0  0  0  0  0  0  0  0  0  0
   48.3060   33.0580   42.8780 C   0  0  0  0  0  0  0  0  0  0  0  0
   45.2390   34.4640   45.0410 C   0  0  0  0  0  0  0  0  0  0  0  0
   44.5290   35.6280   44.7430 C   0  0  0  0  0  0  0  0  0  0  0  0
   44.8490   36.3010   43.5700 C   0  0  0  0  0  0  0  0  0  0  0  0
   45.8310   35.7930   42.7760 N   0  0  0  0  0  0  0  0  0  0  0  0
   46.5010   34.6560   43.0980 C   0  0  0  0  0  0  0  0  0  0  0  0
   46.1930   33.9910   44.2490 N   0  0  0  0  0  0  0  0  0  0  0  0
   46.9070   33.5300   40.9640 C   0  0  0  0  0  0  0  0  0  0  0  0
   45.7780   32.7870   40.6830 C   0  0  0  0  0  0  0  0  0  0  0  0
   45.5720   32.4260   39.4070 C   0  0  0  0  0  0  0  0  0  0  0  0
   46.4200   32.7640   38.4250 C   0  0  0  0  0  0  0  0  0  0  0  0
   47.7180   33.7280   39.3500 S   0  0  0  0  0  0  0  0  0  0  0  0
   46.4940   32.5450   36.9910 C   0  0  0  0  0  0  0  0  0  0  0  0
   47.7520   32.4810   36.4900 C   0  0  0  0  0  0  0  0  0  0  0  0
   47.8630   32.2700   35.1080 C   0  0  0  0  0  0  0  0  0  0  0  0
   46.6800   32.1430   34.3710 C   0  0  0  0  0  0  0  0  0  0  0  0
   45.3990   32.2150   34.9270 C   0  0  0  0  0  0  0  0  0  0  0  0
   45.3630   32.4220   36.2770 N   0  0  0  0  0  0  0  0  0  0  0  0
   48.5719   35.1648   40.6095 H   0  0  0  0  0  0  0  0  0  0  0  0
   47.9048   36.2052   41.9828 H   0  0  0  0  0  0  0  0  0  0  0  0
   50.3814   36.0407   41.6846 H   0  0  0  0  0  0  0  0  0  0  0  0
   49.6045   35.7692   43.3271 H   0  0  0  0  0  0  0  0  0  0  0  0
   51.3449   34.0683   41.7818 H   0  0  0  0  0  0  0  0  0  0  0  0
   50.7803   33.9922   43.5198 H   0  0  0  0  0  0  0  0  0  0  0  0
   49.4592   32.7976   41.0727 H   0  0  0  0  0  0  0  0  0  0  0  0
   50.1251   31.9470   42.4888 H   0  0  0  0  0  0  0  0  0  0  0  0
   48.4853   33.3397   43.9261 H   0  0  0  0  0  0  0  0  0  0  0  0
   47.7235   32.1249   42.8698 H   0  0  0  0  0  0  0  0  0  0  0  0
   44.9992   33.9189   45.9658 H   0  0  0  0  0  0  0  0  0  0  0  0
   43.7417   36.0006   45.4148 H   0  0  0  0  0  0  0  0  0  0  0  0
   44.3204   37.2239   43.2893 H   0  0  0  0  0  0  0  0  0  0  0  0
   45.0723   32.5010   41.4768 H   0  0  0  0  0  0  0  0  0  0  0  0
   44.6788   31.8338   39.1588 H   0  0  0  0  0  0  0  0  0  0  0  0
   48.6381   32.5888   37.1329 H   0  0  0  0  0  0  0  0  0  0  0  0
   48.8467   32.2065   34.6197 H   0  0  0  0  0  0  0  0  0  0  0  0
   46.7631   31.9762   33.2869 H   0  0  0  0  0  0  0  0  0  0  0  0
   44.4865   32.1124   34.3214 H   0  0  0  0  0  0  0  0  0  0  0  0
  1  6  1  0
  1 11  1  0
  2  1  1  0
  2  3  1  0
  3  4  1  0
  5  4  1  0
  5  6  1  0
  8  7  2  0
  9  8  1  0
 10 11  1  0
 10  9  2  0
 11 12  2  0
 12  7  1  0
 13  1  1  0
 14 13  2  0
 15 14  1  0
 16 17  1  0
 16 15  2  0
 17 13  1  0
 18 16  1  0
 19 18  2  0
 20 19  1  0
 21 22  1  0
 21 20  2  0
 22 23  2  0
 23 18  1  0
  2 24  1  0
  2 25  1  0
  3 26  1  0
  3 27  1  0
  4 28  1  0
  4 29  1  0
  5 30  1  0
  5 31  1  0
  6 32  1  0
  6 33  1  0
  7 34  1  0
  8 35  1  0
  9 36  1  0
 14 37  1  0
 15 38  1  0
 19 39  1  0
 20 40  1  0
 21 41  1  0
 22 42  1  0
M  ISO  8  24  13  25  13  26  13  27  13  28  13  29  13  30  13  31  13
M  ISO  8  32  13  33  13  34  14  35  14  36  14  37  14  38  14  39  14
M  ISO  3  40  14  41  14  42  14
M  END
>  <minimizedAffinity>  (1) 
-6.08448553

>  <minimizedRMSD>  (1) 
0.686377466

$$$$
