
     RDKit          3D

 33 35  0  0  0  0  0  0  0  0999 V2000
   46.9790   34.7590   42.1040 C   0  0  0  0  0  0  0  0  0  0  0  0
   48.2580   35.2560   41.9130 C   0  0  0  0  0  0  0  0  0  0  0  0
   48.5080   34.9670   40.5610 C   0  0  0  0  0  0  0  0  0  0  0  0
   47.4030   34.3340   40.0350 C   0  0  0  0  0  0  0  0  0  0  0  0
   46.5210   34.2410   41.0150 O   0  0  0  0  0  0  0  0  0  0  0  0
   44.5200   35.7660   44.7030 C   0  0  0  0  0  0  0  0  0  0  0  0
   45.2450   35.7470   43.4980 C   0  0  0  0  0  0  0  0  0  0  0  0
   46.2210   34.7940   43.3400 C   0  0  0  0  0  0  0  0  0  0  0  0
   46.4650   33.8920   44.3490 N   0  0  0  0  0  0  0  0  0  0  0  0
   45.7400   33.9430   45.5030 C   0  0  0  0  0  0  0  0  0  0  0  0
   44.7780   34.8680   45.6800 N   0  0  0  0  0  0  0  0  0  0  0  0
   46.0210   32.9740   46.5570 C   0  0  0  0  0  0  0  0  0  0  0  0
   45.2060   32.8970   47.6680 C   0  0  0  0  0  0  0  0  0  0  0  0
   45.4650   31.9820   48.6700 C   0  0  0  0  0  0  0  0  0  0  0  0
   46.5700   31.1810   48.4710 C   0  0  0  0  0  0  0  0  0  0  0  0
   47.4030   31.2320   47.3740 C   0  0  0  0  0  0  0  0  0  0  0  0
   47.0780   32.1510   46.4490 N   0  0  0  0  0  0  0  0  0  0  0  0
   47.2430   33.8750   38.7080 N   0  0  0  0  0  0  0  0  0  0  0  0
   48.2800   33.9710   37.7540 C   0  0  0  0  0  0  0  0  0  0  0  0
   49.0410   35.0490   37.7930 N   0  0  0  0  0  0  0  0  0  0  0  0
   48.4450   32.8930   36.8020 N   0  0  0  0  0  0  0  0  0  0  0  0
   49.8280   35.0650   37.1070 H   0  0  0  0  0  0  0  0  0  0  0  0
   48.9157   35.7541   42.6406 H   0  0  0  0  0  0  0  0  0  0  0  0
   49.4317   35.2062   40.0137 H   0  0  0  0  0  0  0  0  0  0  0  0
   43.7336   36.5206   44.8523 H   0  0  0  0  0  0  0  0  0  0  0  0
   45.0355   36.4770   42.7023 H   0  0  0  0  0  0  0  0  0  0  0  0
   44.3413   33.5711   47.7566 H   0  0  0  0  0  0  0  0  0  0  0  0
   44.8326   31.8979   49.5661 H   0  0  0  0  0  0  0  0  0  0  0  0
   46.8056   30.4417   49.2507 H   0  0  0  0  0  0  0  0  0  0  0  0
   48.2725   30.5673   47.2635 H   0  0  0  0  0  0  0  0  0  0  0  0
   46.3436   33.4582   38.4283 H   0  0  0  0  0  0  0  0  0  0  0  0
   47.8131   32.0801   36.8298 H   0  0  0  0  0  0  0  0  0  0  0  0
   49.1943   32.9389   36.0968 H   0  0  0  0  0  0  0  0  0  0  0  0
  1  8  1  0
  2  1  2  0
  3  2  1  0
  4  3  2  0
  4  5  1  0
  5  1  1  0
  6 11  2  0
  7  6  1  0
  8  7  2  0
  8  9  1  0
  9 10  2  0
 10 11  1  0
 10 12  1  0
 12 13  2  0
 13 14  1  0
 15 14  2  0
 16 15  1  0
 17 12  1  0
 17 16  2  0
 18  4  1  0
 19 20  2  0
 19 18  1  0
 21 19  1  0
 22 20  1  0
  2 23  1  0
  3 24  1  0
  6 25  1  0
  7 26  1  0
 13 27  1  0
 14 28  1  0
 15 29  1  0
 16 30  1  0
 18 31  1  0
 21 32  1  0
 21 33  1  0
M  END
>  <minimizedAffinity>  (1) 
-7.13402557

>  <minimizedRMSD>  (1) 
0.481453419

$$$$
