
     RDKit          3D

 39 42  0  0  0  0  0  0  0  0999 V2000
   46.5530   34.4570   42.0400 N   0  0  0  0  0  0  0  0  0  0  0  0
   47.6510   35.2730   41.9150 C   0  0  0  0  0  0  0  0  0  0  0  0
   48.4080   35.2890   40.7660 C   0  0  0  0  0  0  0  0  0  0  0  0
   48.0230   34.4470   39.7250 C   0  0  0  0  0  0  0  0  0  0  0  0
   48.6840   34.4320   38.6650 O   0  0  0  0  0  0  0  0  0  0  0  0
   46.9380   33.6770   39.9170 N   0  0  0  0  0  0  0  0  0  0  0  0
   46.2190   33.6770   41.0400 C   0  0  0  0  0  0  0  0  0  0  0  0
   45.2220   32.9930   41.2620 O   0  0  0  0  0  0  0  0  0  0  0  0
   46.5010   32.7930   38.8900 C   0  0  0  0  0  0  0  0  0  0  0  0
   45.5210   33.1400   37.9450 C   0  0  0  0  0  0  0  0  0  0  0  0
   45.1350   32.2550   36.9730 C   0  0  0  0  0  0  0  0  0  0  0  0
   45.7120   30.9940   36.9100 C   0  0  0  0  0  0  0  0  0  0  0  0
   46.6640   30.6820   37.8440 C   0  0  0  0  0  0  0  0  0  0  0  0
   47.0900   31.5430   38.8480 C   0  0  0  0  0  0  0  0  0  0  0  0
   48.1010   31.1790   39.8230 C   0  0  0  0  0  0  0  0  0  0  0  0
   47.8070   30.6120   41.0420 C   0  0  0  0  0  0  0  0  0  0  0  0
   48.7410   30.2530   41.9930 C   0  0  0  0  0  0  0  0  0  0  0  0
   50.0760   30.4680   41.7290 C   0  0  0  0  0  0  0  0  0  0  0  0
   50.3640   31.0320   40.5160 C   0  0  0  0  0  0  0  0  0  0  0  0
   49.4210   31.3540   39.6460 N   0  0  0  0  0  0  0  0  0  0  0  0
   44.5070   35.8650   44.7830 C   0  0  0  0  0  0  0  0  0  0  0  0
   45.1000   35.7160   43.5000 C   0  0  0  0  0  0  0  0  0  0  0  0
   45.9450   34.6240   43.3180 C   0  0  0  0  0  0  0  0  0  0  0  0
   46.1720   33.7470   44.3590 N   0  0  0  0  0  0  0  0  0  0  0  0
   45.5700   33.9510   45.5620 C   0  0  0  0  0  0  0  0  0  0  0  0
   44.7500   34.9890   45.7780 N   0  0  0  0  0  0  0  0  0  0  0  0
   47.9315   35.9286   42.7526 H   0  0  0  0  0  0  0  0  0  0  0  0
   49.2868   35.9440   40.6727 H   0  0  0  0  0  0  0  0  0  0  0  0
   45.0570   34.1365   37.9861 H   0  0  0  0  0  0  0  0  0  0  0  0
   44.3664   32.5442   36.2411 H   0  0  0  0  0  0  0  0  0  0  0  0
   45.4149   30.2703   36.1367 H   0  0  0  0  0  0  0  0  0  0  0  0
   47.1220   29.6830   37.7961 H   0  0  0  0  0  0  0  0  0  0  0  0
   46.7476   30.4312   41.2763 H   0  0  0  0  0  0  0  0  0  0  0  0
   48.4247   29.8029   42.9455 H   0  0  0  0  0  0  0  0  0  0  0  0
   50.8631   30.2022   42.4500 H   0  0  0  0  0  0  0  0  0  0  0  0
   51.4153   31.2241   40.2555 H   0  0  0  0  0  0  0  0  0  0  0  0
   43.8340   36.7151   44.9682 H   0  0  0  0  0  0  0  0  0  0  0  0
   44.9007   36.4306   42.6878 H   0  0  0  0  0  0  0  0  0  0  0  0
   45.7620   33.2430   46.3817 H   0  0  0  0  0  0  0  0  0  0  0  0
  1 23  1  0
  2  1  1  0
  3  2  2  0
  4  6  1  0
  4  3  1  0
  5  4  2  0
  6  7  1  0
  7  8  2  0
  7  1  1  0
  9  6  1  0
 10  9  2  0
 11 10  1  0
 12 11  2  0
 12 13  1  0
 13 14  2  0
 14  9  1  0
 14 15  1  0
 15 16  2  0
 16 17  1  0
 18 17  2  0
 19 18  1  0
 20 15  1  0
 20 19  2  0
 21 26  2  0
 22 21  1  0
 23 22  2  0
 23 24  1  0
 24 25  2  0
 25 26  1  0
  2 27  1  0
  3 28  1  0
 10 29  1  0
 11 30  1  0
 12 31  1  0
 13 32  1  0
 16 33  1  0
 17 34  1  0
 18 35  1  0
 19 36  1  0
 21 37  1  0
 22 38  1  0
 25 39  1  0
M  ISO  8  27  14  28  14  29  14  30  14  31  14  32  14  33  14  34  14
M  ISO  5  35  14  36  14  37  14  38  14  39  14
M  END
>  <minimizedAffinity>  (1) 
-5.3552084

>  <minimizedRMSD>  (1) 
0.642554998

$$$$
