
     RDKit          3D

 44 47  0  0  1  0  0  0  0  0999 V2000
   46.6960   33.9700   42.5530 N   0  0  0  0  0  0  0  0  0  0  0  0
   48.0170   34.3850   42.0920 C   0  0  0  0  0  0  0  0  0  0  0  0
   47.7040   34.6910   40.6420 C   0  0  0  0  0  0  0  0  0  0  0  0
   46.9580   33.4410   40.2520 C   0  0  0  0  0  0  0  0  0  0  0  0
   46.1220   33.1690   41.4610 C   0  0  2  0  0  0  0  0  0  0  0  0
   44.7220   33.3120   41.3100 N   0  0  0  0  0  0  0  0  0  0  0  0
   44.0700   34.2410   40.6070 C   0  0  0  0  0  0  0  0  0  0  0  0
   42.6860   34.2960   40.5220 C   0  0  0  0  0  0  0  0  0  0  0  0
   41.9330   33.3570   41.1860 C   0  0  0  0  0  0  0  0  0  0  0  0
   40.6550   33.3480   41.1500 O   0  0  0  0  0  0  0  0  0  0  0  0
   42.5910   32.4120   41.9000 N   0  0  0  0  0  0  0  0  0  0  0  0
   43.9160   32.4130   41.9430 C   0  0  0  0  0  0  0  0  0  0  0  0
   44.4410   31.4870   42.6390 O   0  0  0  0  0  0  0  0  0  0  0  0
   41.9900   35.3290   39.7410 C   0  0  0  0  0  0  0  0  0  0  0  0
   44.5780   35.5100   45.1750 C   0  0  0  0  0  0  0  0  0  0  0  0
   45.1720   35.3130   43.9290 C   0  0  0  0  0  0  0  0  0  0  0  0
   46.0570   34.2420   43.7640 C   0  0  0  0  0  0  0  0  0  0  0  0
   46.2790   33.4540   44.8540 N   0  0  0  0  0  0  0  0  0  0  0  0
   45.6970   33.6540   46.0580 C   0  0  0  0  0  0  0  0  0  0  0  0
   44.8550   34.6800   46.2010 N   0  0  0  0  0  0  0  0  0  0  0  0
   45.9940   32.7580   47.1700 C   0  0  0  0  0  0  0  0  0  0  0  0
   44.9630   32.3310   47.9810 C   0  0  0  0  0  0  0  0  0  0  0  0
   45.2320   31.4720   49.0500 C   0  0  0  0  0  0  0  0  0  0  0  0
   46.5580   31.1210   49.1970 C   0  0  0  0  0  0  0  0  0  0  0  0
   47.6100   31.5400   48.3940 C   0  0  0  0  0  0  0  0  0  0  0  0
   47.2650   32.3670   47.3840 N   0  0  0  0  0  0  0  0  0  0  0  0
   48.3759   35.2754   42.6291 H   0  0  0  0  0  0  0  0  0  0  0  0
   48.8161   33.6453   42.2479 H   0  0  0  0  0  0  0  0  0  0  0  0
   47.0741   35.5873   40.5430 H   0  0  0  0  0  0  0  0  0  0  0  0
   48.5839   34.9124   40.0201 H   0  0  0  0  0  0  0  0  0  0  0  0
   46.3299   33.6138   39.3657 H   0  0  0  0  0  0  0  0  0  0  0  0
   47.6185   32.6045   39.9798 H   0  0  0  0  0  0  0  0  0  0  0  0
   46.1735   32.0935   41.6859 H   0  0  0  0  0  0  0  0  0  0  0  0
   44.6581   34.9993   40.0693 H   0  0  0  0  0  0  0  0  0  0  0  0
   42.0607   31.6914   42.4104 H   0  0  0  0  0  0  0  0  0  0  0  0
   41.5086   36.0435   40.4249 H   0  0  0  0  0  0  0  0  0  0  0  0
   42.7152   35.8600   39.1069 H   0  0  0  0  0  0  0  0  0  0  0  0
   41.2255   34.8563   39.1069 H   0  0  0  0  0  0  0  0  0  0  0  0
   43.8796   36.3471   45.3218 H   0  0  0  0  0  0  0  0  0  0  0  0
   44.9486   35.9882   43.0899 H   0  0  0  0  0  0  0  0  0  0  0  0
   43.9332   32.6654   47.7870 H   0  0  0  0  0  0  0  0  0  0  0  0
   44.4449   31.1032   49.7241 H   0  0  0  0  0  0  0  0  0  0  0  0
   46.8051   30.4453   50.0291 H   0  0  0  0  0  0  0  0  0  0  0  0
   48.6485   31.2216   48.5678 H   0  0  0  0  0  0  0  0  0  0  0  0
  1 17  1  0
  2  1  1  0
  3  2  1  0
  4  3  1  0
  4  5  1  0
  5  1  1  0
  6  5  1  0
  6 12  1  0
  7  6  1  0
  8  7  2  0
  8  9  1  0
  9 11  1  0
 10  9  2  0
 11 12  1  0
 12 13  2  0
 14  8  1  0
 15 20  2  0
 16 15  1  0
 17 16  2  0
 17 18  1  0
 18 19  2  0
 19 20  1  0
 19 21  1  0
 21 26  1  0
 21 22  2  0
 22 23  1  0
 23 24  2  0
 25 24  1  0
 26 25  2  0
  2 27  1  0
  2 28  1  0
  3 29  1  0
  3 30  1  0
  4 31  1  0
  4 32  1  0
  5 33  1  1
  7 34  1  0
 11 35  1  0
 14 36  1  0
 14 37  1  0
 14 38  1  0
 15 39  1  0
 16 40  1  0
 22 41  1  0
 23 42  1  0
 24 43  1  0
 25 44  1  0
M  END
>  <minimizedAffinity>  (1) 
-7.00525713

>  <minimizedRMSD>  (1) 
1.00071824

$$$$
