
     RDKit          3D

 47 51  0  0  1  0  0  0  0  0999 V2000
   47.3000   34.9180   41.8930 C   0  0  0  0  0  0  0  0  0  0  0  0
   48.5190   35.5870   41.7920 C   0  0  0  0  0  0  0  0  0  0  0  0
   49.0070   35.4000   40.5590 N   0  0  0  0  0  0  0  0  0  0  0  0
   48.1270   34.6330   39.8840 C   0  0  0  0  0  0  0  0  0  0  0  0
   48.1650   34.1640   38.5880 C   0  0  0  0  0  0  0  0  0  0  0  0
   47.1380   33.4000   38.1400 C   0  0  0  0  0  0  0  0  0  0  0  0
   46.0310   33.0520   38.9140 C   0  0  0  0  0  0  0  0  0  0  0  0
   46.0620   33.5600   40.2060 C   0  0  0  0  0  0  0  0  0  0  0  0
   47.0450   34.3170   40.7020 C   0  0  0  0  0  0  0  0  0  0  0  0
   44.8850   33.1390   40.9310 N   0  0  0  0  0  0  0  0  0  0  0  0
   43.5140   33.5120   41.1250 C   0  0  0  0  0  0  0  0  0  0  0  0
   42.8510   32.3010   41.7240 C   0  0  0  0  0  0  0  0  0  0  0  0
   43.9680   31.8520   42.6620 C   0  0  0  0  0  0  0  0  0  0  0  0
   45.1550   31.9380   41.7390 C   0  0  1  0  0  0  0  0  0  0  0  0
   45.3140   30.7250   40.9400 C   0  0  0  0  0  0  0  0  0  0  0  0
   44.5040   30.1840   40.1840 O   0  0  0  0  0  0  0  0  0  0  0  0
   44.5800   35.7630   44.3100 C   0  0  0  0  0  0  0  0  0  0  0  0
   45.3830   35.8050   43.1740 C   0  0  0  0  0  0  0  0  0  0  0  0
   46.4600   34.8860   43.0680 C   0  0  0  0  0  0  0  0  0  0  0  0
   46.6090   34.0330   44.1080 N   0  0  0  0  0  0  0  0  0  0  0  0
   45.8370   34.0000   45.1910 C   0  0  0  0  0  0  0  0  0  0  0  0
   44.8220   34.8630   45.2950 N   0  0  0  0  0  0  0  0  0  0  0  0
   46.0860   33.0340   46.2620 C   0  0  0  0  0  0  0  0  0  0  0  0
   45.2830   33.0260   47.3870 C   0  0  0  0  0  0  0  0  0  0  0  0
   45.4560   32.1480   48.4340 C   0  0  0  0  0  0  0  0  0  0  0  0
   46.5080   31.2340   48.3170 C   0  0  0  0  0  0  0  0  0  0  0  0
   47.3140   31.2500   47.1740 C   0  0  0  0  0  0  0  0  0  0  0  0
   47.0820   32.1450   46.1860 N   0  0  0  0  0  0  0  0  0  0  0  0
   48.9994   36.1706   42.5911 H   0  0  0  0  0  0  0  0  0  0  0  0
   49.8939   35.7743   40.1926 H   0  0  0  0  0  0  0  0  0  0  0  0
   49.0126   34.4051   37.9296 H   0  0  0  0  0  0  0  0  0  0  0  0
   47.1805   33.0327   37.1040 H   0  0  0  0  0  0  0  0  0  0  0  0
   45.2066   32.4303   38.5346 H   0  0  0  0  0  0  0  0  0  0  0  0
   43.4417   34.3690   41.8108 H   0  0  0  0  0  0  0  0  0  0  0  0
   43.0355   33.8159   40.1823 H   0  0  0  0  0  0  0  0  0  0  0  0
   41.9335   32.5624   42.2716 H   0  0  0  0  0  0  0  0  0  0  0  0
   42.5090   31.5449   41.0019 H   0  0  0  0  0  0  0  0  0  0  0  0
   44.0727   32.5298   43.5220 H   0  0  0  0  0  0  0  0  0  0  0  0
   43.8132   30.8628   43.1176 H   0  0  0  0  0  0  0  0  0  0  0  0
   46.1124   32.0175   42.2747 H   0  0  0  0  0  0  0  0  0  0  0  0
   46.2906   30.2259   41.0246 H   0  0  0  0  0  0  0  0  0  0  0  0
   43.7406   36.4669   44.4098 H   0  0  0  0  0  0  0  0  0  0  0  0
   45.1873   36.5351   42.3748 H   0  0  0  0  0  0  0  0  0  0  0  0
   44.4643   33.7580   47.4493 H   0  0  0  0  0  0  0  0  0  0  0  0
   44.8003   32.1648   49.3170 H   0  0  0  0  0  0  0  0  0  0  0  0
   46.7005   30.5066   49.1194 H   0  0  0  0  0  0  0  0  0  0  0  0
   48.1410   30.5311   47.0777 H   0  0  0  0  0  0  0  0  0  0  0  0
  1 19  1  0
  2  1  2  0
  3  2  1  0
  4  3  1  0
  4  9  2  0
  5  4  1  0
  6  5  2  0
  6  7  1  0
  7  8  2  0
  8  9  1  0
  8 10  1  0
  9  1  1  0
 10 11  1  0
 10 14  1  0
 11 12  1  0
 12 13  1  0
 14 13  1  0
 15 14  1  0
 16 15  2  0
 17 22  2  0
 18 17  1  0
 19 18  2  0
 19 20  1  0
 20 21  2  0
 21 22  1  0
 21 23  1  0
 23 24  2  0
 24 25  1  0
 26 25  2  0
 27 26  1  0
 28 23  1  0
 28 27  2  0
  2 29  1  0
  3 30  1  0
  5 31  1  0
  6 32  1  0
  7 33  1  0
 11 34  1  0
 11 35  1  0
 12 36  1  0
 12 37  1  0
 13 38  1  0
 13 39  1  0
 14 40  1  1
 15 41  1  0
 17 42  1  0
 18 43  1  0
 24 44  1  0
 25 45  1  0
 26 46  1  0
 27 47  1  0
M  END
>  <minimizedAffinity>  (1) 
-7.12503004

>  <minimizedRMSD>  (1) 
0.246369824

$$$$
