
     RDKit          3D

 36 39  0  0  0  0  0  0  0  0999 V2000
   45.5670   34.0220   45.7170 N   0  0  0  0  0  0  0  0  0  0  0  0
   44.5460   34.8800   45.9070 C   0  0  0  0  0  0  0  0  0  0  0  0
   44.4520   35.6640   44.8060 N   0  0  0  0  0  0  0  0  0  0  0  0
   45.4050   35.2950   43.9400 C   0  0  0  0  0  0  0  0  0  0  0  0
   45.8040   35.7130   42.6700 C   0  0  0  0  0  0  0  0  0  0  0  0
   46.8290   35.0950   42.0920 N   0  0  0  0  0  0  0  0  0  0  0  0
   47.5270   34.0890   42.6270 C   0  0  0  0  0  0  0  0  0  0  0  0
   47.1640   33.6550   43.8710 N   0  0  0  0  0  0  0  0  0  0  0  0
   46.1180   34.2560   44.5070 C   0  0  0  0  0  0  0  0  0  0  0  0
   45.7680   31.8930   48.7300 C   0  0  0  0  0  0  0  0  0  0  0  0
   45.3420   32.8710   47.8280 C   0  0  0  0  0  0  0  0  0  0  0  0
   46.0290   33.0220   46.6030 C   0  0  0  0  0  0  0  0  0  0  0  0
   47.0750   32.1930   46.3790 N   0  0  0  0  0  0  0  0  0  0  0  0
   47.4730   31.2600   47.2520 C   0  0  0  0  0  0  0  0  0  0  0  0
   46.8280   31.1060   48.4210 N   0  0  0  0  0  0  0  0  0  0  0  0
   45.1650   31.6470   49.9830 N   0  0  0  0  0  0  0  0  0  0  0  0
   48.6490   33.4920   41.8690 C   0  0  0  0  0  0  0  0  0  0  0  0
   49.9700   34.0860   42.2050 C   0  0  0  0  0  0  0  0  0  0  0  0
   50.9770   32.9780   42.3020 C   0  0  0  0  0  0  0  0  0  0  0  0
   51.1990   32.0270   41.1930 C   0  0  0  0  0  0  0  0  0  0  0  0
   50.3520   31.5870   42.3860 C   0  0  0  0  0  0  0  0  0  0  0  0
   43.9029   34.9344   46.7978 H   0  0  0  0  0  0  0  0  0  0  0  0
   45.2821   36.5353   42.1587 H   0  0  0  0  0  0  0  0  0  0  0  0
   44.4831   33.5148   48.0684 H   0  0  0  0  0  0  0  0  0  0  0  0
   48.3320   30.6162   47.0117 H   0  0  0  0  0  0  0  0  0  0  0  0
   45.5353   30.9070   50.5963 H   0  0  0  0  0  0  0  0  0  0  0  0
   44.3549   32.2076   50.2836 H   0  0  0  0  0  0  0  0  0  0  0  0
   48.4627   33.6407   40.7951 H   0  0  0  0  0  0  0  0  0  0  0  0
   48.6934   32.4267   42.1393 H   0  0  0  0  0  0  0  0  0  0  0  0
   50.2704   34.7931   41.4177 H   0  0  0  0  0  0  0  0  0  0  0  0
   49.9091   34.6260   43.1614 H   0  0  0  0  0  0  0  0  0  0  0  0
   51.6816   33.5960   42.8778 H   0  0  0  0  0  0  0  0  0  0  0  0
   50.7211   32.2025   40.2179 H   0  0  0  0  0  0  0  0  0  0  0  0
   52.0897   31.6241   40.6887 H   0  0  0  0  0  0  0  0  0  0  0  0
   50.7400   30.8455   43.0998 H   0  0  0  0  0  0  0  0  0  0  0  0
   49.3389   31.1832   42.5298 H   0  0  0  0  0  0  0  0  0  0  0  0
  1  2  1  0
  1 12  1  0
  3  2  2  0
  4  9  2  0
  4  3  1  0
  5  4  1  0
  6  7  1  0
  6  5  2  0
  7  8  2  0
  8  9  1  0
  9  1  1  0
 10 16  1  0
 11 10  2  0
 12 11  1  0
 13 12  2  0
 13 14  1  0
 14 15  2  0
 15 10  1  0
 17 18  1  0
 17  7  1  0
 18 19  1  0
 19 21  1  0
 20 19  1  0
 20 21  1  0
  2 22  1  0
  5 23  1  0
 11 24  1  0
 14 25  1  0
 16 26  1  0
 16 27  1  0
 17 28  1  0
 17 29  1  0
 18 30  1  0
 18 31  1  0
 19 32  1  0
 20 33  1  0
 20 34  1  0
 21 35  1  0
 21 36  1  0
M  ISO  8  22  14  23  14  24  14  25  14  28   8  29   8  30   8  31   8
M  ISO  5  32  13  33  13  34  13  35  13  36  13
M  END
>  <minimizedAffinity>  (1) 
-5.94196463

>  <minimizedRMSD>  (1) 
4.24006987

$$$$
