
     RDKit          3D

 36 39  0  0  0  0  0  0  0  0999 V2000
   46.9800   34.7690   41.9620 C   0  0  0  0  0  0  0  0  0  0  0  0
   48.2350   35.2970   41.7370 C   0  0  0  0  0  0  0  0  0  0  0  0
   48.5160   34.9210   40.4250 C   0  0  0  0  0  0  0  0  0  0  0  0
   47.4210   34.1950   39.9410 C   0  0  0  0  0  0  0  0  0  0  0  0
   46.5250   34.1350   40.9100 O   0  0  0  0  0  0  0  0  0  0  0  0
   47.3090   33.6340   38.6490 N   0  0  0  0  0  0  0  0  0  0  0  0
   46.4830   32.5850   38.4820 C   0  0  0  0  0  0  0  0  0  0  0  0
   46.3380   32.0000   37.2420 C   0  0  0  0  0  0  0  0  0  0  0  0
   47.0510   32.5040   36.1710 C   0  0  0  0  0  0  0  0  0  0  0  0
   46.9020   31.9530   35.0540 O   0  0  0  0  0  0  0  0  0  0  0  0
   47.8610   33.5530   36.3960 N   0  0  0  0  0  0  0  0  0  0  0  0
   47.9950   34.1200   37.6220 C   0  0  0  0  0  0  0  0  0  0  0  0
   48.7700   35.0990   37.7590 O   0  0  0  0  0  0  0  0  0  0  0  0
   45.4020   30.8430   37.1500 C   0  0  0  0  0  0  0  0  0  0  0  0
   44.5520   35.9530   44.5190 C   0  0  0  0  0  0  0  0  0  0  0  0
   45.2960   35.8920   43.2990 C   0  0  0  0  0  0  0  0  0  0  0  0
   46.2050   34.8680   43.1840 C   0  0  0  0  0  0  0  0  0  0  0  0
   46.3380   33.9950   44.2130 N   0  0  0  0  0  0  0  0  0  0  0  0
   45.6210   34.0800   45.3510 C   0  0  0  0  0  0  0  0  0  0  0  0
   44.7150   35.0770   45.5020 N   0  0  0  0  0  0  0  0  0  0  0  0
   45.9300   33.0220   46.3400 C   0  0  0  0  0  0  0  0  0  0  0  0
   46.9400   32.0050   46.1960 C   0  0  0  0  0  0  0  0  0  0  0  0
   46.7310   31.1070   47.7590 S   0  0  0  0  0  0  0  0  0  0  0  0
   45.3350   32.2370   48.3410 C   0  0  0  0  0  0  0  0  0  0  0  0
   45.1980   33.0380   47.4430 N   0  0  0  0  0  0  0  0  0  0  0  0
   48.8639   35.8767   42.4287 H   0  0  0  0  0  0  0  0  0  0  0  0
   49.4356   35.1535   39.8680 H   0  0  0  0  0  0  0  0  0  0  0  0
   45.9195   32.1914   39.3408 H   0  0  0  0  0  0  0  0  0  0  0  0
   48.4001   33.9410   35.6087 H   0  0  0  0  0  0  0  0  0  0  0  0
   45.1316   30.5087   38.1625 H   0  0  0  0  0  0  0  0  0  0  0  0
   44.4937   31.1482   36.6098 H   0  0  0  0  0  0  0  0  0  0  0  0
   45.8902   30.0185   36.6098 H   0  0  0  0  0  0  0  0  0  0  0  0
   43.8146   36.7591   44.6475 H   0  0  0  0  0  0  0  0  0  0  0  0
   45.1481   36.6271   42.4941 H   0  0  0  0  0  0  0  0  0  0  0  0
   47.6422   31.8234   45.3690 H   0  0  0  0  0  0  0  0  0  0  0  0
   44.7721   32.1805   49.2844 H   0  0  0  0  0  0  0  0  0  0  0  0
  1 17  1  0
  2  1  2  0
  3  2  1  0
  4  3  2  0
  4  5  1  0
  5  1  1  0
  6  4  1  0
  7  6  1  0
  8  7  2  0
  9 11  1  0
  9  8  1  0
 10  9  2  0
 11 12  1  0
 12 13  2  0
 12  6  1  0
 14  8  1  0
 15 20  2  0
 16 15  1  0
 17 16  2  0
 17 18  1  0
 18 19  2  0
 19 20  1  0
 19 21  1  0
 21 25  1  0
 22 21  2  0
 22 23  1  0
 23 24  1  0
 25 24  2  0
  2 26  1  0
  3 27  1  0
  7 28  1  0
 11 29  1  0
 14 30  1  0
 14 31  1  0
 14 32  1  0
 15 33  1  0
 16 34  1  0
 22 35  1  0
 24 36  1  0
M  END
>  <minimizedAffinity>  (1) 
-7.14680958

>  <minimizedRMSD>  (1) 
0.263516247

$$$$
