
     RDKit          3D

 45 48  0  0  1  0  0  0  0  0999 V2000
   46.6800   33.2380   45.0700 C   0  0  0  0  0  0  0  0  0  0  0  0
   45.7190   34.1210   44.3510 C   0  0  0  0  0  0  0  0  0  0  0  0
   45.0030   35.0490   45.0520 C   0  0  0  0  0  0  0  0  0  0  0  0
   44.1990   35.7230   44.1680 C   0  0  0  0  0  0  0  0  0  0  0  0
   44.4870   35.1430   42.9540 N   0  0  0  0  0  0  0  0  0  0  0  0
   45.3790   34.2000   43.0560 N   0  0  0  0  0  0  0  0  0  0  0  0
   44.3960   34.7150   40.5850 N   0  0  0  0  0  0  0  0  0  0  0  0
   43.2650   34.2610   39.8030 C   0  0  0  0  0  0  0  0  0  0  0  0
   42.2210   34.0250   40.8920 C   0  0  0  0  0  0  0  0  0  0  0  0
   42.3800   35.2960   41.7160 C   0  0  0  0  0  0  0  0  0  0  0  0
   43.8810   35.5110   41.6670 C   0  0  1  0  0  0  0  0  0  0  0  0
   46.0310   31.9450   45.3120 C   0  0  2  0  0  0  0  0  0  0  0  0
   45.8370   32.2510   48.9800 C   0  0  0  0  0  0  0  0  0  0  0  0
   45.4080   30.9270   49.3580 C   0  0  0  0  0  0  0  0  0  0  0  0
   45.2080   29.9660   48.3180 C   0  0  0  0  0  0  0  0  0  0  0  0
   45.4300   30.3450   47.0180 N   0  0  0  0  0  0  0  0  0  0  0  0
   45.8270   31.5900   46.7270 C   0  0  0  0  0  0  0  0  0  0  0  0
   46.0280   32.5320   47.7010 N   0  0  0  0  0  0  0  0  0  0  0  0
   46.8150   30.7910   44.6290 C   0  0  0  0  0  0  0  0  0  0  0  0
   47.9970   31.2990   43.8880 C   0  0  0  0  0  0  0  0  0  0  0  0
   48.0440   30.9240   42.4150 C   0  0  0  0  0  0  0  0  0  0  0  0
   48.9720   30.2120   43.3550 C   0  0  0  0  0  0  0  0  0  0  0  0
   46.9605   33.6978   46.0291 H   0  0  0  0  0  0  0  0  0  0  0  0
   47.5880   33.0971   44.4653 H   0  0  0  0  0  0  0  0  0  0  0  0
   45.0609   35.2253   46.1362 H   0  0  0  0  0  0  0  0  0  0  0  0
   43.4899   36.5368   44.3801 H   0  0  0  0  0  0  0  0  0  0  0  0
   45.0240   35.2828   39.9984 H   0  0  0  0  0  0  0  0  0  0  0  0
   42.9349   35.0299   39.0890 H   0  0  0  0  0  0  0  0  0  0  0  0
   43.4737   33.3779   39.1812 H   0  0  0  0  0  0  0  0  0  0  0  0
   41.2084   33.9390   40.4709 H   0  0  0  0  0  0  0  0  0  0  0  0
   42.3565   33.0928   41.4600 H   0  0  0  0  0  0  0  0  0  0  0  0
   41.8395   36.1389   41.2607 H   0  0  0  0  0  0  0  0  0  0  0  0
   41.9736   35.2201   42.7354 H   0  0  0  0  0  0  0  0  0  0  0  0
   44.1260   36.5690   41.4924 H   0  0  0  0  0  0  0  0  0  0  0  0
   45.0309   32.0717   44.8718 H   0  0  0  0  0  0  0  0  0  0  0  0
   46.0040   33.0205   49.7481 H   0  0  0  0  0  0  0  0  0  0  0  0
   45.2399   30.6646   50.4129 H   0  0  0  0  0  0  0  0  0  0  0  0
   44.8824   28.9425   48.5556 H   0  0  0  0  0  0  0  0  0  0  0  0
   47.1538   30.0837   45.4004 H   0  0  0  0  0  0  0  0  0  0  0  0
   46.1444   30.2964   43.9109 H   0  0  0  0  0  0  0  0  0  0  0  0
   48.0963   32.2256   44.4724 H   0  0  0  0  0  0  0  0  0  0  0  0
   48.4515   31.6379   41.6840 H   0  0  0  0  0  0  0  0  0  0  0  0
   47.2915   30.5932   41.6840 H   0  0  0  0  0  0  0  0  0  0  0  0
   48.8029   29.1528   43.5991 H   0  0  0  0  0  0  0  0  0  0  0  0
   50.0587   30.0482   43.4029 H   0  0  0  0  0  0  0  0  0  0  0  0
  1 12  1  0
  2  3  1  0
  2  1  1  0
  4  3  2  0
  5  6  1  0
  5  4  1  0
  6  2  2  0
  7 11  1  0
  8  7  1  0
  8  9  1  0
  9 10  1  0
 11 10  1  0
 11  5  1  0
 12 17  1  0
 13 14  2  0
 15 14  1  0
 16 15  2  0
 17 16  1  0
 17 18  2  0
 18 13  1  0
 19 12  1  0
 20 19  1  0
 21 22  1  0
 21 20  1  0
 22 20  1  0
  1 23  1  0
  1 24  1  0
  3 25  1  0
  4 26  1  0
  7 27  1  0
  8 28  1  0
  8 29  1  0
  9 30  1  0
  9 31  1  0
 10 32  1  0
 10 33  1  0
 11 34  1  6
 12 35  1  6
 13 36  1  0
 14 37  1  0
 15 38  1  0
 19 39  1  0
 19 40  1  0
 20 41  1  0
 21 42  1  0
 21 43  1  0
 22 44  1  0
 22 45  1  0
M  ISO  8  23   8  24   8  25  14  26  14  27   5  28  13  29  13  30  13
M  ISO  8  31  13  32  13  33  13  34  13  35   8  36  14  37  14  38  14
M  ISO  7  39   8  40   8  41  13  42  13  43  13  44  13  45  13
M  END
>  <minimizedAffinity>  (1) 
-5.05687189

>  <minimizedRMSD>  (1) 
0.747522652

$$$$
