
     RDKit          3D

 35 37  0  0  0  0  0  0  0  0999 V2000
   45.5030   33.7170   46.0920 C   0  0  0  0  0  0  0  0  0  0  0  0
   44.6980   34.7630   46.3640 C   0  0  0  0  0  0  0  0  0  0  0  0
   44.4830   35.5540   44.7440 S   0  0  0  0  0  0  0  0  0  0  0  0
   45.5870   34.2540   43.9360 C   0  0  0  0  0  0  0  0  0  0  0  0
   45.8600   33.5930   44.8540 N   0  0  0  0  0  0  0  0  0  0  0  0
   45.4760   31.2930   49.0420 C   0  0  0  0  0  0  0  0  0  0  0  0
   45.0390   32.1610   48.0400 C   0  0  0  0  0  0  0  0  0  0  0  0
   45.9400   32.7820   47.1720 C   0  0  0  0  0  0  0  0  0  0  0  0
   47.2180   32.4670   47.3950 N   0  0  0  0  0  0  0  0  0  0  0  0
   47.6750   31.6420   48.3440 C   0  0  0  0  0  0  0  0  0  0  0  0
   46.7890   31.0750   49.1440 N   0  0  0  0  0  0  0  0  0  0  0  0
   45.9510   34.1930   42.4580 C   0  0  0  0  0  0  0  0  0  0  0  0
   44.6310   34.3680   41.7260 C   0  0  0  0  0  0  0  0  0  0  0  0
   46.5610   32.8460   42.2140 C   0  0  0  0  0  0  0  0  0  0  0  0
   46.8880   35.2950   42.1160 C   0  0  0  0  0  0  0  0  0  0  0  0
   48.2050   34.9380   41.5520 C   0  0  0  0  0  0  0  0  0  0  0  0
   48.7670   35.3500   40.2790 C   0  0  0  0  0  0  0  0  0  0  0  0
   49.2130   36.0930   41.4920 C   0  0  0  0  0  0  0  0  0  0  0  0
   44.2738   35.0646   47.3331 H   0  0  0  0  0  0  0  0  0  0  0  0
   44.7634   30.8057   49.7237 H   0  0  0  0  0  0  0  0  0  0  0  0
   43.9626   32.3601   47.9317 H   0  0  0  0  0  0  0  0  0  0  0  0
   48.7511   31.4425   48.4545 H   0  0  0  0  0  0  0  0  0  0  0  0
   43.8172   34.4759   42.4582 H   0  0  0  0  0  0  0  0  0  0  0  0
   44.6781   35.2678   41.0950 H   0  0  0  0  0  0  0  0  0  0  0  0
   44.4421   33.4870   41.0950 H   0  0  0  0  0  0  0  0  0  0  0  0
   46.7799   32.3626   43.1776 H   0  0  0  0  0  0  0  0  0  0  0  0
   45.8573   32.2228   41.6427 H   0  0  0  0  0  0  0  0  0  0  0  0
   47.4936   32.9639   41.6427 H   0  0  0  0  0  0  0  0  0  0  0  0
   46.3815   35.9382   41.3813 H   0  0  0  0  0  0  0  0  0  0  0  0
   47.1224   35.7648   43.0826 H   0  0  0  0  0  0  0  0  0  0  0  0
   48.0848   33.9291   41.9736 H   0  0  0  0  0  0  0  0  0  0  0  0
   48.1253   35.8531   39.5407 H   0  0  0  0  0  0  0  0  0  0  0  0
   49.2970   34.8196   39.4741 H   0  0  0  0  0  0  0  0  0  0  0  0
   50.2335   35.9628   41.8814 H   0  0  0  0  0  0  0  0  0  0  0  0
   49.2349   37.1443   41.8148 H   0  0  0  0  0  0  0  0  0  0  0  0
  1  2  2  0
  1  8  1  0
  3  2  1  0
  4  3  1  0
  4  5  2  0
  5  1  1  0
  6 11  2  0
  7  6  1  0
  8  9  1  0
  8  7  2  0
  9 10  2  0
 10 11  1  0
 12  4  1  0
 13 12  1  0
 14 12  1  0
 15 12  1  0
 16 15  1  0
 17 18  1  0
 17 16  1  0
 18 16  1  0
  2 19  1  0
  6 20  1  0
  7 21  1  0
 10 22  1  0
 13 23  1  0
 13 24  1  0
 13 25  1  0
 14 26  1  0
 14 27  1  0
 14 28  1  0
 15 29  1  0
 15 30  1  0
 16 31  1  0
 17 32  1  0
 17 33  1  0
 18 34  1  0
 18 35  1  0
M  ISO  8  19  14  20  14  21  14  22  14  23   8  24   8  25   8  26   8
M  ISO  8  27   8  28   8  29   8  30   8  31  13  32  13  33  13  34  13
M  ISO  1  35  13
M  END
>  <minimizedAffinity>  (1) 
-5.33785677

>  <minimizedRMSD>  (1) 
2.29024386

$$$$
