
     RDKit          3D

 54 59  0  0  1  0  0  0  0  0999 V2000
   49.0760   35.4260   41.9730 C   0  0  0  0  0  0  0  0  0  0  0  0
   46.8030   34.4700   41.4210 C   0  0  0  0  0  0  0  0  0  0  0  0
   48.1060   34.7850   41.0530 C   0  0  0  0  0  0  0  0  0  0  0  0
   48.3380   34.4370   39.7990 N   0  0  0  0  0  0  0  0  0  0  0  0
   47.1890   33.8900   39.3340 C   0  0  0  0  0  0  0  0  0  0  0  0
   46.9020   33.3620   38.0680 C   0  0  0  0  0  0  0  0  0  0  0  0
   45.6540   32.8640   37.8470 C   0  0  0  0  0  0  0  0  0  0  0  0
   44.6340   32.8390   38.7840 C   0  0  0  0  0  0  0  0  0  0  0  0
   44.9820   33.3700   40.0010 C   0  0  0  0  0  0  0  0  0  0  0  0
   46.2160   33.8920   40.3070 C   0  0  0  0  0  0  0  0  0  0  0  0
   44.7380   36.0410   44.0970 C   0  0  0  0  0  0  0  0  0  0  0  0
   45.3660   35.8440   42.8600 C   0  0  0  0  0  0  0  0  0  0  0  0
   46.1440   34.6850   42.7080 C   0  0  0  0  0  0  0  0  0  0  0  0
   46.2650   33.8040   43.7470 N   0  0  0  0  0  0  0  0  0  0  0  0
   45.6310   34.0540   44.9230 C   0  0  0  0  0  0  0  0  0  0  0  0
   44.8720   35.1620   45.1010 N   0  0  0  0  0  0  0  0  0  0  0  0
   50.0290   34.4280   42.5630 C   0  0  0  0  0  0  0  0  0  0  0  0
   50.1670   33.1600   41.7610 C   0  0  1  0  0  0  0  0  0  0  0  0
   51.4010   32.4040   41.6460 C   0  0  0  0  0  0  0  0  0  0  0  0
   50.3980   31.9040   42.6260 C   0  0  2  0  0  0  0  0  0  0  0  0
   49.7360   30.7540   42.3170 O   0  0  0  0  0  0  0  0  0  0  0  0
   48.4240   30.5440   42.0330 C   0  0  0  0  0  0  0  0  0  0  0  0
   47.9400   30.3920   40.7510 C   0  0  0  0  0  0  0  0  0  0  0  0
   46.6150   30.1740   40.3850 C   0  0  0  0  0  0  0  0  0  0  0  0
   45.7170   30.1090   41.4550 C   0  0  0  0  0  0  0  0  0  0  0  0
   46.1760   30.2560   42.7470 C   0  0  0  0  0  0  0  0  0  0  0  0
   45.2010   30.1740   43.7370 C   0  0  0  0  0  0  0  0  0  0  0  0
   45.5930   30.3150   45.0610 C   0  0  0  0  0  0  0  0  0  0  0  0
   46.9130   30.5320   45.4190 C   0  0  0  0  0  0  0  0  0  0  0  0
   47.8390   30.6040   44.3910 C   0  0  0  0  0  0  0  0  0  0  0  0
   47.4960   30.4710   43.0630 C   0  0  0  0  0  0  0  0  0  0  0  0
   48.5232   35.9154   42.7884 H   0  0  0  0  0  0  0  0  0  0  0  0
   49.6612   36.1577   41.3967 H   0  0  0  0  0  0  0  0  0  0  0  0
   49.2184   34.5578   39.2783 H   0  0  0  0  0  0  0  0  0  0  0  0
   47.6639   33.3502   37.2746 H   0  0  0  0  0  0  0  0  0  0  0  0
   45.4399   32.4508   36.8503 H   0  0  0  0  0  0  0  0  0  0  0  0
   43.6350   32.4304   38.5718 H   0  0  0  0  0  0  0  0  0  0  0  0
   44.2160   33.3784   40.7904 H   0  0  0  0  0  0  0  0  0  0  0  0
   44.1201   36.9384   44.2483 H   0  0  0  0  0  0  0  0  0  0  0  0
   45.2539   36.5688   42.0402 H   0  0  0  0  0  0  0  0  0  0  0  0
   45.7369   33.3383   45.7516 H   0  0  0  0  0  0  0  0  0  0  0  0
   51.0202   34.8992   42.6374 H   0  0  0  0  0  0  0  0  0  0  0  0
   49.6204   34.1404   43.5430 H   0  0  0  0  0  0  0  0  0  0  0  0
   49.4770   33.5349   40.9907 H   0  0  0  0  0  0  0  0  0  0  0  0
   51.5978   31.8260   40.7310 H   0  0  0  0  0  0  0  0  0  0  0  0
   52.4649   32.6734   41.7206 H   0  0  0  0  0  0  0  0  0  0  0  0
   50.3697   31.6763   43.7018 H   0  0  0  0  0  0  0  0  0  0  0  0
   48.6754   30.4488   39.9349 H   0  0  0  0  0  0  0  0  0  0  0  0
   46.2993   30.0618   39.3373 H   0  0  0  0  0  0  0  0  0  0  0  0
   44.6464   29.9409   41.2664 H   0  0  0  0  0  0  0  0  0  0  0  0
   44.1462   30.0018   43.4766 H   0  0  0  0  0  0  0  0  0  0  0  0
   44.8305   30.2524   45.8514 H   0  0  0  0  0  0  0  0  0  0  0  0
   47.2127   30.6422   46.4716 H   0  0  0  0  0  0  0  0  0  0  0  0
   48.8952   30.7750   44.6463 H   0  0  0  0  0  0  0  0  0  0  0  0
  1 17  1  0
  2 13  1  0
  3  2  2  0
  3  1  1  0
  4  3  1  0
  5  4  1  0
  5 10  2  0
  6  5  1  0
  7  6  2  0
  7  8  1  0
  8  9  2  0
  9 10  1  0
 10  2  1  0
 11 16  2  0
 12 11  1  0
 13 12  2  0
 13 14  1  0
 14 15  2  0
 15 16  1  0
 18 17  1  0
 18 20  1  0
 19 18  1  0
 19 20  1  0
 21 20  1  0
 22 21  1  0
 22 31  1  0
 23 22  2  0
 24 23  1  0
 24 25  2  0
 25 26  1  0
 26 31  2  0
 26 27  1  0
 27 28  2  0
 28 29  1  0
 30 29  2  0
 31 30  1  0
  1 32  1  0
  1 33  1  0
  4 34  1  0
  6 35  1  0
  7 36  1  0
  8 37  1  0
  9 38  1  0
 11 39  1  0
 12 40  1  0
 15 41  1  0
 17 42  1  0
 17 43  1  0
 18 44  1  6
 19 45  1  0
 19 46  1  0
 20 47  1  1
 23 48  1  0
 24 49  1  0
 25 50  1  0
 27 51  1  0
 28 52  1  0
 29 53  1  0
 30 54  1  0
M  ISO  8  32   8  33   8  34   9  35  14  36  14  37  14  38  14  39  14
M  ISO  8  40  14  41  14  42   8  43   8  44  13  45  13  46  13  47  13
M  ISO  7  48  14  49  14  50  14  51  14  52  14  53  14  54  14
M  END
>  <minimizedAffinity>  (1) 
-5.86521578

>  <minimizedRMSD>  (1) 
0.796435893

$$$$
