
     RDKit          3D

 24 26  0  0  0  0  0  0  0  0999 V2000
   46.0450   32.9420   45.9850 C   0  0  0  0  0  0  0  0  0  0  0  0
   45.6990   32.6810   47.2960 C   0  0  0  0  0  0  0  0  0  0  0  0
   46.1800   31.5570   47.8980 C   0  0  0  0  0  0  0  0  0  0  0  0
   47.0050   30.7440   47.1160 C   0  0  0  0  0  0  0  0  0  0  0  0
   47.0880   31.5750   45.5460 S   0  0  0  0  0  0  0  0  0  0  0  0
   44.4630   36.0130   44.7650 C   0  0  0  0  0  0  0  0  0  0  0  0
   45.0210   36.1120   43.4580 C   0  0  0  0  0  0  0  0  0  0  0  0
   45.9330   35.1100   43.0340 C   0  0  0  0  0  0  0  0  0  0  0  0
   46.2230   34.1010   43.9130 N   0  0  0  0  0  0  0  0  0  0  0  0
   45.6670   34.0540   45.1400 C   0  0  0  0  0  0  0  0  0  0  0  0
   44.7970   34.9940   45.5670 N   0  0  0  0  0  0  0  0  0  0  0  0
   47.6600   29.5080   47.4540 C   0  0  0  0  0  0  0  0  0  0  0  0
   48.8850   29.4040   48.0750 C   0  0  0  0  0  0  0  0  0  0  0  0
   49.0710   28.0220   48.1760 C   0  0  0  0  0  0  0  0  0  0  0  0
   47.9590   27.4040   47.6170 C   0  0  0  0  0  0  0  0  0  0  0  0
   47.1370   28.3360   47.1960 O   0  0  0  0  0  0  0  0  0  0  0  0
   45.0436   33.3713   47.8473 H   0  0  0  0  0  0  0  0  0  0  0  0
   45.9331   31.3041   48.9397 H   0  0  0  0  0  0  0  0  0  0  0  0
   43.7544   36.7772   45.1170 H   0  0  0  0  0  0  0  0  0  0  0  0
   44.7515   36.9455   42.7927 H   0  0  0  0  0  0  0  0  0  0  0  0
   46.3907   35.1431   42.0343 H   0  0  0  0  0  0  0  0  0  0  0  0
   49.5535   30.2109   48.4096 H   0  0  0  0  0  0  0  0  0  0  0  0
   49.9412   27.5150   48.6184 H   0  0  0  0  0  0  0  0  0  0  0  0
   47.7958   26.3189   47.5405 H   0  0  0  0  0  0  0  0  0  0  0  0
  1  2  2  0
  2  3  1  0
  4 12  1  0
  4  3  2  0
  5  1  1  0
  5  4  1  0
  6 11  2  0
  7  6  1  0
  8  7  2  0
  8  9  1  0
  9 10  2  0
 10 11  1  0
 10  1  1  0
 12 13  2  0
 13 14  1  0
 15 14  2  0
 16 12  1  0
 16 15  1  0
  2 17  1  0
  3 18  1  0
  6 19  1  0
  7 20  1  0
  8 21  1  0
 13 22  1  0
 14 23  1  0
 15 24  1  0
M  ISO  8  17  14  18  14  19  14  20  14  21  14  22  14  23  14  24  14
M  END
>  <minimizedAffinity>  (1) 
-4.40379047

>  <minimizedRMSD>  (1) 
1.40426278

$$$$
