
     RDKit          3D

 24 26  0  0  0  0  0  0  0  0999 V2000
   44.1100   33.9090   41.5660 N   0  0  0  0  0  0  0  0  0  0  0  0
   44.8870   33.8370   40.4850 C   0  0  0  0  0  0  0  0  0  0  0  0
   43.9990   33.5370   39.4070 C   0  0  0  0  0  0  0  0  0  0  0  0
   42.7460   33.4500   39.8800 N   0  0  0  0  0  0  0  0  0  0  0  0
   42.7970   33.6770   41.2040 C   0  0  0  0  0  0  0  0  0  0  0  0
   44.1650   35.4390   43.4010 C   0  0  0  0  0  0  0  0  0  0  0  0
   44.4900   34.1270   42.8910 C   0  0  0  0  0  0  0  0  0  0  0  0
   45.1260   33.2140   43.7490 C   0  0  0  0  0  0  0  0  0  0  0  0
   45.4160   33.5980   45.0240 N   0  0  0  0  0  0  0  0  0  0  0  0
   45.0930   34.8520   45.4710 C   0  0  0  0  0  0  0  0  0  0  0  0
   44.4720   35.7670   44.6670 N   0  0  0  0  0  0  0  0  0  0  0  0
   46.2860   34.0050   40.1880 C   0  0  0  0  0  0  0  0  0  0  0  0
   47.3580   34.5500   40.8330 C   0  0  0  0  0  0  0  0  0  0  0  0
   48.5230   34.4820   40.1250 C   0  0  0  0  0  0  0  0  0  0  0  0
   48.1000   33.8540   38.9850 C   0  0  0  0  0  0  0  0  0  0  0  0
   46.8260   33.6040   39.0660 O   0  0  0  0  0  0  0  0  0  0  0  0
   44.2950   33.3992   38.3566 H   0  0  0  0  0  0  0  0  0  0  0  0
   41.9348   33.6779   41.8871 H   0  0  0  0  0  0  0  0  0  0  0  0
   43.6646   36.1716   42.7507 H   0  0  0  0  0  0  0  0  0  0  0  0
   45.3858   32.2048   43.3970 H   0  0  0  0  0  0  0  0  0  0  0  0
   45.3402   35.1306   46.5060 H   0  0  0  0  0  0  0  0  0  0  0  0
   47.2895   35.0031   41.8330 H   0  0  0  0  0  0  0  0  0  0  0  0
   49.5285   34.8358   40.3968 H   0  0  0  0  0  0  0  0  0  0  0  0
   48.7413   33.5988   38.1285 H   0  0  0  0  0  0  0  0  0  0  0  0
  1  7  1  0
  2  1  1  0
  3  4  1  0
  3  2  2  0
  4  5  2  0
  5  1  1  0
  6 11  2  0
  7  6  1  0
  7  8  2  0
  8  9  1  0
  9 10  2  0
 11 10  1  0
 12  2  1  0
 12 13  2  0
 14 13  1  0
 15 16  1  0
 15 14  2  0
 16 12  1  0
  3 17  1  0
  5 18  1  0
  6 19  1  0
  8 20  1  0
 10 21  1  0
 13 22  1  0
 14 23  1  0
 15 24  1  0
M  ISO  8  17  14  18  14  19  14  20  14  21  14  22  14  23  14  24  14
M  END
>  <minimizedAffinity>  (1) 
-4.0415411

>  <minimizedRMSD>  (1) 
1.73436344

$$$$
