
     RDKit          3D

 44 47  0  0  0  0  0  0  0  0999 V2000
   44.1650   33.3990   39.2000 C   0  0  0  0  0  0  0  0  0  0  0  0
   44.8810   33.9250   40.3640 C   0  0  0  0  0  0  0  0  0  0  0  0
   44.6540   34.9180   41.2330 N   0  0  0  0  0  0  0  0  0  0  0  0
   45.6190   34.9900   42.1220 O   0  0  0  0  0  0  0  0  0  0  0  0
   46.5010   34.0440   41.8560 C   0  0  0  0  0  0  0  0  0  0  0  0
   46.0440   33.3930   40.7750 N   0  0  0  0  0  0  0  0  0  0  0  0
   47.5800   34.0120   42.7290 O   0  0  0  0  0  0  0  0  0  0  0  0
   48.6250   33.1320   42.6840 C   0  0  0  0  0  0  0  0  0  0  0  0
   49.8030   33.7200   42.2060 C   0  0  0  0  0  0  0  0  0  0  0  0
   50.9660   32.9780   42.0920 C   0  0  0  0  0  0  0  0  0  0  0  0
   50.9930   31.6440   42.4460 C   0  0  0  0  0  0  0  0  0  0  0  0
   49.8430   31.0680   42.9120 C   0  0  0  0  0  0  0  0  0  0  0  0
   49.7410   29.7430   43.2950 C   0  0  0  0  0  0  0  0  0  0  0  0
   48.5600   29.1810   43.7660 C   0  0  0  0  0  0  0  0  0  0  0  0
   47.4090   29.9680   43.8640 C   0  0  0  0  0  0  0  0  0  0  0  0
   47.4880   31.2940   43.4860 C   0  0  0  0  0  0  0  0  0  0  0  0
   48.6880   31.7980   43.0270 C   0  0  0  0  0  0  0  0  0  0  0  0
   42.7870   32.8660   39.5000 C   0  0  0  0  0  0  0  0  0  0  0  0
   40.3360   34.7990   41.4210 C   0  0  0  0  0  0  0  0  0  0  0  0
   40.0060   35.8630   40.5560 C   0  0  0  0  0  0  0  0  0  0  0  0
   40.6350   35.9050   39.3070 C   0  0  0  0  0  0  0  0  0  0  0  0
   41.5390   34.9150   38.9870 N   0  0  0  0  0  0  0  0  0  0  0  0
   41.8130   33.9200   39.8650 C   0  0  0  0  0  0  0  0  0  0  0  0
   41.2130   33.8730   41.0630 N   0  0  0  0  0  0  0  0  0  0  0  0
   42.2850   32.1570   38.2660 C   0  0  0  0  0  0  0  0  0  0  0  0
   42.8370   31.8140   40.5850 C   0  0  0  0  0  0  0  0  0  0  0  0
   44.7628   32.5821   38.7696 H   0  0  0  0  0  0  0  0  0  0  0  0
   44.0292   34.2440   38.5090 H   0  0  0  0  0  0  0  0  0  0  0  0
   49.8039   34.7817   41.9184 H   0  0  0  0  0  0  0  0  0  0  0  0
   51.8809   33.4578   41.7143 H   0  0  0  0  0  0  0  0  0  0  0  0
   51.9189   31.0570   42.3554 H   0  0  0  0  0  0  0  0  0  0  0  0
   50.6344   29.1053   43.2237 H   0  0  0  0  0  0  0  0  0  0  0  0
   48.5314   28.1215   44.0603 H   0  0  0  0  0  0  0  0  0  0  0  0
   46.4643   29.5420   44.2328 H   0  0  0  0  0  0  0  0  0  0  0  0
   46.6021   31.9429   43.5502 H   0  0  0  0  0  0  0  0  0  0  0  0
   39.8571   34.7371   42.4094 H   0  0  0  0  0  0  0  0  0  0  0  0
   39.2791   36.6333   40.8531 H   0  0  0  0  0  0  0  0  0  0  0  0
   40.4124   36.7126   38.5941 H   0  0  0  0  0  0  0  0  0  0  0  0
   41.6730   31.2926   38.5632 H   0  0  0  0  0  0  0  0  0  0  0  0
   41.6750   32.8498   37.6677 H   0  0  0  0  0  0  0  0  0  0  0  0
   43.1411   31.8118   37.6677 H   0  0  0  0  0  0  0  0  0  0  0  0
   42.8138   32.3022   41.5704 H   0  0  0  0  0  0  0  0  0  0  0  0
   41.9697   31.1446   40.4869 H   0  0  0  0  0  0  0  0  0  0  0  0
   43.7639   31.2299   40.4869 H   0  0  0  0  0  0  0  0  0  0  0  0
  1 18  1  0
  1  2  1  0
  2  6  1  0
  2  3  2  0
  3  4  1  0
  5  4  1  0
  5  7  1  0
  6  5  2  0
  8  7  1  0
  8 17  1  0
  9  8  2  0
 10  9  1  0
 10 11  2  0
 11 12  1  0
 12 17  2  0
 12 13  1  0
 13 14  2  0
 14 15  1  0
 16 15  2  0
 17 16  1  0
 18 23  1  0
 18 26  1  0
 20 19  2  0
 21 20  1  0
 22 21  2  0
 22 23  1  0
 23 24  2  0
 24 19  1  0
 25 18  1  0
  1 27  1  0
  1 28  1  0
  9 29  1  0
 10 30  1  0
 11 31  1  0
 13 32  1  0
 14 33  1  0
 15 34  1  0
 16 35  1  0
 19 36  1  0
 20 37  1  0
 21 38  1  0
 25 39  1  0
 25 40  1  0
 25 41  1  0
 26 42  1  0
 26 43  1  0
 26 44  1  0
M  ISO  8  27   8  28   8  29  14  30  14  31  14  32  14  33  14  34  14
M  ISO  8  35  14  36  14  37  14  38  14  39   8  40   8  41   8  42   8
M  ISO  2  43   8  44   8
M  END
>  <minimizedAffinity>  (1) 
-4.8993144

>  <minimizedRMSD>  (1) 
4.05721617

$$$$
