
     RDKit          3D

 19 20  0  0  0  0  0  0  0  0999 V2000
   45.5050   35.0340   43.9510 C   0  0  0  0  0  0  0  0  0  0  0  0
   46.6040   34.3660   43.4310 C   0  0  0  0  0  0  0  0  0  0  0  0
   47.1240   33.3820   44.2530 C   0  0  0  0  0  0  0  0  0  0  0  0
   46.5730   33.1210   45.4630 N   0  0  0  0  0  0  0  0  0  0  0  0
   45.5070   33.7930   45.9240 C   0  0  0  0  0  0  0  0  0  0  0  0
   44.9830   34.7410   45.1680 N   0  0  0  0  0  0  0  0  0  0  0  0
   47.2470   34.5530   42.1390 C   0  0  0  0  0  0  0  0  0  0  0  0
   48.3170   35.3700   41.9150 C   0  0  0  0  0  0  0  0  0  0  0  0
   48.6930   35.3310   40.5950 C   0  0  0  0  0  0  0  0  0  0  0  0
   47.7960   34.4510   40.0330 C   0  0  0  0  0  0  0  0  0  0  0  0
   46.9940   34.0400   40.9710 O   0  0  0  0  0  0  0  0  0  0  0  0
   44.9650   36.0850   43.1050 C   0  0  0  0  0  0  0  0  0  0  0  0
   45.1960   37.3330   43.2800 O   0  0  0  0  0  0  0  0  0  0  0  0
   47.9977   32.8030   43.9192 H   0  0  0  0  0  0  0  0  0  0  0  0
   45.0788   33.5595   46.9100 H   0  0  0  0  0  0  0  0  0  0  0  0
   48.8113   35.9775   42.6874 H   0  0  0  0  0  0  0  0  0  0  0  0
   49.5145   35.8733   40.1040 H   0  0  0  0  0  0  0  0  0  0  0  0
   47.7632   34.1484   38.9760 H   0  0  0  0  0  0  0  0  0  0  0  0
   44.3194   35.7915   42.2642 H   0  0  0  0  0  0  0  0  0  0  0  0
  1  6  2  0
  2  1  1  0
  2  3  2  0
  3  4  1  0
  4  5  2  0
  6  5  1  0
  7  2  1  0
  8  7  2  0
  9  8  1  0
 10  9  2  0
 10 11  1  0
 11  7  1  0
 12 13  2  0
 12  1  1  0
  3 14  1  0
  5 15  1  0
  8 16  1  0
  9 17  1  0
 10 18  1  0
 12 19  1  0
M  ISO  6  14  14  15  14  16  14  17  14  18  14  19   6
M  END
>  <minimizedAffinity>  (1) 
-4.38924408

>  <minimizedRMSD>  (1) 
0.762109756

$$$$
