
     RDKit          3D

 35 36  0  0  1  0  0  0  0  0999 V2000
   44.5740   34.9800   42.3940 C   0  0  1  0  0  0  0  0  0  0  0  0
   45.8470   34.7330   41.6640 C   0  0  0  0  0  0  0  0  0  0  0  0
   47.0070   35.2760   42.2550 C   0  0  0  0  0  0  0  0  0  0  0  0
   48.2360   35.0760   41.6140 C   0  0  0  0  0  0  0  0  0  0  0  0
   48.2340   34.3520   40.4360 N   0  0  0  0  0  0  0  0  0  0  0  0
   47.0950   33.8460   39.9050 C   0  0  0  0  0  0  0  0  0  0  0  0
   45.9350   34.0440   40.5210 N   0  0  0  0  0  0  0  0  0  0  0  0
   44.8220   35.7370   43.6840 C   0  0  0  0  0  0  0  0  0  0  0  0
   43.5610   35.6620   41.5060 C   0  0  0  0  0  0  0  0  0  0  0  0
   42.4310   34.7490   41.1090 C   0  0  0  0  0  0  0  0  0  0  0  0
   42.2160   34.6430   39.6480 C   0  0  0  0  0  0  0  0  0  0  0  0
   40.7700   34.1620   39.4500 C   0  0  0  0  0  0  0  0  0  0  0  0
   39.8050   35.2970   39.6580 C   0  0  0  0  0  0  0  0  0  0  0  0
   40.4360   36.2080   40.7050 C   0  0  0  0  0  0  0  0  0  0  0  0
   41.1610   35.3350   41.7160 C   0  0  0  0  0  0  0  0  0  0  0  0
   44.1430   34.0081   42.6761 H   0  0  0  0  0  0  0  0  0  0  0  0
   46.9477   35.8425   43.1960 H   0  0  0  0  0  0  0  0  0  0  0  0
   49.1694   35.4804   42.0326 H   0  0  0  0  0  0  0  0  0  0  0  0
   47.1307   33.2730   38.9667 H   0  0  0  0  0  0  0  0  0  0  0  0
   44.6073   35.0815   44.5409 H   0  0  0  0  0  0  0  0  0  0  0  0
   45.8728   36.0597   43.7235 H   0  0  0  0  0  0  0  0  0  0  0  0
   44.1658   36.6190   43.7235 H   0  0  0  0  0  0  0  0  0  0  0  0
   43.1437   36.5249   42.0457 H   0  0  0  0  0  0  0  0  0  0  0  0
   44.0788   35.9707   40.5859 H   0  0  0  0  0  0  0  0  0  0  0  0
   42.6814   33.7392   41.4662 H   0  0  0  0  0  0  0  0  0  0  0  0
   42.3581   35.6242   39.1714 H   0  0  0  0  0  0  0  0  0  0  0  0
   42.9323   33.9439   39.1916 H   0  0  0  0  0  0  0  0  0  0  0  0
   40.6550   33.7715   38.4281 H   0  0  0  0  0  0  0  0  0  0  0  0
   40.5539   33.3718   40.1840 H   0  0  0  0  0  0  0  0  0  0  0  0
   39.6538   35.8459   38.7168 H   0  0  0  0  0  0  0  0  0  0  0  0
   38.8214   34.9306   39.9871 H   0  0  0  0  0  0  0  0  0  0  0  0
   41.1503   36.8915   40.2226 H   0  0  0  0  0  0  0  0  0  0  0  0
   39.6609   36.8070   41.2055 H   0  0  0  0  0  0  0  0  0  0  0  0
   40.4973   34.5146   42.0265 H   0  0  0  0  0  0  0  0  0  0  0  0
   41.4360   35.9525   42.5838 H   0  0  0  0  0  0  0  0  0  0  0  0
  1  8  1  0
  2  3  2  0
  2  1  1  0
  4  3  1  0
  5  4  2  0
  6  5  1  0
  6  7  2  0
  7  2  1  0
  9  1  1  0
 10  9  1  0
 10 15  1  0
 11 10  1  0
 12 11  1  0
 12 13  1  0
 13 14  1  0
 14 15  1  0
  1 16  1  1
  3 17  1  0
  4 18  1  0
  6 19  1  0
  8 20  1  0
  8 21  1  0
  8 22  1  0
  9 23  1  0
  9 24  1  0
 10 25  1  0
 11 26  1  0
 11 27  1  0
 12 28  1  0
 12 29  1  0
 13 30  1  0
 13 31  1  0
 14 32  1  0
 14 33  1  0
 15 34  1  0
 15 35  1  0
M  ISO  8  16   8  17  14  18  14  19  14  20   8  21   8  22   8  23   8
M  ISO  8  24   8  25  13  26  13  27  13  28  13  29  13  30  13  31  13
M  ISO  4  32  13  33  13  34  13  35  13
M  END
>  <minimizedAffinity>  (1) 
-4.91755438

>  <minimizedRMSD>  (1) 
3.26143384

$$$$
