
     RDKit          3D

 53 56  0  0  1  0  0  0  0  0999 V2000
   45.9440   33.7080   42.1130 N   0  0  0  0  0  0  0  0  0  0  0  0
   47.1310   34.0000   41.3230 C   0  0  0  0  0  0  0  0  0  0  0  0
   46.5560   33.8670   39.9330 C   0  0  0  0  0  0  0  0  0  0  0  0
   45.8430   32.5420   40.0530 C   0  0  0  0  0  0  0  0  0  0  0  0
   45.2600   32.6000   41.4190 C   0  0  2  0  0  0  0  0  0  0  0  0
   44.5000   36.1090   44.5490 C   0  0  0  0  0  0  0  0  0  0  0  0
   44.9260   35.5760   43.3300 C   0  0  0  0  0  0  0  0  0  0  0  0
   45.4900   34.3140   43.2950 C   0  0  0  0  0  0  0  0  0  0  0  0
   45.6020   33.6480   44.4820 N   0  0  0  0  0  0  0  0  0  0  0  0
   45.1900   34.1650   45.6590 C   0  0  0  0  0  0  0  0  0  0  0  0
   44.6380   35.4030   45.6770 N   0  0  0  0  0  0  0  0  0  0  0  0
   45.3840   33.3340   46.7890 N   0  0  0  0  0  0  0  0  0  0  0  0
   43.8450   32.6520   41.5040 N   0  0  0  0  0  0  0  0  0  0  0  0
   43.0330   33.5170   40.8980 C   0  0  0  0  0  0  0  0  0  0  0  0
   41.6520   33.4980   41.0370 C   0  0  0  0  0  0  0  0  0  0  0  0
   41.0710   32.5350   41.8440 C   0  0  0  0  0  0  0  0  0  0  0  0
   39.8140   32.4540   42.0230 O   0  0  0  0  0  0  0  0  0  0  0  0
   41.8940   31.6630   42.4540 N   0  0  0  0  0  0  0  0  0  0  0  0
   43.2020   31.7350   42.2800 C   0  0  0  0  0  0  0  0  0  0  0  0
   43.9010   30.8690   42.8960 O   0  0  0  0  0  0  0  0  0  0  0  0
   40.7860   34.4600   40.3500 C   0  0  0  0  0  0  0  0  0  0  0  0
   40.1120   34.0260   39.1150 C   0  0  0  0  0  0  0  0  0  0  0  0
   40.7250   32.7600   38.5740 C   0  0  0  0  0  0  0  0  0  0  0  0
   39.6850   31.7210   38.2760 C   0  0  0  0  0  0  0  0  0  0  0  0
   38.5750   32.1600   37.3820 C   0  0  0  0  0  0  0  0  0  0  0  0
   38.2330   33.6010   37.6730 C   0  0  0  0  0  0  0  0  0  0  0  0
   38.6380   33.8500   39.1410 C   0  0  0  0  0  0  0  0  0  0  0  0
   47.5093   35.0152   41.5135 H   0  0  0  0  0  0  0  0  0  0  0  0
   47.9976   33.3552   41.5309 H   0  0  0  0  0  0  0  0  0  0  0  0
   47.3462   33.8347   39.1685 H   0  0  0  0  0  0  0  0  0  0  0  0
   45.9150   34.7047   39.6211 H   0  0  0  0  0  0  0  0  0  0  0  0
   45.0558   32.4459   39.2907 H   0  0  0  0  0  0  0  0  0  0  0  0
   46.5055   31.6773   39.9002 H   0  0  0  0  0  0  0  0  0  0  0  0
   45.4423   31.6373   41.9190 H   0  0  0  0  0  0  0  0  0  0  0  0
   44.0498   37.1121   44.5815 H   0  0  0  0  0  0  0  0  0  0  0  0
   44.8134   36.1572   42.4029 H   0  0  0  0  0  0  0  0  0  0  0  0
   45.0951   33.6588   47.7228 H   0  0  0  0  0  0  0  0  0  0  0  0
   45.8140   32.4048   46.6772 H   0  0  0  0  0  0  0  0  0  0  0  0
   43.4808   34.2874   40.2531 H   0  0  0  0  0  0  0  0  0  0  0  0
   41.5005   30.9315   43.0631 H   0  0  0  0  0  0  0  0  0  0  0  0
   40.0028   34.7609   41.0614 H   0  0  0  0  0  0  0  0  0  0  0  0
   41.4682   35.2588   40.0238 H   0  0  0  0  0  0  0  0  0  0  0  0
   40.2801   34.8960   38.4632 H   0  0  0  0  0  0  0  0  0  0  0  0
   41.2689   32.9954   37.6473 H   0  0  0  0  0  0  0  0  0  0  0  0
   41.4040   32.3548   39.3387 H   0  0  0  0  0  0  0  0  0  0  0  0
   40.1869   30.8667   37.7983 H   0  0  0  0  0  0  0  0  0  0  0  0
   39.2166   31.4778   39.2411 H   0  0  0  0  0  0  0  0  0  0  0  0
   37.6906   31.5304   37.5596 H   0  0  0  0  0  0  0  0  0  0  0  0
   38.8900   32.0632   36.3325 H   0  0  0  0  0  0  0  0  0  0  0  0
   38.7947   34.2692   37.0036 H   0  0  0  0  0  0  0  0  0  0  0  0
   37.1631   33.8000   37.5124 H   0  0  0  0  0  0  0  0  0  0  0  0
   38.3636   32.9889   39.7680 H   0  0  0  0  0  0  0  0  0  0  0  0
   38.1271   34.7272   39.5647 H   0  0  0  0  0  0  0  0  0  0  0  0
  1  8  1  0
  2  1  1  0
  3  4  1  0
  3  2  1  0
  4  5  1  0
  5 13  1  0
  5  1  1  0
  6 11  2  0
  7  6  1  0
  8  7  2  0
  8  9  1  0
  9 10  2  0
 10 11  1  0
 10 12  1  0
 13 19  1  0
 14 15  2  0
 14 13  1  0
 15 16  1  0
 16 17  2  0
 16 18  1  0
 19 18  1  0
 19 20  2  0
 21 15  1  0
 22 27  1  0
 22 21  1  0
 23 22  1  0
 24 23  1  0
 25 26  1  0
 25 24  1  0
 26 27  1  0
  2 28  1  0
  2 29  1  0
  3 30  1  0
  3 31  1  0
  4 32  1  0
  4 33  1  0
  5 34  1  1
  6 35  1  0
  7 36  1  0
 12 37  1  0
 12 38  1  0
 14 39  1  0
 18 40  1  0
 21 41  1  0
 21 42  1  0
 22 43  1  0
 23 44  1  0
 23 45  1  0
 24 46  1  0
 24 47  1  0
 25 48  1  0
 25 49  1  0
 26 50  1  0
 26 51  1  0
 27 52  1  0
 27 53  1  0
M  ISO  8  28  13  29  13  30  13  31  13  32  13  33  13  34  13  35  14
M  ISO  8  36  14  39  14  40   9  41   8  42   8  43  13  44  13  45  13
M  ISO  8  46  13  47  13  48  13  49  13  50  13  51  13  52  13  53  13
M  END
>  <minimizedAffinity>  (1) 
-6.99684668

>  <minimizedRMSD>  (1) 
1.22523522

$$$$
