
     RDKit          3D

 35 36  0  0  1  0  0  0  0  0999 V2000
   44.5060   35.6460   43.1470 C   0  0  1  0  0  0  0  0  0  0  0  0
   45.4860   34.6540   43.6370 C   0  0  0  0  0  0  0  0  0  0  0  0
   46.6930   34.4840   42.9060 C   0  0  0  0  0  0  0  0  0  0  0  0
   47.6680   33.5600   43.3210 C   0  0  0  0  0  0  0  0  0  0  0  0
   47.3800   32.8580   44.4440 N   0  0  0  0  0  0  0  0  0  0  0  0
   46.2360   33.0210   45.1340 C   0  0  0  0  0  0  0  0  0  0  0  0
   45.2800   33.9150   44.7430 N   0  0  0  0  0  0  0  0  0  0  0  0
   45.9530   32.2410   46.3380 C   0  0  0  0  0  0  0  0  0  0  0  0
   46.0560   30.8330   46.2670 C   0  0  0  0  0  0  0  0  0  0  0  0
   45.6010   30.3810   48.0070 S   0  0  0  0  0  0  0  0  0  0  0  0
   45.3640   32.1920   48.4810 C   0  0  0  0  0  0  0  0  0  0  0  0
   45.6050   32.6690   47.5040 N   0  0  0  0  0  0  0  0  0  0  0  0
   45.0430   37.0250   43.2760 C   0  0  0  0  0  0  0  0  0  0  0  0
   44.0630   35.3400   41.7470 C   0  0  0  0  0  0  0  0  0  0  0  0
   42.6930   35.0500   41.5780 N   0  0  0  0  0  0  0  0  0  0  0  0
   41.5280   34.2830   41.8140 C   0  0  0  0  0  0  0  0  0  0  0  0
   41.0890   35.4840   41.9290 O   0  0  0  0  0  0  0  0  0  0  0  0
   42.0980   35.2200   40.3580 C   0  0  0  0  0  0  0  0  0  0  0  0
   40.9770   35.9730   40.3290 F   0  0  0  0  0  0  0  0  0  0  0  0
   41.6720   33.8720   40.0210 F   0  0  0  0  0  0  0  0  0  0  0  0
   42.9790   35.6080   39.3460 F   0  0  0  0  0  0  0  0  0  0  0  0
   40.1810   34.4080   42.1040 O   0  0  0  0  0  0  0  0  0  0  0  0
   43.6091   35.5806   43.7804 H   0  0  0  0  0  0  0  0  0  0  0  0
   46.8671   35.0849   42.0012 H   0  0  0  0  0  0  0  0  0  0  0  0
   48.6077   33.4156   42.7677 H   0  0  0  0  0  0  0  0  0  0  0  0
   46.3290   30.1877   45.4191 H   0  0  0  0  0  0  0  0  0  0  0  0
   45.0731   32.6439   49.4408 H   0  0  0  0  0  0  0  0  0  0  0  0
   45.1429   37.2815   44.3410 H   0  0  0  0  0  0  0  0  0  0  0  0
   46.0288   37.0814   42.7913 H   0  0  0  0  0  0  0  0  0  0  0  0
   44.3550   37.7333   42.7913 H   0  0  0  0  0  0  0  0  0  0  0  0
   44.3013   36.2126   41.1210 H   0  0  0  0  0  0  0  0  0  0  0  0
   44.5963   34.4208   41.4631 H   0  0  0  0  0  0  0  0  0  0  0  0
   41.7583   34.2642   42.8895 H   0  0  0  0  0  0  0  0  0  0  0  0
   41.0049   35.7142   42.8882 H   0  0  0  0  0  0  0  0  0  0  0  0
   40.0545   34.4197   43.0858 H   0  0  0  0  0  0  0  0  0  0  0  0
  1 13  1  0
  1  2  1  0
  2  7  2  0
  3  4  2  0
  3  2  1  0
  4  5  1  0
  5  6  2  0
  6  8  1  0
  7  6  1  0
  8 12  1  0
  9  8  2  0
  9 10  1  0
 10 11  1  0
 12 11  2  0
 14  1  1  0
 15 14  1  0
 15 16  1  0
 16 17  1  0
 16 22  1  0
 18 15  1  0
 19 18  1  0
 20 18  1  0
 21 18  1  0
  1 23  1  1
  3 24  1  0
  4 25  1  0
  9 26  1  0
 11 27  1  0
 13 28  1  0
 13 29  1  0
 13 30  1  0
 14 31  1  0
 14 32  1  0
 16 33  1  0
 17 34  1  0
 22 35  1  0
M  ISO  8  23   8  24  14  25  14  26  14  27  14  28   8  29   8  30   8
M  ISO  5  31   8  32   8  33   8  34   3  35   3
M  END
>  <minimizedAffinity>  (1) 
-5.32112741

>  <minimizedRMSD>  (1) 
0.991719663

$$$$
