
     RDKit          3D

 41 44  0  0  1  0  0  0  0  0999 V2000
   46.9310   34.5100   41.3080 C   0  0  0  0  0  0  0  0  0  0  0  0
   48.1920   34.9390   40.9430 C   0  0  0  0  0  0  0  0  0  0  0  0
   48.4580   34.6370   39.6770 N   0  0  0  0  0  0  0  0  0  0  0  0
   47.3670   34.0070   39.2100 C   0  0  0  0  0  0  0  0  0  0  0  0
   47.1100   33.4750   37.9380 C   0  0  0  0  0  0  0  0  0  0  0  0
   45.9070   32.8750   37.7140 C   0  0  0  0  0  0  0  0  0  0  0  0
   44.9050   32.7450   38.6410 C   0  0  0  0  0  0  0  0  0  0  0  0
   45.2110   33.2860   39.8770 C   0  0  0  0  0  0  0  0  0  0  0  0
   46.3940   33.9040   40.1860 C   0  0  0  0  0  0  0  0  0  0  0  0
   44.7880   35.8470   44.0460 C   0  0  0  0  0  0  0  0  0  0  0  0
   45.4210   35.7320   42.7900 C   0  0  0  0  0  0  0  0  0  0  0  0
   46.2690   34.6460   42.5950 C   0  0  0  0  0  0  0  0  0  0  0  0
   46.4560   33.7420   43.6150 N   0  0  0  0  0  0  0  0  0  0  0  0
   45.8160   33.9150   44.7960 C   0  0  0  0  0  0  0  0  0  0  0  0
   44.9870   34.9570   45.0160 N   0  0  0  0  0  0  0  0  0  0  0  0
   49.1200   35.6500   41.8680 C   0  0  0  0  0  0  0  0  0  0  0  0
   50.0020   34.6980   42.6190 C   0  0  0  0  0  0  0  0  0  0  0  0
   50.2410   33.3930   41.9120 C   0  0  1  0  0  0  0  0  0  0  0  0
   51.0460   32.3110   42.4650 C   0  0  0  0  0  0  0  0  0  0  0  0
   49.5680   32.1900   42.5930 C   0  0  2  0  0  0  0  0  0  0  0  0
   48.9600   31.2310   41.8080 O   0  0  0  0  0  0  0  0  0  0  0  0
   47.8480   30.5600   42.3280 C   0  0  0  0  0  0  0  0  0  0  0  0
   47.9520   29.4100   42.8720 O   0  0  0  0  0  0  0  0  0  0  0  0
   46.5360   31.0480   42.3170 O   0  0  0  0  0  0  0  0  0  0  0  0
   49.3240   34.8437   39.1590 H   0  0  0  0  0  0  0  0  0  0  0  0
   47.8629   33.5406   37.1387 H   0  0  0  0  0  0  0  0  0  0  0  0
   45.7255   32.4625   36.7105 H   0  0  0  0  0  0  0  0  0  0  0  0
   43.9449   32.2550   38.4218 H   0  0  0  0  0  0  0  0  0  0  0  0
   44.4501   33.2149   40.6682 H   0  0  0  0  0  0  0  0  0  0  0  0
   44.1117   36.6951   44.2286 H   0  0  0  0  0  0  0  0  0  0  0  0
   45.2505   36.4729   41.9950 H   0  0  0  0  0  0  0  0  0  0  0  0
   45.9770   33.1831   45.6013 H   0  0  0  0  0  0  0  0  0  0  0  0
   49.7524   36.3327   41.2814 H   0  0  0  0  0  0  0  0  0  0  0  0
   48.5130   36.2016   42.6011 H   0  0  0  0  0  0  0  0  0  0  0  0
   50.9746   35.1849   42.7831 H   0  0  0  0  0  0  0  0  0  0  0  0
   49.4821   34.4586   43.5583 H   0  0  0  0  0  0  0  0  0  0  0  0
   50.2747   33.8910   40.9318 H   0  0  0  0  0  0  0  0  0  0  0  0
   51.5879   31.6370   41.7853 H   0  0  0  0  0  0  0  0  0  0  0  0
   51.8771   32.2729   43.1846 H   0  0  0  0  0  0  0  0  0  0  0  0
   48.8359   32.0650   43.4044 H   0  0  0  0  0  0  0  0  0  0  0  0
   45.8037   30.5080   42.7073 H   0  0  0  0  0  0  0  0  0  0  0  0
  1 12  1  0
  2  1  2  0
  2 16  1  0
  3  2  1  0
  4  3  1  0
  4  9  2  0
  5  4  1  0
  6  5  2  0
  6  7  1  0
  7  8  2  0
  8  9  1  0
  9  1  1  0
 10 15  2  0
 11 10  1  0
 12 11  2  0
 12 13  1  0
 13 14  2  0
 14 15  1  0
 16 17  1  0
 18 19  1  0
 18 20  1  0
 18 17  1  0
 19 20  1  0
 21 22  1  0
 21 20  1  0
 22 23  2  0
 24 22  1  0
  3 25  1  0
  5 26  1  0
  6 27  1  0
  7 28  1  0
  8 29  1  0
 10 30  1  0
 11 31  1  0
 14 32  1  0
 16 33  1  0
 16 34  1  0
 17 35  1  0
 17 36  1  0
 18 37  1  6
 19 38  1  0
 19 39  1  0
 20 40  1  1
 24 41  1  0
M  ISO  8  25   9  26  14  27  14  28  14  29  14  30  14  31  14  32  14
M  ISO  8  33   8  34   8  35   8  36   8  37  13  38  13  39  13  40  13
M  ISO  1  41   3
M  END
>  <minimizedAffinity>  (1) 
-5.40537739

>  <minimizedRMSD>  (1) 
0.105196945

$$$$
