
     RDKit          3D

 31 33  0  0  0  0  0  0  0  0999 V2000
   46.6140   31.6050   44.0480 N   0  0  0  0  0  0  0  0  0  0  0  0
   46.2660   30.3990   43.5250 C   0  0  0  0  0  0  0  0  0  0  0  0
   46.9810   30.2110   42.4000 N   0  0  0  0  0  0  0  0  0  0  0  0
   47.7680   31.2730   42.2110 C   0  0  0  0  0  0  0  0  0  0  0  0
   48.7040   31.6590   41.2610 C   0  0  0  0  0  0  0  0  0  0  0  0
   49.3170   32.8430   41.4060 N   0  0  0  0  0  0  0  0  0  0  0  0
   49.1070   33.7090   42.4070 C   0  0  0  0  0  0  0  0  0  0  0  0
   48.1980   33.3570   43.3470 N   0  0  0  0  0  0  0  0  0  0  0  0
   47.5470   32.1660   43.2450 C   0  0  0  0  0  0  0  0  0  0  0  0
   45.0570   34.1210   46.2360 C   0  0  0  0  0  0  0  0  0  0  0  0
   45.5640   33.4990   45.0990 C   0  0  0  0  0  0  0  0  0  0  0  0
   46.1120   32.1990   45.2180 C   0  0  0  0  0  0  0  0  0  0  0  0
   46.1020   31.6500   46.4520 N   0  0  0  0  0  0  0  0  0  0  0  0
   45.6090   32.2640   47.5320 C   0  0  0  0  0  0  0  0  0  0  0  0
   45.0900   33.4870   47.4380 N   0  0  0  0  0  0  0  0  0  0  0  0
   44.4860   35.4120   46.2450 N   0  0  0  0  0  0  0  0  0  0  0  0
   49.8570   34.9680   42.4300 C   0  0  0  0  0  0  0  0  0  0  0  0
   49.1890   36.0730   41.6720 C   0  0  0  0  0  0  0  0  0  0  0  0
   48.9580   35.5540   40.3190 N   0  0  0  0  0  0  0  0  0  0  0  0
   45.5294   29.6996   43.9472 H   0  0  0  0  0  0  0  0  0  0  0  0
   48.9381   31.0069   40.4066 H   0  0  0  0  0  0  0  0  0  0  0  0
   45.5394   34.0087   44.1245 H   0  0  0  0  0  0  0  0  0  0  0  0
   45.6321   31.7549   48.5068 H   0  0  0  0  0  0  0  0  0  0  0  0
   44.4259   35.9546   45.3716 H   0  0  0  0  0  0  0  0  0  0  0  0
   44.1295   35.8113   47.1250 H   0  0  0  0  0  0  0  0  0  0  0  0
   49.9742   35.2848   43.4769 H   0  0  0  0  0  0  0  0  0  0  0  0
   50.8243   34.7783   41.9417 H   0  0  0  0  0  0  0  0  0  0  0  0
   48.2335   36.3392   42.1474 H   0  0  0  0  0  0  0  0  0  0  0  0
   49.8091   36.9814   41.6544 H   0  0  0  0  0  0  0  0  0  0  0  0
   48.5399   34.6146   40.3784 H   0  0  0  0  0  0  0  0  0  0  0  0
   48.3177   36.1835   39.8145 H   0  0  0  0  0  0  0  0  0  0  0  0
  1 12  1  0
  2  1  1  0
  3  2  2  0
  4  3  1  0
  4  9  2  0
  5  6  2  0
  5  4  1  0
  6  7  1  0
  7 17  1  0
  7  8  2  0
  9  8  1  0
  9  1  1  0
 10 16  1  0
 10 15  2  0
 11 12  2  0
 11 10  1  0
 12 13  1  0
 13 14  2  0
 15 14  1  0
 18 17  1  0
 19 18  1  0
  2 20  1  0
  5 21  1  0
 11 22  1  0
 14 23  1  0
 16 24  1  0
 16 25  1  0
 17 26  1  0
 17 27  1  0
 18 28  1  0
 18 29  1  0
 19 30  1  0
 19 31  1  0
M  ISO  8  20  14  21  14  22  14  23  14  26   8  27   8  28   8  29   8
M  ISO  2  30   5  31   5
M  END
>  <minimizedAffinity>  (1) 
-5.08335781

>  <minimizedRMSD>  (1) 
1.11568761

$$$$
