
     RDKit          3D

 23 23  0  0  0  0  0  0  0  0999 V2000
   48.0980   33.8990   42.0210 C   0  0  0  0  0  0  0  0  0  0  0  0
   47.2340   34.2410   43.0780 C   0  0  0  0  0  0  0  0  0  0  0  0
   47.0180   33.2840   44.0670 C   0  0  0  0  0  0  0  0  0  0  0  0
   47.6500   32.0740   43.9600 N   0  0  0  0  0  0  0  0  0  0  0  0
   48.4670   31.7960   42.9290 C   0  0  0  0  0  0  0  0  0  0  0  0
   48.6880   32.6910   41.9750 N   0  0  0  0  0  0  0  0  0  0  0  0
   48.2530   34.9970   41.0340 C   0  0  0  0  0  0  0  0  0  0  0  0
   49.1680   36.0670   41.5770 C   0  0  0  0  0  0  0  0  0  0  0  0
   45.9420   33.6090   45.4370 S   0  0  0  0  0  0  0  0  0  0  0  0
   46.5170   32.6870   46.8950 C   0  0  0  0  0  0  0  0  0  0  0  0
   45.3130   32.6100   47.8400 C   0  0  0  0  0  0  0  0  0  0  0  0
   46.7477   35.2267   43.1216 H   0  0  0  0  0  0  0  0  0  0  0  0
   48.9587   30.8134   42.8758 H   0  0  0  0  0  0  0  0  0  0  0  0
   47.2669   35.4363   40.8227 H   0  0  0  0  0  0  0  0  0  0  0  0
   48.6902   34.5882   40.1111 H   0  0  0  0  0  0  0  0  0  0  0  0
   49.1478   36.0434   42.6766 H   0  0  0  0  0  0  0  0  0  0  0  0
   50.1942   35.8851   41.2251 H   0  0  0  0  0  0  0  0  0  0  0  0
   48.8290   37.0525   41.2251 H   0  0  0  0  0  0  0  0  0  0  0  0
   46.8425   31.6768   46.6059 H   0  0  0  0  0  0  0  0  0  0  0  0
   47.3767   33.1793   47.3730 H   0  0  0  0  0  0  0  0  0  0  0  0
   45.6631   32.6324   48.8825 H   0  0  0  0  0  0  0  0  0  0  0  0
   44.6485   33.4675   47.6579 H   0  0  0  0  0  0  0  0  0  0  0  0
   44.7631   31.6749   47.6579 H   0  0  0  0  0  0  0  0  0  0  0  0
  1  2  2  0
  2  3  1  0
  3  9  1  0
  4  3  2  0
  5  4  1  0
  6  1  1  0
  6  5  2  0
  7  8  1  0
  7  1  1  0
  9 10  1  0
 10 11  1  0
  2 12  1  0
  5 13  1  0
  7 14  1  0
  7 15  1  0
  8 16  1  0
  8 17  1  0
  8 18  1  0
 10 19  1  0
 10 20  1  0
 11 21  1  0
 11 22  1  0
 11 23  1  0
M  ISO  8  12  14  13  14  14   8  15   8  16   8  17   8  18   8  19   8
M  ISO  4  20   8  21   8  22   8  23   8
M  END
>  <minimizedAffinity>  (1) 
-3.4386456

>  <minimizedRMSD>  (1) 
2.23308992

$$$$
