
     RDKit          3D

 30 31  0  0  1  0  0  0  0  0999 V2000
   46.6300   34.4610   41.1110 C   0  0  2  0  0  0  0  0  0  0  0  0
   47.4210   33.2590   41.0460 C   0  0  0  0  0  0  0  0  0  0  0  0
   47.8070   32.8570   42.4840 C   0  0  0  0  0  0  0  0  0  0  0  0
   47.1470   33.8390   43.4090 C   0  0  1  0  0  0  0  0  0  0  0  0
   46.9330   35.0220   42.5550 C   0  0  0  0  0  0  0  0  0  0  0  0
   45.1740   34.4050   41.0460 C   0  0  0  0  0  0  0  0  0  0  0  0
   44.5970   33.2660   40.4510 C   0  0  0  0  0  0  0  0  0  0  0  0
   43.2160   33.1320   40.3720 C   0  0  0  0  0  0  0  0  0  0  0  0
   42.4850   34.1820   40.9110 N   0  0  0  0  0  0  0  0  0  0  0  0
   43.0630   35.2500   41.4690 C   0  0  0  0  0  0  0  0  0  0  0  0
   44.4000   35.3630   41.5370 N   0  0  0  0  0  0  0  0  0  0  0  0
   45.6520   33.2270   44.1840 S   0  0  0  0  0  0  0  0  0  0  0  0
   45.3520   34.2360   45.6660 C   0  0  0  0  0  0  0  0  0  0  0  0
   44.5700   35.4530   45.2130 C   0  0  0  0  0  0  0  0  0  0  0  0
   46.9108   35.0261   40.2100 H   0  0  0  0  0  0  0  0  0  0  0  0
   46.8360   32.4532   40.5786 H   0  0  0  0  0  0  0  0  0  0  0  0
   48.3255   33.4318   40.4443 H   0  0  0  0  0  0  0  0  0  0  0  0
   47.4519   31.8384   42.6993 H   0  0  0  0  0  0  0  0  0  0  0  0
   48.8992   32.8694   42.6143 H   0  0  0  0  0  0  0  0  0  0  0  0
   47.7696   34.0618   44.2880 H   0  0  0  0  0  0  0  0  0  0  0  0
   47.8348   35.6517   42.5398 H   0  0  0  0  0  0  0  0  0  0  0  0
   46.1079   35.6466   42.9280 H   0  0  0  0  0  0  0  0  0  0  0  0
   45.2454   32.4755   40.0452 H   0  0  0  0  0  0  0  0  0  0  0  0
   42.7354   32.2548   39.9142 H   0  0  0  0  0  0  0  0  0  0  0  0
   42.4321   36.0517   41.8804 H   0  0  0  0  0  0  0  0  0  0  0  0
   44.7694   33.6636   46.4028 H   0  0  0  0  0  0  0  0  0  0  0  0
   46.2986   34.5290   46.1436 H   0  0  0  0  0  0  0  0  0  0  0  0
   44.2133   36.0081   46.0931 H   0  0  0  0  0  0  0  0  0  0  0  0
   45.2202   36.1025   44.6086 H   0  0  0  0  0  0  0  0  0  0  0  0
   43.7090   35.1315   44.6086 H   0  0  0  0  0  0  0  0  0  0  0  0
  1  5  1  0
  2  1  1  0
  2  3  1  0
  3  4  1  0
  4 12  1  0
  5  4  1  0
  6  1  1  0
  6 11  1  0
  7  6  2  0
  8  7  1  0
  8  9  2  0
  9 10  1  0
 10 11  2  0
 12 13  1  0
 14 13  1  0
  1 15  1  6
  2 16  1  0
  2 17  1  0
  3 18  1  0
  3 19  1  0
  4 20  1  1
  5 21  1  0
  5 22  1  0
  7 23  1  0
  8 24  1  0
 10 25  1  0
 13 26  1  0
 13 27  1  0
 14 28  1  0
 14 29  1  0
 14 30  1  0
M  ISO  8  15  13  16  13  17  13  18  13  19  13  20  13  21  13  22  13
M  ISO  8  23  14  24  14  25  14  26   8  27   8  28   8  29   8  30   8
M  END
>  <minimizedAffinity>  (1) 
-3.67850876

>  <minimizedRMSD>  (1) 
1.96383333

$$$$
