
     RDKit          3D

 53 57  0  0  0  0  0  0  0  0999 V2000
   46.5840   34.3540   41.9780 N   0  0  0  0  0  0  0  0  0  0  0  0
   47.7030   35.1620   41.8560 C   0  0  0  0  0  0  0  0  0  0  0  0
   48.4160   35.2290   40.6910 C   0  0  0  0  0  0  0  0  0  0  0  0
   47.9780   34.4490   39.6190 C   0  0  0  0  0  0  0  0  0  0  0  0
   48.6100   34.4980   38.5480 O   0  0  0  0  0  0  0  0  0  0  0  0
   46.8890   33.6820   39.7920 N   0  0  0  0  0  0  0  0  0  0  0  0
   46.2040   33.6330   40.9400 C   0  0  0  0  0  0  0  0  0  0  0  0
   45.2140   32.9700   41.1590 O   0  0  0  0  0  0  0  0  0  0  0  0
   46.4120   32.8690   38.7440 C   0  0  0  0  0  0  0  0  0  0  0  0
   45.4590   33.2760   37.8270 C   0  0  0  0  0  0  0  0  0  0  0  0
   45.0410   32.4200   36.8330 C   0  0  0  0  0  0  0  0  0  0  0  0
   45.5620   31.1450   36.7290 C   0  0  0  0  0  0  0  0  0  0  0  0
   46.4970   30.7680   37.6400 C   0  0  0  0  0  0  0  0  0  0  0  0
   46.9690   31.5890   38.6800 C   0  0  0  0  0  0  0  0  0  0  0  0
   48.0000   31.0850   39.6250 C   0  0  0  0  0  0  0  0  0  0  0  0
   49.2920   31.8200   39.6100 C   0  0  0  0  0  0  0  0  0  0  0  0
   47.5350   31.0350   41.0500 C   0  0  0  0  0  0  0  0  0  0  0  0
   44.6440   35.6290   44.8470 C   0  0  0  0  0  0  0  0  0  0  0  0
   45.1950   35.5410   43.5380 C   0  0  0  0  0  0  0  0  0  0  0  0
   46.0160   34.4650   43.2860 C   0  0  0  0  0  0  0  0  0  0  0  0
   46.2410   33.5890   44.2620 N   0  0  0  0  0  0  0  0  0  0  0  0
   45.7270   33.6580   45.5070 C   0  0  0  0  0  0  0  0  0  0  0  0
   44.9230   34.6990   45.7790 N   0  0  0  0  0  0  0  0  0  0  0  0
   45.9180   32.7550   46.6260 C   0  0  0  0  0  0  0  0  0  0  0  0
   45.3840   33.0010   47.8200 N   0  0  0  0  0  0  0  0  0  0  0  0
   45.5180   32.2150   48.8940 C   0  0  0  0  0  0  0  0  0  0  0  0
   46.2270   31.0700   48.8580 N   0  0  0  0  0  0  0  0  0  0  0  0
   46.8190   30.7240   47.6770 C   0  0  0  0  0  0  0  0  0  0  0  0
   47.5540   29.5630   47.5910 C   0  0  0  0  0  0  0  0  0  0  0  0
   48.1600   29.1910   46.4100 C   0  0  0  0  0  0  0  0  0  0  0  0
   47.9930   30.0440   45.3120 C   0  0  0  0  0  0  0  0  0  0  0  0
   47.2510   31.1830   45.4610 C   0  0  0  0  0  0  0  0  0  0  0  0
   46.6340   31.5830   46.6210 C   0  0  0  0  0  0  0  0  0  0  0  0
   48.0259   35.7646   42.7178 H   0  0  0  0  0  0  0  0  0  0  0  0
   49.3025   35.8741   40.6017 H   0  0  0  0  0  0  0  0  0  0  0  0
   45.0334   34.2882   37.8925 H   0  0  0  0  0  0  0  0  0  0  0  0
   44.2816   32.7561   36.1117 H   0  0  0  0  0  0  0  0  0  0  0  0
   45.2313   30.4583   35.9358 H   0  0  0  0  0  0  0  0  0  0  0  0
   46.9126   29.7528   37.5587 H   0  0  0  0  0  0  0  0  0  0  0  0
   48.1706   30.0693   39.2386 H   0  0  0  0  0  0  0  0  0  0  0  0
   49.6198   32.0065   40.6433 H   0  0  0  0  0  0  0  0  0  0  0  0
   50.0502   31.2180   39.0878 H   0  0  0  0  0  0  0  0  0  0  0  0
   49.1620   32.7794   39.0878 H   0  0  0  0  0  0  0  0  0  0  0  0
   48.4010   31.1281   41.7218 H   0  0  0  0  0  0  0  0  0  0  0  0
   46.8354   31.8631   41.2367 H   0  0  0  0  0  0  0  0  0  0  0  0
   47.0275   30.0771   41.2367 H   0  0  0  0  0  0  0  0  0  0  0  0
   43.9807   36.4690   45.1007 H   0  0  0  0  0  0  0  0  0  0  0  0
   44.9761   36.2942   42.7668 H   0  0  0  0  0  0  0  0  0  0  0  0
   45.0342   32.5128   49.8360 H   0  0  0  0  0  0  0  0  0  0  0  0
   47.6594   28.9221   48.4788 H   0  0  0  0  0  0  0  0  0  0  0  0
   48.7488   28.2650   46.3335 H   0  0  0  0  0  0  0  0  0  0  0  0
   48.4526   29.8011   44.3426 H   0  0  0  0  0  0  0  0  0  0  0  0
   47.1392   31.8318   44.5798 H   0  0  0  0  0  0  0  0  0  0  0  0
  1 20  1  0
  2  1  1  0
  3  2  2  0
  4  6  1  0
  4  3  1  0
  5  4  2  0
  6  7  1  0
  7  8  2  0
  7  1  1  0
  9  6  1  0
 10  9  2  0
 11 10  1  0
 12 11  2  0
 12 13  1  0
 13 14  2  0
 14  9  1  0
 14 15  1  0
 15 17  1  0
 16 15  1  0
 18 23  2  0
 19 18  1  0
 20 19  2  0
 20 21  1  0
 21 22  2  0
 22 23  1  0
 22 24  1  0
 24 25  2  0
 25 26  1  0
 27 26  2  0
 28 27  1  0
 29 28  2  0
 30 29  1  0
 31 32  1  0
 31 30  2  0
 32 33  2  0
 33 24  1  0
 33 28  1  0
  2 34  1  0
  3 35  1  0
 10 36  1  0
 11 37  1  0
 12 38  1  0
 13 39  1  0
 15 40  1  0
 16 41  1  0
 16 42  1  0
 16 43  1  0
 17 44  1  0
 17 45  1  0
 17 46  1  0
 18 47  1  0
 19 48  1  0
 26 49  1  0
 29 50  1  0
 30 51  1  0
 31 52  1  0
 32 53  1  0
M  END
>  <minimizedAffinity>  (1) 
-7.03994513

>  <minimizedRMSD>  (1) 
0.238446251

$$$$
