
     RDKit          3D

 51 55  0  0  1  0  0  0  0  0999 V2000
   40.2400   33.1300   38.6160 C   0  0  2  0  0  0  0  0  0  0  0  0
   39.7480   33.8960   37.4640 C   0  0  0  0  0  0  0  0  0  0  0  0
   38.3020   34.2470   37.7800 C   0  0  0  0  0  0  0  0  0  0  0  0
   37.8150   33.1190   38.6400 C   0  0  0  0  0  0  0  0  0  0  0  0
   39.0350   32.3400   39.0320 C   0  0  1  0  0  0  0  0  0  0  0  0
   38.9400   31.0410   38.2880 C   0  0  0  0  0  0  0  0  0  0  0  0
   39.5950   30.8770   37.1020 N   0  0  0  0  0  0  0  0  0  0  0  0
   39.5470   29.7370   36.3880 C   0  0  0  0  0  0  0  0  0  0  0  0
   38.8420   28.6690   36.8040 N   0  0  0  0  0  0  0  0  0  0  0  0
   38.1880   28.7840   37.9530 C   0  0  0  0  0  0  0  0  0  0  0  0
   37.4300   27.7270   38.4640 C   0  0  0  0  0  0  0  0  0  0  0  0
   36.7340   27.7940   39.6500 C   0  0  0  0  0  0  0  0  0  0  0  0
   36.7960   28.9700   40.3660 C   0  0  0  0  0  0  0  0  0  0  0  0
   37.5420   30.0260   39.8740 C   0  0  0  0  0  0  0  0  0  0  0  0
   38.2220   29.9390   38.6990 C   0  0  0  0  0  0  0  0  0  0  0  0
   40.9570   35.8360   41.1290 C   0  0  0  0  0  0  0  0  0  0  0  0
   40.3300   35.1240   40.0990 C   0  0  0  0  0  0  0  0  0  0  0  0
   40.8870   33.8940   39.6810 C   0  0  0  0  0  0  0  0  0  0  0  0
   41.9910   33.4570   40.2840 N   0  0  0  0  0  0  0  0  0  0  0  0
   42.5730   34.1710   41.2770 C   0  0  0  0  0  0  0  0  0  0  0  0
   42.0640   35.3520   41.7010 N   0  0  0  0  0  0  0  0  0  0  0  0
   43.7950   33.7050   41.9630 C   0  0  0  0  0  0  0  0  0  0  0  0
   44.0690   32.5770   42.6460 N   0  0  0  0  0  0  0  0  0  0  0  0
   45.3000   32.6050   43.0800 O   0  0  0  0  0  0  0  0  0  0  0  0
   45.8720   33.7320   42.7030 C   0  0  0  0  0  0  0  0  0  0  0  0
   44.9300   34.4320   41.9980 N   0  0  0  0  0  0  0  0  0  0  0  0
   47.2290   34.0970   43.0080 C   0  0  0  0  0  0  0  0  0  0  0  0
   47.8940   33.5770   43.8690 O   0  0  0  0  0  0  0  0  0  0  0  0
   47.6800   35.1270   42.1860 N   0  0  0  0  0  0  0  0  0  0  0  0
   49.0750   35.3980   42.3380 C   0  0  0  0  0  0  0  0  0  0  0  0
   50.0310   34.9310   43.0120 N   0  0  0  0  0  0  0  0  0  0  0  0
   49.7780   36.4200   41.6350 N   0  0  0  0  0  0  0  0  0  0  0  0
   50.0490   33.9560   43.3300 H   0  0  0  0  0  0  0  0  0  0  0  0
   41.0952   32.4939   38.3439 H   0  0  0  0  0  0  0  0  0  0  0  0
   39.8024   33.2876   36.5492 H   0  0  0  0  0  0  0  0  0  0  0  0
   40.3532   34.7984   37.2922 H   0  0  0  0  0  0  0  0  0  0  0  0
   38.2445   35.2017   38.3234 H   0  0  0  0  0  0  0  0  0  0  0  0
   37.6952   34.3686   36.8706 H   0  0  0  0  0  0  0  0  0  0  0  0
   37.3087   33.5115   39.5342 H   0  0  0  0  0  0  0  0  0  0  0  0
   37.0899   32.4886   38.1044 H   0  0  0  0  0  0  0  0  0  0  0  0
   39.1117   32.1517   40.1131 H   0  0  0  0  0  0  0  0  0  0  0  0
   40.0991   29.6768   35.4385 H   0  0  0  0  0  0  0  0  0  0  0  0
   37.3871   26.7911   37.8876 H   0  0  0  0  0  0  0  0  0  0  0  0
   36.1479   26.9373   40.0140 H   0  0  0  0  0  0  0  0  0  0  0  0
   36.2572   29.0680   41.3200 H   0  0  0  0  0  0  0  0  0  0  0  0
   37.5866   30.9626   40.4492 H   0  0  0  0  0  0  0  0  0  0  0  0
   40.5380   36.7949   41.4679 H   0  0  0  0  0  0  0  0  0  0  0  0
   39.4189   35.5155   39.6230 H   0  0  0  0  0  0  0  0  0  0  0  0
   47.0700   35.6413   41.5346 H   0  0  0  0  0  0  0  0  0  0  0  0
   50.7860   36.5566   41.7970 H   0  0  0  0  0  0  0  0  0  0  0  0
   49.2779   37.0217   40.9652 H   0  0  0  0  0  0  0  0  0  0  0  0
  1  5  1  0
  1 18  1  0
  2  3  1  0
  2  1  1  0
  3  4  1  0
  4  5  1  0
  6 15  1  0
  6  5  1  0
  7  6  2  0
  8  9  2  0
  8  7  1  0
  9 10  1  0
 10 11  1  0
 10 15  2  0
 11 12  2  0
 12 13  1  0
 14 13  2  0
 15 14  1  0
 16 21  2  0
 17 16  1  0
 18 17  2  0
 18 19  1  0
 19 20  2  0
 20 21  1  0
 20 22  1  0
 22 26  1  0
 22 23  2  0
 23 24  1  0
 25 27  1  0
 25 24  1  0
 26 25  2  0
 27 28  2  0
 29 30  1  0
 29 27  1  0
 30 31  2  0
 31 33  1  0
 32 30  1  0
  1 34  1  6
  2 35  1  0
  2 36  1  0
  3 37  1  0
  3 38  1  0
  4 39  1  0
  4 40  1  0
  5 41  1  1
  8 42  1  0
 11 43  1  0
 12 44  1  0
 13 45  1  0
 14 46  1  0
 16 47  1  0
 17 48  1  0
 29 49  1  0
 32 50  1  0
 32 51  1  0
M  END
>  <minimizedAffinity>  (1) 
-7.03142643

>  <minimizedRMSD>  (1) 
2.86805177

$$$$
