
     RDKit          3D

 46 51  0  0  0  0  0  0  0  0999 V2000
   44.6230   35.6610   44.8530 C   0  0  0  0  0  0  0  0  0  0  0  0
   44.2630   35.5310   43.5010 C   0  0  0  0  0  0  0  0  0  0  0  0
   44.6260   34.3650   42.8730 C   0  0  0  0  0  0  0  0  0  0  0  0
   45.2910   33.4820   43.6390 N   0  0  0  0  0  0  0  0  0  0  0  0
   45.6540   33.5620   44.9240 C   0  0  0  0  0  0  0  0  0  0  0  0
   45.2680   34.6860   45.4170 N   0  0  0  0  0  0  0  0  0  0  0  0
   46.3570   32.4110   45.4010 C   0  0  0  0  0  0  0  0  0  0  0  0
   47.2120   31.6890   44.5940 C   0  0  0  0  0  0  0  0  0  0  0  0
   47.9090   30.5760   45.0060 C   0  0  0  0  0  0  0  0  0  0  0  0
   47.7820   30.1140   46.2920 C   0  0  0  0  0  0  0  0  0  0  0  0
   46.9480   30.8010   47.1130 C   0  0  0  0  0  0  0  0  0  0  0  0
   46.8240   30.3290   48.4120 C   0  0  0  0  0  0  0  0  0  0  0  0
   45.9960   30.9730   49.3080 C   0  0  0  0  0  0  0  0  0  0  0  0
   45.2940   32.1010   48.8760 C   0  0  0  0  0  0  0  0  0  0  0  0
   45.4810   32.4930   47.5770 C   0  0  0  0  0  0  0  0  0  0  0  0
   46.2790   31.9010   46.6550 C   0  0  0  0  0  0  0  0  0  0  0  0
   44.3040   34.1310   41.4780 C   0  0  0  0  0  0  0  0  0  0  0  0
   45.0810   33.2200   40.7020 C   0  0  0  0  0  0  0  0  0  0  0  0
   44.2430   33.3060   39.0190 S   0  0  0  0  0  0  0  0  0  0  0  0
   43.0130   34.5530   39.6950 C   0  0  0  0  0  0  0  0  0  0  0  0
   43.3680   34.6320   40.7370 N   0  0  0  0  0  0  0  0  0  0  0  0
   42.0260   35.0110   38.7170 C   0  0  0  0  0  0  0  0  0  0  0  0
   42.1870   36.0680   37.9010 N   0  0  0  0  0  0  0  0  0  0  0  0
   41.2620   36.4610   37.0160 C   0  0  0  0  0  0  0  0  0  0  0  0
   40.0940   35.8010   36.8920 N   0  0  0  0  0  0  0  0  0  0  0  0
   39.8480   34.7180   37.6790 C   0  0  0  0  0  0  0  0  0  0  0  0
   38.6580   34.0490   37.5530 C   0  0  0  0  0  0  0  0  0  0  0  0
   38.4060   32.9390   38.3590 C   0  0  0  0  0  0  0  0  0  0  0  0
   39.4120   32.5840   39.2610 C   0  0  0  0  0  0  0  0  0  0  0  0
   40.5960   33.2820   39.3590 C   0  0  0  0  0  0  0  0  0  0  0  0
   40.8330   34.3610   38.5700 C   0  0  0  0  0  0  0  0  0  0  0  0
   44.3644   36.5675   45.4199 H   0  0  0  0  0  0  0  0  0  0  0  0
   43.7166   36.3251   42.9711 H   0  0  0  0  0  0  0  0  0  0  0  0
   47.3451   32.0243   43.5549 H   0  0  0  0  0  0  0  0  0  0  0  0
   48.5718   30.0537   44.3003 H   0  0  0  0  0  0  0  0  0  0  0  0
   48.3312   29.2272   46.6414 H   0  0  0  0  0  0  0  0  0  0  0  0
   47.3875   29.4388   48.7282 H   0  0  0  0  0  0  0  0  0  0  0  0
   45.8908   30.6065   50.3398 H   0  0  0  0  0  0  0  0  0  0  0  0
   44.6203   32.6505   49.5499 H   0  0  0  0  0  0  0  0  0  0  0  0
   44.9245   33.3826   47.2470 H   0  0  0  0  0  0  0  0  0  0  0  0
   45.9498   32.6195   41.0095 H   0  0  0  0  0  0  0  0  0  0  0  0
   41.4590   37.3367   36.3801 H   0  0  0  0  0  0  0  0  0  0  0  0
   37.9079   34.3850   36.8220 H   0  0  0  0  0  0  0  0  0  0  0  0
   37.4653   32.3732   38.2882 H   0  0  0  0  0  0  0  0  0  0  0  0
   39.2531   31.7154   39.9170 H   0  0  0  0  0  0  0  0  0  0  0  0
   41.3578   32.9613   40.0848 H   0  0  0  0  0  0  0  0  0  0  0  0
  1  6  2  0
  2  1  1  0
  3  2  2  0
  3  4  1  0
  4  5  2  0
  5  7  1  0
  5  6  1  0
  7 16  2  0
  8  9  2  0
  8  7  1  0
  9 10  1  0
 10 11  2  0
 11 12  1  0
 12 13  2  0
 14 13  1  0
 15 14  2  0
 16 11  1  0
 16 15  1  0
 17  3  1  0
 18 17  2  0
 19 20  1  0
 19 18  1  0
 20 21  2  0
 21 17  1  0
 22 20  1  0
 23 22  2  0
 24 23  1  0
 25 24  2  0
 25 26  1  0
 26 31  2  0
 27 26  1  0
 27 28  2  0
 28 29  1  0
 29 30  2  0
 31 22  1  0
 31 30  1  0
  1 32  1  0
  2 33  1  0
  8 34  1  0
  9 35  1  0
 10 36  1  0
 12 37  1  0
 13 38  1  0
 14 39  1  0
 15 40  1  0
 18 41  1  0
 24 42  1  0
 27 43  1  0
 28 44  1  0
 29 45  1  0
 30 46  1  0
M  END
>  <minimizedAffinity>  (1) 
-7.83412409

>  <minimizedRMSD>  (1) 
1.28823638

$$$$
