
     RDKit          3D

 40 43  0  0  0  0  0  0  0  0999 V2000
   48.4150   33.0260   41.9530 O   0  0  0  0  0  0  0  0  0  0  0  0
   48.4850   33.1560   40.5970 C   0  0  0  0  0  0  0  0  0  0  0  0
   47.7090   34.1510   39.7870 C   0  0  0  0  0  0  0  0  0  0  0  0
   48.2990   33.7440   38.1110 S   0  0  0  0  0  0  0  0  0  0  0  0
   49.4390   32.3710   38.7350 C   0  0  0  0  0  0  0  0  0  0  0  0
   49.2840   32.3640   39.9120 N   0  0  0  0  0  0  0  0  0  0  0  0
   50.1790   31.7080   37.6280 C   0  0  0  0  0  0  0  0  0  0  0  0
   49.6810   31.4400   36.4130 N   0  0  0  0  0  0  0  0  0  0  0  0
   50.3880   30.8390   35.4440 C   0  0  0  0  0  0  0  0  0  0  0  0
   51.6630   30.4660   35.6450 N   0  0  0  0  0  0  0  0  0  0  0  0
   52.2510   30.6920   36.8320 C   0  0  0  0  0  0  0  0  0  0  0  0
   53.5560   30.3150   37.0490 C   0  0  0  0  0  0  0  0  0  0  0  0
   54.1570   30.5530   38.2830 C   0  0  0  0  0  0  0  0  0  0  0  0
   53.3630   31.1840   39.2500 C   0  0  0  0  0  0  0  0  0  0  0  0
   52.0590   31.5520   39.0080 C   0  0  0  0  0  0  0  0  0  0  0  0
   51.4820   31.3120   37.7910 C   0  0  0  0  0  0  0  0  0  0  0  0
   47.2710   32.8130   42.6890 C   0  0  0  0  0  0  0  0  0  0  0  0
   46.9070   31.8460   41.9660 O   0  0  0  0  0  0  0  0  0  0  0  0
   45.2400   34.8010   45.0780 C   0  0  0  0  0  0  0  0  0  0  0  0
   45.8750   34.4990   43.8800 C   0  0  0  0  0  0  0  0  0  0  0  0
   46.5610   33.3070   43.8120 C   0  0  0  0  0  0  0  0  0  0  0  0
   46.5820   32.4910   44.9130 N   0  0  0  0  0  0  0  0  0  0  0  0
   45.9710   32.7930   46.0480 C   0  0  0  0  0  0  0  0  0  0  0  0
   45.3140   33.9370   46.1080 N   0  0  0  0  0  0  0  0  0  0  0  0
   45.8240   35.4070   42.7280 C   0  0  0  0  0  0  0  0  0  0  0  0
   45.0210   36.4940   43.0970 F   0  0  0  0  0  0  0  0  0  0  0  0
   45.1320   34.8350   41.6770 F   0  0  0  0  0  0  0  0  0  0  0  0
   47.0500   35.8450   42.3260 F   0  0  0  0  0  0  0  0  0  0  0  0
   45.9600   32.0150   47.1760 O   0  0  0  0  0  0  0  0  0  0  0  0
   47.1160   31.7570   47.9440 C   0  0  0  0  0  0  0  0  0  0  0  0
   47.8800   32.8950   48.1260 F   0  0  0  0  0  0  0  0  0  0  0  0
   47.8350   30.7050   47.4370 F   0  0  0  0  0  0  0  0  0  0  0  0
   46.6610   31.4340   49.2360 F   0  0  0  0  0  0  0  0  0  0  0  0
   46.9860   34.9132   40.1130 H   0  0  0  0  0  0  0  0  0  0  0  0
   49.9160   30.6485   34.4689 H   0  0  0  0  0  0  0  0  0  0  0  0
   54.1262   29.8245   36.2463 H   0  0  0  0  0  0  0  0  0  0  0  0
   55.1979   30.2616   38.4872 H   0  0  0  0  0  0  0  0  0  0  0  0
   53.7978   31.3928   40.2386 H   0  0  0  0  0  0  0  0  0  0  0  0
   51.4755   32.0436   39.8004 H   0  0  0  0  0  0  0  0  0  0  0  0
   44.6794   35.7414   45.1847 H   0  0  0  0  0  0  0  0  0  0  0  0
  1 17  1  0
  2  1  1  0
  3  2  2  0
  4  5  1  0
  4  3  1  0
  5  6  2  0
  6  2  1  0
  7 16  1  0
  7  5  1  0
  8  7  2  0
  9 10  2  0
  9  8  1  0
 10 11  1  0
 11 12  1  0
 11 16  2  0
 12 13  2  0
 13 14  1  0
 15 14  2  0
 16 15  1  0
 17 21  1  0
 18 17  2  0
 19 24  2  0
 20 19  1  0
 21 20  2  0
 21 22  1  0
 22 23  2  0
 23 24  1  0
 23 29  1  0
 25 26  1  0
 25 20  1  0
 27 25  1  0
 28 25  1  0
 29 30  1  0
 30 31  1  0
 30 33  1  0
 32 30  1  0
  3 34  1  0
  9 35  1  0
 12 36  1  0
 13 37  1  0
 14 38  1  0
 15 39  1  0
 19 40  1  0
M  ISO  7  34  14  35  14  36  14  37  14  38  14  39  14  40  14
M  END
>  <minimizedAffinity>  (1) 
-6.22273159

>  <minimizedRMSD>  (1) 
1.98738182

$$$$
