
     RDKit          3D

 48 52  0  0  1  0  0  0  0  0999 V2000
   42.6600   34.4290   40.6750 N   0  0  0  0  0  0  0  0  0  0  0  0
   41.7010   34.4750   41.7210 C   0  0  0  0  0  0  0  0  0  0  0  0
   40.8700   35.7170   41.6400 C   0  0  0  0  0  0  0  0  0  0  0  0
   40.2470   35.8820   40.3030 C   0  0  0  0  0  0  0  0  0  0  0  0
   41.1140   35.5860   39.1410 C   0  0  0  0  0  0  0  0  0  0  0  0
   42.1160   34.4890   39.3400 C   0  0  2  0  0  0  0  0  0  0  0  0
   41.5810   33.1520   38.9770 C   0  0  0  0  0  0  0  0  0  0  0  0
   42.1970   31.9710   39.2190 N   0  0  0  0  0  0  0  0  0  0  0  0
   41.7290   30.7750   38.8880 C   0  0  0  0  0  0  0  0  0  0  0  0
   40.5590   30.6290   38.2630 N   0  0  0  0  0  0  0  0  0  0  0  0
   39.8550   31.7370   37.9690 C   0  0  0  0  0  0  0  0  0  0  0  0
   38.6430   31.6120   37.3260 C   0  0  0  0  0  0  0  0  0  0  0  0
   37.8850   32.7390   37.0110 C   0  0  0  0  0  0  0  0  0  0  0  0
   38.3750   33.9800   37.3560 C   0  0  0  0  0  0  0  0  0  0  0  0
   39.5930   34.0440   37.9970 C   0  0  0  0  0  0  0  0  0  0  0  0
   40.3780   32.9600   38.3310 C   0  0  0  0  0  0  0  0  0  0  0  0
   43.6140   35.4860   40.8500 C   0  0  0  0  0  0  0  0  0  0  0  0
   46.6510   34.4610   42.5020 N   0  0  0  0  0  0  0  0  0  0  0  0
   45.8910   34.8030   43.5510 C   0  0  0  0  0  0  0  0  0  0  0  0
   44.6900   35.2230   43.1650 N   0  0  0  0  0  0  0  0  0  0  0  0
   44.6950   35.1430   41.8090 C   0  0  0  0  0  0  0  0  0  0  0  0
   45.9130   34.6690   41.3960 N   0  0  0  0  0  0  0  0  0  0  0  0
   50.3540   34.0640   42.4130 C   0  0  0  0  0  0  0  0  0  0  0  0
   49.1280   34.6660   42.6490 C   0  0  0  0  0  0  0  0  0  0  0  0
   47.9610   33.9660   42.3160 C   0  0  0  0  0  0  0  0  0  0  0  0
   48.1280   32.7360   41.7800 N   0  0  0  0  0  0  0  0  0  0  0  0
   49.3220   32.1600   41.5550 C   0  0  0  0  0  0  0  0  0  0  0  0
   50.4380   32.8350   41.8770 N   0  0  0  0  0  0  0  0  0  0  0  0
   41.0427   33.5972   41.6429 H   0  0  0  0  0  0  0  0  0  0  0  0
   42.2348   34.4755   42.6828 H   0  0  0  0  0  0  0  0  0  0  0  0
   40.0749   35.6626   42.3982 H   0  0  0  0  0  0  0  0  0  0  0  0
   41.5294   36.5795   41.8168 H   0  0  0  0  0  0  0  0  0  0  0  0
   39.3765   35.2114   40.2525 H   0  0  0  0  0  0  0  0  0  0  0  0
   39.9983   36.9505   40.2222 H   0  0  0  0  0  0  0  0  0  0  0  0
   41.6641   36.5042   38.8872 H   0  0  0  0  0  0  0  0  0  0  0  0
   40.4398   35.2355   38.3456 H   0  0  0  0  0  0  0  0  0  0  0  0
   42.9333   34.7524   38.6526 H   0  0  0  0  0  0  0  0  0  0  0  0
   42.3202   29.8808   39.1349 H   0  0  0  0  0  0  0  0  0  0  0  0
   38.2694   30.6126   37.0583 H   0  0  0  0  0  0  0  0  0  0  0  0
   36.9169   32.6398   36.4982 H   0  0  0  0  0  0  0  0  0  0  0  0
   37.8090   34.8947   37.1259 H   0  0  0  0  0  0  0  0  0  0  0  0
   39.9706   35.0419   38.2645 H   0  0  0  0  0  0  0  0  0  0  0  0
   44.0699   35.7110   39.8745 H   0  0  0  0  0  0  0  0  0  0  0  0
   43.0731   36.3509   41.2615 H   0  0  0  0  0  0  0  0  0  0  0  0
   46.2192   34.7438   44.5992 H   0  0  0  0  0  0  0  0  0  0  0  0
   51.2774   34.6038   42.6699 H   0  0  0  0  0  0  0  0  0  0  0  0
   49.0724   35.6727   43.0887 H   0  0  0  0  0  0  0  0  0  0  0  0
   49.3839   31.1537   41.1150 H   0  0  0  0  0  0  0  0  0  0  0  0
  1 17  1  0
  1  2  1  0
  3  2  1  0
  4  3  1  0
  5  6  1  0
  5  4  1  0
  6  1  1  0
  7  8  2  0
  7  6  1  0
  9  8  1  0
 10  9  2  0
 11 10  1  0
 11 16  2  0
 12 11  1  0
 13 12  2  0
 13 14  1  0
 14 15  2  0
 15 16  1  0
 16  7  1  0
 17 21  1  0
 18 19  1  0
 20 19  2  0
 21 20  1  0
 22 21  2  0
 22 18  1  0
 23 24  2  0
 25 18  1  0
 25 24  1  0
 26 25  2  0
 27 26  1  0
 27 28  2  0
 28 23  1  0
  2 29  1  0
  2 30  1  0
  3 31  1  0
  3 32  1  0
  4 33  1  0
  4 34  1  0
  5 35  1  0
  5 36  1  0
  6 37  1  6
  9 38  1  0
 12 39  1  0
 13 40  1  0
 14 41  1  0
 15 42  1  0
 17 43  1  0
 17 44  1  0
 19 45  1  0
 23 46  1  0
 24 47  1  0
 27 48  1  0
M  END
>  <minimizedAffinity>  (1) 
-7.00536728

>  <minimizedRMSD>  (1) 
1.09152985

$$$$
