
     RDKit          3D

 52 57  0  0  1  0  0  0  0  0999 V2000
   46.2830   33.3200   44.5530 C   0  0  2  0  0  0  0  0  0  0  0  0
   45.0520   34.1990   44.7700 C   0  0  0  0  0  0  0  0  0  0  0  0
   45.0040   35.4110   43.9870 C   0  0  0  0  0  0  0  0  0  0  0  0
   46.0720   35.7700   43.0520 C   0  0  0  0  0  0  0  0  0  0  0  0
   47.1840   34.8110   42.9280 C   0  0  1  0  0  0  0  0  0  0  0  0
   46.7910   33.4180   43.1600 C   0  0  0  0  0  0  0  0  0  0  0  0
   47.7650   34.9030   41.5670 C   0  0  0  0  0  0  0  0  0  0  0  0
   48.8790   35.6500   41.1810 C   0  0  0  0  0  0  0  0  0  0  0  0
   49.0010   35.3990   39.8790 N   0  0  0  0  0  0  0  0  0  0  0  0
   48.0520   34.5520   39.4080 C   0  0  0  0  0  0  0  0  0  0  0  0
   47.8780   34.0750   38.1100 C   0  0  0  0  0  0  0  0  0  0  0  0
   46.8150   33.2260   37.9670 C   0  0  0  0  0  0  0  0  0  0  0  0
   45.9580   32.8420   38.9860 C   0  0  0  0  0  0  0  0  0  0  0  0
   46.2250   33.3780   40.2350 C   0  0  0  0  0  0  0  0  0  0  0  0
   47.2620   34.2410   40.5070 C   0  0  0  0  0  0  0  0  0  0  0  0
   45.7960   31.6890   46.3530 C   0  0  0  0  0  0  0  0  0  0  0  0
   45.9590   31.9440   44.9930 C   0  0  0  0  0  0  0  0  0  0  0  0
   45.8310   30.8550   44.0940 C   0  0  0  0  0  0  0  0  0  0  0  0
   45.5600   29.6420   44.6020 N   0  0  0  0  0  0  0  0  0  0  0  0
   45.4050   29.4010   45.8960 C   0  0  0  0  0  0  0  0  0  0  0  0
   45.5240   30.4220   46.7600 N   0  0  0  0  0  0  0  0  0  0  0  0
   45.1100   28.1660   46.6080 C   0  0  0  0  0  0  0  0  0  0  0  0
   45.9700   27.5360   47.4470 N   0  0  0  0  0  0  0  0  0  0  0  0
   45.6870   26.4050   48.0930 C   0  0  0  0  0  0  0  0  0  0  0  0
   44.5170   25.7690   47.9800 N   0  0  0  0  0  0  0  0  0  0  0  0
   43.6020   26.3180   47.1690 C   0  0  0  0  0  0  0  0  0  0  0  0
   42.4080   25.6590   47.0600 C   0  0  0  0  0  0  0  0  0  0  0  0
   41.4150   26.1590   46.2460 C   0  0  0  0  0  0  0  0  0  0  0  0
   41.6820   27.3360   45.5610 C   0  0  0  0  0  0  0  0  0  0  0  0
   42.9050   27.9500   45.7160 C   0  0  0  0  0  0  0  0  0  0  0  0
   43.9180   27.4870   46.5130 C   0  0  0  0  0  0  0  0  0  0  0  0
   47.1239   33.6751   45.1668 H   0  0  0  0  0  0  0  0  0  0  0  0
   44.2544   33.9261   45.4767 H   0  0  0  0  0  0  0  0  0  0  0  0
   44.1406   36.0838   44.0960 H   0  0  0  0  0  0  0  0  0  0  0  0
   45.6194   35.8883   42.0564 H   0  0  0  0  0  0  0  0  0  0  0  0
   46.5214   36.6874   43.4600 H   0  0  0  0  0  0  0  0  0  0  0  0
   47.9112   35.0847   43.7067 H   0  0  0  0  0  0  0  0  0  0  0  0
   46.0010   33.1283   42.4515 H   0  0  0  0  0  0  0  0  0  0  0  0
   47.6489   32.7453   43.0137 H   0  0  0  0  0  0  0  0  0  0  0  0
   49.5105   36.2968   41.8077 H   0  0  0  0  0  0  0  0  0  0  0  0
   49.7408   35.8066   39.2895 H   0  0  0  0  0  0  0  0  0  0  0  0
   48.5367   34.3562   37.2751 H   0  0  0  0  0  0  0  0  0  0  0  0
   46.6256   32.8158   36.9641 H   0  0  0  0  0  0  0  0  0  0  0  0
   45.1174   32.1538   38.8136 H   0  0  0  0  0  0  0  0  0  0  0  0
   45.5629   33.0945   41.0664 H   0  0  0  0  0  0  0  0  0  0  0  0
   45.8864   32.5030   47.0874 H   0  0  0  0  0  0  0  0  0  0  0  0
   45.9504   30.9999   43.0102 H   0  0  0  0  0  0  0  0  0  0  0  0
   46.4548   25.9735   48.7521 H   0  0  0  0  0  0  0  0  0  0  0  0
   42.2405   24.7289   47.6229 H   0  0  0  0  0  0  0  0  0  0  0  0
   40.4479   25.6450   46.1431 H   0  0  0  0  0  0  0  0  0  0  0  0
   40.9218   27.7757   44.8986 H   0  0  0  0  0  0  0  0  0  0  0  0
   43.0813   28.8815   45.1582 H   0  0  0  0  0  0  0  0  0  0  0  0
  1  2  1  0
  1 17  1  0
  3  2  2  0
  4  3  1  0
  5  4  1  0
  5  6  1  0
  6  1  1  0
  7  5  1  0
  8  7  2  0
  9  8  1  0
 10  9  1  0
 10 15  2  0
 11 10  1  0
 12 11  2  0
 12 13  1  0
 13 14  2  0
 14 15  1  0
 15  7  1  0
 16 21  2  0
 17 16  1  0
 18 19  1  0
 18 17  2  0
 19 20  2  0
 20 22  1  0
 20 21  1  0
 22 23  2  0
 23 24  1  0
 25 24  2  0
 26 25  1  0
 27 26  2  0
 28 27  1  0
 29 30  1  0
 29 28  2  0
 30 31  2  0
 31 22  1  0
 31 26  1  0
  1 32  1  1
  2 33  1  0
  3 34  1  0
  4 35  1  0
  4 36  1  0
  5 37  1  1
  6 38  1  0
  6 39  1  0
  8 40  1  0
  9 41  1  0
 11 42  1  0
 12 43  1  0
 13 44  1  0
 14 45  1  0
 16 46  1  0
 18 47  1  0
 24 48  1  0
 27 49  1  0
 28 50  1  0
 29 51  1  0
 30 52  1  0
M  END
>  <minimizedAffinity>  (1) 
-7.29371977

>  <minimizedRMSD>  (1) 
1.87229645

$$$$
