
     RDKit          3D

 48 50  0  0  1  0  0  0  0  0999 V2000
   46.7610   34.3820   40.5060 C   0  0  1  0  0  0  0  0  0  0  0  0
   47.9500   33.9250   39.6450 C   0  0  0  0  0  0  0  0  0  0  0  0
   47.3510   33.6370   38.2710 C   0  0  0  0  0  0  0  0  0  0  0  0
   46.4950   32.4120   38.3700 C   0  0  0  0  0  0  0  0  0  0  0  0
   46.2110   32.0760   39.8000 C   0  0  0  0  0  0  0  0  0  0  0  0
   45.7780   33.3220   40.6060 C   0  0  2  0  0  0  0  0  0  0  0  0
   47.2800   34.7750   41.9040 C   0  0  0  0  0  0  0  0  0  0  0  0
   46.8200   33.7380   42.8300 C   0  0  0  0  0  0  0  0  0  0  0  0
   46.0220   33.5650   45.0990 C   0  0  0  0  0  0  0  0  0  0  0  0
   46.0380   34.2940   43.9090 C   0  0  0  0  0  0  0  0  0  0  0  0
   45.3200   35.4270   43.7570 C   0  0  0  0  0  0  0  0  0  0  0  0
   44.5710   35.8430   44.8100 N   0  0  0  0  0  0  0  0  0  0  0  0
   44.5320   35.1610   45.9780 C   0  0  0  0  0  0  0  0  0  0  0  0
   45.2560   34.0250   46.1220 N   0  0  0  0  0  0  0  0  0  0  0  0
   44.4760   33.6890   39.9730 C   0  0  0  0  0  0  0  0  0  0  0  0
   43.8190   34.8810   40.6710 C   0  0  0  0  0  0  0  0  0  0  0  0
   42.4250   34.8860   40.0520 C   0  0  0  0  0  0  0  0  0  0  0  0
   41.3630   35.4100   40.7830 C   0  0  0  0  0  0  0  0  0  0  0  0
   40.0680   35.4710   40.3390 C   0  0  0  0  0  0  0  0  0  0  0  0
   39.8220   34.9790   39.0890 C   0  0  0  0  0  0  0  0  0  0  0  0
   40.8540   34.4540   38.3400 C   0  0  0  0  0  0  0  0  0  0  0  0
   42.1560   34.3940   38.7920 C   0  0  0  0  0  0  0  0  0  0  0  0
   46.2760   35.2518   40.0389 H   0  0  0  0  0  0  0  0  0  0  0  0
   48.7077   34.7196   39.5782 H   0  0  0  0  0  0  0  0  0  0  0  0
   48.4552   33.0449   40.0696 H   0  0  0  0  0  0  0  0  0  0  0  0
   48.1581   33.4673   37.5431 H   0  0  0  0  0  0  0  0  0  0  0  0
   46.7452   34.4928   37.9383 H   0  0  0  0  0  0  0  0  0  0  0  0
   45.5446   32.5930   37.8465 H   0  0  0  0  0  0  0  0  0  0  0  0
   47.0314   31.5691   37.9098 H   0  0  0  0  0  0  0  0  0  0  0  0
   45.4039   31.3295   39.8371 H   0  0  0  0  0  0  0  0  0  0  0  0
   47.1345   31.6815   40.2490 H   0  0  0  0  0  0  0  0  0  0  0  0
   45.6856   33.1396   41.6868 H   0  0  0  0  0  0  0  0  0  0  0  0
   48.3790   34.8206   41.9014 H   0  0  0  0  0  0  0  0  0  0  0  0
   46.9054   35.7656   42.2013 H   0  0  0  0  0  0  0  0  0  0  0  0
   46.2017   33.0153   42.2773 H   0  0  0  0  0  0  0  0  0  0  0  0
   47.7046   33.2492   43.2642 H   0  0  0  0  0  0  0  0  0  0  0  0
   46.6133   32.6436   45.2055 H   0  0  0  0  0  0  0  0  0  0  0  0
   45.3411   35.9928   42.8139 H   0  0  0  0  0  0  0  0  0  0  0  0
   43.9131   35.5286   46.8098 H   0  0  0  0  0  0  0  0  0  0  0  0
   44.6535   33.9477   38.9187 H   0  0  0  0  0  0  0  0  0  0  0  0
   43.7989   32.8266   40.0609 H   0  0  0  0  0  0  0  0  0  0  0  0
   43.7718   34.7298   41.7595 H   0  0  0  0  0  0  0  0  0  0  0  0
   44.3650   35.8268   40.5391 H   0  0  0  0  0  0  0  0  0  0  0  0
   41.5782   35.8028   41.7877 H   0  0  0  0  0  0  0  0  0  0  0  0
   39.2652   35.8958   40.9596 H   0  0  0  0  0  0  0  0  0  0  0  0
   38.8012   35.0015   38.6798 H   0  0  0  0  0  0  0  0  0  0  0  0
   40.6287   34.0652   37.3360 H   0  0  0  0  0  0  0  0  0  0  0  0
   42.9544   33.9672   38.1672 H   0  0  0  0  0  0  0  0  0  0  0  0
  1  6  1  0
  1  7  1  0
  2  1  1  0
  3  4  1  0
  3  2  1  0
  4  5  1  0
  5  6  1  0
  7  8  1  0
  8 10  1  0
  9 14  2  0
 10  9  1  0
 11 10  2  0
 11 12  1  0
 12 13  2  0
 13 14  1  0
 15  6  1  0
 15 16  1  0
 17 16  1  0
 17 18  2  0
 19 18  1  0
 20 19  2  0
 21 22  2  0
 21 20  1  0
 22 17  1  0
  1 23  1  6
  2 24  1  0
  2 25  1  0
  3 26  1  0
  3 27  1  0
  4 28  1  0
  4 29  1  0
  5 30  1  0
  5 31  1  0
  6 32  1  1
  7 33  1  0
  7 34  1  0
  8 35  1  0
  8 36  1  0
  9 37  1  0
 11 38  1  0
 13 39  1  0
 15 40  1  0
 15 41  1  0
 16 42  1  0
 16 43  1  0
 18 44  1  0
 19 45  1  0
 20 46  1  0
 21 47  1  0
 22 48  1  0
M  ISO  8  23  13  24  13  25  13  26  13  27  13  28  13  29  13  30  13
M  ISO  8  31  13  32  13  33   8  34   8  35   8  36   8  37  14  38  14
M  ISO  8  39  14  40   8  41   8  42   8  43   8  44  14  45  14  46  14
M  ISO  2  47  14  48  14
M  END
>  <minimizedAffinity>  (1) 
-5.53199196

>  <minimizedRMSD>  (1) 
2.33976889

$$$$
