
     RDKit          3D

 24 26  0  0  0  0  0  0  0  0999 V2000
   44.0950   33.9560   41.6010 N   0  0  0  0  0  0  0  0  0  0  0  0
   44.8290   33.8910   40.5010 C   0  0  0  0  0  0  0  0  0  0  0  0
   43.9150   33.6480   39.4330 C   0  0  0  0  0  0  0  0  0  0  0  0
   42.6720   33.5810   39.9310 N   0  0  0  0  0  0  0  0  0  0  0  0
   42.7630   33.7710   41.2740 C   0  0  0  0  0  0  0  0  0  0  0  0
   44.2100   35.4170   43.5040 C   0  0  0  0  0  0  0  0  0  0  0  0
   44.5020   34.1230   42.9230 C   0  0  0  0  0  0  0  0  0  0  0  0
   45.1470   33.1650   43.7250 C   0  0  0  0  0  0  0  0  0  0  0  0
   45.4750   33.4810   45.0070 N   0  0  0  0  0  0  0  0  0  0  0  0
   45.1840   34.7160   45.5190 C   0  0  0  0  0  0  0  0  0  0  0  0
   44.5560   35.6670   44.7670 N   0  0  0  0  0  0  0  0  0  0  0  0
   46.2100   34.0210   40.1790 C   0  0  0  0  0  0  0  0  0  0  0  0
   47.3110   34.4440   40.8880 C   0  0  0  0  0  0  0  0  0  0  0  0
   48.4280   34.4730   40.1400 N   0  0  0  0  0  0  0  0  0  0  0  0
   48.0730   34.0620   38.9030 C   0  0  0  0  0  0  0  0  0  0  0  0
   46.7610   33.8080   38.9720 N   0  0  0  0  0  0  0  0  0  0  0  0
   44.1860   33.5341   38.3730 H   0  0  0  0  0  0  0  0  0  0  0  0
   41.9205   33.7767   41.9812 H   0  0  0  0  0  0  0  0  0  0  0  0
   43.7051   36.1900   42.9060 H   0  0  0  0  0  0  0  0  0  0  0  0
   45.3840   32.1701   43.3200 H   0  0  0  0  0  0  0  0  0  0  0  0
   45.4617   34.9475   46.5579 H   0  0  0  0  0  0  0  0  0  0  0  0
   47.2806   34.7274   41.9504 H   0  0  0  0  0  0  0  0  0  0  0  0
   48.7255   33.9580   38.0236 H   0  0  0  0  0  0  0  0  0  0  0  0
   46.2163   33.4754   38.1636 H   0  0  0  0  0  0  0  0  0  0  0  0
  1  7  1  0
  2  1  1  0
  3  4  1  0
  3  2  2  0
  4  5  2  0
  5  1  1  0
  6 11  2  0
  7  6  1  0
  7  8  2  0
  8  9  1  0
  9 10  2  0
 11 10  1  0
 12  2  1  0
 12 13  2  0
 14 13  1  0
 15 16  1  0
 15 14  2  0
 16 12  1  0
  3 17  1  0
  5 18  1  0
  6 19  1  0
  8 20  1  0
 10 21  1  0
 13 22  1  0
 15 23  1  0
 16 24  1  0
M  ISO  8  17  14  18  14  19  14  20  14  21  14  22  14  23  14  24   9
M  END
>  <minimizedAffinity>  (1) 
-4.11114836

>  <minimizedRMSD>  (1) 
1.55263197

$$$$
