
     RDKit          3D

 24 26  0  0  0  0  0  0  0  0999 V2000
   46.7760   31.9990   47.6290 N   0  0  0  0  0  0  0  0  0  0  0  0
   46.7230   32.7060   46.5220 C   0  0  0  0  0  0  0  0  0  0  0  0
   45.5430   33.4440   46.5240 C   0  0  0  0  0  0  0  0  0  0  0  0
   44.8990   33.1670   47.6410 N   0  0  0  0  0  0  0  0  0  0  0  0
   45.6430   32.2800   48.3340 C   0  0  0  0  0  0  0  0  0  0  0  0
   48.7180   31.6270   48.9840 C   0  0  0  0  0  0  0  0  0  0  0  0
   47.7570   31.1030   48.0960 C   0  0  0  0  0  0  0  0  0  0  0  0
   47.8450   29.7490   47.7470 C   0  0  0  0  0  0  0  0  0  0  0  0
   48.8520   29.0030   48.2800 N   0  0  0  0  0  0  0  0  0  0  0  0
   49.7580   29.5520   49.1340 C   0  0  0  0  0  0  0  0  0  0  0  0
   49.6880   30.8650   49.4840 N   0  0  0  0  0  0  0  0  0  0  0  0
   45.2540   34.3150   45.3880 C   0  0  0  0  0  0  0  0  0  0  0  0
   45.9720   34.1810   44.2250 C   0  0  0  0  0  0  0  0  0  0  0  0
   45.5280   35.0790   43.3430 N   0  0  0  0  0  0  0  0  0  0  0  0
   44.5360   35.7800   43.9350 C   0  0  0  0  0  0  0  0  0  0  0  0
   44.3650   35.3100   45.1980 N   0  0  0  0  0  0  0  0  0  0  0  0
   47.4837   32.7131   45.7274 H   0  0  0  0  0  0  0  0  0  0  0  0
   45.3779   31.8517   49.3119 H   0  0  0  0  0  0  0  0  0  0  0  0
   48.6652   32.6879   49.2698 H   0  0  0  0  0  0  0  0  0  0  0  0
   47.1163   29.2981   47.0572 H   0  0  0  0  0  0  0  0  0  0  0  0
   50.5604   28.9239   49.5483 H   0  0  0  0  0  0  0  0  0  0  0  0
   46.7789   33.4543   44.0495 H   0  0  0  0  0  0  0  0  0  0  0  0
   43.9622   36.5958   43.4712 H   0  0  0  0  0  0  0  0  0  0  0  0
   43.6795   35.6523   45.8863 H   0  0  0  0  0  0  0  0  0  0  0  0
  1  7  1  0
  1  5  1  0
  2  3  2  0
  2  1  1  0
  3  4  1  0
  4  5  2  0
  6 11  2  0
  7  6  1  0
  8  7  2  0
  8  9  1  0
  9 10  2  0
 10 11  1  0
 12  3  1  0
 13 12  2  0
 14 15  2  0
 14 13  1  0
 15 16  1  0
 16 12  1  0
  2 17  1  0
  5 18  1  0
  6 19  1  0
  8 20  1  0
 10 21  1  0
 13 22  1  0
 15 23  1  0
 16 24  1  0
M  ISO  8  17  14  18  14  19  14  20  14  21  14  22  14  23  14  24   9
M  END
>  <minimizedAffinity>  (1) 
-4.78138399

>  <minimizedRMSD>  (1) 
7.69354486

$$$$
