
     RDKit          3D

 31 33  0  0  1  0  0  0  0  0999 V2000
   46.3240   34.1180   44.5690 C   0  0  2  0  0  0  0  0  0  0  0  0
   45.2010   34.6450   45.4340 C   0  0  0  0  0  0  0  0  0  0  0  0
   44.4500   35.7710   44.9130 C   0  0  0  0  0  0  0  0  0  0  0  0
   44.7840   36.3540   43.6080 C   0  0  2  0  0  0  0  0  0  0  0  0
   45.9890   35.8120   42.9220 C   0  0  0  0  0  0  0  0  0  0  0  0
   45.9940   34.3010   43.1220 C   0  0  0  0  0  0  0  0  0  0  0  0
   46.1480   32.2360   46.1760 C   0  0  0  0  0  0  0  0  0  0  0  0
   46.6370   32.7430   44.9730 C   0  0  0  0  0  0  0  0  0  0  0  0
   47.4420   31.8850   44.1790 C   0  0  0  0  0  0  0  0  0  0  0  0
   47.6940   30.6350   44.6220 N   0  0  0  0  0  0  0  0  0  0  0  0
   47.2030   30.1760   45.7980 C   0  0  0  0  0  0  0  0  0  0  0  0
   46.4400   30.9740   46.5570 N   0  0  0  0  0  0  0  0  0  0  0  0
   45.0790   37.8050   43.8710 C   0  0  0  0  0  0  0  0  0  0  0  0
   45.4510   38.9050   43.1250 C   0  0  0  0  0  0  0  0  0  0  0  0
   45.5590   39.9540   43.9890 N   0  0  0  0  0  0  0  0  0  0  0  0
   45.2670   39.5370   45.2330 C   0  0  0  0  0  0  0  0  0  0  0  0
   44.9740   38.2200   45.1560 N   0  0  0  0  0  0  0  0  0  0  0  0
   47.2495   34.6937   44.7174 H   0  0  0  0  0  0  0  0  0  0  0  0
   44.9654   34.1963   46.4103 H   0  0  0  0  0  0  0  0  0  0  0  0
   43.6218   36.1923   45.5017 H   0  0  0  0  0  0  0  0  0  0  0  0
   43.9327   36.1312   42.9480 H   0  0  0  0  0  0  0  0  0  0  0  0
   46.8982   36.2510   43.3587 H   0  0  0  0  0  0  0  0  0  0  0  0
   45.9669   36.0593   41.8504 H   0  0  0  0  0  0  0  0  0  0  0  0
   45.0067   33.8746   42.8911 H   0  0  0  0  0  0  0  0  0  0  0  0
   46.7117   33.7931   42.4610 H   0  0  0  0  0  0  0  0  0  0  0  0
   45.5195   32.8689   46.8197 H   0  0  0  0  0  0  0  0  0  0  0  0
   47.8532   32.2325   43.2197 H   0  0  0  0  0  0  0  0  0  0  0  0
   47.4299   29.1517   46.1287 H   0  0  0  0  0  0  0  0  0  0  0  0
   45.6269   38.9305   42.0395 H   0  0  0  0  0  0  0  0  0  0  0  0
   45.2666   40.1531   46.1442 H   0  0  0  0  0  0  0  0  0  0  0  0
   44.7110   37.6229   45.9530 H   0  0  0  0  0  0  0  0  0  0  0  0
  1  8  1  0
  1  2  1  0
  3  2  2  0
  4 13  1  0
  4  3  1  0
  5  6  1  0
  5  4  1  0
  6  1  1  0
  7 12  2  0
  8  7  1  0
  9 10  1  0
  9  8  2  0
 10 11  2  0
 11 12  1  0
 13 17  1  0
 14 13  2  0
 14 15  1  0
 15 16  2  0
 17 16  1  0
  1 18  1  1
  2 19  1  0
  3 20  1  0
  4 21  1  6
  5 22  1  0
  5 23  1  0
  6 24  1  0
  6 25  1  0
  7 26  1  0
  9 27  1  0
 11 28  1  0
 14 29  1  0
 16 30  1  0
 17 31  1  0
M  ISO  8  18  13  19  13  20  13  21  13  22  13  23  13  24  13  25  13
M  ISO  6  26  14  27  14  28  14  29  14  30  14  31   9
M  END
>  <minimizedAffinity>  (1) 
-3.92119551

>  <minimizedRMSD>  (1) 
1.74410939

$$$$
