
     RDKit          3D

 48 49  0  0  1  0  0  0  0  0999 V2000
   44.4260   35.9440   44.7430 C   0  0  0  0  0  0  0  0  0  0  0  0
   44.2950   35.8220   43.3530 C   0  0  0  0  0  0  0  0  0  0  0  0
   45.1170   34.8310   42.7880 C   0  0  0  0  0  0  0  0  0  0  0  0
   45.3020   33.7410   43.5930 N   0  0  0  0  0  0  0  0  0  0  0  0
   45.4660   33.9050   44.8970 C   0  0  0  0  0  0  0  0  0  0  0  0
   45.0130   35.0240   45.5050 N   0  0  0  0  0  0  0  0  0  0  0  0
   46.0770   32.9130   45.6390 N   0  0  0  0  0  0  0  0  0  0  0  0
   45.6520   32.8170   47.0590 C   0  0  0  0  0  0  0  0  0  0  0  0
   46.5420   31.9280   47.8850 C   0  0  0  0  0  0  0  0  0  0  0  0
   47.6740   31.5060   47.2340 O   0  0  0  0  0  0  0  0  0  0  0  0
   47.3440   30.9240   46.0350 C   0  0  0  0  0  0  0  0  0  0  0  0
   47.0930   32.0820   45.0960 C   0  0  1  0  0  0  0  0  0  0  0  0
   45.1860   33.7020   42.7210 H   0  0  0  0  0  0  0  0  0  0  0  0
   46.6550   31.8370   43.7990 N   0  0  0  0  0  0  0  0  0  0  0  0
   45.4190   31.3210   43.6520 C   0  0  0  0  0  0  0  0  0  0  0  0
   45.2100   31.1410   42.1660 C   0  0  0  0  0  0  0  0  0  0  0  0
   46.3430   31.9780   41.5570 C   0  0  0  0  0  0  0  0  0  0  0  0
   46.9930   32.6350   42.7730 C   0  0  2  0  0  0  0  0  0  0  0  0
   48.3890   32.0230   42.7220 C   0  0  0  0  0  0  0  0  0  0  0  0
   49.5370   32.8020   42.4990 C   0  0  0  0  0  0  0  0  0  0  0  0
   50.6790   32.0420   42.4880 N   0  0  0  0  0  0  0  0  0  0  0  0
   50.2520   30.7900   42.7020 C   0  0  0  0  0  0  0  0  0  0  0  0
   48.9170   30.7690   42.8390 N   0  0  0  0  0  0  0  0  0  0  0  0
   44.0235   36.8452   45.2286 H   0  0  0  0  0  0  0  0  0  0  0  0
   43.5080   35.0891   43.1218 H   0  0  0  0  0  0  0  0  0  0  0  0
   44.0250   36.7978   42.9231 H   0  0  0  0  0  0  0  0  0  0  0  0
   45.2492   35.4833   42.9231 H   0  0  0  0  0  0  0  0  0  0  0  0
   45.1170   34.8310   43.8880 H   0  0  0  0  0  0  0  0  0  0  0  0
   45.1170   35.8681   42.4213 H   0  0  0  0  0  0  0  0  0  0  0  0
   46.0151   34.3125   42.4213 H   0  0  0  0  0  0  0  0  0  0  0  0
   44.2189   34.3125   42.4213 H   0  0  0  0  0  0  0  0  0  0  0  0
   45.6630   33.8263   47.4963 H   0  0  0  0  0  0  0  0  0  0  0  0
   44.6456   32.3732   47.0699 H   0  0  0  0  0  0  0  0  0  0  0  0
   46.8476   32.4843   48.7834 H   0  0  0  0  0  0  0  0  0  0  0  0
   45.9577   31.0264   48.1210 H   0  0  0  0  0  0  0  0  0  0  0  0
   48.1717   30.2999   45.6671 H   0  0  0  0  0  0  0  0  0  0  0  0
   46.4680   30.2645   46.1223 H   0  0  0  0  0  0  0  0  0  0  0  0
   48.1067   32.5009   45.0130 H   0  0  0  0  0  0  0  0  0  0  0  0
   45.3469   30.3518   44.1672 H   0  0  0  0  0  0  0  0  0  0  0  0
   44.6548   31.9822   44.0866 H   0  0  0  0  0  0  0  0  0  0  0  0
   45.3010   30.0831   41.8788 H   0  0  0  0  0  0  0  0  0  0  0  0
   44.2104   31.4507   41.8271 H   0  0  0  0  0  0  0  0  0  0  0  0
   47.0620   31.3383   41.0243 H   0  0  0  0  0  0  0  0  0  0  0  0
   45.9861   32.7075   40.8151 H   0  0  0  0  0  0  0  0  0  0  0  0
   46.8120   33.7189   42.8229 H   0  0  0  0  0  0  0  0  0  0  0  0
   49.5218   33.8919   42.3508 H   0  0  0  0  0  0  0  0  0  0  0  0
   50.9031   29.9051   42.7575 H   0  0  0  0  0  0  0  0  0  0  0  0
   48.3628   29.9178   43.0101 H   0  0  0  0  0  0  0  0  0  0  0  0
  1  6  2  0
  2  1  1  0
  4  5  2  0
  5  6  1  0
  5  7  1  0
  7  8  1  0
  8  9  1  0
 10  9  1  0
 11 10  1  0
 12  7  1  0
 12 11  1  0
 13  4  1  0
 14 15  1  0
 14 12  1  0
 16 15  1  0
 17 16  1  0
 17 18  1  0
 18 14  1  0
 19 18  1  0
 19 23  1  0
 20 19  2  0
 21 20  1  0
 21 22  2  0
 22 23  1  0
  1 24  1  0
  2 25  1  0
  2 26  1  0
  2 27  1  0
  3 28  1  0
  3 29  1  0
  3 30  1  0
  3 31  1  0
  8 32  1  0
  8 33  1  0
  9 34  1  0
  9 35  1  0
 11 36  1  0
 11 37  1  0
 12 38  1  6
 15 39  1  0
 15 40  1  0
 16 41  1  0
 16 42  1  0
 17 43  1  0
 17 44  1  0
 18 45  1  1
 20 46  1  0
 22 47  1  0
 23 48  1  0
M  ISO  8  25   8  26   8  27   8  28   8  29   8  30   8  31   8  32  13
M  ISO  8  33  13  34  13  35  13  36  13  37  13  38  13  39  13  40  13
M  ISO  8  41  13  42  13  43  13  44  13  45  13  46  14  47  14  48   9
M  END
>  <minimizedAffinity>  (1) 
-4.67066479

>  <minimizedRMSD>  (1) 
1.57116234

$$$$
