
     RDKit          3D

 31 34  0  0  0  0  0  0  0  0999 V2000
   45.2220   33.7820   41.5110 C   0  0  0  0  0  0  0  0  0  0  0  0
   45.8760   34.4540   42.5270 C   0  0  0  0  0  0  0  0  0  0  0  0
   47.0770   34.8570   42.0930 N   0  0  0  0  0  0  0  0  0  0  0  0
   47.2060   34.4560   40.8170 C   0  0  0  0  0  0  0  0  0  0  0  0
   48.2530   34.6220   39.9230 C   0  0  0  0  0  0  0  0  0  0  0  0
   48.1180   34.1050   38.6590 C   0  0  0  0  0  0  0  0  0  0  0  0
   47.0040   33.4180   38.1950 C   0  0  0  0  0  0  0  0  0  0  0  0
   45.9980   33.2870   39.1330 C   0  0  0  0  0  0  0  0  0  0  0  0
   46.0560   33.7740   40.4130 C   0  0  0  0  0  0  0  0  0  0  0  0
   41.5360   33.3220   41.1420 C   0  0  0  0  0  0  0  0  0  0  0  0
   42.8110   33.9180   41.0800 C   0  0  0  0  0  0  0  0  0  0  0  0
   43.8990   33.1850   41.5670 C   0  0  0  0  0  0  0  0  0  0  0  0
   43.6740   31.9260   42.0790 N   0  0  0  0  0  0  0  0  0  0  0  0
   42.4230   31.4030   42.1140 C   0  0  0  0  0  0  0  0  0  0  0  0
   41.3550   32.0910   41.6500 N   0  0  0  0  0  0  0  0  0  0  0  0
   45.3850   34.7150   43.8820 C   0  0  0  0  0  0  0  0  0  0  0  0
   44.6360   35.7430   44.4460 C   0  0  0  0  0  0  0  0  0  0  0  0
   44.4650   35.4790   45.7520 N   0  0  0  0  0  0  0  0  0  0  0  0
   45.0910   34.3040   46.0220 C   0  0  0  0  0  0  0  0  0  0  0  0
   45.6570   33.8280   44.8840 N   0  0  0  0  0  0  0  0  0  0  0  0
   47.7762   35.3803   42.6391 H   0  0  0  0  0  0  0  0  0  0  0  0
   49.1686   35.1546   40.2195 H   0  0  0  0  0  0  0  0  0  0  0  0
   48.9559   34.2455   37.9603 H   0  0  0  0  0  0  0  0  0  0  0  0
   46.9293   33.0150   37.1742 H   0  0  0  0  0  0  0  0  0  0  0  0
   45.0848   32.7535   38.8308 H   0  0  0  0  0  0  0  0  0  0  0  0
   40.6657   33.8789   40.7647 H   0  0  0  0  0  0  0  0  0  0  0  0
   42.9468   34.9266   40.6624 H   0  0  0  0  0  0  0  0  0  0  0  0
   42.2735   30.3955   42.5296 H   0  0  0  0  0  0  0  0  0  0  0  0
   44.2490   36.6236   43.9123 H   0  0  0  0  0  0  0  0  0  0  0  0
   45.1326   33.8158   47.0068 H   0  0  0  0  0  0  0  0  0  0  0  0
   46.1951   32.9545   44.7925 H   0  0  0  0  0  0  0  0  0  0  0  0
  1 12  1  0
  1  2  2  0
  2 16  1  0
  3  2  1  0
  4  3  1  0
  5  4  2  0
  6  5  1  0
  7  6  2  0
  7  8  1  0
  8  9  2  0
  9  4  1  0
  9  1  1  0
 10 15  2  0
 11 10  1  0
 11 12  2  0
 12 13  1  0
 13 14  2  0
 15 14  1  0
 16 17  2  0
 16 20  1  0
 17 18  1  0
 18 19  2  0
 20 19  1  0
  3 21  1  0
  5 22  1  0
  6 23  1  0
  7 24  1  0
  8 25  1  0
 10 26  1  0
 11 27  1  0
 14 28  1  0
 17 29  1  0
 19 30  1  0
 20 31  1  0
M  ISO  8  21   9  22  14  23  14  24  14  25  14  26  14  27  14  28  14
M  ISO  3  29  14  30  14  31   9
M  END
>  <minimizedAffinity>  (1) 
-5.48770905

>  <minimizedRMSD>  (1) 
3.91820049

$$$$
