
     RDKit          3D

 31 34  0  0  0  0  0  0  0  0999 V2000
   47.1980   34.9250   41.9390 C   0  0  0  0  0  0  0  0  0  0  0  0
   48.4850   35.4480   41.8170 C   0  0  0  0  0  0  0  0  0  0  0  0
   48.9750   35.1560   40.6010 N   0  0  0  0  0  0  0  0  0  0  0  0
   48.0320   34.4570   39.9360 C   0  0  0  0  0  0  0  0  0  0  0  0
   48.0480   33.9300   38.6590 C   0  0  0  0  0  0  0  0  0  0  0  0
   46.9320   33.2500   38.2260 C   0  0  0  0  0  0  0  0  0  0  0  0
   45.7780   33.0490   38.9720 C   0  0  0  0  0  0  0  0  0  0  0  0
   45.8380   33.6070   40.2370 C   0  0  0  0  0  0  0  0  0  0  0  0
   46.9000   34.2900   40.7400 C   0  0  0  0  0  0  0  0  0  0  0  0
   44.4790   36.0750   44.2140 C   0  0  0  0  0  0  0  0  0  0  0  0
   45.3260   35.9860   43.1040 C   0  0  0  0  0  0  0  0  0  0  0  0
   46.3220   35.0160   43.0880 C   0  0  0  0  0  0  0  0  0  0  0  0
   46.4250   34.1940   44.1630 N   0  0  0  0  0  0  0  0  0  0  0  0
   45.6010   34.2890   45.2290 C   0  0  0  0  0  0  0  0  0  0  0  0
   44.6300   35.2240   45.2620 N   0  0  0  0  0  0  0  0  0  0  0  0
   45.7520   33.3710   46.3760 C   0  0  0  0  0  0  0  0  0  0  0  0
   46.7280   32.4000   46.4740 C   0  0  0  0  0  0  0  0  0  0  0  0
   46.5250   31.7750   47.6730 N   0  0  0  0  0  0  0  0  0  0  0  0
   45.4680   32.3650   48.2480 C   0  0  0  0  0  0  0  0  0  0  0  0
   44.9740   33.3470   47.4740 N   0  0  0  0  0  0  0  0  0  0  0  0
   49.0170   36.0128   42.5967 H   0  0  0  0  0  0  0  0  0  0  0  0
   49.9036   35.4185   40.2410 H   0  0  0  0  0  0  0  0  0  0  0  0
   48.9262   34.0501   38.0076 H   0  0  0  0  0  0  0  0  0  0  0  0
   46.9563   32.8328   37.2085 H   0  0  0  0  0  0  0  0  0  0  0  0
   44.9025   32.5003   38.5946 H   0  0  0  0  0  0  0  0  0  0  0  0
   44.9577   33.4885   40.8859 H   0  0  0  0  0  0  0  0  0  0  0  0
   43.6869   36.8379   44.2382 H   0  0  0  0  0  0  0  0  0  0  0  0
   45.2055   36.6747   42.2548 H   0  0  0  0  0  0  0  0  0  0  0  0
   47.5117   32.1743   45.7358 H   0  0  0  0  0  0  0  0  0  0  0  0
   45.0570   32.0819   49.2283 H   0  0  0  0  0  0  0  0  0  0  0  0
   44.1679   33.9546   47.6787 H   0  0  0  0  0  0  0  0  0  0  0  0
  1 12  1  0
  2  1  2  0
  3  2  1  0
  4  3  1  0
  4  9  2  0
  5  4  1  0
  6  5  2  0
  6  7  1  0
  7  8  2  0
  8  9  1  0
  9  1  1  0
 10 15  2  0
 11 10  1  0
 12 11  2  0
 12 13  1  0
 13 14  2  0
 14 15  1  0
 14 16  1  0
 16 17  2  0
 16 20  1  0
 17 18  1  0
 18 19  2  0
 20 19  1  0
  2 21  1  0
  3 22  1  0
  5 23  1  0
  6 24  1  0
  7 25  1  0
  8 26  1  0
 10 27  1  0
 11 28  1  0
 17 29  1  0
 19 30  1  0
 20 31  1  0
M  END
>  <minimizedAffinity>  (1) 
-7.13964367

>  <minimizedRMSD>  (1) 
0.34895876

$$$$
