
     RDKit          3D

 22 24  0  0  0  0  0  0  0  0999 V2000
   45.3970   34.5440   44.4790 C   0  0  0  0  0  0  0  0  0  0  0  0
   46.4090   34.0610   43.6230 C   0  0  0  0  0  0  0  0  0  0  0  0
   47.3030   33.0760   44.0860 C   0  0  0  0  0  0  0  0  0  0  0  0
   47.1240   32.6450   45.3680 N   0  0  0  0  0  0  0  0  0  0  0  0
   46.1450   33.1370   46.1500 C   0  0  0  0  0  0  0  0  0  0  0  0
   45.3000   34.0660   45.7120 N   0  0  0  0  0  0  0  0  0  0  0  0
   44.4890   35.5700   43.9210 C   0  0  0  0  0  0  0  0  0  0  0  0
   45.1080   36.8500   43.3880 C   0  0  0  0  0  0  0  0  0  0  0  0
   44.4570   35.8850   42.4850 C   0  0  0  0  0  0  0  0  0  0  0  0
   48.3460   32.5810   43.1950 C   0  0  0  0  0  0  0  0  0  0  0  0
   48.6130   31.2680   42.9550 N   0  0  0  0  0  0  0  0  0  0  0  0
   49.6030   31.1580   42.1120 O   0  0  0  0  0  0  0  0  0  0  0  0
   50.0050   32.3450   41.7830 C   0  0  0  0  0  0  0  0  0  0  0  0
   49.2410   33.2520   42.4420 N   0  0  0  0  0  0  0  0  0  0  0  0
   46.4995   34.4518   42.5988 H   0  0  0  0  0  0  0  0  0  0  0  0
   46.0411   32.7608   47.1784 H   0  0  0  0  0  0  0  0  0  0  0  0
   43.7181   35.2896   44.6539 H   0  0  0  0  0  0  0  0  0  0  0  0
   44.6343   37.8211   43.5942 H   0  0  0  0  0  0  0  0  0  0  0  0
   46.0981   37.3258   43.4456 H   0  0  0  0  0  0  0  0  0  0  0  0
   43.5017   36.1466   42.0065 H   0  0  0  0  0  0  0  0  0  0  0  0
   44.7753   35.3514   41.5773 H   0  0  0  0  0  0  0  0  0  0  0  0
   50.8254   32.5776   41.0882 H   0  0  0  0  0  0  0  0  0  0  0  0
  1  6  2  0
  2  3  2  0
  2  1  1  0
  3  4  1  0
  4  5  2  0
  6  5  1  0
  7  1  1  0
  8  7  1  0
  9  8  1  0
  9  7  1  0
 10  3  1  0
 11 10  2  0
 12 11  1  0
 13 12  1  0
 13 14  2  0
 14 10  1  0
  2 15  1  0
  5 16  1  0
  7 17  1  0
  8 18  1  0
  8 19  1  0
  9 20  1  0
  9 21  1  0
 13 22  1  0
M  ISO  8  15  14  16  14  17  13  18  13  19  13  20  13  21  13  22  14
M  END
>  <minimizedAffinity>  (1) 
-3.76496339

>  <minimizedRMSD>  (1) 
1.0592171

$$$$
