
     RDKit          3D

 47 51  0  0  0  0  0  0  0  0999 V2000
   46.1260   31.9970   47.2960 C   0  0  0  0  0  0  0  0  0  0  0  0
   44.5100   35.0530   46.1620 C   0  0  0  0  0  0  0  0  0  0  0  0
   44.7440   35.0500   44.7800 C   0  0  0  0  0  0  0  0  0  0  0  0
   45.4710   33.9790   44.2220 C   0  0  0  0  0  0  0  0  0  0  0  0
   45.9020   33.0130   45.0580 N   0  0  0  0  0  0  0  0  0  0  0  0
   45.6500   33.0580   46.3940 C   0  0  0  0  0  0  0  0  0  0  0  0
   44.9640   34.0660   46.9300 N   0  0  0  0  0  0  0  0  0  0  0  0
   45.6830   34.0190   42.8270 N   0  0  0  0  0  0  0  0  0  0  0  0
   44.9310   33.8260   41.7510 C   0  0  0  0  0  0  0  0  0  0  0  0
   45.6740   33.9970   40.6240 N   0  0  0  0  0  0  0  0  0  0  0  0
   46.9290   34.3050   40.9950 C   0  0  0  0  0  0  0  0  0  0  0  0
   48.0470   34.5700   40.2270 C   0  0  0  0  0  0  0  0  0  0  0  0
   48.0510   34.5600   39.0020 O   0  0  0  0  0  0  0  0  0  0  0  0
   49.2200   34.8600   40.8480 N   0  0  0  0  0  0  0  0  0  0  0  0
   49.2040   34.8680   42.1850 C   0  0  0  0  0  0  0  0  0  0  0  0
   50.3740   35.1590   42.9560 N   0  0  0  0  0  0  0  0  0  0  0  0
   48.1300   34.6140   42.9230 N   0  0  0  0  0  0  0  0  0  0  0  0
   46.9360   34.3190   42.3730 C   0  0  0  0  0  0  0  0  0  0  0  0
   47.2920   32.4890   48.1370 C   0  0  0  0  0  0  0  0  0  0  0  0
   45.0490   31.4810   48.2180 C   0  0  0  0  0  0  0  0  0  0  0  0
   46.6560   30.8660   46.4260 C   0  0  0  0  0  0  0  0  0  0  0  0
   45.8560   29.6060   46.6090 C   0  0  0  0  0  0  0  0  0  0  0  0
   46.3460   28.6340   47.4130 C   0  0  0  0  0  0  0  0  0  0  0  0
   45.0770   27.2950   47.3570 S   0  0  0  0  0  0  0  0  0  0  0  0
   44.0530   28.3550   46.1880 C   0  0  0  0  0  0  0  0  0  0  0  0
   44.7140   29.3100   46.0810 N   0  0  0  0  0  0  0  0  0  0  0  0
   42.7580   27.8850   45.6610 C   0  0  0  0  0  0  0  0  0  0  0  0
   41.9040   28.5020   44.8280 N   0  0  0  0  0  0  0  0  0  0  0  0
   40.8820   27.7070   44.6350 O   0  0  0  0  0  0  0  0  0  0  0  0
   41.0540   26.5810   45.3250 C   0  0  0  0  0  0  0  0  0  0  0  0
   42.2490   26.6860   45.9830 N   0  0  0  0  0  0  0  0  0  0  0  0
   43.9450   35.8802   46.6164 H   0  0  0  0  0  0  0  0  0  0  0  0
   44.3685   35.8657   44.1447 H   0  0  0  0  0  0  0  0  0  0  0  0
   43.8624   33.5656   41.7676 H   0  0  0  0  0  0  0  0  0  0  0  0
   50.0781   35.0634   40.3159 H   0  0  0  0  0  0  0  0  0  0  0  0
   50.3265   35.1566   43.9849 H   0  0  0  0  0  0  0  0  0  0  0  0
   51.2636   35.3708   42.4820 H   0  0  0  0  0  0  0  0  0  0  0  0
   47.0445   32.3846   49.2037 H   0  0  0  0  0  0  0  0  0  0  0  0
   48.1870   31.8918   47.9081 H   0  0  0  0  0  0  0  0  0  0  0  0
   47.4886   33.5468   47.9081 H   0  0  0  0  0  0  0  0  0  0  0  0
   45.3588   31.6294   49.2630 H   0  0  0  0  0  0  0  0  0  0  0  0
   44.1134   32.0287   48.0316 H   0  0  0  0  0  0  0  0  0  0  0  0
   44.8895   30.4087   48.0316 H   0  0  0  0  0  0  0  0  0  0  0  0
   47.7031   30.6668   46.6981 H   0  0  0  0  0  0  0  0  0  0  0  0
   46.5758   31.1749   45.3733 H   0  0  0  0  0  0  0  0  0  0  0  0
   47.2913   28.6405   47.9754 H   0  0  0  0  0  0  0  0  0  0  0  0
   40.3635   25.7254   45.3595 H   0  0  0  0  0  0  0  0  0  0  0  0
  1 19  1  0
  1 20  1  0
  2  7  2  0
  3  2  1  0
  4  3  2  0
  4  5  1  0
  5  6  2  0
  6  7  1  0
  6  1  1  0
  8  4  1  0
  9  8  1  0
 10 11  1  0
 10  9  2  0
 11 18  2  0
 12 14  1  0
 12 11  1  0
 13 12  2  0
 14 15  1  0
 15 17  2  0
 15 16  1  0
 18  8  1  0
 18 17  1  0
 21 22  1  0
 21  1  1  0
 22 23  2  0
 24 23  1  0
 25 24  1  0
 26 25  2  0
 26 22  1  0
 27 31  1  0
 27 25  1  0
 28 27  2  0
 29 28  1  0
 29 30  1  0
 30 31  2  0
  2 32  1  0
  3 33  1  0
  9 34  1  0
 14 35  1  0
 16 36  1  0
 16 37  1  0
 19 38  1  0
 19 39  1  0
 19 40  1  0
 20 41  1  0
 20 42  1  0
 20 43  1  0
 21 44  1  0
 21 45  1  0
 23 46  1  0
 30 47  1  0
M  END
>  <minimizedAffinity>  (1) 
-7.15970898

>  <minimizedRMSD>  (1) 
0.0767267346

$$$$
