
     RDKit          3D

 50 54  0  0  0  0  0  0  0  0999 V2000
   46.5880   34.6180   42.0550 C   0  0  0  0  0  0  0  0  0  0  0  0
   47.9210   34.9370   41.7520 C   0  0  0  0  0  0  0  0  0  0  0  0
   48.0490   34.5610   40.4170 C   0  0  0  0  0  0  0  0  0  0  0  0
   46.8260   34.0510   39.9990 C   0  0  0  0  0  0  0  0  0  0  0  0
   45.9900   34.1090   41.0140 O   0  0  0  0  0  0  0  0  0  0  0  0
   44.4860   36.0490   44.7680 C   0  0  0  0  0  0  0  0  0  0  0  0
   45.1230   35.8980   43.4920 C   0  0  0  0  0  0  0  0  0  0  0  0
   45.9260   34.8090   43.3260 C   0  0  0  0  0  0  0  0  0  0  0  0
   46.0810   33.9290   44.3660 N   0  0  0  0  0  0  0  0  0  0  0  0
   45.4730   34.0900   45.5570 C   0  0  0  0  0  0  0  0  0  0  0  0
   44.6740   35.1530   45.7580 N   0  0  0  0  0  0  0  0  0  0  0  0
   45.7340   33.0960   46.5310 N   0  0  0  0  0  0  0  0  0  0  0  0
   45.1810   33.0650   47.7390 N   0  0  0  0  0  0  0  0  0  0  0  0
   45.6160   32.0050   48.4480 C   0  0  0  0  0  0  0  0  0  0  0  0
   46.5170   31.3080   47.6240 C   0  0  0  0  0  0  0  0  0  0  0  0
   46.5680   32.0170   46.4300 C   0  0  0  0  0  0  0  0  0  0  0  0
   46.5400   33.5590   38.7050 N   0  0  0  0  0  0  0  0  0  0  0  0
   45.4230   32.8170   38.5410 C   0  0  0  0  0  0  0  0  0  0  0  0
   45.0730   32.3030   37.3130 C   0  0  0  0  0  0  0  0  0  0  0  0
   45.9090   32.5690   36.2340 C   0  0  0  0  0  0  0  0  0  0  0  0
   45.6070   32.1080   35.1060 O   0  0  0  0  0  0  0  0  0  0  0  0
   47.0240   33.3220   36.4480 N   0  0  0  0  0  0  0  0  0  0  0  0
   47.3260   33.8070   37.6740 C   0  0  0  0  0  0  0  0  0  0  0  0
   48.3620   34.4900   37.8070 O   0  0  0  0  0  0  0  0  0  0  0  0
   43.8490   31.5060   37.1930 C   0  0  0  0  0  0  0  0  0  0  0  0
   40.9560   32.3640   40.1340 C   0  0  0  0  0  0  0  0  0  0  0  0
   41.1910   33.3280   39.1640 C   0  0  0  0  0  0  0  0  0  0  0  0
   42.1320   33.1170   38.1580 C   0  0  0  0  0  0  0  0  0  0  0  0
   42.8190   31.9190   38.1640 C   0  0  0  0  0  0  0  0  0  0  0  0
   42.5850   30.9530   39.1360 C   0  0  0  0  0  0  0  0  0  0  0  0
   41.6520   31.1550   40.1380 C   0  0  0  0  0  0  0  0  0  0  0  0
   39.7680   32.6290   41.4060 S   0  0  0  0  0  0  0  0  0  0  0  0
   38.3690   32.4100   40.8820 O   0  0  0  0  0  0  0  0  0  0  0  0
   39.8650   33.9970   41.9750 O   0  0  0  0  0  0  0  0  0  0  0  0
   48.6827   35.3785   42.4115 H   0  0  0  0  0  0  0  0  0  0  0  0
   48.9570   34.6517   39.8027 H   0  0  0  0  0  0  0  0  0  0  0  0
   43.8299   36.9144   44.9429 H   0  0  0  0  0  0  0  0  0  0  0  0
   44.9705   36.6282   42.6835 H   0  0  0  0  0  0  0  0  0  0  0  0
   45.3227   31.7367   49.4737 H   0  0  0  0  0  0  0  0  0  0  0  0
   47.0686   30.3895   47.8734 H   0  0  0  0  0  0  0  0  0  0  0  0
   47.1764   31.7546   45.5519 H   0  0  0  0  0  0  0  0  0  0  0  0
   44.7778   32.6189   39.4096 H   0  0  0  0  0  0  0  0  0  0  0  0
   47.6518   33.5268   35.6576 H   0  0  0  0  0  0  0  0  0  0  0  0
   43.4462   31.6260   36.1765 H   0  0  0  0  0  0  0  0  0  0  0  0
   44.1071   30.4569   37.3996 H   0  0  0  0  0  0  0  0  0  0  0  0
   40.6267   34.2719   39.1895 H   0  0  0  0  0  0  0  0  0  0  0  0
   42.3209   33.8778   37.3864 H   0  0  0  0  0  0  0  0  0  0  0  0
   43.1519   30.0107   39.1082 H   0  0  0  0  0  0  0  0  0  0  0  0
   41.4664   30.3916   40.9079 H   0  0  0  0  0  0  0  0  0  0  0  0
   40.0376   31.7240   42.3986 H   0  0  0  0  0  0  0  0  0  0  0  0
  1  8  1  0
  2  1  2  0
  3  2  1  0
  4  3  2  0
  4  5  1  0
  5  1  1  0
  6 11  2  0
  7  6  1  0
  8  7  2  0
  8  9  1  0
  9 10  2  0
 10 11  1  0
 10 12  1  0
 12 13  1  0
 13 14  2  0
 15 14  1  0
 16 12  1  0
 16 15  2  0
 17  4  1  0
 18 17  1  0
 19 18  2  0
 20 22  1  0
 20 19  1  0
 21 20  2  0
 22 23  1  0
 23 24  2  0
 23 17  1  0
 25 19  1  0
 25 29  1  0
 26 31  2  0
 26 32  1  0
 27 26  1  0
 28 29  1  0
 28 27  2  0
 29 30  2  0
 30 31  1  0
 32 34  2  0
 33 32  2  0
  2 35  1  0
  3 36  1  0
  6 37  1  0
  7 38  1  0
 14 39  1  0
 15 40  1  0
 16 41  1  0
 18 42  1  0
 22 43  1  0
 25 44  1  0
 25 45  1  0
 27 46  1  0
 28 47  1  0
 30 48  1  0
 31 49  1  0
 32 50  1  0
M  END
>  <minimizedAffinity>  (1) 
-7.87192059

>  <minimizedRMSD>  (1) 
2.19601822

$$$$
