
     RDKit          3D

 30 33  0  0  0  0  0  0  0  0999 V2000
   46.1840   30.3760   49.1270 N   0  0  0  0  0  0  0  0  0  0  0  0
   45.3160   31.3960   49.4330 C   0  0  0  0  0  0  0  0  0  0  0  0
   45.2510   32.2190   48.3630 N   0  0  0  0  0  0  0  0  0  0  0  0
   46.0750   31.6910   47.4290 C   0  0  0  0  0  0  0  0  0  0  0  0
   46.3170   32.2050   46.1790 C   0  0  0  0  0  0  0  0  0  0  0  0
   47.1910   31.5150   45.3800 N   0  0  0  0  0  0  0  0  0  0  0  0
   47.7810   30.3880   45.8070 C   0  0  0  0  0  0  0  0  0  0  0  0
   47.5060   29.9300   47.0430 N   0  0  0  0  0  0  0  0  0  0  0  0
   46.6790   30.5350   47.8690 C   0  0  0  0  0  0  0  0  0  0  0  0
   48.7190   29.6120   45.0010 C   0  0  0  0  0  0  0  0  0  0  0  0
   49.0390   30.1490   43.7870 N   0  0  0  0  0  0  0  0  0  0  0  0
   49.8870   29.3460   43.1770 O   0  0  0  0  0  0  0  0  0  0  0  0
   50.1170   28.3180   43.9580 C   0  0  0  0  0  0  0  0  0  0  0  0
   49.4050   28.4390   45.1170 N   0  0  0  0  0  0  0  0  0  0  0  0
   45.6390   33.6660   45.4450 S   0  0  0  0  0  0  0  0  0  0  0  0
   47.8000   34.7230   42.3580 C   0  0  0  0  0  0  0  0  0  0  0  0
   47.0740   34.3420   41.2220 C   0  0  0  0  0  0  0  0  0  0  0  0
   45.8530   33.7260   41.4290 C   0  0  0  0  0  0  0  0  0  0  0  0
   45.4130   33.5180   42.7060 N   0  0  0  0  0  0  0  0  0  0  0  0
   46.1640   33.9120   43.7730 C   0  0  0  0  0  0  0  0  0  0  0  0
   47.3250   34.4980   43.5710 N   0  0  0  0  0  0  0  0  0  0  0  0
   49.0970   35.3780   42.1480 C   0  0  0  0  0  0  0  0  0  0  0  0
   49.2430   36.1480   41.1600 O   0  0  0  0  0  0  0  0  0  0  0  0
   50.1120   35.1370   43.0280 O   0  0  0  0  0  0  0  0  0  0  0  0
   46.4260   29.6005   49.7601 H   0  0  0  0  0  0  0  0  0  0  0  0
   44.7709   31.5206   50.3803 H   0  0  0  0  0  0  0  0  0  0  0  0
   50.7864   27.4797   43.7148 H   0  0  0  0  0  0  0  0  0  0  0  0
   47.4589   34.5251   40.2079 H   0  0  0  0  0  0  0  0  0  0  0  0
   45.2411   33.4061   40.5727 H   0  0  0  0  0  0  0  0  0  0  0  0
   50.9922   35.5715   42.8994 H   0  0  0  0  0  0  0  0  0  0  0  0
  1  2  1  0
  3  2  2  0
  4  9  2  0
  4  3  1  0
  5  4  1  0
  6  7  1  0
  6  5  2  0
  7  8  2  0
  8  9  1  0
  9  1  1  0
 10 14  1  0
 10  7  1  0
 11 10  2  0
 12 11  1  0
 12 13  1  0
 13 14  2  0
 15  5  1  0
 16 21  2  0
 17 18  2  0
 17 16  1  0
 18 19  1  0
 19 20  2  0
 20 15  1  0
 21 20  1  0
 22 16  1  0
 22 24  1  0
 23 22  2  0
  1 25  1  0
  2 26  1  0
 13 27  1  0
 17 28  1  0
 18 29  1  0
 24 30  1  0
M  ISO  6  25   9  26  14  27  14  28  14  29  14  30   3
M  END
>  <minimizedAffinity>  (1) 
-5.70451546

>  <minimizedRMSD>  (1) 
0.222797468

$$$$
