
     RDKit          3D

 40 42  0  0  0  0  0  0  0  0999 V2000
   44.5010   35.9130   44.6930 C   0  0  0  0  0  0  0  0  0  0  0  0
   45.0710   35.9450   43.4160 C   0  0  0  0  0  0  0  0  0  0  0  0
   45.9960   34.9630   43.0890 C   0  0  0  0  0  0  0  0  0  0  0  0
   46.3090   34.0120   44.0200 N   0  0  0  0  0  0  0  0  0  0  0  0
   45.7340   34.0150   45.2450 C   0  0  0  0  0  0  0  0  0  0  0  0
   44.8330   34.9720   45.5660 N   0  0  0  0  0  0  0  0  0  0  0  0
   46.0460   33.0110   46.2300 C   0  0  0  0  0  0  0  0  0  0  0  0
   45.3950   32.9670   47.4600 C   0  0  0  0  0  0  0  0  0  0  0  0
   45.6470   32.0230   48.4320 C   0  0  0  0  0  0  0  0  0  0  0  0
   46.6070   31.1230   48.0730 C   0  0  0  0  0  0  0  0  0  0  0  0
   47.2890   31.1090   46.8760 C   0  0  0  0  0  0  0  0  0  0  0  0
   46.9650   32.0750   46.0010 N   0  0  0  0  0  0  0  0  0  0  0  0
   44.4140   33.9670   47.7070 N   0  0  0  0  0  0  0  0  0  0  0  0
   46.6160   34.9710   41.7450 C   0  0  0  0  0  0  0  0  0  0  0  0
   48.0730   35.2800   41.8030 C   0  0  0  0  0  0  0  0  0  0  0  0
   50.7790   32.1200   41.2560 C   0  0  0  0  0  0  0  0  0  0  0  0
   51.0030   33.0730   42.2300 C   0  0  0  0  0  0  0  0  0  0  0  0
   50.0950   34.0960   42.3830 C   0  0  0  0  0  0  0  0  0  0  0  0
   48.9670   34.1600   41.5590 C   0  0  0  0  0  0  0  0  0  0  0  0
   48.8280   33.1810   40.6280 C   0  0  0  0  0  0  0  0  0  0  0  0
   49.6780   32.1210   40.4000 C   0  0  0  0  0  0  0  0  0  0  0  0
   51.9900   30.8490   41.1320 S   0  0  0  0  0  0  0  0  0  0  0  0
   53.1180   31.3190   40.2450 O   0  0  0  0  0  0  0  0  0  0  0  0
   51.3720   29.6010   40.5720 O   0  0  0  0  0  0  0  0  0  0  0  0
   43.7660   36.6804   44.9773 H   0  0  0  0  0  0  0  0  0  0  0  0
   44.7943   36.7256   42.6920 H   0  0  0  0  0  0  0  0  0  0  0  0
   45.1260   31.9979   49.4005 H   0  0  0  0  0  0  0  0  0  0  0  0
   46.8587   30.3397   48.8032 H   0  0  0  0  0  0  0  0  0  0  0  0
   48.0538   30.3513   46.6503 H   0  0  0  0  0  0  0  0  0  0  0  0
   43.9040   33.9782   48.6018 H   0  0  0  0  0  0  0  0  0  0  0  0
   44.2137   34.6799   46.9911 H   0  0  0  0  0  0  0  0  0  0  0  0
   46.1160   35.7321   41.1280 H   0  0  0  0  0  0  0  0  0  0  0  0
   46.4991   33.9669   41.3114 H   0  0  0  0  0  0  0  0  0  0  0  0
   48.2848   36.0516   41.0482 H   0  0  0  0  0  0  0  0  0  0  0  0
   48.2698   35.5999   42.8369 H   0  0  0  0  0  0  0  0  0  0  0  0
   51.8932   33.0154   42.8735 H   0  0  0  0  0  0  0  0  0  0  0  0
   50.2567   34.8638   43.1540 H   0  0  0  0  0  0  0  0  0  0  0  0
   47.9379   33.2411   39.9845 H   0  0  0  0  0  0  0  0  0  0  0  0
   49.5068   31.3579   39.6264 H   0  0  0  0  0  0  0  0  0  0  0  0
   52.4839   30.5662   42.3782 H   0  0  0  0  0  0  0  0  0  0  0  0
  1  6  2  0
  2  1  1  0
  3  2  2  0
  3  4  1  0
  4  5  2  0
  5  6  1  0
  5  7  1  0
  7  8  2  0
  8 13  1  0
  8  9  1  0
 10  9  2  0
 11 10  1  0
 12  7  1  0
 12 11  2  0
 14 15  1  0
 14  3  1  0
 16 17  2  0
 17 18  1  0
 19 15  1  0
 19 18  2  0
 20 19  1  0
 21 20  2  0
 21 16  1  0
 22 16  1  0
 23 22  2  0
 24 22  2  0
  1 25  1  0
  2 26  1  0
  9 27  1  0
 10 28  1  0
 11 29  1  0
 13 30  1  0
 13 31  1  0
 14 32  1  0
 14 33  1  0
 15 34  1  0
 15 35  1  0
 17 36  1  0
 18 37  1  0
 20 38  1  0
 21 39  1  0
 22 40  1  0
M  END
>  <minimizedAffinity>  (1) 
-7.03893042

>  <minimizedRMSD>  (1) 
2.39144802

$$$$
