
     RDKit          3D

 34 36  0  0  1  0  0  0  0  0999 V2000
   46.1080   33.6050   45.3270 C   0  0  2  0  0  0  0  0  0  0  0  0
   44.9700   34.6840   45.5150 C   0  0  0  0  0  0  0  0  0  0  0  0
   44.7440   35.5970   44.4250 C   0  0  0  0  0  0  0  0  0  0  0  0
   45.5320   35.5050   43.2040 C   0  0  1  0  0  0  0  0  0  0  0  0
   46.6220   34.5250   43.1990 C   0  0  0  0  0  0  0  0  0  0  0  0
   46.1760   33.2800   43.9380 C   0  0  0  0  0  0  0  0  0  0  0  0
   45.3170   32.8830   47.5390 C   0  0  0  0  0  0  0  0  0  0  0  0
   45.8890   32.6120   46.3330 C   0  0  0  0  0  0  0  0  0  0  0  0
   46.2220   31.2690   46.0910 C   0  0  0  0  0  0  0  0  0  0  0  0
   45.9900   30.3160   46.9970 N   0  0  0  0  0  0  0  0  0  0  0  0
   45.4120   30.6170   48.2100 C   0  0  0  0  0  0  0  0  0  0  0  0
   45.0860   31.8840   48.4620 N   0  0  0  0  0  0  0  0  0  0  0  0
   45.1830   29.5890   49.1680 N   0  0  0  0  0  0  0  0  0  0  0  0
   46.8350   30.5920   44.9530 C   0  0  0  0  0  0  0  0  0  0  0  0
   48.1810   30.5420   44.8580 N   0  0  0  0  0  0  0  0  0  0  0  0
   48.4920   29.8800   43.7930 O   0  0  0  0  0  0  0  0  0  0  0  0
   47.3900   29.4960   43.1940 C   0  0  0  0  0  0  0  0  0  0  0  0
   46.2920   29.9200   43.8870 N   0  0  0  0  0  0  0  0  0  0  0  0
   44.5480   35.2150   42.0440 C   0  0  0  0  0  0  0  0  0  0  0  0
   43.5270   34.3640   42.4070 F   0  0  0  0  0  0  0  0  0  0  0  0
   43.9540   36.4300   41.7140 F   0  0  0  0  0  0  0  0  0  0  0  0
   45.2600   34.7900   40.9270 F   0  0  0  0  0  0  0  0  0  0  0  0
   47.1490   33.9057   45.5164 H   0  0  0  0  0  0  0  0  0  0  0  0
   44.3756   34.7357   46.4391 H   0  0  0  0  0  0  0  0  0  0  0  0
   43.9684   36.3717   44.5155 H   0  0  0  0  0  0  0  0  0  0  0  0
   46.0569   36.4660   43.0997 H   0  0  0  0  0  0  0  0  0  0  0  0
   46.8782   34.2650   42.1613 H   0  0  0  0  0  0  0  0  0  0  0  0
   47.5057   34.9526   43.6952 H   0  0  0  0  0  0  0  0  0  0  0  0
   45.1859   32.9640   43.5776 H   0  0  0  0  0  0  0  0  0  0  0  0
   46.8833   32.4549   43.7679 H   0  0  0  0  0  0  0  0  0  0  0  0
   45.0339   33.9179   47.7816 H   0  0  0  0  0  0  0  0  0  0  0  0
   44.7505   29.8169   50.0746 H   0  0  0  0  0  0  0  0  0  0  0  0
   45.4498   28.6173   48.9545 H   0  0  0  0  0  0  0  0  0  0  0  0
   47.3550   28.9128   42.2620 H   0  0  0  0  0  0  0  0  0  0  0  0
  1  2  1  0
  1  8  1  0
  3  2  2  0
  4  3  1  0
  5  4  1  0
  5  6  1  0
  6  1  1  0
  7 12  2  0
  8  7  1  0
  9  8  2  0
  9 10  1  0
 10 11  2  0
 11 12  1  0
 11 13  1  0
 14  9  1  0
 15 14  2  0
 16 15  1  0
 17 16  1  0
 17 18  2  0
 18 14  1  0
 19 20  1  0
 19  4  1  0
 21 19  1  0
 22 19  1  0
  1 23  1  1
  2 24  1  0
  3 25  1  0
  4 26  1  6
  5 27  1  0
  5 28  1  0
  6 29  1  0
  6 30  1  0
  7 31  1  0
 13 32  1  0
 13 33  1  0
 17 34  1  0
M  ISO  8  23  13  24  13  25  13  26  13  27  13  28  13  29  13  30  13
M  ISO  2  31  14  34  14
M  END
>  <minimizedAffinity>  (1) 
-5.61129713

>  <minimizedRMSD>  (1) 
0.32040143

$$$$
