
     RDKit          3D

 37 39  0  0  1  0  0  0  0  0999 V2000
   47.2360   34.2740   40.1950 C   0  0  1  0  0  0  0  0  0  0  0  0
   48.3540   34.3950   39.1500 C   0  0  0  0  0  0  0  0  0  0  0  0
   47.7250   33.9570   37.8390 C   0  0  0  0  0  0  0  0  0  0  0  0
   47.5200   32.4570   37.9070 C   0  0  0  0  0  0  0  0  0  0  0  0
   47.5440   31.9440   39.3160 C   0  0  0  0  0  0  0  0  0  0  0  0
   46.8190   32.8570   40.3070 C   0  0  2  0  0  0  0  0  0  0  0  0
   45.3790   32.7080   39.9490 C   0  0  0  0  0  0  0  0  0  0  0  0
   44.6010   31.6550   39.6430 N   0  0  0  0  0  0  0  0  0  0  0  0
   43.3930   32.0000   39.4090 O   0  0  0  0  0  0  0  0  0  0  0  0
   43.3220   33.3010   39.5500 C   0  0  0  0  0  0  0  0  0  0  0  0
   44.5310   33.7770   39.8840 N   0  0  0  0  0  0  0  0  0  0  0  0
   47.7580   34.8050   41.5440 C   0  0  0  0  0  0  0  0  0  0  0  0
   47.2740   33.8050   42.5670 C   0  0  0  0  0  0  0  0  0  0  0  0
   46.1260   33.8120   44.7220 C   0  0  0  0  0  0  0  0  0  0  0  0
   46.3460   34.4120   43.4660 C   0  0  0  0  0  0  0  0  0  0  0  0
   45.6530   35.5510   43.1420 C   0  0  0  0  0  0  0  0  0  0  0  0
   44.7740   36.0560   44.0600 N   0  0  0  0  0  0  0  0  0  0  0  0
   44.5680   35.4730   45.2650 C   0  0  0  0  0  0  0  0  0  0  0  0
   45.2490   34.3460   45.5940 N   0  0  0  0  0  0  0  0  0  0  0  0
   46.3606   34.8681   39.8937 H   0  0  0  0  0  0  0  0  0  0  0  0
   48.7056   35.4350   39.0804 H   0  0  0  0  0  0  0  0  0  0  0  0
   49.2283   33.7807   39.4112 H   0  0  0  0  0  0  0  0  0  0  0  0
   48.3924   34.2066   37.0010 H   0  0  0  0  0  0  0  0  0  0  0  0
   46.7655   34.4710   37.6805 H   0  0  0  0  0  0  0  0  0  0  0  0
   46.5463   32.2120   37.4576 H   0  0  0  0  0  0  0  0  0  0  0  0
   48.3458   31.9787   37.3600 H   0  0  0  0  0  0  0  0  0  0  0  0
   47.0619   30.9555   39.3355 H   0  0  0  0  0  0  0  0  0  0  0  0
   48.5980   31.8985   39.6273 H   0  0  0  0  0  0  0  0  0  0  0  0
   47.0458   32.5766   41.3462 H   0  0  0  0  0  0  0  0  0  0  0  0
   42.4140   33.9073   39.4156 H   0  0  0  0  0  0  0  0  0  0  0  0
   48.8568   34.8553   41.5413 H   0  0  0  0  0  0  0  0  0  0  0  0
   47.3983   35.8226   41.7563 H   0  0  0  0  0  0  0  0  0  0  0  0
   46.7812   32.9688   42.0495 H   0  0  0  0  0  0  0  0  0  0  0  0
   48.1380   33.4415   43.1426 H   0  0  0  0  0  0  0  0  0  0  0  0
   46.6758   32.8986   44.9930 H   0  0  0  0  0  0  0  0  0  0  0  0
   45.8004   36.0447   42.1701 H   0  0  0  0  0  0  0  0  0  0  0  0
   43.8511   35.9115   45.9748 H   0  0  0  0  0  0  0  0  0  0  0  0
  1  6  1  0
  1 12  1  0
  2  1  1  0
  3  4  1  0
  3  2  1  0
  4  5  1  0
  5  6  1  0
  7  6  1  0
  8  7  2  0
  9 10  1  0
  9  8  1  0
 10 11  2  0
 11  7  1  0
 12 13  1  0
 13 15  1  0
 14 19  2  0
 15 14  1  0
 16 15  2  0
 16 17  1  0
 17 18  2  0
 18 19  1  0
  1 20  1  6
  2 21  1  0
  2 22  1  0
  3 23  1  0
  3 24  1  0
  4 25  1  0
  4 26  1  0
  5 27  1  0
  5 28  1  0
  6 29  1  1
 10 30  1  0
 12 31  1  0
 12 32  1  0
 13 33  1  0
 13 34  1  0
 14 35  1  0
 16 36  1  0
 18 37  1  0
M  ISO  8  20  13  21  13  22  13  23  13  24  13  25  13  26  13  27  13
M  ISO  8  28  13  29  13  30  14  31   8  32   8  33   8  34   8  35  14
M  ISO  2  36  14  37  14
M  END
>  <minimizedAffinity>  (1) 
-4.41494989

>  <minimizedRMSD>  (1) 
1.30288136

$$$$
