
     RDKit          3D

 35 37  0  0  0  0  0  0  0  0999 V2000
   46.2760   33.9730   41.6720 C   0  0  0  0  0  0  0  0  0  0  0  0
   45.4390   34.0030   45.2390 C   0  0  0  0  0  0  0  0  0  0  0  0
   44.7870   35.2440   45.4150 C   0  0  0  0  0  0  0  0  0  0  0  0
   44.6390   36.0740   44.2820 C   0  0  0  0  0  0  0  0  0  0  0  0
   45.1410   35.6170   43.0840 N   0  0  0  0  0  0  0  0  0  0  0  0
   45.7540   34.4170   42.9850 C   0  0  0  0  0  0  0  0  0  0  0  0
   45.9010   33.6210   44.0470 N   0  0  0  0  0  0  0  0  0  0  0  0
   45.1870   34.1110   40.6220 C   0  0  0  0  0  0  0  0  0  0  0  0
   46.6120   32.4900   41.7270 C   0  0  0  0  0  0  0  0  0  0  0  0
   47.4620   34.7640   41.1990 C   0  0  0  0  0  0  0  0  0  0  0  0
   48.7490   34.3160   41.7200 C   0  0  0  0  0  0  0  0  0  0  0  0
   49.6100   34.7820   42.6280 N   0  0  0  0  0  0  0  0  0  0  0  0
   50.6580   33.9960   42.7450 O   0  0  0  0  0  0  0  0  0  0  0  0
   50.5160   32.9840   41.9120 C   0  0  0  0  0  0  0  0  0  0  0  0
   49.3500   33.1800   41.2870 N   0  0  0  0  0  0  0  0  0  0  0  0
   51.3530   31.8180   41.6110 C   0  0  0  0  0  0  0  0  0  0  0  0
   52.0690   31.6500   40.4430 C   0  0  0  0  0  0  0  0  0  0  0  0
   52.8190   30.5040   40.2820 C   0  0  0  0  0  0  0  0  0  0  0  0
   52.8300   29.5890   41.2660 N   0  0  0  0  0  0  0  0  0  0  0  0
   52.1160   29.7680   42.4170 C   0  0  0  0  0  0  0  0  0  0  0  0
   51.3670   30.8850   42.6060 N   0  0  0  0  0  0  0  0  0  0  0  0
   45.5687   33.3365   46.1044 H   0  0  0  0  0  0  0  0  0  0  0  0
   44.4078   35.5530   46.4003 H   0  0  0  0  0  0  0  0  0  0  0  0
   44.1400   37.0517   44.3540 H   0  0  0  0  0  0  0  0  0  0  0  0
   44.2130   34.2344   41.1180 H   0  0  0  0  0  0  0  0  0  0  0  0
   45.3926   34.9903   39.9938 H   0  0  0  0  0  0  0  0  0  0  0  0
   45.1668   33.2082   39.9938 H   0  0  0  0  0  0  0  0  0  0  0  0
   46.6847   32.1692   42.7767 H   0  0  0  0  0  0  0  0  0  0  0  0
   45.8212   31.9159   41.2220 H   0  0  0  0  0  0  0  0  0  0  0  0
   47.5731   32.3128   41.2220 H   0  0  0  0  0  0  0  0  0  0  0  0
   47.4979   34.7019   40.1013 H   0  0  0  0  0  0  0  0  0  0  0  0
   47.3180   35.7881   41.5739 H   0  0  0  0  0  0  0  0  0  0  0  0
   52.0419   32.4166   39.6546 H   0  0  0  0  0  0  0  0  0  0  0  0
   53.3995   30.3414   39.3619 H   0  0  0  0  0  0  0  0  0  0  0  0
   52.1482   28.9971   43.2010 H   0  0  0  0  0  0  0  0  0  0  0  0
  1  9  1  0
  1  6  1  0
  2  3  2  0
  4  3  1  0
  5  4  2  0
  6  5  1  0
  6  7  2  0
  7  2  1  0
  8  1  1  0
 10  1  1  0
 10 11  1  0
 11 12  2  0
 12 13  1  0
 14 13  1  0
 15 11  1  0
 15 14  2  0
 16 14  1  0
 16 21  1  0
 17 16  2  0
 18 17  1  0
 18 19  2  0
 19 20  1  0
 20 21  2  0
  2 22  1  0
  3 23  1  0
  4 24  1  0
  8 25  1  0
  8 26  1  0
  8 27  1  0
  9 28  1  0
  9 29  1  0
  9 30  1  0
 10 31  1  0
 10 32  1  0
 17 33  1  0
 18 34  1  0
 20 35  1  0
M  ISO  8  22  14  23  14  24  14  25   8  26   8  27   8  28   8  29   8
M  ISO  6  30   8  31   8  32   8  33  14  34  14  35  14
M  END
>  <minimizedAffinity>  (1) 
-4.89184093

>  <minimizedRMSD>  (1) 
1.80180955

$$$$
