
     RDKit          3D

 50 54  0  0  0  0  0  0  0  0999 V2000
   46.2120   31.8870   47.2490 C   0  0  0  0  0  0  0  0  0  0  0  0
   44.5510   34.9600   46.2160 C   0  0  0  0  0  0  0  0  0  0  0  0
   44.7710   34.9980   44.8320 C   0  0  0  0  0  0  0  0  0  0  0  0
   45.5010   33.9510   44.2430 C   0  0  0  0  0  0  0  0  0  0  0  0
   45.9520   32.9660   45.0390 N   0  0  0  0  0  0  0  0  0  0  0  0
   45.7170   32.9670   46.3840 C   0  0  0  0  0  0  0  0  0  0  0  0
   45.0250   33.9560   46.9540 N   0  0  0  0  0  0  0  0  0  0  0  0
   45.6990   34.0280   42.8440 N   0  0  0  0  0  0  0  0  0  0  0  0
   44.9100   33.8940   41.7720 C   0  0  0  0  0  0  0  0  0  0  0  0
   45.6350   34.0710   40.6400 N   0  0  0  0  0  0  0  0  0  0  0  0
   46.9020   34.3200   40.9900 C   0  0  0  0  0  0  0  0  0  0  0  0
   48.0320   34.5700   40.2200 C   0  0  0  0  0  0  0  0  0  0  0  0
   48.0070   34.5960   38.9970 O   0  0  0  0  0  0  0  0  0  0  0  0
   49.2220   34.7960   40.8260 N   0  0  0  0  0  0  0  0  0  0  0  0
   49.2340   34.7640   42.1690 C   0  0  0  0  0  0  0  0  0  0  0  0
   50.4160   34.9840   42.9340 N   0  0  0  0  0  0  0  0  0  0  0  0
   48.1550   34.5250   42.9110 N   0  0  0  0  0  0  0  0  0  0  0  0
   46.9450   34.2920   42.3770 C   0  0  0  0  0  0  0  0  0  0  0  0
   47.3350   32.3650   48.1280 C   0  0  0  0  0  0  0  0  0  0  0  0
   45.1210   31.3030   48.1300 C   0  0  0  0  0  0  0  0  0  0  0  0
   46.7700   30.7950   46.3390 C   0  0  0  0  0  0  0  0  0  0  0  0
   46.1820   29.4450   46.6610 C   0  0  0  0  0  0  0  0  0  0  0  0
   46.9190   28.5710   47.3800 C   0  0  0  0  0  0  0  0  0  0  0  0
   45.8550   27.0770   47.5500 S   0  0  0  0  0  0  0  0  0  0  0  0
   44.5230   27.9570   46.5550 C   0  0  0  0  0  0  0  0  0  0  0  0
   45.0170   28.9860   46.3300 N   0  0  0  0  0  0  0  0  0  0  0  0
   43.2090   27.3420   46.2250 C   0  0  0  0  0  0  0  0  0  0  0  0
   42.9060   26.1240   46.7960 C   0  0  0  0  0  0  0  0  0  0  0  0
   41.6930   25.6040   46.4630 C   0  0  0  0  0  0  0  0  0  0  0  0
   40.8390   26.2420   45.6230 N   0  0  0  0  0  0  0  0  0  0  0  0
   41.1520   27.4300   45.0770 C   0  0  0  0  0  0  0  0  0  0  0  0
   42.3620   27.9630   45.4020 N   0  0  0  0  0  0  0  0  0  0  0  0
   43.9809   35.7676   46.6984 H   0  0  0  0  0  0  0  0  0  0  0  0
   44.3820   35.8266   44.2220 H   0  0  0  0  0  0  0  0  0  0  0  0
   43.8329   33.6730   41.8041 H   0  0  0  0  0  0  0  0  0  0  0  0
   50.0770   34.9835   40.2831 H   0  0  0  0  0  0  0  0  0  0  0  0
   50.3775   34.9498   43.9627 H   0  0  0  0  0  0  0  0  0  0  0  0
   51.3089   35.1772   42.4582 H   0  0  0  0  0  0  0  0  0  0  0  0
   47.0511   32.2442   49.1838 H   0  0  0  0  0  0  0  0  0  0  0  0
   48.2394   31.7738   47.9215 H   0  0  0  0  0  0  0  0  0  0  0  0
   47.5359   33.4266   47.9215 H   0  0  0  0  0  0  0  0  0  0  0  0
   45.3879   31.4459   49.1875 H   0  0  0  0  0  0  0  0  0  0  0  0
   44.1686   31.8119   47.9202 H   0  0  0  0  0  0  0  0  0  0  0  0
   45.0164   30.2283   47.9202 H   0  0  0  0  0  0  0  0  0  0  0  0
   47.8615   30.7479   46.4670 H   0  0  0  0  0  0  0  0  0  0  0  0
   46.5046   31.0454   45.3013 H   0  0  0  0  0  0  0  0  0  0  0  0
   47.9339   28.7191   47.7776 H   0  0  0  0  0  0  0  0  0  0  0  0
   43.5989   25.6067   47.4759 H   0  0  0  0  0  0  0  0  0  0  0  0
   41.3950   24.6345   46.8888 H   0  0  0  0  0  0  0  0  0  0  0  0
   40.4604   27.9490   44.3971 H   0  0  0  0  0  0  0  0  0  0  0  0
  1 19  1  0
  1 20  1  0
  2  7  2  0
  3  2  1  0
  4  3  2  0
  4  5  1  0
  5  6  2  0
  6  7  1  0
  6  1  1  0
  8  4  1  0
  9  8  1  0
 10 11  1  0
 10  9  2  0
 11 18  2  0
 12 14  1  0
 12 11  1  0
 13 12  2  0
 14 15  1  0
 15 17  2  0
 15 16  1  0
 18  8  1  0
 18 17  1  0
 21 22  1  0
 21  1  1  0
 22 23  2  0
 23 24  1  0
 25 24  1  0
 26 25  2  0
 26 22  1  0
 27 25  1  0
 27 28  2  0
 29 28  1  0
 30 29  2  0
 31 32  2  0
 31 30  1  0
 32 27  1  0
  2 33  1  0
  3 34  1  0
  9 35  1  0
 14 36  1  0
 16 37  1  0
 16 38  1  0
 19 39  1  0
 19 40  1  0
 19 41  1  0
 20 42  1  0
 20 43  1  0
 20 44  1  0
 21 45  1  0
 21 46  1  0
 23 47  1  0
 28 48  1  0
 29 49  1  0
 31 50  1  0
M  END
>  <minimizedAffinity>  (1) 
-7.2833147

>  <minimizedRMSD>  (1) 
0.627906144

$$$$
