
     RDKit          3D

 30 33  0  0  0  0  0  0  0  0999 V2000
   44.5760   35.7690   44.6600 C   0  0  0  0  0  0  0  0  0  0  0  0
   45.4150   35.4830   43.5750 C   0  0  0  0  0  0  0  0  0  0  0  0
   46.2890   34.3820   43.7200 C   0  0  0  0  0  0  0  0  0  0  0  0
   46.2770   33.6620   44.8840 N   0  0  0  0  0  0  0  0  0  0  0  0
   45.4360   34.0000   45.8880 C   0  0  0  0  0  0  0  0  0  0  0  0
   44.5880   35.0470   45.7820 N   0  0  0  0  0  0  0  0  0  0  0  0
   47.1680   34.0480   42.6380 C   0  0  0  0  0  0  0  0  0  0  0  0
   48.2120   33.1730   42.8540 C   0  0  0  0  0  0  0  0  0  0  0  0
   49.0110   32.9050   41.7590 C   0  0  0  0  0  0  0  0  0  0  0  0
   48.7730   33.4710   40.5590 N   0  0  0  0  0  0  0  0  0  0  0  0
   47.7410   34.3280   40.3680 C   0  0  0  0  0  0  0  0  0  0  0  0
   46.9450   34.6030   41.4370 N   0  0  0  0  0  0  0  0  0  0  0  0
   45.4470   33.0390   47.3930 S   0  0  0  0  0  0  0  0  0  0  0  0
   48.6440   29.5360   48.5470 N   0  0  0  0  0  0  0  0  0  0  0  0
   48.6230   30.5970   49.3790 C   0  0  0  0  0  0  0  0  0  0  0  0
   47.7140   31.4790   48.9600 N   0  0  0  0  0  0  0  0  0  0  0  0
   47.1240   31.0040   47.8390 C   0  0  0  0  0  0  0  0  0  0  0  0
   46.1310   31.4400   46.9550 C   0  0  0  0  0  0  0  0  0  0  0  0
   45.7860   30.6770   45.9080 N   0  0  0  0  0  0  0  0  0  0  0  0
   46.4260   29.4840   45.7400 C   0  0  0  0  0  0  0  0  0  0  0  0
   47.3980   29.0040   46.5650 N   0  0  0  0  0  0  0  0  0  0  0  0
   47.7310   29.7790   47.6050 C   0  0  0  0  0  0  0  0  0  0  0  0
   43.8824   36.6194   44.5841 H   0  0  0  0  0  0  0  0  0  0  0  0
   45.3944   36.0860   42.6552 H   0  0  0  0  0  0  0  0  0  0  0  0
   48.3972   32.7165   43.8375 H   0  0  0  0  0  0  0  0  0  0  0  0
   49.8601   32.2144   41.8690 H   0  0  0  0  0  0  0  0  0  0  0  0
   47.5535   34.7847   39.3850 H   0  0  0  0  0  0  0  0  0  0  0  0
   49.2454   28.7034   48.6235 H   0  0  0  0  0  0  0  0  0  0  0  0
   49.2590   30.7171   50.2684 H   0  0  0  0  0  0  0  0  0  0  0  0
   46.1367   28.8659   44.8773 H   0  0  0  0  0  0  0  0  0  0  0  0
  1  6  2  0
  2  3  2  0
  2  1  1  0
  3  4  1  0
  4  5  2  0
  5 13  1  0
  6  5  1  0
  7  8  2  0
  7  3  1  0
  9  8  1  0
 10  9  2  0
 11 10  1  0
 11 12  2  0
 12  7  1  0
 14 15  1  0
 16 15  2  0
 17 16  1  0
 18 13  1  0
 18 17  2  0
 19 18  1  0
 20 19  2  0
 20 21  1  0
 21 22  2  0
 22 17  1  0
 22 14  1  0
  1 23  1  0
  2 24  1  0
  8 25  1  0
  9 26  1  0
 11 27  1  0
 14 28  1  0
 15 29  1  0
 20 30  1  0
M  ISO  8  23  14  24  14  25  14  26  14  27  14  28   9  29  14  30  14
M  END
>  <minimizedAffinity>  (1) 
-5.56494474

>  <minimizedRMSD>  (1) 
0.638970912

$$$$
