
     RDKit          3D

 46 50  0  0  1  0  0  0  0  0999 V2000
   47.2910   34.9330   41.8920 C   0  0  0  0  0  0  0  0  0  0  0  0
   48.5110   35.5950   41.7780 C   0  0  0  0  0  0  0  0  0  0  0  0
   49.0050   35.4060   40.5480 N   0  0  0  0  0  0  0  0  0  0  0  0
   48.1280   34.6390   39.8750 C   0  0  0  0  0  0  0  0  0  0  0  0
   48.1690   34.1640   38.5800 C   0  0  0  0  0  0  0  0  0  0  0  0
   47.1390   33.3980   38.1340 C   0  0  0  0  0  0  0  0  0  0  0  0
   46.0340   33.0560   38.9050 C   0  0  0  0  0  0  0  0  0  0  0  0
   46.0620   33.5630   40.1820 C   0  0  0  0  0  0  0  0  0  0  0  0
   47.0420   34.3250   40.6890 C   0  0  0  0  0  0  0  0  0  0  0  0
   44.8830   33.1510   40.9130 N   0  0  0  0  0  0  0  0  0  0  0  0
   43.5090   33.5370   41.1190 C   0  0  0  0  0  0  0  0  0  0  0  0
   42.8410   32.3150   41.7020 C   0  0  0  0  0  0  0  0  0  0  0  0
   43.9530   31.8550   42.6390 C   0  0  0  0  0  0  0  0  0  0  0  0
   45.1390   31.9450   41.7160 C   0  0  1  0  0  0  0  0  0  0  0  0
   45.2860   30.7310   40.9100 C   0  0  0  0  0  0  0  0  0  0  0  0
   44.4620   30.1900   40.1680 O   0  0  0  0  0  0  0  0  0  0  0  0
   44.5920   35.8030   44.3070 C   0  0  0  0  0  0  0  0  0  0  0  0
   45.3990   35.8430   43.1740 C   0  0  0  0  0  0  0  0  0  0  0  0
   46.4530   34.9010   43.0540 C   0  0  0  0  0  0  0  0  0  0  0  0
   46.5740   34.0280   44.0820 N   0  0  0  0  0  0  0  0  0  0  0  0
   45.7980   33.9960   45.1620 C   0  0  0  0  0  0  0  0  0  0  0  0
   44.8060   34.8820   45.2780 N   0  0  0  0  0  0  0  0  0  0  0  0
   46.0210   33.0040   46.2160 C   0  0  0  0  0  0  0  0  0  0  0  0
   46.9720   32.0200   46.0480 C   0  0  0  0  0  0  0  0  0  0  0  0
   47.1140   31.1200   47.1050 C   0  0  0  0  0  0  0  0  0  0  0  0
   46.3640   31.2140   48.2180 N   0  0  0  0  0  0  0  0  0  0  0  0
   45.4410   32.1860   48.3580 C   0  0  0  0  0  0  0  0  0  0  0  0
   45.2820   33.0640   47.3610 N   0  0  0  0  0  0  0  0  0  0  0  0
   48.9933   36.1814   42.5740 H   0  0  0  0  0  0  0  0  0  0  0  0
   49.8933   35.7792   40.1838 H   0  0  0  0  0  0  0  0  0  0  0  0
   49.0182   34.4006   37.9221 H   0  0  0  0  0  0  0  0  0  0  0  0
   47.1823   33.0258   37.0998 H   0  0  0  0  0  0  0  0  0  0  0  0
   45.2095   32.4341   38.5262 H   0  0  0  0  0  0  0  0  0  0  0  0
   43.4462   34.3828   41.8195 H   0  0  0  0  0  0  0  0  0  0  0  0
   43.0281   33.8640   40.1853 H   0  0  0  0  0  0  0  0  0  0  0  0
   41.9210   32.5698   42.2485 H   0  0  0  0  0  0  0  0  0  0  0  0
   42.5023   31.5678   40.9693 H   0  0  0  0  0  0  0  0  0  0  0  0
   44.0592   32.5258   43.5043 H   0  0  0  0  0  0  0  0  0  0  0  0
   43.7946   30.8638   43.0889 H   0  0  0  0  0  0  0  0  0  0  0  0
   46.0961   32.0217   42.2527 H   0  0  0  0  0  0  0  0  0  0  0  0
   46.2649   30.2335   40.9751 H   0  0  0  0  0  0  0  0  0  0  0  0
   43.7711   36.5271   44.4157 H   0  0  0  0  0  0  0  0  0  0  0  0
   45.2230   36.5907   42.3866 H   0  0  0  0  0  0  0  0  0  0  0  0
   47.5822   31.9486   45.1355 H   0  0  0  0  0  0  0  0  0  0  0  0
   47.8578   30.3135   47.0262 H   0  0  0  0  0  0  0  0  0  0  0  0
   44.8321   32.2559   49.2714 H   0  0  0  0  0  0  0  0  0  0  0  0
  1 19  1  0
  2  1  2  0
  3  2  1  0
  4  3  1  0
  4  9  2  0
  5  4  1  0
  6  5  2  0
  6  7  1  0
  7  8  2  0
  8  9  1  0
  8 10  1  0
  9  1  1  0
 10 11  1  0
 10 14  1  0
 11 12  1  0
 12 13  1  0
 14 13  1  0
 15 14  1  0
 16 15  2  0
 17 22  2  0
 18 17  1  0
 19 18  2  0
 19 20  1  0
 20 21  2  0
 21 22  1  0
 21 23  1  0
 23 28  1  0
 24 23  2  0
 24 25  1  0
 25 26  2  0
 26 27  1  0
 28 27  2  0
  2 29  1  0
  3 30  1  0
  5 31  1  0
  6 32  1  0
  7 33  1  0
 11 34  1  0
 11 35  1  0
 12 36  1  0
 12 37  1  0
 13 38  1  0
 13 39  1  0
 14 40  1  1
 15 41  1  0
 17 42  1  0
 18 43  1  0
 24 44  1  0
 25 45  1  0
 27 46  1  0
M  END
>  <minimizedAffinity>  (1) 
-7.0218749

>  <minimizedRMSD>  (1) 
0.198399007

$$$$
