
     RDKit          3D

 48 51  0  0  1  0  0  0  0  0999 V2000
   46.0050   34.9620   41.7200 C   0  0  1  0  0  0  0  0  0  0  0  0
   47.5230   34.9290   41.6370 C   0  0  0  0  0  0  0  0  0  0  0  0
   47.8550   34.4880   40.2470 C   0  0  0  0  0  0  0  0  0  0  0  0
   46.6690   33.6360   39.8340 C   0  0  0  0  0  0  0  0  0  0  0  0
   45.6440   33.7300   40.9780 C   0  0  2  0  0  0  0  0  0  0  0  0
   45.5130   33.8790   45.2190 C   0  0  0  0  0  0  0  0  0  0  0  0
   44.7710   34.9380   45.7630 C   0  0  0  0  0  0  0  0  0  0  0  0
   44.4510   36.0010   44.9320 C   0  0  0  0  0  0  0  0  0  0  0  0
   44.8870   35.9120   43.6730 N   0  0  0  0  0  0  0  0  0  0  0  0
   45.5920   34.9170   43.1380 C   0  0  0  0  0  0  0  0  0  0  0  0
   45.8990   33.8950   43.9380 N   0  0  0  0  0  0  0  0  0  0  0  0
   44.2310   33.6970   40.4220 C   0  0  2  0  0  0  0  0  0  0  0  0
   44.3130   33.2100   38.9850 C   0  0  0  0  0  0  0  0  0  0  0  0
   43.5610   35.0240   40.4980 C   0  0  0  0  0  0  0  0  0  0  0  0
   42.2940   35.0020   39.6780 C   0  0  0  0  0  0  0  0  0  0  0  0
   42.2400   35.6200   38.4280 C   0  0  0  0  0  0  0  0  0  0  0  0
   41.1750   35.6590   37.5800 C   0  0  0  0  0  0  0  0  0  0  0  0
   40.0340   35.0180   38.0050 C   0  0  0  0  0  0  0  0  0  0  0  0
   40.0190   34.3870   39.2310 C   0  0  0  0  0  0  0  0  0  0  0  0
   38.8520   33.7530   39.6450 C   0  0  0  0  0  0  0  0  0  0  0  0
   38.8090   33.1210   40.8680 C   0  0  0  0  0  0  0  0  0  0  0  0
   39.9320   33.1230   41.6820 C   0  0  0  0  0  0  0  0  0  0  0  0
   41.0940   33.7560   41.2700 C   0  0  0  0  0  0  0  0  0  0  0  0
   41.1240   34.3760   40.0560 C   0  0  0  0  0  0  0  0  0  0  0  0
   45.5215   35.8602   41.3084 H   0  0  0  0  0  0  0  0  0  0  0  0
   47.9373   35.9298   41.8288 H   0  0  0  0  0  0  0  0  0  0  0  0
   47.9509   34.2474   42.3869 H   0  0  0  0  0  0  0  0  0  0  0  0
   47.9646   35.3546   39.5784 H   0  0  0  0  0  0  0  0  0  0  0  0
   48.8068   33.9391   40.1949 H   0  0  0  0  0  0  0  0  0  0  0  0
   46.2324   34.0196   38.9001 H   0  0  0  0  0  0  0  0  0  0  0  0
   46.9711   32.5935   39.6553 H   0  0  0  0  0  0  0  0  0  0  0  0
   45.6677   32.8772   41.6724 H   0  0  0  0  0  0  0  0  0  0  0  0
   45.7815   33.0227   45.8551 H   0  0  0  0  0  0  0  0  0  0  0  0
   44.4529   34.9255   46.8159 H   0  0  0  0  0  0  0  0  0  0  0  0
   43.8725   36.8659   45.2887 H   0  0  0  0  0  0  0  0  0  0  0  0
   43.6171   33.0158   41.0295 H   0  0  0  0  0  0  0  0  0  0  0  0
   44.4956   32.1253   38.9753 H   0  0  0  0  0  0  0  0  0  0  0  0
   43.3657   33.4269   38.4697 H   0  0  0  0  0  0  0  0  0  0  0  0
   45.1370   33.7252   38.4697 H   0  0  0  0  0  0  0  0  0  0  0  0
   43.3144   35.2496   41.5460 H   0  0  0  0  0  0  0  0  0  0  0  0
   44.2371   35.7966   40.1030 H   0  0  0  0  0  0  0  0  0  0  0  0
   43.1549   36.1299   38.0918 H   0  0  0  0  0  0  0  0  0  0  0  0
   41.2242   36.1742   36.6094 H   0  0  0  0  0  0  0  0  0  0  0  0
   39.1367   35.0090   37.3688 H   0  0  0  0  0  0  0  0  0  0  0  0
   37.9639   33.7564   38.9959 H   0  0  0  0  0  0  0  0  0  0  0  0
   37.8884   32.6171   41.1976 H   0  0  0  0  0  0  0  0  0  0  0  0
   39.9002   32.6196   42.6595 H   0  0  0  0  0  0  0  0  0  0  0  0
   41.9840   33.7582   41.9165 H   0  0  0  0  0  0  0  0  0  0  0  0
  1 10  1  0
  2  1  1  0
  3  2  1  0
  4  3  1  0
  4  5  1  0
  5  1  1  0
  6  7  2  0
  8  7  1  0
  9  8  2  0
 10  9  1  0
 10 11  2  0
 11  6  1  0
 12 14  1  0
 12  5  1  0
 13 12  1  0
 15 24  1  0
 15 14  1  0
 16 15  2  0
 17 18  2  0
 17 16  1  0
 18 19  1  0
 19 20  1  0
 19 24  2  0
 20 21  2  0
 21 22  1  0
 23 22  2  0
 24 23  1  0
  1 25  1  6
  2 26  1  0
  2 27  1  0
  3 28  1  0
  3 29  1  0
  4 30  1  0
  4 31  1  0
  5 32  1  1
  6 33  1  0
  7 34  1  0
  8 35  1  0
 12 36  1  1
 13 37  1  0
 13 38  1  0
 13 39  1  0
 14 40  1  0
 14 41  1  0
 16 42  1  0
 17 43  1  0
 18 44  1  0
 20 45  1  0
 21 46  1  0
 22 47  1  0
 23 48  1  0
M  END
>  <minimizedAffinity>  (1) 
-7.20031929

>  <minimizedRMSD>  (1) 
1.54139578

$$$$
