
     RDKit          3D

 45 50  0  0  1  0  0  0  0  0999 V2000
   46.3350   32.7250   46.9040 C   0  0  0  0  0  0  0  0  0  0  0  0
   45.5260   32.6130   48.0060 C   0  0  0  0  0  0  0  0  0  0  0  0
   46.2210   31.7950   48.8880 C   0  0  0  0  0  0  0  0  0  0  0  0
   47.3990   31.4570   48.2860 C   0  0  0  0  0  0  0  0  0  0  0  0
   47.4060   32.0380   47.1180 O   0  0  0  0  0  0  0  0  0  0  0  0
   46.6580   34.0680   43.6070 C   0  0  0  0  0  0  0  0  0  0  0  0
   45.5220   34.7290   44.0710 C   0  0  0  0  0  0  0  0  0  0  0  0
   45.2720   34.2940   45.3760 C   0  0  0  0  0  0  0  0  0  0  0  0
   46.2490   33.3930   45.6600 N   0  0  0  0  0  0  0  0  0  0  0  0
   47.0720   33.2470   44.6320 N   0  0  0  0  0  0  0  0  0  0  0  0
   48.6810   35.3900   40.8410 C   0  0  0  0  0  0  0  0  0  0  0  0
   48.1290   34.7320   39.7440 C   0  0  0  0  0  0  0  0  0  0  0  0
   47.0720   33.8440   39.9610 C   0  0  0  0  0  0  0  0  0  0  0  0
   46.6100   33.6450   41.2440 N   0  0  0  0  0  0  0  0  0  0  0  0
   47.1810   34.3090   42.2650 C   0  0  0  0  0  0  0  0  0  0  0  0
   48.1960   35.1680   42.0950 N   0  0  0  0  0  0  0  0  0  0  0  0
   48.3990   30.6210   48.8770 N   0  0  0  0  0  0  0  0  0  0  0  0
   49.2660   30.8210   49.9270 C   0  0  0  0  0  0  0  0  0  0  0  0
   50.0150   29.6720   50.0570 C   0  0  0  0  0  0  0  0  0  0  0  0
   49.5970   28.7980   49.0920 N   0  0  0  0  0  0  0  0  0  0  0  0
   48.6160   29.3810   48.3800 C   0  0  0  0  0  0  0  0  0  0  0  0
   47.9150   28.7020   47.2400 C   0  0  1  0  0  0  0  0  0  0  0  0
   47.5340   27.2060   47.5470 C   0  0  0  0  0  0  0  0  0  0  0  0
   46.5310   28.2820   47.3500 C   0  0  2  0  0  0  0  0  0  0  0  0
   45.7140   28.1650   46.1050 C   0  0  0  0  0  0  0  0  0  0  0  0
   44.5730   28.8280   45.7030 C   0  0  0  0  0  0  0  0  0  0  0  0
   44.1760   28.3790   44.4640 C   0  0  0  0  0  0  0  0  0  0  0  0
   45.0860   27.4390   44.1210 N   0  0  0  0  0  0  0  0  0  0  0  0
   45.9960   27.3120   45.0930 N   0  0  0  0  0  0  0  0  0  0  0  0
   44.5383   33.0725   48.1587 H   0  0  0  0  0  0  0  0  0  0  0  0
   45.8846   31.4783   49.8863 H   0  0  0  0  0  0  0  0  0  0  0  0
   44.9267   35.4638   43.5092 H   0  0  0  0  0  0  0  0  0  0  0  0
   44.4532   34.6149   46.0367 H   0  0  0  0  0  0  0  0  0  0  0  0
   49.5138   36.0934   40.6939 H   0  0  0  0  0  0  0  0  0  0  0  0
   48.5166   34.9076   38.7296 H   0  0  0  0  0  0  0  0  0  0  0  0
   46.6134   33.3092   39.1162 H   0  0  0  0  0  0  0  0  0  0  0  0
   49.3458   31.7271   50.5456 H   0  0  0  0  0  0  0  0  0  0  0  0
   50.8048   29.4908   50.8009 H   0  0  0  0  0  0  0  0  0  0  0  0
   48.4540   29.2842   46.4781 H   0  0  0  0  0  0  0  0  0  0  0  0
   47.6740   26.4254   46.7847 H   0  0  0  0  0  0  0  0  0  0  0  0
   47.7684   26.4673   48.3277 H   0  0  0  0  0  0  0  0  0  0  0  0
   45.6969   28.6777   47.9481 H   0  0  0  0  0  0  0  0  0  0  0  0
   44.0557   29.6029   46.2877 H   0  0  0  0  0  0  0  0  0  0  0  0
   43.3063   28.7126   43.8790 H   0  0  0  0  0  0  0  0  0  0  0  0
   45.0792   26.9013   43.2425 H   0  0  0  0  0  0  0  0  0  0  0  0
  1  5  1  0
  1  2  2  0
  2  3  1  0
  4 17  1  0
  4  3  2  0
  5  4  1  0
  6  7  1  0
  6 10  2  0
  7  8  2  0
  8  9  1  0
  9  1  1  0
 10  9  1  0
 11 16  2  0
 12 13  2  0
 12 11  1  0
 13 14  1  0
 14 15  2  0
 15  6  1  0
 16 15  1  0
 17 18  1  0
 18 19  2  0
 20 19  1  0
 21 17  1  0
 21 20  2  0
 22 24  1  0
 22 23  1  0
 22 21  1  0
 24 23  1  0
 25 24  1  0
 26 25  1  0
 27 26  2  0
 28 27  1  0
 28 29  1  0
 29 25  2  0
  2 30  1  0
  3 31  1  0
  7 32  1  0
  8 33  1  0
 11 34  1  0
 12 35  1  0
 13 36  1  0
 18 37  1  0
 19 38  1  0
 22 39  1  6
 23 40  1  0
 23 41  1  0
 24 42  1  1
 26 43  1  0
 27 44  1  0
 28 45  1  0
M  ISO  8  30  14  31  14  32  14  33  14  34  14  35  14  36  14  37  14
M  ISO  8  38  14  39  13  40  13  41  13  42  13  43  14  44  14  45   9
M  END
>  <minimizedAffinity>  (1) 
-5.95679712

>  <minimizedRMSD>  (1) 
0.246524438

$$$$
