
     RDKit          3D

 50 51  0  0  1  0  0  0  0  0999 V2000
   44.4920   35.9370   45.0930 C   0  0  0  0  0  0  0  0  0  0  0  0
   44.8420   36.4510   43.8140 C   0  0  0  0  0  0  0  0  0  0  0  0
   45.4030   35.5080   42.9060 C   0  0  0  0  0  0  0  0  0  0  0  0
   46.1720   34.5730   43.5390 N   0  0  0  0  0  0  0  0  0  0  0  0
   45.8010   34.0490   44.7050 C   0  0  1  0  0  0  0  0  0  0  0  0
   44.9620   34.7560   45.4820 N   0  0  0  0  0  0  0  0  0  0  0  0
   46.3470   32.8450   45.1340 N   0  0  0  0  0  0  0  0  0  0  0  0
   45.8810   32.3530   46.4110 C   0  0  0  0  0  0  0  0  0  0  0  0
   46.6390   31.1840   46.9440 C   0  0  0  0  0  0  0  0  0  0  0  0
   47.7810   30.8760   46.2200 O   0  0  0  0  0  0  0  0  0  0  0  0
   47.3740   30.7000   44.8970 C   0  0  0  0  0  0  0  0  0  0  0  0
   47.3270   32.1240   44.3580 C   0  0  1  0  0  0  0  0  0  0  0  0
   46.9510   32.2170   43.0340 N   0  0  0  0  0  0  0  0  0  0  0  0
   45.6350   32.3440   42.7100 C   0  0  0  0  0  0  0  0  0  0  0  0
   45.6110   32.5330   41.2100 C   0  0  0  0  0  0  0  0  0  0  0  0
   46.9400   33.1190   40.8810 C   0  0  0  0  0  0  0  0  0  0  0  0
   47.5500   33.2550   42.2680 C   0  0  0  0  0  0  0  0  0  0  0  0
   49.1010   33.1850   42.1850 C   0  0  0  0  0  0  0  0  0  0  0  0
   49.8670   32.1600   41.6070 C   0  0  0  0  0  0  0  0  0  0  0  0
   51.2220   32.3930   41.6890 C   0  0  0  0  0  0  0  0  0  0  0  0
   51.2840   33.5740   42.3250 N   0  0  0  0  0  0  0  0  0  0  0  0
   50.0700   34.0070   42.5970 N   0  0  0  0  0  0  0  0  0  0  0  0
   43.8341   36.5152   45.7586 H   0  0  0  0  0  0  0  0  0  0  0  0
   43.9320   36.8639   43.3543 H   0  0  0  0  0  0  0  0  0  0  0  0
   45.6272   37.2000   43.9944 H   0  0  0  0  0  0  0  0  0  0  0  0
   46.0281   36.0463   42.1783 H   0  0  0  0  0  0  0  0  0  0  0  0
   44.5730   34.9822   42.4114 H   0  0  0  0  0  0  0  0  0  0  0  0
   46.2717   33.7849   42.8834 H   0  0  0  0  0  0  0  0  0  0  0  0
   46.6115   34.5961   45.2087 H   0  0  0  0  0  0  0  0  0  0  0  0
   45.9562   33.1719   47.1416 H   0  0  0  0  0  0  0  0  0  0  0  0
   44.8489   32.0073   46.2523 H   0  0  0  0  0  0  0  0  0  0  0  0
   46.9353   31.4067   47.9797 H   0  0  0  0  0  0  0  0  0  0  0  0
   45.9718   30.3123   46.8731 H   0  0  0  0  0  0  0  0  0  0  0  0
   48.0993   30.0901   44.3385 H   0  0  0  0  0  0  0  0  0  0  0  0
   46.4136   30.1714   44.8066 H   0  0  0  0  0  0  0  0  0  0  0  0
   48.3461   32.5310   44.4335 H   0  0  0  0  0  0  0  0  0  0  0  0
   47.4344   33.0387   42.6441 H   0  0  0  0  0  0  0  0  0  0  0  0
   45.0791   31.4381   42.9933 H   0  0  0  0  0  0  0  0  0  0  0  0
   45.1617   33.1853   43.2374 H   0  0  0  0  0  0  0  0  0  0  0  0
   45.4756   31.5680   40.6996 H   0  0  0  0  0  0  0  0  0  0  0  0
   44.7805   33.1770   40.8851 H   0  0  0  0  0  0  0  0  0  0  0  0
   47.4768   33.3557   41.8115 H   0  0  0  0  0  0  0  0  0  0  0  0
   47.5248   32.3953   40.2943 H   0  0  0  0  0  0  0  0  0  0  0  0
   46.8000   34.0389   40.2943 H   0  0  0  0  0  0  0  0  0  0  0  0
   47.2395   33.2690   43.3232 H   0  0  0  0  0  0  0  0  0  0  0  0
   47.1971   34.1700   41.7698 H   0  0  0  0  0  0  0  0  0  0  0  0
   47.1161   32.3755   41.7698 H   0  0  0  0  0  0  0  0  0  0  0  0
   49.4310   31.2655   41.1382 H   0  0  0  0  0  0  0  0  0  0  0  0
   52.0490   31.7664   41.3237 H   0  0  0  0  0  0  0  0  0  0  0  0
   52.1545   34.0694   42.5653 H   0  0  0  0  0  0  0  0  0  0  0  0
  1  6  2  0
  2  1  1  0
  3  4  1  0
  3  2  1  0
  4  5  1  0
  5  7  1  0
  5  6  1  0
  7  8  1  0
  8  9  1  0
 10  9  1  0
 11 10  1  0
 12 11  1  0
 12  7  1  0
 13 12  1  0
 14 13  1  0
 15 14  1  0
 16 15  1  0
 18 17  1  0
 18 22  2  0
 19 20  2  0
 19 18  1  0
 20 21  1  0
 21 22  1  0
  1 23  1  0
  2 24  1  0
  2 25  1  0
  3 26  1  0
  3 27  1  0
  4 28  1  0
  5 29  1  6
  8 30  1  0
  8 31  1  0
  9 32  1  0
  9 33  1  0
 11 34  1  0
 11 35  1  0
 12 36  1  6
 13 37  1  0
 14 38  1  0
 14 39  1  0
 15 40  1  0
 15 41  1  0
 16 42  1  0
 16 43  1  0
 16 44  1  0
 17 45  1  0
 17 46  1  0
 17 47  1  0
 19 48  1  0
 20 49  1  0
 21 50  1  0
M  ISO  8  23  13  24  13  25  13  26  13  27  13  28   5  29  13  30  13
M  ISO  8  31  13  32  13  33  13  34  13  35  13  36  13  37   5  38   8
M  ISO  8  39   8  40   8  41   8  42   8  43   8  44   8  45   8  46   8
M  ISO  4  47   8  48  14  49  14  50   9
M  END
>  <minimizedAffinity>  (1) 
-5.61527157

>  <minimizedRMSD>  (1) 
1.89781368

$$$$
