
     RDKit          3D

 35 38  0  0  0  0  0  0  0  0999 V2000
   47.0090   34.8240   42.0080 C   0  0  0  0  0  0  0  0  0  0  0  0
   48.2200   35.4940   41.9860 C   0  0  0  0  0  0  0  0  0  0  0  0
   48.9250   35.4400   40.8360 C   0  0  0  0  0  0  0  0  0  0  0  0
   48.4630   34.7660   39.7710 N   0  0  0  0  0  0  0  0  0  0  0  0
   47.2710   34.1150   39.8130 C   0  0  0  0  0  0  0  0  0  0  0  0
   46.5620   34.1680   40.9670 N   0  0  0  0  0  0  0  0  0  0  0  0
   46.8440   33.4220   38.6500 N   0  0  0  0  0  0  0  0  0  0  0  0
   45.9550   32.4150   38.8890 C   0  0  0  0  0  0  0  0  0  0  0  0
   45.4520   31.6500   37.8390 C   0  0  0  0  0  0  0  0  0  0  0  0
   45.9220   31.9990   36.5820 C   0  0  0  0  0  0  0  0  0  0  0  0
   45.4450   31.2840   35.6400 O   0  0  0  0  0  0  0  0  0  0  0  0
   46.7940   32.9870   36.3380 N   0  0  0  0  0  0  0  0  0  0  0  0
   47.2440   33.6900   37.4020 C   0  0  0  0  0  0  0  0  0  0  0  0
   48.0600   34.6240   37.2340 O   0  0  0  0  0  0  0  0  0  0  0  0
   44.4940   35.8130   44.5890 C   0  0  0  0  0  0  0  0  0  0  0  0
   45.2270   35.8210   43.3730 C   0  0  0  0  0  0  0  0  0  0  0  0
   46.2290   34.8630   43.2260 C   0  0  0  0  0  0  0  0  0  0  0  0
   46.4430   33.9920   44.2390 N   0  0  0  0  0  0  0  0  0  0  0  0
   45.7140   34.0220   45.3920 C   0  0  0  0  0  0  0  0  0  0  0  0
   44.7360   34.9400   45.5590 N   0  0  0  0  0  0  0  0  0  0  0  0
   46.0500   33.0250   46.4030 C   0  0  0  0  0  0  0  0  0  0  0  0
   45.2570   32.9290   47.5480 C   0  0  0  0  0  0  0  0  0  0  0  0
   45.7790   31.9110   48.3540 C   0  0  0  0  0  0  0  0  0  0  0  0
   46.8590   31.4350   47.6690 N   0  0  0  0  0  0  0  0  0  0  0  0
   47.0330   32.0850   46.5090 N   0  0  0  0  0  0  0  0  0  0  0  0
   48.5902   36.0442   42.8636 H   0  0  0  0  0  0  0  0  0  0  0  0
   49.8939   35.9567   40.7706 H   0  0  0  0  0  0  0  0  0  0  0  0
   45.6327   32.2054   39.9196 H   0  0  0  0  0  0  0  0  0  0  0  0
   44.7354   30.8302   37.9954 H   0  0  0  0  0  0  0  0  0  0  0  0
   47.1081   33.2018   35.3808 H   0  0  0  0  0  0  0  0  0  0  0  0
   43.6968   36.5572   44.7323 H   0  0  0  0  0  0  0  0  0  0  0  0
   45.0131   36.5527   42.5799 H   0  0  0  0  0  0  0  0  0  0  0  0
   44.3755   33.5460   47.7767 H   0  0  0  0  0  0  0  0  0  0  0  0
   45.4007   31.5687   49.3285 H   0  0  0  0  0  0  0  0  0  0  0  0
   47.4651   30.6715   48.0015 H   0  0  0  0  0  0  0  0  0  0  0  0
  1 17  1  0
  2  1  2  0
  3  2  1  0
  4  5  1  0
  4  3  2  0
  5  6  2  0
  6  1  1  0
  7  8  1  0
  7  5  1  0
  9  8  2  0
 10  9  1  0
 11 10  2  0
 12 10  1  0
 12 13  1  0
 13  7  1  0
 14 13  2  0
 15 20  2  0
 16 15  1  0
 17 16  2  0
 17 18  1  0
 18 19  2  0
 19 20  1  0
 19 21  1  0
 21 25  2  0
 21 22  1  0
 22 23  2  0
 24 23  1  0
 25 24  1  0
  2 26  1  0
  3 27  1  0
  8 28  1  0
  9 29  1  0
 12 30  1  0
 15 31  1  0
 16 32  1  0
 22 33  1  0
 23 34  1  0
 24 35  1  0
M  END
>  <minimizedAffinity>  (1) 
-7.11376476

>  <minimizedRMSD>  (1) 
0.320376009

$$$$
