
     RDKit          3D

 39 41  0  0  1  0  0  0  0  0999 V2000
   46.9920   34.2980   40.4120 C   0  0  1  0  0  0  0  0  0  0  0  0
   48.1610   34.1320   39.4260 C   0  0  0  0  0  0  0  0  0  0  0  0
   47.5300   33.8450   38.0760 C   0  0  0  0  0  0  0  0  0  0  0  0
   46.8980   32.4770   38.1230 C   0  0  0  0  0  0  0  0  0  0  0  0
   46.7720   31.9560   39.5200 C   0  0  0  0  0  0  0  0  0  0  0  0
   46.2510   33.0160   40.4940 C   0  0  2  0  0  0  0  0  0  0  0  0
   44.8030   33.0970   40.1690 C   0  0  0  0  0  0  0  0  0  0  0  0
   43.8660   32.1260   39.9310 C   0  0  0  0  0  0  0  0  0  0  0  0
   42.6250   32.6690   39.6750 C   0  0  0  0  0  0  0  0  0  0  0  0
   42.8260   33.9960   39.7630 N   0  0  0  0  0  0  0  0  0  0  0  0
   44.0920   34.2430   40.0500 N   0  0  0  0  0  0  0  0  0  0  0  0
   47.5590   34.6800   41.7940 C   0  0  0  0  0  0  0  0  0  0  0  0
   47.0070   33.6790   42.7570 C   0  0  0  0  0  0  0  0  0  0  0  0
   46.0150   33.6970   44.9890 C   0  0  0  0  0  0  0  0  0  0  0  0
   46.1560   34.2790   43.7320 C   0  0  0  0  0  0  0  0  0  0  0  0
   45.4520   35.4280   43.4720 C   0  0  0  0  0  0  0  0  0  0  0  0
   44.6520   35.9520   44.4340 N   0  0  0  0  0  0  0  0  0  0  0  0
   44.5230   35.3750   45.6540 C   0  0  0  0  0  0  0  0  0  0  0  0
   45.2140   34.2400   45.9230 N   0  0  0  0  0  0  0  0  0  0  0  0
   46.3066   35.0888   40.0730 H   0  0  0  0  0  0  0  0  0  0  0  0
   48.7574   35.0552   39.3809 H   0  0  0  0  0  0  0  0  0  0  0  0
   48.8379   33.3220   39.7354 H   0  0  0  0  0  0  0  0  0  0  0  0
   48.3021   33.8701   37.2929 H   0  0  0  0  0  0  0  0  0  0  0  0
   46.7674   34.6042   37.8480 H   0  0  0  0  0  0  0  0  0  0  0  0
   45.8948   32.5355   37.6757 H   0  0  0  0  0  0  0  0  0  0  0  0
   47.5479   31.7873   37.5645 H   0  0  0  0  0  0  0  0  0  0  0  0
   46.0749   31.1051   39.5180 H   0  0  0  0  0  0  0  0  0  0  0  0
   47.7749   31.6550   39.8572 H   0  0  0  0  0  0  0  0  0  0  0  0
   46.4069   32.7530   41.5507 H   0  0  0  0  0  0  0  0  0  0  0  0
   44.0778   31.0466   39.9427 H   0  0  0  0  0  0  0  0  0  0  0  0
   41.6873   32.1395   39.4507 H   0  0  0  0  0  0  0  0  0  0  0  0
   42.1001   34.7139   39.6268 H   0  0  0  0  0  0  0  0  0  0  0  0
   48.6580   34.6335   41.7824 H   0  0  0  0  0  0  0  0  0  0  0  0
   47.2789   35.7060   42.0747 H   0  0  0  0  0  0  0  0  0  0  0  0
   46.4292   32.9296   42.1961 H   0  0  0  0  0  0  0  0  0  0  0  0
   47.8540   33.2186   43.2868 H   0  0  0  0  0  0  0  0  0  0  0  0
   46.5691   32.7759   45.2225 H   0  0  0  0  0  0  0  0  0  0  0  0
   45.5358   35.9199   42.4917 H   0  0  0  0  0  0  0  0  0  0  0  0
   43.8666   35.8217   46.4153 H   0  0  0  0  0  0  0  0  0  0  0  0
  1  6  1  0
  1 12  1  0
  2  1  1  0
  3  4  1  0
  3  2  1  0
  4  5  1  0
  5  6  1  0
  7  6  1  0
  8  7  1  0
  9 10  1  0
  9  8  2  0
 10 11  1  0
 11  7  2  0
 12 13  1  0
 13 15  1  0
 14 19  2  0
 15 14  1  0
 16 15  2  0
 16 17  1  0
 17 18  2  0
 18 19  1  0
  1 20  1  6
  2 21  1  0
  2 22  1  0
  3 23  1  0
  3 24  1  0
  4 25  1  0
  4 26  1  0
  5 27  1  0
  5 28  1  0
  6 29  1  1
  8 30  1  0
  9 31  1  0
 10 32  1  0
 12 33  1  0
 12 34  1  0
 13 35  1  0
 13 36  1  0
 14 37  1  0
 16 38  1  0
 18 39  1  0
M  ISO  8  20  13  21  13  22  13  23  13  24  13  25  13  26  13  27  13
M  ISO  8  28  13  29  13  30  14  31  14  32   9  33   8  34   8  35   8
M  ISO  4  36   8  37  14  38  14  39  14
M  END
>  <minimizedAffinity>  (1) 
-4.3894062

>  <minimizedRMSD>  (1) 
1.95343781

$$$$
