
     RDKit          3D

 31 33  0  0  1  0  0  0  0  0999 V2000
   46.3140   33.4620   45.4330 C   0  0  2  0  0  0  0  0  0  0  0  0
   45.1540   34.4280   45.3190 C   0  0  0  0  0  0  0  0  0  0  0  0
   45.0710   35.2380   44.1240 C   0  0  0  0  0  0  0  0  0  0  0  0
   46.0830   35.1000   43.0790 C   0  0  1  0  0  0  0  0  0  0  0  0
   47.2260   34.2100   43.3380 C   0  0  0  0  0  0  0  0  0  0  0  0
   46.7490   32.9860   44.0810 C   0  0  0  0  0  0  0  0  0  0  0  0
   45.3420   32.7490   47.5770 C   0  0  0  0  0  0  0  0  0  0  0  0
   45.9840   32.4000   46.3890 C   0  0  0  0  0  0  0  0  0  0  0  0
   46.2990   31.0490   46.1770 C   0  0  0  0  0  0  0  0  0  0  0  0
   45.9680   30.1420   47.1360 N   0  0  0  0  0  0  0  0  0  0  0  0
   45.3460   30.5070   48.2820 C   0  0  0  0  0  0  0  0  0  0  0  0
   45.0350   31.8070   48.5000 N   0  0  0  0  0  0  0  0  0  0  0  0
   45.3080   34.6960   41.8180 C   0  0  0  0  0  0  0  0  0  0  0  0
   44.0130   33.9780   42.1280 C   0  0  0  0  0  0  0  0  0  0  0  0
   44.0120   35.3140   41.4910 C   0  0  0  0  0  0  0  0  0  0  0  0
   47.1980   33.9714   45.8442 H   0  0  0  0  0  0  0  0  0  0  0  0
   44.4011   34.5108   46.1167 H   0  0  0  0  0  0  0  0  0  0  0  0
   44.2474   35.9569   44.0018 H   0  0  0  0  0  0  0  0  0  0  0  0
   46.6072   36.0632   42.9928 H   0  0  0  0  0  0  0  0  0  0  0  0
   47.6787   33.9063   42.3826 H   0  0  0  0  0  0  0  0  0  0  0  0
   47.9747   34.7401   43.9450 H   0  0  0  0  0  0  0  0  0  0  0  0
   45.9046   32.5223   43.5499 H   0  0  0  0  0  0  0  0  0  0  0  0
   47.5432   32.2289   44.1586 H   0  0  0  0  0  0  0  0  0  0  0  0
   45.0822   33.8010   47.7662 H   0  0  0  0  0  0  0  0  0  0  0  0
   46.8038   30.7293   45.2534 H   0  0  0  0  0  0  0  0  0  0  0  0
   45.0932   29.7473   49.0363 H   0  0  0  0  0  0  0  0  0  0  0  0
   46.2196   34.5417   41.2220 H   0  0  0  0  0  0  0  0  0  0  0  0
   43.7213   33.0892   41.5492 H   0  0  0  0  0  0  0  0  0  0  0  0
   43.5564   33.5375   43.0266 H   0  0  0  0  0  0  0  0  0  0  0  0
   43.6661   36.1894   42.0603 H   0  0  0  0  0  0  0  0  0  0  0  0
   43.5678   35.7270   40.5733 H   0  0  0  0  0  0  0  0  0  0  0  0
  1  8  1  0
  2  1  1  0
  3  2  2  0
  4  5  1  0
  4  3  1  0
  5  6  1  0
  6  1  1  0
  7 12  2  0
  8  7  1  0
  9  8  2  0
  9 10  1  0
 10 11  2  0
 11 12  1  0
 13 14  1  0
 13  4  1  0
 15 13  1  0
 15 14  1  0
  1 16  1  1
  2 17  1  0
  3 18  1  0
  4 19  1  6
  5 20  1  0
  5 21  1  0
  6 22  1  0
  6 23  1  0
  7 24  1  0
  9 25  1  0
 11 26  1  0
 13 27  1  0
 14 28  1  0
 14 29  1  0
 15 30  1  0
 15 31  1  0
M  ISO  8  16  13  17  13  18  13  19  13  20  13  21  13  22  13  23  13
M  ISO  8  24  14  25  14  26  14  27  13  28  13  29  13  30  13  31  13
M  END
>  <minimizedAffinity>  (1) 
-4.76800823

>  <minimizedRMSD>  (1) 
0.794185877

$$$$
