
     RDKit          3D

 36 38  0  0  1  0  0  0  0  0999 V2000
   46.1280   33.6020   45.3230 C   0  0  2  0  0  0  0  0  0  0  0  0
   44.9750   34.6680   45.4920 C   0  0  0  0  0  0  0  0  0  0  0  0
   44.7290   35.5680   44.3980 C   0  0  0  0  0  0  0  0  0  0  0  0
   45.5220   35.4850   43.1870 C   0  0  1  0  0  0  0  0  0  0  0  0
   46.6520   34.5440   43.2050 C   0  0  0  0  0  0  0  0  0  0  0  0
   46.2230   33.2830   43.9360 C   0  0  0  0  0  0  0  0  0  0  0  0
   45.3900   32.8740   47.5650 C   0  0  0  0  0  0  0  0  0  0  0  0
   45.9050   32.6010   46.3190 C   0  0  0  0  0  0  0  0  0  0  0  0
   46.1610   31.2480   46.0370 C   0  0  0  0  0  0  0  0  0  0  0  0
   45.9010   30.3200   46.9610 N   0  0  0  0  0  0  0  0  0  0  0  0
   45.3930   30.6180   48.1800 C   0  0  0  0  0  0  0  0  0  0  0  0
   45.1370   31.8840   48.4860 N   0  0  0  0  0  0  0  0  0  0  0  0
   45.1520   29.5500   49.1050 N   0  0  0  0  0  0  0  0  0  0  0  0
   46.6970   30.6340   44.8010 C   0  0  0  0  0  0  0  0  0  0  0  0
   47.1880   29.1650   44.8670 C   0  0  0  0  0  0  0  0  0  0  0  0
   48.1880   30.2090   44.8130 C   0  0  0  0  0  0  0  0  0  0  0  0
   44.5720   35.1620   42.0090 C   0  0  0  0  0  0  0  0  0  0  0  0
   43.5850   34.2820   42.3600 F   0  0  0  0  0  0  0  0  0  0  0  0
   43.9420   36.3650   41.6840 F   0  0  0  0  0  0  0  0  0  0  0  0
   45.3170   34.7750   40.9010 F   0  0  0  0  0  0  0  0  0  0  0  0
   47.1607   33.9156   45.5356 H   0  0  0  0  0  0  0  0  0  0  0  0
   44.3801   34.7202   46.4158 H   0  0  0  0  0  0  0  0  0  0  0  0
   43.9343   36.3241   44.4803 H   0  0  0  0  0  0  0  0  0  0  0  0
   46.0084   36.4658   43.0802 H   0  0  0  0  0  0  0  0  0  0  0  0
   46.9420   34.2938   42.1738 H   0  0  0  0  0  0  0  0  0  0  0  0
   47.5121   35.0003   43.7170 H   0  0  0  0  0  0  0  0  0  0  0  0
   45.2457   32.9455   43.5606 H   0  0  0  0  0  0  0  0  0  0  0  0
   46.9512   32.4747   43.7736 H   0  0  0  0  0  0  0  0  0  0  0  0
   45.1733   33.9184   47.8338 H   0  0  0  0  0  0  0  0  0  0  0  0
   44.7659   29.7539   50.0379 H   0  0  0  0  0  0  0  0  0  0  0  0
   45.3649   28.5786   48.8369 H   0  0  0  0  0  0  0  0  0  0  0  0
   46.0286   31.2226   44.1554 H   0  0  0  0  0  0  0  0  0  0  0  0
   47.0538   28.5879   45.7938 H   0  0  0  0  0  0  0  0  0  0  0  0
   46.9893   28.2646   44.2671 H   0  0  0  0  0  0  0  0  0  0  0  0
   48.7962   30.3331   43.9049 H   0  0  0  0  0  0  0  0  0  0  0  0
   49.0532   30.4723   45.4391 H   0  0  0  0  0  0  0  0  0  0  0  0
  1  2  1  0
  1  8  1  0
  3  2  2  0
  4  5  1  0
  4  3  1  0
  5  6  1  0
  6  1  1  0
  7 12  2  0
  8  7  1  0
  9  8  2  0
  9 10  1  0
 10 11  2  0
 11 12  1  0
 11 13  1  0
 14 16  1  0
 14 15  1  0
 14  9  1  0
 16 15  1  0
 17 18  1  0
 17  4  1  0
 19 17  1  0
 20 17  1  0
  1 21  1  1
  2 22  1  0
  3 23  1  0
  4 24  1  6
  5 25  1  0
  5 26  1  0
  6 27  1  0
  6 28  1  0
  7 29  1  0
 13 30  1  0
 13 31  1  0
 14 32  1  0
 15 33  1  0
 15 34  1  0
 16 35  1  0
 16 36  1  0
M  ISO  8  21  13  22  13  23  13  24  13  25  13  26  13  27  13  28  13
M  ISO  6  29  14  32  13  33  13  34  13  35  13  36  13
M  END
>  <minimizedAffinity>  (1) 
-5.60407543

>  <minimizedRMSD>  (1) 
0.196656168

$$$$
