
     RDKit          3D

 46 49  0  0  1  0  0  0  0  0999 V2000
   44.5740   35.8390   44.5500 C   0  0  0  0  0  0  0  0  0  0  0  0
   45.1680   35.7950   43.2920 C   0  0  0  0  0  0  0  0  0  0  0  0
   46.0890   34.7950   43.0360 C   0  0  0  0  0  0  0  0  0  0  0  0
   46.3690   33.9020   44.0280 N   0  0  0  0  0  0  0  0  0  0  0  0
   45.7730   33.9700   45.2490 C   0  0  0  0  0  0  0  0  0  0  0  0
   44.8660   34.9560   45.5010 N   0  0  0  0  0  0  0  0  0  0  0  0
   46.0830   33.0130   46.2930 C   0  0  0  0  0  0  0  0  0  0  0  0
   45.3850   33.0430   47.4960 C   0  0  0  0  0  0  0  0  0  0  0  0
   45.6460   32.1500   48.5190 C   0  0  0  0  0  0  0  0  0  0  0  0
   46.6230   31.2590   48.2550 C   0  0  0  0  0  0  0  0  0  0  0  0
   47.3400   31.1870   47.0830 C   0  0  0  0  0  0  0  0  0  0  0  0
   47.0240   32.0940   46.1340 N   0  0  0  0  0  0  0  0  0  0  0  0
   44.3780   34.0270   47.6620 N   0  0  0  0  0  0  0  0  0  0  0  0
   46.7410   34.7200   41.7020 C   0  0  0  0  0  0  0  0  0  0  0  0
   48.0870   35.3890   41.6990 C   0  0  0  0  0  0  0  0  0  0  0  0
   49.1920   34.4220   41.8370 C   0  0  0  0  0  0  0  0  0  0  0  0
   50.2780   34.6710   42.5880 N   0  0  0  0  0  0  0  0  0  0  0  0
   51.0600   33.6470   42.5120 O   0  0  0  0  0  0  0  0  0  0  0  0
   50.5350   32.7220   41.7370 C   0  0  0  0  0  0  0  0  0  0  0  0
   49.3570   33.2050   41.3070 N   0  0  0  0  0  0  0  0  0  0  0  0
   51.0340   31.4010   41.3450 C   0  0  1  0  0  0  0  0  0  0  0  0
   52.2600   31.5260   40.4800 C   0  0  0  0  0  0  0  0  0  0  0  0
   53.0100   30.2780   40.2500 C   0  0  0  0  0  0  0  0  0  0  0  0
   52.5470   29.0390   40.9070 C   0  0  0  0  0  0  0  0  0  0  0  0
   51.5570   29.1610   42.0020 C   0  0  0  0  0  0  0  0  0  0  0  0
   51.4700   30.5880   42.5480 C   0  0  0  0  0  0  0  0  0  0  0  0
   43.8396   36.6293   44.7646 H   0  0  0  0  0  0  0  0  0  0  0  0
   44.9116   36.5365   42.5210 H   0  0  0  0  0  0  0  0  0  0  0  0
   45.0994   32.1653   49.4734 H   0  0  0  0  0  0  0  0  0  0  0  0
   46.8669   30.5296   49.0415 H   0  0  0  0  0  0  0  0  0  0  0  0
   48.1261   30.4333   46.9279 H   0  0  0  0  0  0  0  0  0  0  0  0
   43.8441   34.0743   48.5416 H   0  0  0  0  0  0  0  0  0  0  0  0
   44.1803   34.6947   46.9030 H   0  0  0  0  0  0  0  0  0  0  0  0
   46.8686   33.6625   41.4272 H   0  0  0  0  0  0  0  0  0  0  0  0
   46.0984   35.2424   40.9780 H   0  0  0  0  0  0  0  0  0  0  0  0
   48.2095   35.9335   40.7511 H   0  0  0  0  0  0  0  0  0  0  0  0
   48.1263   36.0708   42.5613 H   0  0  0  0  0  0  0  0  0  0  0  0
   50.2036   30.9122   40.8144 H   0  0  0  0  0  0  0  0  0  0  0  0
   52.5757   32.4869   40.0475 H   0  0  0  0  0  0  0  0  0  0  0  0
   53.8981   30.2697   39.6010 H   0  0  0  0  0  0  0  0  0  0  0  0
   52.0977   28.4044   40.1289 H   0  0  0  0  0  0  0  0  0  0  0  0
   53.4463   28.6333   41.3935 H   0  0  0  0  0  0  0  0  0  0  0  0
   50.5683   28.8673   41.6197 H   0  0  0  0  0  0  0  0  0  0  0  0
   51.8803   28.5048   42.8235 H   0  0  0  0  0  0  0  0  0  0  0  0
   52.4485   30.9276   42.9184 H   0  0  0  0  0  0  0  0  0  0  0  0
   50.7802   30.6795   43.3999 H   0  0  0  0  0  0  0  0  0  0  0  0
  1  6  2  0
  2  1  1  0
  3  2  2  0
  3  4  1  0
  4  5  2  0
  5  6  1  0
  5  7  1  0
  7  8  2  0
  8 13  1  0
  8  9  1  0
 10  9  2  0
 11 10  1  0
 12  7  1  0
 12 11  2  0
 14  3  1  0
 15 14  1  0
 15 16  1  0
 16 17  2  0
 18 17  1  0
 19 18  1  0
 20 19  2  0
 20 16  1  0
 21 19  1  0
 21 26  1  0
 22 21  1  0
 23 22  2  0
 23 24  1  0
 24 25  1  0
 25 26  1  0
  1 27  1  0
  2 28  1  0
  9 29  1  0
 10 30  1  0
 11 31  1  0
 13 32  1  0
 13 33  1  0
 14 34  1  0
 14 35  1  0
 15 36  1  0
 15 37  1  0
 21 38  1  6
 22 39  1  0
 23 40  1  0
 24 41  1  0
 24 42  1  0
 25 43  1  0
 25 44  1  0
 26 45  1  0
 26 46  1  0
M  END
>  <minimizedAffinity>  (1) 
-7.05704594

>  <minimizedRMSD>  (1) 
0.19810155

$$$$
