
     RDKit          3D

 42 44  0  0  1  0  0  0  0  0999 V2000
   47.3060   34.0060   41.4470 C   0  0  1  0  0  0  0  0  0  0  0  0
   48.1710   34.9380   40.6230 C   0  0  0  0  0  0  0  0  0  0  0  0
   49.0790   35.7980   41.4100 C   0  0  0  0  0  0  0  0  0  0  0  0
   49.7940   35.0870   42.5240 C   0  0  0  0  0  0  0  0  0  0  0  0
   49.3110   33.6890   42.7630 C   0  0  0  0  0  0  0  0  0  0  0  0
   47.7900   33.7080   42.8030 C   0  0  2  0  0  0  0  0  0  0  0  0
   44.2430   35.7830   42.5470 C   0  0  0  0  0  0  0  0  0  0  0  0
   43.2980   35.3730   41.5710 C   0  0  0  0  0  0  0  0  0  0  0  0
   43.7330   34.5010   40.5490 C   0  0  0  0  0  0  0  0  0  0  0  0
   45.0510   34.0930   40.5500 N   0  0  0  0  0  0  0  0  0  0  0  0
   45.8970   34.5090   41.4930 C   0  0  0  0  0  0  0  0  0  0  0  0
   45.5160   35.3480   42.4920 N   0  0  0  0  0  0  0  0  0  0  0  0
   47.3050   32.3940   43.3370 C   0  0  0  0  0  0  0  0  0  0  0  0
   47.0750   32.4460   44.8240 C   0  0  0  0  0  0  0  0  0  0  0  0
   46.2340   31.2040   45.1450 C   0  0  0  0  0  0  0  0  0  0  0  0
   47.1870   30.0160   45.0180 C   0  0  0  0  0  0  0  0  0  0  0  0
   48.4270   30.3770   44.2690 C   0  0  0  0  0  0  0  0  0  0  0  0
   48.1660   31.2230   43.0290 C   0  0  0  0  0  0  0  0  0  0  0  0
   47.3592   33.0419   40.9200 H   0  0  0  0  0  0  0  0  0  0  0  0
   47.5081   35.5889   40.0340 H   0  0  0  0  0  0  0  0  0  0  0  0
   48.8131   34.2964   40.0017 H   0  0  0  0  0  0  0  0  0  0  0  0
   49.8339   36.2167   40.7282 H   0  0  0  0  0  0  0  0  0  0  0  0
   48.4523   36.5700   41.8804 H   0  0  0  0  0  0  0  0  0  0  0  0
   50.8651   35.0455   42.2768 H   0  0  0  0  0  0  0  0  0  0  0  0
   49.5938   35.6549   43.4445 H   0  0  0  0  0  0  0  0  0  0  0  0
   49.6533   33.0332   41.9489 H   0  0  0  0  0  0  0  0  0  0  0  0
   49.7099   33.3083   43.7148 H   0  0  0  0  0  0  0  0  0  0  0  0
   47.3970   34.4858   43.4742 H   0  0  0  0  0  0  0  0  0  0  0  0
   43.9329   36.4618   43.3551 H   0  0  0  0  0  0  0  0  0  0  0  0
   42.2564   35.7244   41.6094 H   0  0  0  0  0  0  0  0  0  0  0  0
   43.0373   34.1551   39.7703 H   0  0  0  0  0  0  0  0  0  0  0  0
   46.3570   32.2386   42.8011 H   0  0  0  0  0  0  0  0  0  0  0  0
   48.0329   32.4132   45.3638 H   0  0  0  0  0  0  0  0  0  0  0  0
   46.5702   33.3743   45.1295 H   0  0  0  0  0  0  0  0  0  0  0  0
   45.8325   31.2662   46.1672 H   0  0  0  0  0  0  0  0  0  0  0  0
   45.3738   31.1092   44.4660 H   0  0  0  0  0  0  0  0  0  0  0  0
   47.4665   29.6745   46.0256 H   0  0  0  0  0  0  0  0  0  0  0  0
   46.6700   29.2213   44.4602 H   0  0  0  0  0  0  0  0  0  0  0  0
   49.0881   30.9420   44.9426 H   0  0  0  0  0  0  0  0  0  0  0  0
   48.8830   29.4361   43.9274 H   0  0  0  0  0  0  0  0  0  0  0  0
   47.6658   30.6015   42.2717 H   0  0  0  0  0  0  0  0  0  0  0  0
   49.1320   31.5947   42.6566 H   0  0  0  0  0  0  0  0  0  0  0  0
  1 11  1  0
  1  6  1  0
  2  3  1  0
  2  1  1  0
  3  4  1  0
  4  5  1  0
  5  6  1  0
  6 13  1  0
  8  7  2  0
  9 10  2  0
  9  8  1  0
 10 11  1  0
 11 12  2  0
 12  7  1  0
 13 14  1  0
 14 15  1  0
 16 15  1  0
 17 16  1  0
 18 13  1  0
 18 17  1  0
  1 19  1  6
  2 20  1  0
  2 21  1  0
  3 22  1  0
  3 23  1  0
  4 24  1  0
  4 25  1  0
  5 26  1  0
  5 27  1  0
  6 28  1  1
  7 29  1  0
  8 30  1  0
  9 31  1  0
 13 32  1  0
 14 33  1  0
 14 34  1  0
 15 35  1  0
 15 36  1  0
 16 37  1  0
 16 38  1  0
 17 39  1  0
 17 40  1  0
 18 41  1  0
 18 42  1  0
M  ISO  8  19  13  20  13  21  13  22  13  23  13  24  13  25  13  26  13
M  ISO  8  27  13  28  13  29  14  30  14  31  14  32  13  33  13  34  13
M  ISO  8  35  13  36  13  37  13  38  13  39  13  40  13  41  13  42  13
M  END
>  <minimizedAffinity>  (1) 
-5.42813444

>  <minimizedRMSD>  (1) 
2.10457277

$$$$
