
     RDKit          3D

 42 44  0  0  0  0  0  0  0  0999 V2000
   47.3950   34.1240   42.3750 C   0  0  0  0  0  0  0  0  0  0  0  0
   48.0740   35.2690   41.7030 C   0  0  0  0  0  0  0  0  0  0  0  0
   49.4700   35.5540   42.1780 C   0  0  0  0  0  0  0  0  0  0  0  0
   50.3230   34.3600   42.4030 C   0  0  0  0  0  0  0  0  0  0  0  0
   49.5950   33.0630   42.2570 C   0  0  0  0  0  0  0  0  0  0  0  0
   48.3150   33.1470   43.0300 C   0  0  0  0  0  0  0  0  0  0  0  0
   45.2400   34.3020   45.3670 C   0  0  0  0  0  0  0  0  0  0  0  0
   44.5230   35.4910   45.2030 C   0  0  0  0  0  0  0  0  0  0  0  0
   44.7950   36.2310   44.0620 C   0  0  0  0  0  0  0  0  0  0  0  0
   45.7280   35.7480   43.2020 N   0  0  0  0  0  0  0  0  0  0  0  0
   46.4040   34.6160   43.3660 C   0  0  0  0  0  0  0  0  0  0  0  0
   46.1530   33.8960   44.4580 N   0  0  0  0  0  0  0  0  0  0  0  0
   46.4740   33.4520   41.3670 C   0  0  0  0  0  0  0  0  0  0  0  0
   47.2060   32.8540   40.1910 C   0  0  0  0  0  0  0  0  0  0  0  0
   46.5930   33.1950   38.8640 C   0  0  0  0  0  0  0  0  0  0  0  0
   45.1080   32.9150   38.8180 C   0  0  0  0  0  0  0  0  0  0  0  0
   44.4460   33.2720   40.1250 C   0  0  0  0  0  0  0  0  0  0  0  0
   45.3760   34.2860   40.8210 C   0  0  0  0  0  0  0  0  0  0  0  0
   47.4668   36.1707   41.8711 H   0  0  0  0  0  0  0  0  0  0  0  0
   48.1637   34.9904   40.6426 H   0  0  0  0  0  0  0  0  0  0  0  0
   49.9626   36.1856   41.4240 H   0  0  0  0  0  0  0  0  0  0  0  0
   49.3628   36.0388   43.1596 H   0  0  0  0  0  0  0  0  0  0  0  0
   51.1465   34.3796   41.6739 H   0  0  0  0  0  0  0  0  0  0  0  0
   50.6798   34.4121   43.4422 H   0  0  0  0  0  0  0  0  0  0  0  0
   49.3757   32.8780   41.1951 H   0  0  0  0  0  0  0  0  0  0  0  0
   50.2136   32.2383   42.6406 H   0  0  0  0  0  0  0  0  0  0  0  0
   48.5290   33.4781   44.0569 H   0  0  0  0  0  0  0  0  0  0  0  0
   47.8377   32.1562   43.0533 H   0  0  0  0  0  0  0  0  0  0  0  0
   45.0563   33.6825   46.2572 H   0  0  0  0  0  0  0  0  0  0  0  0
   43.7796   35.8232   45.9426 H   0  0  0  0  0  0  0  0  0  0  0  0
   44.2723   37.1777   43.8605 H   0  0  0  0  0  0  0  0  0  0  0  0
   46.0225   32.6682   41.9930 H   0  0  0  0  0  0  0  0  0  0  0  0
   48.2416   33.2248   40.2011 H   0  0  0  0  0  0  0  0  0  0  0  0
   47.1515   31.7607   40.2997 H   0  0  0  0  0  0  0  0  0  0  0  0
   46.7557   34.2647   38.6657 H   0  0  0  0  0  0  0  0  0  0  0  0
   47.0741   32.5624   38.1034 H   0  0  0  0  0  0  0  0  0  0  0  0
   44.6552   33.5107   38.0117 H   0  0  0  0  0  0  0  0  0  0  0  0
   44.9613   31.8403   38.6349 H   0  0  0  0  0  0  0  0  0  0  0  0
   43.4601   33.7238   39.9412 H   0  0  0  0  0  0  0  0  0  0  0  0
   44.2896   32.3801   40.7496 H   0  0  0  0  0  0  0  0  0  0  0  0
   45.7644   35.0195   40.0991 H   0  0  0  0  0  0  0  0  0  0  0  0
   44.8602   34.8680   41.5990 H   0  0  0  0  0  0  0  0  0  0  0  0
  1  6  1  0
  1 11  1  0
  2  3  1  0
  2  1  1  0
  3  4  1  0
  5  4  1  0
  5  6  1  0
  8  7  2  0
  9  8  1  0
 10 11  1  0
 10  9  2  0
 11 12  2  0
 12  7  1  0
 13  1  1  0
 14 13  1  0
 15 14  1  0
 16 15  1  0
 16 17  1  0
 17 18  1  0
 18 13  1  0
  2 19  1  0
  2 20  1  0
  3 21  1  0
  3 22  1  0
  4 23  1  0
  4 24  1  0
  5 25  1  0
  5 26  1  0
  6 27  1  0
  6 28  1  0
  7 29  1  0
  8 30  1  0
  9 31  1  0
 13 32  1  0
 14 33  1  0
 14 34  1  0
 15 35  1  0
 15 36  1  0
 16 37  1  0
 16 38  1  0
 17 39  1  0
 17 40  1  0
 18 41  1  0
 18 42  1  0
M  ISO  8  19  13  20  13  21  13  22  13  23  13  24  13  25  13  26  13
M  ISO  8  27  13  28  13  29  14  30  14  31  14  32  13  33  13  34  13
M  ISO  8  35  13  36  13  37  13  38  13  39  13  40  13  41  13  42  13
M  END
>  <minimizedAffinity>  (1) 
-5.61124086

>  <minimizedRMSD>  (1) 
0.146730632

$$$$
