
     RDKit          3D

 45 48  0  0  0  0  0  0  0  0999 V2000
   48.1340   31.0420   48.3870 C   0  0  0  0  0  0  0  0  0  0  0  0
   49.0700   31.6100   49.2250 C   0  0  0  0  0  0  0  0  0  0  0  0
   50.0980   30.8850   49.7600 C   0  0  0  0  0  0  0  0  0  0  0  0
   50.1730   29.5300   49.4250 C   0  0  0  0  0  0  0  0  0  0  0  0
   49.2430   28.9510   48.5880 C   0  0  0  0  0  0  0  0  0  0  0  0
   48.2140   29.7190   48.0650 C   0  0  0  0  0  0  0  0  0  0  0  0
   44.4310   35.8120   44.5580 C   0  0  0  0  0  0  0  0  0  0  0  0
   45.1630   35.7150   43.3810 C   0  0  0  0  0  0  0  0  0  0  0  0
   46.1630   34.7670   43.2910 C   0  0  0  0  0  0  0  0  0  0  0  0
   46.3870   33.9670   44.3640 N   0  0  0  0  0  0  0  0  0  0  0  0
   45.6560   34.0830   45.5030 C   0  0  0  0  0  0  0  0  0  0  0  0
   44.6850   34.9960   45.6080 N   0  0  0  0  0  0  0  0  0  0  0  0
   45.8940   33.2430   46.6260 N   0  0  0  0  0  0  0  0  0  0  0  0
   47.0980   32.6270   46.6980 C   0  0  0  0  0  0  0  0  0  0  0  0
   47.0720   31.8850   47.8620 C   0  0  0  0  0  0  0  0  0  0  0  0
   45.8750   32.0580   48.4700 N   0  0  0  0  0  0  0  0  0  0  0  0
   45.1570   32.8810   47.7270 C   0  0  0  0  0  0  0  0  0  0  0  0
   49.3230   27.5280   48.2380 C   0  0  0  0  0  0  0  0  0  0  0  0
   49.8170   26.7160   49.4080 C   0  0  0  0  0  0  0  0  0  0  0  0
   49.7690   25.2510   49.1450 C   0  0  0  0  0  0  0  0  0  0  0  0
   50.2190   24.8240   47.7940 C   0  0  0  0  0  0  0  0  0  0  0  0
   50.1420   25.8460   46.7200 C   0  0  0  0  0  0  0  0  0  0  0  0
   50.3450   27.2590   47.1410 C   0  0  0  0  0  0  0  0  0  0  0  0
   47.2710   29.1010   47.2070 N   0  0  0  0  0  0  0  0  0  0  0  0
   48.9870   32.6790   49.4705 H   0  0  0  0  0  0  0  0  0  0  0  0
   50.8377   31.3500   50.4284 H   0  0  0  0  0  0  0  0  0  0  0  0
   50.9875   28.9155   49.8360 H   0  0  0  0  0  0  0  0  0  0  0  0
   43.6322   36.5640   44.6380 H   0  0  0  0  0  0  0  0  0  0  0  0
   44.9492   36.3832   42.5338 H   0  0  0  0  0  0  0  0  0  0  0  0
   46.7619   34.6631   42.3742 H   0  0  0  0  0  0  0  0  0  0  0  0
   47.9259   32.7023   45.9776 H   0  0  0  0  0  0  0  0  0  0  0  0
   44.1356   33.2209   47.9531 H   0  0  0  0  0  0  0  0  0  0  0  0
   48.3060   27.2540   47.9208 H   0  0  0  0  0  0  0  0  0  0  0  0
   50.8573   27.0022   49.6222 H   0  0  0  0  0  0  0  0  0  0  0  0
   49.1566   26.9244   50.2627 H   0  0  0  0  0  0  0  0  0  0  0  0
   50.4096   24.7530   49.8878 H   0  0  0  0  0  0  0  0  0  0  0  0
   48.7078   24.9689   49.2109 H   0  0  0  0  0  0  0  0  0  0  0  0
   51.2679   24.5032   47.8763 H   0  0  0  0  0  0  0  0  0  0  0  0
   49.5222   24.0284   47.4914 H   0  0  0  0  0  0  0  0  0  0  0  0
   49.1462   25.7732   46.2584 H   0  0  0  0  0  0  0  0  0  0  0  0
   50.9751   25.6196   46.0383 H   0  0  0  0  0  0  0  0  0  0  0  0
   51.3652   27.3985   47.5280 H   0  0  0  0  0  0  0  0  0  0  0  0
   50.2164   27.9510   46.2956 H   0  0  0  0  0  0  0  0  0  0  0  0
   47.3580   28.0996   46.9823 H   0  0  0  0  0  0  0  0  0  0  0  0
   46.4985   29.6531   46.8079 H   0  0  0  0  0  0  0  0  0  0  0  0
  1  2  2  0
  2  3  1  0
  4  3  2  0
  5  4  1  0
  6  1  1  0
  6  5  2  0
  7 12  2  0
  8  7  1  0
  9  8  2  0
  9 10  1  0
 10 11  2  0
 11 12  1  0
 11 13  1  0
 13 14  1  0
 13 17  1  0
 14 15  2  0
 15  1  1  0
 15 16  1  0
 17 16  2  0
 18  5  1  0
 18 19  1  0
 20 19  1  0
 21 20  1  0
 22 23  1  0
 22 21  1  0
 23 18  1  0
 24  6  1  0
  2 25  1  0
  3 26  1  0
  4 27  1  0
  7 28  1  0
  8 29  1  0
  9 30  1  0
 14 31  1  0
 17 32  1  0
 18 33  1  0
 19 34  1  0
 19 35  1  0
 20 36  1  0
 20 37  1  0
 21 38  1  0
 21 39  1  0
 22 40  1  0
 22 41  1  0
 23 42  1  0
 23 43  1  0
 24 44  1  0
 24 45  1  0
M  ISO  8  25  14  26  14  27  14  28  14  29  14  30  14  31  14  32  14
M  ISO  8  33  13  34  13  35  13  36  13  37  13  38  13  39  13  40  13
M  ISO  3  41  13  42  13  43  13
M  END
>  <minimizedAffinity>  (1) 
-5.87506294

>  <minimizedRMSD>  (1) 
0.545098186

$$$$
