
     RDKit          3D

 55 58  0  0  0  0  0  0  0  0999 V2000
   46.6030   34.3820   41.9980 N   0  0  0  0  0  0  0  0  0  0  0  0
   47.7150   35.1710   41.8740 C   0  0  0  0  0  0  0  0  0  0  0  0
   48.4160   35.2190   40.7070 C   0  0  0  0  0  0  0  0  0  0  0  0
   47.9680   34.4360   39.6400 C   0  0  0  0  0  0  0  0  0  0  0  0
   48.5950   34.4700   38.5650 O   0  0  0  0  0  0  0  0  0  0  0  0
   46.8720   33.6810   39.8270 N   0  0  0  0  0  0  0  0  0  0  0  0
   46.1980   33.6540   40.9840 C   0  0  0  0  0  0  0  0  0  0  0  0
   45.2020   33.0020   41.2120 O   0  0  0  0  0  0  0  0  0  0  0  0
   46.3810   32.8610   38.7890 C   0  0  0  0  0  0  0  0  0  0  0  0
   45.4140   33.2610   37.8860 C   0  0  0  0  0  0  0  0  0  0  0  0
   44.9860   32.4020   36.8990 C   0  0  0  0  0  0  0  0  0  0  0  0
   45.5100   31.1290   36.7890 C   0  0  0  0  0  0  0  0  0  0  0  0
   46.4590   30.7640   37.6890 C   0  0  0  0  0  0  0  0  0  0  0  0
   46.9410   31.5880   38.7200 C   0  0  0  0  0  0  0  0  0  0  0  0
   47.9880   31.0870   39.6530 C   0  0  0  0  0  0  0  0  0  0  0  0
   49.2850   31.8130   39.6010 C   0  0  0  0  0  0  0  0  0  0  0  0
   47.5550   31.0600   41.0850 C   0  0  0  0  0  0  0  0  0  0  0  0
   44.5350   35.6250   44.8090 C   0  0  0  0  0  0  0  0  0  0  0  0
   45.0860   35.5140   43.5090 C   0  0  0  0  0  0  0  0  0  0  0  0
   46.0370   34.5030   43.3260 C   0  0  0  0  0  0  0  0  0  0  0  0
   46.3980   33.6870   44.3490 N   0  0  0  0  0  0  0  0  0  0  0  0
   45.8260   33.8530   45.5770 C   0  0  0  0  0  0  0  0  0  0  0  0
   44.9200   34.7920   45.8070 N   0  0  0  0  0  0  0  0  0  0  0  0
   46.2800   32.9120   46.6470 C   0  0  0  0  0  0  0  0  0  0  0  0
   46.7460   31.5880   46.0960 C   0  0  0  0  0  0  0  0  0  0  0  0
   47.0120   30.6760   47.2560 C   0  0  0  0  0  0  0  0  0  0  0  0
   47.2200   31.4070   48.5660 C   0  0  0  0  0  0  0  0  0  0  0  0
   45.9630   32.1720   48.9460 C   0  0  0  0  0  0  0  0  0  0  0  0
   45.2340   32.6560   47.6910 C   0  0  0  0  0  0  0  0  0  0  0  0
   48.0477   35.7758   42.7304 H   0  0  0  0  0  0  0  0  0  0  0  0
   49.3079   35.8551   40.6076 H   0  0  0  0  0  0  0  0  0  0  0  0
   44.9841   34.2711   37.9564 H   0  0  0  0  0  0  0  0  0  0  0  0
   44.2155   32.7344   36.1877 H   0  0  0  0  0  0  0  0  0  0  0  0
   45.1718   30.4377   36.0030 H   0  0  0  0  0  0  0  0  0  0  0  0
   46.8803   29.7514   37.6050 H   0  0  0  0  0  0  0  0  0  0  0  0
   48.1407   30.0642   39.2782 H   0  0  0  0  0  0  0  0  0  0  0  0
   49.6364   32.0097   40.6246 H   0  0  0  0  0  0  0  0  0  0  0  0
   50.0276   31.1994   39.0700 H   0  0  0  0  0  0  0  0  0  0  0  0
   49.1502   32.7668   39.0700 H   0  0  0  0  0  0  0  0  0  0  0  0
   48.4395   31.1152   41.7366 H   0  0  0  0  0  0  0  0  0  0  0  0
   46.8977   31.9189   41.2856 H   0  0  0  0  0  0  0  0  0  0  0  0
   47.0095   30.1261   41.2856 H   0  0  0  0  0  0  0  0  0  0  0  0
   43.7817   36.4004   45.0124 H   0  0  0  0  0  0  0  0  0  0  0  0
   44.7841   36.1836   42.6902 H   0  0  0  0  0  0  0  0  0  0  0  0
   47.1295   33.4270   47.1194 H   0  0  0  0  0  0  0  0  0  0  0  0
   45.9664   31.1558   45.4515 H   0  0  0  0  0  0  0  0  0  0  0  0
   47.6580   31.7216   45.4957 H   0  0  0  0  0  0  0  0  0  0  0  0
   46.1537   29.9973   47.3688 H   0  0  0  0  0  0  0  0  0  0  0  0
   47.9451   30.1369   47.0354 H   0  0  0  0  0  0  0  0  0  0  0  0
   47.4542   30.6779   49.3557 H   0  0  0  0  0  0  0  0  0  0  0  0
   48.0518   32.1177   48.4521 H   0  0  0  0  0  0  0  0  0  0  0  0
   45.2966   31.5118   49.5205 H   0  0  0  0  0  0  0  0  0  0  0  0
   46.2459   33.0444   49.5534 H   0  0  0  0  0  0  0  0  0  0  0  0
   44.6825   33.5826   47.9083 H   0  0  0  0  0  0  0  0  0  0  0  0
   44.5090   31.9049   47.3442 H   0  0  0  0  0  0  0  0  0  0  0  0
  1 20  1  0
  2  1  1  0
  3  2  2  0
  4  6  1  0
  4  3  1  0
  5  4  2  0
  6  7  1  0
  7  8  2  0
  7  1  1  0
  9  6  1  0
 10  9  2  0
 11 10  1  0
 12 11  2  0
 12 13  1  0
 13 14  2  0
 14  9  1  0
 14 15  1  0
 15 17  1  0
 16 15  1  0
 18 23  2  0
 19 18  1  0
 20 19  2  0
 20 21  1  0
 21 22  2  0
 22 23  1  0
 22 24  1  0
 24 29  1  0
 25 24  1  0
 25 26  1  0
 26 27  1  0
 27 28  1  0
 29 28  1  0
  2 30  1  0
  3 31  1  0
 10 32  1  0
 11 33  1  0
 12 34  1  0
 13 35  1  0
 15 36  1  0
 16 37  1  0
 16 38  1  0
 16 39  1  0
 17 40  1  0
 17 41  1  0
 17 42  1  0
 18 43  1  0
 19 44  1  0
 24 45  1  0
 25 46  1  0
 25 47  1  0
 26 48  1  0
 26 49  1  0
 27 50  1  0
 27 51  1  0
 28 52  1  0
 28 53  1  0
 29 54  1  0
 29 55  1  0
M  ISO  8  30  14  31  14  32  14  33  14  34  14  35  14  36   8  37   8
M  ISO  8  38   8  39   8  40   8  41   8  42   8  43  14  44  14  45  13
M  ISO  8  46  13  47  13  48  13  49  13  50  13  51  13  52  13  53  13
M  ISO  2  54  13  55  13
M  END
>  <minimizedAffinity>  (1) 
-6.71787071

>  <minimizedRMSD>  (1) 
0.276346475

$$$$
