
     RDKit          3D

 43 45  0  0  1  0  0  0  0  0999 V2000
   46.5320   33.9470   44.4150 C   0  0  2  0  0  0  0  0  0  0  0  0
   45.2110   34.5150   44.8900 C   0  0  0  0  0  0  0  0  0  0  0  0
   44.4710   35.3310   43.9610 C   0  0  0  0  0  0  0  0  0  0  0  0
   44.9790   35.5910   42.6270 C   0  0  1  0  0  0  0  0  0  0  0  0
   46.3070   35.0450   42.2910 C   0  0  0  0  0  0  0  0  0  0  0  0
   46.5080   33.7120   42.9470 C   0  0  0  0  0  0  0  0  0  0  0  0
   47.3740   31.6560   44.6430 C   0  0  0  0  0  0  0  0  0  0  0  0
   46.8990   32.8080   45.2390 C   0  0  0  0  0  0  0  0  0  0  0  0
   46.7960   32.7880   46.6280 C   0  0  0  0  0  0  0  0  0  0  0  0
   47.1410   31.7020   47.3480 N   0  0  0  0  0  0  0  0  0  0  0  0
   47.6050   30.5810   46.7260 C   0  0  0  0  0  0  0  0  0  0  0  0
   47.7180   30.5660   45.3740 N   0  0  0  0  0  0  0  0  0  0  0  0
   47.9780   29.3990   47.5320 C   0  0  0  0  0  0  0  0  0  0  0  0
   48.9580   29.7360   48.6280 C   0  0  0  0  0  0  0  0  0  0  0  0
   50.0740   28.7170   48.7160 C   0  0  0  0  0  0  0  0  0  0  0  0
   49.4250   27.3310   48.7370 C   0  0  0  0  0  0  0  0  0  0  0  0
   48.8670   27.0780   47.3690 C   0  0  0  0  0  0  0  0  0  0  0  0
   48.5100   28.3250   46.6110 C   0  0  0  0  0  0  0  0  0  0  0  0
   43.9430   35.0700   41.6220 C   0  0  0  0  0  0  0  0  0  0  0  0
   43.2060   34.0130   42.1190 F   0  0  0  0  0  0  0  0  0  0  0  0
   43.0380   36.1000   41.3780 F   0  0  0  0  0  0  0  0  0  0  0  0
   44.5490   34.7620   40.4210 F   0  0  0  0  0  0  0  0  0  0  0  0
   47.3467   34.6734   44.5515 H   0  0  0  0  0  0  0  0  0  0  0  0
   44.8319   34.3130   45.9026 H   0  0  0  0  0  0  0  0  0  0  0  0
   43.5070   35.7631   44.2676 H   0  0  0  0  0  0  0  0  0  0  0  0
   45.1317   36.6794   42.5822 H   0  0  0  0  0  0  0  0  0  0  0  0
   46.3844   34.9269   41.2001 H   0  0  0  0  0  0  0  0  0  0  0  0
   47.0792   35.7397   42.6530 H   0  0  0  0  0  0  0  0  0  0  0  0
   45.6812   33.0347   42.6867 H   0  0  0  0  0  0  0  0  0  0  0  0
   47.4458   33.2466   42.6094 H   0  0  0  0  0  0  0  0  0  0  0  0
   47.4759   31.6215   43.5483 H   0  0  0  0  0  0  0  0  0  0  0  0
   46.4236   33.6814   47.1507 H   0  0  0  0  0  0  0  0  0  0  0  0
   47.0798   29.0246   48.0448 H   0  0  0  0  0  0  0  0  0  0  0  0
   49.3940   30.7251   48.4242 H   0  0  0  0  0  0  0  0  0  0  0  0
   48.4156   29.7331   49.5850 H   0  0  0  0  0  0  0  0  0  0  0  0
   50.7371   28.8088   47.8432 H   0  0  0  0  0  0  0  0  0  0  0  0
   50.6775   28.8779   49.6215 H   0  0  0  0  0  0  0  0  0  0  0  0
   50.1771   26.5671   48.9837 H   0  0  0  0  0  0  0  0  0  0  0  0
   48.6300   27.2852   49.4959 H   0  0  0  0  0  0  0  0  0  0  0  0
   49.6177   26.5232   46.7871 H   0  0  0  0  0  0  0  0  0  0  0  0
   47.9334   26.5130   47.5072 H   0  0  0  0  0  0  0  0  0  0  0  0
   49.4086   28.7035   46.1018 H   0  0  0  0  0  0  0  0  0  0  0  0
   47.7244   28.0739   45.8831 H   0  0  0  0  0  0  0  0  0  0  0  0
  1  2  1  0
  1  8  1  0
  3  2  2  0
  4  3  1  0
  5  4  1  0
  5  6  1  0
  6  1  1  0
  7  8  2  0
  7 12  1  0
  8  9  1  0
  9 10  2  0
 11 10  1  0
 11 13  1  0
 12 11  2  0
 13 14  1  0
 14 15  1  0
 15 16  1  0
 17 16  1  0
 18 17  1  0
 18 13  1  0
 19 20  1  0
 19  4  1  0
 21 19  1  0
 22 19  1  0
  1 23  1  6
  2 24  1  0
  3 25  1  0
  4 26  1  1
  5 27  1  0
  5 28  1  0
  6 29  1  0
  6 30  1  0
  7 31  1  0
  9 32  1  0
 13 33  1  0
 14 34  1  0
 14 35  1  0
 15 36  1  0
 15 37  1  0
 16 38  1  0
 16 39  1  0
 17 40  1  0
 17 41  1  0
 18 42  1  0
 18 43  1  0
M  ISO  8  23  13  24  13  25  13  26  13  27  13  28  13  29  13  30  13
M  ISO  8  31  14  32  14  33  13  34  13  35  13  36  13  37  13  38  13
M  ISO  5  39  13  40  13  41  13  42  13  43  13
M  END
>  <minimizedAffinity>  (1) 
-5.08966064

>  <minimizedRMSD>  (1) 
2.75201464

$$$$
