
     RDKit          3D

 45 47  0  0  1  0  0  0  0  0999 V2000
   46.2150   33.6070   45.3360 C   0  0  2  0  0  0  0  0  0  0  0  0
   45.0060   34.6620   45.4940 C   0  0  0  0  0  0  0  0  0  0  0  0
   44.7750   35.5600   44.3910 C   0  0  0  0  0  0  0  0  0  0  0  0
   45.5830   35.4690   43.1850 C   0  0  1  0  0  0  0  0  0  0  0  0
   46.6870   34.5050   43.2070 C   0  0  0  0  0  0  0  0  0  0  0  0
   46.2300   33.2650   43.9650 C   0  0  0  0  0  0  0  0  0  0  0  0
   45.1900   32.8850   47.4840 C   0  0  0  0  0  0  0  0  0  0  0  0
   45.9860   32.6460   46.3750 C   0  0  0  0  0  0  0  0  0  0  0  0
   46.5180   31.3410   46.2470 C   0  0  0  0  0  0  0  0  0  0  0  0
   46.2230   30.4470   47.1830 N   0  0  0  0  0  0  0  0  0  0  0  0
   45.4440   30.6980   48.2590 C   0  0  0  0  0  0  0  0  0  0  0  0
   44.9270   31.9070   48.4170 N   0  0  0  0  0  0  0  0  0  0  0  0
   45.2270   29.6360   49.2060 N   0  0  0  0  0  0  0  0  0  0  0  0
   47.3900   30.7790   45.1900 C   0  0  0  0  0  0  0  0  0  0  0  0
   48.4690   29.8720   45.6690 C   0  0  0  0  0  0  0  0  0  0  0  0
   48.9140   28.8320   44.6570 C   0  0  0  0  0  0  0  0  0  0  0  0
   48.7770   29.4840   43.2890 C   0  0  0  0  0  0  0  0  0  0  0  0
   47.2600   29.4660   43.0530 C   0  0  0  0  0  0  0  0  0  0  0  0
   46.5540   29.7450   44.3420 C   0  0  0  0  0  0  0  0  0  0  0  0
   44.6180   35.1320   42.0190 C   0  0  0  0  0  0  0  0  0  0  0  0
   43.6390   34.2270   42.3780 F   0  0  0  0  0  0  0  0  0  0  0  0
   43.9590   36.3160   41.7000 F   0  0  0  0  0  0  0  0  0  0  0  0
   45.3350   34.7460   40.9030 F   0  0  0  0  0  0  0  0  0  0  0  0
   47.2594   33.9067   45.5074 H   0  0  0  0  0  0  0  0  0  0  0  0
   44.3860   34.6947   46.4021 H   0  0  0  0  0  0  0  0  0  0  0  0
   43.9823   36.3194   44.4615 H   0  0  0  0  0  0  0  0  0  0  0  0
   46.0900   36.4390   43.0749 H   0  0  0  0  0  0  0  0  0  0  0  0
   46.9609   34.2308   42.1775 H   0  0  0  0  0  0  0  0  0  0  0  0
   47.5643   34.9474   43.7016 H   0  0  0  0  0  0  0  0  0  0  0  0
   45.2221   32.9707   43.6371 H   0  0  0  0  0  0  0  0  0  0  0  0
   46.9046   32.4167   43.7772 H   0  0  0  0  0  0  0  0  0  0  0  0
   44.7553   33.8858   47.6231 H   0  0  0  0  0  0  0  0  0  0  0  0
   44.6381   29.7979   50.0354 H   0  0  0  0  0  0  0  0  0  0  0  0
   45.6606   28.7141   49.0543 H   0  0  0  0  0  0  0  0  0  0  0  0
   47.7879   31.6730   44.6875 H   0  0  0  0  0  0  0  0  0  0  0  0
   49.3413   30.4869   45.9356 H   0  0  0  0  0  0  0  0  0  0  0  0
   48.0547   29.3182   46.5244 H   0  0  0  0  0  0  0  0  0  0  0  0
   49.9602   28.5455   44.8397 H   0  0  0  0  0  0  0  0  0  0  0  0
   48.3058   27.9182   44.7279 H   0  0  0  0  0  0  0  0  0  0  0  0
   49.1639   30.5137   43.3005 H   0  0  0  0  0  0  0  0  0  0  0  0
   49.3460   28.9676   42.5019 H   0  0  0  0  0  0  0  0  0  0  0  0
   46.9942   30.2367   42.3145 H   0  0  0  0  0  0  0  0  0  0  0  0
   46.9584   28.4781   42.6749 H   0  0  0  0  0  0  0  0  0  0  0  0
   45.5590   30.1640   44.1312 H   0  0  0  0  0  0  0  0  0  0  0  0
   46.4466   28.8090   44.9098 H   0  0  0  0  0  0  0  0  0  0  0  0
  1  2  1  0
  1  8  1  0
  3  2  2  0
  4  5  1  0
  4  3  1  0
  5  6  1  0
  6  1  1  0
  7 12  2  0
  8  7  1  0
  9  8  2  0
  9 10  1  0
 10 11  2  0
 11 12  1  0
 11 13  1  0
 14 15  1  0
 14  9  1  0
 16 15  1  0
 17 16  1  0
 18 17  1  0
 18 19  1  0
 19 14  1  0
 20 21  1  0
 20  4  1  0
 22 20  1  0
 23 20  1  0
  1 24  1  1
  2 25  1  0
  3 26  1  0
  4 27  1  6
  5 28  1  0
  5 29  1  0
  6 30  1  0
  6 31  1  0
  7 32  1  0
 13 33  1  0
 13 34  1  0
 14 35  1  0
 15 36  1  0
 15 37  1  0
 16 38  1  0
 16 39  1  0
 17 40  1  0
 17 41  1  0
 18 42  1  0
 18 43  1  0
 19 44  1  0
 19 45  1  0
M  ISO  8  24  13  25  13  26  13  27  13  28  13  29  13  30  13  31  13
M  ISO  8  32  14  35  13  36  13  37  13  38  13  39  13  40  13  41  13
M  ISO  4  42  13  43  13  44  13  45  13
M  END
>  <minimizedAffinity>  (1) 
-5.81098175

>  <minimizedRMSD>  (1) 
0.329487622

$$$$
