
     RDKit          3D

 38 40  0  0  1  0  0  0  0  0999 V2000
   46.4220   32.7200   47.7810 N   0  0  0  0  0  0  0  0  0  0  0  0
   46.0080   32.2950   49.1000 C   0  0  0  0  0  0  0  0  0  0  0  0
   44.8400   31.3940   48.7460 C   0  0  0  0  0  0  0  0  0  0  0  0
   45.3050   30.6240   47.5580 C   0  0  0  0  0  0  0  0  0  0  0  0
   46.2780   31.6560   46.9010 C   0  0  2  0  0  0  0  0  0  0  0  0
   47.5070   30.8060   46.6040 C   0  0  0  0  0  0  0  0  0  0  0  0
   47.4830   30.0150   45.3660 C   0  0  0  0  0  0  0  0  0  0  0  0
   48.7630   29.1720   45.5560 C   0  0  0  0  0  0  0  0  0  0  0  0
   48.9600   29.0790   47.0550 C   0  0  0  0  0  0  0  0  0  0  0  0
   47.7070   29.7150   47.6310 C   0  0  0  0  0  0  0  0  0  0  0  0
   45.9000   32.0590   45.6460 O   0  0  0  0  0  0  0  0  0  0  0  0
   45.8230   33.4340   45.2390 C   0  0  0  0  0  0  0  0  0  0  0  0
   45.0970   34.2140   45.8800 O   0  0  0  0  0  0  0  0  0  0  0  0
   48.5510   33.6370   42.8310 C   0  0  0  0  0  0  0  0  0  0  0  0
   48.1530   34.6640   41.9560 C   0  0  0  0  0  0  0  0  0  0  0  0
   46.9220   35.2730   42.1980 C   0  0  0  0  0  0  0  0  0  0  0  0
   46.1820   34.8340   43.2680 N   0  0  0  0  0  0  0  0  0  0  0  0
   46.6330   33.8290   44.0800 C   0  0  0  0  0  0  0  0  0  0  0  0
   47.7910   33.2420   43.8670 N   0  0  0  0  0  0  0  0  0  0  0  0
   45.8346   33.5073   47.4710 H   0  0  0  0  0  0  0  0  0  0  0  0
   46.8056   31.7416   49.6174 H   0  0  0  0  0  0  0  0  0  0  0  0
   45.7614   33.1156   49.7897 H   0  0  0  0  0  0  0  0  0  0  0  0
   44.6055   30.7165   49.5803 H   0  0  0  0  0  0  0  0  0  0  0  0
   43.9216   31.9634   48.5404 H   0  0  0  0  0  0  0  0  0  0  0  0
   45.8302   29.7035   47.8527 H   0  0  0  0  0  0  0  0  0  0  0  0
   44.4976   30.2754   46.8972 H   0  0  0  0  0  0  0  0  0  0  0  0
   48.2780   31.5898   46.5685 H   0  0  0  0  0  0  0  0  0  0  0  0
   47.5448   30.6541   44.4728 H   0  0  0  0  0  0  0  0  0  0  0  0
   46.5644   29.4305   45.2094 H   0  0  0  0  0  0  0  0  0  0  0  0
   48.6327   28.1699   45.1214 H   0  0  0  0  0  0  0  0  0  0  0  0
   49.6312   29.6251   45.0551 H   0  0  0  0  0  0  0  0  0  0  0  0
   49.0475   28.0297   47.3734 H   0  0  0  0  0  0  0  0  0  0  0  0
   49.8808   29.5772   47.3925 H   0  0  0  0  0  0  0  0  0  0  0  0
   47.8763   30.1222   48.6387 H   0  0  0  0  0  0  0  0  0  0  0  0
   46.8534   29.0363   47.7748 H   0  0  0  0  0  0  0  0  0  0  0  0
   49.5176   33.1400   42.6616 H   0  0  0  0  0  0  0  0  0  0  0  0
   48.7882   34.9747   41.1134 H   0  0  0  0  0  0  0  0  0  0  0  0
   46.5543   36.0822   41.5500 H   0  0  0  0  0  0  0  0  0  0  0  0
  1  2  1  0
  3  2  1  0
  4  3  1  0
  5 11  1  6
  5  4  1  0
  5  1  1  0
  6  5  1  0
  6 10  1  0
  7  8  1  0
  7  6  1  0
  8  9  1  0
  9 10  1  0
 12 11  1  0
 12 13  2  0
 14 19  2  0
 15 16  2  0
 15 14  1  0
 16 17  1  0
 17 18  2  0
 18 12  1  0
 19 18  1  0
  1 20  1  0
  2 21  1  0
  2 22  1  0
  3 23  1  0
  3 24  1  0
  4 25  1  0
  4 26  1  0
  6 27  1  0
  7 28  1  0
  7 29  1  0
  8 30  1  0
  8 31  1  0
  9 32  1  0
  9 33  1  0
 10 34  1  0
 10 35  1  0
 14 36  1  0
 15 37  1  0
 16 38  1  0
M  ISO  8  20   5  21  13  22  13  23  13  24  13  25  13  26  13  27  13
M  ISO  8  28  13  29  13  30  13  31  13  32  13  33  13  34  13  35  13
M  ISO  3  36  14  37  14  38  14
M  END
>  <minimizedAffinity>  (1) 
-4.77477503

>  <minimizedRMSD>  (1) 
4.32568026

$$$$
