
     RDKit          3D

 30 32  0  0  0  0  0  0  0  0999 V2000
   45.7910   33.2450   46.3460 C   0  0  0  0  0  0  0  0  0  0  0  0
   45.1650   33.1300   47.5700 C   0  0  0  0  0  0  0  0  0  0  0  0
   45.5540   32.1450   48.4220 C   0  0  0  0  0  0  0  0  0  0  0  0
   46.5810   31.3170   47.9650 C   0  0  0  0  0  0  0  0  0  0  0  0
   46.9900   31.9380   46.3320 S   0  0  0  0  0  0  0  0  0  0  0  0
   44.4950   36.0830   44.4260 C   0  0  0  0  0  0  0  0  0  0  0  0
   45.2110   35.9190   43.2040 C   0  0  0  0  0  0  0  0  0  0  0  0
   46.1100   34.8550   43.0670 C   0  0  0  0  0  0  0  0  0  0  0  0
   46.2480   34.0250   44.1310 N   0  0  0  0  0  0  0  0  0  0  0  0
   45.5610   34.1960   45.2770 C   0  0  0  0  0  0  0  0  0  0  0  0
   44.6900   35.2160   45.4290 N   0  0  0  0  0  0  0  0  0  0  0  0
   47.2820   30.1630   48.5620 C   0  0  0  0  0  0  0  0  0  0  0  0
   47.8030   29.1670   47.5890 C   0  0  0  0  0  0  0  0  0  0  0  0
   49.2010   29.5670   47.2880 C   0  0  0  0  0  0  0  0  0  0  0  0
   49.7050   30.1520   48.5750 C   0  0  0  0  0  0  0  0  0  0  0  0
   48.4880   30.6760   49.2960 C   0  0  0  0  0  0  0  0  0  0  0  0
   44.3617   33.8263   47.8527 H   0  0  0  0  0  0  0  0  0  0  0  0
   45.0889   32.0088   49.4095 H   0  0  0  0  0  0  0  0  0  0  0  0
   43.7868   36.9162   44.5447 H   0  0  0  0  0  0  0  0  0  0  0  0
   45.0578   36.6244   42.3739 H   0  0  0  0  0  0  0  0  0  0  0  0
   46.6789   34.6989   42.1385 H   0  0  0  0  0  0  0  0  0  0  0  0
   46.5323   29.6622   49.1921 H   0  0  0  0  0  0  0  0  0  0  0  0
   47.7819   28.1588   48.0284 H   0  0  0  0  0  0  0  0  0  0  0  0
   47.1897   29.1426   46.6761 H   0  0  0  0  0  0  0  0  0  0  0  0
   49.8019   28.6933   46.9955 H   0  0  0  0  0  0  0  0  0  0  0  0
   49.2637   30.2775   46.4506 H   0  0  0  0  0  0  0  0  0  0  0  0
   50.2031   29.3783   49.1777 H   0  0  0  0  0  0  0  0  0  0  0  0
   50.4418   30.9487   48.3951 H   0  0  0  0  0  0  0  0  0  0  0  0
   48.4920   31.7760   49.2919 H   0  0  0  0  0  0  0  0  0  0  0  0
   48.4798   30.3402   50.3434 H   0  0  0  0  0  0  0  0  0  0  0  0
  1  2  2  0
  2  3  1  0
  4  3  2  0
  4 12  1  0
  5  1  1  0
  5  4  1  0
  6 11  2  0
  7  6  1  0
  8  7  2  0
  8  9  1  0
  9 10  2  0
 10 11  1  0
 10  1  1  0
 12 16  1  0
 13 12  1  0
 14 13  1  0
 14 15  1  0
 15 16  1  0
  2 17  1  0
  3 18  1  0
  6 19  1  0
  7 20  1  0
  8 21  1  0
 12 22  1  0
 13 23  1  0
 13 24  1  0
 14 25  1  0
 14 26  1  0
 15 27  1  0
 15 28  1  0
 16 29  1  0
 16 30  1  0
M  ISO  8  17  14  18  14  19  14  20  14  21  14  22  13  23  13  24  13
M  ISO  6  25  13  26  13  27  13  28  13  29  13  30  13
M  END
>  <minimizedAffinity>  (1) 
-4.84058428

>  <minimizedRMSD>  (1) 
0.851726115

$$$$
