
     RDKit          3D

 40 43  0  0  0  0  0  0  0  0999 V2000
   46.9750   34.7370   42.0050 C   0  0  0  0  0  0  0  0  0  0  0  0
   48.2200   35.2990   41.7660 C   0  0  0  0  0  0  0  0  0  0  0  0
   48.4860   34.9400   40.4460 C   0  0  0  0  0  0  0  0  0  0  0  0
   47.4030   34.1950   39.9730 C   0  0  0  0  0  0  0  0  0  0  0  0
   46.5200   34.1030   40.9520 O   0  0  0  0  0  0  0  0  0  0  0  0
   47.2780   33.6380   38.6720 N   0  0  0  0  0  0  0  0  0  0  0  0
   46.4350   32.6030   38.4940 C   0  0  0  0  0  0  0  0  0  0  0  0
   46.2810   32.0280   37.2520 C   0  0  0  0  0  0  0  0  0  0  0  0
   47.0040   32.5290   36.1950 C   0  0  0  0  0  0  0  0  0  0  0  0
   46.8420   31.9780   35.0700 O   0  0  0  0  0  0  0  0  0  0  0  0
   47.8310   33.5620   36.4250 N   0  0  0  0  0  0  0  0  0  0  0  0
   47.9700   34.1150   37.6550 C   0  0  0  0  0  0  0  0  0  0  0  0
   48.7620   35.0820   37.7940 O   0  0  0  0  0  0  0  0  0  0  0  0
   45.3140   30.8880   37.1720 C   0  0  0  0  0  0  0  0  0  0  0  0
   44.5460   35.8130   44.6070 C   0  0  0  0  0  0  0  0  0  0  0  0
   45.2630   35.7920   43.3710 C   0  0  0  0  0  0  0  0  0  0  0  0
   46.2140   34.8070   43.2440 C   0  0  0  0  0  0  0  0  0  0  0  0
   46.4070   33.9450   44.2610 N   0  0  0  0  0  0  0  0  0  0  0  0
   45.7030   33.9940   45.4280 C   0  0  0  0  0  0  0  0  0  0  0  0
   44.7720   34.9380   45.5860 N   0  0  0  0  0  0  0  0  0  0  0  0
   45.9870   33.0140   46.4710 C   0  0  0  0  0  0  0  0  0  0  0  0
   47.0430   32.1440   46.2870 C   0  0  0  0  0  0  0  0  0  0  0  0
   47.2820   31.2310   47.2930 C   0  0  0  0  0  0  0  0  0  0  0  0
   46.4980   31.2040   48.4150 C   0  0  0  0  0  0  0  0  0  0  0  0
   45.4270   32.0730   48.6190 C   0  0  0  0  0  0  0  0  0  0  0  0
   45.1980   32.9830   47.6030 C   0  0  0  0  0  0  0  0  0  0  0  0
   48.8467   35.8867   42.4529 H   0  0  0  0  0  0  0  0  0  0  0  0
   49.3907   35.1982   39.8760 H   0  0  0  0  0  0  0  0  0  0  0  0
   45.8636   32.2129   39.3492 H   0  0  0  0  0  0  0  0  0  0  0  0
   48.3775   33.9467   35.6412 H   0  0  0  0  0  0  0  0  0  0  0  0
   45.0413   30.5665   38.1880 H   0  0  0  0  0  0  0  0  0  0  0  0
   44.4102   31.2109   36.6346 H   0  0  0  0  0  0  0  0  0  0  0  0
   45.7800   30.0489   36.6346 H   0  0  0  0  0  0  0  0  0  0  0  0
   43.7754   36.5837   44.7563 H   0  0  0  0  0  0  0  0  0  0  0  0
   45.0661   36.5196   42.5699 H   0  0  0  0  0  0  0  0  0  0  0  0
   47.6649   32.1773   45.3803 H   0  0  0  0  0  0  0  0  0  0  0  0
   48.1122   30.5163   47.1926 H   0  0  0  0  0  0  0  0  0  0  0  0
   46.7241   30.4605   49.1935 H   0  0  0  0  0  0  0  0  0  0  0  0
   44.8063   32.0373   49.5264 H   0  0  0  0  0  0  0  0  0  0  0  0
   44.3680   33.6984   47.6993 H   0  0  0  0  0  0  0  0  0  0  0  0
  1 17  1  0
  2  1  2  0
  3  2  1  0
  4  3  2  0
  4  5  1  0
  5  1  1  0
  6  4  1  0
  7  6  1  0
  8  7  2  0
  9 11  1  0
  9  8  1  0
 10  9  2  0
 11 12  1  0
 12 13  2  0
 12  6  1  0
 14  8  1  0
 15 20  2  0
 16 15  1  0
 17 16  2  0
 17 18  1  0
 18 19  2  0
 19 20  1  0
 19 21  1  0
 21 26  1  0
 22 21  2  0
 22 23  1  0
 23 24  2  0
 24 25  1  0
 26 25  2  0
  2 27  1  0
  3 28  1  0
  7 29  1  0
 11 30  1  0
 14 31  1  0
 14 32  1  0
 14 33  1  0
 15 34  1  0
 16 35  1  0
 22 36  1  0
 23 37  1  0
 24 38  1  0
 25 39  1  0
 26 40  1  0
M  END
>  <minimizedAffinity>  (1) 
-7.61635923

>  <minimizedRMSD>  (1) 
0.310342759

$$$$
