
     RDKit          3D

 45 48  0  0  1  0  0  0  0  0999 V2000
   46.7230   34.0580   42.6600 N   0  0  0  0  0  0  0  0  0  0  0  0
   48.0430   34.5110   42.2240 C   0  0  0  0  0  0  0  0  0  0  0  0
   47.7530   34.8290   40.7740 C   0  0  0  0  0  0  0  0  0  0  0  0
   47.0490   33.5640   40.3610 C   0  0  0  0  0  0  0  0  0  0  0  0
   46.1960   33.2560   41.5450 C   0  0  2  0  0  0  0  0  0  0  0  0
   44.7960   33.3680   41.3660 N   0  0  0  0  0  0  0  0  0  0  0  0
   44.1330   34.2790   40.6480 C   0  0  0  0  0  0  0  0  0  0  0  0
   42.7540   34.3000   40.5360 C   0  0  0  0  0  0  0  0  0  0  0  0
   42.0120   33.3400   41.1920 C   0  0  0  0  0  0  0  0  0  0  0  0
   40.7260   33.3100   41.1240 O   0  0  0  0  0  0  0  0  0  0  0  0
   42.6710   32.4270   41.9110 N   0  0  0  0  0  0  0  0  0  0  0  0
   43.9960   32.4510   41.9850 C   0  0  0  0  0  0  0  0  0  0  0  0
   44.5300   31.5390   42.6940 O   0  0  0  0  0  0  0  0  0  0  0  0
   42.0510   35.3180   39.7370 C   0  0  0  0  0  0  0  0  0  0  0  0
   44.5220   35.5450   45.2510 C   0  0  0  0  0  0  0  0  0  0  0  0
   45.1600   35.3660   44.0110 C   0  0  0  0  0  0  0  0  0  0  0  0
   46.0550   34.3000   43.8570 C   0  0  0  0  0  0  0  0  0  0  0  0
   46.2510   33.4950   44.9390 N   0  0  0  0  0  0  0  0  0  0  0  0
   45.6360   33.6730   46.1250 C   0  0  0  0  0  0  0  0  0  0  0  0
   44.7760   34.6980   46.2710 N   0  0  0  0  0  0  0  0  0  0  0  0
   45.9170   32.7510   47.2230 C   0  0  0  0  0  0  0  0  0  0  0  0
   44.8760   32.3070   48.0170 C   0  0  0  0  0  0  0  0  0  0  0  0
   45.1960   31.4380   49.0400 C   0  0  0  0  0  0  0  0  0  0  0  0
   46.5020   31.0420   49.2440 C   0  0  0  0  0  0  0  0  0  0  0  0
   47.5540   31.4840   48.4490 C   0  0  0  0  0  0  0  0  0  0  0  0
   47.2270   32.3610   47.4180 C   0  0  0  0  0  0  0  0  0  0  0  0
   48.3712   35.4025   42.7786 H   0  0  0  0  0  0  0  0  0  0  0  0
   48.8549   33.7861   42.3834 H   0  0  0  0  0  0  0  0  0  0  0  0
   47.1019   35.7097   40.6722 H   0  0  0  0  0  0  0  0  0  0  0  0
   48.6372   35.0836   40.1711 H   0  0  0  0  0  0  0  0  0  0  0  0
   46.4353   33.7277   39.4629 H   0  0  0  0  0  0  0  0  0  0  0  0
   47.7390   32.7485   40.0987 H   0  0  0  0  0  0  0  0  0  0  0  0
   46.2720   32.1790   41.7555 H   0  0  0  0  0  0  0  0  0  0  0  0
   44.7121   35.0507   40.1197 H   0  0  0  0  0  0  0  0  0  0  0  0
   42.1455   31.6971   42.4130 H   0  0  0  0  0  0  0  0  0  0  0  0
   41.5563   36.0344   40.4093 H   0  0  0  0  0  0  0  0  0  0  0  0
   42.7749   35.8503   39.1025 H   0  0  0  0  0  0  0  0  0  0  0  0
   41.2968   34.8296   39.1025 H   0  0  0  0  0  0  0  0  0  0  0  0
   43.8151   36.3762   45.3902 H   0  0  0  0  0  0  0  0  0  0  0  0
   44.9593   36.0523   43.1751 H   0  0  0  0  0  0  0  0  0  0  0  0
   43.8398   32.6317   47.8413 H   0  0  0  0  0  0  0  0  0  0  0  0
   44.4022   31.0572   49.6994 H   0  0  0  0  0  0  0  0  0  0  0  0
   46.7200   30.3482   50.0693 H   0  0  0  0  0  0  0  0  0  0  0  0
   48.5897   31.1580   48.6253 H   0  0  0  0  0  0  0  0  0  0  0  0
   48.0166   32.7451   46.7554 H   0  0  0  0  0  0  0  0  0  0  0  0
  1 17  1  0
  2  1  1  0
  3  2  1  0
  4  3  1  0
  4  5  1  0
  5  1  1  0
  6  5  1  0
  6 12  1  0
  7  6  1  0
  8  7  2  0
  8  9  1  0
  9 11  1  0
 10  9  2  0
 11 12  1  0
 12 13  2  0
 14  8  1  0
 15 20  2  0
 16 15  1  0
 17 16  2  0
 17 18  1  0
 18 19  2  0
 19 20  1  0
 19 21  1  0
 21 26  1  0
 21 22  2  0
 22 23  1  0
 23 24  2  0
 25 24  1  0
 26 25  2  0
  2 27  1  0
  2 28  1  0
  3 29  1  0
  3 30  1  0
  4 31  1  0
  4 32  1  0
  5 33  1  1
  7 34  1  0
 11 35  1  0
 14 36  1  0
 14 37  1  0
 14 38  1  0
 15 39  1  0
 16 40  1  0
 22 41  1  0
 23 42  1  0
 24 43  1  0
 25 44  1  0
 26 45  1  0
M  END
>  <minimizedAffinity>  (1) 
-7.13474369

>  <minimizedRMSD>  (1) 
1.07852936

$$$$
