
     RDKit          3D

 45 47  0  0  1  0  0  0  0  0999 V2000
   47.0540   34.5250   40.8180 C   0  0  1  0  0  0  0  0  0  0  0  0
   48.3200   34.2730   39.9740 C   0  0  0  0  0  0  0  0  0  0  0  0
   47.8700   34.1900   38.5380 C   0  0  0  0  0  0  0  0  0  0  0  0
   47.0010   32.9840   38.3450 C   0  0  0  0  0  0  0  0  0  0  0  0
   46.6560   32.3410   39.6570 C   0  0  0  0  0  0  0  0  0  0  0  0
   46.1600   33.3570   40.6900 C   0  0  2  0  0  0  0  0  0  0  0  0
   42.0950   34.1900   39.4720 C   0  0  0  0  0  0  0  0  0  0  0  0
   42.6980   32.9940   39.1490 C   0  0  0  0  0  0  0  0  0  0  0  0
   43.9880   32.7580   39.5430 C   0  0  0  0  0  0  0  0  0  0  0  0
   44.7660   33.6370   40.2580 C   0  0  0  0  0  0  0  0  0  0  0  0
   44.0950   34.8340   40.5550 C   0  0  0  0  0  0  0  0  0  0  0  0
   42.8010   35.1240   40.1840 C   0  0  0  0  0  0  0  0  0  0  0  0
   40.4590   34.5230   38.9880 S   0  0  0  0  0  0  0  0  0  0  0  0
   39.7840   35.4510   39.9610 O   0  0  0  0  0  0  0  0  0  0  0  0
   40.4210   35.1370   37.6300 O   0  0  0  0  0  0  0  0  0  0  0  0
   47.5090   34.7730   42.2690 C   0  0  0  0  0  0  0  0  0  0  0  0
   46.9580   33.6270   43.0740 C   0  0  0  0  0  0  0  0  0  0  0  0
   46.1120   33.4390   45.3510 C   0  0  0  0  0  0  0  0  0  0  0  0
   46.1160   34.1250   44.1220 C   0  0  0  0  0  0  0  0  0  0  0  0
   45.3080   35.2250   43.9620 C   0  0  0  0  0  0  0  0  0  0  0  0
   44.5320   35.5980   45.0250 N   0  0  0  0  0  0  0  0  0  0  0  0
   44.5340   34.9320   46.2050 C   0  0  0  0  0  0  0  0  0  0  0  0
   45.3290   33.8460   46.3660 N   0  0  0  0  0  0  0  0  0  0  0  0
   46.4881   35.4044   40.4769 H   0  0  0  0  0  0  0  0  0  0  0  0
   49.0323   35.1015   40.1013 H   0  0  0  0  0  0  0  0  0  0  0  0
   48.8269   33.3477   40.2852 H   0  0  0  0  0  0  0  0  0  0  0  0
   47.3001   35.0952   38.2814 H   0  0  0  0  0  0  0  0  0  0  0  0
   48.7522   34.1090   37.8860 H   0  0  0  0  0  0  0  0  0  0  0  0
   46.0721   33.2893   37.8410 H   0  0  0  0  0  0  0  0  0  0  0  0
   47.5537   32.2532   37.7364 H   0  0  0  0  0  0  0  0  0  0  0  0
   45.8663   31.5942   39.4880 H   0  0  0  0  0  0  0  0  0  0  0  0
   47.5703   31.8762   40.0545 H   0  0  0  0  0  0  0  0  0  0  0  0
   46.1702   32.9846   41.7250 H   0  0  0  0  0  0  0  0  0  0  0  0
   42.1462   32.2329   38.5778 H   0  0  0  0  0  0  0  0  0  0  0  0
   44.4355   31.7919   39.2664 H   0  0  0  0  0  0  0  0  0  0  0  0
   44.6438   35.5969   41.1266 H   0  0  0  0  0  0  0  0  0  0  0  0
   42.3429   36.0869   40.4540 H   0  0  0  0  0  0  0  0  0  0  0  0
   39.7916   33.3267   38.9676 H   0  0  0  0  0  0  0  0  0  0  0  0
   48.6073   34.7895   42.3284 H   0  0  0  0  0  0  0  0  0  0  0  0
   47.1492   35.7418   42.6457 H   0  0  0  0  0  0  0  0  0  0  0  0
   46.3709   32.9689   42.4166 H   0  0  0  0  0  0  0  0  0  0  0  0
   47.7918   33.0631   43.5175 H   0  0  0  0  0  0  0  0  0  0  0  0
   46.7578   32.5584   45.4831 H   0  0  0  0  0  0  0  0  0  0  0  0
   45.2861   35.7843   43.0151 H   0  0  0  0  0  0  0  0  0  0  0  0
   43.8917   35.2720   47.0307 H   0  0  0  0  0  0  0  0  0  0  0  0
  1 16  1  0
  2  1  1  0
  3  2  1  0
  4  3  1  0
  4  5  1  0
  5  6  1  0
  6  1  1  0
  7 12  2  0
  8  7  1  0
  8  9  2  0
  9 10  1  0
 10 11  2  0
 10  6  1  0
 12 11  1  0
 13  7  1  0
 13 14  2  0
 15 13  2  0
 16 17  1  0
 17 19  1  0
 18 23  2  0
 19 18  1  0
 20 19  2  0
 20 21  1  0
 21 22  2  0
 22 23  1  0
  1 24  1  6
  2 25  1  0
  2 26  1  0
  3 27  1  0
  3 28  1  0
  4 29  1  0
  4 30  1  0
  5 31  1  0
  5 32  1  0
  6 33  1  1
  8 34  1  0
  9 35  1  0
 11 36  1  0
 12 37  1  0
 13 38  1  0
 16 39  1  0
 16 40  1  0
 17 41  1  0
 17 42  1  0
 18 43  1  0
 20 44  1  0
 22 45  1  0
M  ISO  8  24  13  25  13  26  13  27  13  28  13  29  13  30  13  31  13
M  ISO  8  32  13  33  13  34  14  35  14  36  14  37  14  38  11  39   8
M  ISO  6  40   8  41   8  42   8  43  14  44  14  45  14
M  END
>  <minimizedAffinity>  (1) 
-5.38711977

>  <minimizedRMSD>  (1) 
3.18067002

$$$$
