
     RDKit          3D

 38 41  0  0  0  0  0  0  0  0999 V2000
   45.2130   33.5900   41.0140 C   0  0  0  0  0  0  0  0  0  0  0  0
   45.0090   33.0690   42.3120 C   0  0  0  0  0  0  0  0  0  0  0  0
   46.0270   33.2900   43.2370 C   0  0  0  0  0  0  0  0  0  0  0  0
   47.1240   33.9800   42.8280 N   0  0  0  0  0  0  0  0  0  0  0  0
   47.2860   34.4590   41.5940 C   0  0  0  0  0  0  0  0  0  0  0  0
   46.3300   34.2640   40.6880 N   0  0  0  0  0  0  0  0  0  0  0  0
   45.8150   31.8090   47.2330 C   0  0  0  0  0  0  0  0  0  0  0  0
   45.6280   33.1710   46.9970 C   0  0  0  0  0  0  0  0  0  0  0  0
   45.7030   33.6170   45.6970 C   0  0  0  0  0  0  0  0  0  0  0  0
   45.9490   32.8080   44.6090 C   0  0  0  0  0  0  0  0  0  0  0  0
   46.1300   31.4680   44.8730 C   0  0  0  0  0  0  0  0  0  0  0  0
   46.0650   30.9670   46.1520 C   0  0  0  0  0  0  0  0  0  0  0  0
   45.7150   31.2610   48.8990 S   0  0  0  0  0  0  0  0  0  0  0  0
   47.1090   31.0080   49.4490 O   0  0  0  0  0  0  0  0  0  0  0  0
   44.9090   29.9930   48.9050 O   0  0  0  0  0  0  0  0  0  0  0  0
   48.5210   35.2010   41.2380 C   0  0  0  0  0  0  0  0  0  0  0  0
   48.5480   35.3790   39.8510 F   0  0  0  0  0  0  0  0  0  0  0  0
   49.6350   34.4320   41.5350 F   0  0  0  0  0  0  0  0  0  0  0  0
   48.6650   36.4010   41.8960 F   0  0  0  0  0  0  0  0  0  0  0  0
   43.9360   33.3450   39.7630 S   0  0  0  0  0  0  0  0  0  0  0  0
   39.6810   32.9830   42.2240 N   0  0  0  0  0  0  0  0  0  0  0  0
   40.3320   31.8040   42.1810 C   0  0  0  0  0  0  0  0  0  0  0  0
   41.4790   32.0330   41.4820 N   0  0  0  0  0  0  0  0  0  0  0  0
   41.4790   33.3170   41.1350 C   0  0  0  0  0  0  0  0  0  0  0  0
   42.4220   34.0160   40.4230 C   0  0  0  0  0  0  0  0  0  0  0  0
   42.2560   35.3380   40.1580 N   0  0  0  0  0  0  0  0  0  0  0  0
   41.1240   35.9150   40.6310 C   0  0  0  0  0  0  0  0  0  0  0  0
   40.1970   35.2330   41.3310 N   0  0  0  0  0  0  0  0  0  0  0  0
   40.3630   33.9350   41.5880 C   0  0  0  0  0  0  0  0  0  0  0  0
   44.0947   32.5181   42.5777 H   0  0  0  0  0  0  0  0  0  0  0  0
   45.4268   33.8673   47.8245 H   0  0  0  0  0  0  0  0  0  0  0  0
   45.5567   34.6918   45.5143 H   0  0  0  0  0  0  0  0  0  0  0  0
   46.3319   30.7805   44.0384 H   0  0  0  0  0  0  0  0  0  0  0  0
   46.2119   29.8904   46.3231 H   0  0  0  0  0  0  0  0  0  0  0  0
   45.1209   32.2090   49.6897 H   0  0  0  0  0  0  0  0  0  0  0  0
   38.7734   33.1295   42.6885 H   0  0  0  0  0  0  0  0  0  0  0  0
   40.0041   30.8505   42.6208 H   0  0  0  0  0  0  0  0  0  0  0  0
   40.9556   36.9842   40.4350 H   0  0  0  0  0  0  0  0  0  0  0  0
  1  2  2  0
  2  3  1  0
  3 10  1  0
  4  3  2  0
  5  4  1  0
  6  1  1  0
  6  5  2  0
  7 13  1  0
  8  7  2  0
  9  8  1  0
 10 11  1  0
 10  9  2  0
 11 12  2  0
 12  7  1  0
 13 15  2  0
 13 14  2  0
 16 18  1  0
 16  5  1  0
 16 19  1  0
 17 16  1  0
 20 25  1  0
 20  1  1  0
 22 21  1  0
 23 22  2  0
 24 23  1  0
 24 29  2  0
 25 24  1  0
 26 25  2  0
 26 27  1  0
 27 28  2  0
 28 29  1  0
 29 21  1  0
  2 30  1  0
  8 31  1  0
  9 32  1  0
 11 33  1  0
 12 34  1  0
 13 35  1  0
 21 36  1  0
 22 37  1  0
 27 38  1  0
M  END
>  <minimizedAffinity>  (1) 
-7.14895391

>  <minimizedRMSD>  (1) 
1.81913495

$$$$
