
     RDKit          3D

 30 32  0  0  0  0  0  0  0  0999 V2000
   44.0060   34.1640   41.4820 N   0  0  0  0  0  0  0  0  0  0  0  0
   44.6980   33.8160   40.4200 C   0  0  0  0  0  0  0  0  0  0  0  0
   43.8280   33.9080   39.3060 C   0  0  0  0  0  0  0  0  0  0  0  0
   42.6220   34.3120   39.7410 N   0  0  0  0  0  0  0  0  0  0  0  0
   42.7320   34.4680   41.0700 C   0  0  0  0  0  0  0  0  0  0  0  0
   44.1730   35.5420   43.4340 C   0  0  0  0  0  0  0  0  0  0  0  0
   44.4130   34.2750   42.8020 C   0  0  0  0  0  0  0  0  0  0  0  0
   45.0300   33.3400   43.5840 C   0  0  0  0  0  0  0  0  0  0  0  0
   45.3840   33.6080   44.8620 N   0  0  0  0  0  0  0  0  0  0  0  0
   45.1360   34.8280   45.4200 C   0  0  0  0  0  0  0  0  0  0  0  0
   44.5310   35.7840   44.6970 N   0  0  0  0  0  0  0  0  0  0  0  0
   48.5320   32.2280   39.4190 C   0  0  0  0  0  0  0  0  0  0  0  0
   47.4130   31.4260   39.3710 C   0  0  0  0  0  0  0  0  0  0  0  0
   46.2260   32.0810   39.7060 C   0  0  0  0  0  0  0  0  0  0  0  0
   46.0390   33.4290   40.0760 C   0  0  0  0  0  0  0  0  0  0  0  0
   47.2460   34.0870   40.0760 C   0  0  0  0  0  0  0  0  0  0  0  0
   48.4690   33.5530   39.7670 C   0  0  0  0  0  0  0  0  0  0  0  0
   50.0830   31.5260   39.0200 S   0  0  0  0  0  0  0  0  0  0  0  0
   51.0550   31.7530   40.1320 O   0  0  0  0  0  0  0  0  0  0  0  0
   50.5570   32.0670   37.7000 O   0  0  0  0  0  0  0  0  0  0  0  0
   44.0942   33.6864   38.2619 H   0  0  0  0  0  0  0  0  0  0  0  0
   41.9176   34.7930   41.7341 H   0  0  0  0  0  0  0  0  0  0  0  0
   43.6783   36.3386   42.8589 H   0  0  0  0  0  0  0  0  0  0  0  0
   45.2440   32.3458   43.1647 H   0  0  0  0  0  0  0  0  0  0  0  0
   45.4312   35.0281   46.4606 H   0  0  0  0  0  0  0  0  0  0  0  0
   47.4511   30.3624   39.0930 H   0  0  0  0  0  0  0  0  0  0  0  0
   45.3161   31.4636   39.6775 H   0  0  0  0  0  0  0  0  0  0  0  0
   47.2278   35.1515   40.3525 H   0  0  0  0  0  0  0  0  0  0  0  0
   49.3780   34.1716   39.7972 H   0  0  0  0  0  0  0  0  0  0  0  0
   49.9658   30.1682   38.8799 H   0  0  0  0  0  0  0  0  0  0  0  0
  1  7  1  0
  2  1  1  0
  3  4  1  0
  3  2  2  0
  4  5  2  0
  5  1  1  0
  6 11  2  0
  7  6  1  0
  7  8  2  0
  8  9  1  0
  9 10  2  0
 11 10  1  0
 12 17  2  0
 13 12  1  0
 13 14  2  0
 14 15  1  0
 15  2  1  0
 16 15  2  0
 17 16  1  0
 18 12  1  0
 18 19  2  0
 20 18  2  0
  3 21  1  0
  5 22  1  0
  6 23  1  0
  8 24  1  0
 10 25  1  0
 13 26  1  0
 14 27  1  0
 16 28  1  0
 17 29  1  0
 18 30  1  0
M  ISO  8  21  14  22  14  23  14  24  14  25  14  26  14  27  14  28  14
M  ISO  2  29  14  30  11
M  END
>  <minimizedAffinity>  (1) 
-4.22372198

>  <minimizedRMSD>  (1) 
1.82204771

$$$$
