
     RDKit          3D

 51 55  0  0  1  0  0  0  0  0999 V2000
   46.5590   33.4430   44.7970 C   0  0  2  0  0  0  0  0  0  0  0  0
   45.1720   34.0790   44.9160 C   0  0  0  0  0  0  0  0  0  0  0  0
   44.9010   35.1710   44.0150 C   0  0  0  0  0  0  0  0  0  0  0  0
   45.9040   35.6410   43.0440 C   0  0  0  0  0  0  0  0  0  0  0  0
   47.1750   34.9000   43.0170 C   0  0  1  0  0  0  0  0  0  0  0  0
   47.0500   33.4890   43.3900 C   0  0  0  0  0  0  0  0  0  0  0  0
   47.7620   34.9630   41.6550 C   0  0  0  0  0  0  0  0  0  0  0  0
   48.8720   35.7020   41.2520 C   0  0  0  0  0  0  0  0  0  0  0  0
   48.9970   35.4230   39.9510 N   0  0  0  0  0  0  0  0  0  0  0  0
   48.0540   34.5710   39.5130 C   0  0  0  0  0  0  0  0  0  0  0  0
   47.8700   34.0540   38.2280 C   0  0  0  0  0  0  0  0  0  0  0  0
   46.8120   33.1990   38.0990 C   0  0  0  0  0  0  0  0  0  0  0  0
   45.9560   32.8360   39.1250 C   0  0  0  0  0  0  0  0  0  0  0  0
   46.2210   33.4020   40.3630 C   0  0  0  0  0  0  0  0  0  0  0  0
   47.2560   34.2740   40.6110 C   0  0  0  0  0  0  0  0  0  0  0  0
   45.8790   31.8990   46.6240 C   0  0  0  0  0  0  0  0  0  0  0  0
   46.4840   32.0770   45.3790 C   0  0  0  0  0  0  0  0  0  0  0  0
   47.0300   30.9300   44.7130 C   0  0  0  0  0  0  0  0  0  0  0  0
   46.9280   29.7290   45.3330 N   0  0  0  0  0  0  0  0  0  0  0  0
   46.3360   29.5960   46.5360 C   0  0  0  0  0  0  0  0  0  0  0  0
   45.8230   30.6690   47.1620 N   0  0  0  0  0  0  0  0  0  0  0  0
   45.9630   25.8180   48.4390 C   0  0  0  0  0  0  0  0  0  0  0  0
   47.1680   26.2050   47.8850 C   0  0  0  0  0  0  0  0  0  0  0  0
   47.3240   27.4440   47.2510 C   0  0  0  0  0  0  0  0  0  0  0  0
   46.2380   28.2920   47.1830 C   0  0  0  0  0  0  0  0  0  0  0  0
   45.0550   27.8630   47.7490 C   0  0  0  0  0  0  0  0  0  0  0  0
   44.8560   26.6520   48.3830 C   0  0  0  0  0  0  0  0  0  0  0  0
   45.7970   24.2550   49.2290 S   0  0  0  0  0  0  0  0  0  0  0  0
   47.0420   23.4270   49.0750 O   0  0  0  0  0  0  0  0  0  0  0  0
   45.5740   24.4150   50.7020 O   0  0  0  0  0  0  0  0  0  0  0  0
   47.3111   34.0093   45.3658 H   0  0  0  0  0  0  0  0  0  0  0  0
   44.4277   33.7246   45.6443 H   0  0  0  0  0  0  0  0  0  0  0  0
   43.9196   35.6663   44.0535 H   0  0  0  0  0  0  0  0  0  0  0  0
   45.4565   35.5776   42.0411 H   0  0  0  0  0  0  0  0  0  0  0  0
   46.1639   36.6626   43.3583 H   0  0  0  0  0  0  0  0  0  0  0  0
   47.8184   35.3849   43.7660 H   0  0  0  0  0  0  0  0  0  0  0  0
   46.3328   32.9861   42.7246 H   0  0  0  0  0  0  0  0  0  0  0  0
   48.0184   32.9754   43.2990 H   0  0  0  0  0  0  0  0  0  0  0  0
   49.5017   36.3639   41.8646 H   0  0  0  0  0  0  0  0  0  0  0  0
   49.7347   35.8174   39.3501 H   0  0  0  0  0  0  0  0  0  0  0  0
   48.5265   34.3153   37.3849 H   0  0  0  0  0  0  0  0  0  0  0  0
   46.6263   32.7663   37.1049 H   0  0  0  0  0  0  0  0  0  0  0  0
   45.1175   32.1415   38.9678 H   0  0  0  0  0  0  0  0  0  0  0  0
   45.5605   33.1364   41.2016 H   0  0  0  0  0  0  0  0  0  0  0  0
   45.4514   32.7588   47.1606 H   0  0  0  0  0  0  0  0  0  0  0  0
   47.5160   31.0221   43.7305 H   0  0  0  0  0  0  0  0  0  0  0  0
   48.0280   25.5216   47.9434 H   0  0  0  0  0  0  0  0  0  0  0  0
   48.2918   27.7348   46.8165 H   0  0  0  0  0  0  0  0  0  0  0  0
   44.1944   28.5456   47.6902 H   0  0  0  0  0  0  0  0  0  0  0  0
   43.8848   26.3681   48.8145 H   0  0  0  0  0  0  0  0  0  0  0  0
   44.7275   23.6408   48.6326 H   0  0  0  0  0  0  0  0  0  0  0  0
  1  2  1  0
  1 17  1  0
  3  2  2  0
  4  3  1  0
  5  4  1  0
  5  6  1  0
  6  1  1  0
  7  5  1  0
  8  7  2  0
  9  8  1  0
 10  9  1  0
 10 15  2  0
 11 10  1  0
 12 11  2  0
 12 13  1  0
 13 14  2  0
 14 15  1  0
 15  7  1  0
 16 21  2  0
 17 16  1  0
 18 19  1  0
 18 17  2  0
 19 20  2  0
 20 21  1  0
 20 25  1  0
 22 28  1  0
 23 22  2  0
 24 23  1  0
 25 24  2  0
 25 26  1  0
 26 27  2  0
 27 22  1  0
 28 30  2  0
 29 28  2  0
  1 31  1  1
  2 32  1  0
  3 33  1  0
  4 34  1  0
  4 35  1  0
  5 36  1  1
  6 37  1  0
  6 38  1  0
  8 39  1  0
  9 40  1  0
 11 41  1  0
 12 42  1  0
 13 43  1  0
 14 44  1  0
 16 45  1  0
 18 46  1  0
 23 47  1  0
 24 48  1  0
 26 49  1  0
 27 50  1  0
 28 51  1  0
M  ISO  8  31  13  32  13  33  13  34  13  35  13  36  13  37  13  38  13
M  ISO  8  39  14  40   9  41  14  42  14  43  14  44  14  45  14  46  14
M  ISO  5  47  14  48  14  49  14  50  14  51  11
M  END
>  <minimizedAffinity>  (1) 
-6.91848421

>  <minimizedRMSD>  (1) 
1.66676831

$$$$
