
     RDKit          3D

 35 38  0  0  0  0  0  0  0  0999 V2000
   45.1760   35.2040   44.0710 C   0  0  0  0  0  0  0  0  0  0  0  0
   46.2650   34.8400   43.2680 C   0  0  0  0  0  0  0  0  0  0  0  0
   47.1230   33.8320   43.7560 C   0  0  0  0  0  0  0  0  0  0  0  0
   46.8310   33.2830   44.9770 N   0  0  0  0  0  0  0  0  0  0  0  0
   45.7630   33.6800   45.7070 C   0  0  0  0  0  0  0  0  0  0  0  0
   44.9310   34.6330   45.2680 N   0  0  0  0  0  0  0  0  0  0  0  0
   50.4770   32.3070   41.6540 C   0  0  0  0  0  0  0  0  0  0  0  0
   49.3250   31.5430   41.8660 C   0  0  0  0  0  0  0  0  0  0  0  0
   48.2390   32.0660   42.5590 C   0  0  0  0  0  0  0  0  0  0  0  0
   48.2750   33.3530   43.0520 C   0  0  0  0  0  0  0  0  0  0  0  0
   49.4070   34.1030   42.8420 C   0  0  0  0  0  0  0  0  0  0  0  0
   50.5100   33.6040   42.1520 C   0  0  0  0  0  0  0  0  0  0  0  0
   51.8330   31.6150   40.7730 S   0  0  0  0  0  0  0  0  0  0  0  0
   51.4150   31.4980   39.3340 O   0  0  0  0  0  0  0  0  0  0  0  0
   52.0940   30.2270   41.2950 O   0  0  0  0  0  0  0  0  0  0  0  0
   45.4790   32.8960   47.2830 S   0  0  0  0  0  0  0  0  0  0  0  0
   48.6970   29.5760   48.8280 N   0  0  0  0  0  0  0  0  0  0  0  0
   48.8100   30.7980   49.3940 C   0  0  0  0  0  0  0  0  0  0  0  0
   47.8740   31.6090   48.8850 N   0  0  0  0  0  0  0  0  0  0  0  0
   47.1410   30.9340   47.9870 C   0  0  0  0  0  0  0  0  0  0  0  0
   46.0530   31.2050   47.1390 C   0  0  0  0  0  0  0  0  0  0  0  0
   45.5560   30.2590   46.3440 N   0  0  0  0  0  0  0  0  0  0  0  0
   46.1400   29.0200   46.3820 C   0  0  0  0  0  0  0  0  0  0  0  0
   47.1980   28.6910   47.1800 N   0  0  0  0  0  0  0  0  0  0  0  0
   47.6690   29.6610   47.9640 C   0  0  0  0  0  0  0  0  0  0  0  0
   44.4931   35.9874   43.7104 H   0  0  0  0  0  0  0  0  0  0  0  0
   46.4439   35.3213   42.2952 H   0  0  0  0  0  0  0  0  0  0  0  0
   49.2774   30.5143   41.4792 H   0  0  0  0  0  0  0  0  0  0  0  0
   47.3430   31.4473   42.7153 H   0  0  0  0  0  0  0  0  0  0  0  0
   49.4437   35.1311   43.2314 H   0  0  0  0  0  0  0  0  0  0  0  0
   51.4005   34.2322   42.0026 H   0  0  0  0  0  0  0  0  0  0  0  0
   52.9535   32.3907   40.9135 H   0  0  0  0  0  0  0  0  0  0  0  0
   49.2793   28.7481   49.0191 H   0  0  0  0  0  0  0  0  0  0  0  0
   49.5537   31.0817   50.1532 H   0  0  0  0  0  0  0  0  0  0  0  0
   45.7292   28.2384   45.7260 H   0  0  0  0  0  0  0  0  0  0  0  0
  1  6  2  0
  2  3  2  0
  2  1  1  0
  3  4  1  0
  4  5  2  0
  5 16  1  0
  6  5  1  0
  7  8  2  0
  7 12  1  0
  8  9  1  0
  9 10  2  0
 10  3  1  0
 11 10  1  0
 12 11  2  0
 13 15  2  0
 13  7  1  0
 14 13  2  0
 17 18  1  0
 19 18  2  0
 20 19  1  0
 21 16  1  0
 21 20  2  0
 22 23  2  0
 22 21  1  0
 23 24  1  0
 24 25  2  0
 25 20  1  0
 25 17  1  0
  1 26  1  0
  2 27  1  0
  8 28  1  0
  9 29  1  0
 11 30  1  0
 12 31  1  0
 13 32  1  0
 17 33  1  0
 18 34  1  0
 23 35  1  0
M  ISO  8  26  14  27  14  28  14  29  14  30  14  31  14  32  11  33   9
M  ISO  2  34  14  35  14
M  END
>  <minimizedAffinity>  (1) 
-5.86437654

>  <minimizedRMSD>  (1) 
0.853885412

$$$$
