
     RDKit          3D

 54 57  0  0  1  0  0  0  0  0999 V2000
   47.0760   32.4400   46.5910 C   0  0  0  0  0  0  0  0  0  0  0  0
   47.0830   31.7540   45.4020 C   0  0  0  0  0  0  0  0  0  0  0  0
   47.8000   30.4920   45.3290 C   0  0  0  0  0  0  0  0  0  0  0  0
   48.4230   30.0610   46.4260 N   0  0  0  0  0  0  0  0  0  0  0  0
   48.3930   30.7630   47.5630 C   0  0  0  0  0  0  0  0  0  0  0  0
   47.7290   31.9330   47.6450 N   0  0  0  0  0  0  0  0  0  0  0  0
   46.3990   32.3450   44.2500 C   0  0  2  0  0  0  0  0  0  0  0  0
   46.1080   33.7830   44.5400 C   0  0  0  0  0  0  0  0  0  0  0  0
   45.0850   34.3970   43.7480 C   0  0  0  0  0  0  0  0  0  0  0  0
   44.3710   33.6980   42.7180 C   0  0  0  0  0  0  0  0  0  0  0  0
   44.6410   32.2730   42.5710 C   0  0  0  0  0  0  0  0  0  0  0  0
   45.1350   31.6560   43.8350 C   0  0  0  0  0  0  0  0  0  0  0  0
   47.4230   32.3830   43.1070 C   0  0  0  0  0  0  0  0  0  0  0  0
   47.5440   31.8680   41.9500 O   0  0  0  0  0  0  0  0  0  0  0  0
   48.5680   33.2460   43.4440 N   0  0  0  0  0  0  0  0  0  0  0  0
   48.8310   34.4280   42.7900 C   0  0  0  0  0  0  0  0  0  0  0  0
   48.2000   35.0660   41.9770 N   0  0  0  0  0  0  0  0  0  0  0  0
   50.0340   35.2090   42.9940 N   0  0  0  0  0  0  0  0  0  0  0  0
   47.3000   35.0180   41.5880 H   0  0  0  0  0  0  0  0  0  0  0  0
   49.1180   30.2440   48.7450 C   0  0  0  0  0  0  0  0  0  0  0  0
   49.5450   31.1190   49.7350 C   0  0  0  0  0  0  0  0  0  0  0  0
   50.2260   30.6110   50.8420 C   0  0  0  0  0  0  0  0  0  0  0  0
   50.4680   29.2940   50.9530 N   0  0  0  0  0  0  0  0  0  0  0  0
   50.0490   28.4590   49.9870 C   0  0  0  0  0  0  0  0  0  0  0  0
   49.3820   28.9280   48.8960 N   0  0  0  0  0  0  0  0  0  0  0  0
   50.7800   24.2770   50.2300 C   0  0  0  0  0  0  0  0  0  0  0  0
   51.4440   25.1740   51.0330 C   0  0  0  0  0  0  0  0  0  0  0  0
   51.2170   26.5340   50.9670 C   0  0  0  0  0  0  0  0  0  0  0  0
   50.2840   27.0160   50.0520 C   0  0  0  0  0  0  0  0  0  0  0  0
   49.6140   26.1220   49.2420 C   0  0  0  0  0  0  0  0  0  0  0  0
   49.8610   24.7810   49.3330 C   0  0  0  0  0  0  0  0  0  0  0  0
   50.9780   22.5490   50.2200 S   0  0  0  0  0  0  0  0  0  0  0  0
   51.6090   22.1470   51.5190 O   0  0  0  0  0  0  0  0  0  0  0  0
   49.5850   21.9410   50.1720 O   0  0  0  0  0  0  0  0  0  0  0  0
   46.5396   33.3964   46.6774 H   0  0  0  0  0  0  0  0  0  0  0  0
   47.8278   29.9097   44.3962 H   0  0  0  0  0  0  0  0  0  0  0  0
   46.6502   34.3388   45.3192 H   0  0  0  0  0  0  0  0  0  0  0  0
   44.8354   35.4514   43.9376 H   0  0  0  0  0  0  0  0  0  0  0  0
   43.2965   33.8119   42.9242 H   0  0  0  0  0  0  0  0  0  0  0  0
   44.7152   34.1508   41.7765 H   0  0  0  0  0  0  0  0  0  0  0  0
   43.7122   31.7665   42.2699 H   0  0  0  0  0  0  0  0  0  0  0  0
   45.4275   32.1568   41.8108 H   0  0  0  0  0  0  0  0  0  0  0  0
   44.3761   31.7707   44.6230 H   0  0  0  0  0  0  0  0  0  0  0  0
   45.3294   30.5851   43.6757 H   0  0  0  0  0  0  0  0  0  0  0  0
   49.1997   32.9519   44.2025 H   0  0  0  0  0  0  0  0  0  0  0  0
   50.1726   36.0868   42.4733 H   0  0  0  0  0  0  0  0  0  0  0  0
   50.7507   34.8865   43.6598 H   0  0  0  0  0  0  0  0  0  0  0  0
   49.3491   32.1979   49.6478 H   0  0  0  0  0  0  0  0  0  0  0  0
   50.5682   31.2958   51.6319 H   0  0  0  0  0  0  0  0  0  0  0  0
   52.1828   24.7942   51.7541 H   0  0  0  0  0  0  0  0  0  0  0  0
   51.7635   27.2251   51.6256 H   0  0  0  0  0  0  0  0  0  0  0  0
   48.8745   26.4921   48.5166 H   0  0  0  0  0  0  0  0  0  0  0  0
   49.3148   24.0879   48.6763 H   0  0  0  0  0  0  0  0  0  0  0  0
   51.7448   22.1391   49.1613 H   0  0  0  0  0  0  0  0  0  0  0  0
  1  6  2  0
  2  1  1  0
  3  2  2  0
  3  4  1  0
  4  5  2  0
  5  6  1  0
  5 20  1  0
  7 13  1  6
  7  8  1  0
  7  2  1  0
  9  8  2  0
 10  9  1  0
 11 10  1  0
 11 12  1  0
 12  7  1  0
 13 15  1  0
 14 13  2  0
 16 18  1  0
 16 15  1  0
 17 16  2  0
 19 17  1  0
 20 25  1  0
 20 21  2  0
 21 22  1  0
 22 23  2  0
 24 29  1  0
 24 23  1  0
 25 24  2  0
 26 27  2  0
 28 27  1  0
 29 28  2  0
 30 31  2  0
 30 29  1  0
 31 26  1  0
 32 26  1  0
 32 33  2  0
 34 32  2  0
  1 35  1  0
  3 36  1  0
  8 37  1  0
  9 38  1  0
 10 39  1  0
 10 40  1  0
 11 41  1  0
 11 42  1  0
 12 43  1  0
 12 44  1  0
 15 45  1  0
 18 46  1  0
 18 47  1  0
 21 48  1  0
 22 49  1  0
 27 50  1  0
 28 51  1  0
 30 52  1  0
 31 53  1  0
 32 54  1  0
M  ISO  8  35  14  36  14  37  13  38  13  39  13  40  13  41  13  42  13
M  ISO  8  43  13  44  13  48  14  49  14  50  14  51  14  52  14  53  14
M  ISO  1  54  11
M  END
>  <minimizedAffinity>  (1) 
-6.25031805

>  <minimizedRMSD>  (1) 
2.27421927

$$$$
