
     RDKit          3D

 55 59  0  0  0  0  0  0  0  0999 V2000
   46.2490   31.7430   47.3350 C   0  0  0  0  0  0  0  0  0  0  0  0
   44.6290   34.8110   46.2370 C   0  0  0  0  0  0  0  0  0  0  0  0
   44.8500   34.8180   44.8490 C   0  0  0  0  0  0  0  0  0  0  0  0
   45.5660   33.7520   44.2810 C   0  0  0  0  0  0  0  0  0  0  0  0
   46.0050   32.7770   45.1030 N   0  0  0  0  0  0  0  0  0  0  0  0
   45.7660   32.8110   46.4490 C   0  0  0  0  0  0  0  0  0  0  0  0
   45.0860   33.8190   46.9970 N   0  0  0  0  0  0  0  0  0  0  0  0
   45.7650   33.7990   42.8860 N   0  0  0  0  0  0  0  0  0  0  0  0
   45.0090   33.5570   41.8150 C   0  0  0  0  0  0  0  0  0  0  0  0
   45.7180   33.7640   40.6830 N   0  0  0  0  0  0  0  0  0  0  0  0
   46.9490   34.1450   41.0340 C   0  0  0  0  0  0  0  0  0  0  0  0
   48.0520   34.4760   40.2580 C   0  0  0  0  0  0  0  0  0  0  0  0
   48.0340   34.4600   39.0230 O   0  0  0  0  0  0  0  0  0  0  0  0
   49.2040   34.8360   40.8530 N   0  0  0  0  0  0  0  0  0  0  0  0
   49.2120   34.8520   42.1920 C   0  0  0  0  0  0  0  0  0  0  0  0
   50.3740   35.2160   42.9480 N   0  0  0  0  0  0  0  0  0  0  0  0
   48.1570   34.5350   42.9450 N   0  0  0  0  0  0  0  0  0  0  0  0
   46.9810   34.1690   42.4170 C   0  0  0  0  0  0  0  0  0  0  0  0
   47.4290   32.2210   48.1580 C   0  0  0  0  0  0  0  0  0  0  0  0
   45.1760   31.2300   48.2740 C   0  0  0  0  0  0  0  0  0  0  0  0
   46.7520   30.6080   46.4510 C   0  0  0  0  0  0  0  0  0  0  0  0
   45.7000   29.5420   46.2790 C   0  0  0  0  0  0  0  0  0  0  0  0
   45.8030   28.3990   46.9970 C   0  0  0  0  0  0  0  0  0  0  0  0
   44.3520   27.3750   46.5090 S   0  0  0  0  0  0  0  0  0  0  0  0
   43.8300   28.7670   45.3450 C   0  0  0  0  0  0  0  0  0  0  0  0
   44.6600   29.5610   45.5070 N   0  0  0  0  0  0  0  0  0  0  0  0
   40.4340   28.4930   42.9040 C   0  0  0  0  0  0  0  0  0  0  0  0
   41.7000   28.3490   42.3790 C   0  0  0  0  0  0  0  0  0  0  0  0
   42.8390   28.4330   43.1490 C   0  0  0  0  0  0  0  0  0  0  0  0
   42.5790   28.6730   44.4830 C   0  0  0  0  0  0  0  0  0  0  0  0
   41.3730   28.8290   45.0930 C   0  0  0  0  0  0  0  0  0  0  0  0
   40.2610   28.7320   44.2540 C   0  0  0  0  0  0  0  0  0  0  0  0
   39.0410   28.3690   41.8360 S   0  0  0  0  0  0  0  0  0  0  0  0
   37.8630   29.1200   42.4070 O   0  0  0  0  0  0  0  0  0  0  0  0
   39.3920   28.9240   40.4920 O   0  0  0  0  0  0  0  0  0  0  0  0
   44.0705   35.6370   46.7015 H   0  0  0  0  0  0  0  0  0  0  0  0
   44.4711   35.6390   44.2226 H   0  0  0  0  0  0  0  0  0  0  0  0
   43.9578   33.2347   41.8478 H   0  0  0  0  0  0  0  0  0  0  0  0
   50.0392   35.0871   40.3050 H   0  0  0  0  0  0  0  0  0  0  0  0
   50.3395   35.2158   43.9774 H   0  0  0  0  0  0  0  0  0  0  0  0
   51.2435   35.4777   42.4619 H   0  0  0  0  0  0  0  0  0  0  0  0
   47.1926   32.1252   49.2280 H   0  0  0  0  0  0  0  0  0  0  0  0
   48.3125   31.6099   47.9216 H   0  0  0  0  0  0  0  0  0  0  0  0
   47.6381   33.2747   47.9216 H   0  0  0  0  0  0  0  0  0  0  0  0
   45.4962   31.3831   49.3152 H   0  0  0  0  0  0  0  0  0  0  0  0
   44.2391   31.7776   48.0942 H   0  0  0  0  0  0  0  0  0  0  0  0
   45.0139   30.1570   48.0942 H   0  0  0  0  0  0  0  0  0  0  0  0
   47.0167   31.0132   45.4632 H   0  0  0  0  0  0  0  0  0  0  0  0
   47.6307   30.1548   46.9333 H   0  0  0  0  0  0  0  0  0  0  0  0
   46.5889   28.1367   47.7205 H   0  0  0  0  0  0  0  0  0  0  0  0
   41.8053   28.1592   41.3006 H   0  0  0  0  0  0  0  0  0  0  0  0
   43.8544   28.3201   42.7414 H   0  0  0  0  0  0  0  0  0  0  0  0
   41.2803   29.0185   46.1726 H   0  0  0  0  0  0  0  0  0  0  0  0
   39.2480   28.8458   44.6674 H   0  0  0  0  0  0  0  0  0  0  0  0
   38.6956   27.0489   41.7140 H   0  0  0  0  0  0  0  0  0  0  0  0
  1 19  1  0
  1 20  1  0
  2  7  2  0
  3  2  1  0
  4  3  2  0
  4  5  1  0
  5  6  2  0
  6  7  1  0
  6  1  1  0
  8  4  1  0
  9  8  1  0
 10 11  1  0
 10  9  2  0
 11 18  2  0
 12 14  1  0
 12 11  1  0
 13 12  2  0
 14 15  1  0
 15 17  2  0
 15 16  1  0
 18  8  1  0
 18 17  1  0
 21  1  1  0
 22 21  1  0
 22 23  2  0
 24 23  1  0
 25 26  2  0
 25 24  1  0
 26 22  1  0
 27 32  2  0
 28 27  1  0
 28 29  2  0
 29 30  1  0
 30 31  2  0
 30 25  1  0
 32 31  1  0
 33 34  2  0
 33 27  1  0
 35 33  2  0
  2 36  1  0
  3 37  1  0
  9 38  1  0
 14 39  1  0
 16 40  1  0
 16 41  1  0
 19 42  1  0
 19 43  1  0
 19 44  1  0
 20 45  1  0
 20 46  1  0
 20 47  1  0
 21 48  1  0
 21 49  1  0
 23 50  1  0
 28 51  1  0
 29 52  1  0
 31 53  1  0
 32 54  1  0
 33 55  1  0
M  END
>  <minimizedAffinity>  (1) 
-7.11435223

>  <minimizedRMSD>  (1) 
1.19353426

$$$$
