
     RDKit          3D

 56 60  0  0  0  0  0  0  0  0999 V2000
   46.1260   32.0210   47.3170 C   0  0  0  0  0  0  0  0  0  0  0  0
   44.5050   35.0610   46.1550 C   0  0  0  0  0  0  0  0  0  0  0  0
   44.7410   35.0560   44.7780 C   0  0  0  0  0  0  0  0  0  0  0  0
   45.4740   33.9810   44.2290 C   0  0  0  0  0  0  0  0  0  0  0  0
   45.9010   33.0290   45.0690 N   0  0  0  0  0  0  0  0  0  0  0  0
   45.6510   33.0720   46.4060 C   0  0  0  0  0  0  0  0  0  0  0  0
   44.9610   34.0790   46.9360 N   0  0  0  0  0  0  0  0  0  0  0  0
   45.6880   34.0170   42.8320 N   0  0  0  0  0  0  0  0  0  0  0  0
   44.9370   33.8190   41.7530 C   0  0  0  0  0  0  0  0  0  0  0  0
   45.6790   33.9870   40.6370 N   0  0  0  0  0  0  0  0  0  0  0  0
   46.9270   34.2980   41.0000 C   0  0  0  0  0  0  0  0  0  0  0  0
   48.0590   34.5660   40.2410 C   0  0  0  0  0  0  0  0  0  0  0  0
   48.0580   34.5500   39.0020 O   0  0  0  0  0  0  0  0  0  0  0  0
   49.2190   34.8580   40.8480 N   0  0  0  0  0  0  0  0  0  0  0  0
   49.2150   34.8740   42.1950 C   0  0  0  0  0  0  0  0  0  0  0  0
   50.3770   35.1680   42.9530 N   0  0  0  0  0  0  0  0  0  0  0  0
   48.1360   34.6190   42.9320 N   0  0  0  0  0  0  0  0  0  0  0  0
   46.9350   34.3170   42.3790 C   0  0  0  0  0  0  0  0  0  0  0  0
   47.3010   32.5220   48.1480 C   0  0  0  0  0  0  0  0  0  0  0  0
   45.0600   31.5170   48.2470 C   0  0  0  0  0  0  0  0  0  0  0  0
   46.6400   30.8840   46.4570 C   0  0  0  0  0  0  0  0  0  0  0  0
   45.7750   29.6520   46.5840 C   0  0  0  0  0  0  0  0  0  0  0  0
   46.1760   28.6590   47.4040 C   0  0  0  0  0  0  0  0  0  0  0  0
   44.8610   27.3780   47.2600 S   0  0  0  0  0  0  0  0  0  0  0  0
   43.9510   28.4900   46.0400 C   0  0  0  0  0  0  0  0  0  0  0  0
   44.6490   29.4080   45.9820 N   0  0  0  0  0  0  0  0  0  0  0  0
   42.7220   27.9170   45.5560 N   0  0  0  0  0  0  0  0  0  0  0  0
   41.8270   28.5520   44.6140 C   0  0  0  0  0  0  0  0  0  0  0  0
   40.5210   28.8020   45.3350 C   0  0  0  0  0  0  0  0  0  0  0  0
   40.0790   27.5630   45.9380 N   0  0  0  0  0  0  0  0  0  0  0  0
   40.8740   26.4210   45.6050 C   0  0  0  0  0  0  0  0  0  0  0  0
   42.3320   26.6080   46.0320 C   0  0  0  0  0  0  0  0  0  0  0  0
   43.9341   35.8876   46.6030 H   0  0  0  0  0  0  0  0  0  0  0  0
   44.3657   35.8682   44.1381 H   0  0  0  0  0  0  0  0  0  0  0  0
   43.8688   33.5570   41.7671 H   0  0  0  0  0  0  0  0  0  0  0  0
   50.0731   35.0606   40.3092 H   0  0  0  0  0  0  0  0  0  0  0  0
   50.3336   35.1704   43.9821 H   0  0  0  0  0  0  0  0  0  0  0  0
   51.2643   35.3792   42.4744 H   0  0  0  0  0  0  0  0  0  0  0  0
   47.0635   32.4207   49.2173 H   0  0  0  0  0  0  0  0  0  0  0  0
   48.1961   31.9273   47.9133 H   0  0  0  0  0  0  0  0  0  0  0  0
   47.4916   33.5796   47.9133 H   0  0  0  0  0  0  0  0  0  0  0  0
   45.3804   31.6685   49.2884 H   0  0  0  0  0  0  0  0  0  0  0  0
   44.1255   32.0687   48.0669 H   0  0  0  0  0  0  0  0  0  0  0  0
   44.8933   30.4447   48.0669 H   0  0  0  0  0  0  0  0  0  0  0  0
   47.6642   30.6344   46.7711 H   0  0  0  0  0  0  0  0  0  0  0  0
   46.6183   31.2114   45.4071 H   0  0  0  0  0  0  0  0  0  0  0  0
   47.0858   28.6225   48.0212 H   0  0  0  0  0  0  0  0  0  0  0  0
   41.6599   27.8923   43.7498 H   0  0  0  0  0  0  0  0  0  0  0  0
   42.2552   29.4954   44.2443 H   0  0  0  0  0  0  0  0  0  0  0  0
   40.6693   29.5617   46.1166 H   0  0  0  0  0  0  0  0  0  0  0  0
   39.7637   29.1636   44.6239 H   0  0  0  0  0  0  0  0  0  0  0  0
   40.0970   27.6795   46.9612 H   0  0  0  0  0  0  0  0  0  0  0  0
   40.4625   25.5379   46.1157 H   0  0  0  0  0  0  0  0  0  0  0  0
   40.8485   26.2895   44.5132 H   0  0  0  0  0  0  0  0  0  0  0  0
   42.9657   25.8318   45.5782 H   0  0  0  0  0  0  0  0  0  0  0  0
   42.4461   26.5255   47.1229 H   0  0  0  0  0  0  0  0  0  0  0  0
  1 19  1  0
  1 20  1  0
  2  7  2  0
  3  2  1  0
  4  3  2  0
  4  5  1  0
  5  6  2  0
  6  7  1  0
  6  1  1  0
  8  4  1  0
  9  8  1  0
 10 11  1  0
 10  9  2  0
 11 18  2  0
 12 14  1  0
 12 11  1  0
 13 12  2  0
 14 15  1  0
 15 17  2  0
 15 16  1  0
 18  8  1  0
 18 17  1  0
 21 22  1  0
 21  1  1  0
 22 23  2  0
 24 23  1  0
 25 24  1  0
 26 25  2  0
 26 22  1  0
 27 32  1  0
 27 25  1  0
 28 29  1  0
 28 27  1  0
 29 30  1  0
 31 30  1  0
 31 32  1  0
  2 33  1  0
  3 34  1  0
  9 35  1  0
 14 36  1  0
 16 37  1  0
 16 38  1  0
 19 39  1  0
 19 40  1  0
 19 41  1  0
 20 42  1  0
 20 43  1  0
 20 44  1  0
 21 45  1  0
 21 46  1  0
 23 47  1  0
 28 48  1  0
 28 49  1  0
 29 50  1  0
 29 51  1  0
 30 52  1  0
 31 53  1  0
 31 54  1  0
 32 55  1  0
 32 56  1  0
M  END
>  <minimizedAffinity>  (1) 
-8.01501369

>  <minimizedRMSD>  (1) 
0.156874627

$$$$
