
     RDKit          3D

 31 33  0  0  0  0  0  0  0  0999 V2000
   45.4620   33.8980   41.5520 N   0  0  0  0  0  0  0  0  0  0  0  0
   46.5800   33.7840   40.8820 C   0  0  0  0  0  0  0  0  0  0  0  0
   46.3040   33.4610   39.5590 C   0  0  0  0  0  0  0  0  0  0  0  0
   44.9770   33.3810   39.4480 N   0  0  0  0  0  0  0  0  0  0  0  0
   44.4700   33.6480   40.6660 C   0  0  0  0  0  0  0  0  0  0  0  0
   44.6800   35.4980   43.1170 C   0  0  0  0  0  0  0  0  0  0  0  0
   45.2850   34.2210   42.8920 C   0  0  0  0  0  0  0  0  0  0  0  0
   45.6220   33.4800   44.0080 C   0  0  0  0  0  0  0  0  0  0  0  0
   45.3640   34.0000   45.2400 N   0  0  0  0  0  0  0  0  0  0  0  0
   44.7950   35.2030   45.4090 C   0  0  0  0  0  0  0  0  0  0  0  0
   44.4540   35.9480   44.3510 N   0  0  0  0  0  0  0  0  0  0  0  0
   47.9450   33.9190   41.2640 N   0  0  0  0  0  0  0  0  0  0  0  0
   48.3560   35.2920   41.4770 C   0  0  0  0  0  0  0  0  0  0  0  0
   49.5640   35.4750   42.3280 C   0  0  0  0  0  0  0  0  0  0  0  0
   50.4790   34.3820   42.3710 N   0  0  0  0  0  0  0  0  0  0  0  0
   49.7100   33.2010   42.7500 C   0  0  0  0  0  0  0  0  0  0  0  0
   48.9370   32.8650   41.4590 C   0  0  0  0  0  0  0  0  0  0  0  0
   47.0393   33.3017   38.7565 H   0  0  0  0  0  0  0  0  0  0  0  0
   43.3970   33.6612   40.9079 H   0  0  0  0  0  0  0  0  0  0  0  0
   44.3961   36.1200   42.2553 H   0  0  0  0  0  0  0  0  0  0  0  0
   46.0894   32.4897   43.9037 H   0  0  0  0  0  0  0  0  0  0  0  0
   44.6073   35.5800   46.4252 H   0  0  0  0  0  0  0  0  0  0  0  0
   48.5630   35.7402   40.4940 H   0  0  0  0  0  0  0  0  0  0  0  0
   47.5290   35.7741   42.0190 H   0  0  0  0  0  0  0  0  0  0  0  0
   50.1089   36.3534   41.9518 H   0  0  0  0  0  0  0  0  0  0  0  0
   49.1853   35.5806   43.3553 H   0  0  0  0  0  0  0  0  0  0  0  0
   50.9087   34.2430   41.4453 H   0  0  0  0  0  0  0  0  0  0  0  0
   50.3735   32.3732   43.0409 H   0  0  0  0  0  0  0  0  0  0  0  0
   49.0549   33.3690   43.6175 H   0  0  0  0  0  0  0  0  0  0  0  0
   48.4367   31.8907   41.5618 H   0  0  0  0  0  0  0  0  0  0  0  0
   49.6198   32.8068   40.5985 H   0  0  0  0  0  0  0  0  0  0  0  0
  1  7  1  0
  2 12  1  0
  2  1  1  0
  3  2  2  0
  4  3  1  0
  4  5  2  0
  5  1  1  0
  6 11  2  0
  7  6  1  0
  7  8  2  0
  8  9  1  0
  9 10  2  0
 11 10  1  0
 12 17  1  0
 12 13  1  0
 13 14  1  0
 14 15  1  0
 15 16  1  0
 17 16  1  0
  3 18  1  0
  5 19  1  0
  6 20  1  0
  8 21  1  0
 10 22  1  0
 13 23  1  0
 13 24  1  0
 14 25  1  0
 14 26  1  0
 15 27  1  0
 16 28  1  0
 16 29  1  0
 17 30  1  0
 17 31  1  0
M  ISO  8  18  14  19  14  20  14  21  14  22  14  23  13  24  13  25  13
M  ISO  6  26  13  27   5  28  13  29  13  30  13  31  13
M  END
>  <minimizedAffinity>  (1) 
-4.66791773

>  <minimizedRMSD>  (1) 
3.21184874

$$$$
