
     RDKit          3D

 29 30  0  0  1  0  0  0  0  0999 V2000
   47.0690   32.6640   44.7420 C   0  0  2  0  0  0  0  0  0  0  0  0
   44.6140   35.3780   45.1630 C   0  0  0  0  0  0  0  0  0  0  0  0
   44.7540   36.0800   43.9140 C   0  0  0  0  0  0  0  0  0  0  0  0
   45.6940   35.5820   42.9580 C   0  0  0  0  0  0  0  0  0  0  0  0
   46.4100   34.4600   43.2920 N   0  0  0  0  0  0  0  0  0  0  0  0
   46.2400   33.8460   44.4690 C   0  0  0  0  0  0  0  0  0  0  0  0
   45.3510   34.3060   45.3860 N   0  0  0  0  0  0  0  0  0  0  0  0
   47.6360   32.1040   43.4330 C   0  0  0  0  0  0  0  0  0  0  0  0
   46.4110   31.6100   45.5530 C   0  0  0  0  0  0  0  0  0  0  0  0
   47.2350   31.3920   46.7820 C   0  0  0  0  0  0  0  0  0  0  0  0
   47.2510   32.3590   47.7530 C   0  0  0  0  0  0  0  0  0  0  0  0
   48.0650   31.9340   48.7660 C   0  0  0  0  0  0  0  0  0  0  0  0
   48.5130   30.7080   48.3570 N   0  0  0  0  0  0  0  0  0  0  0  0
   48.0200   30.3880   47.1820 N   0  0  0  0  0  0  0  0  0  0  0  0
   49.4180   29.8280   49.0870 C   0  0  0  0  0  0  0  0  0  0  0  0
   50.7270   30.0910   48.7390 F   0  0  0  0  0  0  0  0  0  0  0  0
   49.2580   30.0860   50.4470 F   0  0  0  0  0  0  0  0  0  0  0  0
   49.1750   28.4980   48.8170 F   0  0  0  0  0  0  0  0  0  0  0  0
   47.8936   33.0148   45.3800 H   0  0  0  0  0  0  0  0  0  0  0  0
   43.9011   35.7309   45.9227 H   0  0  0  0  0  0  0  0  0  0  0  0
   44.1534   36.9765   43.7004 H   0  0  0  0  0  0  0  0  0  0  0  0
   45.8381   36.0812   41.9884 H   0  0  0  0  0  0  0  0  0  0  0  0
   48.4019   31.3475   43.6591 H   0  0  0  0  0  0  0  0  0  0  0  0
   46.8254   31.6422   42.8502 H   0  0  0  0  0  0  0  0  0  0  0  0
   48.0877   32.9203   42.8502 H   0  0  0  0  0  0  0  0  0  0  0  0
   45.3982   31.9335   45.8350 H   0  0  0  0  0  0  0  0  0  0  0  0
   46.3310   30.6771   44.9756 H   0  0  0  0  0  0  0  0  0  0  0  0
   46.7034   33.3125   47.7226 H   0  0  0  0  0  0  0  0  0  0  0  0
   48.3059   32.4605   49.7013 H   0  0  0  0  0  0  0  0  0  0  0  0
  1  9  1  0
  2  7  2  0
  3  2  1  0
  4  5  1  0
  4  3  2  0
  5  6  2  0
  6  1  1  0
  6  7  1  0
  8  1  1  0
  9 10  1  0
 10 14  2  0
 10 11  1  0
 11 12  2  0
 13 12  1  0
 13 15  1  0
 14 13  1  0
 15 17  1  0
 16 15  1  0
 18 15  1  0
  1 19  1  1
  2 20  1  0
  3 21  1  0
  4 22  1  0
  8 23  1  0
  8 24  1  0
  8 25  1  0
  9 26  1  0
  9 27  1  0
 11 28  1  0
 12 29  1  0
M  ISO  8  19   8  20  14  21  14  22  14  23   8  24   8  25   8  26   8
M  ISO  3  27   8  28  14  29  14
M  END
>  <minimizedAffinity>  (1) 
-4.60045385

>  <minimizedRMSD>  (1) 
1.9294697

$$$$
