
     RDKit          3D

 47 51  0  0  0  0  0  0  0  0999 V2000
   46.4430   34.6700   42.1840 C   0  0  0  0  0  0  0  0  0  0  0  0
   47.7480   35.0430   42.0450 C   0  0  0  0  0  0  0  0  0  0  0  0
   48.4460   34.8570   40.8400 C   0  0  0  0  0  0  0  0  0  0  0  0
   47.8060   34.2780   39.7450 C   0  0  0  0  0  0  0  0  0  0  0  0
   46.4990   33.9070   39.8940 C   0  0  0  0  0  0  0  0  0  0  0  0
   45.8290   34.1020   41.0950 C   0  0  0  0  0  0  0  0  0  0  0  0
   44.4710   33.7000   41.1970 N   0  0  0  0  0  0  0  0  0  0  0  0
   43.6470   34.6600   40.6680 C   0  0  0  0  0  0  0  0  0  0  0  0
   42.2580   34.4720   40.6640 C   0  0  0  0  0  0  0  0  0  0  0  0
   41.7660   33.2920   41.2090 C   0  0  0  0  0  0  0  0  0  0  0  0
   40.5340   33.0630   41.2350 O   0  0  0  0  0  0  0  0  0  0  0  0
   42.6240   32.3900   41.7120 N   0  0  0  0  0  0  0  0  0  0  0  0
   43.9470   32.5800   41.7110 C   0  0  0  0  0  0  0  0  0  0  0  0
   44.8130   31.7960   42.1560 O   0  0  0  0  0  0  0  0  0  0  0  0
   41.3240   35.4830   40.1010 C   0  0  0  0  0  0  0  0  0  0  0  0
   44.4410   36.1110   45.0250 C   0  0  0  0  0  0  0  0  0  0  0  0
   45.0110   36.0100   43.7540 C   0  0  0  0  0  0  0  0  0  0  0  0
   45.7940   34.8970   43.4620 C   0  0  0  0  0  0  0  0  0  0  0  0
   45.9590   33.9790   44.4220 N   0  0  0  0  0  0  0  0  0  0  0  0
   45.3970   34.0950   45.6490 C   0  0  0  0  0  0  0  0  0  0  0  0
   44.6410   35.1600   45.9450 N   0  0  0  0  0  0  0  0  0  0  0  0
   45.6430   33.0320   46.6200 C   0  0  0  0  0  0  0  0  0  0  0  0
   45.1220   33.0150   47.8980 C   0  0  0  0  0  0  0  0  0  0  0  0
   45.5530   31.8880   48.5170 N   0  0  0  0  0  0  0  0  0  0  0  0
   46.3240   31.2310   47.6310 C   0  0  0  0  0  0  0  0  0  0  0  0
   47.0080   30.0360   47.7440 C   0  0  0  0  0  0  0  0  0  0  0  0
   47.7610   29.5090   46.7100 C   0  0  0  0  0  0  0  0  0  0  0  0
   47.8390   30.2060   45.4980 C   0  0  0  0  0  0  0  0  0  0  0  0
   47.1460   31.4140   45.3870 C   0  0  0  0  0  0  0  0  0  0  0  0
   46.4090   31.9070   46.4310 C   0  0  0  0  0  0  0  0  0  0  0  0
   48.2675   35.5016   42.8992 H   0  0  0  0  0  0  0  0  0  0  0  0
   49.4980   35.1684   40.7604 H   0  0  0  0  0  0  0  0  0  0  0  0
   48.3353   34.1249   38.7929 H   0  0  0  0  0  0  0  0  0  0  0  0
   45.9684   33.4459   39.0479 H   0  0  0  0  0  0  0  0  0  0  0  0
   44.0772   35.5801   40.2457 H   0  0  0  0  0  0  0  0  0  0  0  0
   42.2486   31.5190   42.1137 H   0  0  0  0  0  0  0  0  0  0  0  0
   40.8273   36.0207   40.9221 H   0  0  0  0  0  0  0  0  0  0  0  0
   41.8866   36.1975   39.4822 H   0  0  0  0  0  0  0  0  0  0  0  0
   40.5672   34.9786   39.4822 H   0  0  0  0  0  0  0  0  0  0  0  0
   43.8194   36.9839   45.2731 H   0  0  0  0  0  0  0  0  0  0  0  0
   44.8447   36.7933   42.9999 H   0  0  0  0  0  0  0  0  0  0  0  0
   44.4696   33.7833   48.3385 H   0  0  0  0  0  0  0  0  0  0  0  0
   45.3329   31.5922   49.4788 H   0  0  0  0  0  0  0  0  0  0  0  0
   46.9517   29.4822   48.6927 H   0  0  0  0  0  0  0  0  0  0  0  0
   48.2919   28.5542   46.8383 H   0  0  0  0  0  0  0  0  0  0  0  0
   48.4293   29.8134   44.6569 H   0  0  0  0  0  0  0  0  0  0  0  0
   47.1931   31.9792   44.4445 H   0  0  0  0  0  0  0  0  0  0  0  0
  1 18  1  0
  2  1  2  0
  3  2  1  0
  4  5  1  0
  4  3  2  0
  5  6  2  0
  6  7  1  0
  6  1  1  0
  7 13  1  0
  8  7  1  0
  9  8  2  0
  9 10  1  0
 10 11  2  0
 10 12  1  0
 13 12  1  0
 13 14  2  0
 15  9  1  0
 16 21  2  0
 17 16  1  0
 18 17  2  0
 18 19  1  0
 19 20  2  0
 20 21  1  0
 20 22  1  0
 22 23  2  0
 23 24  1  0
 25 26  2  0
 25 24  1  0
 27 26  1  0
 28 27  2  0
 29 28  1  0
 29 30  2  0
 30 22  1  0
 30 25  1  0
  2 31  1  0
  3 32  1  0
  4 33  1  0
  5 34  1  0
  8 35  1  0
 12 36  1  0
 15 37  1  0
 15 38  1  0
 15 39  1  0
 16 40  1  0
 17 41  1  0
 23 42  1  0
 24 43  1  0
 26 44  1  0
 27 45  1  0
 28 46  1  0
 29 47  1  0
M  ISO  8  31  14  32  14  33  14  34  14  35  14  36   9  37   8  38   8
M  ISO  8  39   8  40  14  41  14  42  14  43   9  44  14  45  14  46  14
M  ISO  1  47  14
M  END
>  <minimizedAffinity>  (1) 
-8.00243759

>  <minimizedRMSD>  (1) 
0.263071775

$$$$
