
     RDKit          3D

 46 50  0  0  1  0  0  0  0  0999 V2000
   46.1910   32.8200   40.2330 C   0  0  0  0  0  0  0  0  0  0  0  0
   46.2880   32.7990   38.7780 N   0  0  0  0  0  0  0  0  0  0  0  0
   45.2600   33.1890   38.0350 N   0  0  0  0  0  0  0  0  0  0  0  0
   45.4870   33.1120   36.7470 C   0  0  0  0  0  0  0  0  0  0  0  0
   46.7510   32.6400   36.6010 C   0  0  0  0  0  0  0  0  0  0  0  0
   47.2000   32.4640   37.8930 C   0  0  0  0  0  0  0  0  0  0  0  0
   47.5480   32.3500   35.4130 C   0  0  0  0  0  0  0  0  0  0  0  0
   48.7730   32.9910   35.1960 C   0  0  0  0  0  0  0  0  0  0  0  0
   49.2260   32.4940   34.0300 N   0  0  0  0  0  0  0  0  0  0  0  0
   48.3510   31.5860   33.5220 C   0  0  0  0  0  0  0  0  0  0  0  0
   48.4040   30.8350   32.3600 C   0  0  0  0  0  0  0  0  0  0  0  0
   47.3370   29.9960   32.1380 C   0  0  0  0  0  0  0  0  0  0  0  0
   46.2390   29.8590   32.9780 C   0  0  0  0  0  0  0  0  0  0  0  0
   46.2280   30.6340   34.1340 C   0  0  0  0  0  0  0  0  0  0  0  0
   47.2770   31.4750   34.3800 C   0  0  0  0  0  0  0  0  0  0  0  0
   48.4930   31.9830   38.3440 N   0  0  0  0  0  0  0  0  0  0  0  0
   46.5350   34.1370   40.7660 C   0  0  2  0  0  0  0  0  0  0  0  0
   48.4940   35.4130   41.5340 C   0  0  0  0  0  0  0  0  0  0  0  0
   47.7960   34.2520   41.3750 C   0  0  0  0  0  0  0  0  0  0  0  0
   48.4360   33.1050   41.8440 C   0  0  0  0  0  0  0  0  0  0  0  0
   49.6630   33.1340   42.4170 N   0  0  0  0  0  0  0  0  0  0  0  0
   50.2870   34.3520   42.5320 C   0  0  0  0  0  0  0  0  0  0  0  0
   49.7080   35.4560   42.0980 N   0  0  0  0  0  0  0  0  0  0  0  0
   45.4060   34.7130   41.6400 C   0  0  0  0  0  0  0  0  0  0  0  0
   44.1270   34.9220   41.0870 C   0  0  0  0  0  0  0  0  0  0  0  0
   43.4230   35.4400   42.1680 C   0  0  0  0  0  0  0  0  0  0  0  0
   44.2940   35.5120   43.2820 C   0  0  0  0  0  0  0  0  0  0  0  0
   45.4630   35.0650   42.9110 O   0  0  0  0  0  0  0  0  0  0  0  0
   46.8821   32.0724   40.6496 H   0  0  0  0  0  0  0  0  0  0  0  0
   45.1536   32.5892   40.5166 H   0  0  0  0  0  0  0  0  0  0  0  0
   44.7884   33.3783   35.9402 H   0  0  0  0  0  0  0  0  0  0  0  0
   49.2601   33.7389   35.8390 H   0  0  0  0  0  0  0  0  0  0  0  0
   50.1140   32.7646   33.5837 H   0  0  0  0  0  0  0  0  0  0  0  0
   49.2476   30.9051   31.6576 H   0  0  0  0  0  0  0  0  0  0  0  0
   47.3544   29.3853   31.2232 H   0  0  0  0  0  0  0  0  0  0  0  0
   45.4157   29.1693   32.7403 H   0  0  0  0  0  0  0  0  0  0  0  0
   45.3867   30.5706   34.8399 H   0  0  0  0  0  0  0  0  0  0  0  0
   48.6896   31.9024   39.3519 H   0  0  0  0  0  0  0  0  0  0  0  0
   49.2140   31.7222   37.6562 H   0  0  0  0  0  0  0  0  0  0  0  0
   46.6354   34.7646   39.8682 H   0  0  0  0  0  0  0  0  0  0  0  0
   48.0412   36.3526   41.1846 H   0  0  0  0  0  0  0  0  0  0  0  0
   47.9232   32.1369   41.7445 H   0  0  0  0  0  0  0  0  0  0  0  0
   51.2843   34.4084   42.9927 H   0  0  0  0  0  0  0  0  0  0  0  0
   43.7759   34.7257   40.0632 H   0  0  0  0  0  0  0  0  0  0  0  0
   42.3657   35.7433   42.1594 H   0  0  0  0  0  0  0  0  0  0  0  0
   44.0315   35.8802   44.2847 H   0  0  0  0  0  0  0  0  0  0  0  0
  1 17  1  0
  2  1  1  0
  3  2  1  0
  4  3  2  0
  5  4  1  0
  5  6  2  0
  6 16  1  0
  6  2  1  0
  7  5  1  0
  8  7  2  0
  9  8  1  0
 10  9  1  0
 10 15  2  0
 11 10  1  0
 12 11  2  0
 12 13  1  0
 13 14  2  0
 14 15  1  0
 15  7  1  0
 17 19  1  0
 17 24  1  0
 18 23  2  0
 19 18  1  0
 19 20  2  0
 20 21  1  0
 21 22  2  0
 23 22  1  0
 24 28  1  0
 25 24  2  0
 25 26  1  0
 26 27  2  0
 28 27  1  0
  1 29  1  0
  1 30  1  0
  4 31  1  0
  8 32  1  0
  9 33  1  0
 11 34  1  0
 12 35  1  0
 13 36  1  0
 14 37  1  0
 16 38  1  0
 16 39  1  0
 17 40  1  6
 18 41  1  0
 20 42  1  0
 22 43  1  0
 25 44  1  0
 26 45  1  0
 27 46  1  0
M  ISO  8  29   8  30   8  31  14  32  14  33   9  34  14  35  14  36  14
M  ISO  8  37  14  40   8  41  14  42  14  43  14  44  14  45  14  46  14
M  END
>  <minimizedAffinity>  (1) 
-5.79377651

>  <minimizedRMSD>  (1) 
1.38812518

$$$$
