
     RDKit          3D

 56 61  0  0  0  0  0  0  0  0999 V2000
   45.9810   31.9490   47.2300 C   0  0  0  0  0  0  0  0  0  0  0  0
   44.5120   35.0970   46.1300 C   0  0  0  0  0  0  0  0  0  0  0  0
   44.7520   35.1070   44.7480 C   0  0  0  0  0  0  0  0  0  0  0  0
   45.4400   34.0020   44.1750 C   0  0  0  0  0  0  0  0  0  0  0  0
   45.8160   33.0120   45.0010 N   0  0  0  0  0  0  0  0  0  0  0  0
   45.5590   33.0450   46.3400 C   0  0  0  0  0  0  0  0  0  0  0  0
   44.9170   34.0740   46.8900 N   0  0  0  0  0  0  0  0  0  0  0  0
   45.6580   34.0580   42.7840 N   0  0  0  0  0  0  0  0  0  0  0  0
   44.9140   33.9060   41.7020 C   0  0  0  0  0  0  0  0  0  0  0  0
   45.6620   34.0720   40.5890 N   0  0  0  0  0  0  0  0  0  0  0  0
   46.9120   34.3340   40.9660 C   0  0  0  0  0  0  0  0  0  0  0  0
   48.0540   34.5820   40.2210 C   0  0  0  0  0  0  0  0  0  0  0  0
   48.0640   34.5920   38.9780 O   0  0  0  0  0  0  0  0  0  0  0  0
   49.2270   34.8260   40.8390 N   0  0  0  0  0  0  0  0  0  0  0  0
   49.2150   34.8160   42.1820 C   0  0  0  0  0  0  0  0  0  0  0  0
   50.3800   35.0590   42.9510 N   0  0  0  0  0  0  0  0  0  0  0  0
   48.1200   34.5790   42.9030 N   0  0  0  0  0  0  0  0  0  0  0  0
   46.9200   34.3280   42.3440 C   0  0  0  0  0  0  0  0  0  0  0  0
   47.1870   32.3510   48.0580 C   0  0  0  0  0  0  0  0  0  0  0  0
   44.8830   31.5010   48.1610 C   0  0  0  0  0  0  0  0  0  0  0  0
   46.4090   30.7960   46.3440 C   0  0  0  0  0  0  0  0  0  0  0  0
   45.6550   29.5330   46.6740 C   0  0  0  0  0  0  0  0  0  0  0  0
   46.1280   28.7240   47.6500 C   0  0  0  0  0  0  0  0  0  0  0  0
   44.9420   27.3230   47.7370 S   0  0  0  0  0  0  0  0  0  0  0  0
   43.9510   28.1290   46.3480 C   0  0  0  0  0  0  0  0  0  0  0  0
   44.5680   29.0850   46.1350 N   0  0  0  0  0  0  0  0  0  0  0  0
   42.6880   27.5890   45.7370 C   0  0  0  0  0  0  0  0  0  0  0  0
   41.6830   28.3560   45.2510 C   0  0  0  0  0  0  0  0  0  0  0  0
   40.7930   27.4460   44.8200 N   0  0  0  0  0  0  0  0  0  0  0  0
   41.1790   26.1740   45.0070 C   0  0  0  0  0  0  0  0  0  0  0  0
   40.5420   24.9900   44.6990 C   0  0  0  0  0  0  0  0  0  0  0  0
   41.2020   23.7990   45.0190 C   0  0  0  0  0  0  0  0  0  0  0  0
   42.4580   23.8290   45.6270 C   0  0  0  0  0  0  0  0  0  0  0  0
   43.0310   25.0600   45.9040 C   0  0  0  0  0  0  0  0  0  0  0  0
   42.4020   26.2480   45.5990 C   0  0  0  0  0  0  0  0  0  0  0  0
   43.9834   35.9422   46.5949 H   0  0  0  0  0  0  0  0  0  0  0  0
   44.4166   35.9480   44.1234 H   0  0  0  0  0  0  0  0  0  0  0  0
   43.8382   33.6768   41.7070 H   0  0  0  0  0  0  0  0  0  0  0  0
   50.0897   35.0109   40.3076 H   0  0  0  0  0  0  0  0  0  0  0  0
   50.3307   35.0428   43.9797 H   0  0  0  0  0  0  0  0  0  0  0  0
   51.2762   35.2518   42.4813 H   0  0  0  0  0  0  0  0  0  0  0  0
   46.9415   32.2692   49.1271 H   0  0  0  0  0  0  0  0  0  0  0  0
   48.0310   31.6856   47.8236 H   0  0  0  0  0  0  0  0  0  0  0  0
   47.4629   33.3897   47.8236 H   0  0  0  0  0  0  0  0  0  0  0  0
   45.2089   31.6340   49.2032 H   0  0  0  0  0  0  0  0  0  0  0  0
   43.9802   32.1027   47.9796 H   0  0  0  0  0  0  0  0  0  0  0  0
   44.6588   30.4395   47.9796 H   0  0  0  0  0  0  0  0  0  0  0  0
   47.4850   30.6169   46.4861 H   0  0  0  0  0  0  0  0  0  0  0  0
   46.1900   31.0646   45.3000 H   0  0  0  0  0  0  0  0  0  0  0  0
   47.0303   28.8732   48.2612 H   0  0  0  0  0  0  0  0  0  0  0  0
   41.6126   29.4532   45.2174 H   0  0  0  0  0  0  0  0  0  0  0  0
   39.8950   27.7017   44.3851 H   0  0  0  0  0  0  0  0  0  0  0  0
   39.5520   24.9827   44.2196 H   0  0  0  0  0  0  0  0  0  0  0  0
   40.7283   22.8329   44.7901 H   0  0  0  0  0  0  0  0  0  0  0  0
   42.9818   22.8956   45.8808 H   0  0  0  0  0  0  0  0  0  0  0  0
   44.0207   25.0901   46.3832 H   0  0  0  0  0  0  0  0  0  0  0  0
  1 19  1  0
  1 20  1  0
  2  7  2  0
  3  2  1  0
  4  3  2  0
  4  5  1  0
  5  6  2  0
  6  7  1  0
  6  1  1  0
  8  4  1  0
  9  8  1  0
 10 11  1  0
 10  9  2  0
 11 18  2  0
 12 14  1  0
 12 11  1  0
 13 12  2  0
 14 15  1  0
 15 17  2  0
 15 16  1  0
 18  8  1  0
 18 17  1  0
 21 22  1  0
 21  1  1  0
 22 23  2  0
 23 24  1  0
 25 24  1  0
 26 25  2  0
 26 22  1  0
 27 25  1  0
 28 27  2  0
 29 30  1  0
 29 28  1  0
 30 35  2  0
 31 30  1  0
 31 32  2  0
 32 33  1  0
 33 34  2  0
 35 27  1  0
 35 34  1  0
  2 36  1  0
  3 37  1  0
  9 38  1  0
 14 39  1  0
 16 40  1  0
 16 41  1  0
 19 42  1  0
 19 43  1  0
 19 44  1  0
 20 45  1  0
 20 46  1  0
 20 47  1  0
 21 48  1  0
 21 49  1  0
 23 50  1  0
 28 51  1  0
 29 52  1  0
 31 53  1  0
 32 54  1  0
 33 55  1  0
 34 56  1  0
M  END
>  <minimizedAffinity>  (1) 
-7.91714048

>  <minimizedRMSD>  (1) 
0.511912227

$$$$
