
     RDKit          3D

 47 50  0  0  1  0  0  0  0  0999 V2000
   45.6510   33.1820   43.1050 C   0  0  1  0  0  0  0  0  0  0  0  0
   45.8890   34.3980   43.9290 C   0  0  0  0  0  0  0  0  0  0  0  0
   45.4770   35.6530   43.3520 C   0  0  0  0  0  0  0  0  0  0  0  0
   44.8630   35.7310   42.0460 C   0  0  0  0  0  0  0  0  0  0  0  0
   44.6040   34.4800   41.3500 C   0  0  0  0  0  0  0  0  0  0  0  0
   44.3770   33.3510   42.3160 C   0  0  0  0  0  0  0  0  0  0  0  0
   46.8840   33.0670   42.2100 C   0  0  0  0  0  0  0  0  0  0  0  0
   47.1260   32.7020   41.0150 O   0  0  0  0  0  0  0  0  0  0  0  0
   48.1210   33.4780   42.8700 N   0  0  0  0  0  0  0  0  0  0  0  0
   48.8130   34.6330   42.5400 C   0  0  0  0  0  0  0  0  0  0  0  0
   48.5470   35.5560   41.7790 N   0  0  0  0  0  0  0  0  0  0  0  0
   50.0870   35.0280   43.1000 N   0  0  0  0  0  0  0  0  0  0  0  0
   47.7920   35.8070   41.1920 H   0  0  0  0  0  0  0  0  0  0  0  0
   45.8690   32.2040   45.3260 C   0  0  0  0  0  0  0  0  0  0  0  0
   45.6750   31.9950   43.9750 C   0  0  0  0  0  0  0  0  0  0  0  0
   45.5490   30.6430   43.4810 C   0  0  0  0  0  0  0  0  0  0  0  0
   45.6300   29.6400   44.3610 N   0  0  0  0  0  0  0  0  0  0  0  0
   45.8210   29.8740   45.6740 C   0  0  0  0  0  0  0  0  0  0  0  0
   45.9370   31.1240   46.1330 N   0  0  0  0  0  0  0  0  0  0  0  0
   45.9040   28.7210   46.5990 C   0  0  0  0  0  0  0  0  0  0  0  0
   46.9390   28.4090   47.4360 C   0  0  0  0  0  0  0  0  0  0  0  0
   46.6130   27.2790   48.1070 N   0  0  0  0  0  0  0  0  0  0  0  0
   45.3760   26.8630   47.7110 C   0  0  0  0  0  0  0  0  0  0  0  0
   44.6690   25.7690   48.1350 C   0  0  0  0  0  0  0  0  0  0  0  0
   43.4060   25.5440   47.5780 C   0  0  0  0  0  0  0  0  0  0  0  0
   42.9550   26.4390   46.6370 C   0  0  0  0  0  0  0  0  0  0  0  0
   43.6880   27.5250   46.2330 C   0  0  0  0  0  0  0  0  0  0  0  0
   44.9350   27.7560   46.7760 C   0  0  0  0  0  0  0  0  0  0  0  0
   46.3540   34.3422   44.9243 H   0  0  0  0  0  0  0  0  0  0  0  0
   45.6347   36.5797   43.9232 H   0  0  0  0  0  0  0  0  0  0  0  0
   43.8991   36.2474   42.1653 H   0  0  0  0  0  0  0  0  0  0  0  0
   45.6017   36.2526   41.4196 H   0  0  0  0  0  0  0  0  0  0  0  0
   43.7089   34.5988   40.7218 H   0  0  0  0  0  0  0  0  0  0  0  0
   45.4834   34.2377   40.7352 H   0  0  0  0  0  0  0  0  0  0  0  0
   43.5437   33.5939   42.9917 H   0  0  0  0  0  0  0  0  0  0  0  0
   44.1201   32.4240   41.7825 H   0  0  0  0  0  0  0  0  0  0  0  0
   48.4980   32.8792   43.6185 H   0  0  0  0  0  0  0  0  0  0  0  0
   50.5327   35.9058   42.7972 H   0  0  0  0  0  0  0  0  0  0  0  0
   50.5484   34.4314   43.8015 H   0  0  0  0  0  0  0  0  0  0  0  0
   45.9654   33.2214   45.7330 H   0  0  0  0  0  0  0  0  0  0  0  0
   45.3908   30.4446   42.4107 H   0  0  0  0  0  0  0  0  0  0  0  0
   47.8744   28.9774   47.5454 H   0  0  0  0  0  0  0  0  0  0  0  0
   47.2054   26.8082   48.8058 H   0  0  0  0  0  0  0  0  0  0  0  0
   45.0829   25.0868   48.8921 H   0  0  0  0  0  0  0  0  0  0  0  0
   42.7950   24.6813   47.8821 H   0  0  0  0  0  0  0  0  0  0  0  0
   41.9635   26.2769   46.1890 H   0  0  0  0  0  0  0  0  0  0  0  0
   43.2818   28.2120   45.4760 H   0  0  0  0  0  0  0  0  0  0  0  0
  1  7  1  6
  1  2  1  0
  1 15  1  0
  3  2  2  0
  4  3  1  0
  5  4  1  0
  5  6  1  0
  6  1  1  0
  7  9  1  0
  8  7  2  0
 10  9  1  0
 10 12  1  0
 11 10  2  0
 13 11  1  0
 14 19  2  0
 15 14  1  0
 16 15  2  0
 16 17  1  0
 17 18  2  0
 18 19  1  0
 18 20  1  0
 20 28  1  0
 20 21  2  0
 21 22  1  0
 23 22  1  0
 23 24  2  0
 25 24  1  0
 26 25  2  0
 27 26  1  0
 27 28  2  0
 28 23  1  0
  2 29  1  0
  3 30  1  0
  4 31  1  0
  4 32  1  0
  5 33  1  0
  5 34  1  0
  6 35  1  0
  6 36  1  0
  9 37  1  0
 12 38  1  0
 12 39  1  0
 14 40  1  0
 16 41  1  0
 21 42  1  0
 22 43  1  0
 24 44  1  0
 25 45  1  0
 26 46  1  0
 27 47  1  0
M  ISO  8  29  13  30  13  31  13  32  13  33  13  34  13  35  13  36  13
M  ISO  8  40  14  41  14  42  14  43   9  44  14  45  14  46  14  47  14
M  END
>  <minimizedAffinity>  (1) 
-6.32222176

>  <minimizedRMSD>  (1) 
2.2642343

$$$$
