
     RDKit          3D

 34 37  0  0  0  0  0  0  0  0999 V2000
   44.5480   35.7560   44.6530 C   0  0  0  0  0  0  0  0  0  0  0  0
   45.2520   35.8320   43.4650 C   0  0  0  0  0  0  0  0  0  0  0  0
   46.2510   34.9220   43.1980 C   0  0  0  0  0  0  0  0  0  0  0  0
   46.4980   33.9760   44.1310 N   0  0  0  0  0  0  0  0  0  0  0  0
   45.8050   33.9110   45.2890 C   0  0  0  0  0  0  0  0  0  0  0  0
   44.8380   34.7860   45.5570 N   0  0  0  0  0  0  0  0  0  0  0  0
   46.1410   32.8510   46.2490 C   0  0  0  0  0  0  0  0  0  0  0  0
   46.9730   31.7980   45.8770 C   0  0  0  0  0  0  0  0  0  0  0  0
   47.3170   30.7830   46.7400 C   0  0  0  0  0  0  0  0  0  0  0  0
   46.8510   30.7860   47.9810 N   0  0  0  0  0  0  0  0  0  0  0  0
   46.0300   31.8210   48.3510 C   0  0  0  0  0  0  0  0  0  0  0  0
   45.6660   32.8510   47.5170 N   0  0  0  0  0  0  0  0  0  0  0  0
   45.4290   32.0030   49.6320 N   0  0  0  0  0  0  0  0  0  0  0  0
   47.0580   34.8430   42.0000 C   0  0  0  0  0  0  0  0  0  0  0  0
   48.3130   35.4610   41.9180 C   0  0  0  0  0  0  0  0  0  0  0  0
   48.8690   35.2720   40.7100 N   0  0  0  0  0  0  0  0  0  0  0  0
   48.0430   34.5420   39.9440 C   0  0  0  0  0  0  0  0  0  0  0  0
   48.0650   34.0590   38.6570 C   0  0  0  0  0  0  0  0  0  0  0  0
   47.0300   33.3260   38.1180 C   0  0  0  0  0  0  0  0  0  0  0  0
   45.9420   33.0930   38.9460 C   0  0  0  0  0  0  0  0  0  0  0  0
   45.9260   33.5790   40.2320 C   0  0  0  0  0  0  0  0  0  0  0  0
   46.9620   34.3040   40.7570 C   0  0  0  0  0  0  0  0  0  0  0  0
   43.7509   36.4836   44.8658 H   0  0  0  0  0  0  0  0  0  0  0  0
   45.0143   36.6187   42.7338 H   0  0  0  0  0  0  0  0  0  0  0  0
   47.3713   31.7768   44.8518 H   0  0  0  0  0  0  0  0  0  0  0  0
   47.9771   29.9710   46.4009 H   0  0  0  0  0  0  0  0  0  0  0  0
   44.8256   32.8193   49.8065 H   0  0  0  0  0  0  0  0  0  0  0  0
   45.5985   31.3181   50.3824 H   0  0  0  0  0  0  0  0  0  0  0  0
   48.7818   36.0272   42.7364 H   0  0  0  0  0  0  0  0  0  0  0  0
   49.7883   35.6320   40.4164 H   0  0  0  0  0  0  0  0  0  0  0  0
   48.9456   34.2663   38.0313 H   0  0  0  0  0  0  0  0  0  0  0  0
   47.0649   32.9460   37.0863 H   0  0  0  0  0  0  0  0  0  0  0  0
   45.0849   32.5146   38.5707 H   0  0  0  0  0  0  0  0  0  0  0  0
   45.0477   33.3778   40.8629 H   0  0  0  0  0  0  0  0  0  0  0  0
  1  6  2  0
  2  1  1  0
  3  2  2  0
  3  4  1  0
  4  5  2  0
  5  6  1  0
  5  7  1  0
  7 12  1  0
  8  7  2  0
  8  9  1  0
  9 10  2  0
 10 11  1  0
 11 13  1  0
 12 11  2  0
 14  3  1  0
 15 14  2  0
 16 15  1  0
 17 16  1  0
 17 22  2  0
 18 17  1  0
 19 18  2  0
 19 20  1  0
 20 21  2  0
 21 22  1  0
 22 14  1  0
  1 23  1  0
  2 24  1  0
  8 25  1  0
  9 26  1  0
 13 27  1  0
 13 28  1  0
 15 29  1  0
 16 30  1  0
 18 31  1  0
 19 32  1  0
 20 33  1  0
 21 34  1  0
M  END
>  <minimizedAffinity>  (1) 
-7.53223515

>  <minimizedRMSD>  (1) 
0.867562652

$$$$
