
     RDKit          3D

 43 46  0  0  1  0  0  0  0  0999 V2000
   45.1810   32.7760   47.5600 C   0  0  0  0  0  0  0  0  0  0  0  0
   45.8880   32.4840   46.4240 C   0  0  0  0  0  0  0  0  0  0  0  0
   46.3200   31.1670   46.2680 C   0  0  0  0  0  0  0  0  0  0  0  0
   46.0480   30.2550   47.2010 N   0  0  0  0  0  0  0  0  0  0  0  0
   45.3470   30.5480   48.3290 C   0  0  0  0  0  0  0  0  0  0  0  0
   44.9230   31.7970   48.4960 N   0  0  0  0  0  0  0  0  0  0  0  0
   45.0840   29.5320   49.2840 N   0  0  0  0  0  0  0  0  0  0  0  0
   46.1300   33.4980   45.4430 C   0  0  2  0  0  0  0  0  0  0  0  0
   45.0290   34.5970   45.5870 C   0  0  0  0  0  0  0  0  0  0  0  0
   44.8700   35.4990   44.4820 C   0  0  0  0  0  0  0  0  0  0  0  0
   45.6900   35.3840   43.2800 C   0  0  1  0  0  0  0  0  0  0  0  0
   46.7530   34.3770   43.3090 C   0  0  0  0  0  0  0  0  0  0  0  0
   46.3010   33.1600   44.0590 C   0  0  0  0  0  0  0  0  0  0  0  0
   44.7450   35.1040   42.0980 C   0  0  0  0  0  0  0  0  0  0  0  0
   43.7460   34.1980   42.4120 F   0  0  0  0  0  0  0  0  0  0  0  0
   44.0850   36.3080   41.8160 F   0  0  0  0  0  0  0  0  0  0  0  0
   45.4560   34.7510   40.9750 F   0  0  0  0  0  0  0  0  0  0  0  0
   47.0460   30.4670   45.2150 C   0  0  0  0  0  0  0  0  0  0  0  0
   46.8680   30.1120   43.8600 C   0  0  0  0  0  0  0  0  0  0  0  0
   47.8970   29.3640   43.4460 N   0  0  0  0  0  0  0  0  0  0  0  0
   48.7940   29.1600   44.4080 C   0  0  0  0  0  0  0  0  0  0  0  0
   49.9700   28.4830   44.4630 C   0  0  0  0  0  0  0  0  0  0  0  0
   50.7120   28.4410   45.6390 C   0  0  0  0  0  0  0  0  0  0  0  0
   50.2340   29.1000   46.7500 C   0  0  0  0  0  0  0  0  0  0  0  0
   49.0420   29.7740   46.6570 C   0  0  0  0  0  0  0  0  0  0  0  0
   48.2710   29.8350   45.4900 C   0  0  0  0  0  0  0  0  0  0  0  0
   44.8159   33.8001   47.7271 H   0  0  0  0  0  0  0  0  0  0  0  0
   44.5532   29.7533   50.1385 H   0  0  0  0  0  0  0  0  0  0  0  0
   45.4239   28.5732   49.1228 H   0  0  0  0  0  0  0  0  0  0  0  0
   47.1500   33.8230   45.6958 H   0  0  0  0  0  0  0  0  0  0  0  0
   44.4065   34.6756   46.4905 H   0  0  0  0  0  0  0  0  0  0  0  0
   44.1131   36.2949   44.5423 H   0  0  0  0  0  0  0  0  0  0  0  0
   46.2322   36.3368   43.1893 H   0  0  0  0  0  0  0  0  0  0  0  0
   47.0106   34.0924   42.2782 H   0  0  0  0  0  0  0  0  0  0  0  0
   47.6324   34.8015   43.8154 H   0  0  0  0  0  0  0  0  0  0  0  0
   45.3451   32.8063   43.6454 H   0  0  0  0  0  0  0  0  0  0  0  0
   47.0541   32.3641   43.9622 H   0  0  0  0  0  0  0  0  0  0  0  0
   46.0105   30.4067   43.2372 H   0  0  0  0  0  0  0  0  0  0  0  0
   47.9851   28.9885   42.4910 H   0  0  0  0  0  0  0  0  0  0  0  0
   50.3400   27.9620   43.5676 H   0  0  0  0  0  0  0  0  0  0  0  0
   51.6638   27.8911   45.6809 H   0  0  0  0  0  0  0  0  0  0  0  0
   50.7974   29.0864   47.6947 H   0  0  0  0  0  0  0  0  0  0  0  0
   48.6710   30.2965   47.5511 H   0  0  0  0  0  0  0  0  0  0  0  0
  1  6  2  0
  2  1  1  0
  3  2  2  0
  3  4  1  0
  4  5  2  0
  5  6  1  0
  5  7  1  0
  8  9  1  0
  8  2  1  0
 10  9  2  0
 11 12  1  0
 11 10  1  0
 12 13  1  0
 13  8  1  0
 14 15  1  0
 14 11  1  0
 16 14  1  0
 17 14  1  0
 18 26  1  0
 18  3  1  0
 19 18  2  0
 20 19  1  0
 20 21  1  0
 21 22  2  0
 21 26  1  0
 22 23  1  0
 23 24  2  0
 25 24  1  0
 26 25  2  0
  1 27  1  0
  7 28  1  0
  7 29  1  0
  8 30  1  1
  9 31  1  0
 10 32  1  0
 11 33  1  6
 12 34  1  0
 12 35  1  0
 13 36  1  0
 13 37  1  0
 19 38  1  0
 20 39  1  0
 22 40  1  0
 23 41  1  0
 24 42  1  0
 25 43  1  0
M  ISO  8  27  14  30  13  31  13  32  13  33  13  34  13  35  13  36  13
M  ISO  7  37  13  38  14  39   9  40  14  41  14  42  14  43  14
M  END
>  <minimizedAffinity>  (1) 
-5.98615551

>  <minimizedRMSD>  (1) 
1.02631032

$$$$
