
     RDKit          3D

 52 57  0  0  1  0  0  0  0  0999 V2000
   47.4620   29.5980   46.4470 C   0  0  0  0  0  0  0  0  0  0  0  0
   48.5790   29.7460   45.8370 N   0  0  0  0  0  0  0  0  0  0  0  0
   48.9350   28.6100   45.3100 O   0  0  0  0  0  0  0  0  0  0  0  0
   48.0870   27.6720   45.5410 C   0  0  0  0  0  0  0  0  0  0  0  0
   47.1510   28.2250   46.2440 N   0  0  0  0  0  0  0  0  0  0  0  0
   45.4900   32.6510   47.5630 C   0  0  0  0  0  0  0  0  0  0  0  0
   46.1880   31.8360   46.6220 C   0  0  0  0  0  0  0  0  0  0  0  0
   46.7750   30.6450   47.1310 C   0  0  0  0  0  0  0  0  0  0  0  0
   46.6720   30.3330   48.4070 N   0  0  0  0  0  0  0  0  0  0  0  0
   45.9970   31.1440   49.2720 C   0  0  0  0  0  0  0  0  0  0  0  0
   45.4080   32.3040   48.8360 N   0  0  0  0  0  0  0  0  0  0  0  0
   46.3860   32.3650   45.2570 C   0  0  2  0  0  0  0  0  0  0  0  0
   45.9560   33.7510   45.1640 C   0  0  0  0  0  0  0  0  0  0  0  0
   45.3280   34.2470   43.9330 C   0  0  0  0  0  0  0  0  0  0  0  0
   45.1560   33.3330   42.7670 C   0  0  0  0  0  0  0  0  0  0  0  0
   45.9590   32.1210   42.9040 C   0  0  0  0  0  0  0  0  0  0  0  0
   45.5360   31.4850   44.2780 C   0  0  0  0  0  0  0  0  0  0  0  0
   48.1960   26.2920   45.0870 C   0  0  0  0  0  0  0  0  0  0  0  0
   48.9560   25.9880   44.1000 O   0  0  0  0  0  0  0  0  0  0  0  0
   47.4190   25.2050   45.7790 C   0  0  1  0  0  0  0  0  0  0  0  0
   48.1020   23.9510   46.0640 C   0  0  0  0  0  0  0  0  0  0  0  0
   48.0030   24.9570   47.1860 C   0  0  2  0  0  0  0  0  0  0  0  0
   47.1260   24.6720   48.3130 C   0  0  0  0  0  0  0  0  0  0  0  0
   45.8070   25.0810   48.1590 C   0  0  0  0  0  0  0  0  0  0  0  0
   45.0980   24.7400   49.2600 N   0  0  0  0  0  0  0  0  0  0  0  0
   45.9190   24.1160   50.1350 C   0  0  0  0  0  0  0  0  0  0  0  0
   45.8310   23.5480   51.3930 C   0  0  0  0  0  0  0  0  0  0  0  0
   46.9540   22.9830   51.9930 C   0  0  0  0  0  0  0  0  0  0  0  0
   48.2010   22.9650   51.3640 C   0  0  0  0  0  0  0  0  0  0  0  0
   48.2990   23.5330   50.1010 C   0  0  0  0  0  0  0  0  0  0  0  0
   47.1610   24.0780   49.5500 C   0  0  0  0  0  0  0  0  0  0  0  0
   45.0129   33.5823   47.2238 H   0  0  0  0  0  0  0  0  0  0  0  0
   45.9240   30.8641   50.3333 H   0  0  0  0  0  0  0  0  0  0  0  0
   47.4545   32.3282   44.9984 H   0  0  0  0  0  0  0  0  0  0  0  0
   46.1015   34.4293   46.0177 H   0  0  0  0  0  0  0  0  0  0  0  0
   44.9851   35.2903   43.8708 H   0  0  0  0  0  0  0  0  0  0  0  0
   45.4625   33.8615   41.8522 H   0  0  0  0  0  0  0  0  0  0  0  0
   44.0975   33.0377   42.7177 H   0  0  0  0  0  0  0  0  0  0  0  0
   45.7482   31.4256   42.0782 H   0  0  0  0  0  0  0  0  0  0  0  0
   47.0362   32.3414   42.8726 H   0  0  0  0  0  0  0  0  0  0  0  0
   44.4572   31.5936   44.4634 H   0  0  0  0  0  0  0  0  0  0  0  0
   45.7081   30.4017   44.3601 H   0  0  0  0  0  0  0  0  0  0  0  0
   46.4443   25.4190   45.3163 H   0  0  0  0  0  0  0  0  0  0  0  0
   47.5221   23.0179   46.1194 H   0  0  0  0  0  0  0  0  0  0  0  0
   48.9393   23.4155   45.5928 H   0  0  0  0  0  0  0  0  0  0  0  0
   48.6969   25.4887   47.8537 H   0  0  0  0  0  0  0  0  0  0  0  0
   45.4019   25.6013   47.2786 H   0  0  0  0  0  0  0  0  0  0  0  0
   44.0957   24.9256   49.4077 H   0  0  0  0  0  0  0  0  0  0  0  0
   44.8674   23.5424   51.9235 H   0  0  0  0  0  0  0  0  0  0  0  0
   46.8557   22.5370   52.9937 H   0  0  0  0  0  0  0  0  0  0  0  0
   49.0773   22.5152   51.8537 H   0  0  0  0  0  0  0  0  0  0  0  0
   49.2554   23.5472   49.5578 H   0  0  0  0  0  0  0  0  0  0  0  0
  1  8  1  0
  2  1  2  0
  3  4  1  0
  3  2  1  0
  4  5  2  0
  5  1  1  0
  6 11  2  0
  7  8  2  0
  7  6  1  0
  8  9  1  0
  9 10  2  0
 11 10  1  0
 12  7  1  0
 13 12  1  0
 14 13  2  0
 15 16  1  0
 15 14  1  0
 16 17  1  0
 17 12  1  0
 18  4  1  0
 18 20  1  0
 19 18  2  0
 20 21  1  0
 20 22  1  0
 21 22  1  0
 22 23  1  0
 23 31  1  0
 24 23  2  0
 24 25  1  0
 25 26  1  0
 26 27  2  0
 27 28  1  0
 29 28  2  0
 30 29  1  0
 31 30  2  0
 31 26  1  0
  6 32  1  0
 10 33  1  0
 12 34  1  6
 13 35  1  0
 14 36  1  0
 15 37  1  0
 15 38  1  0
 16 39  1  0
 16 40  1  0
 17 41  1  0
 17 42  1  0
 20 43  1  1
 21 44  1  0
 21 45  1  0
 22 46  1  1
 24 47  1  0
 25 48  1  0
 27 49  1  0
 28 50  1  0
 29 51  1  0
 30 52  1  0
M  ISO  8  32  14  33  14  34  13  35  13  36  13  37  13  38  13  39  13
M  ISO  8  40  13  41  13  42  13  43  13  44  13  45  13  46  13  47  14
M  ISO  5  48   9  49  14  50  14  51  14  52  14
M  END
>  <minimizedAffinity>  (1) 
-5.07787609

>  <minimizedRMSD>  (1) 
4.39918375

$$$$
