
     RDKit          3D

 58 62  0  0  1  0  0  0  0  0999 V2000
   43.1300   33.6190   39.2680 C   0  0  0  0  0  0  0  0  0  0  0  0
   44.9680   34.6220   42.3030 C   0  0  2  0  0  0  0  0  0  0  0  0
   43.7950   33.7860   41.6620 C   0  0  0  0  0  0  0  0  0  0  0  0
   44.0230   34.2930   40.2320 C   0  0  1  0  0  0  0  0  0  0  0  0
   45.4890   34.0310   40.0960 C   0  0  0  0  0  0  0  0  0  0  0  0
   46.0850   34.2520   41.4880 C   0  0  0  0  0  0  0  0  0  0  0  0
   44.4600   35.4940   44.5180 C   0  0  0  0  0  0  0  0  0  0  0  0
   45.0060   34.4820   43.7480 C   0  0  0  0  0  0  0  0  0  0  0  0
   45.6200   33.3260   44.3600 C   0  0  0  0  0  0  0  0  0  0  0  0
   45.6420   33.2690   45.7210 N   0  0  0  0  0  0  0  0  0  0  0  0
   45.0890   34.2940   46.4710 C   0  0  0  0  0  0  0  0  0  0  0  0
   44.5060   35.3910   45.8860 N   0  0  0  0  0  0  0  0  0  0  0  0
   43.8610   33.2870   38.0030 C   0  0  0  0  0  0  0  0  0  0  0  0
   42.7640   32.2860   39.9070 C   0  0  0  0  0  0  0  0  0  0  0  0
   41.8760   34.3630   39.0550 C   0  0  0  0  0  0  0  0  0  0  0  0
   40.8000   33.4090   38.5560 C   0  0  2  0  0  0  0  0  0  0  0  0
   39.5240   33.8840   38.0080 C   0  0  0  0  0  0  0  0  0  0  0  0
   39.4930   33.3970   39.4230 C   0  0  1  0  0  0  0  0  0  0  0  0
   38.7870   32.1180   39.5810 C   0  0  0  0  0  0  0  0  0  0  0  0
   38.2890   31.9920   40.8840 C   0  0  0  0  0  0  0  0  0  0  0  0
   37.6160   30.8400   41.2920 C   0  0  0  0  0  0  0  0  0  0  0  0
   37.4310   29.7950   40.3910 C   0  0  0  0  0  0  0  0  0  0  0  0
   37.9170   29.9150   39.1090 C   0  0  0  0  0  0  0  0  0  0  0  0
   37.7800   28.9470   38.1310 C   0  0  0  0  0  0  0  0  0  0  0  0
   38.2870   29.1480   36.8570 C   0  0  0  0  0  0  0  0  0  0  0  0
   38.9540   30.3250   36.4980 C   0  0  0  0  0  0  0  0  0  0  0  0
   39.0900   31.2840   37.4670 C   0  0  0  0  0  0  0  0  0  0  0  0
   38.5780   31.0590   38.7260 C   0  0  0  0  0  0  0  0  0  0  0  0
   44.8905   35.7190   42.2794 H   0  0  0  0  0  0  0  0  0  0  0  0
   43.9411   32.7001   41.7591 H   0  0  0  0  0  0  0  0  0  0  0  0
   42.7896   33.9100   42.0907 H   0  0  0  0  0  0  0  0  0  0  0  0
   43.7748   35.3447   40.0261 H   0  0  0  0  0  0  0  0  0  0  0  0
   45.6638   32.9968   39.7647 H   0  0  0  0  0  0  0  0  0  0  0  0
   45.9503   34.6938   39.3491 H   0  0  0  0  0  0  0  0  0  0  0  0
   46.5503   33.3283   41.8626 H   0  0  0  0  0  0  0  0  0  0  0  0
   46.8739   35.0185   41.4877 H   0  0  0  0  0  0  0  0  0  0  0  0
   43.9954   36.3691   44.0402 H   0  0  0  0  0  0  0  0  0  0  0  0
   46.0541   32.5209   43.7489 H   0  0  0  0  0  0  0  0  0  0  0  0
   45.1178   34.2271   47.5686 H   0  0  0  0  0  0  0  0  0  0  0  0
   44.8371   32.8437   38.2492 H   0  0  0  0  0  0  0  0  0  0  0  0
   43.2699   32.5690   37.4156 H   0  0  0  0  0  0  0  0  0  0  0  0
   44.0127   34.2046   37.4156 H   0  0  0  0  0  0  0  0  0  0  0  0
   42.7911   32.3847   41.0022 H   0  0  0  0  0  0  0  0  0  0  0  0
   41.7522   31.9930   39.5902 H   0  0  0  0  0  0  0  0  0  0  0  0
   43.4844   31.5174   39.5902 H   0  0  0  0  0  0  0  0  0  0  0  0
   41.5529   34.8167   40.0036 H   0  0  0  0  0  0  0  0  0  0  0  0
   42.0405   35.1538   38.3083 H   0  0  0  0  0  0  0  0  0  0  0  0
   41.5492   32.6997   38.1744 H   0  0  0  0  0  0  0  0  0  0  0  0
   39.3910   34.9567   37.8042 H   0  0  0  0  0  0  0  0  0  0  0  0
   38.9464   33.6251   37.1084 H   0  0  0  0  0  0  0  0  0  0  0  0
   39.2256   33.7816   40.4183 H   0  0  0  0  0  0  0  0  0  0  0  0
   38.4311   32.8162   41.5985 H   0  0  0  0  0  0  0  0  0  0  0  0
   37.2336   30.7579   42.3201 H   0  0  0  0  0  0  0  0  0  0  0  0
   36.9014   28.8820   40.7008 H   0  0  0  0  0  0  0  0  0  0  0  0
   37.2621   28.0057   38.3672 H   0  0  0  0  0  0  0  0  0  0  0  0
   38.1611   28.3567   36.1033 H   0  0  0  0  0  0  0  0  0  0  0  0
   39.3513   30.4734   35.4831 H   0  0  0  0  0  0  0  0  0  0  0  0
   39.6055   32.2290   37.2408 H   0  0  0  0  0  0  0  0  0  0  0  0
  1 14  1  0
  1  4  1  0
  2  8  1  0
  3  2  1  0
  4  3  1  0
  5  4  1  0
  5  6  1  0
  6  2  1  0
  7 12  2  0
  8  9  2  0
  8  7  1  0
  9 10  1  0
 10 11  2  0
 12 11  1  0
 13  1  1  0
 15  1  1  0
 16 15  1  0
 16 18  1  0
 17 16  1  0
 17 18  1  0
 18 19  1  0
 19 20  2  0
 20 21  1  0
 22 21  2  0
 23 22  1  0
 24 23  2  0
 25 24  1  0
 26 25  2  0
 26 27  1  0
 27 28  2  0
 28 23  1  0
 28 19  1  0
  2 29  1  1
  3 30  1  0
  3 31  1  0
  4 32  1  1
  5 33  1  0
  5 34  1  0
  6 35  1  0
  6 36  1  0
  7 37  1  0
  9 38  1  0
 11 39  1  0
 13 40  1  0
 13 41  1  0
 13 42  1  0
 14 43  1  0
 14 44  1  0
 14 45  1  0
 15 46  1  0
 15 47  1  0
 16 48  1  6
 17 49  1  0
 17 50  1  0
 18 51  1  1
 20 52  1  0
 21 53  1  0
 22 54  1  0
 24 55  1  0
 25 56  1  0
 26 57  1  0
 27 58  1  0
M  ISO  8  29  13  30  13  31  13  32  13  33  13  34  13  35  13  36  13
M  ISO  8  37  14  38  14  39  14  40   8  41   8  42   8  43   8  44   8
M  ISO  8  45   8  46   8  47   8  48  13  49  13  50  13  51  13  52  14
M  ISO  6  53  14  54  14  55  14  56  14  57  14  58  14
M  END
>  <minimizedAffinity>  (1) 
-6.30335617

>  <minimizedRMSD>  (1) 
3.46363664

$$$$
