
     RDKit          3D

 43 47  0  0  0  0  0  0  0  0999 V2000
   44.3060   35.6720   44.6330 C   0  0  0  0  0  0  0  0  0  0  0  0
   44.9540   35.3670   43.4300 C   0  0  0  0  0  0  0  0  0  0  0  0
   45.9480   34.3830   43.4670 C   0  0  0  0  0  0  0  0  0  0  0  0
   46.2110   33.7940   44.6680 N   0  0  0  0  0  0  0  0  0  0  0  0
   45.5700   34.1110   45.7900 C   0  0  0  0  0  0  0  0  0  0  0  0
   44.6240   35.0430   45.7790 N   0  0  0  0  0  0  0  0  0  0  0  0
   44.6160   36.0500   42.1530 C   0  0  0  0  0  0  0  0  0  0  0  0
   43.4160   35.3850   41.4960 C   0  0  0  0  0  0  0  0  0  0  0  0
   43.5780   34.5860   40.3920 C   0  0  0  0  0  0  0  0  0  0  0  0
   41.8710   34.0530   40.0120 S   0  0  0  0  0  0  0  0  0  0  0  0
   41.2210   35.0730   41.5080 C   0  0  0  0  0  0  0  0  0  0  0  0
   42.1890   35.5130   41.9080 N   0  0  0  0  0  0  0  0  0  0  0  0
   46.8290   33.9260   42.0150 S   0  0  0  0  0  0  0  0  0  0  0  0
   48.4450   33.6230   42.1330 C   0  0  0  0  0  0  0  0  0  0  0  0
   49.7010   34.1800   42.3330 C   0  0  0  0  0  0  0  0  0  0  0  0
   50.8760   33.4800   42.3540 C   0  0  0  0  0  0  0  0  0  0  0  0
   50.7940   32.0980   42.1590 C   0  0  0  0  0  0  0  0  0  0  0  0
   48.9570   31.8490   41.9410 S   0  0  0  0  0  0  0  0  0  0  0  0
   51.6100   30.9950   42.0350 C   0  0  0  0  0  0  0  0  0  0  0  0
   51.6420   30.0840   43.0810 C   0  0  0  0  0  0  0  0  0  0  0  0
   52.4400   28.9380   43.0790 C   0  0  0  0  0  0  0  0  0  0  0  0
   53.2450   28.6760   41.9980 C   0  0  0  0  0  0  0  0  0  0  0  0
   53.2670   29.5370   40.9250 C   0  0  0  0  0  0  0  0  0  0  0  0
   54.1080   29.2640   39.8700 C   0  0  0  0  0  0  0  0  0  0  0  0
   54.1670   30.1380   38.8040 C   0  0  0  0  0  0  0  0  0  0  0  0
   53.3430   31.2680   38.8830 C   0  0  0  0  0  0  0  0  0  0  0  0
   52.5340   31.4790   39.9510 C   0  0  0  0  0  0  0  0  0  0  0  0
   52.4500   30.6340   41.0200 C   0  0  0  0  0  0  0  0  0  0  0  0
   43.5205   36.4420   44.6414 H   0  0  0  0  0  0  0  0  0  0  0  0
   45.8245   33.5994   46.7299 H   0  0  0  0  0  0  0  0  0  0  0  0
   44.3787   37.1044   42.3579 H   0  0  0  0  0  0  0  0  0  0  0  0
   45.4780   35.9812   41.4731 H   0  0  0  0  0  0  0  0  0  0  0  0
   44.5083   34.3289   39.8643 H   0  0  0  0  0  0  0  0  0  0  0  0
   40.1918   35.1966   41.8761 H   0  0  0  0  0  0  0  0  0  0  0  0
   49.7553   35.2679   42.4864 H   0  0  0  0  0  0  0  0  0  0  0  0
   51.8414   33.9815   42.5169 H   0  0  0  0  0  0  0  0  0  0  0  0
   51.0055   30.2744   43.9577 H   0  0  0  0  0  0  0  0  0  0  0  0
   52.4238   28.2502   43.9373 H   0  0  0  0  0  0  0  0  0  0  0  0
   53.8748   27.7742   41.9898 H   0  0  0  0  0  0  0  0  0  0  0  0
   54.7285   28.3557   39.8768 H   0  0  0  0  0  0  0  0  0  0  0  0
   54.8242   29.9575   37.9406 H   0  0  0  0  0  0  0  0  0  0  0  0
   53.3522   31.9996   38.0616 H   0  0  0  0  0  0  0  0  0  0  0  0
   51.9089   32.3841   39.9561 H   0  0  0  0  0  0  0  0  0  0  0  0
  1  6  2  0
  2  3  2  0
  2  1  1  0
  3  4  1  0
  4  5  2  0
  6  5  1  0
  7  2  1  0
  8 12  1  0
  8  7  1  0
  9  8  2  0
 10  9  1  0
 10 11  1  0
 11 12  2  0
 13 14  1  0
 13  3  1  0
 14 15  2  0
 15 16  1  0
 17 16  2  0
 18 14  1  0
 18 17  1  0
 19 17  1  0
 19 20  2  0
 21 20  1  0
 22 21  2  0
 23 28  2  0
 23 22  1  0
 24 23  1  0
 25 26  1  0
 25 24  2  0
 26 27  2  0
 27 28  1  0
 28 19  1  0
  1 29  1  0
  5 30  1  0
  7 31  1  0
  7 32  1  0
  9 33  1  0
 11 34  1  0
 15 35  1  0
 16 36  1  0
 20 37  1  0
 21 38  1  0
 22 39  1  0
 24 40  1  0
 25 41  1  0
 26 42  1  0
 27 43  1  0
M  ISO  8  29  14  30  14  31   8  32   8  33  14  34  14  35  14  36  14
M  ISO  7  37  14  38  14  39  14  40  14  41  14  42  14  43  14
M  END
>  <minimizedAffinity>  (1) 
-5.70331383

>  <minimizedRMSD>  (1) 
1.49216282

$$$$
