
     RDKit          3D

 49 53  0  0  0  0  0  0  0  0999 V2000
   46.3960   34.6570   42.2010 C   0  0  0  0  0  0  0  0  0  0  0  0
   47.7080   35.0080   42.0660 C   0  0  0  0  0  0  0  0  0  0  0  0
   48.4110   34.8000   40.8760 C   0  0  0  0  0  0  0  0  0  0  0  0
   47.7630   34.2210   39.7880 C   0  0  0  0  0  0  0  0  0  0  0  0
   46.4480   33.8720   39.9280 C   0  0  0  0  0  0  0  0  0  0  0  0
   45.7830   34.0900   41.1200 C   0  0  0  0  0  0  0  0  0  0  0  0
   44.4270   33.7150   41.2220 N   0  0  0  0  0  0  0  0  0  0  0  0
   43.6070   34.6610   40.6890 C   0  0  0  0  0  0  0  0  0  0  0  0
   42.2180   34.4990   40.6820 C   0  0  0  0  0  0  0  0  0  0  0  0
   41.7120   33.3340   41.2420 C   0  0  0  0  0  0  0  0  0  0  0  0
   40.4670   33.1390   41.2620 O   0  0  0  0  0  0  0  0  0  0  0  0
   42.5460   32.4280   41.7560 N   0  0  0  0  0  0  0  0  0  0  0  0
   43.8710   32.6000   41.7540 C   0  0  0  0  0  0  0  0  0  0  0  0
   44.7320   31.7990   42.2160 O   0  0  0  0  0  0  0  0  0  0  0  0
   41.3080   35.5310   40.1020 C   0  0  0  0  0  0  0  0  0  0  0  0
   44.4160   36.1280   45.0380 C   0  0  0  0  0  0  0  0  0  0  0  0
   44.9750   36.0100   43.7780 C   0  0  0  0  0  0  0  0  0  0  0  0
   45.7450   34.9160   43.4820 C   0  0  0  0  0  0  0  0  0  0  0  0
   45.9010   34.0200   44.4610 N   0  0  0  0  0  0  0  0  0  0  0  0
   45.3640   34.1170   45.6940 C   0  0  0  0  0  0  0  0  0  0  0  0
   44.6200   35.1910   45.9570 N   0  0  0  0  0  0  0  0  0  0  0  0
   45.7170   32.9750   46.5460 C   0  0  0  0  0  0  0  0  0  0  0  0
   45.2550   32.8780   47.8410 C   0  0  0  0  0  0  0  0  0  0  0  0
   45.5530   31.8320   48.6840 C   0  0  0  0  0  0  0  0  0  0  0  0
   46.3450   30.8060   48.2660 C   0  0  0  0  0  0  0  0  0  0  0  0
   46.8350   30.8500   46.9850 C   0  0  0  0  0  0  0  0  0  0  0  0
   47.6300   29.8230   46.5610 C   0  0  0  0  0  0  0  0  0  0  0  0
   48.1640   29.7970   45.2760 C   0  0  0  0  0  0  0  0  0  0  0  0
   47.8370   30.8790   44.4500 C   0  0  0  0  0  0  0  0  0  0  0  0
   47.0310   31.8900   44.9250 C   0  0  0  0  0  0  0  0  0  0  0  0
   46.5090   31.9150   46.1820 C   0  0  0  0  0  0  0  0  0  0  0  0
   48.2277   35.4683   42.9192 H   0  0  0  0  0  0  0  0  0  0  0  0
   49.4689   35.0917   40.7995 H   0  0  0  0  0  0  0  0  0  0  0  0
   48.2948   34.0488   38.8406 H   0  0  0  0  0  0  0  0  0  0  0  0
   45.9139   33.4129   39.0830 H   0  0  0  0  0  0  0  0  0  0  0  0
   44.0455   35.5716   40.2548 H   0  0  0  0  0  0  0  0  0  0  0  0
   42.1557   31.5683   42.1676 H   0  0  0  0  0  0  0  0  0  0  0  0
   40.8181   36.0866   40.9152 H   0  0  0  0  0  0  0  0  0  0  0  0
   41.8914   36.2274   39.4817 H   0  0  0  0  0  0  0  0  0  0  0  0
   40.5441   35.0393   39.4817 H   0  0  0  0  0  0  0  0  0  0  0  0
   43.7977   37.0048   45.2807 H   0  0  0  0  0  0  0  0  0  0  0  0
   44.8027   36.7882   43.0199 H   0  0  0  0  0  0  0  0  0  0  0  0
   44.6106   33.6836   48.2228 H   0  0  0  0  0  0  0  0  0  0  0  0
   45.1472   31.8245   49.7064 H   0  0  0  0  0  0  0  0  0  0  0  0
   46.5848   29.9668   48.9355 H   0  0  0  0  0  0  0  0  0  0  0  0
   47.8534   28.9967   47.2519 H   0  0  0  0  0  0  0  0  0  0  0  0
   48.8060   28.9738   44.9294 H   0  0  0  0  0  0  0  0  0  0  0  0
   48.2239   30.9218   43.4212 H   0  0  0  0  0  0  0  0  0  0  0  0
   46.7955   32.7256   44.2495 H   0  0  0  0  0  0  0  0  0  0  0  0
  1 18  1  0
  2  1  2  0
  3  2  1  0
  4  5  1  0
  4  3  2  0
  5  6  2  0
  6  7  1  0
  6  1  1  0
  7 13  1  0
  8  7  1  0
  9  8  2  0
  9 10  1  0
 10 11  2  0
 10 12  1  0
 13 12  1  0
 13 14  2  0
 15  9  1  0
 16 21  2  0
 17 16  1  0
 18 17  2  0
 18 19  1  0
 19 20  2  0
 20 21  1  0
 20 22  1  0
 22 23  2  0
 23 24  1  0
 25 24  2  0
 26 25  1  0
 27 26  2  0
 28 27  1  0
 29 30  1  0
 29 28  2  0
 30 31  2  0
 31 22  1  0
 31 26  1  0
  2 32  1  0
  3 33  1  0
  4 34  1  0
  5 35  1  0
  8 36  1  0
 12 37  1  0
 15 38  1  0
 15 39  1  0
 15 40  1  0
 16 41  1  0
 17 42  1  0
 23 43  1  0
 24 44  1  0
 25 45  1  0
 27 46  1  0
 28 47  1  0
 29 48  1  0
 30 49  1  0
M  ISO  8  32  14  33  14  34  14  35  14  36  14  37   9  38   8  39   8
M  ISO  8  40   8  41  14  42  14  43  14  44  14  45  14  46  14  47  14
M  ISO  2  48  14  49  14
M  END
>  <minimizedAffinity>  (1) 
-8.49706268

>  <minimizedRMSD>  (1) 
0.278485715

$$$$
