
     RDKit          3D

 33 36  0  0  0  0  0  0  0  0999 V2000
   43.9640   34.2260   41.7560 N   0  0  0  0  0  0  0  0  0  0  0  0
   44.5990   34.1270   40.6020 C   0  0  0  0  0  0  0  0  0  0  0  0
   43.6500   34.1840   39.5760 C   0  0  0  0  0  0  0  0  0  0  0  0
   42.4440   34.3220   40.1410 N   0  0  0  0  0  0  0  0  0  0  0  0
   42.6300   34.3490   41.4920 C   0  0  0  0  0  0  0  0  0  0  0  0
   45.9930   33.9480   40.2490 C   0  0  0  0  0  0  0  0  0  0  0  0
   46.9050   34.7060   41.0020 C   0  0  0  0  0  0  0  0  0  0  0  0
   48.2740   34.6780   40.8440 C   0  0  0  0  0  0  0  0  0  0  0  0
   48.8060   33.8630   39.8930 C   0  0  0  0  0  0  0  0  0  0  0  0
   47.9600   33.1110   39.1450 C   0  0  0  0  0  0  0  0  0  0  0  0
   48.4030   32.2300   38.1580 C   0  0  0  0  0  0  0  0  0  0  0  0
   47.5510   31.4330   37.3860 C   0  0  0  0  0  0  0  0  0  0  0  0
   46.1710   31.5140   37.6050 C   0  0  0  0  0  0  0  0  0  0  0  0
   45.7370   32.3830   38.5790 C   0  0  0  0  0  0  0  0  0  0  0  0
   46.6100   33.1480   39.3130 C   0  0  0  0  0  0  0  0  0  0  0  0
   44.3100   35.3670   43.8300 C   0  0  0  0  0  0  0  0  0  0  0  0
   44.4670   34.1830   43.0610 C   0  0  0  0  0  0  0  0  0  0  0  0
   45.0960   33.0760   43.6600 C   0  0  0  0  0  0  0  0  0  0  0  0
   45.5250   33.1990   44.9520 N   0  0  0  0  0  0  0  0  0  0  0  0
   45.3530   34.3570   45.6500 C   0  0  0  0  0  0  0  0  0  0  0  0
   44.7460   35.4410   45.0900 N   0  0  0  0  0  0  0  0  0  0  0  0
   43.8575   34.1258   38.4973 H   0  0  0  0  0  0  0  0  0  0  0  0
   41.8354   34.4529   42.2455 H   0  0  0  0  0  0  0  0  0  0  0  0
   46.4958   35.3720   41.7760 H   0  0  0  0  0  0  0  0  0  0  0  0
   48.9240   35.3025   41.4745 H   0  0  0  0  0  0  0  0  0  0  0  0
   49.8935   33.8151   39.7348 H   0  0  0  0  0  0  0  0  0  0  0  0
   49.4855   32.1579   37.9762 H   0  0  0  0  0  0  0  0  0  0  0  0
   47.9581   30.7553   36.6211 H   0  0  0  0  0  0  0  0  0  0  0  0
   45.4623   30.9075   37.0220 H   0  0  0  0  0  0  0  0  0  0  0  0
   44.6581   32.4677   38.7759 H   0  0  0  0  0  0  0  0  0  0  0  0
   43.8189   36.2414   43.3780 H   0  0  0  0  0  0  0  0  0  0  0  0
   45.2385   32.1376   43.1040 H   0  0  0  0  0  0  0  0  0  0  0  0
   45.7120   34.4179   46.6880 H   0  0  0  0  0  0  0  0  0  0  0  0
  1 17  1  0
  2  1  1  0
  3  4  1  0
  3  2  2  0
  4  5  2  0
  5  1  1  0
  6  2  1  0
  6  7  2  0
  8  7  1  0
  9  8  2  0
 10 15  2  0
 10  9  1  0
 11 10  1  0
 12 13  1  0
 12 11  2  0
 13 14  2  0
 14 15  1  0
 15  6  1  0
 16 21  2  0
 17 18  2  0
 17 16  1  0
 18 19  1  0
 19 20  2  0
 21 20  1  0
  3 22  1  0
  5 23  1  0
  7 24  1  0
  8 25  1  0
  9 26  1  0
 11 27  1  0
 12 28  1  0
 13 29  1  0
 14 30  1  0
 16 31  1  0
 18 32  1  0
 20 33  1  0
M  ISO  8  22  14  23  14  24  14  25  14  26  14  27  14  28  14  29  14
M  ISO  4  30  14  31  14  32  14  33  14
M  END
>  <minimizedAffinity>  (1) 
-4.470788

>  <minimizedRMSD>  (1) 
1.81831253

$$$$
