
     RDKit          3D

 38 42  0  0  0  0  0  0  0  0999 V2000
   44.6000   35.9540   44.4360 C   0  0  0  0  0  0  0  0  0  0  0  0
   45.4770   35.6510   43.4100 C   0  0  0  0  0  0  0  0  0  0  0  0
   46.3520   34.5460   43.5460 C   0  0  0  0  0  0  0  0  0  0  0  0
   46.2400   33.8420   44.7440 N   0  0  0  0  0  0  0  0  0  0  0  0
   45.3770   34.1750   45.6990 C   0  0  0  0  0  0  0  0  0  0  0  0
   44.5650   35.2240   45.5460 N   0  0  0  0  0  0  0  0  0  0  0  0
   47.2730   34.0110   42.6040 C   0  0  0  0  0  0  0  0  0  0  0  0
   48.6060   33.9080   43.0340 C   0  0  0  0  0  0  0  0  0  0  0  0
   49.6450   33.4270   42.2720 C   0  0  0  0  0  0  0  0  0  0  0  0
   49.4000   33.0050   40.9860 C   0  0  0  0  0  0  0  0  0  0  0  0
   48.1200   33.0750   40.4870 C   0  0  0  0  0  0  0  0  0  0  0  0
   47.8380   32.6960   39.1930 C   0  0  0  0  0  0  0  0  0  0  0  0
   46.5530   32.7940   38.6510 C   0  0  0  0  0  0  0  0  0  0  0  0
   45.5670   33.3040   39.5060 C   0  0  0  0  0  0  0  0  0  0  0  0
   45.8940   33.6610   40.7670 C   0  0  0  0  0  0  0  0  0  0  0  0
   47.1460   33.5680   41.3150 C   0  0  0  0  0  0  0  0  0  0  0  0
   45.3170   33.1980   47.1910 S   0  0  0  0  0  0  0  0  0  0  0  0
   49.0310   30.2250   48.3390 N   0  0  0  0  0  0  0  0  0  0  0  0
   48.9200   31.3490   49.0670 C   0  0  0  0  0  0  0  0  0  0  0  0
   47.8750   32.0660   48.6550 N   0  0  0  0  0  0  0  0  0  0  0  0
   47.2690   31.4190   47.6340 C   0  0  0  0  0  0  0  0  0  0  0  0
   46.1630   31.6510   46.8080 C   0  0  0  0  0  0  0  0  0  0  0  0
   45.8460   30.7610   45.8650 N   0  0  0  0  0  0  0  0  0  0  0  0
   46.6220   29.6460   45.7400 C   0  0  0  0  0  0  0  0  0  0  0  0
   47.7040   29.3740   46.5160 N   0  0  0  0  0  0  0  0  0  0  0  0
   48.0060   30.2790   47.4580 C   0  0  0  0  0  0  0  0  0  0  0  0
   43.9207   36.8129   44.3314 H   0  0  0  0  0  0  0  0  0  0  0  0
   45.4945   36.2632   42.4963 H   0  0  0  0  0  0  0  0  0  0  0  0
   48.8366   34.2370   44.0580 H   0  0  0  0  0  0  0  0  0  0  0  0
   50.6626   33.3802   42.6872 H   0  0  0  0  0  0  0  0  0  0  0  0
   50.2189   32.6157   40.3632 H   0  0  0  0  0  0  0  0  0  0  0  0
   48.6512   32.3030   38.5650 H   0  0  0  0  0  0  0  0  0  0  0  0
   46.3299   32.4897   37.6177 H   0  0  0  0  0  0  0  0  0  0  0  0
   44.5313   33.4132   39.1519 H   0  0  0  0  0  0  0  0  0  0  0  0
   45.0907   34.0582   41.4049 H   0  0  0  0  0  0  0  0  0  0  0  0
   49.7410   29.4846   48.4315 H   0  0  0  0  0  0  0  0  0  0  0  0
   49.5955   31.6363   49.8863 H   0  0  0  0  0  0  0  0  0  0  0  0
   46.3542   28.9188   44.9593 H   0  0  0  0  0  0  0  0  0  0  0  0
  1  6  2  0
  2  3  2  0
  2  1  1  0
  3  4  1  0
  4  5  2  0
  5 17  1  0
  6  5  1  0
  7  8  2  0
  7  3  1  0
  9  8  1  0
 10  9  2  0
 11 10  1  0
 11 16  2  0
 12 11  1  0
 13 12  2  0
 13 14  1  0
 14 15  2  0
 15 16  1  0
 16  7  1  0
 18 19  1  0
 20 19  2  0
 21 20  1  0
 22 17  1  0
 22 21  2  0
 23 22  1  0
 24 23  2  0
 24 25  1  0
 25 26  2  0
 26 21  1  0
 26 18  1  0
  1 27  1  0
  2 28  1  0
  8 29  1  0
  9 30  1  0
 10 31  1  0
 12 32  1  0
 13 33  1  0
 14 34  1  0
 15 35  1  0
 18 36  1  0
 19 37  1  0
 24 38  1  0
M  ISO  8  27  14  28  14  29  14  30  14  31  14  32  14  33  14  34  14
M  ISO  4  35  14  36   9  37  14  38  14
M  END
>  <minimizedAffinity>  (1) 
-6.121696

>  <minimizedRMSD>  (1) 
0.839936018

$$$$
