
     RDKit          3D

 54 60  0  0  1  0  0  0  0  0999 V2000
   48.3510   30.5990   48.8350 N   0  0  0  0  0  0  0  0  0  0  0  0
   49.2600   30.8030   49.8440 C   0  0  0  0  0  0  0  0  0  0  0  0
   49.9680   29.6320   49.9970 C   0  0  0  0  0  0  0  0  0  0  0  0
   49.4790   28.7370   49.0800 N   0  0  0  0  0  0  0  0  0  0  0  0
   48.5070   29.3350   48.3910 C   0  0  0  0  0  0  0  0  0  0  0  0
   46.3240   32.7310   46.8650 C   0  0  0  0  0  0  0  0  0  0  0  0
   45.5040   32.6310   47.9710 C   0  0  0  0  0  0  0  0  0  0  0  0
   46.1910   31.8050   48.8420 C   0  0  0  0  0  0  0  0  0  0  0  0
   47.3700   31.4440   48.2500 C   0  0  0  0  0  0  0  0  0  0  0  0
   47.3680   32.0310   47.0930 O   0  0  0  0  0  0  0  0  0  0  0  0
   46.6440   34.0860   43.5900 C   0  0  0  0  0  0  0  0  0  0  0  0
   45.5150   34.7470   44.0510 C   0  0  0  0  0  0  0  0  0  0  0  0
   45.2580   34.3100   45.3490 C   0  0  0  0  0  0  0  0  0  0  0  0
   46.2310   33.4080   45.6320 N   0  0  0  0  0  0  0  0  0  0  0  0
   47.0600   33.2580   44.6090 N   0  0  0  0  0  0  0  0  0  0  0  0
   48.6840   35.4050   40.8310 C   0  0  0  0  0  0  0  0  0  0  0  0
   48.1330   34.7390   39.7280 C   0  0  0  0  0  0  0  0  0  0  0  0
   47.0700   33.8450   39.9390 C   0  0  0  0  0  0  0  0  0  0  0  0
   46.6110   33.6610   41.2280 N   0  0  0  0  0  0  0  0  0  0  0  0
   47.1780   34.3270   42.2440 C   0  0  0  0  0  0  0  0  0  0  0  0
   48.1840   35.1760   42.0660 N   0  0  0  0  0  0  0  0  0  0  0  0
   47.7440   28.6180   47.2970 C   0  0  1  0  0  0  0  0  0  0  0  0
   47.6300   27.0890   47.5060 C   0  0  0  0  0  0  0  0  0  0  0  0
   46.4360   28.0110   47.5900 C   0  0  2  0  0  0  0  0  0  0  0  0
   45.4960   27.8260   46.4560 C   0  0  0  0  0  0  0  0  0  0  0  0
   45.8430   28.4530   45.2530 C   0  0  0  0  0  0  0  0  0  0  0  0
   45.0690   28.3160   44.1060 C   0  0  0  0  0  0  0  0  0  0  0  0
   43.9230   27.5520   44.1140 C   0  0  0  0  0  0  0  0  0  0  0  0
   43.5690   26.9300   45.2900 C   0  0  0  0  0  0  0  0  0  0  0  0
   42.4150   26.1510   45.3800 C   0  0  0  0  0  0  0  0  0  0  0  0
   42.0240   25.5210   46.5670 C   0  0  0  0  0  0  0  0  0  0  0  0
   42.8420   25.6970   47.6870 C   0  0  0  0  0  0  0  0  0  0  0  0
   43.9770   26.4710   47.5740 C   0  0  0  0  0  0  0  0  0  0  0  0
   44.3460   27.0760   46.4160 C   0  0  0  0  0  0  0  0  0  0  0  0
   49.3969   31.7289   50.4220 H   0  0  0  0  0  0  0  0  0  0  0  0
   50.7760   29.4484   50.7205 H   0  0  0  0  0  0  0  0  0  0  0  0
   44.5226   33.1032   48.1253 H   0  0  0  0  0  0  0  0  0  0  0  0
   45.8482   31.4922   49.8393 H   0  0  0  0  0  0  0  0  0  0  0  0
   44.9255   35.4870   43.4899 H   0  0  0  0  0  0  0  0  0  0  0  0
   44.4369   34.6299   46.0073 H   0  0  0  0  0  0  0  0  0  0  0  0
   49.5176   36.1093   40.6929 H   0  0  0  0  0  0  0  0  0  0  0  0
   48.5257   34.9130   38.7153 H   0  0  0  0  0  0  0  0  0  0  0  0
   46.6140   33.3041   39.0967 H   0  0  0  0  0  0  0  0  0  0  0  0
   48.0853   29.3077   46.5110 H   0  0  0  0  0  0  0  0  0  0  0  0
   47.7433   26.4008   46.6554 H   0  0  0  0  0  0  0  0  0  0  0  0
   48.1014   26.3417   48.1612 H   0  0  0  0  0  0  0  0  0  0  0  0
   45.6665   28.2481   48.3394 H   0  0  0  0  0  0  0  0  0  0  0  0
   46.7524   29.0706   45.2143 H   0  0  0  0  0  0  0  0  0  0  0  0
   45.3760   28.8244   43.1801 H   0  0  0  0  0  0  0  0  0  0  0  0
   43.3090   27.4421   43.2079 H   0  0  0  0  0  0  0  0  0  0  0  0
   41.7888   26.0273   44.4841 H   0  0  0  0  0  0  0  0  0  0  0  0
   41.1095   24.9117   46.6167 H   0  0  0  0  0  0  0  0  0  0  0  0
   42.5833   25.2240   48.6458 H   0  0  0  0  0  0  0  0  0  0  0  0
   44.6123   26.6045   48.4620 H   0  0  0  0  0  0  0  0  0  0  0  0
  1  2  1  0
  2  3  2  0
  4  3  1  0
  5  1  1  0
  5  4  2  0
  6 10  1  0
  6  7  2  0
  7  8  1  0
  9  1  1  0
  9  8  2  0
 10  9  1  0
 11 12  1  0
 11 15  2  0
 12 13  2  0
 13 14  1  0
 14  6  1  0
 15 14  1  0
 16 21  2  0
 17 18  2  0
 17 16  1  0
 18 19  1  0
 19 20  2  0
 20 11  1  0
 21 20  1  0
 22 23  1  0
 22 24  1  0
 22  5  1  0
 23 24  1  0
 25 24  1  0
 26 25  2  0
 27 28  2  0
 27 26  1  0
 28 29  1  0
 29 30  1  0
 29 34  2  0
 30 31  2  0
 31 32  1  0
 33 32  2  0
 34 25  1  0
 34 33  1  0
  2 35  1  0
  3 36  1  0
  7 37  1  0
  8 38  1  0
 12 39  1  0
 13 40  1  0
 16 41  1  0
 17 42  1  0
 18 43  1  0
 22 44  1  6
 23 45  1  0
 23 46  1  0
 24 47  1  1
 26 48  1  0
 27 49  1  0
 28 50  1  0
 30 51  1  0
 31 52  1  0
 32 53  1  0
 33 54  1  0
M  ISO  8  35  14  36  14  37  14  38  14  39  14  40  14  41  14  42  14
M  ISO  8  43  14  44  13  45  13  46  13  47  13  48  14  49  14  50  14
M  ISO  4  51  14  52  14  53  14  54  14
M  END
>  <minimizedAffinity>  (1) 
-6.95075655

>  <minimizedRMSD>  (1) 
0.82505393

$$$$
