
     RDKit          3D

 41 45  0  0  0  0  0  0  0  0999 V2000
   45.2070   33.7640   41.0180 C   0  0  0  0  0  0  0  0  0  0  0  0
   44.9140   33.3700   42.3290 C   0  0  0  0  0  0  0  0  0  0  0  0
   45.8760   33.6180   43.3080 C   0  0  0  0  0  0  0  0  0  0  0  0
   47.0310   34.2360   42.8900 N   0  0  0  0  0  0  0  0  0  0  0  0
   47.2860   34.6030   41.6330 C   0  0  0  0  0  0  0  0  0  0  0  0
   46.3660   34.3600   40.7180 N   0  0  0  0  0  0  0  0  0  0  0  0
   45.7790   33.3780   44.7080 C   0  0  0  0  0  0  0  0  0  0  0  0
   45.0600   34.3140   45.4590 C   0  0  0  0  0  0  0  0  0  0  0  0
   44.8600   34.2750   46.8060 C   0  0  0  0  0  0  0  0  0  0  0  0
   45.3930   33.2430   47.5460 C   0  0  0  0  0  0  0  0  0  0  0  0
   46.1080   32.2980   46.8780 C   0  0  0  0  0  0  0  0  0  0  0  0
   46.6870   31.2680   47.5840 C   0  0  0  0  0  0  0  0  0  0  0  0
   47.4660   30.2840   46.9630 C   0  0  0  0  0  0  0  0  0  0  0  0
   47.6300   30.3960   45.5820 C   0  0  0  0  0  0  0  0  0  0  0  0
   47.0340   31.4360   44.9320 C   0  0  0  0  0  0  0  0  0  0  0  0
   46.2720   32.3980   45.5190 C   0  0  0  0  0  0  0  0  0  0  0  0
   48.5660   35.2640   41.2850 C   0  0  0  0  0  0  0  0  0  0  0  0
   48.6050   35.4410   39.9010 F   0  0  0  0  0  0  0  0  0  0  0  0
   49.6290   34.4070   41.5960 F   0  0  0  0  0  0  0  0  0  0  0  0
   48.8070   36.4220   41.9800 F   0  0  0  0  0  0  0  0  0  0  0  0
   43.9870   33.4570   39.7180 S   0  0  0  0  0  0  0  0  0  0  0  0
   39.7470   32.9330   42.1780 N   0  0  0  0  0  0  0  0  0  0  0  0
   40.4860   31.8180   42.2090 C   0  0  0  0  0  0  0  0  0  0  0  0
   41.6180   32.0840   41.5030 N   0  0  0  0  0  0  0  0  0  0  0  0
   41.5290   33.3290   41.0770 C   0  0  0  0  0  0  0  0  0  0  0  0
   42.4160   34.0660   40.3240 C   0  0  0  0  0  0  0  0  0  0  0  0
   42.1630   35.3480   39.9710 N   0  0  0  0  0  0  0  0  0  0  0  0
   40.9810   35.8760   40.4000 C   0  0  0  0  0  0  0  0  0  0  0  0
   40.1050   35.1620   41.1400 N   0  0  0  0  0  0  0  0  0  0  0  0
   40.3670   33.8980   41.4800 C   0  0  0  0  0  0  0  0  0  0  0  0
   43.9598   32.8826   42.5780 H   0  0  0  0  0  0  0  0  0  0  0  0
   44.6156   35.1585   44.9120 H   0  0  0  0  0  0  0  0  0  0  0  0
   44.2752   35.0646   47.3006 H   0  0  0  0  0  0  0  0  0  0  0  0
   45.2463   33.1851   48.6346 H   0  0  0  0  0  0  0  0  0  0  0  0
   46.5327   31.2161   48.6719 H   0  0  0  0  0  0  0  0  0  0  0  0
   47.9253   29.4643   47.5349 H   0  0  0  0  0  0  0  0  0  0  0  0
   48.2292   29.6587   45.0276 H   0  0  0  0  0  0  0  0  0  0  0  0
   47.1814   31.5026   43.8440 H   0  0  0  0  0  0  0  0  0  0  0  0
   38.8267   33.0370   42.6287 H   0  0  0  0  0  0  0  0  0  0  0  0
   40.2287   30.8718   42.7076 H   0  0  0  0  0  0  0  0  0  0  0  0
   40.7335   36.9146   40.1354 H   0  0  0  0  0  0  0  0  0  0  0  0
  1  2  2  0
  2  3  1  0
  3  7  1  0
  4  3  2  0
  5  4  1  0
  6  1  1  0
  6  5  2  0
  7  8  2  0
  7 16  1  0
  8  9  1  0
  9 10  2  0
 11 10  1  0
 11 12  2  0
 13 12  1  0
 14 13  2  0
 15 16  2  0
 15 14  1  0
 16 11  1  0
 17 19  1  0
 17  5  1  0
 17 20  1  0
 18 17  1  0
 21 26  1  0
 21  1  1  0
 22 23  1  0
 24 23  2  0
 25 30  2  0
 25 24  1  0
 26 25  1  0
 27 26  2  0
 27 28  1  0
 28 29  2  0
 29 30  1  0
 30 22  1  0
  2 31  1  0
  8 32  1  0
  9 33  1  0
 10 34  1  0
 12 35  1  0
 13 36  1  0
 14 37  1  0
 15 38  1  0
 22 39  1  0
 23 40  1  0
 28 41  1  0
M  END
>  <minimizedAffinity>  (1) 
-7.2965827

>  <minimizedRMSD>  (1) 
1.35588431

$$$$
