
     RDKit          3D

 47 50  0  0  0  0  0  0  0  0999 V2000
   47.9780   32.2340   43.6520 C   0  0  0  0  0  0  0  0  0  0  0  0
   47.6240   31.1500   44.4400 C   0  0  0  0  0  0  0  0  0  0  0  0
   46.4730   31.2490   45.2190 C   0  0  0  0  0  0  0  0  0  0  0  0
   45.7490   32.4400   45.1520 N   0  0  0  0  0  0  0  0  0  0  0  0
   46.1300   33.4680   44.3700 C   0  0  0  0  0  0  0  0  0  0  0  0
   47.2460   33.3640   43.6210 N   0  0  0  0  0  0  0  0  0  0  0  0
   46.0380   30.1950   46.0530 N   0  0  0  0  0  0  0  0  0  0  0  0
   44.8790   29.5690   45.9050 N   0  0  0  0  0  0  0  0  0  0  0  0
   44.7580   28.6180   46.8690 C   0  0  0  0  0  0  0  0  0  0  0  0
   45.9200   28.7050   47.6160 C   0  0  0  0  0  0  0  0  0  0  0  0
   46.7090   29.7060   47.0810 C   0  0  0  0  0  0  0  0  0  0  0  0
   47.9520   29.9610   47.7470 C   0  0  0  0  0  0  0  0  0  0  0  0
   49.1840   29.2850   47.6530 C   0  0  0  0  0  0  0  0  0  0  0  0
   50.2980   29.6530   48.3700 C   0  0  0  0  0  0  0  0  0  0  0  0
   50.2650   30.7220   49.2360 C   0  0  0  0  0  0  0  0  0  0  0  0
   49.1010   31.4370   49.3870 C   0  0  0  0  0  0  0  0  0  0  0  0
   48.0220   31.0180   48.6400 C   0  0  0  0  0  0  0  0  0  0  0  0
   45.3430   34.6790   44.3210 C   0  0  0  0  0  0  0  0  0  0  0  0
   44.7450   35.1710   45.2930 O   0  0  0  0  0  0  0  0  0  0  0  0
   45.1960   35.4040   43.1320 O   0  0  0  0  0  0  0  0  0  0  0  0
   44.1940   34.9750   42.2290 C   0  0  0  0  0  0  0  0  0  0  0  0
   43.5100   35.7630   41.3350 C   0  0  0  0  0  0  0  0  0  0  0  0
   42.5830   35.1520   40.5530 C   0  0  0  0  0  0  0  0  0  0  0  0
   42.3380   33.8220   40.6430 N   0  0  0  0  0  0  0  0  0  0  0  0
   43.0220   33.0580   41.5310 C   0  0  0  0  0  0  0  0  0  0  0  0
   43.9680   33.6450   42.3390 N   0  0  0  0  0  0  0  0  0  0  0  0
   42.7890   31.5840   41.6410 C   0  0  0  0  0  0  0  0  0  0  0  0
   43.7600   30.9210   42.5620 C   0  0  0  0  0  0  0  0  0  0  0  0
   41.3630   31.2820   42.0710 C   0  0  0  0  0  0  0  0  0  0  0  0
   48.8849   32.1693   43.0328 H   0  0  0  0  0  0  0  0  0  0  0  0
   48.2356   30.2357   44.4501 H   0  0  0  0  0  0  0  0  0  0  0  0
   43.9162   27.9268   47.0226 H   0  0  0  0  0  0  0  0  0  0  0  0
   46.1727   28.0831   48.4875 H   0  0  0  0  0  0  0  0  0  0  0  0
   49.2585   28.4225   46.9744 H   0  0  0  0  0  0  0  0  0  0  0  0
   51.2313   29.0834   48.2494 H   0  0  0  0  0  0  0  0  0  0  0  0
   51.1645   31.0024   49.8037 H   0  0  0  0  0  0  0  0  0  0  0  0
   49.0345   32.2981   50.0682 H   0  0  0  0  0  0  0  0  0  0  0  0
   47.0961   31.5977   48.7693 H   0  0  0  0  0  0  0  0  0  0  0  0
   43.7050   36.8427   41.2561 H   0  0  0  0  0  0  0  0  0  0  0  0
   42.0156   35.7527   39.8269 H   0  0  0  0  0  0  0  0  0  0  0  0
   42.9502   31.1673   40.6358 H   0  0  0  0  0  0  0  0  0  0  0  0
   43.4702   31.1189   43.6045 H   0  0  0  0  0  0  0  0  0  0  0  0
   43.7560   29.8362   42.3799 H   0  0  0  0  0  0  0  0  0  0  0  0
   44.7689   31.3197   42.3799 H   0  0  0  0  0  0  0  0  0  0  0  0
   41.3060   31.2699   43.1695 H   0  0  0  0  0  0  0  0  0  0  0  0
   40.6893   32.0574   41.6774 H   0  0  0  0  0  0  0  0  0  0  0  0
   41.0615   30.3001   41.6774 H   0  0  0  0  0  0  0  0  0  0  0  0
  1  2  2  0
  2  3  1  0
  3  7  1  0
  4  3  2  0
  5  4  1  0
  6  1  1  0
  6  5  2  0
  7 11  1  0
  8  7  1  0
  8  9  2  0
  9 10  1  0
 11 10  2  0
 11 12  1  0
 12 17  1  0
 13 12  2  0
 13 14  1  0
 14 15  2  0
 15 16  1  0
 17 16  2  0
 18  5  1  0
 18 19  2  0
 20 18  1  0
 21 26  1  0
 21 20  1  0
 22 21  2  0
 23 24  2  0
 23 22  1  0
 24 25  1  0
 25 27  1  0
 25 26  2  0
 27 29  1  0
 27 28  1  0
  1 30  1  0
  2 31  1  0
  9 32  1  0
 10 33  1  0
 13 34  1  0
 14 35  1  0
 15 36  1  0
 16 37  1  0
 17 38  1  0
 22 39  1  0
 23 40  1  0
 27 41  1  0
 28 42  1  0
 28 43  1  0
 28 44  1  0
 29 45  1  0
 29 46  1  0
 29 47  1  0
M  ISO  8  30  14  31  14  32  14  33  14  34  14  35  14  36  14  37  14
M  ISO  8  38  14  39  14  40  14  41   8  42   8  43   8  44   8  45   8
M  ISO  2  46   8  47   8
M  END
>  <minimizedAffinity>  (1) 
-5.44205379

>  <minimizedRMSD>  (1) 
2.13807178

$$$$
