
     RDKit          3D

 36 38  0  0  0  0  0  0  0  0999 V2000
   47.5400   33.9970   42.3150 C   0  0  0  0  0  0  0  0  0  0  0  0
   48.3450   35.1200   41.7060 C   0  0  0  0  0  0  0  0  0  0  0  0
   49.7030   35.3400   42.2540 C   0  0  0  0  0  0  0  0  0  0  0  0
   50.4670   34.0610   42.4710 C   0  0  0  0  0  0  0  0  0  0  0  0
   49.6480   32.8120   42.2930 C   0  0  0  0  0  0  0  0  0  0  0  0
   48.3690   33.0340   43.0800 C   0  0  0  0  0  0  0  0  0  0  0  0
   45.2630   34.4490   45.2050 C   0  0  0  0  0  0  0  0  0  0  0  0
   44.5270   35.6040   44.8330 C   0  0  0  0  0  0  0  0  0  0  0  0
   44.8260   36.2080   43.5970 C   0  0  0  0  0  0  0  0  0  0  0  0
   45.8030   35.6450   42.8370 N   0  0  0  0  0  0  0  0  0  0  0  0
   46.4790   34.5580   43.2110 C   0  0  0  0  0  0  0  0  0  0  0  0
   46.2110   33.9580   44.3950 N   0  0  0  0  0  0  0  0  0  0  0  0
   46.7960   33.3880   41.1670 C   0  0  0  0  0  0  0  0  0  0  0  0
   45.9620   32.3260   41.4940 C   0  0  0  0  0  0  0  0  0  0  0  0
   45.2270   31.6870   40.5160 C   0  0  0  0  0  0  0  0  0  0  0  0
   45.3310   32.1200   39.2050 C   0  0  0  0  0  0  0  0  0  0  0  0
   46.1620   33.1850   38.8570 C   0  0  0  0  0  0  0  0  0  0  0  0
   46.8870   33.8030   39.8660 C   0  0  0  0  0  0  0  0  0  0  0  0
   47.7754   36.0509   41.8440 H   0  0  0  0  0  0  0  0  0  0  0  0
   48.5012   34.8270   40.6573 H   0  0  0  0  0  0  0  0  0  0  0  0
   50.2669   35.9694   41.5498 H   0  0  0  0  0  0  0  0  0  0  0  0
   49.5862   35.8227   43.2355 H   0  0  0  0  0  0  0  0  0  0  0  0
   51.3002   34.0316   41.7534 H   0  0  0  0  0  0  0  0  0  0  0  0
   50.8041   34.0696   43.5180 H   0  0  0  0  0  0  0  0  0  0  0  0
   49.4192   32.6535   41.2288 H   0  0  0  0  0  0  0  0  0  0  0  0
   50.1890   31.9219   42.6466 H   0  0  0  0  0  0  0  0  0  0  0  0
   48.6047   33.4459   44.0724 H   0  0  0  0  0  0  0  0  0  0  0  0
   47.8308   32.0853   43.2228 H   0  0  0  0  0  0  0  0  0  0  0  0
   45.0539   33.9535   46.1646 H   0  0  0  0  0  0  0  0  0  0  0  0
   43.7466   36.0148   45.4905 H   0  0  0  0  0  0  0  0  0  0  0  0
   44.2875   37.1051   43.2575 H   0  0  0  0  0  0  0  0  0  0  0  0
   45.8870   31.9922   42.5394 H   0  0  0  0  0  0  0  0  0  0  0  0
   44.5677   30.8453   40.7746 H   0  0  0  0  0  0  0  0  0  0  0  0
   44.7467   31.6141   38.4223 H   0  0  0  0  0  0  0  0  0  0  0  0
   46.2403   33.5248   37.8137 H   0  0  0  0  0  0  0  0  0  0  0  0
   47.5492   34.6447   39.6147 H   0  0  0  0  0  0  0  0  0  0  0  0
  1  6  1  0
  1 11  1  0
  2  3  1  0
  2  1  1  0
  3  4  1  0
  5  4  1  0
  5  6  1  0
  8  7  2  0
  9  8  1  0
 10 11  1  0
 10  9  2  0
 11 12  2  0
 12  7  1  0
 13 14  2  0
 13  1  1  0
 15 14  1  0
 16 15  2  0
 17 16  1  0
 17 18  2  0
 18 13  1  0
  2 19  1  0
  2 20  1  0
  3 21  1  0
  3 22  1  0
  4 23  1  0
  4 24  1  0
  5 25  1  0
  5 26  1  0
  6 27  1  0
  6 28  1  0
  7 29  1  0
  8 30  1  0
  9 31  1  0
 14 32  1  0
 15 33  1  0
 16 34  1  0
 17 35  1  0
 18 36  1  0
M  ISO  8  19  13  20  13  21  13  22  13  23  13  24  13  25  13  26  13
M  ISO  8  27  13  28  13  29  14  30  14  31  14  32  14  33  14  34  14
M  ISO  2  35  14  36  14
M  END
>  <minimizedAffinity>  (1) 
-5.38432884

>  <minimizedRMSD>  (1) 
0.467685372

$$$$
