
     RDKit          3D

 34 37  0  0  0  0  0  0  0  0999 V2000
   44.5870   35.7660   44.3960 C   0  0  0  0  0  0  0  0  0  0  0  0
   45.3860   35.8120   43.2330 C   0  0  0  0  0  0  0  0  0  0  0  0
   46.4310   34.8730   43.1380 C   0  0  0  0  0  0  0  0  0  0  0  0
   46.6110   33.9900   44.1530 N   0  0  0  0  0  0  0  0  0  0  0  0
   45.8170   33.9880   45.2490 C   0  0  0  0  0  0  0  0  0  0  0  0
   44.7980   34.8780   45.3760 N   0  0  0  0  0  0  0  0  0  0  0  0
   47.2700   34.8970   41.9490 C   0  0  0  0  0  0  0  0  0  0  0  0
   48.4950   35.5260   41.8050 C   0  0  0  0  0  0  0  0  0  0  0  0
   48.9590   35.3210   40.5640 N   0  0  0  0  0  0  0  0  0  0  0  0
   48.0500   34.5710   39.9110 C   0  0  0  0  0  0  0  0  0  0  0  0
   48.0630   34.0910   38.6030 C   0  0  0  0  0  0  0  0  0  0  0  0
   47.0000   33.3430   38.1830 C   0  0  0  0  0  0  0  0  0  0  0  0
   45.8970   33.0200   38.9640 C   0  0  0  0  0  0  0  0  0  0  0  0
   45.9360   33.5240   40.2540 C   0  0  0  0  0  0  0  0  0  0  0  0
   46.9740   34.2840   40.7440 C   0  0  0  0  0  0  0  0  0  0  0  0
   46.0280   33.0300   46.3280 C   0  0  0  0  0  0  0  0  0  0  0  0
   47.0340   32.0970   46.2230 C   0  0  0  0  0  0  0  0  0  0  0  0
   47.2340   31.1980   47.2320 C   0  0  0  0  0  0  0  0  0  0  0  0
   46.4360   31.2080   48.3720 C   0  0  0  0  0  0  0  0  0  0  0  0
   45.4200   32.1310   48.5060 C   0  0  0  0  0  0  0  0  0  0  0  0
   45.2470   33.0290   47.4590 C   0  0  0  0  0  0  0  0  0  0  0  0
   43.7615   36.4854   44.5010 H   0  0  0  0  0  0  0  0  0  0  0  0
   45.2006   36.5482   42.4370 H   0  0  0  0  0  0  0  0  0  0  0  0
   49.0080   36.1043   42.5875 H   0  0  0  0  0  0  0  0  0  0  0  0
   49.8478   35.6725   40.1801 H   0  0  0  0  0  0  0  0  0  0  0  0
   48.9044   34.3080   37.9285 H   0  0  0  0  0  0  0  0  0  0  0  0
   47.0185   32.9682   37.1490 H   0  0  0  0  0  0  0  0  0  0  0  0
   45.0601   32.4130   38.5883 H   0  0  0  0  0  0  0  0  0  0  0  0
   45.0911   33.3048   40.9234 H   0  0  0  0  0  0  0  0  0  0  0  0
   47.6751   32.0751   45.3294 H   0  0  0  0  0  0  0  0  0  0  0  0
   48.0391   30.4539   47.1418 H   0  0  0  0  0  0  0  0  0  0  0  0
   46.6168   30.4747   49.1717 H   0  0  0  0  0  0  0  0  0  0  0  0
   44.7774   32.1554   49.3985 H   0  0  0  0  0  0  0  0  0  0  0  0
   44.4443   33.7767   47.5398 H   0  0  0  0  0  0  0  0  0  0  0  0
  1  6  2  0
  2  1  1  0
  3  2  2  0
  3  4  1  0
  4  5  2  0
  5  6  1  0
  5 16  1  0
  7  3  1  0
  8  7  2  0
  9  8  1  0
 10  9  1  0
 10 15  2  0
 11 10  1  0
 12 11  2  0
 12 13  1  0
 13 14  2  0
 14 15  1  0
 15  7  1  0
 16 21  1  0
 17 16  2  0
 17 18  1  0
 18 19  2  0
 19 20  1  0
 21 20  2  0
  1 22  1  0
  2 23  1  0
  8 24  1  0
  9 25  1  0
 11 26  1  0
 12 27  1  0
 13 28  1  0
 14 29  1  0
 17 30  1  0
 18 31  1  0
 19 32  1  0
 20 33  1  0
 21 34  1  0
M  END
>  <minimizedAffinity>  (1) 
-7.1958456

>  <minimizedRMSD>  (1) 
0.30127576

$$$$
