
     RDKit          3D

 31 33  0  0  0  0  0  0  0  0999 V2000
   46.5970   34.4690   41.2070 C   0  0  0  0  0  0  0  0  0  0  0  0
   47.0370   33.7610   40.1060 C   0  0  0  0  0  0  0  0  0  0  0  0
   46.0670   33.2330   39.2810 C   0  0  0  0  0  0  0  0  0  0  0  0
   44.7540   33.3580   39.4720 N   0  0  0  0  0  0  0  0  0  0  0  0
   44.3460   34.0550   40.5580 C   0  0  0  0  0  0  0  0  0  0  0  0
   45.2510   34.6100   41.4240 N   0  0  0  0  0  0  0  0  0  0  0  0
   42.9270   34.2450   40.8510 C   0  0  0  0  0  0  0  0  0  0  0  0
   42.1090   33.1370   40.9600 C   0  0  0  0  0  0  0  0  0  0  0  0
   40.7460   33.2830   41.2390 C   0  0  0  0  0  0  0  0  0  0  0  0
   40.2580   34.5720   41.3990 C   0  0  0  0  0  0  0  0  0  0  0  0
   41.0360   35.7180   41.3000 C   0  0  0  0  0  0  0  0  0  0  0  0
   42.3840   35.5080   41.0210 C   0  0  0  0  0  0  0  0  0  0  0  0
   47.5050   35.0520   42.1170 O   0  0  0  0  0  0  0  0  0  0  0  0
   48.3120   34.1790   42.9010 C   0  0  0  0  0  0  0  0  0  0  0  0
   49.5450   34.2450   42.8040 O   0  0  0  0  0  0  0  0  0  0  0  0
   46.6030   33.6860   44.7030 C   0  0  0  0  0  0  0  0  0  0  0  0
   47.5580   33.2550   43.7740 C   0  0  0  0  0  0  0  0  0  0  0  0
   47.8460   31.9010   43.6280 C   0  0  0  0  0  0  0  0  0  0  0  0
   47.1590   31.0160   44.4290 N   0  0  0  0  0  0  0  0  0  0  0  0
   46.2500   31.4640   45.3090 C   0  0  0  0  0  0  0  0  0  0  0  0
   45.9730   32.7720   45.4480 N   0  0  0  0  0  0  0  0  0  0  0  0
   48.1085   33.6251   39.8976 H   0  0  0  0  0  0  0  0  0  0  0  0
   46.4016   32.6664   38.3995 H   0  0  0  0  0  0  0  0  0  0  0  0
   42.5333   32.1310   40.8262 H   0  0  0  0  0  0  0  0  0  0  0  0
   40.0853   32.4080   41.3283 H   0  0  0  0  0  0  0  0  0  0  0  0
   39.1870   34.6938   41.6182 H   0  0  0  0  0  0  0  0  0  0  0  0
   40.6151   36.7255   41.4332 H   0  0  0  0  0  0  0  0  0  0  0  0
   43.0458   36.3821   40.9318 H   0  0  0  0  0  0  0  0  0  0  0  0
   46.3755   34.7561   44.8176 H   0  0  0  0  0  0  0  0  0  0  0  0
   48.5936   31.5513   42.9008 H   0  0  0  0  0  0  0  0  0  0  0  0
   45.7142   30.7370   45.9370 H   0  0  0  0  0  0  0  0  0  0  0  0
  1  6  1  0
  1 13  1  0
  2  1  2  0
  3  4  2  0
  3  2  1  0
  4  5  1  0
  5  7  1  0
  5  6  2  0
  7  8  2  0
  7 12  1  0
  8  9  1  0
  9 10  2  0
 11 10  1  0
 12 11  2  0
 13 14  1  0
 14 17  1  0
 15 14  2  0
 16 21  2  0
 17 16  1  0
 18 17  2  0
 18 19  1  0
 19 20  2  0
 20 21  1  0
  2 22  1  0
  3 23  1  0
  8 24  1  0
  9 25  1  0
 10 26  1  0
 11 27  1  0
 12 28  1  0
 16 29  1  0
 18 30  1  0
 20 31  1  0
M  ISO  8  22  14  23  14  24  14  25  14  26  14  27  14  28  14  29  14
M  ISO  2  30  14  31  14
M  END
>  <minimizedAffinity>  (1) 
-4.85838795

>  <minimizedRMSD>  (1) 
6.8348031

$$$$
