
     RDKit          3D

 56 58  0  0  1  0  0  0  0  0999 V2000
   49.8830   33.2630   41.5980 O   0  0  0  0  0  0  0  0  0  0  0  0
   50.2990   31.9880   41.2830 C   0  0  1  0  0  0  0  0  0  0  0  0
   51.6440   31.7010   40.8320 C   0  0  0  0  0  0  0  0  0  0  0  0
   51.3600   31.4360   42.2550 C   0  0  2  0  0  0  0  0  0  0  0  0
   51.1470   30.0490   42.7500 C   0  0  1  0  0  0  0  0  0  0  0  0
   50.0440   29.2760   42.0410 C   0  0  0  0  0  0  0  0  0  0  0  0
   52.4040   29.2210   42.5070 C   0  0  0  0  0  0  0  0  0  0  0  0
   53.3260   29.6130   43.5940 N   0  0  0  0  0  0  0  0  0  0  0  0
   52.6740   29.3440   44.8810 C   0  0  0  0  0  0  0  0  0  0  0  0
   53.4480   30.2200   45.8750 C   0  0  0  0  0  0  0  0  0  0  0  0
   54.9420   29.9370   45.7030 C   0  0  0  0  0  0  0  0  0  0  0  0
   55.1310   28.6730   44.8760 C   0  0  0  0  0  0  0  0  0  0  0  0
   54.5290   28.7700   43.5150 C   0  0  0  0  0  0  0  0  0  0  0  0
   48.4660   33.1290   41.6100 C   0  0  0  0  0  0  0  0  0  0  0  0
   47.9450   34.4370   41.1870 C   0  0  0  0  0  0  0  0  0  0  0  0
   44.1790   34.8160   41.3530 C   0  0  0  0  0  0  0  0  0  0  0  0
   45.4240   34.4290   40.8430 C   0  0  0  0  0  0  0  0  0  0  0  0
   46.5820   34.7630   41.5670 C   0  0  0  0  0  0  0  0  0  0  0  0
   46.4320   35.4510   42.7320 N   0  0  0  0  0  0  0  0  0  0  0  0
   45.1860   35.8070   43.1880 C   0  0  0  0  0  0  0  0  0  0  0  0
   44.0860   35.4930   42.5070 N   0  0  0  0  0  0  0  0  0  0  0  0
   43.0280   34.4130   40.5370 C   0  0  0  0  0  0  0  0  0  0  0  0
   42.4520   35.0520   39.6910 O   0  0  0  0  0  0  0  0  0  0  0  0
   48.8500   35.5890   41.5220 C   0  0  0  0  0  0  0  0  0  0  0  0
   48.0100   34.3800   39.6410 C   0  0  0  0  0  0  0  0  0  0  0  0
   49.3159   31.7123   40.8737 H   0  0  0  0  0  0  0  0  0  0  0  0
   51.8154   30.8556   40.1494 H   0  0  0  0  0  0  0  0  0  0  0  0
   52.4098   32.2955   40.3122 H   0  0  0  0  0  0  0  0  0  0  0  0
   51.8385   31.7312   43.2005 H   0  0  0  0  0  0  0  0  0  0  0  0
   50.8785   30.1803   43.8086 H   0  0  0  0  0  0  0  0  0  0  0  0
   49.3827   28.8125   42.7879 H   0  0  0  0  0  0  0  0  0  0  0  0
   49.4606   29.9639   41.4113 H   0  0  0  0  0  0  0  0  0  0  0  0
   50.4915   28.4929   41.4113 H   0  0  0  0  0  0  0  0  0  0  0  0
   52.1768   28.1460   42.5595 H   0  0  0  0  0  0  0  0  0  0  0  0
   52.8345   29.3997   41.5107 H   0  0  0  0  0  0  0  0  0  0  0  0
   51.6126   29.6311   44.8499 H   0  0  0  0  0  0  0  0  0  0  0  0
   52.6911   28.2779   45.1513 H   0  0  0  0  0  0  0  0  0  0  0  0
   53.2448   31.2818   45.6717 H   0  0  0  0  0  0  0  0  0  0  0  0
   53.1352   29.9918   46.9046 H   0  0  0  0  0  0  0  0  0  0  0  0
   55.4184   30.7851   45.1893 H   0  0  0  0  0  0  0  0  0  0  0  0
   55.4036   29.7987   46.6919 H   0  0  0  0  0  0  0  0  0  0  0  0
   56.2091   28.4821   44.7694 H   0  0  0  0  0  0  0  0  0  0  0  0
   54.6187   27.8553   45.4042 H   0  0  0  0  0  0  0  0  0  0  0  0
   54.2555   27.7661   43.1582 H   0  0  0  0  0  0  0  0  0  0  0  0
   55.2526   29.2118   42.8142 H   0  0  0  0  0  0  0  0  0  0  0  0
   48.1481   32.3434   40.9088 H   0  0  0  0  0  0  0  0  0  0  0  0
   48.0913   32.8420   42.6036 H   0  0  0  0  0  0  0  0  0  0  0  0
   45.4948   33.8750   39.8953 H   0  0  0  0  0  0  0  0  0  0  0  0
   45.0955   36.3619   44.1335 H   0  0  0  0  0  0  0  0  0  0  0  0
   42.6411   33.3996   40.7198 H   0  0  0  0  0  0  0  0  0  0  0  0
   48.9280   35.6883   42.6147 H   0  0  0  0  0  0  0  0  0  0  0  0
   49.8485   35.4061   41.0982 H   0  0  0  0  0  0  0  0  0  0  0  0
   48.4360   36.5158   41.0982 H   0  0  0  0  0  0  0  0  0  0  0  0
   48.8039   33.6838   39.3328 H   0  0  0  0  0  0  0  0  0  0  0  0
   47.0440   34.0326   39.2460 H   0  0  0  0  0  0  0  0  0  0  0  0
   48.2283   35.3831   39.2460 H   0  0  0  0  0  0  0  0  0  0  0  0
  1 14  1  0
  2  1  1  0
  2  4  1  0
  3  2  1  0
  3  4  1  0
  4  5  1  0
  6  5  1  0
  7  5  1  0
  7  8  1  0
  8  9  1  0
  9 10  1  0
 11 10  1  0
 12 11  1  0
 13  8  1  0
 13 12  1  0
 15 24  1  0
 15 18  1  0
 15 14  1  0
 16 21  2  0
 17 16  1  0
 17 18  2  0
 18 19  1  0
 19 20  2  0
 21 20  1  0
 22 16  1  0
 23 22  2  0
 25 15  1  0
  2 26  1  6
  3 27  1  0
  3 28  1  0
  4 29  1  1
  5 30  1  1
  6 31  1  0
  6 32  1  0
  6 33  1  0
  7 34  1  0
  7 35  1  0
  9 36  1  0
  9 37  1  0
 10 38  1  0
 10 39  1  0
 11 40  1  0
 11 41  1  0
 12 42  1  0
 12 43  1  0
 13 44  1  0
 13 45  1  0
 14 46  1  0
 14 47  1  0
 17 48  1  0
 20 49  1  0
 22 50  1  0
 24 51  1  0
 24 52  1  0
 24 53  1  0
 25 54  1  0
 25 55  1  0
 25 56  1  0
M  ISO  8  26  13  27  13  28  13  29  13  30   8  31   8  32   8  33   8
M  ISO  8  34   8  35   8  36  13  37  13  38  13  39  13  40  13  41  13
M  ISO  8  42  13  43  13  44  13  45  13  46   8  47   8  48  14  49  14
M  ISO  7  50   6  51   8  52   8  53   8  54   8  55   8  56   8
M  END
>  <minimizedAffinity>  (1) 
-4.30028009

>  <minimizedRMSD>  (1) 
2.39894223

$$$$
