
     RDKit          3D

 48 51  0  0  0  0  0  0  0  0999 V2000
   46.4920   34.5150   42.3970 C   0  0  0  0  0  0  0  0  0  0  0  0
   47.7950   34.8920   42.2750 C   0  0  0  0  0  0  0  0  0  0  0  0
   48.4740   34.8290   41.0510 C   0  0  0  0  0  0  0  0  0  0  0  0
   47.8020   34.3640   39.9080 C   0  0  0  0  0  0  0  0  0  0  0  0
   46.4910   33.9870   40.0400 C   0  0  0  0  0  0  0  0  0  0  0  0
   45.8600   34.0670   41.2730 C   0  0  0  0  0  0  0  0  0  0  0  0
   44.4820   35.6220   45.3820 C   0  0  0  0  0  0  0  0  0  0  0  0
   45.0180   35.6390   44.0930 C   0  0  0  0  0  0  0  0  0  0  0  0
   45.8680   34.6150   43.7070 C   0  0  0  0  0  0  0  0  0  0  0  0
   46.1340   33.6500   44.6020 N   0  0  0  0  0  0  0  0  0  0  0  0
   45.6030   33.6530   45.8500 C   0  0  0  0  0  0  0  0  0  0  0  0
   44.7830   34.6350   46.2310 N   0  0  0  0  0  0  0  0  0  0  0  0
   45.9620   32.5820   46.6970 N   0  0  0  0  0  0  0  0  0  0  0  0
   45.7190   32.6580   48.1130 C   0  0  0  0  0  0  0  0  0  0  0  0
   44.7460   31.5420   48.4570 C   0  0  0  0  0  0  0  0  0  0  0  0
   45.4200   30.2470   48.0520 C   0  0  0  0  0  0  0  0  0  0  0  0
   45.5850   30.2500   46.5410 C   0  0  0  0  0  0  0  0  0  0  0  0
   46.5820   31.3620   46.2180 C   0  0  0  0  0  0  0  0  0  0  0  0
   44.5010   33.6660   41.3600 N   0  0  0  0  0  0  0  0  0  0  0  0
   43.6600   34.6570   40.9200 C   0  0  0  0  0  0  0  0  0  0  0  0
   42.2830   34.4800   40.9160 C   0  0  0  0  0  0  0  0  0  0  0  0
   41.7950   33.2740   41.3690 C   0  0  0  0  0  0  0  0  0  0  0  0
   40.5580   33.0360   41.3970 O   0  0  0  0  0  0  0  0  0  0  0  0
   42.6470   32.3200   41.7950 N   0  0  0  0  0  0  0  0  0  0  0  0
   43.9750   32.5060   41.7920 C   0  0  0  0  0  0  0  0  0  0  0  0
   44.8390   31.6850   42.1660 O   0  0  0  0  0  0  0  0  0  0  0  0
   41.3480   35.5420   40.4430 C   0  0  0  0  0  0  0  0  0  0  0  0
   48.3304   35.2569   43.1640 H   0  0  0  0  0  0  0  0  0  0  0  0
   49.5266   35.1416   40.9853 H   0  0  0  0  0  0  0  0  0  0  0  0
   48.3131   34.3043   38.9358 H   0  0  0  0  0  0  0  0  0  0  0  0
   45.9364   33.6192   39.1641 H   0  0  0  0  0  0  0  0  0  0  0  0
   43.8057   36.4285   45.7016 H   0  0  0  0  0  0  0  0  0  0  0  0
   44.7696   36.4521   43.3951 H   0  0  0  0  0  0  0  0  0  0  0  0
   46.6603   32.5223   48.6657 H   0  0  0  0  0  0  0  0  0  0  0  0
   45.3046   33.6391   48.3883 H   0  0  0  0  0  0  0  0  0  0  0  0
   44.5357   31.5400   49.5367 H   0  0  0  0  0  0  0  0  0  0  0  0
   43.7874   31.6733   47.9337 H   0  0  0  0  0  0  0  0  0  0  0  0
   46.4060   30.1737   48.5341 H   0  0  0  0  0  0  0  0  0  0  0  0
   44.8104   29.3869   48.3660 H   0  0  0  0  0  0  0  0  0  0  0  0
   45.9736   29.2795   46.1988 H   0  0  0  0  0  0  0  0  0  0  0  0
   44.6227   30.4179   46.0352 H   0  0  0  0  0  0  0  0  0  0  0  0
   47.5366   31.1860   46.7354 H   0  0  0  0  0  0  0  0  0  0  0  0
   46.8075   31.4112   45.1425 H   0  0  0  0  0  0  0  0  0  0  0  0
   44.0840   35.6077   40.5645 H   0  0  0  0  0  0  0  0  0  0  0  0
   42.2675   31.4237   42.1320 H   0  0  0  0  0  0  0  0  0  0  0  0
   40.9009   36.0498   41.3103 H   0  0  0  0  0  0  0  0  0  0  0  0
   41.9010   36.2731   39.8350 H   0  0  0  0  0  0  0  0  0  0  0  0
   40.5527   35.0861   39.8350 H   0  0  0  0  0  0  0  0  0  0  0  0
  1  9  1  0
  2  1  2  0
  3  2  1  0
  4  5  1  0
  4  3  2  0
  5  6  2  0
  6 19  1  0
  6  1  1  0
  7 12  2  0
  8  7  1  0
  9  8  2  0
  9 10  1  0
 10 11  2  0
 11 12  1  0
 11 13  1  0
 13 14  1  0
 14 15  1  0
 16 15  1  0
 17 16  1  0
 18 17  1  0
 18 13  1  0
 19 25  1  0
 20 19  1  0
 21 20  2  0
 21 22  1  0
 22 23  2  0
 22 24  1  0
 25 24  1  0
 25 26  2  0
 27 21  1  0
  2 28  1  0
  3 29  1  0
  4 30  1  0
  5 31  1  0
  7 32  1  0
  8 33  1  0
 14 34  1  0
 14 35  1  0
 15 36  1  0
 15 37  1  0
 16 38  1  0
 16 39  1  0
 17 40  1  0
 17 41  1  0
 18 42  1  0
 18 43  1  0
 20 44  1  0
 24 45  1  0
 27 46  1  0
 27 47  1  0
 27 48  1  0
M  END
>  <minimizedAffinity>  (1) 
-7.85964441

>  <minimizedRMSD>  (1) 
0.471427798

$$$$
