
     RDKit          3D

 23 23  0  0  0  0  0  0  0  0999 V2000
   48.1370   34.6810   41.9400 C   0  0  0  0  0  0  0  0  0  0  0  0
   47.7280   34.5470   40.6060 C   0  0  0  0  0  0  0  0  0  0  0  0
   46.6090   33.7400   40.3650 C   0  0  0  0  0  0  0  0  0  0  0  0
   46.0000   33.1440   41.4370 N   0  0  0  0  0  0  0  0  0  0  0  0
   46.4420   33.3120   42.6950 C   0  0  0  0  0  0  0  0  0  0  0  0
   47.5010   34.0740   42.9370 N   0  0  0  0  0  0  0  0  0  0  0  0
   49.3180   35.5300   42.1940 C   0  0  0  0  0  0  0  0  0  0  0  0
   49.4670   36.6040   41.5580 O   0  0  0  0  0  0  0  0  0  0  0  0
   50.2360   35.1150   43.1350 O   0  0  0  0  0  0  0  0  0  0  0  0
   45.6580   32.5460   44.0870 S   0  0  0  0  0  0  0  0  0  0  0  0
   46.7520   32.4340   45.5140 C   0  0  0  0  0  0  0  0  0  0  0  0
   47.3180   31.0320   45.5640 C   0  0  0  0  0  0  0  0  0  0  0  0
   46.0730   32.8120   46.8000 C   0  0  0  0  0  0  0  0  0  0  0  0
   48.2609   35.0520   39.7869 H   0  0  0  0  0  0  0  0  0  0  0  0
   46.2300   33.5892   39.3434 H   0  0  0  0  0  0  0  0  0  0  0  0
   51.0360   35.6669   43.3231 H   0  0  0  0  0  0  0  0  0  0  0  0
   47.5672   33.1635   45.3988 H   0  0  0  0  0  0  0  0  0  0  0  0
   47.4424   30.7240   46.6126 H   0  0  0  0  0  0  0  0  0  0  0  0
   46.6288   30.3401   45.0579 H   0  0  0  0  0  0  0  0  0  0  0  0
   48.2944   31.0125   45.0579 H   0  0  0  0  0  0  0  0  0  0  0  0
   46.6828   32.4725   47.6502 H   0  0  0  0  0  0  0  0  0  0  0  0
   45.9564   33.9049   46.8456 H   0  0  0  0  0  0  0  0  0  0  0  0
   45.0827   32.3354   46.8456 H   0  0  0  0  0  0  0  0  0  0  0  0
  1  7  1  0
  1  6  2  0
  2  1  1  0
  3  2  2  0
  3  4  1  0
  4  5  2  0
  5  6  1  0
  5 10  1  0
  7  9  1  0
  8  7  2  0
 10 11  1  0
 11 12  1  0
 11 13  1  0
  2 14  1  0
  3 15  1  0
  9 16  1  0
 11 17  1  0
 12 18  1  0
 12 19  1  0
 12 20  1  0
 13 21  1  0
 13 22  1  0
 13 23  1  0
M  ISO  8  14  14  15  14  16   3  17   8  18   8  19   8  20   8  21   8
M  ISO  2  22   8  23   8
M  END
>  <minimizedAffinity>  (1) 
-3.96148443

>  <minimizedRMSD>  (1) 
1.72533071

$$$$
