
     RDKit          3D

 30 32  0  0  0  0  0  0  0  0999 V2000
   45.4800   33.9510   41.6310 N   0  0  0  0  0  0  0  0  0  0  0  0
   46.5950   33.7960   40.9600 C   0  0  0  0  0  0  0  0  0  0  0  0
   46.3310   33.4530   39.6410 C   0  0  0  0  0  0  0  0  0  0  0  0
   45.0020   33.4070   39.5360 N   0  0  0  0  0  0  0  0  0  0  0  0
   44.4760   33.7090   40.7420 C   0  0  0  0  0  0  0  0  0  0  0  0
   44.7110   35.5900   43.1900 C   0  0  0  0  0  0  0  0  0  0  0  0
   45.2680   34.2970   42.9600 C   0  0  0  0  0  0  0  0  0  0  0  0
   45.5360   33.5370   44.0750 C   0  0  0  0  0  0  0  0  0  0  0  0
   45.2700   34.0250   45.3120 N   0  0  0  0  0  0  0  0  0  0  0  0
   44.7360   35.2670   45.4840 C   0  0  0  0  0  0  0  0  0  0  0  0
   44.4590   36.0460   44.4130 N   0  0  0  0  0  0  0  0  0  0  0  0
   47.9480   33.9090   41.3750 N   0  0  0  0  0  0  0  0  0  0  0  0
   48.5910   35.1960   41.2470 C   0  0  0  0  0  0  0  0  0  0  0  0
   49.6440   35.3570   42.2800 C   0  0  0  0  0  0  0  0  0  0  0  0
   50.4770   34.3120   42.5120 O   0  0  0  0  0  0  0  0  0  0  0  0
   50.1740   33.1240   41.9160 C   0  0  0  0  0  0  0  0  0  0  0  0
   48.7120   32.7930   41.8970 C   0  0  0  0  0  0  0  0  0  0  0  0
   47.0663   33.2591   38.8462 H   0  0  0  0  0  0  0  0  0  0  0  0
   43.4012   33.7530   40.9719 H   0  0  0  0  0  0  0  0  0  0  0  0
   44.4823   36.2314   42.3261 H   0  0  0  0  0  0  0  0  0  0  0  0
   45.9670   32.5312   43.9629 H   0  0  0  0  0  0  0  0  0  0  0  0
   44.5291   35.6380   46.4987 H   0  0  0  0  0  0  0  0  0  0  0  0
   49.0478   35.2746   40.2494 H   0  0  0  0  0  0  0  0  0  0  0  0
   47.8367   35.9851   41.3825 H   0  0  0  0  0  0  0  0  0  0  0  0
   50.2681   36.2116   41.9797 H   0  0  0  0  0  0  0  0  0  0  0  0
   49.0876   35.4773   43.2212 H   0  0  0  0  0  0  0  0  0  0  0  0
   50.5316   33.1601   40.8764 H   0  0  0  0  0  0  0  0  0  0  0  0
   50.6644   32.3407   42.5126 H   0  0  0  0  0  0  0  0  0  0  0  0
   48.3771   32.5719   42.9212 H   0  0  0  0  0  0  0  0  0  0  0  0
   48.5527   31.9178   41.2500 H   0  0  0  0  0  0  0  0  0  0  0  0
  1  7  1  0
  2 12  1  0
  2  1  1  0
  3  2  2  0
  4  3  1  0
  4  5  2  0
  5  1  1  0
  6 11  2  0
  7  6  1  0
  7  8  2  0
  8  9  1  0
  9 10  2  0
 11 10  1  0
 12 17  1  0
 13 12  1  0
 13 14  1  0
 14 15  1  0
 16 15  1  0
 17 16  1  0
  3 18  1  0
  5 19  1  0
  6 20  1  0
  8 21  1  0
 10 22  1  0
 13 23  1  0
 13 24  1  0
 14 25  1  0
 14 26  1  0
 16 27  1  0
 16 28  1  0
 17 29  1  0
 17 30  1  0
M  ISO  8  18  14  19  14  20  14  21  14  22  14  23  13  24  13  25  13
M  ISO  5  26  13  27  13  28  13  29  13  30  13
M  END
>  <minimizedAffinity>  (1) 
-4.65070343

>  <minimizedRMSD>  (1) 
3.25318289

$$$$
