
     RDKit          3D

 33 34  0  0  1  0  0  0  0  0999 V2000
   45.4890   34.6680   44.0040 C   0  0  0  0  0  0  0  0  0  0  0  0
   46.4950   34.3740   43.0620 C   0  0  0  0  0  0  0  0  0  0  0  0
   47.4670   33.4100   43.3640 C   0  0  0  0  0  0  0  0  0  0  0  0
   47.3700   32.8060   44.5800 N   0  0  0  0  0  0  0  0  0  0  0  0
   46.4070   33.1040   45.4570 C   0  0  0  0  0  0  0  0  0  0  0  0
   45.4570   34.0380   45.1760 N   0  0  0  0  0  0  0  0  0  0  0  0
   46.3190   32.4550   46.7620 C   0  0  0  0  0  0  0  0  0  0  0  0
   47.3530   31.5830   47.1420 C   0  0  0  0  0  0  0  0  0  0  0  0
   46.7730   31.0610   48.8320 S   0  0  0  0  0  0  0  0  0  0  0  0
   45.2440   32.1300   48.6900 C   0  0  0  0  0  0  0  0  0  0  0  0
   45.4000   32.5670   47.6770 N   0  0  0  0  0  0  0  0  0  0  0  0
   44.4760   35.7090   43.6580 C   0  0  1  0  0  0  0  0  0  0  0  0
   45.1570   37.0460   43.4170 C   0  0  0  0  0  0  0  0  0  0  0  0
   43.6970   35.3140   42.4270 C   0  0  0  0  0  0  0  0  0  0  0  0
   42.3010   35.6210   42.5510 N   0  0  0  0  0  0  0  0  0  0  0  0
   41.6250   35.1840   41.3440 C   0  0  0  0  0  0  0  0  0  0  0  0
   40.5770   36.2040   40.9150 C   0  0  0  0  0  0  0  0  0  0  0  0
   46.5175   34.8980   42.0951 H   0  0  0  0  0  0  0  0  0  0  0  0
   48.2676   33.1546   42.6542 H   0  0  0  0  0  0  0  0  0  0  0  0
   48.2585   31.2889   46.5910 H   0  0  0  0  0  0  0  0  0  0  0  0
   44.4225   32.2837   49.4052 H   0  0  0  0  0  0  0  0  0  0  0  0
   43.7797   35.7992   44.5048 H   0  0  0  0  0  0  0  0  0  0  0  0
   45.3960   37.5151   44.3828 H   0  0  0  0  0  0  0  0  0  0  0  0
   46.0843   36.8877   42.8469 H   0  0  0  0  0  0  0  0  0  0  0  0
   44.4837   37.7030   42.8469 H   0  0  0  0  0  0  0  0  0  0  0  0
   43.8095   34.2314   42.2682 H   0  0  0  0  0  0  0  0  0  0  0  0
   44.0955   35.8854   41.5757 H   0  0  0  0  0  0  0  0  0  0  0  0
   41.9082   35.1296   43.3666 H   0  0  0  0  0  0  0  0  0  0  0  0
   42.3647   35.0654   40.5385 H   0  0  0  0  0  0  0  0  0  0  0  0
   41.1243   34.2256   41.5460 H   0  0  0  0  0  0  0  0  0  0  0  0
   40.1157   36.6530   41.8069 H   0  0  0  0  0  0  0  0  0  0  0  0
   41.0559   36.9912   40.3142 H   0  0  0  0  0  0  0  0  0  0  0  0
   39.8030   35.7040   40.3142 H   0  0  0  0  0  0  0  0  0  0  0  0
  1  6  2  0
  2  3  2  0
  2  1  1  0
  3  4  1  0
  4  5  2  0
  5  7  1  0
  6  5  1  0
  7  8  2  0
  7 11  1  0
  8  9  1  0
 10  9  1  0
 11 10  2  0
 12  1  1  0
 13 12  1  0
 14 15  1  0
 14 12  1  0
 16 15  1  0
 17 16  1  0
  2 18  1  0
  3 19  1  0
  8 20  1  0
 10 21  1  0
 12 22  1  1
 13 23  1  0
 13 24  1  0
 13 25  1  0
 14 26  1  0
 14 27  1  0
 15 28  1  0
 16 29  1  0
 16 30  1  0
 17 31  1  0
 17 32  1  0
 17 33  1  0
M  ISO  8  18  14  19  14  20  14  21  14  22   8  23   8  24   8  25   8
M  ISO  8  26   8  27   8  28   5  29   8  30   8  31   8  32   8  33   8
M  END
>  <minimizedAffinity>  (1) 
-4.87380123

>  <minimizedRMSD>  (1) 
0.881725729

$$$$
