
     RDKit          3D

 36 38  0  0  1  0  0  0  0  0999 V2000
   46.3310   33.4960   45.7080 C   0  0  2  0  0  0  0  0  0  0  0  0
   45.1050   34.3860   45.7070 C   0  0  0  0  0  0  0  0  0  0  0  0
   44.8630   35.1610   44.5120 C   0  0  0  0  0  0  0  0  0  0  0  0
   45.7680   35.0850   43.3660 C   0  0  1  0  0  0  0  0  0  0  0  0
   46.9650   34.2090   43.5100 C   0  0  0  0  0  0  0  0  0  0  0  0
   46.6090   33.0040   44.3200 C   0  0  0  0  0  0  0  0  0  0  0  0
   45.2920   32.6460   47.7780 C   0  0  0  0  0  0  0  0  0  0  0  0
   46.1650   32.4390   46.7080 C   0  0  0  0  0  0  0  0  0  0  0  0
   46.8530   31.2140   46.6640 C   0  0  0  0  0  0  0  0  0  0  0  0
   46.6510   30.2980   47.6400 N   0  0  0  0  0  0  0  0  0  0  0  0
   45.7970   30.5330   48.6660 C   0  0  0  0  0  0  0  0  0  0  0  0
   45.1230   31.7010   48.7310 N   0  0  0  0  0  0  0  0  0  0  0  0
   44.9960   34.7830   42.1780 N   0  0  0  0  0  0  0  0  0  0  0  0
   44.2840   33.5620   42.2370 C   0  0  0  0  0  0  0  0  0  0  0  0
   43.0330   33.7170   41.4010 C   0  0  0  0  0  0  0  0  0  0  0  0
   43.0830   35.1350   40.9060 C   0  0  0  0  0  0  0  0  0  0  0  0
   44.1070   35.8300   41.7800 C   0  0  0  0  0  0  0  0  0  0  0  0
   47.2281   34.0590   46.0050 H   0  0  0  0  0  0  0  0  0  0  0  0
   44.4312   34.4396   46.5748 H   0  0  0  0  0  0  0  0  0  0  0  0
   43.9831   35.8193   44.4634 H   0  0  0  0  0  0  0  0  0  0  0  0
   46.2333   36.0785   43.2855 H   0  0  0  0  0  0  0  0  0  0  0  0
   47.3091   33.8924   42.5143 H   0  0  0  0  0  0  0  0  0  0  0  0
   47.7670   34.7661   44.0164 H   0  0  0  0  0  0  0  0  0  0  0  0
   45.7159   32.5154   43.9033 H   0  0  0  0  0  0  0  0  0  0  0  0
   47.4230   32.2641   44.3141 H   0  0  0  0  0  0  0  0  0  0  0  0
   44.7336   33.5912   47.8469 H   0  0  0  0  0  0  0  0  0  0  0  0
   47.5514   31.0010   45.8413 H   0  0  0  0  0  0  0  0  0  0  0  0
   45.6530   29.7713   49.4464 H   0  0  0  0  0  0  0  0  0  0  0  0
   44.9042   32.7471   41.8353 H   0  0  0  0  0  0  0  0  0  0  0  0
   44.0237   33.3182   43.2776 H   0  0  0  0  0  0  0  0  0  0  0  0
   43.0391   33.0106   40.5578 H   0  0  0  0  0  0  0  0  0  0  0  0
   42.1184   33.5068   41.9748 H   0  0  0  0  0  0  0  0  0  0  0  0
   43.3941   35.1638   39.8513 H   0  0  0  0  0  0  0  0  0  0  0  0
   42.0987   35.6229   40.9619 H   0  0  0  0  0  0  0  0  0  0  0  0
   44.6445   36.6034   41.2117 H   0  0  0  0  0  0  0  0  0  0  0  0
   43.6495   36.3437   42.6384 H   0  0  0  0  0  0  0  0  0  0  0  0
  1  8  1  0
  2  1  1  0
  3  2  2  0
  4  5  1  0
  4  3  1  0
  5  6  1  0
  6  1  1  0
  7 12  2  0
  8  7  1  0
  9  8  2  0
  9 10  1  0
 10 11  2  0
 11 12  1  0
 13 14  1  0
 13  4  1  0
 15 14  1  0
 16 15  1  0
 16 17  1  0
 17 13  1  0
  1 18  1  1
  2 19  1  0
  3 20  1  0
  4 21  1  6
  5 22  1  0
  5 23  1  0
  6 24  1  0
  6 25  1  0
  7 26  1  0
  9 27  1  0
 11 28  1  0
 14 29  1  0
 14 30  1  0
 15 31  1  0
 15 32  1  0
 16 33  1  0
 16 34  1  0
 17 35  1  0
 17 36  1  0
M  ISO  8  18  13  19  13  20  13  21  13  22  13  23  13  24  13  25  13
M  ISO  8  26  14  27  14  28  14  29  13  30  13  31  13  32  13  33  13
M  ISO  3  34  13  35  13  36  13
M  END
>  <minimizedAffinity>  (1) 
-5.0278883

>  <minimizedRMSD>  (1) 
0.907648683

$$$$
