
     RDKit          3D

 42 45  0  0  1  0  0  0  0  0999 V2000
   46.5440   34.5990   42.1950 C   0  0  0  0  0  0  0  0  0  0  0  0
   47.6910   35.3080   41.9480 C   0  0  0  0  0  0  0  0  0  0  0  0
   48.4010   35.1900   40.7450 C   0  0  0  0  0  0  0  0  0  0  0  0
   47.9180   34.3160   39.7620 C   0  0  0  0  0  0  0  0  0  0  0  0
   46.7530   33.5960   40.0140 C   0  0  0  0  0  0  0  0  0  0  0  0
   46.0980   33.7560   41.2210 C   0  0  0  0  0  0  0  0  0  0  0  0
   44.9070   33.0010   41.4420 N   0  0  0  0  0  0  0  0  0  0  0  0
   44.8280   31.7260   41.9170 C   0  0  0  0  0  0  0  0  0  0  0  0
   43.6000   31.1450   42.0710 C   0  0  0  0  0  0  0  0  0  0  0  0
   42.4460   31.8140   41.7590 C   0  0  0  0  0  0  0  0  0  0  0  0
   41.3230   31.2480   41.9130 O   0  0  0  0  0  0  0  0  0  0  0  0
   42.5710   33.0820   41.2900 N   0  0  0  0  0  0  0  0  0  0  0  0
   43.7510   33.6630   41.1330 C   0  0  0  0  0  0  0  0  0  0  0  0
   43.7400   34.8500   40.6880 O   0  0  0  0  0  0  0  0  0  0  0  0
   41.1080   34.9060   41.8360 N   0  0  0  0  0  0  0  0  0  0  0  0
   40.9070   36.0920   41.0670 C   0  0  0  0  0  0  0  0  0  0  0  0
   40.6440   35.7050   39.6490 C   0  0  0  0  0  0  0  0  0  0  0  0
   41.3260   34.3350   39.5550 C   0  0  0  0  0  0  0  0  0  0  0  0
   41.3300   33.7950   40.9570 C   0  0  1  0  0  0  0  0  0  0  0  0
   44.4620   35.9070   45.0460 C   0  0  0  0  0  0  0  0  0  0  0  0
   45.0380   35.8340   43.7760 C   0  0  0  0  0  0  0  0  0  0  0  0
   45.8840   34.7910   43.4720 C   0  0  0  0  0  0  0  0  0  0  0  0
   46.1380   33.8490   44.4310 N   0  0  0  0  0  0  0  0  0  0  0  0
   45.5590   33.9470   45.6680 C   0  0  0  0  0  0  0  0  0  0  0  0
   44.7380   34.9590   45.9630 N   0  0  0  0  0  0  0  0  0  0  0  0
   48.0676   35.9938   42.7212 H   0  0  0  0  0  0  0  0  0  0  0  0
   49.3190   35.7720   40.5761 H   0  0  0  0  0  0  0  0  0  0  0  0
   48.4506   34.2005   38.8065 H   0  0  0  0  0  0  0  0  0  0  0  0
   46.3560   32.9037   39.2569 H   0  0  0  0  0  0  0  0  0  0  0  0
   45.7421   31.1705   42.1736 H   0  0  0  0  0  0  0  0  0  0  0  0
   43.5371   30.1159   42.4545 H   0  0  0  0  0  0  0  0  0  0  0  0
   41.9278   35.0286   42.4474 H   0  0  0  0  0  0  0  0  0  0  0  0
   40.0458   36.6491   41.4643 H   0  0  0  0  0  0  0  0  0  0  0  0
   41.8016   36.7298   41.1214 H   0  0  0  0  0  0  0  0  0  0  0  0
   39.5649   35.6277   39.4503 H   0  0  0  0  0  0  0  0  0  0  0  0
   41.0171   36.4351   38.9157 H   0  0  0  0  0  0  0  0  0  0  0  0
   40.7604   33.6684   38.8873 H   0  0  0  0  0  0  0  0  0  0  0  0
   42.3430   34.4114   39.1429 H   0  0  0  0  0  0  0  0  0  0  0  0
   40.5342   33.0433   41.0654 H   0  0  0  0  0  0  0  0  0  0  0  0
   43.7846   36.7364   45.2973 H   0  0  0  0  0  0  0  0  0  0  0  0
   44.8172   36.6050   43.0231 H   0  0  0  0  0  0  0  0  0  0  0  0
   45.7727   33.1822   46.4292 H   0  0  0  0  0  0  0  0  0  0  0  0
  1 22  1  0
  2  1  2  0
  3  2  1  0
  4  5  1  0
  4  3  2  0
  5  6  2  0
  6  7  1  0
  6  1  1  0
  7  8  1  0
  8  9  2  0
 10 11  2  0
 10  9  1  0
 12 10  1  0
 13 12  1  0
 13  7  1  0
 14 13  2  0
 16 15  1  0
 17 16  1  0
 18 17  1  0
 19 18  1  0
 19 12  1  0
 19 15  1  0
 20 25  2  0
 21 20  1  0
 22 21  2  0
 22 23  1  0
 23 24  2  0
 24 25  1  0
  2 26  1  0
  3 27  1  0
  4 28  1  0
  5 29  1  0
  8 30  1  0
  9 31  1  0
 15 32  1  0
 16 33  1  0
 16 34  1  0
 17 35  1  0
 17 36  1  0
 18 37  1  0
 18 38  1  0
 19 39  1  6
 20 40  1  0
 21 41  1  0
 24 42  1  0
M  END
>  <minimizedAffinity>  (1) 
-7.1298275

>  <minimizedRMSD>  (1) 
0.732544005

$$$$
