
     RDKit          3D

 41 43  0  0  1  0  0  0  0  0999 V2000
   46.1060   33.7900   45.2450 C   0  0  2  0  0  0  0  0  0  0  0  0
   44.9730   34.8550   45.4300 C   0  0  0  0  0  0  0  0  0  0  0  0
   44.7040   35.7130   44.3070 C   0  0  0  0  0  0  0  0  0  0  0  0
   45.4380   35.5830   43.0570 C   0  0  1  0  0  0  0  0  0  0  0  0
   46.5370   34.6200   43.0430 C   0  0  0  0  0  0  0  0  0  0  0  0
   46.2000   33.4110   43.8650 C   0  0  0  0  0  0  0  0  0  0  0  0
   45.1210   33.0180   47.3300 C   0  0  0  0  0  0  0  0  0  0  0  0
   45.9650   32.8140   46.2810 C   0  0  0  0  0  0  0  0  0  0  0  0
   46.6480   31.6040   46.2540 C   0  0  0  0  0  0  0  0  0  0  0  0
   46.4950   30.6840   47.2050 N   0  0  0  0  0  0  0  0  0  0  0  0
   45.6370   30.9070   48.2630 C   0  0  0  0  0  0  0  0  0  0  0  0
   44.9650   32.0600   48.3120 N   0  0  0  0  0  0  0  0  0  0  0  0
   45.4870   29.9190   49.2770 N   0  0  0  0  0  0  0  0  0  0  0  0
   47.5210   31.0120   45.2990 N   0  0  0  0  0  0  0  0  0  0  0  0
   47.9620   31.2360   43.9040 C   0  0  0  0  0  0  0  0  0  0  0  0
   47.6630   29.9060   43.2220 C   0  0  0  0  0  0  0  0  0  0  0  0
   48.1570   28.9630   44.3020 C   0  0  0  0  0  0  0  0  0  0  0  0
   48.3280   29.8000   45.5120 C   0  0  0  0  0  0  0  0  0  0  0  0
   44.4190   35.2260   41.9570 C   0  0  0  0  0  0  0  0  0  0  0  0
   43.4370   34.3560   42.3970 F   0  0  0  0  0  0  0  0  0  0  0  0
   43.7570   36.4100   41.6190 F   0  0  0  0  0  0  0  0  0  0  0  0
   45.0610   34.7760   40.8260 F   0  0  0  0  0  0  0  0  0  0  0  0
   47.1321   34.1515   45.4074 H   0  0  0  0  0  0  0  0  0  0  0  0
   44.4109   34.9427   46.3715 H   0  0  0  0  0  0  0  0  0  0  0  0
   43.9255   36.4852   44.3951 H   0  0  0  0  0  0  0  0  0  0  0  0
   45.9367   36.5497   42.8934 H   0  0  0  0  0  0  0  0  0  0  0  0
   46.7294   34.3081   42.0058 H   0  0  0  0  0  0  0  0  0  0  0  0
   47.4295   35.0990   43.4720 H   0  0  0  0  0  0  0  0  0  0  0  0
   45.2376   32.9958   43.5312 H   0  0  0  0  0  0  0  0  0  0  0  0
   46.9857   32.6508   43.7433 H   0  0  0  0  0  0  0  0  0  0  0  0
   44.5556   33.9592   47.3960 H   0  0  0  0  0  0  0  0  0  0  0  0
   44.8469   30.0847   50.0668 H   0  0  0  0  0  0  0  0  0  0  0  0
   46.0185   29.0385   49.2208 H   0  0  0  0  0  0  0  0  0  0  0  0
   47.3934   32.0541   43.4378 H   0  0  0  0  0  0  0  0  0  0  0  0
   49.0196   31.5290   43.8294 H   0  0  0  0  0  0  0  0  0  0  0  0
   46.5887   29.7777   43.0234 H   0  0  0  0  0  0  0  0  0  0  0  0
   48.1228   29.7705   42.2319 H   0  0  0  0  0  0  0  0  0  0  0  0
   47.4186   28.1686   44.4856 H   0  0  0  0  0  0  0  0  0  0  0  0
   49.0958   28.4681   44.0127 H   0  0  0  0  0  0  0  0  0  0  0  0
   49.3871   30.0668   45.6430 H   0  0  0  0  0  0  0  0  0  0  0  0
   48.0071   29.2622   46.4163 H   0  0  0  0  0  0  0  0  0  0  0  0
  1  2  1  0
  1  8  1  0
  3  2  2  0
  4  3  1  0
  5  4  1  0
  5  6  1  0
  6  1  1  0
  7 12  2  0
  8  7  1  0
  9  8  2  0
  9 10  1  0
 10 11  2  0
 11 12  1  0
 11 13  1  0
 14 18  1  0
 14  9  1  0
 15 14  1  0
 16 15  1  0
 16 17  1  0
 17 18  1  0
 19 20  1  0
 19  4  1  0
 21 19  1  0
 22 19  1  0
  1 23  1  1
  2 24  1  0
  3 25  1  0
  4 26  1  6
  5 27  1  0
  5 28  1  0
  6 29  1  0
  6 30  1  0
  7 31  1  0
 13 32  1  0
 13 33  1  0
 15 34  1  0
 15 35  1  0
 16 36  1  0
 16 37  1  0
 17 38  1  0
 17 39  1  0
 18 40  1  0
 18 41  1  0
M  ISO  8  23  13  24  13  25  13  26  13  27  13  28  13  29  13  30  13
M  ISO  8  31  14  34  13  35  13  36  13  37  13  38  13  39  13  40  13
M  ISO  1  41  13
M  END
>  <minimizedAffinity>  (1) 
-5.68286562

>  <minimizedRMSD>  (1) 
0.78679961

$$$$
