
     RDKit          3D

 45 47  0  0  1  0  0  0  0  0999 V2000
   46.6010   33.2380   45.0940 C   0  0  0  0  0  0  0  0  0  0  0  0
   45.6620   34.1420   44.3430 C   0  0  0  0  0  0  0  0  0  0  0  0
   45.0180   35.1420   45.0300 C   0  0  0  0  0  0  0  0  0  0  0  0
   44.2270   35.8200   44.1270 C   0  0  0  0  0  0  0  0  0  0  0  0
   44.4490   35.1770   42.9420 N   0  0  0  0  0  0  0  0  0  0  0  0
   45.3010   34.1760   43.0550 N   0  0  0  0  0  0  0  0  0  0  0  0
   44.3700   34.7220   40.5720 N   0  0  0  0  0  0  0  0  0  0  0  0
   43.2500   34.2440   39.7960 C   0  0  0  0  0  0  0  0  0  0  0  0
   42.1970   34.0060   40.8890 C   0  0  0  0  0  0  0  0  0  0  0  0
   42.3350   35.2880   41.6980 C   0  0  0  0  0  0  0  0  0  0  0  0
   43.8310   35.5240   41.6560 C   0  0  1  0  0  0  0  0  0  0  0  0
   45.9060   31.9790   45.3650 C   0  0  2  0  0  0  0  0  0  0  0  0
   45.8530   32.2190   49.0440 C   0  0  0  0  0  0  0  0  0  0  0  0
   45.4430   30.9020   49.4070 C   0  0  0  0  0  0  0  0  0  0  0  0
   45.1990   29.9560   48.3810 C   0  0  0  0  0  0  0  0  0  0  0  0
   45.3710   30.3600   47.0830 N   0  0  0  0  0  0  0  0  0  0  0  0
   45.7590   31.6110   46.7840 C   0  0  0  0  0  0  0  0  0  0  0  0
   45.9990   32.5390   47.7620 N   0  0  0  0  0  0  0  0  0  0  0  0
   46.5420   30.7860   44.6180 C   0  0  0  0  0  0  0  0  0  0  0  0
   46.5290   30.9950   43.2020 N   0  0  0  0  0  0  0  0  0  0  0  0
   45.2310   30.7760   42.6740 C   0  0  0  0  0  0  0  0  0  0  0  0
   44.0470   31.0180   43.1670 N   0  0  0  0  0  0  0  0  0  0  0  0
   44.7480   30.2390   41.4480 N   0  0  0  0  0  0  0  0  0  0  0  0
   43.8640   31.4400   44.0880 H   0  0  0  0  0  0  0  0  0  0  0  0
   46.8956   33.7121   46.0419 H   0  0  0  0  0  0  0  0  0  0  0  0
   47.5062   33.0512   44.4976 H   0  0  0  0  0  0  0  0  0  0  0  0
   45.1155   35.3616   46.1035 H   0  0  0  0  0  0  0  0  0  0  0  0
   43.5687   36.6806   44.3168 H   0  0  0  0  0  0  0  0  0  0  0  0
   44.9885   35.2965   39.9819 H   0  0  0  0  0  0  0  0  0  0  0  0
   42.9124   34.9992   39.0709 H   0  0  0  0  0  0  0  0  0  0  0  0
   43.4733   33.3548   39.1882 H   0  0  0  0  0  0  0  0  0  0  0  0
   41.1879   33.9018   40.4638 H   0  0  0  0  0  0  0  0  0  0  0  0
   42.3416   33.0825   41.4688 H   0  0  0  0  0  0  0  0  0  0  0  0
   41.7857   36.1179   41.2295 H   0  0  0  0  0  0  0  0  0  0  0  0
   41.9244   35.2177   42.7161 H   0  0  0  0  0  0  0  0  0  0  0  0
   44.0509   36.5872   41.4792 H   0  0  0  0  0  0  0  0  0  0  0  0
   44.8943   32.1871   44.9866 H   0  0  0  0  0  0  0  0  0  0  0  0
   46.0482   32.9694   49.8243 H   0  0  0  0  0  0  0  0  0  0  0  0
   45.3185   30.6258   50.4645 H   0  0  0  0  0  0  0  0  0  0  0  0
   44.8816   28.9300   48.6188 H   0  0  0  0  0  0  0  0  0  0  0  0
   47.5828   30.6664   44.9534 H   0  0  0  0  0  0  0  0  0  0  0  0
   45.9558   29.8825   44.8420 H   0  0  0  0  0  0  0  0  0  0  0  0
   47.3501   31.2672   42.6429 H   0  0  0  0  0  0  0  0  0  0  0  0
   45.4121   29.9082   40.7335 H   0  0  0  0  0  0  0  0  0  0  0  0
   43.7343   30.1811   41.2750 H   0  0  0  0  0  0  0  0  0  0  0  0
  1 12  1  0
  2  3  1  0
  2  1  1  0
  4  3  2  0
  5  6  1  0
  5  4  1  0
  6  2  2  0
  7 11  1  0
  8  7  1  0
  8  9  1  0
  9 10  1  0
 11 10  1  0
 11  5  1  0
 12 17  1  0
 13 14  2  0
 15 14  1  0
 16 15  2  0
 17 16  1  0
 17 18  2  0
 18 13  1  0
 19 12  1  0
 20 19  1  0
 21 22  2  0
 21 20  1  0
 22 24  1  0
 23 21  1  0
  1 25  1  0
  1 26  1  0
  3 27  1  0
  4 28  1  0
  7 29  1  0
  8 30  1  0
  8 31  1  0
  9 32  1  0
  9 33  1  0
 10 34  1  0
 10 35  1  0
 11 36  1  6
 12 37  1  6
 13 38  1  0
 14 39  1  0
 15 40  1  0
 19 41  1  0
 19 42  1  0
 20 43  1  0
 23 44  1  0
 23 45  1  0
M  ISO  8  25   8  26   8  27  14  28  14  29   5  30  13  31  13  32  13
M  ISO  8  33  13  34  13  35  13  36  13  37   8  38  14  39  14  40  14
M  ISO  2  41   8  42   8
M  END
>  <minimizedAffinity>  (1) 
-5.06492615

>  <minimizedRMSD>  (1) 
0.194376618

$$$$
