
     RDKit          3D

 24 25  0  0  0  0  0  0  0  0999 V2000
   45.9850   33.0030   46.7530 C   0  0  0  0  0  0  0  0  0  0  0  0
   45.3430   32.7930   47.9570 C   0  0  0  0  0  0  0  0  0  0  0  0
   45.8580   31.8980   48.8450 C   0  0  0  0  0  0  0  0  0  0  0  0
   47.0320   31.2430   48.4610 C   0  0  0  0  0  0  0  0  0  0  0  0
   47.3780   31.9090   46.8440 S   0  0  0  0  0  0  0  0  0  0  0  0
   44.4570   35.7000   44.8100 C   0  0  0  0  0  0  0  0  0  0  0  0
   45.0670   35.4940   43.5390 C   0  0  0  0  0  0  0  0  0  0  0  0
   45.9930   34.4290   43.3840 C   0  0  0  0  0  0  0  0  0  0  0  0
   46.2500   33.6480   44.4780 N   0  0  0  0  0  0  0  0  0  0  0  0
   45.6490   33.8780   45.6640 C   0  0  0  0  0  0  0  0  0  0  0  0
   44.7670   34.8860   45.8350 N   0  0  0  0  0  0  0  0  0  0  0  0
   47.8320   30.2860   49.0920 N   0  0  0  0  0  0  0  0  0  0  0  0
   49.0150   30.6630   49.7800 C   0  0  0  0  0  0  0  0  0  0  0  0
   49.7120   31.6520   49.2790 N   0  0  0  0  0  0  0  0  0  0  0  0
   49.4030   29.9630   50.9780 N   0  0  0  0  0  0  0  0  0  0  0  0
   50.5860   31.9520   49.7620 H   0  0  0  0  0  0  0  0  0  0  0  0
   44.4221   33.3446   48.1974 H   0  0  0  0  0  0  0  0  0  0  0  0
   45.3755   31.7008   49.8137 H   0  0  0  0  0  0  0  0  0  0  0  0
   43.7371   36.5195   44.9522 H   0  0  0  0  0  0  0  0  0  0  0  0
   44.8241   36.1504   42.6904 H   0  0  0  0  0  0  0  0  0  0  0  0
   46.4861   34.2385   42.4193 H   0  0  0  0  0  0  0  0  0  0  0  0
   47.5593   29.2934   49.0572 H   0  0  0  0  0  0  0  0  0  0  0  0
   50.2611   30.2352   51.4785 H   0  0  0  0  0  0  0  0  0  0  0  0
   48.8223   29.1904   51.3340 H   0  0  0  0  0  0  0  0  0  0  0  0
  1  5  1  0
  1  2  2  0
  2  3  1  0
  4  3  2  0
  4 12  1  0
  5  4  1  0
  6 11  2  0
  7  6  1  0
  8  7  2  0
  8  9  1  0
  9 10  2  0
 10 11  1  0
 10  1  1  0
 12 13  1  0
 13 15  1  0
 14 16  1  0
 14 13  2  0
  2 17  1  0
  3 18  1  0
  6 19  1  0
  7 20  1  0
  8 21  1  0
 12 22  1  0
 15 23  1  0
 15 24  1  0
M  ISO  5  17  14  18  14  19  14  20  14  21  14
M  END
>  <minimizedAffinity>  (1) 
-5.24281216

>  <minimizedRMSD>  (1) 
0.574555278

$$$$
