
     RDKit          3D

 46 49  0  0  0  0  0  0  0  0999 V2000
   46.8440   34.8490   41.8000 C   0  0  0  0  0  0  0  0  0  0  0  0
   48.0840   35.4770   41.7530 C   0  0  0  0  0  0  0  0  0  0  0  0
   48.9350   35.4400   40.6750 C   0  0  0  0  0  0  0  0  0  0  0  0
   48.5570   34.7470   39.5670 C   0  0  0  0  0  0  0  0  0  0  0  0
   47.3260   34.0890   39.5350 C   0  0  0  0  0  0  0  0  0  0  0  0
   46.9410   33.3930   38.4200 C   0  0  0  0  0  0  0  0  0  0  0  0
   45.7420   32.7370   38.3470 C   0  0  0  0  0  0  0  0  0  0  0  0
   44.9620   32.8320   39.4730 C   0  0  0  0  0  0  0  0  0  0  0  0
   45.3400   33.5190   40.5720 C   0  0  0  0  0  0  0  0  0  0  0  0
   46.5180   34.1630   40.6460 C   0  0  0  0  0  0  0  0  0  0  0  0
   44.4960   35.8760   44.6050 C   0  0  0  0  0  0  0  0  0  0  0  0
   45.1350   35.9190   43.3760 C   0  0  0  0  0  0  0  0  0  0  0  0
   46.0870   34.9780   42.9990 C   0  0  0  0  0  0  0  0  0  0  0  0
   46.3200   34.0200   43.9630 N   0  0  0  0  0  0  0  0  0  0  0  0
   45.6930   33.9880   45.1520 C   0  0  0  0  0  0  0  0  0  0  0  0
   44.8000   34.9090   45.4500 N   0  0  0  0  0  0  0  0  0  0  0  0
   46.0180   32.9290   46.0530 N   0  0  0  0  0  0  0  0  0  0  0  0
   45.2780   32.7860   47.1720 C   0  0  0  0  0  0  0  0  0  0  0  0
   45.6090   31.7590   48.0330 C   0  0  0  0  0  0  0  0  0  0  0  0
   46.6730   30.9400   47.6980 C   0  0  0  0  0  0  0  0  0  0  0  0
   46.9960   29.9860   48.4730 O   0  0  0  0  0  0  0  0  0  0  0  0
   47.3780   31.1280   46.5660 N   0  0  0  0  0  0  0  0  0  0  0  0
   47.0320   32.1310   45.7580 C   0  0  0  0  0  0  0  0  0  0  0  0
   47.7260   32.2650   44.7110 O   0  0  0  0  0  0  0  0  0  0  0  0
   44.8740   31.5220   49.3020 C   0  0  0  0  0  0  0  0  0  0  0  0
   44.4040   33.4130   41.6290 N   0  0  0  0  0  0  0  0  0  0  0  0
   43.0080   33.7870   41.4660 C   0  0  0  0  0  0  0  0  0  0  0  0
   42.6420   34.8450   40.8070 N   0  0  0  0  0  0  0  0  0  0  0  0
   41.8320   33.1110   41.9890 N   0  0  0  0  0  0  0  0  0  0  0  0
   43.3020   35.4910   40.3570 H   0  0  0  0  0  0  0  0  0  0  0  0
   48.4056   36.0423   42.6401 H   0  0  0  0  0  0  0  0  0  0  0  0
   49.9034   35.9607   40.7072 H   0  0  0  0  0  0  0  0  0  0  0  0
   49.2237   34.7049   38.6931 H   0  0  0  0  0  0  0  0  0  0  0  0
   47.6183   33.3601   37.5539 H   0  0  0  0  0  0  0  0  0  0  0  0
   45.4273   32.1765   37.4544 H   0  0  0  0  0  0  0  0  0  0  0  0
   43.9855   32.3257   39.4799 H   0  0  0  0  0  0  0  0  0  0  0  0
   43.7470   36.6361   44.8720 H   0  0  0  0  0  0  0  0  0  0  0  0
   44.8801   36.7263   42.6736 H   0  0  0  0  0  0  0  0  0  0  0  0
   44.4400   33.4642   47.3907 H   0  0  0  0  0  0  0  0  0  0  0  0
   48.1675   30.5103   46.3293 H   0  0  0  0  0  0  0  0  0  0  0  0
   45.5358   31.7354   50.1544 H   0  0  0  0  0  0  0  0  0  0  0  0
   43.9954   32.1824   49.3457 H   0  0  0  0  0  0  0  0  0  0  0  0
   44.5466   30.4728   49.3457 H   0  0  0  0  0  0  0  0  0  0  0  0
   44.7219   33.0597   42.5428 H   0  0  0  0  0  0  0  0  0  0  0  0
   40.8930   33.4877   41.7960 H   0  0  0  0  0  0  0  0  0  0  0  0
   41.9378   32.2554   42.5526 H   0  0  0  0  0  0  0  0  0  0  0  0
  1 13  1  0
  2  1  2  0
  3  2  1  0
  4  3  2  0
  5  4  1  0
  5 10  2  0
  6  5  1  0
  7  6  2  0
  7  8  1  0
  8  9  2  0
  9 10  1  0
  9 26  1  0
 10  1  1  0
 11 16  2  0
 12 11  1  0
 13 12  2  0
 13 14  1  0
 14 15  2  0
 15 16  1  0
 15 17  1  0
 17 18  1  0
 18 19  2  0
 19 25  1  0
 20 19  1  0
 20 21  2  0
 22 20  1  0
 23 17  1  0
 23 22  1  0
 24 23  2  0
 27 26  1  0
 27 29  1  0
 28 27  2  0
 30 28  1  0
  2 31  1  0
  3 32  1  0
  4 33  1  0
  6 34  1  0
  7 35  1  0
  8 36  1  0
 11 37  1  0
 12 38  1  0
 18 39  1  0
 22 40  1  0
 25 41  1  0
 25 42  1  0
 25 43  1  0
 26 44  1  0
 29 45  1  0
 29 46  1  0
M  END
>  <minimizedAffinity>  (1) 
-8.22958851

>  <minimizedRMSD>  (1) 
0.506371498

$$$$
