
     RDKit          3D

 39 41  0  0  0  0  0  0  0  0999 V2000
   44.5730   35.8650   44.5520 C   0  0  0  0  0  0  0  0  0  0  0  0
   45.1870   35.8310   43.2900 C   0  0  0  0  0  0  0  0  0  0  0  0
   46.0970   34.8410   43.0390 C   0  0  0  0  0  0  0  0  0  0  0  0
   46.3660   33.9330   44.0210 N   0  0  0  0  0  0  0  0  0  0  0  0
   45.7630   33.9820   45.2320 C   0  0  0  0  0  0  0  0  0  0  0  0
   44.8600   34.9610   45.4900 N   0  0  0  0  0  0  0  0  0  0  0  0
   46.0620   33.0130   46.2650 C   0  0  0  0  0  0  0  0  0  0  0  0
   45.3830   33.0360   47.4690 C   0  0  0  0  0  0  0  0  0  0  0  0
   45.6260   32.1340   48.5030 C   0  0  0  0  0  0  0  0  0  0  0  0
   46.5930   31.2350   48.2070 C   0  0  0  0  0  0  0  0  0  0  0  0
   47.3100   31.1470   47.0390 C   0  0  0  0  0  0  0  0  0  0  0  0
   46.9830   32.0820   46.1060 N   0  0  0  0  0  0  0  0  0  0  0  0
   44.3850   34.0310   47.6560 N   0  0  0  0  0  0  0  0  0  0  0  0
   46.7490   34.7990   41.7120 C   0  0  0  0  0  0  0  0  0  0  0  0
   48.1420   35.3740   41.7280 C   0  0  0  0  0  0  0  0  0  0  0  0
   49.1830   34.3470   41.8870 C   0  0  0  0  0  0  0  0  0  0  0  0
   50.3340   34.5840   42.5100 N   0  0  0  0  0  0  0  0  0  0  0  0
   51.0520   33.5180   42.5030 O   0  0  0  0  0  0  0  0  0  0  0  0
   50.3990   32.5400   41.8720 C   0  0  0  0  0  0  0  0  0  0  0  0
   49.2260   33.0750   41.4900 N   0  0  0  0  0  0  0  0  0  0  0  0
   50.8640   31.2130   41.6590 N   0  0  0  0  0  0  0  0  0  0  0  0
   52.0560   31.0050   40.9230 C   0  0  0  0  0  0  0  0  0  0  0  0
   52.6930   31.9550   40.3470 N   0  0  0  0  0  0  0  0  0  0  0  0
   52.5250   29.6430   40.8550 N   0  0  0  0  0  0  0  0  0  0  0  0
   53.5740   31.7180   39.8170 H   0  0  0  0  0  0  0  0  0  0  0  0
   43.8392   36.6543   44.7722 H   0  0  0  0  0  0  0  0  0  0  0  0
   44.9427   36.5808   42.5231 H   0  0  0  0  0  0  0  0  0  0  0  0
   45.0869   32.1511   49.4617 H   0  0  0  0  0  0  0  0  0  0  0  0
   46.8303   30.4951   48.9856 H   0  0  0  0  0  0  0  0  0  0  0  0
   48.0844   30.3840   46.8716 H   0  0  0  0  0  0  0  0  0  0  0  0
   43.8612   34.0749   48.5418 H   0  0  0  0  0  0  0  0  0  0  0  0
   44.1858   34.7080   46.9057 H   0  0  0  0  0  0  0  0  0  0  0  0
   46.1385   35.3762   41.0019 H   0  0  0  0  0  0  0  0  0  0  0  0
   46.8298   33.7428   41.4156 H   0  0  0  0  0  0  0  0  0  0  0  0
   48.3139   35.9042   40.7796 H   0  0  0  0  0  0  0  0  0  0  0  0
   48.2103   36.0501   42.5930 H   0  0  0  0  0  0  0  0  0  0  0  0
   50.3391   30.4111   42.0363 H   0  0  0  0  0  0  0  0  0  0  0  0
   53.3862   29.4202   40.3358 H   0  0  0  0  0  0  0  0  0  0  0  0
   51.9988   28.8930   41.3256 H   0  0  0  0  0  0  0  0  0  0  0  0
  1  6  2  0
  2  1  1  0
  3  2  2  0
  3  4  1  0
  4  5  2  0
  5  6  1  0
  5  7  1  0
  7  8  2  0
  8 13  1  0
  8  9  1  0
 10  9  2  0
 11 10  1  0
 12  7  1  0
 12 11  2  0
 14 15  1  0
 14  3  1  0
 15 16  1  0
 16 17  2  0
 18 17  1  0
 19 18  1  0
 20 19  2  0
 20 16  1  0
 21 19  1  0
 22 21  1  0
 23 22  2  0
 24 22  1  0
 25 23  1  0
  1 26  1  0
  2 27  1  0
  9 28  1  0
 10 29  1  0
 11 30  1  0
 13 31  1  0
 13 32  1  0
 14 33  1  0
 14 34  1  0
 15 35  1  0
 15 36  1  0
 21 37  1  0
 24 38  1  0
 24 39  1  0
M  END
>  <minimizedAffinity>  (1) 
-7.47787142

>  <minimizedRMSD>  (1) 
0.188898623

$$$$
