
     RDKit          3D

 39 40  0  0  1  0  0  0  0  0999 V2000
   47.9580   33.6450   40.3750 C   0  0  1  0  0  0  0  0  0  0  0  0
   48.1940   34.5380   39.1880 C   0  0  0  0  0  0  0  0  0  0  0  0
   47.6270   33.8060   37.9680 C   0  0  0  0  0  0  0  0  0  0  0  0
   48.4080   32.5610   37.7000 C   0  0  0  0  0  0  0  0  0  0  0  0
   49.3070   32.2210   38.8380 C   0  0  0  0  0  0  0  0  0  0  0  0
   48.8460   32.4620   40.2250 C   0  0  1  0  0  0  0  0  0  0  0  0
   50.1710   32.6410   40.8750 N   0  0  0  0  0  0  0  0  0  0  0  0
   50.5970   31.5500   41.7260 C   0  0  0  0  0  0  0  0  0  0  0  0
   49.7270   30.6710   42.1340 N   0  0  0  0  0  0  0  0  0  0  0  0
   51.9690   31.3940   42.1550 N   0  0  0  0  0  0  0  0  0  0  0  0
   50.0320   29.8940   42.7410 H   0  0  0  0  0  0  0  0  0  0  0  0
   48.2150   34.3130   41.7060 C   0  0  0  0  0  0  0  0  0  0  0  0
   47.4590   33.5290   42.7360 C   0  0  0  0  0  0  0  0  0  0  0  0
   45.9630   33.9370   44.6220 C   0  0  0  0  0  0  0  0  0  0  0  0
   46.4540   34.3290   43.3800 C   0  0  0  0  0  0  0  0  0  0  0  0
   45.9610   35.4740   42.8250 C   0  0  0  0  0  0  0  0  0  0  0  0
   45.0130   36.1810   43.5110 N   0  0  0  0  0  0  0  0  0  0  0  0
   44.5500   35.7950   44.7030 C   0  0  0  0  0  0  0  0  0  0  0  0
   45.0210   34.6780   45.2580 N   0  0  0  0  0  0  0  0  0  0  0  0
   46.8934   33.3685   40.3858 H   0  0  0  0  0  0  0  0  0  0  0  0
   47.6773   35.4990   39.3277 H   0  0  0  0  0  0  0  0  0  0  0  0
   49.2655   34.7509   39.0594 H   0  0  0  0  0  0  0  0  0  0  0  0
   46.5767   33.5411   38.1597 H   0  0  0  0  0  0  0  0  0  0  0  0
   47.6955   34.4666   37.0911 H   0  0  0  0  0  0  0  0  0  0  0  0
   47.7076   31.7285   37.5375 H   0  0  0  0  0  0  0  0  0  0  0  0
   49.0305   32.7309   36.8091 H   0  0  0  0  0  0  0  0  0  0  0  0
   49.5341   31.1477   38.7576 H   0  0  0  0  0  0  0  0  0  0  0  0
   50.1503   32.9173   38.7199 H   0  0  0  0  0  0  0  0  0  0  0  0
   48.2091   31.6691   40.6441 H   0  0  0  0  0  0  0  0  0  0  0  0
   50.7462   33.4830   40.7299 H   0  0  0  0  0  0  0  0  0  0  0  0
   52.2325   30.6038   42.7608 H   0  0  0  0  0  0  0  0  0  0  0  0
   52.6828   32.0731   41.8548 H   0  0  0  0  0  0  0  0  0  0  0  0
   49.2909   34.3005   41.9347 H   0  0  0  0  0  0  0  0  0  0  0  0
   47.8883   35.3633   41.6906 H   0  0  0  0  0  0  0  0  0  0  0  0
   46.9730   32.6723   42.2462 H   0  0  0  0  0  0  0  0  0  0  0  0
   48.1724   33.1919   43.5024 H   0  0  0  0  0  0  0  0  0  0  0  0
   46.3422   33.0178   45.0924 H   0  0  0  0  0  0  0  0  0  0  0  0
   46.3194   35.8214   41.8447 H   0  0  0  0  0  0  0  0  0  0  0  0
   43.7869   36.3934   45.2221 H   0  0  0  0  0  0  0  0  0  0  0  0
  1 12  1  0
  2  1  1  0
  3  2  1  0
  4  3  1  0
  4  5  1  0
  5  6  1  0
  6  1  1  0
  6  7  1  0
  7  8  1  0
  8  9  2  0
  8 10  1  0
  9 11  1  0
 12 13  1  0
 13 15  1  0
 14 19  2  0
 15 14  1  0
 16 15  2  0
 16 17  1  0
 17 18  2  0
 18 19  1  0
  1 20  1  1
  2 21  1  0
  2 22  1  0
  3 23  1  0
  3 24  1  0
  4 25  1  0
  4 26  1  0
  5 27  1  0
  5 28  1  0
  6 29  1  1
  7 30  1  0
 10 31  1  0
 10 32  1  0
 12 33  1  0
 12 34  1  0
 13 35  1  0
 13 36  1  0
 14 37  1  0
 16 38  1  0
 18 39  1  0
M  ISO  8  20  13  21  13  22  13  23  13  24  13  25  13  26  13  27  13
M  ISO  8  28  13  29  13  33   8  34   8  35   8  36   8  37  14  38  14
M  ISO  1  39  14
M  END
>  <minimizedAffinity>  (1) 
-4.61895323

>  <minimizedRMSD>  (1) 
1.04104507

$$$$
