
     RDKit          3D

 40 42  0  0  0  0  0  0  0  0999 V2000
   47.6360   34.1020   42.2200 C   0  0  0  0  0  0  0  0  0  0  0  0
   48.4840   35.2310   41.7090 C   0  0  0  0  0  0  0  0  0  0  0  0
   49.8090   35.3700   42.3330 C   0  0  0  0  0  0  0  0  0  0  0  0
   50.5560   34.0880   42.5310 C   0  0  0  0  0  0  0  0  0  0  0  0
   49.7310   32.8520   42.2590 C   0  0  0  0  0  0  0  0  0  0  0  0
   48.3970   33.0350   42.9550 C   0  0  0  0  0  0  0  0  0  0  0  0
   45.2710   34.4160   45.0470 C   0  0  0  0  0  0  0  0  0  0  0  0
   44.5400   35.5530   44.7220 C   0  0  0  0  0  0  0  0  0  0  0  0
   44.8650   36.2110   43.5320 C   0  0  0  0  0  0  0  0  0  0  0  0
   45.8650   35.7050   42.7700 N   0  0  0  0  0  0  0  0  0  0  0  0
   46.5600   34.5900   43.1170 C   0  0  0  0  0  0  0  0  0  0  0  0
   46.2430   33.9560   44.2710 N   0  0  0  0  0  0  0  0  0  0  0  0
   47.0050   33.4180   41.0220 C   0  0  0  0  0  0  0  0  0  0  0  0
   45.9900   32.5180   40.7670 C   0  0  0  0  0  0  0  0  0  0  0  0
   45.7690   32.1670   39.4930 C   0  0  0  0  0  0  0  0  0  0  0  0
   46.4910   32.6590   38.4800 C   0  0  0  0  0  0  0  0  0  0  0  0
   47.6610   33.7720   39.3730 S   0  0  0  0  0  0  0  0  0  0  0  0
   46.5750   32.5590   37.1010 N   0  0  0  0  0  0  0  0  0  0  0  0
   45.5380   33.1230   36.3340 C   0  0  0  0  0  0  0  0  0  0  0  0
   44.8720   34.1260   36.7940 N   0  0  0  0  0  0  0  0  0  0  0  0
   45.1680   32.6400   35.0410 N   0  0  0  0  0  0  0  0  0  0  0  0
   44.1040   34.5840   36.2890 H   0  0  0  0  0  0  0  0  0  0  0  0
   48.6335   35.0791   40.6298 H   0  0  0  0  0  0  0  0  0  0  0  0
   47.9376   36.1522   41.9598 H   0  0  0  0  0  0  0  0  0  0  0  0
   50.4195   36.0248   41.6938 H   0  0  0  0  0  0  0  0  0  0  0  0
   49.6323   35.7797   43.3385 H   0  0  0  0  0  0  0  0  0  0  0  0
   51.4218   34.0830   41.8525 H   0  0  0  0  0  0  0  0  0  0  0  0
   50.8502   34.0495   43.5902 H   0  0  0  0  0  0  0  0  0  0  0  0
   49.5770   32.7335   41.1763 H   0  0  0  0  0  0  0  0  0  0  0  0
   50.2436   31.9531   42.6322 H   0  0  0  0  0  0  0  0  0  0  0  0
   48.5589   33.3428   43.9986 H   0  0  0  0  0  0  0  0  0  0  0  0
   47.8316   32.0914   42.9546 H   0  0  0  0  0  0  0  0  0  0  0  0
   45.0354   33.8803   45.9784 H   0  0  0  0  0  0  0  0  0  0  0  0
   43.7362   35.9211   45.3765 H   0  0  0  0  0  0  0  0  0  0  0  0
   44.3228   37.1165   43.2221 H   0  0  0  0  0  0  0  0  0  0  0  0
   45.3819   32.1021   41.5838 H   0  0  0  0  0  0  0  0  0  0  0  0
   44.9655   31.4489   39.2722 H   0  0  0  0  0  0  0  0  0  0  0  0
   47.3717   32.0865   36.6506 H   0  0  0  0  0  0  0  0  0  0  0  0
   45.6685   31.8405   34.6273 H   0  0  0  0  0  0  0  0  0  0  0  0
   44.4008   33.0914   34.5228 H   0  0  0  0  0  0  0  0  0  0  0  0
  1  6  1  0
  1 11  1  0
  2  1  1  0
  2  3  1  0
  3  4  1  0
  5  4  1  0
  5  6  1  0
  8  7  2  0
  9  8  1  0
 10 11  1  0
 10  9  2  0
 11 12  2  0
 12  7  1  0
 13  1  1  0
 14 13  2  0
 15 14  1  0
 16 17  1  0
 16 15  2  0
 17 13  1  0
 18 16  1  0
 19 20  2  0
 19 18  1  0
 21 19  1  0
 22 20  1  0
  2 23  1  0
  2 24  1  0
  3 25  1  0
  3 26  1  0
  4 27  1  0
  4 28  1  0
  5 29  1  0
  5 30  1  0
  6 31  1  0
  6 32  1  0
  7 33  1  0
  8 34  1  0
  9 35  1  0
 14 36  1  0
 15 37  1  0
 18 38  1  0
 21 39  1  0
 21 40  1  0
M  ISO  8  23  13  24  13  25  13  26  13  27  13  28  13  29  13  30  13
M  ISO  7  31  13  32  13  33  14  34  14  35  14  36  14  37  14
M  END
>  <minimizedAffinity>  (1) 
-6.4162159

>  <minimizedRMSD>  (1) 
0.53521955

$$$$
