
     RDKit          3D

 20 21  0  0  0  0  0  0  0  0999 V2000
   45.3450   36.1660   43.2590 C   0  0  0  0  0  0  0  0  0  0  0  0
   46.0650   34.9830   43.1030 C   0  0  0  0  0  0  0  0  0  0  0  0
   46.0050   34.0400   44.1110 C   0  0  0  0  0  0  0  0  0  0  0  0
   45.2570   34.2810   45.2180 N   0  0  0  0  0  0  0  0  0  0  0  0
   44.5780   35.4230   45.3380 C   0  0  0  0  0  0  0  0  0  0  0  0
   44.6240   36.3400   44.3800 N   0  0  0  0  0  0  0  0  0  0  0  0
   46.8220   34.8160   41.9160 N   0  0  0  0  0  0  0  0  0  0  0  0
   48.0110   35.3100   41.7740 N   0  0  0  0  0  0  0  0  0  0  0  0
   48.5000   35.0020   40.5510 C   0  0  0  0  0  0  0  0  0  0  0  0
   47.4630   34.2540   39.9540 C   0  0  0  0  0  0  0  0  0  0  0  0
   46.3920   34.1380   40.8310 C   0  0  0  0  0  0  0  0  0  0  0  0
   46.6950   32.8080   44.0340 C   0  0  0  0  0  0  0  0  0  0  0  0
   47.9470   32.7230   44.0990 O   0  0  0  0  0  0  0  0  0  0  0  0
   46.7980   31.4670   43.9150 O   0  0  0  0  0  0  0  0  0  0  0  0
   45.3663   36.9422   42.4799 H   0  0  0  0  0  0  0  0  0  0  0  0
   43.9745   35.6062   46.2393 H   0  0  0  0  0  0  0  0  0  0  0  0
   49.4766   35.2713   40.1225 H   0  0  0  0  0  0  0  0  0  0  0  0
   47.4977   33.8252   38.9416 H   0  0  0  0  0  0  0  0  0  0  0  0
   45.4324   33.6221   40.6791 H   0  0  0  0  0  0  0  0  0  0  0  0
   45.9823   30.9147   43.8160 H   0  0  0  0  0  0  0  0  0  0  0  0
  1  6  2  0
  2  1  1  0
  2  3  2  0
  3  4  1  0
  4  5  2  0
  6  5  1  0
  7  2  1  0
  8  7  1  0
  9  8  2  0
 10  9  1  0
 10 11  2  0
 11  7  1  0
 12 13  2  0
 12  3  1  0
 14 12  1  0
  1 15  1  0
  5 16  1  0
  9 17  1  0
 10 18  1  0
 11 19  1  0
 14 20  1  0
M  ISO  6  15  14  16  14  17  14  18  14  19  14  20   3
M  END
>  <minimizedAffinity>  (1) 
-4.15675402

>  <minimizedRMSD>  (1) 
3.01984954

$$$$
