
     RDKit          3D

 33 35  0  0  0  0  0  0  0  0999 V2000
   46.3600   30.7240   46.0220 C   0  0  0  0  0  0  0  0  0  0  0  0
   45.7970   31.3120   47.1670 C   0  0  0  0  0  0  0  0  0  0  0  0
   45.1140   30.2900   47.7940 C   0  0  0  0  0  0  0  0  0  0  0  0
   45.2550   29.1590   47.0750 N   0  0  0  0  0  0  0  0  0  0  0  0
   46.0050   29.4050   46.0040 N   0  0  0  0  0  0  0  0  0  0  0  0
   44.6560   27.9310   47.4840 C   0  0  0  0  0  0  0  0  0  0  0  0
   44.0160   26.9790   46.5290 C   0  0  0  0  0  0  0  0  0  0  0  0
   43.4720   25.6510   47.7280 S   0  0  0  0  0  0  0  0  0  0  0  0
   44.1850   26.6100   49.1960 C   0  0  0  0  0  0  0  0  0  0  0  0
   44.6290   27.5540   48.7580 N   0  0  0  0  0  0  0  0  0  0  0  0
   43.9670   25.8650   50.5020 C   0  0  0  0  0  0  0  0  0  0  0  0
   42.9860   26.0750   51.2230 O   0  0  0  0  0  0  0  0  0  0  0  0
   44.9410   24.9540   50.8020 O   0  0  0  0  0  0  0  0  0  0  0  0
   47.3780   31.2550   44.6680 S   0  0  0  0  0  0  0  0  0  0  0  0
   47.2520   34.7400   42.6460 C   0  0  0  0  0  0  0  0  0  0  0  0
   47.7180   33.5240   43.1470 C   0  0  0  0  0  0  0  0  0  0  0  0
   46.8930   32.7910   43.9830 C   0  0  0  0  0  0  0  0  0  0  0  0
   45.6700   33.2960   44.2750 N   0  0  0  0  0  0  0  0  0  0  0  0
   45.2530   34.4810   43.7710 C   0  0  0  0  0  0  0  0  0  0  0  0
   46.0400   35.1780   42.9720 N   0  0  0  0  0  0  0  0  0  0  0  0
   48.2490   35.4130   41.7610 C   0  0  0  0  0  0  0  0  0  0  0  0
   49.6440   35.2100   42.2910 C   0  0  0  0  0  0  0  0  0  0  0  0
   45.8821   32.3592   47.4928 H   0  0  0  0  0  0  0  0  0  0  0  0
   44.5453   30.3835   48.7310 H   0  0  0  0  0  0  0  0  0  0  0  0
   43.8985   27.0407   45.4370 H   0  0  0  0  0  0  0  0  0  0  0  0
   44.8814   24.4217   51.6346 H   0  0  0  0  0  0  0  0  0  0  0  0
   48.7202   33.1553   42.8832 H   0  0  0  0  0  0  0  0  0  0  0  0
   44.2547   34.8648   44.0280 H   0  0  0  0  0  0  0  0  0  0  0  0
   48.0296   36.4902   41.7216 H   0  0  0  0  0  0  0  0  0  0  0  0
   48.1834   34.9764   40.7535 H   0  0  0  0  0  0  0  0  0  0  0  0
   49.6225   35.2131   43.3908 H   0  0  0  0  0  0  0  0  0  0  0  0
   50.0349   34.2455   41.9347 H   0  0  0  0  0  0  0  0  0  0  0  0
   50.2936   36.0231   41.9347 H   0  0  0  0  0  0  0  0  0  0  0  0
  1  2  1  0
  2  3  2  0
  4  6  1  0
  4  3  1  0
  5  1  2  0
  5  4  1  0
  6 10  1  0
  7  6  2  0
  7  8  1  0
  8  9  1  0
  9 11  1  0
 10  9  2  0
 11 13  1  0
 11 12  2  0
 14  1  1  0
 15 20  2  0
 15 16  1  0
 16 17  2  0
 17 18  1  0
 17 14  1  0
 19 18  2  0
 20 19  1  0
 21 22  1  0
 21 15  1  0
  2 23  1  0
  3 24  1  0
  7 25  1  0
 13 26  1  0
 16 27  1  0
 19 28  1  0
 21 29  1  0
 21 30  1  0
 22 31  1  0
 22 32  1  0
 22 33  1  0
M  ISO  8  23  14  24  14  25  14  26   3  27  14  28  14  29   8  30   8
M  ISO  3  31   8  32   8  33   8
M  END
>  <minimizedAffinity>  (1) 
-5.25873184

>  <minimizedRMSD>  (1) 
0.475224346

$$$$
