
     RDKit          3D

 20 21  0  0  0  0  0  0  0  0999 V2000
   45.8710   33.2930   46.1760 C   0  0  0  0  0  0  0  0  0  0  0  0
   45.2680   33.1280   47.4060 C   0  0  0  0  0  0  0  0  0  0  0  0
   45.7000   32.1480   48.2440 C   0  0  0  0  0  0  0  0  0  0  0  0
   46.7580   31.3690   47.7580 C   0  0  0  0  0  0  0  0  0  0  0  0
   47.1150   32.0370   46.1360 S   0  0  0  0  0  0  0  0  0  0  0  0
   44.4280   36.1450   44.3590 C   0  0  0  0  0  0  0  0  0  0  0  0
   45.0840   36.0290   43.1110 C   0  0  0  0  0  0  0  0  0  0  0  0
   46.0090   34.9700   42.9230 C   0  0  0  0  0  0  0  0  0  0  0  0
   46.2180   34.1120   43.9670 N   0  0  0  0  0  0  0  0  0  0  0  0
   45.5730   34.2570   45.1430 C   0  0  0  0  0  0  0  0  0  0  0  0
   44.6910   35.2600   45.3330 N   0  0  0  0  0  0  0  0  0  0  0  0
   47.4350   30.2460   48.4300 C   0  0  0  0  0  0  0  0  0  0  0  0
   47.5760   29.1450   47.8400 O   0  0  0  0  0  0  0  0  0  0  0  0
   47.8850   30.5010   49.7180 O   0  0  0  0  0  0  0  0  0  0  0  0
   44.4406   33.7870   47.7078 H   0  0  0  0  0  0  0  0  0  0  0  0
   45.2504   31.9789   49.2336 H   0  0  0  0  0  0  0  0  0  0  0  0
   43.7057   36.9568   44.5303 H   0  0  0  0  0  0  0  0  0  0  0  0
   44.8808   36.7461   42.3020 H   0  0  0  0  0  0  0  0  0  0  0  0
   46.5408   34.8432   41.9685 H   0  0  0  0  0  0  0  0  0  0  0  0
   48.3491   29.7918   50.2297 H   0  0  0  0  0  0  0  0  0  0  0  0
  1  2  2  0
  2  3  1  0
  4  3  2  0
  4 12  1  0
  5  1  1  0
  5  4  1  0
  6 11  2  0
  7  6  1  0
  8  7  2  0
  8  9  1  0
  9 10  2  0
 10 11  1  0
 10  1  1  0
 12 14  1  0
 13 12  2  0
  2 15  1  0
  3 16  1  0
  6 17  1  0
  7 18  1  0
  8 19  1  0
 14 20  1  0
M  ISO  6  15  14  16  14  17  14  18  14  19  14  20   3
M  END
>  <minimizedAffinity>  (1) 
-4.64093018

>  <minimizedRMSD>  (1) 
0.819685817

$$$$
