
     RDKit          3D

 30 31  0  0  1  0  0  0  0  0999 V2000
   46.0780   34.2190   44.3390 C   0  0  2  0  0  0  0  0  0  0  0  0
   44.8580   35.1130   44.4210 C   0  0  0  0  0  0  0  0  0  0  0  0
   44.3700   35.6670   43.1940 C   0  0  0  0  0  0  0  0  0  0  0  0
   45.0200   35.3800   41.9220 C   0  0  1  0  0  0  0  0  0  0  0  0
   46.2640   34.5860   41.9750 C   0  0  0  0  0  0  0  0  0  0  0  0
   46.1520   33.5260   43.0280 C   0  0  0  0  0  0  0  0  0  0  0  0
   45.3140   33.6290   46.5940 C   0  0  0  0  0  0  0  0  0  0  0  0
   46.1530   33.3810   45.5250 C   0  0  0  0  0  0  0  0  0  0  0  0
   47.0530   32.3240   45.6550 C   0  0  0  0  0  0  0  0  0  0  0  0
   47.0840   31.5820   46.7960 N   0  0  0  0  0  0  0  0  0  0  0  0
   46.2420   31.8550   47.8310 C   0  0  0  0  0  0  0  0  0  0  0  0
   45.3580   32.8830   47.7190 N   0  0  0  0  0  0  0  0  0  0  0  0
   46.2660   31.0690   49.0590 C   0  0  0  0  0  0  0  0  0  0  0  0
   45.2350   30.6660   49.6440 O   0  0  0  0  0  0  0  0  0  0  0  0
   47.5110   30.7490   49.6080 O   0  0  0  0  0  0  0  0  0  0  0  0
   43.9960   34.7080   41.0020 C   0  0  0  0  0  0  0  0  0  0  0  0
   43.0650   33.9620   41.6900 F   0  0  0  0  0  0  0  0  0  0  0  0
   43.2870   35.7260   40.3580 F   0  0  0  0  0  0  0  0  0  0  0  0
   44.6580   33.9850   40.0250 F   0  0  0  0  0  0  0  0  0  0  0  0
   47.0030   34.8140   44.3564 H   0  0  0  0  0  0  0  0  0  0  0  0
   44.3678   35.3275   45.3821 H   0  0  0  0  0  0  0  0  0  0  0  0
   43.4867   36.3224   43.2122 H   0  0  0  0  0  0  0  0  0  0  0  0
   45.3598   36.3528   41.5371 H   0  0  0  0  0  0  0  0  0  0  0  0
   46.4350   34.1115   40.9975 H   0  0  0  0  0  0  0  0  0  0  0  0
   47.1058   35.2504   42.2201 H   0  0  0  0  0  0  0  0  0  0  0  0
   45.2434   32.9275   42.8658 H   0  0  0  0  0  0  0  0  0  0  0  0
   47.0161   32.8463   42.9927 H   0  0  0  0  0  0  0  0  0  0  0  0
   44.5913   34.4556   46.5273 H   0  0  0  0  0  0  0  0  0  0  0  0
   47.7421   32.0882   44.8307 H   0  0  0  0  0  0  0  0  0  0  0  0
   47.5626   30.2167   50.4411 H   0  0  0  0  0  0  0  0  0  0  0  0
  1  2  1  0
  1  8  1  0
  3  2  2  0
  4  5  1  0
  4  3  1  0
  5  6  1  0
  6  1  1  0
  7 12  2  0
  8  9  2  0
  8  7  1  0
  9 10  1  0
 10 11  2  0
 11 13  1  0
 12 11  1  0
 13 15  1  0
 13 14  2  0
 16 17  1  0
 16  4  1  0
 18 16  1  0
 19 16  1  0
  1 20  1  1
  2 21  1  0
  3 22  1  0
  4 23  1  6
  5 24  1  0
  5 25  1  0
  6 26  1  0
  6 27  1  0
  7 28  1  0
  9 29  1  0
 15 30  1  0
M  ISO  8  20  13  21  13  22  13  23  13  24  13  25  13  26  13  27  13
M  ISO  3  28  14  29  14  30   3
M  END
>  <minimizedAffinity>  (1) 
-5.532516

>  <minimizedRMSD>  (1) 
1.37754202

$$$$
