
     RDKit          3D

 41 43  0  0  1  0  0  0  0  0999 V2000
   43.7630   35.1300   41.5110 C   0  0  0  0  0  0  0  0  0  0  0  0
   45.0020   34.6080   41.1110 C   0  0  0  0  0  0  0  0  0  0  0  0
   46.0190   34.6610   42.0830 C   0  0  0  0  0  0  0  0  0  0  0  0
   45.7600   35.1970   43.3240 N   0  0  0  0  0  0  0  0  0  0  0  0
   44.5170   35.6880   43.6380 C   0  0  0  0  0  0  0  0  0  0  0  0
   43.5400   35.6430   42.7160 N   0  0  0  0  0  0  0  0  0  0  0  0
   47.3940   34.1250   41.8020 C   0  0  0  0  0  0  0  0  0  0  0  0
   48.2490   35.2130   41.1330 C   0  0  0  0  0  0  0  0  0  0  0  0
   49.3810   35.6720   41.9800 C   0  0  0  0  0  0  0  0  0  0  0  0
   50.2530   34.5540   42.4750 C   0  0  0  0  0  0  0  0  0  0  0  0
   49.4990   33.2500   42.5700 C   0  0  0  0  0  0  0  0  0  0  0  0
   48.0800   33.5720   42.9960 C   0  0  0  0  0  0  0  0  0  0  0  0
   42.6350   35.1220   40.5410 C   0  0  1  0  0  0  0  0  0  0  0  0
   42.8730   34.2890   39.3280 C   0  0  0  0  0  0  0  0  0  0  0  0
   41.7080   33.3010   39.2600 C   0  0  0  0  0  0  0  0  0  0  0  0
   41.3390   33.1660   40.7250 C   0  0  0  0  0  0  0  0  0  0  0  0
   41.3750   34.5640   41.2250 C   0  0  2  0  0  0  0  0  0  0  0  0
   40.1870   35.3400   40.7810 C   0  0  0  0  0  0  0  0  0  0  0  0
   40.2290   36.5690   40.6610 O   0  0  0  0  0  0  0  0  0  0  0  0
   45.1673   34.1869   40.1084 H   0  0  0  0  0  0  0  0  0  0  0  0
   44.3227   36.1137   44.6335 H   0  0  0  0  0  0  0  0  0  0  0  0
   47.2669   33.2735   41.1173 H   0  0  0  0  0  0  0  0  0  0  0  0
   48.6561   34.8095   40.1941 H   0  0  0  0  0  0  0  0  0  0  0  0
   47.5964   36.0817   40.9611 H   0  0  0  0  0  0  0  0  0  0  0  0
   50.0014   36.3609   41.3880 H   0  0  0  0  0  0  0  0  0  0  0  0
   48.9452   36.1577   42.8656 H   0  0  0  0  0  0  0  0  0  0  0  0
   51.0964   34.4270   41.7804 H   0  0  0  0  0  0  0  0  0  0  0  0
   50.6049   34.8178   43.4833 H   0  0  0  0  0  0  0  0  0  0  0  0
   49.4922   32.7483   41.5911 H   0  0  0  0  0  0  0  0  0  0  0  0
   49.9782   32.5784   43.2975 H   0  0  0  0  0  0  0  0  0  0  0  0
   48.0866   34.3144   43.8077 H   0  0  0  0  0  0  0  0  0  0  0  0
   47.5647   32.6748   43.3695 H   0  0  0  0  0  0  0  0  0  0  0  0
   42.5222   36.1675   40.2182 H   0  0  0  0  0  0  0  0  0  0  0  0
   42.8912   34.9210   38.4279 H   0  0  0  0  0  0  0  0  0  0  0  0
   43.8405   33.7682   39.3804 H   0  0  0  0  0  0  0  0  0  0  0  0
   40.8719   33.7058   38.6708 H   0  0  0  0  0  0  0  0  0  0  0  0
   41.9568   32.3477   38.7708 H   0  0  0  0  0  0  0  0  0  0  0  0
   40.3337   32.7342   40.8385 H   0  0  0  0  0  0  0  0  0  0  0  0
   42.0166   32.4975   41.2764 H   0  0  0  0  0  0  0  0  0  0  0  0
   41.3793   34.6217   42.3235 H   0  0  0  0  0  0  0  0  0  0  0  0
   39.2508   34.8087   40.5545 H   0  0  0  0  0  0  0  0  0  0  0  0
  1  6  1  0
  2  1  2  0
  2  3  1  0
  3  4  2  0
  4  5  1  0
  6  5  2  0
  7  3  1  0
  7 12  1  0
  8  7  1  0
  8  9  1  0
  9 10  1  0
 10 11  1  0
 11 12  1  0
 13 17  1  0
 13  1  1  0
 14 13  1  0
 15 14  1  0
 15 16  1  0
 16 17  1  0
 18 17  1  0
 19 18  2  0
  2 20  1  0
  5 21  1  0
  7 22  1  0
  8 23  1  0
  8 24  1  0
  9 25  1  0
  9 26  1  0
 10 27  1  0
 10 28  1  0
 11 29  1  0
 11 30  1  0
 12 31  1  0
 12 32  1  0
 13 33  1  6
 14 34  1  0
 14 35  1  0
 15 36  1  0
 15 37  1  0
 16 38  1  0
 16 39  1  0
 17 40  1  1
 18 41  1  0
M  ISO  8  20  14  21  14  22  13  23  13  24  13  25  13  26  13  27  13
M  ISO  8  28  13  29  13  30  13  31  13  32  13  33  13  34  13  35  13
M  ISO  6  36  13  37  13  38  13  39  13  40  13  41   6
M  END
>  <minimizedAffinity>  (1) 
-5.91577578

>  <minimizedRMSD>  (1) 
0.51427418

$$$$
