
     RDKit          3D

 49 53  0  0  0  0  0  0  0  0999 V2000
   46.1590   31.8720   47.2650 C   0  0  0  0  0  0  0  0  0  0  0  0
   44.5640   34.9540   46.2220 C   0  0  0  0  0  0  0  0  0  0  0  0
   44.7850   34.9850   44.8330 C   0  0  0  0  0  0  0  0  0  0  0  0
   45.5010   33.9190   44.2360 C   0  0  0  0  0  0  0  0  0  0  0  0
   45.9340   32.9290   45.0410 N   0  0  0  0  0  0  0  0  0  0  0  0
   45.7000   32.9370   46.3710 C   0  0  0  0  0  0  0  0  0  0  0  0
   45.0210   33.9370   46.9630 N   0  0  0  0  0  0  0  0  0  0  0  0
   45.6920   34.0040   42.8530 N   0  0  0  0  0  0  0  0  0  0  0  0
   44.9190   33.8760   41.7760 C   0  0  0  0  0  0  0  0  0  0  0  0
   45.6320   34.0610   40.6430 N   0  0  0  0  0  0  0  0  0  0  0  0
   46.9150   34.3190   41.0120 C   0  0  0  0  0  0  0  0  0  0  0  0
   48.0460   34.5810   40.2390 C   0  0  0  0  0  0  0  0  0  0  0  0
   48.0200   34.6150   38.9930 O   0  0  0  0  0  0  0  0  0  0  0  0
   49.2280   34.8090   40.8530 N   0  0  0  0  0  0  0  0  0  0  0  0
   49.2340   34.7680   42.1850 C   0  0  0  0  0  0  0  0  0  0  0  0
   50.4170   34.9920   42.9370 N   0  0  0  0  0  0  0  0  0  0  0  0
   48.1540   34.5180   42.9220 N   0  0  0  0  0  0  0  0  0  0  0  0
   46.9410   34.2810   42.3820 C   0  0  0  0  0  0  0  0  0  0  0  0
   47.3790   32.3080   48.0670 C   0  0  0  0  0  0  0  0  0  0  0  0
   45.1170   31.3480   48.1990 C   0  0  0  0  0  0  0  0  0  0  0  0
   46.6420   30.7260   46.3600 C   0  0  0  0  0  0  0  0  0  0  0  0
   46.0150   29.4820   46.7230 N   0  0  0  0  0  0  0  0  0  0  0  0
   44.6800   29.2780   46.6080 C   0  0  0  0  0  0  0  0  0  0  0  0
   44.4280   28.0080   47.0340 N   0  0  0  0  0  0  0  0  0  0  0  0
   45.5990   27.4650   47.3980 C   0  0  0  0  0  0  0  0  0  0  0  0
   45.9790   26.2340   47.9000 C   0  0  0  0  0  0  0  0  0  0  0  0
   47.2680   25.9620   48.1820 N   0  0  0  0  0  0  0  0  0  0  0  0
   48.2430   26.8690   47.9900 C   0  0  0  0  0  0  0  0  0  0  0  0
   47.8790   28.0680   47.5010 N   0  0  0  0  0  0  0  0  0  0  0  0
   46.6140   28.3660   47.2140 C   0  0  0  0  0  0  0  0  0  0  0  0
   45.0100   25.2170   48.1330 N   0  0  0  0  0  0  0  0  0  0  0  0
   44.0103   35.7733   46.7039 H   0  0  0  0  0  0  0  0  0  0  0  0
   44.4094   35.8200   44.2233 H   0  0  0  0  0  0  0  0  0  0  0  0
   43.8429   33.6497   41.8049 H   0  0  0  0  0  0  0  0  0  0  0  0
   50.0848   35.0054   40.3162 H   0  0  0  0  0  0  0  0  0  0  0  0
   50.3883   34.9533   43.9659 H   0  0  0  0  0  0  0  0  0  0  0  0
   51.3041   35.1932   42.4538 H   0  0  0  0  0  0  0  0  0  0  0  0
   47.1585   32.2292   49.1418 H   0  0  0  0  0  0  0  0  0  0  0  0
   48.2319   31.6590   47.8191 H   0  0  0  0  0  0  0  0  0  0  0  0
   47.6273   33.3505   47.8191 H   0  0  0  0  0  0  0  0  0  0  0  0
   45.4405   31.5107   49.2377 H   0  0  0  0  0  0  0  0  0  0  0  0
   44.1682   31.8762   48.0234 H   0  0  0  0  0  0  0  0  0  0  0  0
   44.9752   30.2714   48.0234 H   0  0  0  0  0  0  0  0  0  0  0  0
   47.7323   30.6224   46.4620 H   0  0  0  0  0  0  0  0  0  0  0  0
   46.3728   30.9636   45.3203 H   0  0  0  0  0  0  0  0  0  0  0  0
   43.9384   30.0021   46.2397 H   0  0  0  0  0  0  0  0  0  0  0  0
   49.2933   26.6397   48.2230 H   0  0  0  0  0  0  0  0  0  0  0  0
   45.3025   24.3030   48.5072 H   0  0  0  0  0  0  0  0  0  0  0  0
   44.0166   25.3953   47.9274 H   0  0  0  0  0  0  0  0  0  0  0  0
  1 19  1  0
  1 20  1  0
  2  7  2  0
  3  2  1  0
  4  3  2  0
  4  5  1  0
  5  6  2  0
  6  7  1  0
  6  1  1  0
  8  4  1  0
  9  8  1  0
 10 11  1  0
 10  9  2  0
 11 18  2  0
 12 14  1  0
 12 11  1  0
 13 12  2  0
 14 15  1  0
 15 17  2  0
 15 16  1  0
 18  8  1  0
 18 17  1  0
 21 22  1  0
 21  1  1  0
 22 30  1  0
 23 22  1  0
 23 24  2  0
 24 25  1  0
 25 26  2  0
 26 31  1  0
 26 27  1  0
 28 27  2  0
 29 28  1  0
 30 25  1  0
 30 29  2  0
  2 32  1  0
  3 33  1  0
  9 34  1  0
 14 35  1  0
 16 36  1  0
 16 37  1  0
 19 38  1  0
 19 39  1  0
 19 40  1  0
 20 41  1  0
 20 42  1  0
 20 43  1  0
 21 44  1  0
 21 45  1  0
 23 46  1  0
 28 47  1  0
 31 48  1  0
 31 49  1  0
M  END
>  <minimizedAffinity>  (1) 
-7.26127958

>  <minimizedRMSD>  (1) 
1.73347139

$$$$
