
     RDKit          3D

 19 20  0  0  0  0  0  0  0  0999 V2000
   45.8170   33.2500   46.4560 C   0  0  0  0  0  0  0  0  0  0  0  0
   45.1150   33.0590   47.6280 C   0  0  0  0  0  0  0  0  0  0  0  0
   45.5390   32.1290   48.5160 C   0  0  0  0  0  0  0  0  0  0  0  0
   46.6840   31.4190   48.1610 C   0  0  0  0  0  0  0  0  0  0  0  0
   47.1450   32.0810   46.5720 S   0  0  0  0  0  0  0  0  0  0  0  0
   44.4650   36.0230   44.4710 C   0  0  0  0  0  0  0  0  0  0  0  0
   45.1640   35.8430   43.2410 C   0  0  0  0  0  0  0  0  0  0  0  0
   46.0820   34.7660   43.1390 C   0  0  0  0  0  0  0  0  0  0  0  0
   46.2460   33.9570   44.2290 N   0  0  0  0  0  0  0  0  0  0  0  0
   45.5600   34.1720   45.3700 C   0  0  0  0  0  0  0  0  0  0  0  0
   44.6790   35.1850   45.5020 N   0  0  0  0  0  0  0  0  0  0  0  0
   47.4130   30.3620   48.8590 C   0  0  0  0  0  0  0  0  0  0  0  0
   48.4120   30.7110   49.5300 O   0  0  0  0  0  0  0  0  0  0  0  0
   44.2170   33.6581   47.8397 H   0  0  0  0  0  0  0  0  0  0  0  0
   45.0102   31.9447   49.4628 H   0  0  0  0  0  0  0  0  0  0  0  0
   43.7479   36.8503   44.5774 H   0  0  0  0  0  0  0  0  0  0  0  0
   44.9956   36.5223   42.3924 H   0  0  0  0  0  0  0  0  0  0  0  0
   46.6448   34.5872   42.2110 H   0  0  0  0  0  0  0  0  0  0  0  0
   47.0994   29.3094   48.7982 H   0  0  0  0  0  0  0  0  0  0  0  0
  1  5  1  0
  1  2  2  0
  2  3  1  0
  4  3  2  0
  4 12  1  0
  5  4  1  0
  6 11  2  0
  7  6  1  0
  8  7  2  0
  8  9  1  0
  9 10  2  0
 10 11  1  0
 10  1  1  0
 12 13  2  0
  2 14  1  0
  3 15  1  0
  6 16  1  0
  7 17  1  0
  8 18  1  0
 12 19  1  0
M  ISO  6  14  14  15  14  16  14  17  14  18  14  19   6
M  END
>  <minimizedAffinity>  (1) 
-4.21146202

>  <minimizedRMSD>  (1) 
0.420991689

$$$$
