
     RDKit          3D

 48 53  0  0  0  0  0  0  0  0999 V2000
   39.8790   77.1990   59.6090 C   0  0  0  0  0  0  0  0  0  0  0  0
   40.4640   75.9810   59.5170 C   0  0  0  0  0  0  0  0  0  0  0  0
   39.9430   75.1950   58.4720 C   0  0  0  0  0  0  0  0  0  0  0  0
   38.9660   75.6040   57.6450 N   0  0  0  0  0  0  0  0  0  0  0  0
   38.4370   76.8420   57.8100 C   0  0  0  0  0  0  0  0  0  0  0  0
   38.8950   77.6470   58.7980 N   0  0  0  0  0  0  0  0  0  0  0  0
   41.0170   80.3380   61.9530 C   0  0  0  0  0  0  0  0  0  0  0  0
   41.0180   79.1400   62.6380 C   0  0  0  0  0  0  0  0  0  0  0  0
   40.6600   78.0260   61.9710 C   0  0  0  0  0  0  0  0  0  0  0  0
   40.3060   78.1150   60.6320 C   0  0  0  0  0  0  0  0  0  0  0  0
   40.4900   79.9200   60.2720 S   0  0  0  0  0  0  0  0  0  0  0  0
   43.0250   83.2640   62.8810 C   0  0  0  0  0  0  0  0  0  0  0  0
   42.1280   84.0410   63.6420 C   0  0  0  0  0  0  0  0  0  0  0  0
   40.8290   83.5560   63.8350 C   0  0  0  0  0  0  0  0  0  0  0  0
   40.5000   82.3650   63.2810 N   0  0  0  0  0  0  0  0  0  0  0  0
   41.3890   81.6440   62.5530 C   0  0  0  0  0  0  0  0  0  0  0  0
   42.6170   82.0960   62.3680 N   0  0  0  0  0  0  0  0  0  0  0  0
   37.3870   77.2650   56.9110 C   0  0  0  0  0  0  0  0  0  0  0  0
   36.2150   76.9070   57.1670 O   0  0  0  0  0  0  0  0  0  0  0  0
   37.5890   78.0820   55.7200 C   0  0  0  0  0  0  0  0  0  0  0  0
   37.1710   79.4020   55.7970 C   0  0  0  0  0  0  0  0  0  0  0  0
   37.3450   80.2160   54.6880 C   0  0  0  0  0  0  0  0  0  0  0  0
   37.9090   79.8090   53.4980 C   0  0  0  0  0  0  0  0  0  0  0  0
   38.2970   78.4930   53.4980 C   0  0  0  0  0  0  0  0  0  0  0  0
   38.1660   77.6140   54.5420 C   0  0  0  0  0  0  0  0  0  0  0  0
   39.0440   77.8140   52.0290 S   0  0  0  0  0  0  0  0  0  0  0  0
   39.1010   79.1420   50.8430 C   0  0  0  0  0  0  0  0  0  0  0  0
   39.6380   78.8530   49.6390 C   0  0  0  0  0  0  0  0  0  0  0  0
   39.7190   79.8380   48.6530 C   0  0  0  0  0  0  0  0  0  0  0  0
   39.2250   81.0800   48.9950 C   0  0  0  0  0  0  0  0  0  0  0  0
   38.6780   81.3360   50.2480 C   0  0  0  0  0  0  0  0  0  0  0  0
   38.6020   80.3650   51.2110 C   0  0  0  0  0  0  0  0  0  0  0  0
   38.0330   80.7190   52.4540 N   0  0  0  0  0  0  0  0  0  0  0  0
   41.2646   75.6407   60.1902 H   0  0  0  0  0  0  0  0  0  0  0  0
   40.3597   74.1878   58.3238 H   0  0  0  0  0  0  0  0  0  0  0  0
   41.3033   79.0961   63.6994 H   0  0  0  0  0  0  0  0  0  0  0  0
   40.6483   77.0529   62.4837 H   0  0  0  0  0  0  0  0  0  0  0  0
   44.0534   83.6148   62.7096 H   0  0  0  0  0  0  0  0  0  0  0  0
   42.4407   85.0035   64.0730 H   0  0  0  0  0  0  0  0  0  0  0  0
   40.0946   84.1276   64.4215 H   0  0  0  0  0  0  0  0  0  0  0  0
   36.7120   79.7942   56.7165 H   0  0  0  0  0  0  0  0  0  0  0  0
   37.0091   81.2607   54.7633 H   0  0  0  0  0  0  0  0  0  0  0  0
   38.5060   76.5717   54.4520 H   0  0  0  0  0  0  0  0  0  0  0  0
   40.0126   77.8392   49.4342 H   0  0  0  0  0  0  0  0  0  0  0  0
   40.1512   79.6358   47.6619 H   0  0  0  0  0  0  0  0  0  0  0  0
   39.2649   81.8923   48.2544 H   0  0  0  0  0  0  0  0  0  0  0  0
   38.2969   82.3435   50.4711 H   0  0  0  0  0  0  0  0  0  0  0  0
   37.6987   81.6834   52.5919 H   0  0  0  0  0  0  0  0  0  0  0  0
  1 10  1  0
  2  1  2  0
  3  2  1  0
  4  5  1  0
  4  3  2  0
  5  6  2  0
  6  1  1  0
  7 16  1  0
  7  8  2  0
  9  8  1  0
 10  9  2  0
 11 10  1  0
 11  7  1  0
 12 13  2  0
 13 14  1  0
 15 14  2  0
 16 15  1  0
 17 16  2  0
 17 12  1  0
 18 19  2  0
 18  5  1  0
 20 21  2  0
 20 18  1  0
 22 21  1  0
 23 22  2  0
 24 23  1  0
 24 25  2  0
 25 20  1  0
 26 24  1  0
 27 32  2  0
 27 26  1  0
 28 27  1  0
 29 30  1  0
 29 28  2  0
 30 31  2  0
 31 32  1  0
 32 33  1  0
 33 23  1  0
  2 34  1  0
  3 35  1  0
  8 36  1  0
  9 37  1  0
 12 38  1  0
 13 39  1  0
 14 40  1  0
 21 41  1  0
 22 42  1  0
 25 43  1  0
 28 44  1  0
 29 45  1  0
 30 46  1  0
 31 47  1  0
 33 48  1  0
M  END
>  <Score>  (1) 
-7.42259

>  <Score_dual>  (1) 
-8.57

>  <Choices>  (1) 
[None, 9, ['25-21', 165], 16, ['19-18', 315], 24, ['5-10', 120], 26, ['60-18', 45]]

$$$$
