
     RDKit          3D

 40 43  0  0  0  0  0  0  0  0999 V2000
   44.4070   70.1440   31.2260 C   0  0  0  0  0  0  0  0  0  0  0  0
   44.5640   68.8730   30.7170 C   0  0  0  0  0  0  0  0  0  0  0  0
   43.4310   68.0920   30.8140 C   0  0  0  0  0  0  0  0  0  0  0  0
   42.2800   68.5030   31.3450 N   0  0  0  0  0  0  0  0  0  0  0  0
   42.2150   69.7810   31.8260 C   0  0  0  0  0  0  0  0  0  0  0  0
   43.2690   70.5990   31.7680 N   0  0  0  0  0  0  0  0  0  0  0  0
   46.5780   73.0970   30.3910 C   0  0  0  0  0  0  0  0  0  0  0  0
   45.4580   72.2370   30.4370 C   0  0  0  0  0  0  0  0  0  0  0  0
   45.5530   71.0450   31.1670 C   0  0  0  0  0  0  0  0  0  0  0  0
   46.7130   70.7840   31.7890 N   0  0  0  0  0  0  0  0  0  0  0  0
   47.7900   71.6130   31.7450 C   0  0  0  0  0  0  0  0  0  0  0  0
   47.7020   72.7620   31.0430 N   0  0  0  0  0  0  0  0  0  0  0  0
   49.0150   71.3040   32.4220 N   0  0  0  0  0  0  0  0  0  0  0  0
   50.0560   72.1280   32.2040 C   0  0  0  0  0  0  0  0  0  0  0  0
   51.2260   71.8010   32.8740 C   0  0  0  0  0  0  0  0  0  0  0  0
   51.2230   70.6930   33.6810 C   0  0  0  0  0  0  0  0  0  0  0  0
   52.4560   70.4200   34.3340 N   0  0  0  0  0  0  0  0  0  0  0  0
   50.1420   69.9070   33.8550 N   0  0  0  0  0  0  0  0  0  0  0  0
   48.9910   70.2120   33.2080 C   0  0  0  0  0  0  0  0  0  0  0  0
   47.9500   69.5190   33.3290 O   0  0  0  0  0  0  0  0  0  0  0  0
   43.3720   66.7450   30.3500 N   0  0  0  0  0  0  0  0  0  0  0  0
   42.8770   65.8970   31.2810 C   0  0  0  0  0  0  0  0  0  0  0  0
   42.7530   64.5460   30.9870 C   0  0  0  0  0  0  0  0  0  0  0  0
   43.1380   64.0780   29.7440 C   0  0  0  0  0  0  0  0  0  0  0  0
   43.0130   62.6880   29.4350 N   0  0  0  0  0  0  0  0  0  0  0  0
   43.6210   64.9680   28.8670 N   0  0  0  0  0  0  0  0  0  0  0  0
   43.7450   66.2740   29.1390 C   0  0  0  0  0  0  0  0  0  0  0  0
   44.1850   67.1390   28.3640 O   0  0  0  0  0  0  0  0  0  0  0  0
   45.5052   68.5146   30.2745 H   0  0  0  0  0  0  0  0  0  0  0  0
   41.2757   70.1428   32.2697 H   0  0  0  0  0  0  0  0  0  0  0  0
   46.5288   74.0376   29.8229 H   0  0  0  0  0  0  0  0  0  0  0  0
   44.5288   72.4984   29.9095 H   0  0  0  0  0  0  0  0  0  0  0  0
   49.9843   73.0017   31.5396 H   0  0  0  0  0  0  0  0  0  0  0  0
   52.1319   72.4145   32.7606 H   0  0  0  0  0  0  0  0  0  0  0  0
   52.5386   69.6052   34.9587 H   0  0  0  0  0  0  0  0  0  0  0  0
   53.2667   71.0370   34.1824 H   0  0  0  0  0  0  0  0  0  0  0  0
   42.5738   66.2770   32.2678 H   0  0  0  0  0  0  0  0  0  0  0  0
   42.3506   63.8513   31.7389 H   0  0  0  0  0  0  0  0  0  0  0  0
   43.2995   62.3384   28.5095 H   0  0  0  0  0  0  0  0  0  0  0  0
   42.6365   62.0360   30.1379 H   0  0  0  0  0  0  0  0  0  0  0  0
  1  6  2  0
  2  3  2  0
  2  1  1  0
  3  4  1  0
  4  5  2  0
  6  5  1  0
  7  8  2  0
  7 12  1  0
  8  9  1  0
  9  1  1  0
  9 10  2  0
 11 10  1  0
 11 13  1  0
 12 11  2  0
 13 19  1  0
 14 13  1  0
 14 15  2  0
 15 16  1  0
 16 18  2  0
 16 17  1  0
 19 20  2  0
 19 18  1  0
 21  3  1  0
 21 22  1  0
 23 22  2  0
 24 23  1  0
 25 24  1  0
 26 27  1  0
 26 24  2  0
 27 21  1  0
 28 27  2  0
  2 29  1  0
  5 30  1  0
  7 31  1  0
  8 32  1  0
 14 33  1  0
 15 34  1  0
 17 35  1  0
 17 36  1  0
 22 37  1  0
 23 38  1  0
 25 39  1  0
 25 40  1  0
M  END
>  <Score>  (1) 
-7.01935

$$$$
