
     RDKit          3D

 46 50  0  0  0  0  0  0  0  0999 V2000
   45.7740   71.3680   31.2300 C   0  0  0  0  0  0  0  0  0  0  0  0
   45.8990   72.3970   30.2800 C   0  0  0  0  0  0  0  0  0  0  0  0
   47.1700   72.9620   30.0850 C   0  0  0  0  0  0  0  0  0  0  0  0
   48.2140   72.4860   30.8230 N   0  0  0  0  0  0  0  0  0  0  0  0
   48.0430   71.4800   31.7390 C   0  0  0  0  0  0  0  0  0  0  0  0
   46.8360   70.9580   31.9110 N   0  0  0  0  0  0  0  0  0  0  0  0
   44.5040   70.7740   31.4530 N   0  0  0  0  0  0  0  0  0  0  0  0
   44.2770   69.4990   31.0860 C   0  0  0  0  0  0  0  0  0  0  0  0
   43.0140   68.9380   31.3150 C   0  0  0  0  0  0  0  0  0  0  0  0
   42.1110   69.8020   31.9200 C   0  0  0  0  0  0  0  0  0  0  0  0
   40.9680   69.3120   32.1320 O   0  0  0  0  0  0  0  0  0  0  0  0
   42.3180   71.0750   32.2920 N   0  0  0  0  0  0  0  0  0  0  0  0
   43.5590   71.5510   32.0420 C   0  0  0  0  0  0  0  0  0  0  0  0
   43.7890   72.7420   32.3800 O   0  0  0  0  0  0  0  0  0  0  0  0
   42.6690   67.5530   30.9510 C   0  0  0  0  0  0  0  0  0  0  0  0
   49.1720   70.9860   32.5260 C   0  0  0  0  0  0  0  0  0  0  0  0
   50.3270   71.7120   32.6990 C   0  0  0  0  0  0  0  0  0  0  0  0
   51.4100   71.2590   33.4510 C   0  0  0  0  0  0  0  0  0  0  0  0
   51.2830   70.0120   34.0410 C   0  0  0  0  0  0  0  0  0  0  0  0
   50.1130   69.2830   33.8610 C   0  0  0  0  0  0  0  0  0  0  0  0
   49.1030   69.7850   33.1190 N   0  0  0  0  0  0  0  0  0  0  0  0
   50.1600   67.9970   34.5500 C   0  0  0  0  0  0  0  0  0  0  0  0
   49.4270   66.9590   34.1900 N   0  0  0  0  0  0  0  0  0  0  0  0
   49.4330   65.7650   34.7850 C   0  0  0  0  0  0  0  0  0  0  0  0
   50.2310   65.5080   35.8590 N   0  0  0  0  0  0  0  0  0  0  0  0
   51.0180   66.5090   36.3030 C   0  0  0  0  0  0  0  0  0  0  0  0
   51.8260   66.2660   37.3840 C   0  0  0  0  0  0  0  0  0  0  0  0
   52.6480   67.2590   37.8730 C   0  0  0  0  0  0  0  0  0  0  0  0
   52.6150   68.4960   37.2240 C   0  0  0  0  0  0  0  0  0  0  0  0
   51.7860   68.6610   36.1580 C   0  0  0  0  0  0  0  0  0  0  0  0
   50.9540   67.7110   35.6360 C   0  0  0  0  0  0  0  0  0  0  0  0
   45.0282   72.7487   29.7072 H   0  0  0  0  0  0  0  0  0  0  0  0
   47.3202   73.7700   29.3538 H   0  0  0  0  0  0  0  0  0  0  0  0
   45.0728   68.9054   30.6125 H   0  0  0  0  0  0  0  0  0  0  0  0
   41.5854   71.6474   32.7354 H   0  0  0  0  0  0  0  0  0  0  0  0
   42.5212   66.9596   31.8653 H   0  0  0  0  0  0  0  0  0  0  0  0
   41.7426   67.5497   30.3579 H   0  0  0  0  0  0  0  0  0  0  0  0
   43.4856   67.1155   30.3579 H   0  0  0  0  0  0  0  0  0  0  0  0
   50.4000   72.6996   32.2201 H   0  0  0  0  0  0  0  0  0  0  0  0
   52.3217   71.8628   33.5702 H   0  0  0  0  0  0  0  0  0  0  0  0
   52.1030   69.6011   34.6483 H   0  0  0  0  0  0  0  0  0  0  0  0
   48.7784   64.9694   34.3995 H   0  0  0  0  0  0  0  0  0  0  0  0
   51.8183   65.2756   37.8625 H   0  0  0  0  0  0  0  0  0  0  0  0
   53.3033   67.0845   38.7391 H   0  0  0  0  0  0  0  0  0  0  0  0
   53.2503   69.3246   37.5701 H   0  0  0  0  0  0  0  0  0  0  0  0
   51.7854   69.6481   35.6726 H   0  0  0  0  0  0  0  0  0  0  0  0
  1  7  1  0
  1  6  1  0
  2  1  2  0
  3  2  1  0
  3  4  2  0
  4  5  1  0
  5  6  2  0
  5 16  1  0
  7 13  1  0
  8  9  2  0
  8  7  1  0
  9 10  1  0
 10 11  2  0
 10 12  1  0
 13 12  1  0
 13 14  2  0
 15  9  1  0
 16 17  2  0
 16 21  1  0
 17 18  1  0
 18 19  2  0
 20 19  1  0
 20 22  1  0
 21 20  2  0
 22 31  1  0
 23 22  2  0
 23 24  1  0
 24 25  2  0
 25 26  1  0
 26 27  2  0
 27 28  1  0
 29 28  2  0
 30 29  1  0
 31 30  2  0
 31 26  1  0
  2 32  1  0
  3 33  1  0
  8 34  1  0
 12 35  1  0
 15 36  1  0
 15 37  1  0
 15 38  1  0
 17 39  1  0
 18 40  1  0
 19 41  1  0
 24 42  1  0
 27 43  1  0
 28 44  1  0
 29 45  1  0
 30 46  1  0
M  END
>  <Score>  (1) 
-7.01976

$$$$
