
     RDKit          3D

 41 46  0  0  0  0  0  0  0  0999 V2000
   44.2700   71.5050   31.8890 N   0  0  0  0  0  0  0  0  0  0  0  0
   43.4000   72.2520   32.5890 C   0  0  0  0  0  0  0  0  0  0  0  0
   42.2640   71.5470   32.6990 N   0  0  0  0  0  0  0  0  0  0  0  0
   42.4300   70.3840   32.0760 C   0  0  0  0  0  0  0  0  0  0  0  0
   41.5550   69.3290   31.9170 C   0  0  0  0  0  0  0  0  0  0  0  0
   42.0170   68.2680   31.2270 N   0  0  0  0  0  0  0  0  0  0  0  0
   43.2620   68.2110   30.7110 C   0  0  0  0  0  0  0  0  0  0  0  0
   44.1140   69.2370   30.8660 N   0  0  0  0  0  0  0  0  0  0  0  0
   43.6930   70.3380   31.5570 C   0  0  0  0  0  0  0  0  0  0  0  0
   43.5760   66.9940   30.0060 N   0  0  0  0  0  0  0  0  0  0  0  0
   44.2000   66.9820   28.8150 C   0  0  0  0  0  0  0  0  0  0  0  0
   44.3760   65.7170   28.3700 N   0  0  0  0  0  0  0  0  0  0  0  0
   43.8420   64.9280   29.3200 C   0  0  0  0  0  0  0  0  0  0  0  0
   43.7250   63.5640   29.4260 C   0  0  0  0  0  0  0  0  0  0  0  0
   43.1330   63.0340   30.5090 N   0  0  0  0  0  0  0  0  0  0  0  0
   42.6620   63.8450   31.4780 C   0  0  0  0  0  0  0  0  0  0  0  0
   42.7520   65.1960   31.4220 N   0  0  0  0  0  0  0  0  0  0  0  0
   43.3510   65.7310   30.3270 C   0  0  0  0  0  0  0  0  0  0  0  0
   45.6240   71.7790   31.4870 C   0  0  0  0  0  0  0  0  0  0  0  0
   45.8590   72.5900   30.3710 C   0  0  0  0  0  0  0  0  0  0  0  0
   47.2070   72.8290   30.0150 C   0  0  0  0  0  0  0  0  0  0  0  0
   48.1770   72.2580   30.7770 N   0  0  0  0  0  0  0  0  0  0  0  0
   47.8970   71.4800   31.8500 C   0  0  0  0  0  0  0  0  0  0  0  0
   46.6190   71.2420   32.2030 N   0  0  0  0  0  0  0  0  0  0  0  0
   48.9040   70.8810   32.6570 N   0  0  0  0  0  0  0  0  0  0  0  0
   50.0660   71.5760   32.7150 C   0  0  0  0  0  0  0  0  0  0  0  0
   50.9280   70.8370   33.5500 C   0  0  0  0  0  0  0  0  0  0  0  0
   50.2460   69.7370   33.9540 N   0  0  0  0  0  0  0  0  0  0  0  0
   49.0110   69.7740   33.4030 C   0  0  0  0  0  0  0  0  0  0  0  0
   43.5851   73.2567   32.9968 H   0  0  0  0  0  0  0  0  0  0  0  0
   41.2682   68.9777   32.9192 H   0  0  0  0  0  0  0  0  0  0  0  0
   40.7219   69.7270   31.3190 H   0  0  0  0  0  0  0  0  0  0  0  0
   45.0649   69.1950   30.4723 H   0  0  0  0  0  0  0  0  0  0  0  0
   44.5247   67.8828   28.2736 H   0  0  0  0  0  0  0  0  0  0  0  0
   44.1129   62.9107   28.6306 H   0  0  0  0  0  0  0  0  0  0  0  0
   42.1818   63.3881   32.3558 H   0  0  0  0  0  0  0  0  0  0  0  0
   45.0291   73.0240   29.7940 H   0  0  0  0  0  0  0  0  0  0  0  0
   47.4622   73.4571   29.1488 H   0  0  0  0  0  0  0  0  0  0  0  0
   50.2915   72.5273   32.2108 H   0  0  0  0  0  0  0  0  0  0  0  0
   51.9600   71.1027   33.8227 H   0  0  0  0  0  0  0  0  0  0  0  0
   48.2239   69.0187   33.5445 H   0  0  0  0  0  0  0  0  0  0  0  0
  1  2  1  0
  2  3  2  0
  4  3  1  0
  5  4  1  0
  6  5  1  0
  7  8  1  0
  7  6  2  0
  8  9  1  0
  9  1  1  0
  9  4  2  0
 10 18  1  0
 10  7  1  0
 11 10  1  0
 12 11  2  0
 12 13  1  0
 13 14  2  0
 13 18  1  0
 14 15  1  0
 15 16  2  0
 17 16  1  0
 18 17  2  0
 19  1  1  0
 19 24  1  0
 20 19  2  0
 21 20  1  0
 21 22  2  0
 22 23  1  0
 23 24  2  0
 23 25  1  0
 25 26  1  0
 25 29  1  0
 26 27  2  0
 27 28  1  0
 29 28  2  0
  2 30  1  0
  5 31  1  0
  5 32  1  0
  8 33  1  0
 11 34  1  0
 14 35  1  0
 16 36  1  0
 20 37  1  0
 21 38  1  0
 26 39  1  0
 27 40  1  0
 29 41  1  0
M  END
>  <Score>  (1) 
-7.09832

$$$$
