
     RDKit          3D

 51 56  0  0  0  0  0  0  0  0999 V2000
   42.6580   76.1590   31.5450 C   0  0  0  0  0  0  0  0  0  0  0  0
   41.6410   75.7760   32.4410 C   0  0  0  0  0  0  0  0  0  0  0  0
   41.6870   74.4310   32.8940 C   0  0  0  0  0  0  0  0  0  0  0  0
   42.6610   73.6580   32.4480 N   0  0  0  0  0  0  0  0  0  0  0  0
   43.6210   74.0510   31.5900 C   0  0  0  0  0  0  0  0  0  0  0  0
   43.5910   75.3160   31.1540 N   0  0  0  0  0  0  0  0  0  0  0  0
   40.8110   73.7970   33.7940 N   0  0  0  0  0  0  0  0  0  0  0  0
   40.5890   74.3960   34.9640 N   0  0  0  0  0  0  0  0  0  0  0  0
   39.7330   73.6830   35.6960 C   0  0  0  0  0  0  0  0  0  0  0  0
   39.4240   72.5920   34.9240 C   0  0  0  0  0  0  0  0  0  0  0  0
   40.1090   72.6570   33.7050 C   0  0  0  0  0  0  0  0  0  0  0  0
   44.6840   73.1920   31.0980 C   0  0  0  0  0  0  0  0  0  0  0  0
   45.0810   72.8100   29.8360 N   0  0  0  0  0  0  0  0  0  0  0  0
   46.1130   72.0130   29.9650 O   0  0  0  0  0  0  0  0  0  0  0  0
   46.4170   71.8480   31.2190 C   0  0  0  0  0  0  0  0  0  0  0  0
   45.5550   72.5630   31.9520 N   0  0  0  0  0  0  0  0  0  0  0  0
   47.4860   71.0420   31.7000 N   0  0  0  0  0  0  0  0  0  0  0  0
   48.3710   71.5490   32.7390 C   0  0  0  0  0  0  0  0  0  0  0  0
   48.2450   70.4780   33.8160 C   0  0  0  0  0  0  0  0  0  0  0  0
   48.8710   69.3570   33.3230 O   0  0  0  0  0  0  0  0  0  0  0  0
   48.3270   68.7860   32.2060 C   0  0  0  0  0  0  0  0  0  0  0  0
   47.7460   69.7270   31.2060 C   0  0  0  0  0  0  0  0  0  0  0  0
   39.9630   71.6660   32.6600 C   0  0  0  0  0  0  0  0  0  0  0  0
   38.9740   71.5600   31.7080 C   0  0  0  0  0  0  0  0  0  0  0  0
   38.8450   70.6010   30.7510 C   0  0  0  0  0  0  0  0  0  0  0  0
   39.7960   69.6070   30.6990 C   0  0  0  0  0  0  0  0  0  0  0  0
   40.8270   69.6290   31.6120 C   0  0  0  0  0  0  0  0  0  0  0  0
   41.7350   68.6000   31.4980 C   0  0  0  0  0  0  0  0  0  0  0  0
   42.7900   68.5420   32.3730 C   0  0  0  0  0  0  0  0  0  0  0  0
   42.9180   69.5090   33.3410 C   0  0  0  0  0  0  0  0  0  0  0  0
   41.9730   70.5080   33.3930 C   0  0  0  0  0  0  0  0  0  0  0  0
   40.9000   70.6300   32.5580 C   0  0  0  0  0  0  0  0  0  0  0  0
   42.6733   77.1899   31.1616 H   0  0  0  0  0  0  0  0  0  0  0  0
   40.8588   76.4761   32.7698 H   0  0  0  0  0  0  0  0  0  0  0  0
   39.3558   73.9187   36.7021 H   0  0  0  0  0  0  0  0  0  0  0  0
   38.7383   71.7843   35.2196 H   0  0  0  0  0  0  0  0  0  0  0  0
   49.4064   71.6310   32.3766 H   0  0  0  0  0  0  0  0  0  0  0  0
   48.1115   72.5596   33.0872 H   0  0  0  0  0  0  0  0  0  0  0  0
   48.7350   70.8109   34.7429 H   0  0  0  0  0  0  0  0  0  0  0  0
   47.1907   70.2740   34.0545 H   0  0  0  0  0  0  0  0  0  0  0  0
   49.1176   68.2085   31.7046 H   0  0  0  0  0  0  0  0  0  0  0  0
   47.4835   68.1783   32.5653 H   0  0  0  0  0  0  0  0  0  0  0  0
   46.7966   69.3022   30.8479 H   0  0  0  0  0  0  0  0  0  0  0  0
   48.4991   69.8382   30.4120 H   0  0  0  0  0  0  0  0  0  0  0  0
   38.1988   72.3403   31.7226 H   0  0  0  0  0  0  0  0  0  0  0  0
   38.0058   70.6196   30.0401 H   0  0  0  0  0  0  0  0  0  0  0  0
   39.7337   68.8105   29.9429 H   0  0  0  0  0  0  0  0  0  0  0  0
   41.6161   67.8353   30.7163 H   0  0  0  0  0  0  0  0  0  0  0  0
   43.5270   67.7286   32.3004 H   0  0  0  0  0  0  0  0  0  0  0  0
   43.7540   69.4851   34.0556 H   0  0  0  0  0  0  0  0  0  0  0  0
   42.0924   71.2734   34.1739 H   0  0  0  0  0  0  0  0  0  0  0  0
  1  2  2  0
  2  3  1  0
  3  7  1  0
  4  3  2  0
  5  4  1  0
  6  1  1  0
  6  5  2  0
  7  8  1  0
  8  9  2  0
 10  9  1  0
 11  7  1  0
 11 10  2  0
 12  5  1  0
 12 16  1  0
 13 14  1  0
 13 12  2  0
 14 15  1  0
 15 17  1  0
 15 16  2  0
 17 18  1  0
 18 19  1  0
 20 19  1  0
 21 20  1  0
 22 17  1  0
 22 21  1  0
 23 11  1  0
 24 23  2  0
 25 24  1  0
 26 25  2  0
 26 27  1  0
 27 32  2  0
 28 27  1  0
 28 29  2  0
 29 30  1  0
 30 31  2  0
 32 23  1  0
 32 31  1  0
  1 33  1  0
  2 34  1  0
  9 35  1  0
 10 36  1  0
 18 37  1  0
 18 38  1  0
 19 39  1  0
 19 40  1  0
 21 41  1  0
 21 42  1  0
 22 43  1  0
 22 44  1  0
 24 45  1  0
 25 46  1  0
 26 47  1  0
 28 48  1  0
 29 49  1  0
 30 50  1  0
 31 51  1  0
M  END
>  <Score>  (1) 
-7.09237

$$$$
