
     RDKit          3D

 50 56  0  0  1  0  0  0  0  0999 V2000
   43.7840   73.3380   31.5720 C   0  0  0  0  0  0  0  0  0  0  0  0
   44.6970   73.4540   30.4770 C   0  0  0  0  0  0  0  0  0  0  0  0
   45.7740   72.6140   30.1540 C   0  0  0  0  0  0  0  0  0  0  0  0
   45.8920   71.5610   31.0810 C   0  0  0  0  0  0  0  0  0  0  0  0
   45.0300   71.3970   32.1700 C   0  0  0  0  0  0  0  0  0  0  0  0
   44.0320   72.2550   32.3710 C   0  0  0  0  0  0  0  0  0  0  0  0
   42.7610   75.5990   32.2860 N   0  0  0  0  0  0  0  0  0  0  0  0
   41.5460   76.1770   32.2140 C   0  0  0  0  0  0  0  0  0  0  0  0
   40.7950   75.2170   31.6190 C   0  0  0  0  0  0  0  0  0  0  0  0
   41.5450   74.1080   31.3480 N   0  0  0  0  0  0  0  0  0  0  0  0
   42.8170   74.3400   31.7720 C   0  0  0  0  0  0  0  0  0  0  0  0
   44.2000   76.1540   34.1910 C   0  0  0  0  0  0  0  0  0  0  0  0
   43.8650   76.2420   32.8400 C   0  0  0  0  0  0  0  0  0  0  0  0
   44.7170   77.0310   32.1380 C   0  0  0  0  0  0  0  0  0  0  0  0
   45.7670   77.6550   32.6960 N   0  0  0  0  0  0  0  0  0  0  0  0
   46.0420   77.5340   34.0090 C   0  0  0  0  0  0  0  0  0  0  0  0
   45.2570   76.7790   34.7660 N   0  0  0  0  0  0  0  0  0  0  0  0
   43.3310   71.6160   33.3870 N   0  0  0  0  0  0  0  0  0  0  0  0
   43.1310   72.3270   34.4610 N   0  0  0  0  0  0  0  0  0  0  0  0
   42.3400   71.6540   35.3530 C   0  0  0  0  0  0  0  0  0  0  0  0
   42.0300   70.4330   34.7800 C   0  0  0  0  0  0  0  0  0  0  0  0
   42.6730   70.4350   33.5350 C   0  0  0  0  0  0  0  0  0  0  0  0
   42.3260   69.4750   32.5470 C   0  0  0  0  0  0  0  0  0  0  0  0
   42.0190   68.5750   31.6020 C   0  0  2  0  0  0  0  0  0  0  0  0
   41.1020   68.2880   30.7340 N   0  0  0  0  0  0  0  0  0  0  0  0
   40.3340   69.3390   31.0500 C   0  0  0  0  0  0  0  0  0  0  0  0
   39.1810   69.6380   30.3810 C   0  0  0  0  0  0  0  0  0  0  0  0
   38.5880   70.8090   30.7590 C   0  0  0  0  0  0  0  0  0  0  0  0
   39.0930   71.6280   31.7280 C   0  0  0  0  0  0  0  0  0  0  0  0
   40.2240   71.1520   32.2600 C   0  0  0  0  0  0  0  0  0  0  0  0
   41.0390   69.9910   32.0670 C   0  0  1  0  0  0  0  0  0  0  0  0
   44.5347   74.3086   29.8037 H   0  0  0  0  0  0  0  0  0  0  0  0
   46.4388   72.7594   29.2898 H   0  0  0  0  0  0  0  0  0  0  0  0
   46.7028   70.8307   30.9418 H   0  0  0  0  0  0  0  0  0  0  0  0
   45.1771   70.5557   32.8633 H   0  0  0  0  0  0  0  0  0  0  0  0
   41.2397   77.1776   32.5531 H   0  0  0  0  0  0  0  0  0  0  0  0
   39.7248   75.3180   31.3858 H   0  0  0  0  0  0  0  0  0  0  0  0
   43.5610   75.5332   34.8362 H   0  0  0  0  0  0  0  0  0  0  0  0
   44.5392   77.1658   31.0609 H   0  0  0  0  0  0  0  0  0  0  0  0
   46.9061   78.0544   34.4477 H   0  0  0  0  0  0  0  0  0  0  0  0
   42.0127   72.0155   36.3390 H   0  0  0  0  0  0  0  0  0  0  0  0
   41.4109   69.6319   35.2101 H   0  0  0  0  0  0  0  0  0  0  0  0
   41.7633   70.2440   31.9974 H   0  0  0  0  0  0  0  0  0  0  0  0
   42.5412   69.1836   30.8491 H   0  0  0  0  0  0  0  0  0  0  0  0
   40.9999   67.5264   30.0481 H   0  0  0  0  0  0  0  0  0  0  0  0
   38.7630   68.9868   29.5992 H   0  0  0  0  0  0  0  0  0  0  0  0
   38.5255   71.4227   29.8483 H   0  0  0  0  0  0  0  0  0  0  0  0
   37.6717   70.4406   31.2435 H   0  0  0  0  0  0  0  0  0  0  0  0
   38.6224   72.5732   32.0364 H   0  0  0  0  0  0  0  0  0  0  0  0
   40.6276   71.8167   33.0379 H   0  0  0  0  0  0  0  0  0  0  0  0
  1 11  1  0
  1  6  1  0
  2  1  2  0
  3  2  1  0
  3  4  2  0
  4  5  1  0
  5  6  2  0
  6 18  1  0
  7 13  1  0
  8  7  1  0
  9  8  2  0
 10  9  1  0
 10 11  2  0
 11  7  1  0
 12 17  2  0
 13 12  1  0
 14 15  1  0
 14 13  2  0
 15 16  2  0
 16 17  1  0
 18 22  1  0
 18 19  1  0
 19 20  2  0
 21 20  1  0
 22 21  2  0
 23 22  1  0
 24 25  1  0
 24 31  1  0
 24 23  1  0
 25 26  1  0
 26 31  1  0
 27 28  1  0
 27 26  2  0
 28 29  1  0
 29 30  2  0
 31 30  1  0
 31 23  1  1
  2 32  1  0
  3 33  1  0
  4 34  1  0
  5 35  1  0
  8 36  1  0
  9 37  1  0
 12 38  1  0
 14 39  1  0
 16 40  1  0
 20 41  1  0
 21 42  1  0
 23 43  1  0
 24 44  1  6
 25 45  1  0
 27 46  1  0
 28 47  1  0
 28 48  1  0
 29 49  1  0
 30 50  1  0
M  END
>  <Score>  (1) 
-7.21028

$$$$
