
     RDKit          3D

 52 56  0  0  0  0  0  0  0  0999 V2000
   44.7370   70.1180   31.1340 C   0  0  0  0  0  0  0  0  0  0  0  0
   44.8400   68.8530   30.5760 C   0  0  0  0  0  0  0  0  0  0  0  0
   43.7590   67.9570   30.6830 C   0  0  0  0  0  0  0  0  0  0  0  0
   42.6150   68.3730   31.3510 C   0  0  0  0  0  0  0  0  0  0  0  0
   42.5050   69.6330   31.9110 C   0  0  0  0  0  0  0  0  0  0  0  0
   43.5940   70.4830   31.7810 C   0  0  0  0  0  0  0  0  0  0  0  0
   43.4550   71.8020   32.3780 C   0  0  0  0  0  0  0  0  0  0  0  0
   43.2760   71.9910   33.7110 N   0  0  0  0  0  0  0  0  0  0  0  0
   43.1770   73.2490   34.0110 O   0  0  0  0  0  0  0  0  0  0  0  0
   43.2840   73.9560   32.9070 C   0  0  0  0  0  0  0  0  0  0  0  0
   43.4490   73.0630   31.9500 N   0  0  0  0  0  0  0  0  0  0  0  0
   43.2700   75.3110   32.4960 N   0  0  0  0  0  0  0  0  0  0  0  0
   44.1210   75.7870   31.4020 C   0  0  0  0  0  0  0  0  0  0  0  0
   44.3120   77.2610   31.8150 C   0  0  0  0  0  0  0  0  0  0  0  0
   42.8540   77.5930   32.1150 C   0  0  0  0  0  0  0  0  0  0  0  0
   42.4870   76.4280   33.0150 C   0  0  0  0  0  0  0  0  0  0  0  0
   47.1780   72.7040   29.8570 C   0  0  0  0  0  0  0  0  0  0  0  0
   46.0060   71.9100   29.9320 C   0  0  0  0  0  0  0  0  0  0  0  0
   45.8960   70.9720   30.9760 C   0  0  0  0  0  0  0  0  0  0  0  0
   46.9120   70.8680   31.8610 N   0  0  0  0  0  0  0  0  0  0  0  0
   48.0370   71.6590   31.7530 C   0  0  0  0  0  0  0  0  0  0  0  0
   48.1520   72.5440   30.7790 N   0  0  0  0  0  0  0  0  0  0  0  0
   49.0600   71.4900   32.7210 N   0  0  0  0  0  0  0  0  0  0  0  0
   50.3820   72.0520   32.4650 C   0  0  0  0  0  0  0  0  0  0  0  0
   51.1270   72.2490   33.7430 C   0  0  0  0  0  0  0  0  0  0  0  0
   50.2470   72.6410   34.8980 C   0  0  0  0  0  0  0  0  0  0  0  0
   49.0980   71.7100   35.1110 C   0  0  0  0  0  0  0  0  0  0  0  0
   48.8350   70.7750   33.9610 C   0  0  0  0  0  0  0  0  0  0  0  0
   45.7597   68.5514   30.0534 H   0  0  0  0  0  0  0  0  0  0  0  0
   43.8195   66.9490   30.2467 H   0  0  0  0  0  0  0  0  0  0  0  0
   41.7676   67.6770   31.4378 H   0  0  0  0  0  0  0  0  0  0  0  0
   41.5921   69.9481   32.4376 H   0  0  0  0  0  0  0  0  0  0  0  0
   43.6169   75.7002   30.4282 H   0  0  0  0  0  0  0  0  0  0  0  0
   45.0562   75.2231   31.2702 H   0  0  0  0  0  0  0  0  0  0  0  0
   44.9533   77.3644   32.7027 H   0  0  0  0  0  0  0  0  0  0  0  0
   44.8103   77.9066   31.0769 H   0  0  0  0  0  0  0  0  0  0  0  0
   42.7555   78.5564   32.6367 H   0  0  0  0  0  0  0  0  0  0  0  0
   42.2162   77.7051   31.2258 H   0  0  0  0  0  0  0  0  0  0  0  0
   41.4103   76.2115   32.9526 H   0  0  0  0  0  0  0  0  0  0  0  0
   42.6983   76.6328   34.0749 H   0  0  0  0  0  0  0  0  0  0  0  0
   47.2935   73.4458   29.0530 H   0  0  0  0  0  0  0  0  0  0  0  0
   45.2008   72.0242   29.1913 H   0  0  0  0  0  0  0  0  0  0  0  0
   50.9479   71.3645   31.8192 H   0  0  0  0  0  0  0  0  0  0  0  0
   50.2624   73.0275   31.9710 H   0  0  0  0  0  0  0  0  0  0  0  0
   51.6362   71.3078   33.9975 H   0  0  0  0  0  0  0  0  0  0  0  0
   51.8338   73.0760   33.5805 H   0  0  0  0  0  0  0  0  0  0  0  0
   50.8580   72.6558   35.8126 H   0  0  0  0  0  0  0  0  0  0  0  0
   49.8250   73.6295   34.6639 H   0  0  0  0  0  0  0  0  0  0  0  0
   49.3065   71.1050   36.0057 H   0  0  0  0  0  0  0  0  0  0  0  0
   48.2007   72.3373   35.2176 H   0  0  0  0  0  0  0  0  0  0  0  0
   47.7939   70.4222   34.0013 H   0  0  0  0  0  0  0  0  0  0  0  0
   49.5086   69.9075   34.0213 H   0  0  0  0  0  0  0  0  0  0  0  0
  1  6  2  0
  2  3  2  0
  2  1  1  0
  3  4  1  0
  4  5  2  0
  6  5  1  0
  6  7  1  0
  7  8  2  0
  8  9  1  0
 10  9  1  0
 11  7  1  0
 11 10  2  0
 12 10  1  0
 12 16  1  0
 13 14  1  0
 13 12  1  0
 14 15  1  0
 15 16  1  0
 17 18  2  0
 17 22  1  0
 18 19  1  0
 19  1  1  0
 19 20  2  0
 21 20  1  0
 21 23  1  0
 22 21  2  0
 23 28  1  0
 24 23  1  0
 24 25  1  0
 25 26  1  0
 26 27  1  0
 28 27  1  0
  2 29  1  0
  3 30  1  0
  4 31  1  0
  5 32  1  0
 13 33  1  0
 13 34  1  0
 14 35  1  0
 14 36  1  0
 15 37  1  0
 15 38  1  0
 16 39  1  0
 16 40  1  0
 17 41  1  0
 18 42  1  0
 24 43  1  0
 24 44  1  0
 25 45  1  0
 25 46  1  0
 26 47  1  0
 26 48  1  0
 27 49  1  0
 27 50  1  0
 28 51  1  0
 28 52  1  0
M  END
>  <Score>  (1) 
-7.11767

$$$$
