
     RDKit          3D

 51 56  0  0  1  0  0  0  0  0999 V2000
   47.4960   72.4790   30.1530 C   0  0  0  0  0  0  0  0  0  0  0  0
   46.9950   71.2860   29.6040 C   0  0  0  0  0  0  0  0  0  0  0  0
   47.3730   70.0840   30.1620 C   0  0  0  0  0  0  0  0  0  0  0  0
   48.2290   70.1020   31.2380 N   0  0  0  0  0  0  0  0  0  0  0  0
   48.6950   71.2510   31.7480 C   0  0  0  0  0  0  0  0  0  0  0  0
   48.3410   72.4370   31.2220 N   0  0  0  0  0  0  0  0  0  0  0  0
   49.5790   71.1930   32.8660 N   0  0  0  0  0  0  0  0  0  0  0  0
   50.5960   72.2070   33.0640 C   0  0  0  0  0  0  0  0  0  0  0  0
   50.6120   72.6940   34.5010 C   0  0  0  0  0  0  0  0  0  0  0  0
   50.3440   71.6710   35.4530 N   0  0  0  0  0  0  0  0  0  0  0  0
   49.2330   70.8240   35.1600 C   0  0  0  0  0  0  0  0  0  0  0  0
   49.4960   70.1310   33.8340 C   0  0  2  0  0  0  0  0  0  0  0  0
   46.8490   68.8560   29.5840 C   0  0  0  0  0  0  0  0  0  0  0  0
   45.5270   68.5260   29.3650 C   0  0  0  0  0  0  0  0  0  0  0  0
   45.4760   67.3010   28.8140 N   0  0  0  0  0  0  0  0  0  0  0  0
   46.7270   66.7960   28.6560 C   0  0  0  0  0  0  0  0  0  0  0  0
   47.2150   65.5940   28.1440 C   0  0  0  0  0  0  0  0  0  0  0  0
   48.5720   65.3460   28.1070 C   0  0  0  0  0  0  0  0  0  0  0  0
   49.3860   66.3330   28.5920 C   0  0  0  0  0  0  0  0  0  0  0  0
   48.9090   67.5210   29.0980 C   0  0  0  0  0  0  0  0  0  0  0  0
   47.5720   67.7790   29.1410 C   0  0  0  0  0  0  0  0  0  0  0  0
   50.6050   69.2420   33.8700 N   0  0  0  0  0  0  0  0  0  0  0  0
   50.4270   67.9090   33.8290 C   0  0  0  0  0  0  0  0  0  0  0  0
   51.6310   67.3270   33.8770 N   0  0  0  0  0  0  0  0  0  0  0  0
   52.5500   68.2780   33.9470 C   0  0  0  0  0  0  0  0  0  0  0  0
   53.9470   68.2500   34.0170 C   0  0  0  0  0  0  0  0  0  0  0  0
   54.5730   69.4310   34.0780 N   0  0  0  0  0  0  0  0  0  0  0  0
   53.9650   70.6240   34.0750 C   0  0  0  0  0  0  0  0  0  0  0  0
   52.6150   70.6290   34.0060 N   0  0  0  0  0  0  0  0  0  0  0  0
   51.9110   69.5040   33.9430 C   0  0  0  0  0  0  0  0  0  0  0  0
   54.6120   66.9930   34.0220 N   0  0  0  0  0  0  0  0  0  0  0  0
   47.2060   73.4475   29.7196 H   0  0  0  0  0  0  0  0  0  0  0  0
   46.3118   71.3114   28.7423 H   0  0  0  0  0  0  0  0  0  0  0  0
   51.5800   71.7812   32.8184 H   0  0  0  0  0  0  0  0  0  0  0  0
   50.3689   73.0611   32.4090 H   0  0  0  0  0  0  0  0  0  0  0  0
   51.6054   73.1155   34.7141 H   0  0  0  0  0  0  0  0  0  0  0  0
   49.8106   73.4413   34.5969 H   0  0  0  0  0  0  0  0  0  0  0  0
   51.1832   71.0780   35.5240 H   0  0  0  0  0  0  0  0  0  0  0  0
   49.1183   70.0730   35.9555 H   0  0  0  0  0  0  0  0  0  0  0  0
   48.3096   71.4187   35.0994 H   0  0  0  0  0  0  0  0  0  0  0  0
   48.6868   69.4384   33.5592 H   0  0  0  0  0  0  0  0  0  0  0  0
   44.6597   69.1597   29.6018 H   0  0  0  0  0  0  0  0  0  0  0  0
   44.6087   66.8130   28.5485 H   0  0  0  0  0  0  0  0  0  0  0  0
   46.5120   64.8369   27.7663 H   0  0  0  0  0  0  0  0  0  0  0  0
   48.9779   64.4044   27.7086 H   0  0  0  0  0  0  0  0  0  0  0  0
   50.4737   66.1694   28.5769 H   0  0  0  0  0  0  0  0  0  0  0  0
   49.6182   68.2735   29.4733 H   0  0  0  0  0  0  0  0  0  0  0  0
   49.4601   67.3883   33.7668 H   0  0  0  0  0  0  0  0  0  0  0  0
   54.5398   71.5605   34.1265 H   0  0  0  0  0  0  0  0  0  0  0  0
   55.6400   66.9544   34.0731 H   0  0  0  0  0  0  0  0  0  0  0  0
   54.0656   66.1211   33.9745 H   0  0  0  0  0  0  0  0  0  0  0  0
  1  6  2  0
  2  1  1  0
  2  3  2  0
  3  4  1  0
  4  5  2  0
  5  7  1  0
  6  5  1  0
  7  8  1  0
  7 12  1  0
  8  9  1  0
  9 10  1  0
 11 10  1  0
 12 22  1  0
 12 11  1  0
 13  3  1  0
 14 13  2  0
 15 14  1  0
 16 15  1  0
 16 21  2  0
 17 16  1  0
 18 17  2  0
 18 19  1  0
 19 20  2  0
 20 21  1  0
 21 13  1  0
 22 30  1  0
 23 22  1  0
 23 24  2  0
 24 25  1  0
 25 26  2  0
 26 31  1  0
 26 27  1  0
 28 27  2  0
 29 28  1  0
 30 25  1  0
 30 29  2  0
  1 32  1  0
  2 33  1  0
  8 34  1  0
  8 35  1  0
  9 36  1  0
  9 37  1  0
 10 38  1  0
 11 39  1  0
 11 40  1  0
 12 41  1  6
 14 42  1  0
 15 43  1  0
 17 44  1  0
 18 45  1  0
 19 46  1  0
 20 47  1  0
 23 48  1  0
 28 49  1  0
 31 50  1  0
 31 51  1  0
M  END
>  <Score>  (1) 
-7.06691

$$$$
