
     RDKit          3D

 49 54  0  0  0  0  0  0  0  0999 V2000
   44.5812   74.8112   31.5737 C   0  0  0  0  0  0  0  0  0  0  0  0
   45.4510   75.8723   31.3712 C   0  0  0  0  0  0  0  0  0  0  0  0
   44.9011   77.0980   31.7481 C   0  0  0  0  0  0  0  0  0  0  0  0
   43.6509   77.2533   32.2595 C   0  0  0  0  0  0  0  0  0  0  0  0
   42.8514   76.1506   32.4287 C   0  0  0  0  0  0  0  0  0  0  0  0
   43.3337   74.9239   32.0783 N   0  0  0  0  0  0  0  0  0  0  0  0
   41.5088   76.1551   32.9536 N   0  0  0  0  0  0  0  0  0  0  0  0
   41.0249   76.7665   34.0444 C   0  0  0  0  0  0  0  0  0  0  0  0
   39.6914   76.6234   34.3268 C   0  0  0  0  0  0  0  0  0  0  0  0
   38.8540   75.8687   33.5130 C   0  0  0  0  0  0  0  0  0  0  0  0
   37.6342   75.7790   33.8332 O   0  0  0  0  0  0  0  0  0  0  0  0
   39.3910   75.2733   32.4257 N   0  0  0  0  0  0  0  0  0  0  0  0
   40.6935   75.4142   32.1532 C   0  0  0  0  0  0  0  0  0  0  0  0
   41.0286   74.7941   31.1087 O   0  0  0  0  0  0  0  0  0  0  0  0
   44.6599   71.0976   31.1556 C   0  0  0  0  0  0  0  0  0  0  0  0
   44.2137   72.3887   31.4721 C   0  0  0  0  0  0  0  0  0  0  0  0
   45.0299   73.4754   31.2327 C   0  0  0  0  0  0  0  0  0  0  0  0
   46.2580   73.2650   30.6891 N   0  0  0  0  0  0  0  0  0  0  0  0
   46.6739   72.0170   30.3891 C   0  0  0  0  0  0  0  0  0  0  0  0
   45.8846   70.9635   30.6215 N   0  0  0  0  0  0  0  0  0  0  0  0
   43.8334   69.9586   31.3946 N   0  0  0  0  0  0  0  0  0  0  0  0
   44.1708   68.7110   31.0059 C   0  0  0  0  0  0  0  0  0  0  0  0
   43.0790   67.9292   31.4401 C   0  0  0  0  0  0  0  0  0  0  0  0
   42.1748   68.7310   32.0477 N   0  0  0  0  0  0  0  0  0  0  0  0
   42.6564   70.0214   32.0183 C   0  0  0  0  0  0  0  0  0  0  0  0
   46.4433   75.7433   30.9644 H   0  0  0  0  0  0  0  0  0  0  0  0
   45.5184   77.9874   31.6224 H   0  0  0  0  0  0  0  0  0  0  0  0
   43.2322   78.2071   32.5493 H   0  0  0  0  0  0  0  0  0  0  0  0
   41.7678   77.3079   34.5749 H   0  0  0  0  0  0  0  0  0  0  0  0
   39.3528   77.1410   35.2244 H   0  0  0  0  0  0  0  0  0  0  0  0
   38.7100   74.7352   31.8515 H   0  0  0  0  0  0  0  0  0  0  0  0
   43.2468   72.5752   31.8826 H   0  0  0  0  0  0  0  0  0  0  0  0
   47.6106   71.7165   29.9614 H   0  0  0  0  0  0  0  0  0  0  0  0
   45.0797   68.4429   30.4875 H   0  0  0  0  0  0  0  0  0  0  0  0
   43.0914   66.8558   31.2489 H   0  0  0  0  0  0  0  0  0  0  0  0
   41.7374   70.8222   32.6585 N   0  0  0  0  0  0  0  0  0  0  0  0
   41.7054   71.4984   33.8537 C   0  0  0  0  0  0  0  0  0  0  0  0
   40.5197   72.0787   34.0907 N   0  0  0  0  0  0  0  0  0  0  0  0
   39.7026   71.8170   33.0629 C   0  0  0  0  0  0  0  0  0  0  0  0
   38.4177   72.0292   32.6198 C   0  0  0  0  0  0  0  0  0  0  0  0
   37.5631   72.7675   33.4647 N   0  0  0  0  0  0  0  0  0  0  0  0
   37.9168   71.5593   31.4648 N   0  0  0  0  0  0  0  0  0  0  0  0
   38.6644   70.8245   30.6387 C   0  0  0  0  0  0  0  0  0  0  0  0
   39.9115   70.5940   31.0306 N   0  0  0  0  0  0  0  0  0  0  0  0
   40.4545   71.0546   32.1973 C   0  0  0  0  0  0  0  0  0  0  0  0
   42.5771   71.5221   34.4897 H   0  0  0  0  0  0  0  0  0  0  0  0
   36.8197   72.1377   33.8802 H   0  0  0  0  0  0  0  0  0  0  0  0
   36.7604   72.8406   34.1025 H   0  0  0  0  0  0  0  0  0  0  0  0
   38.4184   70.3874   29.7033 H   0  0  0  0  0  0  0  0  0  0  0  0
  1  6  1  0
  2  1  2  0
  2  3  1  0
  3  4  2  0
  4  5  1  0
  5  7  1  0
  6  5  2  0
  7  8  1  0
  8  9  2  0
 10 11  2  0
 10  9  1  0
 12 10  1  0
 13 12  1  0
 13  7  1  0
 14 13  2  0
 15 21  1  0
 15 16  2  0
 17 16  1  0
 17  1  1  0
 18 17  2  0
 19 20  2  0
 19 18  1  0
 20 15  1  0
 21 25  1  0
 22 21  1  0
 22 23  2  0
 23 24  1  0
 25 24  2  0
  2 26  1  0
  3 27  1  0
  4 28  1  0
  8 29  1  0
  9 30  1  0
 12 31  1  0
 16 32  1  0
 19 33  1  0
 22 34  1  0
 23 35  1  0
 36 37  1  0
 37 38  2  0
 38 39  1  0
 39 40  2  0
 40 41  1  0
 40 42  1  0
 42 43  2  0
 43 44  1  0
 44 45  2  0
 45 36  1  0
 45 39  1  0
 37 46  1  0
 41 47  1  0
 41 48  1  0
 43 49  1  0
 25 36  1  0
M  END
>  <Score>  (1) 
-7.89999

$$$$
