
     RDKit          3D

 55 60  0  0  1  0  0  0  0  0999 V2000
   48.9790   66.8180   29.8450 C   0  0  0  0  0  0  0  0  0  0  0  0
   47.3780   69.7940   31.3030 C   0  0  0  0  0  0  0  0  0  0  0  0
   46.8280   70.4370   30.2510 C   0  0  0  0  0  0  0  0  0  0  0  0
   47.0170   69.8390   29.0330 C   0  0  0  0  0  0  0  0  0  0  0  0
   47.7150   68.6840   28.9540 N   0  0  0  0  0  0  0  0  0  0  0  0
   48.2330   68.0900   30.0010 C   0  0  0  0  0  0  0  0  0  0  0  0
   48.0790   68.6280   31.1930 N   0  0  0  0  0  0  0  0  0  0  0  0
   46.0780   71.6670   30.5080 C   0  0  2  0  0  0  0  0  0  0  0  0
   46.8770   72.7680   30.4720 N   0  0  0  0  0  0  0  0  0  0  0  0
   46.4320   73.9930   30.7880 C   0  0  0  0  0  0  0  0  0  0  0  0
   45.1660   74.1660   31.3290 N   0  0  0  0  0  0  0  0  0  0  0  0
   44.4160   73.0500   31.5360 C   0  0  0  0  0  0  0  0  0  0  0  0
   43.1890   73.1280   32.1230 C   0  0  0  0  0  0  0  0  0  0  0  0
   42.4680   71.9730   32.3880 C   0  0  0  0  0  0  0  0  0  0  0  0
   42.9870   70.7160   32.0600 C   0  0  0  0  0  0  0  0  0  0  0  0
   44.2420   70.6530   31.4590 C   0  0  0  0  0  0  0  0  0  0  0  0
   44.9060   71.8240   31.2190 C   0  0  0  0  0  0  0  0  0  0  0  0
   49.1340   66.4190   28.3980 C   0  0  0  0  0  0  0  0  0  0  0  0
   48.1240   65.4520   27.9720 C   0  0  0  0  0  0  0  0  0  0  0  0
   48.4250   64.6710   26.8620 C   0  0  0  0  0  0  0  0  0  0  0  0
   47.4740   63.7310   26.4250 C   0  0  0  0  0  0  0  0  0  0  0  0
   46.3150   63.6140   27.0850 N   0  0  0  0  0  0  0  0  0  0  0  0
   46.0160   64.3730   28.1690 C   0  0  0  0  0  0  0  0  0  0  0  0
   46.9410   65.2630   28.5650 N   0  0  0  0  0  0  0  0  0  0  0  0
   44.7860   64.2710   28.8960 N   0  0  0  0  0  0  0  0  0  0  0  0
   43.6900   65.0850   28.8950 C   0  0  0  0  0  0  0  0  0  0  0  0
   42.8020   64.5470   29.7540 N   0  0  0  0  0  0  0  0  0  0  0  0
   43.3240   63.4290   30.2790 C   0  0  0  0  0  0  0  0  0  0  0  0
   42.8740   62.4930   31.1900 C   0  0  0  0  0  0  0  0  0  0  0  0
   43.6570   61.4470   31.5240 N   0  0  0  0  0  0  0  0  0  0  0  0
   44.8660   61.2620   31.0130 C   0  0  0  0  0  0  0  0  0  0  0  0
   45.3020   62.1740   30.1270 N   0  0  0  0  0  0  0  0  0  0  0  0
   44.5680   63.2340   29.7560 C   0  0  0  0  0  0  0  0  0  0  0  0
   41.5970   62.6240   31.7750 N   0  0  0  0  0  0  0  0  0  0  0  0
   49.9787   66.9375   30.2881 H   0  0  0  0  0  0  0  0  0  0  0  0
   48.4066   66.0276   30.3526 H   0  0  0  0  0  0  0  0  0  0  0  0
   47.2544   70.2339   32.3036 H   0  0  0  0  0  0  0  0  0  0  0  0
   46.0182   69.6369   28.6187 H   0  0  0  0  0  0  0  0  0  0  0  0
   47.6494   70.5575   28.4909 H   0  0  0  0  0  0  0  0  0  0  0  0
   48.4804   68.1770   32.0275 H   0  0  0  0  0  0  0  0  0  0  0  0
   45.4055   71.4458   29.6661 H   0  0  0  0  0  0  0  0  0  0  0  0
   47.0761   74.8681   30.6169 H   0  0  0  0  0  0  0  0  0  0  0  0
   44.8081   75.1026   31.5646 H   0  0  0  0  0  0  0  0  0  0  0  0
   42.7689   74.1096   32.3875 H   0  0  0  0  0  0  0  0  0  0  0  0
   41.4776   72.0462   32.8611 H   0  0  0  0  0  0  0  0  0  0  0  0
   42.4175   69.7990   32.2717 H   0  0  0  0  0  0  0  0  0  0  0  0
   44.6877   69.6856   31.1844 H   0  0  0  0  0  0  0  0  0  0  0  0
   49.0459   67.3196   27.7725 H   0  0  0  0  0  0  0  0  0  0  0  0
   50.1196   65.9435   28.2865 H   0  0  0  0  0  0  0  0  0  0  0  0
   49.3850   64.7855   26.3373 H   0  0  0  0  0  0  0  0  0  0  0  0
   47.6806   63.0981   25.5494 H   0  0  0  0  0  0  0  0  0  0  0  0
   43.5572   66.0043   28.3057 H   0  0  0  0  0  0  0  0  0  0  0  0
   45.4854   60.3999   31.3014 H   0  0  0  0  0  0  0  0  0  0  0  0
   41.2670   61.9229   32.4536 H   0  0  0  0  0  0  0  0  0  0  0  0
   40.9946   63.4207   31.5235 H   0  0  0  0  0  0  0  0  0  0  0  0
  1  6  1  0
  3  8  1  0
  3  2  2  0
  4  3  1  0
  5  4  1  0
  5  6  2  0
  6  7  1  0
  7  2  1  0
  8 17  1  0
  9  8  1  0
  9 10  2  0
 10 11  1  0
 11 12  1  0
 12 13  2  0
 13 14  1  0
 15 14  2  0
 16 15  1  0
 17 16  2  0
 17 12  1  0
 18  1  1  0
 19 18  1  0
 19 24  1  0
 20 19  2  0
 21 20  1  0
 21 22  2  0
 22 23  1  0
 23 24  2  0
 23 25  1  0
 25 33  1  0
 26 25  1  0
 26 27  2  0
 27 28  1  0
 28 29  2  0
 29 30  1  0
 29 34  1  0
 31 30  2  0
 32 31  1  0
 33 32  2  0
 33 28  1  0
  1 35  1  0
  1 36  1  0
  2 37  1  0
  4 38  1  0
  4 39  1  0
  7 40  1  0
  8 41  1  6
 10 42  1  0
 11 43  1  0
 13 44  1  0
 14 45  1  0
 15 46  1  0
 16 47  1  0
 18 48  1  0
 18 49  1  0
 20 50  1  0
 21 51  1  0
 26 52  1  0
 31 53  1  0
 34 54  1  0
 34 55  1  0
M  END
>  <Score>  (1) 
-7.50582

$$$$
