
     RDKit          3D

 49 54  0  0  0  0  0  0  0  0999 V2000
   45.2970   75.3890   31.5540 C   0  0  0  0  0  0  0  0  0  0  0  0
   44.0630   74.7270   31.7400 C   0  0  0  0  0  0  0  0  0  0  0  0
   44.0120   73.4070   31.2880 C   0  0  0  0  0  0  0  0  0  0  0  0
   45.1040   72.8440   30.7160 N   0  0  0  0  0  0  0  0  0  0  0  0
   46.2430   73.5050   30.5630 C   0  0  0  0  0  0  0  0  0  0  0  0
   46.3570   74.7900   30.9810 N   0  0  0  0  0  0  0  0  0  0  0  0
   43.0390   75.5180   32.3730 C   0  0  0  0  0  0  0  0  0  0  0  0
   43.5070   76.7540   32.8320 C   0  0  0  0  0  0  0  0  0  0  0  0
   42.7000   77.6710   33.4680 C   0  0  0  0  0  0  0  0  0  0  0  0
   41.3550   77.3700   33.6710 C   0  0  0  0  0  0  0  0  0  0  0  0
   40.8980   76.1440   33.2150 C   0  0  0  0  0  0  0  0  0  0  0  0
   39.5930   75.7540   33.3670 C   0  0  0  0  0  0  0  0  0  0  0  0
   39.1220   74.5320   32.9160 C   0  0  0  0  0  0  0  0  0  0  0  0
   39.9960   73.6650   32.2870 C   0  0  0  0  0  0  0  0  0  0  0  0
   41.3160   74.0390   32.1230 C   0  0  0  0  0  0  0  0  0  0  0  0
   41.7120   75.2560   32.5900 C   0  0  0  0  0  0  0  0  0  0  0  0
   47.3930   72.7790   29.9180 C   0  0  0  0  0  0  0  0  0  0  0  0
   47.3940   71.3280   30.3590 C   0  0  0  0  0  0  0  0  0  0  0  0
   47.8880   70.8900   31.6160 C   0  0  0  0  0  0  0  0  0  0  0  0
   47.5800   69.1120   31.4630 S   0  0  0  0  0  0  0  0  0  0  0  0
   46.8570   69.2480   29.7800 C   0  0  0  0  0  0  0  0  0  0  0  0
   46.9110   70.4420   29.5330 N   0  0  0  0  0  0  0  0  0  0  0  0
   46.4200   67.9420   29.1880 C   0  0  0  0  0  0  0  0  0  0  0  0
   45.1370   67.5860   28.9930 N   0  0  0  0  0  0  0  0  0  0  0  0
   44.7610   66.4250   28.4670 C   0  0  0  0  0  0  0  0  0  0  0  0
   45.6760   65.5200   28.0930 N   0  0  0  0  0  0  0  0  0  0  0  0
   46.9810   65.7870   28.2490 C   0  0  0  0  0  0  0  0  0  0  0  0
   47.9230   64.8510   27.8620 C   0  0  0  0  0  0  0  0  0  0  0  0
   49.2890   65.1130   28.0180 C   0  0  0  0  0  0  0  0  0  0  0  0
   49.6090   66.3560   28.5780 C   0  0  0  0  0  0  0  0  0  0  0  0
   48.6440   67.2660   28.9530 C   0  0  0  0  0  0  0  0  0  0  0  0
   47.3220   67.0030   28.7990 C   0  0  0  0  0  0  0  0  0  0  0  0
   45.3949   76.4319   31.8897 H   0  0  0  0  0  0  0  0  0  0  0  0
   43.0855   72.8240   31.3962 H   0  0  0  0  0  0  0  0  0  0  0  0
   44.5670   77.0046   32.6780 H   0  0  0  0  0  0  0  0  0  0  0  0
   43.1130   78.6308   33.8120 H   0  0  0  0  0  0  0  0  0  0  0  0
   40.6812   78.0789   34.1743 H   0  0  0  0  0  0  0  0  0  0  0  0
   38.8919   76.4385   33.8669 H   0  0  0  0  0  0  0  0  0  0  0  0
   38.0667   74.2551   33.0564 H   0  0  0  0  0  0  0  0  0  0  0  0
   39.6447   72.6888   31.9214 H   0  0  0  0  0  0  0  0  0  0  0  0
   42.0321   73.3682   31.6258 H   0  0  0  0  0  0  0  0  0  0  0  0
   48.3391   73.2530   30.2183 H   0  0  0  0  0  0  0  0  0  0  0  0
   47.2864   72.8270   28.8242 H   0  0  0  0  0  0  0  0  0  0  0  0
   48.3300   71.4645   32.4434 H   0  0  0  0  0  0  0  0  0  0  0  0
   43.6910   66.2052   28.3376 H   0  0  0  0  0  0  0  0  0  0  0  0
   47.5963   63.8942   27.4287 H   0  0  0  0  0  0  0  0  0  0  0  0
   50.0616   64.3890   27.7199 H   0  0  0  0  0  0  0  0  0  0  0  0
   50.6680   66.6154   28.7238 H   0  0  0  0  0  0  0  0  0  0  0  0
   48.9531   68.2282   29.3874 H   0  0  0  0  0  0  0  0  0  0  0  0
  1  2  2  0
  2  7  1  0
  3  2  1  0
  4  3  2  0
  5  4  1  0
  5  6  2  0
  6  1  1  0
  7 16  1  0
  7  8  2  0
  8  9  1  0
  9 10  2  0
 11 12  2  0
 11 10  1  0
 13 12  1  0
 14 13  2  0
 15 14  1  0
 15 16  2  0
 16 11  1  0
 17 18  1  0
 17  5  1  0
 18 19  2  0
 20 19  1  0
 21 20  1  0
 22 21  2  0
 22 18  1  0
 23 21  1  0
 24 23  2  0
 25 24  1  0
 26 27  1  0
 26 25  2  0
 27 32  2  0
 28 29  2  0
 28 27  1  0
 29 30  1  0
 30 31  2  0
 32 31  1  0
 32 23  1  0
  1 33  1  0
  3 34  1  0
  8 35  1  0
  9 36  1  0
 10 37  1  0
 12 38  1  0
 13 39  1  0
 14 40  1  0
 15 41  1  0
 17 42  1  0
 17 43  1  0
 19 44  1  0
 25 45  1  0
 28 46  1  0
 29 47  1  0
 30 48  1  0
 31 49  1  0
M  END
>  <Score>  (1) 
-7.30159

$$$$
