
     RDKit          3D

 48 53  0  0  0  0  0  0  0  0999 V2000
   46.7770   73.3850   30.3820 C   0  0  0  0  0  0  0  0  0  0  0  0
   45.9390   73.5930   31.4680 C   0  0  0  0  0  0  0  0  0  0  0  0
   45.9680   72.6530   32.4890 C   0  0  0  0  0  0  0  0  0  0  0  0
   46.8080   71.5820   32.3810 N   0  0  0  0  0  0  0  0  0  0  0  0
   47.6020   71.4260   31.3060 C   0  0  0  0  0  0  0  0  0  0  0  0
   47.5870   72.3190   30.3160 N   0  0  0  0  0  0  0  0  0  0  0  0
   45.0950   74.7420   31.4950 C   0  0  0  0  0  0  0  0  0  0  0  0
   45.5650   76.0720   31.3900 C   0  0  0  0  0  0  0  0  0  0  0  0
   44.4900   76.9190   31.4520 N   0  0  0  0  0  0  0  0  0  0  0  0
   43.3690   76.1760   31.5920 C   0  0  0  0  0  0  0  0  0  0  0  0
   42.0360   76.5600   31.7000 C   0  0  0  0  0  0  0  0  0  0  0  0
   41.0550   75.5810   31.8370 C   0  0  0  0  0  0  0  0  0  0  0  0
   41.4030   74.2460   31.8660 C   0  0  0  0  0  0  0  0  0  0  0  0
   42.7440   73.9300   31.7540 C   0  0  0  0  0  0  0  0  0  0  0  0
   43.7570   74.8570   31.6160 C   0  0  0  0  0  0  0  0  0  0  0  0
   48.4850   70.2330   31.2670 C   0  0  0  0  0  0  0  0  0  0  0  0
   47.8110   69.2050   30.4240 C   0  0  0  0  0  0  0  0  0  0  0  0
   46.4740   69.3790   30.0390 C   0  0  0  0  0  0  0  0  0  0  0  0
   46.1330   68.2870   29.2800 C   0  0  0  0  0  0  0  0  0  0  0  0
   47.2090   67.5040   29.2170 N   0  0  0  0  0  0  0  0  0  0  0  0
   48.2030   68.0560   29.9000 N   0  0  0  0  0  0  0  0  0  0  0  0
   47.1760   66.2790   28.4940 C   0  0  0  0  0  0  0  0  0  0  0  0
   46.1350   65.5110   28.0150 C   0  0  0  0  0  0  0  0  0  0  0  0
   46.6010   64.4190   27.3830 N   0  0  0  0  0  0  0  0  0  0  0  0
   47.9540   64.4250   27.4200 C   0  0  0  0  0  0  0  0  0  0  0  0
   48.9540   63.6110   26.9660 C   0  0  0  0  0  0  0  0  0  0  0  0
   50.2910   63.8870   27.1640 C   0  0  0  0  0  0  0  0  0  0  0  0
   50.6870   65.0230   27.8450 C   0  0  0  0  0  0  0  0  0  0  0  0
   49.6720   65.8370   28.2980 C   0  0  0  0  0  0  0  0  0  0  0  0
   48.3160   65.5730   28.1070 C   0  0  0  0  0  0  0  0  0  0  0  0
   46.7767   74.1116   29.5561 H   0  0  0  0  0  0  0  0  0  0  0  0
   45.3233   72.7693   33.3727 H   0  0  0  0  0  0  0  0  0  0  0  0
   46.6164   76.3751   31.2775 H   0  0  0  0  0  0  0  0  0  0  0  0
   44.5291   77.9470   31.4007 H   0  0  0  0  0  0  0  0  0  0  0  0
   41.7602   77.6246   31.6774 H   0  0  0  0  0  0  0  0  0  0  0  0
   39.9980   75.8733   31.9225 H   0  0  0  0  0  0  0  0  0  0  0  0
   40.6401   73.4610   31.9744 H   0  0  0  0  0  0  0  0  0  0  0  0
   43.0230   72.8662   31.7764 H   0  0  0  0  0  0  0  0  0  0  0  0
   49.4578   70.4998   30.8282 H   0  0  0  0  0  0  0  0  0  0  0  0
   48.6609   69.8475   32.2821 H   0  0  0  0  0  0  0  0  0  0  0  0
   45.8231   70.2277   30.2959 H   0  0  0  0  0  0  0  0  0  0  0  0
   45.1561   68.0949   28.8123 H   0  0  0  0  0  0  0  0  0  0  0  0
   45.0696   65.7579   28.1337 H   0  0  0  0  0  0  0  0  0  0  0  0
   46.0199   63.6927   26.9406 H   0  0  0  0  0  0  0  0  0  0  0  0
   48.6808   62.6965   26.4192 H   0  0  0  0  0  0  0  0  0  0  0  0
   51.0518   63.1943   26.7750 H   0  0  0  0  0  0  0  0  0  0  0  0
   51.7472   65.2622   28.0147 H   0  0  0  0  0  0  0  0  0  0  0  0
   49.9481   66.7512   28.8438 H   0  0  0  0  0  0  0  0  0  0  0  0
  1  2  2  0
  2  7  1  0
  2  3  1  0
  4  3  2  0
  5  4  1  0
  6  1  1  0
  6  5  2  0
  7 15  1  0
  8  9  1  0
  8  7  2  0
  9 10  1  0
 10 15  2  0
 10 11  1  0
 11 12  2  0
 12 13  1  0
 14 13  2  0
 15 14  1  0
 16  5  1  0
 17 16  1  0
 18 17  1  0
 19 18  2  0
 20 19  1  0
 20 21  1  0
 21 17  2  0
 22 20  1  0
 23 22  2  0
 24 25  1  0
 24 23  1  0
 25 30  2  0
 26 27  2  0
 26 25  1  0
 27 28  1  0
 28 29  2  0
 30 29  1  0
 30 22  1  0
  1 31  1  0
  3 32  1  0
  8 33  1  0
  9 34  1  0
 11 35  1  0
 12 36  1  0
 13 37  1  0
 14 38  1  0
 16 39  1  0
 16 40  1  0
 18 41  1  0
 19 42  1  0
 23 43  1  0
 24 44  1  0
 26 45  1  0
 27 46  1  0
 28 47  1  0
 29 48  1  0
M  END
>  <Score>  (1) 
-7.07403

$$$$
