
     RDKit          3D

 49 53  0  0  1  0  0  0  0  0999 V2000
   46.3190   70.5280   31.3120 N   0  0  0  0  0  0  0  0  0  0  0  0
   47.2900   69.9750   32.0140 C   0  0  0  0  0  0  0  0  0  0  0  0
   48.5110   70.5950   32.0140 C   0  0  0  0  0  0  0  0  0  0  0  0
   48.6210   71.7600   31.2690 C   0  0  0  0  0  0  0  0  0  0  0  0
   49.8790   72.4250   31.2500 N   0  0  0  0  0  0  0  0  0  0  0  0
   47.5910   72.2890   30.5640 N   0  0  0  0  0  0  0  0  0  0  0  0
   46.3990   71.6630   30.5780 C   0  0  0  0  0  0  0  0  0  0  0  0
   45.4110   72.1270   29.9300 O   0  0  0  0  0  0  0  0  0  0  0  0
   42.6840   69.8270   31.8480 C   0  0  0  0  0  0  0  0  0  0  0  0
   43.9060   70.4910   31.9140 C   0  0  0  0  0  0  0  0  0  0  0  0
   45.0290   69.9070   31.2910 C   0  0  0  0  0  0  0  0  0  0  0  0
   44.8430   68.7160   30.6590 N   0  0  0  0  0  0  0  0  0  0  0  0
   43.6380   68.1150   30.6250 C   0  0  0  0  0  0  0  0  0  0  0  0
   42.5730   68.6580   31.2070 N   0  0  0  0  0  0  0  0  0  0  0  0
   43.6590   66.8820   29.9060 N   0  0  0  0  0  0  0  0  0  0  0  0
   44.2520   67.0070   28.7030 N   0  0  0  0  0  0  0  0  0  0  0  0
   44.1950   65.7980   28.0860 C   0  0  0  0  0  0  0  0  0  0  0  0
   43.5550   64.9320   28.9310 C   0  0  0  0  0  0  0  0  0  0  0  0
   43.2240   65.6300   30.0780 C   0  0  0  0  0  0  0  0  0  0  0  0
   42.6210   65.3740   31.2140 O   0  0  0  0  0  0  0  0  0  0  0  0
   42.6080   64.0450   31.7550 C   0  0  2  0  0  0  0  0  0  0  0  0
   43.7230   63.1190   31.4810 C   0  0  0  0  0  0  0  0  0  0  0  0
   42.3490   62.9060   30.8830 C   0  0  1  0  0  0  0  0  0  0  0  0
   41.5290   61.7920   31.2490 N   0  0  0  0  0  0  0  0  0  0  0  0
   40.2020   61.8040   31.0360 C   0  0  0  0  0  0  0  0  0  0  0  0
   39.3900   60.7660   31.3690 C   0  0  0  0  0  0  0  0  0  0  0  0
   37.9100   60.7280   31.1560 C   0  0  0  0  0  0  0  0  0  0  0  0
   39.9180   59.6150   31.9630 C   0  0  0  0  0  0  0  0  0  0  0  0
   39.2960   58.5760   32.3270 O   0  0  0  0  0  0  0  0  0  0  0  0
   41.2680   59.6350   32.1660 N   0  0  0  0  0  0  0  0  0  0  0  0
   42.0470   60.6840   31.8210 C   0  0  0  0  0  0  0  0  0  0  0  0
   43.2870   60.6890   32.0140 O   0  0  0  0  0  0  0  0  0  0  0  0
   47.1241   69.0467   32.5804 H   0  0  0  0  0  0  0  0  0  0  0  0
   49.3637   70.1887   32.5777 H   0  0  0  0  0  0  0  0  0  0  0  0
   49.9948   73.2924   30.7068 H   0  0  0  0  0  0  0  0  0  0  0  0
   50.6737   72.0389   31.7794 H   0  0  0  0  0  0  0  0  0  0  0  0
   41.7989   70.2690   32.3288 H   0  0  0  0  0  0  0  0  0  0  0  0
   43.9941   71.4522   32.4416 H   0  0  0  0  0  0  0  0  0  0  0  0
   44.5913   65.5584   27.0882 H   0  0  0  0  0  0  0  0  0  0  0  0
   43.3421   63.8711   28.7332 H   0  0  0  0  0  0  0  0  0  0  0  0
   42.1425   64.4278   32.6752 H   0  0  0  0  0  0  0  0  0  0  0  0
   44.5622   63.4348   30.8438 H   0  0  0  0  0  0  0  0  0  0  0  0
   44.4180   62.5217   32.0895 H   0  0  0  0  0  0  0  0  0  0  0  0
   41.9339   62.7897   29.8710 H   0  0  0  0  0  0  0  0  0  0  0  0
   39.7528   62.6940   30.5712 H   0  0  0  0  0  0  0  0  0  0  0  0
   37.3996   60.7149   32.1303 H   0  0  0  0  0  0  0  0  0  0  0  0
   37.5980   61.6184   30.5905 H   0  0  0  0  0  0  0  0  0  0  0  0
   37.6441   59.8227   30.5905 H   0  0  0  0  0  0  0  0  0  0  0  0
   41.7124   58.8141   32.6014 H   0  0  0  0  0  0  0  0  0  0  0  0
  1  2  1  0
  2  3  2  0
  4  3  1  0
  5  4  1  0
  6  7  1  0
  6  4  2  0
  7  1  1  0
  8  7  2  0
  9 10  2  0
 11  1  1  0
 11 10  1  0
 12 11  2  0
 13 12  1  0
 13 14  2  0
 14  9  1  0
 15 19  1  0
 15 13  1  0
 16 15  1  0
 17 16  2  0
 17 18  1  0
 18 19  2  0
 19 20  1  0
 20 21  1  0
 22 21  1  0
 23 24  1  0
 23 22  1  0
 23 21  1  0
 24 31  1  0
 25 24  1  0
 25 26  2  0
 26 28  1  0
 27 26  1  0
 28 30  1  0
 28 29  2  0
 31 32  2  0
 31 30  1  0
  2 33  1  0
  3 34  1  0
  5 35  1  0
  5 36  1  0
  9 37  1  0
 10 38  1  0
 17 39  1  0
 18 40  1  0
 21 41  1  1
 22 42  1  0
 22 43  1  0
 23 44  1  6
 25 45  1  0
 27 46  1  0
 27 47  1  0
 27 48  1  0
 30 49  1  0
M  END
>  <Score>  (1) 
-7.18337

$$$$
