
     RDKit          3D

 50 55  0  0  1  0  0  0  0  0999 V2000
   46.1800   70.5650   31.4440 N   0  0  0  0  0  0  0  0  0  0  0  0
   47.1450   70.0260   32.1710 C   0  0  0  0  0  0  0  0  0  0  0  0
   48.3480   70.6790   32.2230 C   0  0  0  0  0  0  0  0  0  0  0  0
   48.4470   71.8570   31.5010 C   0  0  0  0  0  0  0  0  0  0  0  0
   49.6930   72.5580   31.5420 N   0  0  0  0  0  0  0  0  0  0  0  0
   47.4300   72.3700   30.7710 N   0  0  0  0  0  0  0  0  0  0  0  0
   46.2540   71.7160   30.7300 C   0  0  0  0  0  0  0  0  0  0  0  0
   45.2790   72.1590   30.0610 O   0  0  0  0  0  0  0  0  0  0  0  0
   42.5530   69.7550   31.8470 C   0  0  0  0  0  0  0  0  0  0  0  0
   43.7480   70.4500   31.9650 C   0  0  0  0  0  0  0  0  0  0  0  0
   44.9120   69.9090   31.3690 C   0  0  0  0  0  0  0  0  0  0  0  0
   44.7810   68.7260   30.7100 N   0  0  0  0  0  0  0  0  0  0  0  0
   43.5960   68.0920   30.6260 C   0  0  0  0  0  0  0  0  0  0  0  0
   42.4970   68.5920   31.1820 N   0  0  0  0  0  0  0  0  0  0  0  0
   43.6770   66.8720   29.8870 N   0  0  0  0  0  0  0  0  0  0  0  0
   44.3060   67.0350   28.7090 N   0  0  0  0  0  0  0  0  0  0  0  0
   44.3010   65.8310   28.0710 C   0  0  0  0  0  0  0  0  0  0  0  0
   43.6590   64.9360   28.8790 C   0  0  0  0  0  0  0  0  0  0  0  0
   43.2700   65.6070   30.0250 C   0  0  0  0  0  0  0  0  0  0  0  0
   42.6360   65.3120   31.1310 O   0  0  0  0  0  0  0  0  0  0  0  0
   42.6620   63.9640   31.6470 C   0  0  2  0  0  0  0  0  0  0  0  0
   43.8340   63.1070   31.4400 C   0  0  0  0  0  0  0  0  0  0  0  0
   42.5010   62.8470   30.7160 C   0  0  1  0  0  0  0  0  0  0  0  0
   41.6590   61.7100   31.1600 C   0  0  0  0  0  0  0  0  0  0  0  0
   40.3490   62.0050   30.9680 N   0  0  0  0  0  0  0  0  0  0  0  0
   39.3730   61.1000   31.2630 C   0  0  0  0  0  0  0  0  0  0  0  0
   39.7020   59.8900   31.7520 N   0  0  0  0  0  0  0  0  0  0  0  0
   40.9850   59.5470   31.9610 C   0  0  0  0  0  0  0  0  0  0  0  0
   41.4390   58.3460   32.4670 C   0  0  0  0  0  0  0  0  0  0  0  0
   42.8030   58.1190   32.6480 C   0  0  0  0  0  0  0  0  0  0  0  0
   43.7550   59.0720   32.3350 C   0  0  0  0  0  0  0  0  0  0  0  0
   43.3150   60.2770   31.8290 C   0  0  0  0  0  0  0  0  0  0  0  0
   41.9630   60.4680   31.6630 C   0  0  0  0  0  0  0  0  0  0  0  0
   46.9864   69.0838   32.7161 H   0  0  0  0  0  0  0  0  0  0  0  0
   49.1929   70.2876   32.8086 H   0  0  0  0  0  0  0  0  0  0  0  0
   49.8064   73.4377   31.0185 H   0  0  0  0  0  0  0  0  0  0  0  0
   50.4769   72.1831   32.0951 H   0  0  0  0  0  0  0  0  0  0  0  0
   41.6399   70.1633   32.3048 H   0  0  0  0  0  0  0  0  0  0  0  0
   43.7899   71.4037   32.5116 H   0  0  0  0  0  0  0  0  0  0  0  0
   44.7357   65.6181   27.0832 H   0  0  0  0  0  0  0  0  0  0  0  0
   43.4829   63.8729   28.6583 H   0  0  0  0  0  0  0  0  0  0  0  0
   42.1279   64.2936   32.5504 H   0  0  0  0  0  0  0  0  0  0  0  0
   44.7045   63.4825   30.8821 H   0  0  0  0  0  0  0  0  0  0  0  0
   44.5077   62.5236   32.0848 H   0  0  0  0  0  0  0  0  0  0  0  0
   42.1962   62.7233   29.6663 H   0  0  0  0  0  0  0  0  0  0  0  0
   38.3162   61.3588   31.1013 H   0  0  0  0  0  0  0  0  0  0  0  0
   40.7170   57.5591   32.7305 H   0  0  0  0  0  0  0  0  0  0  0  0
   43.1323   57.1507   33.0528 H   0  0  0  0  0  0  0  0  0  0  0  0
   44.8269   58.8755   32.4846 H   0  0  0  0  0  0  0  0  0  0  0  0
   44.0305   61.0692   31.5636 H   0  0  0  0  0  0  0  0  0  0  0  0
  1  2  1  0
  2  3  2  0
  4  5  1  0
  4  3  1  0
  6  4  2  0
  7  6  1  0
  7  1  1  0
  8  7  2  0
  9 10  2  0
 11  1  1  0
 11 10  1  0
 12 11  2  0
 13 12  1  0
 13 14  2  0
 14  9  1  0
 15 19  1  0
 15 13  1  0
 16 15  1  0
 17 16  2  0
 17 18  1  0
 18 19  2  0
 19 20  1  0
 20 21  1  0
 22 21  1  0
 23 24  1  0
 23 22  1  0
 23 21  1  0
 24 33  1  0
 25 24  2  0
 25 26  1  0
 26 27  2  0
 27 28  1  0
 28 29  2  0
 29 30  1  0
 31 30  2  0
 32 31  1  0
 33 32  2  0
 33 28  1  0
  2 34  1  0
  3 35  1  0
  5 36  1  0
  5 37  1  0
  9 38  1  0
 10 39  1  0
 17 40  1  0
 18 41  1  0
 21 42  1  1
 22 43  1  0
 22 44  1  0
 23 45  1  6
 26 46  1  0
 29 47  1  0
 30 48  1  0
 31 49  1  0
 32 50  1  0
M  END
>  <Score>  (1) 
-7.17309

$$$$
