
     RDKit          3D

 48 53  0  0  0  0  0  0  0  0999 V2000
   46.7990   73.2000   30.3450 C   0  0  0  0  0  0  0  0  0  0  0  0
   45.5320   73.1670   30.9650 C   0  0  0  0  0  0  0  0  0  0  0  0
   44.8970   71.9310   31.0840 C   0  0  0  0  0  0  0  0  0  0  0  0
   45.5160   70.8230   30.6050 N   0  0  0  0  0  0  0  0  0  0  0  0
   46.7270   70.9180   30.0220 C   0  0  0  0  0  0  0  0  0  0  0  0
   47.3430   72.0800   29.9010 N   0  0  0  0  0  0  0  0  0  0  0  0
   44.9580   74.4290   31.4450 C   0  0  0  0  0  0  0  0  0  0  0  0
   45.7010   75.6300   31.3610 C   0  0  0  0  0  0  0  0  0  0  0  0
   44.5520   76.8940   32.0850 S   0  0  0  0  0  0  0  0  0  0  0  0
   43.2650   75.5470   32.3720 C   0  0  0  0  0  0  0  0  0  0  0  0
   43.7790   74.6460   31.9850 N   0  0  0  0  0  0  0  0  0  0  0  0
   41.9610   75.7390   32.9600 N   0  0  0  0  0  0  0  0  0  0  0  0
   41.4520   77.0220   33.3330 C   0  0  0  0  0  0  0  0  0  0  0  0
   40.2550   76.7680   34.2340 C   0  0  0  0  0  0  0  0  0  0  0  0
   39.2660   76.0220   33.6160 O   0  0  0  0  0  0  0  0  0  0  0  0
   39.7070   74.9800   32.8490 C   0  0  0  0  0  0  0  0  0  0  0  0
   41.1290   74.5790   33.1810 C   0  0  0  0  0  0  0  0  0  0  0  0
   47.2940   69.6620   29.5460 C   0  0  0  0  0  0  0  0  0  0  0  0
   48.5960   69.3440   29.3450 N   0  0  0  0  0  0  0  0  0  0  0  0
   48.6880   68.1090   28.9080 O   0  0  0  0  0  0  0  0  0  0  0  0
   47.4700   67.5970   28.8140 C   0  0  0  0  0  0  0  0  0  0  0  0
   46.6010   68.5580   29.2090 N   0  0  0  0  0  0  0  0  0  0  0  0
   46.9920   66.3210   28.4020 N   0  0  0  0  0  0  0  0  0  0  0  0
   47.5170   65.2440   27.8030 C   0  0  0  0  0  0  0  0  0  0  0  0
   46.5630   64.2940   27.6580 N   0  0  0  0  0  0  0  0  0  0  0  0
   45.4270   64.7940   28.1780 C   0  0  0  0  0  0  0  0  0  0  0  0
   44.1920   64.1960   28.2590 C   0  0  0  0  0  0  0  0  0  0  0  0
   43.9260   63.0350   27.8380 O   0  0  0  0  0  0  0  0  0  0  0  0
   43.1570   64.8550   28.8190 N   0  0  0  0  0  0  0  0  0  0  0  0
   43.4130   66.0960   29.2760 C   0  0  0  0  0  0  0  0  0  0  0  0
   42.4530   66.9480   29.8970 N   0  0  0  0  0  0  0  0  0  0  0  0
   44.6100   66.6680   29.1940 N   0  0  0  0  0  0  0  0  0  0  0  0
   45.6950   66.0540   28.6400 C   0  0  0  0  0  0  0  0  0  0  0  0
   47.3327   74.1551   30.2314 H   0  0  0  0  0  0  0  0  0  0  0  0
   43.9080   71.8556   31.5596 H   0  0  0  0  0  0  0  0  0  0  0  0
   46.7154   75.7786   30.9625 H   0  0  0  0  0  0  0  0  0  0  0  0
   42.2207   77.5926   33.8747 H   0  0  0  0  0  0  0  0  0  0  0  0
   41.1651   77.6081   32.4475 H   0  0  0  0  0  0  0  0  0  0  0  0
   40.5970   76.2259   35.1280 H   0  0  0  0  0  0  0  0  0  0  0  0
   39.8205   77.7455   34.4903 H   0  0  0  0  0  0  0  0  0  0  0  0
   39.6617   75.2766   31.7907 H   0  0  0  0  0  0  0  0  0  0  0  0
   39.0586   74.1153   33.0538 H   0  0  0  0  0  0  0  0  0  0  0  0
   41.4505   73.7543   32.5279 H   0  0  0  0  0  0  0  0  0  0  0  0
   41.2054   74.2357   34.2233 H   0  0  0  0  0  0  0  0  0  0  0  0
   48.5635   65.1462   27.4784 H   0  0  0  0  0  0  0  0  0  0  0  0
   42.2208   64.4319   28.8932 H   0  0  0  0  0  0  0  0  0  0  0  0
   42.7296   67.8861   30.2200 H   0  0  0  0  0  0  0  0  0  0  0  0
   41.4829   66.6253   30.0226 H   0  0  0  0  0  0  0  0  0  0  0  0
  1  2  2  0
  2  3  1  0
  2  7  1  0
  4  3  2  0
  5  4  1  0
  6  5  2  0
  6  1  1  0
  7 11  1  0
  8  7  2  0
  8  9  1  0
  9 10  1  0
 10 12  1  0
 11 10  2  0
 12 17  1  0
 12 13  1  0
 13 14  1  0
 15 14  1  0
 16 17  1  0
 16 15  1  0
 18  5  1  0
 19 18  2  0
 20 19  1  0
 21 20  1  0
 21 22  2  0
 22 18  1  0
 23 33  1  0
 23 21  1  0
 24 23  1  0
 25 24  2  0
 25 26  1  0
 26 27  1  0
 26 33  2  0
 27 29  1  0
 28 27  2  0
 29 30  1  0
 30 31  1  0
 32 30  2  0
 33 32  1  0
  1 34  1  0
  3 35  1  0
  8 36  1  0
 13 37  1  0
 13 38  1  0
 14 39  1  0
 14 40  1  0
 16 41  1  0
 16 42  1  0
 17 43  1  0
 17 44  1  0
 24 45  1  0
 29 46  1  0
 31 47  1  0
 31 48  1  0
M  END
>  <Score>  (1) 
-7.67388

$$$$
