
     RDKit          3D

 52 56  0  0  1  0  0  0  0  0999 V2000
   47.6310   69.4690   31.1680 C   0  0  0  0  0  0  0  0  0  0  0  0
   47.0070   70.0730   30.1330 C   0  0  0  0  0  0  0  0  0  0  0  0
   47.1120   69.4330   28.9260 C   0  0  0  0  0  0  0  0  0  0  0  0
   47.8070   68.2750   28.8410 N   0  0  0  0  0  0  0  0  0  0  0  0
   48.3980   67.7190   29.8710 C   0  0  0  0  0  0  0  0  0  0  0  0
   48.3240   68.2980   31.0480 N   0  0  0  0  0  0  0  0  0  0  0  0
   46.2770   71.3150   30.3970 C   0  0  2  0  0  0  0  0  0  0  0  0
   47.0930   72.4020   30.3510 N   0  0  0  0  0  0  0  0  0  0  0  0
   46.6840   73.6310   30.6970 C   0  0  0  0  0  0  0  0  0  0  0  0
   45.4330   73.8230   31.2730 N   0  0  0  0  0  0  0  0  0  0  0  0
   44.6690   72.7180   31.4760 C   0  0  0  0  0  0  0  0  0  0  0  0
   43.4530   72.8050   32.0830 C   0  0  0  0  0  0  0  0  0  0  0  0
   42.7000   71.6630   32.3390 C   0  0  0  0  0  0  0  0  0  0  0  0
   43.1850   70.4100   31.9740 C   0  0  0  0  0  0  0  0  0  0  0  0
   44.4280   70.3310   31.3550 C   0  0  0  0  0  0  0  0  0  0  0  0
   45.1210   71.4850   31.1270 C   0  0  0  0  0  0  0  0  0  0  0  0
   49.1320   66.4400   29.7090 C   0  0  0  0  0  0  0  0  0  0  0  0
   49.1920   65.9980   28.2680 C   0  0  0  0  0  0  0  0  0  0  0  0
   48.1140   65.0690   27.9080 C   0  0  0  0  0  0  0  0  0  0  0  0
   48.1560   64.5090   26.6270 C   0  0  0  0  0  0  0  0  0  0  0  0
   47.1420   63.6300   26.2740 C   0  0  0  0  0  0  0  0  0  0  0  0
   46.1620   63.3380   27.1450 N   0  0  0  0  0  0  0  0  0  0  0  0
   46.1170   63.8730   28.3770 C   0  0  0  0  0  0  0  0  0  0  0  0
   47.1130   64.7380   28.7250 N   0  0  0  0  0  0  0  0  0  0  0  0
   45.1190   63.6190   29.3600 N   0  0  0  0  0  0  0  0  0  0  0  0
   45.1590   62.6150   30.2830 C   0  0  0  0  0  0  0  0  0  0  0  0
   44.1320   62.4610   31.1920 C   0  0  0  0  0  0  0  0  0  0  0  0
   43.1010   63.3730   31.0920 C   0  0  0  0  0  0  0  0  0  0  0  0
   42.1290   63.2700   31.9140 O   0  0  0  0  0  0  0  0  0  0  0  0
   43.0370   64.3720   30.1920 N   0  0  0  0  0  0  0  0  0  0  0  0
   44.0590   64.4810   29.3280 C   0  0  0  0  0  0  0  0  0  0  0  0
   43.9690   65.4250   28.4980 O   0  0  0  0  0  0  0  0  0  0  0  0
   47.5783   69.9448   32.1584 H   0  0  0  0  0  0  0  0  0  0  0  0
   46.0875   69.2160   28.5895 H   0  0  0  0  0  0  0  0  0  0  0  0
   47.7019   70.1321   28.3150 H   0  0  0  0  0  0  0  0  0  0  0  0
   48.7818   67.8752   31.8681 H   0  0  0  0  0  0  0  0  0  0  0  0
   45.5902   71.1173   29.5608 H   0  0  0  0  0  0  0  0  0  0  0  0
   47.3433   74.4944   30.5239 H   0  0  0  0  0  0  0  0  0  0  0  0
   45.1001   74.7620   31.5344 H   0  0  0  0  0  0  0  0  0  0  0  0
   43.0610   73.7905   32.3747 H   0  0  0  0  0  0  0  0  0  0  0  0
   41.7199   71.7504   32.8306 H   0  0  0  0  0  0  0  0  0  0  0  0
   42.5973   69.5013   32.1711 H   0  0  0  0  0  0  0  0  0  0  0  0
   44.8445   69.3581   31.0551 H   0  0  0  0  0  0  0  0  0  0  0  0
   50.1583   66.5703   30.0829 H   0  0  0  0  0  0  0  0  0  0  0  0
   48.5947   65.6670   30.2780 H   0  0  0  0  0  0  0  0  0  0  0  0
   49.1176   66.8874   27.6251 H   0  0  0  0  0  0  0  0  0  0  0  0
   50.1450   65.4674   28.1259 H   0  0  0  0  0  0  0  0  0  0  0  0
   48.9648   64.7568   25.9238 H   0  0  0  0  0  0  0  0  0  0  0  0
   47.1407   63.1696   25.2750 H   0  0  0  0  0  0  0  0  0  0  0  0
   46.0148   61.9242   30.3028 H   0  0  0  0  0  0  0  0  0  0  0  0
   44.1350   61.6621   31.9482 H   0  0  0  0  0  0  0  0  0  0  0  0
   42.2397   65.0236   30.1673 H   0  0  0  0  0  0  0  0  0  0  0  0
  2  7  1  0
  2  1  2  0
  3  2  1  0
  4  3  1  0
  4  5  2  0
  5  6  1  0
  6  1  1  0
  7 16  1  0
  8  7  1  0
  8  9  2  0
  9 10  1  0
 10 11  1  0
 11 12  2  0
 12 13  1  0
 14 13  2  0
 15 14  1  0
 16 15  2  0
 16 11  1  0
 17  5  1  0
 18 17  1  0
 19 18  1  0
 19 24  1  0
 20 19  2  0
 21 20  1  0
 21 22  2  0
 22 23  1  0
 23 24  2  0
 23 25  1  0
 25 26  1  0
 26 27  2  0
 28 27  1  0
 28 29  2  0
 30 28  1  0
 31 25  1  0
 31 30  1  0
 32 31  2  0
  1 33  1  0
  3 34  1  0
  3 35  1  0
  6 36  1  0
  7 37  1  6
  9 38  1  0
 10 39  1  0
 12 40  1  0
 13 41  1  0
 14 42  1  0
 15 43  1  0
 17 44  1  0
 17 45  1  0
 18 46  1  0
 18 47  1  0
 20 48  1  0
 21 49  1  0
 26 50  1  0
 27 51  1  0
 30 52  1  0
M  END
>  <Score>  (1) 
-7.12023

$$$$
