
     RDKit          3D

 52 57  0  0  1  0  0  0  0  0999 V2000
   46.2970   70.4980   31.2960 N   0  0  0  0  0  0  0  0  0  0  0  0
   47.2680   69.9500   31.9990 C   0  0  0  0  0  0  0  0  0  0  0  0
   48.4910   70.5760   31.9930 C   0  0  0  0  0  0  0  0  0  0  0  0
   48.5900   71.7340   31.2420 C   0  0  0  0  0  0  0  0  0  0  0  0
   49.8540   72.4030   31.2210 N   0  0  0  0  0  0  0  0  0  0  0  0
   47.5590   72.2640   30.5320 N   0  0  0  0  0  0  0  0  0  0  0  0
   46.3730   71.6320   30.5550 C   0  0  0  0  0  0  0  0  0  0  0  0
   45.3900   72.0870   29.9110 O   0  0  0  0  0  0  0  0  0  0  0  0
   42.6610   69.7900   31.8360 C   0  0  0  0  0  0  0  0  0  0  0  0
   43.8750   70.4570   31.9000 C   0  0  0  0  0  0  0  0  0  0  0  0
   45.0080   69.8730   31.2770 C   0  0  0  0  0  0  0  0  0  0  0  0
   44.8260   68.6810   30.6470 N   0  0  0  0  0  0  0  0  0  0  0  0
   43.6230   68.0780   30.6150 C   0  0  0  0  0  0  0  0  0  0  0  0
   42.5570   68.6180   31.1960 N   0  0  0  0  0  0  0  0  0  0  0  0
   43.6480   66.8420   29.8970 N   0  0  0  0  0  0  0  0  0  0  0  0
   44.2370   66.9690   28.6960 N   0  0  0  0  0  0  0  0  0  0  0  0
   44.1800   65.7530   28.0790 C   0  0  0  0  0  0  0  0  0  0  0  0
   43.5450   64.8920   28.9270 C   0  0  0  0  0  0  0  0  0  0  0  0
   43.2140   65.5910   30.0730 C   0  0  0  0  0  0  0  0  0  0  0  0
   42.6120   65.3330   31.2110 O   0  0  0  0  0  0  0  0  0  0  0  0
   42.5720   64.0000   31.7320 C   0  0  2  0  0  0  0  0  0  0  0  0
   43.7310   63.1030   31.5820 C   0  0  0  0  0  0  0  0  0  0  0  0
   42.4380   62.8640   30.8260 C   0  0  1  0  0  0  0  0  0  0  0  0
   41.5820   61.7010   31.1340 C   0  0  0  0  0  0  0  0  0  0  0  0
   40.2140   61.7910   31.0940 C   0  0  0  0  0  0  0  0  0  0  0  0
   39.4470   60.6640   31.3930 C   0  0  0  0  0  0  0  0  0  0  0  0
   40.0650   59.4570   31.7290 C   0  0  0  0  0  0  0  0  0  0  0  0
   41.4240   59.3630   31.7690 C   0  0  0  0  0  0  0  0  0  0  0  0
   42.0380   58.1640   32.1030 C   0  0  0  0  0  0  0  0  0  0  0  0
   43.4180   58.0560   32.1470 C   0  0  0  0  0  0  0  0  0  0  0  0
   44.1780   59.1650   31.8540 C   0  0  0  0  0  0  0  0  0  0  0  0
   43.5660   60.3550   31.5230 C   0  0  0  0  0  0  0  0  0  0  0  0
   42.1940   60.4930   31.4700 C   0  0  0  0  0  0  0  0  0  0  0  0
   47.1049   69.0242   32.5703 H   0  0  0  0  0  0  0  0  0  0  0  0
   49.3475   70.1771   32.5563 H   0  0  0  0  0  0  0  0  0  0  0  0
   49.9698   73.2682   30.6742 H   0  0  0  0  0  0  0  0  0  0  0  0
   50.6485   72.0196   31.7527 H   0  0  0  0  0  0  0  0  0  0  0  0
   41.7736   70.2282   32.3161 H   0  0  0  0  0  0  0  0  0  0  0  0
   43.9580   71.4207   32.4239 H   0  0  0  0  0  0  0  0  0  0  0  0
   44.5738   65.5109   27.0808 H   0  0  0  0  0  0  0  0  0  0  0  0
   43.3340   63.8300   28.7329 H   0  0  0  0  0  0  0  0  0  0  0  0
   41.9969   64.3631   32.5965 H   0  0  0  0  0  0  0  0  0  0  0  0
   44.6304   63.4438   31.0482 H   0  0  0  0  0  0  0  0  0  0  0  0
   44.3650   62.5156   32.2625 H   0  0  0  0  0  0  0  0  0  0  0  0
   42.1484   62.7461   29.7714 H   0  0  0  0  0  0  0  0  0  0  0  0
   39.7267   62.7410   30.8292 H   0  0  0  0  0  0  0  0  0  0  0  0
   38.3492   60.7265   31.3639 H   0  0  0  0  0  0  0  0  0  0  0  0
   39.4499   58.5756   31.9631 H   0  0  0  0  0  0  0  0  0  0  0  0
   41.4187   57.2854   32.3365 H   0  0  0  0  0  0  0  0  0  0  0  0
   43.8974   57.1018   32.4111 H   0  0  0  0  0  0  0  0  0  0  0  0
   45.2758   59.1019   31.8839 H   0  0  0  0  0  0  0  0  0  0  0  0
   44.1950   61.2275   31.2924 H   0  0  0  0  0  0  0  0  0  0  0  0
  1  2  1  0
  3  2  2  0
  4  3  1  0
  5  4  1  0
  6  7  1  0
  6  4  2  0
  7  1  1  0
  8  7  2  0
  9 10  2  0
 11  1  1  0
 11 10  1  0
 12 11  2  0
 13 12  1  0
 13 14  2  0
 14  9  1  0
 15 19  1  0
 15 13  1  0
 16 15  1  0
 17 16  2  0
 17 18  1  0
 18 19  2  0
 19 20  1  0
 20 21  1  0
 22 21  1  0
 23 24  1  0
 23 22  1  0
 23 21  1  0
 24 33  1  0
 25 24  2  0
 25 26  1  0
 26 27  2  0
 27 28  1  0
 28 29  2  0
 29 30  1  0
 31 30  2  0
 32 31  1  0
 33 32  2  0
 33 28  1  0
  2 34  1  0
  3 35  1  0
  5 36  1  0
  5 37  1  0
  9 38  1  0
 10 39  1  0
 17 40  1  0
 18 41  1  0
 21 42  1  1
 22 43  1  0
 22 44  1  0
 23 45  1  6
 25 46  1  0
 26 47  1  0
 27 48  1  0
 29 49  1  0
 30 50  1  0
 31 51  1  0
 32 52  1  0
M  END
>  <Score>  (1) 
-7.25662

$$$$
