
     RDKit          3D

 48 52  0  0  0  0  0  0  0  0999 V2000
   44.7150   70.1560   31.1540 C   0  0  0  0  0  0  0  0  0  0  0  0
   44.7560   68.9000   30.5570 C   0  0  0  0  0  0  0  0  0  0  0  0
   43.6550   68.0300   30.6620 C   0  0  0  0  0  0  0  0  0  0  0  0
   42.5520   68.4630   31.3660 C   0  0  0  0  0  0  0  0  0  0  0  0
   42.4810   69.7130   31.9750 C   0  0  0  0  0  0  0  0  0  0  0  0
   43.5980   70.5310   31.8400 C   0  0  0  0  0  0  0  0  0  0  0  0
   43.5220   71.8380   32.4750 C   0  0  0  0  0  0  0  0  0  0  0  0
   43.7050   72.0080   33.8090 N   0  0  0  0  0  0  0  0  0  0  0  0
   43.5960   73.2500   34.1650 O   0  0  0  0  0  0  0  0  0  0  0  0
   43.3370   73.9590   33.0820 C   0  0  0  0  0  0  0  0  0  0  0  0
   43.2980   73.0850   32.0790 N   0  0  0  0  0  0  0  0  0  0  0  0
   43.1050   75.3060   32.7290 N   0  0  0  0  0  0  0  0  0  0  0  0
   43.5890   75.8650   31.4600 C   0  0  0  0  0  0  0  0  0  0  0  0
   43.7730   77.3440   31.8260 C   0  0  0  0  0  0  0  0  0  0  0  0
   42.4490   77.5540   32.5660 C   0  0  0  0  0  0  0  0  0  0  0  0
   42.4040   76.3490   33.4670 C   0  0  0  0  0  0  0  0  0  0  0  0
   47.1490   72.7780   29.9440 C   0  0  0  0  0  0  0  0  0  0  0  0
   45.9510   72.0280   30.0460 C   0  0  0  0  0  0  0  0  0  0  0  0
   45.8990   70.9710   30.9870 C   0  0  0  0  0  0  0  0  0  0  0  0
   46.9850   70.7180   31.7470 N   0  0  0  0  0  0  0  0  0  0  0  0
   48.1220   71.4790   31.6060 C   0  0  0  0  0  0  0  0  0  0  0  0
   48.1840   72.4710   30.7290 N   0  0  0  0  0  0  0  0  0  0  0  0
   49.2560   71.1880   32.4240 N   0  0  0  0  0  0  0  0  0  0  0  0
   50.2050   72.1380   32.3170 C   0  0  0  0  0  0  0  0  0  0  0  0
   51.3830   72.0300   33.0390 C   0  0  0  0  0  0  0  0  0  0  0  0
   51.4920   70.9080   33.8430 C   0  0  0  0  0  0  0  0  0  0  0  0
   52.6810   70.7440   34.6080 N   0  0  0  0  0  0  0  0  0  0  0  0
   50.5380   69.9880   33.9270 N   0  0  0  0  0  0  0  0  0  0  0  0
   49.4040   70.1180   33.2150 C   0  0  0  0  0  0  0  0  0  0  0  0
   48.4530   69.2940   33.2380 O   0  0  0  0  0  0  0  0  0  0  0  0
   45.6518   68.5861   30.0012 H   0  0  0  0  0  0  0  0  0  0  0  0
   43.6741   67.0338   30.1960 H   0  0  0  0  0  0  0  0  0  0  0  0
   41.6868   67.7890   31.4507 H   0  0  0  0  0  0  0  0  0  0  0  0
   41.5897   70.0363   32.5328 H   0  0  0  0  0  0  0  0  0  0  0  0
   42.8477   75.7392   30.6571 H   0  0  0  0  0  0  0  0  0  0  0  0
   44.4996   75.3819   31.0760 H   0  0  0  0  0  0  0  0  0  0  0  0
   44.6438   77.5054   32.4784 H   0  0  0  0  0  0  0  0  0  0  0  0
   43.9666   78.0263   30.9851 H   0  0  0  0  0  0  0  0  0  0  0  0
   42.4588   78.4881   33.1469 H   0  0  0  0  0  0  0  0  0  0  0  0
   41.5773   77.6455   31.9013 H   0  0  0  0  0  0  0  0  0  0  0  0
   41.3636   76.0515   33.6645 H   0  0  0  0  0  0  0  0  0  0  0  0
   42.8644   76.5455   34.4465 H   0  0  0  0  0  0  0  0  0  0  0  0
   47.2254   73.6061   29.2240 H   0  0  0  0  0  0  0  0  0  0  0  0
   45.0838   72.2609   29.4106 H   0  0  0  0  0  0  0  0  0  0  0  0
   50.0445   73.0016   31.6549 H   0  0  0  0  0  0  0  0  0  0  0  0
   52.1794   72.7863   32.9774 H   0  0  0  0  0  0  0  0  0  0  0  0
   52.7927   69.9201   35.2159 H   0  0  0  0  0  0  0  0  0  0  0  0
   53.4297   71.4493   34.5537 H   0  0  0  0  0  0  0  0  0  0  0  0
  1  6  2  0
  2  3  2  0
  2  1  1  0
  3  4  1  0
  4  5  2  0
  6  5  1  0
  6  7  1  0
  7  8  2  0
  8  9  1  0
 10  9  1  0
 11  7  1  0
 11 10  2  0
 12 10  1  0
 12 16  1  0
 13 14  1  0
 13 12  1  0
 14 15  1  0
 15 16  1  0
 17 18  2  0
 17 22  1  0
 18 19  1  0
 19  1  1  0
 19 20  2  0
 21 20  1  0
 21 23  1  0
 22 21  2  0
 23 29  1  0
 24 23  1  0
 24 25  2  0
 25 26  1  0
 26 28  2  0
 26 27  1  0
 29 30  2  0
 29 28  1  0
  2 31  1  0
  3 32  1  0
  4 33  1  0
  5 34  1  0
 13 35  1  0
 13 36  1  0
 14 37  1  0
 14 38  1  0
 15 39  1  0
 15 40  1  0
 16 41  1  0
 16 42  1  0
 17 43  1  0
 18 44  1  0
 24 45  1  0
 25 46  1  0
 27 47  1  0
 27 48  1  0
M  END
>  <Score>  (1) 
-7.48391

$$$$
