
     RDKit          3D

 46 50  0  0  0  0  0  0  0  0999 V2000
   44.7220   71.0600   31.0920 C   0  0  0  0  0  0  0  0  0  0  0  0
   44.2510   72.3380   31.4240 C   0  0  0  0  0  0  0  0  0  0  0  0
   45.0550   73.4420   31.1980 C   0  0  0  0  0  0  0  0  0  0  0  0
   46.2850   73.2560   30.6550 N   0  0  0  0  0  0  0  0  0  0  0  0
   46.7220   72.0170   30.3410 C   0  0  0  0  0  0  0  0  0  0  0  0
   45.9500   70.9480   30.5590 N   0  0  0  0  0  0  0  0  0  0  0  0
   44.5850   74.7690   31.5520 C   0  0  0  0  0  0  0  0  0  0  0  0
   45.4510   75.8410   31.3900 C   0  0  0  0  0  0  0  0  0  0  0  0
   44.8790   77.0550   31.7720 C   0  0  0  0  0  0  0  0  0  0  0  0
   43.6070   77.1900   32.2540 C   0  0  0  0  0  0  0  0  0  0  0  0
   42.8220   76.0800   32.3800 C   0  0  0  0  0  0  0  0  0  0  0  0
   43.3240   74.8610   32.0230 N   0  0  0  0  0  0  0  0  0  0  0  0
   41.4610   76.0620   32.8690 N   0  0  0  0  0  0  0  0  0  0  0  0
   40.9430   76.6550   33.9480 C   0  0  0  0  0  0  0  0  0  0  0  0
   39.6070   76.4980   34.2000 C   0  0  0  0  0  0  0  0  0  0  0  0
   38.7940   75.7370   33.3560 C   0  0  0  0  0  0  0  0  0  0  0  0
   37.5560   75.6220   33.6340 O   0  0  0  0  0  0  0  0  0  0  0  0
   39.3750   75.1650   32.2850 N   0  0  0  0  0  0  0  0  0  0  0  0
   40.6790   75.3170   32.0390 C   0  0  0  0  0  0  0  0  0  0  0  0
   41.0450   74.7150   31.0080 O   0  0  0  0  0  0  0  0  0  0  0  0
   43.9190   69.9080   31.3280 N   0  0  0  0  0  0  0  0  0  0  0  0
   44.2550   68.6730   30.9150 C   0  0  0  0  0  0  0  0  0  0  0  0
   43.1800   67.8670   31.3740 C   0  0  0  0  0  0  0  0  0  0  0  0
   42.2810   68.6520   32.0190 N   0  0  0  0  0  0  0  0  0  0  0  0
   42.7540   69.9400   31.9890 C   0  0  0  0  0  0  0  0  0  0  0  0
   41.8350   70.7760   32.6870 C   0  0  0  0  0  0  0  0  0  0  0  0
   42.2300   71.2010   33.9650 C   0  0  0  0  0  0  0  0  0  0  0  0
   41.3370   71.9460   34.7060 C   0  0  0  0  0  0  0  0  0  0  0  0
   40.1060   72.2390   34.1630 C   0  0  0  0  0  0  0  0  0  0  0  0
   39.7390   71.8020   32.8840 C   0  0  0  0  0  0  0  0  0  0  0  0
   40.6150   71.0500   32.1100 C   0  0  0  0  0  0  0  0  0  0  0  0
   43.2493   72.4627   31.8611 H   0  0  0  0  0  0  0  0  0  0  0  0
   47.7221   71.8867   29.9020 H   0  0  0  0  0  0  0  0  0  0  0  0
   46.4761   75.7444   31.0029 H   0  0  0  0  0  0  0  0  0  0  0  0
   45.4922   77.9635   31.6791 H   0  0  0  0  0  0  0  0  0  0  0  0
   43.2207   78.1804   32.5368 H   0  0  0  0  0  0  0  0  0  0  0  0
   41.5755   77.2555   34.6184 H   0  0  0  0  0  0  0  0  0  0  0  0
   39.1646   76.9803   35.0841 H   0  0  0  0  0  0  0  0  0  0  0  0
   38.8027   74.5989   31.6424 H   0  0  0  0  0  0  0  0  0  0  0  0
   45.1492   68.3616   30.3552 H   0  0  0  0  0  0  0  0  0  0  0  0
   43.0904   66.7802   31.2297 H   0  0  0  0  0  0  0  0  0  0  0  0
   43.2232   70.9471   34.3640 H   0  0  0  0  0  0  0  0  0  0  0  0
   41.6033   72.2999   35.7129 H   0  0  0  0  0  0  0  0  0  0  0  0
   39.3905   72.8332   34.7504 H   0  0  0  0  0  0  0  0  0  0  0  0
   38.7453   72.0570   32.4871 H   0  0  0  0  0  0  0  0  0  0  0  0
   40.3510   70.6968   31.1023 H   0  0  0  0  0  0  0  0  0  0  0  0
  1 21  1  0
  1  2  2  0
  3  2  1  0
  3  7  1  0
  4  3  2  0
  5  6  2  0
  5  4  1  0
  6  1  1  0
  7 12  1  0
  8  7  2  0
  8  9  1  0
  9 10  2  0
 10 11  1  0
 11 13  1  0
 12 11  2  0
 13 14  1  0
 14 15  2  0
 16 17  2  0
 16 15  1  0
 18 16  1  0
 19 18  1  0
 19 13  1  0
 20 19  2  0
 21 25  1  0
 22 21  1  0
 22 23  2  0
 23 24  1  0
 25 24  2  0
 25 26  1  0
 26 27  2  0
 27 28  1  0
 29 28  2  0
 30 29  1  0
 31 26  1  0
 31 30  2  0
  2 32  1  0
  5 33  1  0
  8 34  1  0
  9 35  1  0
 10 36  1  0
 14 37  1  0
 15 38  1  0
 18 39  1  0
 22 40  1  0
 23 41  1  0
 27 42  1  0
 28 43  1  0
 29 44  1  0
 30 45  1  0
 31 46  1  0
M  END
>  <Score>  (1) 
-7.12526

$$$$
