
     RDKit          3D

 51 56  0  0  0  0  0  0  0  0999 V2000
   44.5910   69.9500   31.1970 C   0  0  0  0  0  0  0  0  0  0  0  0
   44.5720   68.6900   30.6250 C   0  0  0  0  0  0  0  0  0  0  0  0
   43.4200   67.9060   30.6520 C   0  0  0  0  0  0  0  0  0  0  0  0
   42.2840   68.4280   31.2740 C   0  0  0  0  0  0  0  0  0  0  0  0
   42.2790   69.6840   31.8520 C   0  0  0  0  0  0  0  0  0  0  0  0
   43.4530   70.4250   31.7980 C   0  0  0  0  0  0  0  0  0  0  0  0
   43.4270   71.7450   32.4110 C   0  0  0  0  0  0  0  0  0  0  0  0
   43.4470   71.9140   33.7610 N   0  0  0  0  0  0  0  0  0  0  0  0
   43.4190   73.1720   34.0940 O   0  0  0  0  0  0  0  0  0  0  0  0
   43.3790   73.8830   32.9850 C   0  0  0  0  0  0  0  0  0  0  0  0
   43.3850   73.0070   31.9890 N   0  0  0  0  0  0  0  0  0  0  0  0
   43.3350   75.2400   32.6040 N   0  0  0  0  0  0  0  0  0  0  0  0
   44.0360   75.7250   31.3940 C   0  0  0  0  0  0  0  0  0  0  0  0
   44.3140   77.1880   31.7900 C   0  0  0  0  0  0  0  0  0  0  0  0
   42.9330   77.5400   32.3230 C   0  0  0  0  0  0  0  0  0  0  0  0
   42.6610   76.3650   33.2430 C   0  0  0  0  0  0  0  0  0  0  0  0
   47.2790   72.4250   30.2210 C   0  0  0  0  0  0  0  0  0  0  0  0
   46.0130   71.7710   30.2310 C   0  0  0  0  0  0  0  0  0  0  0  0
   45.8340   70.6760   31.1120 C   0  0  0  0  0  0  0  0  0  0  0  0
   46.8770   70.3140   31.8920 N   0  0  0  0  0  0  0  0  0  0  0  0
   48.0790   70.9700   31.8510 C   0  0  0  0  0  0  0  0  0  0  0  0
   48.2570   71.9930   31.0340 N   0  0  0  0  0  0  0  0  0  0  0  0
   49.1320   70.4890   32.7410 C   0  0  0  0  0  0  0  0  0  0  0  0
   49.1390   69.2640   33.3880 C   0  0  0  0  0  0  0  0  0  0  0  0
   50.2660   69.1840   34.1100 N   0  0  0  0  0  0  0  0  0  0  0  0
   50.9830   70.3300   33.9430 C   0  0  0  0  0  0  0  0  0  0  0  0
   52.2030   70.7730   34.4470 C   0  0  0  0  0  0  0  0  0  0  0  0
   52.7250   72.0030   34.1170 C   0  0  0  0  0  0  0  0  0  0  0  0
   52.0310   72.8550   33.2500 C   0  0  0  0  0  0  0  0  0  0  0  0
   50.8130   72.3910   32.7580 C   0  0  0  0  0  0  0  0  0  0  0  0
   50.2840   71.1670   33.0810 C   0  0  0  0  0  0  0  0  0  0  0  0
   45.4803   68.3012   30.1415 H   0  0  0  0  0  0  0  0  0  0  0  0
   43.4061   66.9049   30.1964 H   0  0  0  0  0  0  0  0  0  0  0  0
   41.3663   67.8223   31.3050 H   0  0  0  0  0  0  0  0  0  0  0  0
   41.3764   70.0829   32.3380 H   0  0  0  0  0  0  0  0  0  0  0  0
   43.3954   75.6615   30.5020 H   0  0  0  0  0  0  0  0  0  0  0  0
   44.9324   75.1475   31.1241 H   0  0  0  0  0  0  0  0  0  0  0  0
   45.0907   77.2678   32.5649 H   0  0  0  0  0  0  0  0  0  0  0  0
   44.6977   77.8365   30.9886 H   0  0  0  0  0  0  0  0  0  0  0  0
   42.9453   78.4905   32.8766 H   0  0  0  0  0  0  0  0  0  0  0  0
   42.1724   77.6859   31.5418 H   0  0  0  0  0  0  0  0  0  0  0  0
   41.5804   76.1762   33.3241 H   0  0  0  0  0  0  0  0  0  0  0  0
   43.0209   76.5424   34.2672 H   0  0  0  0  0  0  0  0  0  0  0  0
   47.4545   73.2794   29.5508 H   0  0  0  0  0  0  0  0  0  0  0  0
   45.1977   72.1068   29.5733 H   0  0  0  0  0  0  0  0  0  0  0  0
   48.3575   68.4927   33.3212 H   0  0  0  0  0  0  0  0  0  0  0  0
   50.5447   68.3845   34.6966 H   0  0  0  0  0  0  0  0  0  0  0  0
   52.7667   70.1201   35.1296 H   0  0  0  0  0  0  0  0  0  0  0  0
   53.6919   72.3179   34.5365 H   0  0  0  0  0  0  0  0  0  0  0  0
   52.4278   73.8423   32.9709 H   0  0  0  0  0  0  0  0  0  0  0  0
   50.2457   73.0400   32.0747 H   0  0  0  0  0  0  0  0  0  0  0  0
  1  6  2  0
  2  3  2  0
  2  1  1  0
  3  4  1  0
  4  5  2  0
  6  5  1  0
  6  7  1  0
  7  8  2  0
  8  9  1  0
 10  9  1  0
 11  7  1  0
 11 10  2  0
 12 10  1  0
 12 16  1  0
 13 14  1  0
 13 12  1  0
 14 15  1  0
 15 16  1  0
 17 18  2  0
 17 22  1  0
 18 19  1  0
 19  1  1  0
 19 20  2  0
 21 20  1  0
 21 23  1  0
 22 21  2  0
 23 31  1  0
 23 24  2  0
 24 25  1  0
 26 25  1  0
 26 27  2  0
 28 27  1  0
 29 28  2  0
 30 31  2  0
 30 29  1  0
 31 26  1  0
  2 32  1  0
  3 33  1  0
  4 34  1  0
  5 35  1  0
 13 36  1  0
 13 37  1  0
 14 38  1  0
 14 39  1  0
 15 40  1  0
 15 41  1  0
 16 42  1  0
 16 43  1  0
 17 44  1  0
 18 45  1  0
 24 46  1  0
 25 47  1  0
 27 48  1  0
 28 49  1  0
 29 50  1  0
 30 51  1  0
M  END
>  <Score>  (1) 
-7.39705

$$$$
