
     RDKit          3D

 48 53  0  0  0  0  0  0  0  0999 V2000
   46.7730   73.2820   30.3950 C   0  0  0  0  0  0  0  0  0  0  0  0
   45.5130   73.2500   31.0310 C   0  0  0  0  0  0  0  0  0  0  0  0
   44.8570   72.0170   31.1640 C   0  0  0  0  0  0  0  0  0  0  0  0
   45.4690   70.9080   30.6710 N   0  0  0  0  0  0  0  0  0  0  0  0
   46.6740   70.9990   30.0720 C   0  0  0  0  0  0  0  0  0  0  0  0
   47.3140   72.1710   29.9370 N   0  0  0  0  0  0  0  0  0  0  0  0
   44.9490   74.5190   31.5210 C   0  0  0  0  0  0  0  0  0  0  0  0
   45.6850   75.7060   31.3990 C   0  0  0  0  0  0  0  0  0  0  0  0
   44.5650   76.9820   32.1420 S   0  0  0  0  0  0  0  0  0  0  0  0
   43.2780   75.6240   32.4860 C   0  0  0  0  0  0  0  0  0  0  0  0
   43.7900   74.7270   32.0880 N   0  0  0  0  0  0  0  0  0  0  0  0
   42.0040   75.8540   33.1100 N   0  0  0  0  0  0  0  0  0  0  0  0
   41.4370   77.1490   33.3390 C   0  0  0  0  0  0  0  0  0  0  0  0
   40.3620   76.9520   34.4030 C   0  0  0  0  0  0  0  0  0  0  0  0
   39.3720   76.0750   34.0000 O   0  0  0  0  0  0  0  0  0  0  0  0
   39.8010   74.9910   33.2910 C   0  0  0  0  0  0  0  0  0  0  0  0
   41.2650   74.6830   33.5250 C   0  0  0  0  0  0  0  0  0  0  0  0
   47.2590   69.7630   29.5630 C   0  0  0  0  0  0  0  0  0  0  0  0
   48.5050   69.4460   29.2110 N   0  0  0  0  0  0  0  0  0  0  0  0
   48.5740   68.2140   28.8040 O   0  0  0  0  0  0  0  0  0  0  0  0
   47.3670   67.6710   28.8750 C   0  0  0  0  0  0  0  0  0  0  0  0
   46.5840   68.6370   29.3410 N   0  0  0  0  0  0  0  0  0  0  0  0
   47.1650   66.2910   28.4750 C   0  0  0  0  0  0  0  0  0  0  0  0
   45.9330   65.7900   28.3120 N   0  0  0  0  0  0  0  0  0  0  0  0
   45.6480   64.5340   27.9470 C   0  0  0  0  0  0  0  0  0  0  0  0
   46.6560   63.6480   27.7070 N   0  0  0  0  0  0  0  0  0  0  0  0
   47.9530   64.0570   27.8450 C   0  0  0  0  0  0  0  0  0  0  0  0
   49.0010   63.1920   27.6130 C   0  0  0  0  0  0  0  0  0  0  0  0
   50.3110   63.5900   27.7480 C   0  0  0  0  0  0  0  0  0  0  0  0
   50.5310   64.9160   28.1320 C   0  0  0  0  0  0  0  0  0  0  0  0
   49.4510   65.7370   28.3520 C   0  0  0  0  0  0  0  0  0  0  0  0
   48.1500   65.3660   28.2250 C   0  0  0  0  0  0  0  0  0  0  0  0
   47.3052   74.2379   30.2813 H   0  0  0  0  0  0  0  0  0  0  0  0
   43.8744   71.9496   31.6538 H   0  0  0  0  0  0  0  0  0  0  0  0
   46.6865   75.8463   30.9663 H   0  0  0  0  0  0  0  0  0  0  0  0
   42.2081   77.8462   33.6985 H   0  0  0  0  0  0  0  0  0  0  0  0
   41.0182   77.5757   32.4157 H   0  0  0  0  0  0  0  0  0  0  0  0
   40.8353   76.5554   35.3133 H   0  0  0  0  0  0  0  0  0  0  0  0
   39.8894   77.9284   34.5851 H   0  0  0  0  0  0  0  0  0  0  0  0
   39.6497   75.1887   32.2195 H   0  0  0  0  0  0  0  0  0  0  0  0
   39.2197   74.1207   33.6296 H   0  0  0  0  0  0  0  0  0  0  0  0
   41.5696   73.8106   32.9282 H   0  0  0  0  0  0  0  0  0  0  0  0
   41.4569   74.4463   34.5819 H   0  0  0  0  0  0  0  0  0  0  0  0
   44.6001   64.2167   27.8407 H   0  0  0  0  0  0  0  0  0  0  0  0
   48.7842   62.1564   27.3121 H   0  0  0  0  0  0  0  0  0  0  0  0
   51.1455   62.8978   27.5626 H   0  0  0  0  0  0  0  0  0  0  0  0
   51.5552   65.2974   28.2565 H   0  0  0  0  0  0  0  0  0  0  0  0
   49.6556   66.7747   28.6543 H   0  0  0  0  0  0  0  0  0  0  0  0
  1  2  2  0
  2  3  1  0
  2  7  1  0
  4  3  2  0
  5  4  1  0
  6  5  2  0
  6  1  1  0
  7 11  1  0
  8  7  2  0
  8  9  1  0
  9 10  1  0
 10 12  1  0
 11 10  2  0
 12 13  1  0
 12 17  1  0
 13 14  1  0
 15 14  1  0
 16 17  1  0
 16 15  1  0
 18  5  1  0
 19 18  2  0
 20 21  1  0
 20 19  1  0
 21 22  2  0
 22 18  1  0
 23 21  1  0
 24 23  2  0
 25 24  1  0
 26 27  1  0
 26 25  2  0
 27 32  2  0
 28 29  2  0
 28 27  1  0
 29 30  1  0
 30 31  2  0
 32 31  1  0
 32 23  1  0
  1 33  1  0
  3 34  1  0
  8 35  1  0
 13 36  1  0
 13 37  1  0
 14 38  1  0
 14 39  1  0
 16 40  1  0
 16 41  1  0
 17 42  1  0
 17 43  1  0
 25 44  1  0
 28 45  1  0
 29 46  1  0
 30 47  1  0
 31 48  1  0
M  END
>  <Score>  (1) 
-7.08824

$$$$
