
     RDKit          3D

 43 47  0  0  0  0  0  0  0  0999 V2000
   44.7850   71.1690   31.0850 C   0  0  0  0  0  0  0  0  0  0  0  0
   44.3050   72.4420   31.4550 C   0  0  0  0  0  0  0  0  0  0  0  0
   45.0580   73.5610   31.1760 C   0  0  0  0  0  0  0  0  0  0  0  0
   46.2500   73.3940   30.5460 N   0  0  0  0  0  0  0  0  0  0  0  0
   46.6950   72.1720   30.2000 C   0  0  0  0  0  0  0  0  0  0  0  0
   45.9610   71.0830   30.4730 N   0  0  0  0  0  0  0  0  0  0  0  0
   44.5800   74.8720   31.5530 C   0  0  0  0  0  0  0  0  0  0  0  0
   45.4310   75.9540   31.4080 C   0  0  0  0  0  0  0  0  0  0  0  0
   44.8540   77.1550   31.8060 C   0  0  0  0  0  0  0  0  0  0  0  0
   43.5850   77.2730   32.2890 C   0  0  0  0  0  0  0  0  0  0  0  0
   42.8020   76.1540   32.4030 C   0  0  0  0  0  0  0  0  0  0  0  0
   43.3180   74.9460   32.0270 N   0  0  0  0  0  0  0  0  0  0  0  0
   41.4500   76.1140   32.8890 N   0  0  0  0  0  0  0  0  0  0  0  0
   40.9200   76.6750   33.9770 C   0  0  0  0  0  0  0  0  0  0  0  0
   39.5900   76.5030   34.2310 C   0  0  0  0  0  0  0  0  0  0  0  0
   38.7860   75.7620   33.3840 C   0  0  0  0  0  0  0  0  0  0  0  0
   37.5500   75.6180   33.6480 O   0  0  0  0  0  0  0  0  0  0  0  0
   39.3550   75.2020   32.2830 N   0  0  0  0  0  0  0  0  0  0  0  0
   40.6660   75.3810   32.0490 C   0  0  0  0  0  0  0  0  0  0  0  0
   41.0380   74.8040   30.9990 O   0  0  0  0  0  0  0  0  0  0  0  0
   44.0000   70.0000   31.3230 N   0  0  0  0  0  0  0  0  0  0  0  0
   44.3690   68.7740   30.8970 C   0  0  0  0  0  0  0  0  0  0  0  0
   43.2840   67.9580   31.3040 C   0  0  0  0  0  0  0  0  0  0  0  0
   42.3550   68.7250   31.9340 N   0  0  0  0  0  0  0  0  0  0  0  0
   42.8090   70.0210   31.9470 C   0  0  0  0  0  0  0  0  0  0  0  0
   41.9150   70.8750   32.6270 C   0  0  0  0  0  0  0  0  0  0  0  0
   40.6240   70.8930   32.0510 C   0  0  0  0  0  0  0  0  0  0  0  0
   39.8070   71.7670   32.7840 C   0  0  0  0  0  0  0  0  0  0  0  0
   40.7030   72.2100   33.7640 C   0  0  0  0  0  0  0  0  0  0  0  0
   41.8990   71.6840   33.6500 O   0  0  0  0  0  0  0  0  0  0  0  0
   43.3347   72.5409   31.9636 H   0  0  0  0  0  0  0  0  0  0  0  0
   47.6645   72.0658   29.6913 H   0  0  0  0  0  0  0  0  0  0  0  0
   46.4565   75.8724   31.0186 H   0  0  0  0  0  0  0  0  0  0  0  0
   45.4610   78.0689   31.7258 H   0  0  0  0  0  0  0  0  0  0  0  0
   43.1929   78.2573   32.5846 H   0  0  0  0  0  0  0  0  0  0  0  0
   41.5461   77.2680   34.6600 H   0  0  0  0  0  0  0  0  0  0  0  0
   39.1487   76.9630   35.1274 H   0  0  0  0  0  0  0  0  0  0  0  0
   38.7842   74.6438   31.6322 H   0  0  0  0  0  0  0  0  0  0  0  0
   45.2859   68.4803   30.3650 H   0  0  0  0  0  0  0  0  0  0  0  0
   43.2058   66.8737   31.1364 H   0  0  0  0  0  0  0  0  0  0  0  0
   40.3103   70.3146   31.1695 H   0  0  0  0  0  0  0  0  0  0  0  0
   38.7505   72.0319   32.6304 H   0  0  0  0  0  0  0  0  0  0  0  0
   40.4310   72.9281   34.5516 H   0  0  0  0  0  0  0  0  0  0  0  0
  1 21  1  0
  1  2  2  0
  3  2  1  0
  3  7  1  0
  4  3  2  0
  5  6  2  0
  5  4  1  0
  6  1  1  0
  7 12  1  0
  8  7  2  0
  8  9  1  0
  9 10  2  0
 10 11  1  0
 11 13  1  0
 12 11  2  0
 13 14  1  0
 14 15  2  0
 16 17  2  0
 16 15  1  0
 18 16  1  0
 19 18  1  0
 19 13  1  0
 20 19  2  0
 21 25  1  0
 22 23  2  0
 22 21  1  0
 23 24  1  0
 24 25  2  0
 25 26  1  0
 26 30  1  0
 27 26  2  0
 27 28  1  0
 28 29  2  0
 30 29  1  0
  2 31  1  0
  5 32  1  0
  8 33  1  0
  9 34  1  0
 10 35  1  0
 14 36  1  0
 15 37  1  0
 18 38  1  0
 22 39  1  0
 23 40  1  0
 27 41  1  0
 28 42  1  0
 29 43  1  0
M  END
>  <Score>  (1) 
-7.05512

$$$$
