
     RDKit          3D

 54 59  0  0  1  0  0  0  0  0999 V2000
   41.8480   71.2740   32.9450 C   0  0  2  0  0  0  0  0  0  0  0  0
   45.0190   70.6370   31.1950 C   0  0  0  0  0  0  0  0  0  0  0  0
   44.9000   69.2800   30.7850 C   0  0  0  0  0  0  0  0  0  0  0  0
   43.7070   68.5960   31.1310 C   0  0  0  0  0  0  0  0  0  0  0  0
   42.7540   69.2790   31.8310 N   0  0  0  0  0  0  0  0  0  0  0  0
   42.9320   70.5990   32.2010 C   0  0  0  0  0  0  0  0  0  0  0  0
   44.0330   71.2260   31.8800 N   0  0  0  0  0  0  0  0  0  0  0  0
   46.2430   71.3110   30.8210 C   0  0  0  0  0  0  0  0  0  0  0  0
   46.5480   72.0730   29.7080 C   0  0  0  0  0  0  0  0  0  0  0  0
   47.8030   72.5180   29.7500 N   0  0  0  0  0  0  0  0  0  0  0  0
   48.3520   72.0440   30.9150 C   0  0  0  0  0  0  0  0  0  0  0  0
   49.6240   72.2380   31.3990 C   0  0  0  0  0  0  0  0  0  0  0  0
   49.9850   71.6590   32.6260 C   0  0  0  0  0  0  0  0  0  0  0  0
   49.0250   70.9130   33.2930 C   0  0  0  0  0  0  0  0  0  0  0  0
   47.7580   70.7380   32.7790 C   0  0  0  0  0  0  0  0  0  0  0  0
   47.3950   71.2980   31.5840 C   0  0  0  0  0  0  0  0  0  0  0  0
   40.8430   70.2240   33.3540 C   0  0  0  0  0  0  0  0  0  0  0  0
   41.1150   72.2980   32.1090 C   0  0  0  0  0  0  0  0  0  0  0  0
   41.8220   73.6210   32.1070 C   0  0  0  0  0  0  0  0  0  0  0  0
   41.1050   74.6420   31.4750 C   0  0  0  0  0  0  0  0  0  0  0  0
   41.8950   75.7880   31.5630 C   0  0  0  0  0  0  0  0  0  0  0  0
   42.9930   75.4530   32.2020 N   0  0  0  0  0  0  0  0  0  0  0  0
   42.9760   74.1810   32.5360 N   0  0  0  0  0  0  0  0  0  0  0  0
   44.0960   76.2940   32.5300 C   0  0  0  0  0  0  0  0  0  0  0  0
   45.1610   76.4510   31.6480 C   0  0  0  0  0  0  0  0  0  0  0  0
   46.0730   77.3020   32.2020 N   0  0  0  0  0  0  0  0  0  0  0  0
   45.6090   77.6870   33.4130 C   0  0  0  0  0  0  0  0  0  0  0  0
   46.0880   78.5240   34.4190 C   0  0  0  0  0  0  0  0  0  0  0  0
   45.3340   78.6860   35.5410 C   0  0  0  0  0  0  0  0  0  0  0  0
   44.1010   78.0760   35.7780 C   0  0  0  0  0  0  0  0  0  0  0  0
   43.6390   77.2480   34.7710 C   0  0  0  0  0  0  0  0  0  0  0  0
   44.3900   77.0740   33.6300 C   0  0  0  0  0  0  0  0  0  0  0  0
   42.3031   71.7919   33.8021 H   0  0  0  0  0  0  0  0  0  0  0  0
   45.7021   68.7808   30.2216 H   0  0  0  0  0  0  0  0  0  0  0  0
   43.5536   67.5453   30.8437 H   0  0  0  0  0  0  0  0  0  0  0  0
   45.8430   72.2850   28.8907 H   0  0  0  0  0  0  0  0  0  0  0  0
   48.2709   73.1045   29.0444 H   0  0  0  0  0  0  0  0  0  0  0  0
   50.3499   72.8394   30.8320 H   0  0  0  0  0  0  0  0  0  0  0  0
   50.9939   71.7924   33.0436 H   0  0  0  0  0  0  0  0  0  0  0  0
   49.2811   70.4490   34.2569 H   0  0  0  0  0  0  0  0  0  0  0  0
   47.0258   70.1378   33.3390 H   0  0  0  0  0  0  0  0  0  0  0  0
   40.7932   70.1720   34.4516 H   0  0  0  0  0  0  0  0  0  0  0  0
   39.8530   70.4886   32.9542 H   0  0  0  0  0  0  0  0  0  0  0  0
   41.1507   69.2465   32.9542 H   0  0  0  0  0  0  0  0  0  0  0  0
   41.0448   71.9297   31.0749 H   0  0  0  0  0  0  0  0  0  0  0  0
   40.1153   72.4440   32.5441 H   0  0  0  0  0  0  0  0  0  0  0  0
   40.1152   74.5579   31.0026 H   0  0  0  0  0  0  0  0  0  0  0  0
   41.6456   76.7851   31.1710 H   0  0  0  0  0  0  0  0  0  0  0  0
   45.2529   75.9677   30.6641 H   0  0  0  0  0  0  0  0  0  0  0  0
   46.9606   77.5995   31.7725 H   0  0  0  0  0  0  0  0  0  0  0  0
   47.0524   79.0415   34.3092 H   0  0  0  0  0  0  0  0  0  0  0  0
   45.7281   79.3510   36.3236 H   0  0  0  0  0  0  0  0  0  0  0  0
   43.5336   78.2430   36.7055 H   0  0  0  0  0  0  0  0  0  0  0  0
   42.6748   76.7302   34.8813 H   0  0  0  0  0  0  0  0  0  0  0  0
  1 17  1  0
  2  7  2  0
  3  4  2  0
  3  2  1  0
  4  5  1  0
  5  6  2  0
  6  1  1  0
  7  6  1  0
  8  2  1  0
  8 16  1  0
  9 10  1  0
  9  8  2  0
 10 11  1  0
 11 12  1  0
 11 16  2  0
 12 13  2  0
 13 14  1  0
 15 14  2  0
 16 15  1  0
 18  1  1  0
 19 18  1  0
 19 23  2  0
 20 21  2  0
 20 19  1  0
 21 22  1  0
 22 24  1  0
 22 23  1  0
 24 32  1  0
 25 26  1  0
 25 24  2  0
 26 27  1  0
 27 32  2  0
 27 28  1  0
 28 29  2  0
 29 30  1  0
 31 30  2  0
 32 31  1  0
  1 33  1  1
  3 34  1  0
  4 35  1  0
  9 36  1  0
 10 37  1  0
 12 38  1  0
 13 39  1  0
 14 40  1  0
 15 41  1  0
 17 42  1  0
 17 43  1  0
 17 44  1  0
 18 45  1  0
 18 46  1  0
 20 47  1  0
 21 48  1  0
 25 49  1  0
 26 50  1  0
 28 51  1  0
 29 52  1  0
 30 53  1  0
 31 54  1  0
M  END
>  <Score>  (1) 
-7.07705

$$$$
