
     RDKit          3D

 56 61  0  0  1  0  0  0  0  0999 V2000
   49.1240   66.2890   29.7180 C   0  0  0  0  0  0  0  0  0  0  0  0
   47.6170   69.3330   31.1360 C   0  0  0  0  0  0  0  0  0  0  0  0
   47.1410   70.0080   30.0660 C   0  0  0  0  0  0  0  0  0  0  0  0
   47.3440   69.4130   28.8450 C   0  0  0  0  0  0  0  0  0  0  0  0
   47.9860   68.2230   28.7790 N   0  0  0  0  0  0  0  0  0  0  0  0
   48.4340   67.5950   29.8420 C   0  0  0  0  0  0  0  0  0  0  0  0
   48.2620   68.1320   31.0410 N   0  0  0  0  0  0  0  0  0  0  0  0
   46.4510   71.2760   30.3070 C   0  0  2  0  0  0  0  0  0  0  0  0
   47.2960   72.3390   30.2180 N   0  0  0  0  0  0  0  0  0  0  0  0
   46.9150   73.5890   30.5280 C   0  0  0  0  0  0  0  0  0  0  0  0
   45.6780   73.8310   31.1050 N   0  0  0  0  0  0  0  0  0  0  0  0
   44.8890   72.7560   31.3530 C   0  0  0  0  0  0  0  0  0  0  0  0
   43.6800   72.8960   31.9650 C   0  0  0  0  0  0  0  0  0  0  0  0
   42.9020   71.7710   32.2650 C   0  0  0  0  0  0  0  0  0  0  0  0
   43.3600   70.4970   31.9400 C   0  0  0  0  0  0  0  0  0  0  0  0
   44.5910   70.3680   31.3160 C   0  0  0  0  0  0  0  0  0  0  0  0
   45.3090   71.5000   31.0440 C   0  0  0  0  0  0  0  0  0  0  0  0
   49.4560   65.9860   28.2540 C   0  0  0  0  0  0  0  0  0  0  0  0
   48.4890   65.0690   27.6390 C   0  0  0  0  0  0  0  0  0  0  0  0
   48.8480   64.4580   26.4540 C   0  0  0  0  0  0  0  0  0  0  0  0
   47.9490   63.5840   25.8610 C   0  0  0  0  0  0  0  0  0  0  0  0
   46.7800   63.3540   26.4370 N   0  0  0  0  0  0  0  0  0  0  0  0
   46.3860   63.9310   27.5980 C   0  0  0  0  0  0  0  0  0  0  0  0
   47.2990   64.7840   28.1480 N   0  0  0  0  0  0  0  0  0  0  0  0
   45.1820   63.8470   28.4180 C   0  0  0  0  0  0  0  0  0  0  0  0
   44.5980   62.6840   28.7930 N   0  0  0  0  0  0  0  0  0  0  0  0
   43.5020   62.5940   29.5380 C   0  0  0  0  0  0  0  0  0  0  0  0
   42.8790   63.6960   29.9870 N   0  0  0  0  0  0  0  0  0  0  0  0
   43.3630   64.9350   29.6820 C   0  0  0  0  0  0  0  0  0  0  0  0
   42.7230   66.0520   30.1410 C   0  0  0  0  0  0  0  0  0  0  0  0
   43.2070   67.2930   29.8350 C   0  0  0  0  0  0  0  0  0  0  0  0
   44.3530   67.3710   29.0550 C   0  0  0  0  0  0  0  0  0  0  0  0
   44.9480   66.2060   28.6250 C   0  0  0  0  0  0  0  0  0  0  0  0
   44.5000   64.9390   28.9060 C   0  0  0  0  0  0  0  0  0  0  0  0
   50.0565   66.3170   30.3009 H   0  0  0  0  0  0  0  0  0  0  0  0
   48.4579   65.5008   30.0988 H   0  0  0  0  0  0  0  0  0  0  0  0
   47.4780   69.7730   32.1345 H   0  0  0  0  0  0  0  0  0  0  0  0
   46.3522   69.2663   28.3924 H   0  0  0  0  0  0  0  0  0  0  0  0
   48.0302   70.1039   28.3334 H   0  0  0  0  0  0  0  0  0  0  0  0
   48.6077   67.6535   31.8851 H   0  0  0  0  0  0  0  0  0  0  0  0
   45.7449   71.0686   29.4894 H   0  0  0  0  0  0  0  0  0  0  0  0
   47.5925   74.4307   30.3216 H   0  0  0  0  0  0  0  0  0  0  0  0
   45.3710   74.7868   31.3356 H   0  0  0  0  0  0  0  0  0  0  0  0
   43.3124   73.8996   32.2253 H   0  0  0  0  0  0  0  0  0  0  0  0
   41.9267   71.8941   32.7586 H   0  0  0  0  0  0  0  0  0  0  0  0
   42.7555   69.6083   32.1743 H   0  0  0  0  0  0  0  0  0  0  0  0
   44.9822   69.3762   31.0453 H   0  0  0  0  0  0  0  0  0  0  0  0
   49.4562   66.9299   27.6892 H   0  0  0  0  0  0  0  0  0  0  0  0
   50.4425   65.5001   28.2275 H   0  0  0  0  0  0  0  0  0  0  0  0
   49.8250   64.6598   25.9907 H   0  0  0  0  0  0  0  0  0  0  0  0
   48.2067   63.0840   24.9157 H   0  0  0  0  0  0  0  0  0  0  0  0
   43.0986   61.6024   29.7910 H   0  0  0  0  0  0  0  0  0  0  0  0
   41.8174   65.9521   30.7574 H   0  0  0  0  0  0  0  0  0  0  0  0
   42.7039   68.2023   30.1957 H   0  0  0  0  0  0  0  0  0  0  0  0
   44.7791   68.3484   28.7847 H   0  0  0  0  0  0  0  0  0  0  0  0
   45.8538   66.2977   28.0076 H   0  0  0  0  0  0  0  0  0  0  0  0
  1  6  1  0
  3  8  1  0
  3  2  2  0
  4  3  1  0
  5  4  1  0
  5  6  2  0
  6  7  1  0
  7  2  1  0
  8 17  1  0
  9  8  1  0
  9 10  2  0
 10 11  1  0
 11 12  1  0
 12 13  2  0
 13 14  1  0
 15 14  2  0
 16 15  1  0
 17 16  2  0
 17 12  1  0
 18  1  1  0
 19 24  1  0
 19 18  1  0
 20 19  2  0
 21 22  2  0
 21 20  1  0
 22 23  1  0
 23 24  2  0
 23 25  1  0
 25 26  2  0
 25 34  1  0
 26 27  1  0
 27 28  2  0
 29 28  1  0
 29 30  2  0
 31 30  1  0
 32 31  2  0
 33 34  2  0
 33 32  1  0
 34 29  1  0
  1 35  1  0
  1 36  1  0
  2 37  1  0
  4 38  1  0
  4 39  1  0
  7 40  1  0
  8 41  1  6
 10 42  1  0
 11 43  1  0
 13 44  1  0
 14 45  1  0
 15 46  1  0
 16 47  1  0
 18 48  1  0
 18 49  1  0
 20 50  1  0
 21 51  1  0
 27 52  1  0
 30 53  1  0
 31 54  1  0
 32 55  1  0
 33 56  1  0
M  END
>  <Score>  (1) 
-7.12496

$$$$
