
     RDKit          3D

 51 57  0  0  0  0  0  0  0  0999 V2000
   49.4400   71.0610   32.5680 C   0  0  0  0  0  0  0  0  0  0  0  0
   49.5740   69.8970   33.3350 C   0  0  0  0  0  0  0  0  0  0  0  0
   50.7170   69.8470   34.1150 C   0  0  0  0  0  0  0  0  0  0  0  0
   51.5900   70.8840   34.0840 C   0  0  0  0  0  0  0  0  0  0  0  0
   50.9240   72.0580   32.9620 S   0  0  0  0  0  0  0  0  0  0  0  0
   47.1760   72.5680   30.0350 C   0  0  0  0  0  0  0  0  0  0  0  0
   46.0820   71.6930   30.0350 C   0  0  0  0  0  0  0  0  0  0  0  0
   46.1400   70.6260   30.8840 C   0  0  0  0  0  0  0  0  0  0  0  0
   47.2530   70.4790   31.6750 N   0  0  0  0  0  0  0  0  0  0  0  0
   48.2780   71.3300   31.6510 C   0  0  0  0  0  0  0  0  0  0  0  0
   48.2410   72.3750   30.8310 N   0  0  0  0  0  0  0  0  0  0  0  0
   45.0400   69.7060   30.9160 N   0  0  0  0  0  0  0  0  0  0  0  0
   43.9930   69.8670   31.7790 C   0  0  0  0  0  0  0  0  0  0  0  0
   43.1210   68.8530   31.5740 N   0  0  0  0  0  0  0  0  0  0  0  0
   43.5920   68.0730   30.6180 C   0  0  0  0  0  0  0  0  0  0  0  0
   43.2170   66.9020   29.9520 C   0  0  0  0  0  0  0  0  0  0  0  0
   43.9450   66.3490   28.9610 N   0  0  0  0  0  0  0  0  0  0  0  0
   45.1110   66.9170   28.5990 C   0  0  0  0  0  0  0  0  0  0  0  0
   45.5380   68.0330   29.2100 N   0  0  0  0  0  0  0  0  0  0  0  0
   44.8000   68.5990   30.1930 C   0  0  0  0  0  0  0  0  0  0  0  0
   52.8250   71.0470   34.8000 C   0  0  0  0  0  0  0  0  0  0  0  0
   54.0740   71.1480   34.2730 C   0  0  0  0  0  0  0  0  0  0  0  0
   54.9650   71.2950   35.3360 C   0  0  0  0  0  0  0  0  0  0  0  0
   54.2100   71.2780   36.4580 N   0  0  0  0  0  0  0  0  0  0  0  0
   52.9250   71.1280   36.1390 N   0  0  0  0  0  0  0  0  0  0  0  0
   54.7920   71.4060   37.7510 C   0  0  0  0  0  0  0  0  0  0  0  0
   55.5060   72.5640   38.0560 C   0  0  0  0  0  0  0  0  0  0  0  0
   55.9610   72.4610   39.3270 N   0  0  0  0  0  0  0  0  0  0  0  0
   55.5630   71.2780   39.8530 C   0  0  0  0  0  0  0  0  0  0  0  0
   55.7360   70.6690   41.0700 C   0  0  0  0  0  0  0  0  0  0  0  0
   55.1760   69.4190   41.2710 C   0  0  0  0  0  0  0  0  0  0  0  0
   54.4530   68.7750   40.2840 C   0  0  0  0  0  0  0  0  0  0  0  0
   54.2730   69.3920   39.0410 C   0  0  0  0  0  0  0  0  0  0  0  0
   54.8430   70.6300   38.8780 C   0  0  0  0  0  0  0  0  0  0  0  0
   48.8303   69.0867   33.3191 H   0  0  0  0  0  0  0  0  0  0  0  0
   50.9150   68.9738   34.7540 H   0  0  0  0  0  0  0  0  0  0  0  0
   47.1627   73.4390   29.3633 H   0  0  0  0  0  0  0  0  0  0  0  0
   45.2143   71.8586   29.3795 H   0  0  0  0  0  0  0  0  0  0  0  0
   43.8790   70.6790   32.5122 H   0  0  0  0  0  0  0  0  0  0  0  0
   43.1282   66.1283   30.7289 H   0  0  0  0  0  0  0  0  0  0  0  0
   42.3256   67.2403   29.4035 H   0  0  0  0  0  0  0  0  0  0  0  0
   45.7159   66.4645   27.7994 H   0  0  0  0  0  0  0  0  0  0  0  0
   46.4319   68.4609   28.9293 H   0  0  0  0  0  0  0  0  0  0  0  0
   54.3342   71.1191   33.2046 H   0  0  0  0  0  0  0  0  0  0  0  0
   56.0580   71.4027   35.2744 H   0  0  0  0  0  0  0  0  0  0  0  0
   55.6714   73.4156   37.3797 H   0  0  0  0  0  0  0  0  0  0  0  0
   56.5224   73.1717   39.8176 H   0  0  0  0  0  0  0  0  0  0  0  0
   56.3076   71.1634   41.8692 H   0  0  0  0  0  0  0  0  0  0  0  0
   55.3101   68.9238   42.2441 H   0  0  0  0  0  0  0  0  0  0  0  0
   54.0210   67.7816   40.4751 H   0  0  0  0  0  0  0  0  0  0  0  0
   53.7027   68.9086   38.2341 H   0  0  0  0  0  0  0  0  0  0  0  0
  1  5  1  0
  1  2  2  0
  2  3  1  0
  4  3  2  0
  4 21  1  0
  5  4  1  0
  6 11  2  0
  7  6  1  0
  7  8  2  0
  8 12  1  0
  8  9  1  0
 10  9  2  0
 10  1  1  0
 11 10  1  0
 12 13  1  0
 14 13  2  0
 15 14  1  0
 16 15  1  0
 17 16  1  0
 18 17  2  0
 18 19  1  0
 19 20  1  0
 20 15  2  0
 20 12  1  0
 21 25  2  0
 22 21  1  0
 22 23  2  0
 23 24  1  0
 24 26  1  0
 25 24  1  0
 26 27  2  0
 26 34  1  0
 27 28  1  0
 28 29  1  0
 29 30  2  0
 30 31  1  0
 32 31  2  0
 33 32  1  0
 34 33  2  0
 34 29  1  0
  2 35  1  0
  3 36  1  0
  6 37  1  0
  7 38  1  0
 13 39  1  0
 16 40  1  0
 16 41  1  0
 18 42  1  0
 19 43  1  0
 22 44  1  0
 23 45  1  0
 27 46  1  0
 28 47  1  0
 30 48  1  0
 31 49  1  0
 32 50  1  0
 33 51  1  0
M  END
>  <Score>  (1) 
-7.00652

$$$$
