
     RDKit          3D

 53 58  0  0  0  0  0  0  0  0999 V2000
   44.6280   69.9810   31.1840 C   0  0  0  0  0  0  0  0  0  0  0  0
   44.6080   68.7290   30.5980 C   0  0  0  0  0  0  0  0  0  0  0  0
   43.4470   67.9390   30.6570 C   0  0  0  0  0  0  0  0  0  0  0  0
   42.3380   68.4460   31.3120 C   0  0  0  0  0  0  0  0  0  0  0  0
   42.3350   69.6980   31.9050 C   0  0  0  0  0  0  0  0  0  0  0  0
   43.5050   70.4380   31.8200 C   0  0  0  0  0  0  0  0  0  0  0  0
   43.4810   71.7510   32.4550 C   0  0  0  0  0  0  0  0  0  0  0  0
   43.6040   71.9130   33.7860 N   0  0  0  0  0  0  0  0  0  0  0  0
   43.5570   73.1680   34.1330 O   0  0  0  0  0  0  0  0  0  0  0  0
   43.4010   73.8830   33.0330 C   0  0  0  0  0  0  0  0  0  0  0  0
   43.3560   73.0120   32.0220 N   0  0  0  0  0  0  0  0  0  0  0  0
   43.2750   75.2430   32.6610 N   0  0  0  0  0  0  0  0  0  0  0  0
   43.8680   75.7690   31.4180 C   0  0  0  0  0  0  0  0  0  0  0  0
   44.1190   77.2380   31.7970 C   0  0  0  0  0  0  0  0  0  0  0  0
   42.7590   77.5330   32.4270 C   0  0  0  0  0  0  0  0  0  0  0  0
   42.6000   76.3400   33.3470 C   0  0  0  0  0  0  0  0  0  0  0  0
   47.2860   72.4620   30.1930 C   0  0  0  0  0  0  0  0  0  0  0  0
   46.0240   71.8210   30.2150 C   0  0  0  0  0  0  0  0  0  0  0  0
   45.8700   70.7230   31.0690 C   0  0  0  0  0  0  0  0  0  0  0  0
   46.9330   70.3570   31.8040 N   0  0  0  0  0  0  0  0  0  0  0  0
   48.1430   70.9830   31.7730 C   0  0  0  0  0  0  0  0  0  0  0  0
   48.2720   72.0170   30.9640 N   0  0  0  0  0  0  0  0  0  0  0  0
   49.0940   70.3530   32.6840 C   0  0  0  0  0  0  0  0  0  0  0  0
   48.9020   69.0810   33.1780 C   0  0  0  0  0  0  0  0  0  0  0  0
   49.7670   68.4430   34.0380 C   0  0  0  0  0  0  0  0  0  0  0  0
   50.9120   69.0740   34.4610 C   0  0  0  0  0  0  0  0  0  0  0  0
   51.1600   70.3480   34.0020 C   0  0  0  0  0  0  0  0  0  0  0  0
   52.3100   70.9750   34.4290 C   0  0  0  0  0  0  0  0  0  0  0  0
   52.6150   72.2510   34.0060 C   0  0  0  0  0  0  0  0  0  0  0  0
   51.7100   72.8640   33.1330 C   0  0  0  0  0  0  0  0  0  0  0  0
   50.5750   72.1920   32.7360 C   0  0  0  0  0  0  0  0  0  0  0  0
   50.2540   70.9240   33.1460 C   0  0  0  0  0  0  0  0  0  0  0  0
   45.5036   68.3499   30.0839 H   0  0  0  0  0  0  0  0  0  0  0  0
   43.4203   66.9417   30.1937 H   0  0  0  0  0  0  0  0  0  0  0  0
   41.4263   67.8327   31.3635 H   0  0  0  0  0  0  0  0  0  0  0  0
   41.4447   70.0878   32.4202 H   0  0  0  0  0  0  0  0  0  0  0  0
   43.1692   75.6857   30.5726 H   0  0  0  0  0  0  0  0  0  0  0  0
   44.7684   75.2306   31.0873 H   0  0  0  0  0  0  0  0  0  0  0  0
   44.9436   77.3471   32.5168 H   0  0  0  0  0  0  0  0  0  0  0  0
   44.4235   77.9024   30.9749 H   0  0  0  0  0  0  0  0  0  0  0  0
   42.7712   78.4780   32.9898 H   0  0  0  0  0  0  0  0  0  0  0  0
   41.9414   77.6577   31.7017 H   0  0  0  0  0  0  0  0  0  0  0  0
   41.5356   76.1061   33.4967 H   0  0  0  0  0  0  0  0  0  0  0  0
   43.0240   76.5274   34.3445 H   0  0  0  0  0  0  0  0  0  0  0  0
   47.4503   73.3294   29.5368 H   0  0  0  0  0  0  0  0  0  0  0  0
   45.1947   72.1731   29.5839 H   0  0  0  0  0  0  0  0  0  0  0  0
   47.9974   68.5395   32.8643 H   0  0  0  0  0  0  0  0  0  0  0  0
   49.5409   67.4249   34.3877 H   0  0  0  0  0  0  0  0  0  0  0  0
   51.6114   68.5748   35.1477 H   0  0  0  0  0  0  0  0  0  0  0  0
   52.9923   70.4517   35.1150 H   0  0  0  0  0  0  0  0  0  0  0  0
   53.5289   72.7641   34.3399 H   0  0  0  0  0  0  0  0  0  0  0  0
   51.9046   73.8818   32.7639 H   0  0  0  0  0  0  0  0  0  0  0  0
   49.8849   72.7035   32.0488 H   0  0  0  0  0  0  0  0  0  0  0  0
  1  6  2  0
  2  3  2  0
  2  1  1  0
  3  4  1  0
  4  5  2  0
  6  5  1  0
  6  7  1  0
  7  8  2  0
  8  9  1  0
 10  9  1  0
 11  7  1  0
 11 10  2  0
 12 10  1  0
 12 16  1  0
 13 14  1  0
 13 12  1  0
 14 15  1  0
 15 16  1  0
 17 18  2  0
 17 22  1  0
 18 19  1  0
 19  1  1  0
 19 20  2  0
 21 20  1  0
 21 23  1  0
 22 21  2  0
 23 32  1  0
 23 24  2  0
 24 25  1  0
 25 26  2  0
 27 28  2  0
 27 26  1  0
 29 28  1  0
 30 29  2  0
 31 30  1  0
 31 32  2  0
 32 27  1  0
  2 33  1  0
  3 34  1  0
  4 35  1  0
  5 36  1  0
 13 37  1  0
 13 38  1  0
 14 39  1  0
 14 40  1  0
 15 41  1  0
 15 42  1  0
 16 43  1  0
 16 44  1  0
 17 45  1  0
 18 46  1  0
 24 47  1  0
 25 48  1  0
 26 49  1  0
 28 50  1  0
 29 51  1  0
 30 52  1  0
 31 53  1  0
M  END
>  <Score>  (1) 
-7.47019

$$$$
