
     RDKit          3D

 43 48  0  0  0  0  0  0  0  0999 V2000
   44.2790   71.5340   31.8600 N   0  0  0  0  0  0  0  0  0  0  0  0
   43.3990   72.2690   32.5410 C   0  0  0  0  0  0  0  0  0  0  0  0
   42.2770   71.5580   32.6760 N   0  0  0  0  0  0  0  0  0  0  0  0
   42.4560   70.3900   32.0830 C   0  0  0  0  0  0  0  0  0  0  0  0
   41.6070   69.3010   31.9440 C   0  0  0  0  0  0  0  0  0  0  0  0
   42.0720   68.2450   31.2670 N   0  0  0  0  0  0  0  0  0  0  0  0
   43.3160   68.1950   30.7440 C   0  0  0  0  0  0  0  0  0  0  0  0
   44.1590   69.2340   30.8750 N   0  0  0  0  0  0  0  0  0  0  0  0
   43.7360   70.3430   31.5470 C   0  0  0  0  0  0  0  0  0  0  0  0
   43.5500   66.9510   30.0750 N   0  0  0  0  0  0  0  0  0  0  0  0
   44.1400   67.0320   28.8550 C   0  0  0  0  0  0  0  0  0  0  0  0
   44.2960   65.7780   28.3480 N   0  0  0  0  0  0  0  0  0  0  0  0
   43.7910   64.9270   29.2750 C   0  0  0  0  0  0  0  0  0  0  0  0
   43.6210   63.5640   29.4320 C   0  0  0  0  0  0  0  0  0  0  0  0
   43.0550   63.0510   30.5390 N   0  0  0  0  0  0  0  0  0  0  0  0
   42.6240   63.8320   31.5520 C   0  0  0  0  0  0  0  0  0  0  0  0
   42.7650   65.1830   31.4560 N   0  0  0  0  0  0  0  0  0  0  0  0
   43.3280   65.6710   30.3520 C   0  0  0  0  0  0  0  0  0  0  0  0
   45.6230   71.8160   31.4440 C   0  0  0  0  0  0  0  0  0  0  0  0
   45.8450   72.6000   30.2980 C   0  0  0  0  0  0  0  0  0  0  0  0
   47.1860   72.8500   29.9290 C   0  0  0  0  0  0  0  0  0  0  0  0
   48.1680   72.3190   30.7010 N   0  0  0  0  0  0  0  0  0  0  0  0
   47.9110   71.5700   31.7940 C   0  0  0  0  0  0  0  0  0  0  0  0
   46.6320   71.3200   32.1640 N   0  0  0  0  0  0  0  0  0  0  0  0
   48.9230   71.0140   32.6030 N   0  0  0  0  0  0  0  0  0  0  0  0
   50.0750   71.7100   32.6580 C   0  0  0  0  0  0  0  0  0  0  0  0
   50.9530   71.0100   33.5020 C   0  0  0  0  0  0  0  0  0  0  0  0
   50.2890   69.9080   33.9280 N   0  0  0  0  0  0  0  0  0  0  0  0
   49.0530   69.9090   33.3830 C   0  0  0  0  0  0  0  0  0  0  0  0
   44.0850   62.7410   28.3450 N   0  0  0  0  0  0  0  0  0  0  0  0
   43.5683   73.2857   32.9252 H   0  0  0  0  0  0  0  0  0  0  0  0
   41.3433   68.9560   32.9547 H   0  0  0  0  0  0  0  0  0  0  0  0
   40.7642   69.6738   31.3434 H   0  0  0  0  0  0  0  0  0  0  0  0
   45.1073   69.1933   30.4751 H   0  0  0  0  0  0  0  0  0  0  0  0
   44.4440   67.9635   28.3551 H   0  0  0  0  0  0  0  0  0  0  0  0
   42.1643   63.3825   32.4445 H   0  0  0  0  0  0  0  0  0  0  0  0
   45.0067   73.0034   29.7111 H   0  0  0  0  0  0  0  0  0  0  0  0
   47.4266   73.4563   29.0433 H   0  0  0  0  0  0  0  0  0  0  0  0
   50.2892   72.6547   32.1368 H   0  0  0  0  0  0  0  0  0  0  0  0
   51.9807   71.3001   33.7661 H   0  0  0  0  0  0  0  0  0  0  0  0
   48.2803   69.1428   33.5439 H   0  0  0  0  0  0  0  0  0  0  0  0
   43.9889   61.7168   28.3971 H   0  0  0  0  0  0  0  0  0  0  0  0
   44.5130   63.1766   27.5155 H   0  0  0  0  0  0  0  0  0  0  0  0
  1  2  1  0
  2  3  2  0
  4  3  1  0
  5  4  1  0
  6  5  1  0
  7  8  1  0
  7  6  2  0
  8  9  1  0
  9  1  1  0
  9  4  2  0
 10 18  1  0
 10  7  1  0
 11 10  1  0
 12 11  2  0
 12 13  1  0
 13 14  2  0
 13 18  1  0
 14 15  1  0
 15 16  2  0
 17 16  1  0
 18 17  2  0
 19  1  1  0
 19 24  1  0
 20 19  2  0
 21 20  1  0
 21 22  2  0
 22 23  1  0
 23 24  2  0
 23 25  1  0
 25 26  1  0
 25 29  1  0
 26 27  2  0
 27 28  1  0
 29 28  2  0
 30 14  1  0
  2 31  1  0
  5 32  1  0
  5 33  1  0
  8 34  1  0
 11 35  1  0
 16 36  1  0
 20 37  1  0
 21 38  1  0
 26 39  1  0
 27 40  1  0
 29 41  1  0
 30 42  1  0
 30 43  1  0
M  END
>  <Score>  (1) 
-7.36509

$$$$
