
     RDKit          3D

 44 48  0  0  0  0  0  0  0  0999 V2000
   44.7390   70.1360   31.1420 C   0  0  0  0  0  0  0  0  0  0  0  0
   44.8120   68.8790   30.5540 C   0  0  0  0  0  0  0  0  0  0  0  0
   43.7220   67.9970   30.6380 C   0  0  0  0  0  0  0  0  0  0  0  0
   42.5830   68.4160   31.3220 C   0  0  0  0  0  0  0  0  0  0  0  0
   42.4960   69.6630   31.9120 C   0  0  0  0  0  0  0  0  0  0  0  0
   43.5990   70.4930   31.7990 C   0  0  0  0  0  0  0  0  0  0  0  0
   43.4840   71.8070   32.4320 C   0  0  0  0  0  0  0  0  0  0  0  0
   43.4900   71.9720   33.7740 N   0  0  0  0  0  0  0  0  0  0  0  0
   43.3770   73.2190   34.1090 O   0  0  0  0  0  0  0  0  0  0  0  0
   43.2910   73.9340   33.0030 C   0  0  0  0  0  0  0  0  0  0  0  0
   43.3570   73.0610   31.9980 N   0  0  0  0  0  0  0  0  0  0  0  0
   43.1560   75.2880   32.6240 N   0  0  0  0  0  0  0  0  0  0  0  0
   43.8330   75.8320   31.4290 C   0  0  0  0  0  0  0  0  0  0  0  0
   44.0190   77.3010   31.8220 C   0  0  0  0  0  0  0  0  0  0  0  0
   42.6200   77.5630   32.3680 C   0  0  0  0  0  0  0  0  0  0  0  0
   42.3970   76.3600   33.2540 C   0  0  0  0  0  0  0  0  0  0  0  0
   47.1710   72.7750   29.9480 C   0  0  0  0  0  0  0  0  0  0  0  0
   46.0000   71.9880   30.0460 C   0  0  0  0  0  0  0  0  0  0  0  0
   45.9030   70.9620   31.0010 C   0  0  0  0  0  0  0  0  0  0  0  0
   46.9690   70.7650   31.8120 N   0  0  0  0  0  0  0  0  0  0  0  0
   48.0920   71.5460   31.6900 C   0  0  0  0  0  0  0  0  0  0  0  0
   48.1810   72.5110   30.7910 N   0  0  0  0  0  0  0  0  0  0  0  0
   49.2250   71.3340   32.5530 N   0  0  0  0  0  0  0  0  0  0  0  0
   50.2380   72.1010   32.1730 N   0  0  0  0  0  0  0  0  0  0  0  0
   51.3040   71.9040   32.9820 C   0  0  0  0  0  0  0  0  0  0  0  0
   50.9110   70.9470   33.9230 C   0  0  0  0  0  0  0  0  0  0  0  0
   49.5880   70.6040   33.6250 C   0  0  0  0  0  0  0  0  0  0  0  0
   45.7251   68.5741   30.0218 H   0  0  0  0  0  0  0  0  0  0  0  0
   43.7667   67.0001   30.1751 H   0  0  0  0  0  0  0  0  0  0  0  0
   41.7246   67.7320   31.3950 H   0  0  0  0  0  0  0  0  0  0  0  0
   41.5901   69.9823   32.4480 H   0  0  0  0  0  0  0  0  0  0  0  0
   43.2044   75.7331   30.5317 H   0  0  0  0  0  0  0  0  0  0  0  0
   44.7696   75.3157   31.1715 H   0  0  0  0  0  0  0  0  0  0  0  0
   44.7955   77.4301   32.5904 H   0  0  0  0  0  0  0  0  0  0  0  0
   44.3537   77.9735   31.0184 H   0  0  0  0  0  0  0  0  0  0  0  0
   42.5858   78.4975   32.9472 H   0  0  0  0  0  0  0  0  0  0  0  0
   41.8553   77.6858   31.5868 H   0  0  0  0  0  0  0  0  0  0  0  0
   41.3281   76.1039   33.2980 H   0  0  0  0  0  0  0  0  0  0  0  0
   42.7178   76.5424   34.2903 H   0  0  0  0  0  0  0  0  0  0  0  0
   47.2514   73.5799   29.2026 H   0  0  0  0  0  0  0  0  0  0  0  0
   45.1562   72.1812   29.3673 H   0  0  0  0  0  0  0  0  0  0  0  0
   52.2844   72.3980   32.9134 H   0  0  0  0  0  0  0  0  0  0  0  0
   51.5247   70.5416   34.7409 H   0  0  0  0  0  0  0  0  0  0  0  0
   48.9631   69.8765   34.1637 H   0  0  0  0  0  0  0  0  0  0  0  0
  1  6  2  0
  2  3  2  0
  2  1  1  0
  3  4  1  0
  4  5  2  0
  6  5  1  0
  6  7  1  0
  7  8  2  0
  8  9  1  0
 10  9  1  0
 11  7  1  0
 11 10  2  0
 12 10  1  0
 12 16  1  0
 13 14  1  0
 13 12  1  0
 14 15  1  0
 15 16  1  0
 17 18  2  0
 17 22  1  0
 18 19  1  0
 19  1  1  0
 19 20  2  0
 21 20  1  0
 21 23  1  0
 22 21  2  0
 23 27  1  0
 24 23  1  0
 24 25  2  0
 25 26  1  0
 27 26  2  0
  2 28  1  0
  3 29  1  0
  4 30  1  0
  5 31  1  0
 13 32  1  0
 13 33  1  0
 14 34  1  0
 14 35  1  0
 15 36  1  0
 15 37  1  0
 16 38  1  0
 16 39  1  0
 17 40  1  0
 18 41  1  0
 25 42  1  0
 26 43  1  0
 27 44  1  0
M  END
>  <Score>  (1) 
-7.06289

$$$$
