
     RDKit          3D

 44 48  0  0  0  0  0  0  0  0999 V2000
   46.7330   73.2160   30.3620 C   0  0  0  0  0  0  0  0  0  0  0  0
   45.4850   73.2270   31.0330 C   0  0  0  0  0  0  0  0  0  0  0  0
   44.8020   72.0200   31.1940 C   0  0  0  0  0  0  0  0  0  0  0  0
   45.3720   70.8890   30.6970 N   0  0  0  0  0  0  0  0  0  0  0  0
   46.5500   70.9300   30.0730 C   0  0  0  0  0  0  0  0  0  0  0  0
   47.2200   72.0790   29.9080 N   0  0  0  0  0  0  0  0  0  0  0  0
   44.9740   74.5230   31.5240 C   0  0  0  0  0  0  0  0  0  0  0  0
   45.7480   75.6870   31.4050 C   0  0  0  0  0  0  0  0  0  0  0  0
   44.6740   76.9920   32.1540 S   0  0  0  0  0  0  0  0  0  0  0  0
   43.3430   75.6910   32.4990 C   0  0  0  0  0  0  0  0  0  0  0  0
   43.8180   74.7770   32.1000 N   0  0  0  0  0  0  0  0  0  0  0  0
   42.0770   75.9500   33.1260 N   0  0  0  0  0  0  0  0  0  0  0  0
   41.5710   77.2620   33.3970 C   0  0  0  0  0  0  0  0  0  0  0  0
   40.4560   77.0860   34.4170 C   0  0  0  0  0  0  0  0  0  0  0  0
   39.4430   76.2700   33.9860 O   0  0  0  0  0  0  0  0  0  0  0  0
   39.8250   75.1760   33.2490 C   0  0  0  0  0  0  0  0  0  0  0  0
   41.2730   74.8060   33.5020 C   0  0  0  0  0  0  0  0  0  0  0  0
   47.0740   69.6570   29.5760 C   0  0  0  0  0  0  0  0  0  0  0  0
   48.3290   69.2850   29.3050 N   0  0  0  0  0  0  0  0  0  0  0  0
   48.3750   68.0550   28.8770 O   0  0  0  0  0  0  0  0  0  0  0  0
   47.1330   67.5760   28.8530 C   0  0  0  0  0  0  0  0  0  0  0  0
   46.3450   68.5720   29.2850 N   0  0  0  0  0  0  0  0  0  0  0  0
   46.7910   66.2610   28.4390 N   0  0  0  0  0  0  0  0  0  0  0  0
   47.6850   65.2790   28.2400 C   0  0  0  0  0  0  0  0  0  0  0  0
   47.3040   64.0180   27.8380 C   0  0  0  0  0  0  0  0  0  0  0  0
   45.9700   63.7470   27.6330 C   0  0  0  0  0  0  0  0  0  0  0  0
   45.4550   62.6430   27.2640 O   0  0  0  0  0  0  0  0  0  0  0  0
   45.0410   64.7180   27.8270 N   0  0  0  0  0  0  0  0  0  0  0  0
   45.5160   65.9260   28.2220 C   0  0  0  0  0  0  0  0  0  0  0  0
   44.6460   66.8440   28.4060 O   0  0  0  0  0  0  0  0  0  0  0  0
   47.2927   74.1524   30.2208 H   0  0  0  0  0  0  0  0  0  0  0  0
   43.8303   71.9844   31.7083 H   0  0  0  0  0  0  0  0  0  0  0  0
   46.7525   75.7968   30.9704 H   0  0  0  0  0  0  0  0  0  0  0  0
   42.3670   77.8999   33.8087 H   0  0  0  0  0  0  0  0  0  0  0  0
   41.2025   77.7461   32.4806 H   0  0  0  0  0  0  0  0  0  0  0  0
   40.8865   76.6526   35.3318 H   0  0  0  0  0  0  0  0  0  0  0  0
   40.0180   78.0799   34.5914 H   0  0  0  0  0  0  0  0  0  0  0  0
   39.6970   75.4039   32.1805 H   0  0  0  0  0  0  0  0  0  0  0  0
   39.1965   74.3245   33.5491 H   0  0  0  0  0  0  0  0  0  0  0  0
   41.5512   73.9330   32.8934 H   0  0  0  0  0  0  0  0  0  0  0  0
   41.4317   74.5465   34.5591 H   0  0  0  0  0  0  0  0  0  0  0  0
   48.7527   65.4878   28.4028 H   0  0  0  0  0  0  0  0  0  0  0  0
   48.0595   63.2338   27.6820 H   0  0  0  0  0  0  0  0  0  0  0  0
   44.0355   64.5477   27.6829 H   0  0  0  0  0  0  0  0  0  0  0  0
  1  2  2  0
  2  3  1  0
  2  7  1  0
  4  3  2  0
  5  4  1  0
  6  5  2  0
  6  1  1  0
  7 11  1  0
  8  7  2  0
  8  9  1  0
  9 10  1  0
 10 12  1  0
 11 10  2  0
 12 13  1  0
 12 17  1  0
 13 14  1  0
 15 14  1  0
 16 17  1  0
 16 15  1  0
 18  5  1  0
 19 18  2  0
 20 19  1  0
 21 20  1  0
 21 22  2  0
 22 18  1  0
 23 21  1  0
 24 23  1  0
 25 24  2  0
 26 28  1  0
 26 25  1  0
 27 26  2  0
 28 29  1  0
 29 30  2  0
 29 23  1  0
  1 31  1  0
  3 32  1  0
  8 33  1  0
 13 34  1  0
 13 35  1  0
 14 36  1  0
 14 37  1  0
 16 38  1  0
 16 39  1  0
 17 40  1  0
 17 41  1  0
 24 42  1  0
 25 43  1  0
 28 44  1  0
M  END
>  <Score>  (1) 
-7.1626

$$$$
