
     RDKit          3D

 46 50  0  0  0  0  0  0  0  0999 V2000
   49.3300   70.9360   32.7360 C   0  0  0  0  0  0  0  0  0  0  0  0
   50.3050   71.8140   33.1630 C   0  0  0  0  0  0  0  0  0  0  0  0
   51.3490   71.4390   34.0090 C   0  0  0  0  0  0  0  0  0  0  0  0
   51.3780   70.1040   34.4270 C   0  0  0  0  0  0  0  0  0  0  0  0
   50.3870   69.2500   33.9820 C   0  0  0  0  0  0  0  0  0  0  0  0
   49.3940   69.6460   33.1640 N   0  0  0  0  0  0  0  0  0  0  0  0
   50.4410   67.8980   34.4210 N   0  0  0  0  0  0  0  0  0  0  0  0
   49.9690   66.9070   33.6070 C   0  0  0  0  0  0  0  0  0  0  0  0
   50.1200   65.7040   34.2290 N   0  0  0  0  0  0  0  0  0  0  0  0
   50.6870   65.9370   35.4340 C   0  0  0  0  0  0  0  0  0  0  0  0
   51.0950   65.1870   36.5180 C   0  0  0  0  0  0  0  0  0  0  0  0
   50.9370   63.9280   36.4650 O   0  0  0  0  0  0  0  0  0  0  0  0
   51.6400   65.7940   37.5860 N   0  0  0  0  0  0  0  0  0  0  0  0
   51.8220   67.1240   37.6770 C   0  0  0  0  0  0  0  0  0  0  0  0
   52.4120   67.6300   38.8680 N   0  0  0  0  0  0  0  0  0  0  0  0
   51.4220   67.8730   36.6090 N   0  0  0  0  0  0  0  0  0  0  0  0
   50.8740   67.2850   35.5300 C   0  0  0  0  0  0  0  0  0  0  0  0
   46.0120   71.1940   31.2180 C   0  0  0  0  0  0  0  0  0  0  0  0
   46.1850   72.1500   30.2040 C   0  0  0  0  0  0  0  0  0  0  0  0
   47.4650   72.7140   30.0420 C   0  0  0  0  0  0  0  0  0  0  0  0
   48.4690   72.3050   30.8750 N   0  0  0  0  0  0  0  0  0  0  0  0
   48.2540   71.3700   31.8480 C   0  0  0  0  0  0  0  0  0  0  0  0
   47.0390   70.8460   31.9910 N   0  0  0  0  0  0  0  0  0  0  0  0
   44.7460   70.6070   31.4130 N   0  0  0  0  0  0  0  0  0  0  0  0
   44.5100   69.3240   31.0350 C   0  0  0  0  0  0  0  0  0  0  0  0
   43.2490   68.7650   31.2370 C   0  0  0  0  0  0  0  0  0  0  0  0
   42.3380   69.6260   31.8300 C   0  0  0  0  0  0  0  0  0  0  0  0
   41.1830   69.1330   32.0220 O   0  0  0  0  0  0  0  0  0  0  0  0
   42.5400   70.8780   32.2070 N   0  0  0  0  0  0  0  0  0  0  0  0
   43.7890   71.3730   31.9870 C   0  0  0  0  0  0  0  0  0  0  0  0
   44.0170   72.5730   32.3380 O   0  0  0  0  0  0  0  0  0  0  0  0
   42.9130   67.3740   30.8530 C   0  0  0  0  0  0  0  0  0  0  0  0
   50.2569   72.8582   32.8204 H   0  0  0  0  0  0  0  0  0  0  0  0
   52.1143   72.1598   34.3326 H   0  0  0  0  0  0  0  0  0  0  0  0
   52.1729   69.7420   35.0957 H   0  0  0  0  0  0  0  0  0  0  0  0
   49.5355   67.0568   32.6072 H   0  0  0  0  0  0  0  0  0  0  0  0
   51.9351   65.2078   38.3799 H   0  0  0  0  0  0  0  0  0  0  0  0
   52.5678   68.6424   38.9756 H   0  0  0  0  0  0  0  0  0  0  0  0
   52.6835   66.9840   39.6229 H   0  0  0  0  0  0  0  0  0  0  0  0
   45.3472   72.4488   29.5568 H   0  0  0  0  0  0  0  0  0  0  0  0
   47.6530   73.4670   29.2625 H   0  0  0  0  0  0  0  0  0  0  0  0
   45.3104   68.7286   30.5715 H   0  0  0  0  0  0  0  0  0  0  0  0
   41.7970   71.4442   32.6409 H   0  0  0  0  0  0  0  0  0  0  0  0
   42.7667   66.7685   31.7596 H   0  0  0  0  0  0  0  0  0  0  0  0
   41.9884   67.3713   30.2571 H   0  0  0  0  0  0  0  0  0  0  0  0
   43.7344   66.9495   30.2571 H   0  0  0  0  0  0  0  0  0  0  0  0
  1  2  2  0
  1  6  1  0
  2  3  1  0
  3  4  2  0
  5  7  1  0
  5  4  1  0
  6  5  2  0
  7 17  1  0
  8  9  2  0
  8  7  1  0
  9 10  1  0
 10 17  2  0
 10 11  1  0
 11 13  1  0
 12 11  2  0
 13 14  1  0
 14 15  1  0
 16 14  2  0
 17 16  1  0
 18 24  1  0
 18 23  1  0
 19 18  2  0
 20 19  1  0
 20 21  2  0
 21 22  1  0
 22 23  2  0
 22  1  1  0
 24 30  1  0
 25 26  2  0
 25 24  1  0
 26 27  1  0
 27 28  2  0
 27 29  1  0
 30 29  1  0
 30 31  2  0
 32 26  1  0
  2 33  1  0
  3 34  1  0
  4 35  1  0
  8 36  1  0
 13 37  1  0
 15 38  1  0
 15 39  1  0
 19 40  1  0
 20 41  1  0
 25 42  1  0
 29 43  1  0
 32 44  1  0
 32 45  1  0
 32 46  1  0
M  END
>  <Score>  (1) 
-7.67821

$$$$
