
     RDKit          3D

 45 50  0  0  0  0  0  0  0  0999 V2000
   46.6090   71.9920   29.5460 C   0  0  0  0  0  0  0  0  0  0  0  0
   45.6670   72.0500   30.6050 C   0  0  0  0  0  0  0  0  0  0  0  0
   45.2330   70.8560   31.1780 C   0  0  0  0  0  0  0  0  0  0  0  0
   45.7260   69.6860   30.7070 N   0  0  0  0  0  0  0  0  0  0  0  0
   46.6190   69.6840   29.7000 C   0  0  0  0  0  0  0  0  0  0  0  0
   47.0480   70.8110   29.1360 N   0  0  0  0  0  0  0  0  0  0  0  0
   45.2000   73.3770   31.0330 C   0  0  0  0  0  0  0  0  0  0  0  0
   46.0630   74.4920   30.9780 C   0  0  0  0  0  0  0  0  0  0  0  0
   45.0160   75.8760   31.6100 S   0  0  0  0  0  0  0  0  0  0  0  0
   43.5750   74.6780   31.8380 C   0  0  0  0  0  0  0  0  0  0  0  0
   44.0220   73.7250   31.4940 N   0  0  0  0  0  0  0  0  0  0  0  0
   42.2720   75.0340   32.3420 N   0  0  0  0  0  0  0  0  0  0  0  0
   41.8400   76.3780   32.5460 C   0  0  0  0  0  0  0  0  0  0  0  0
   40.6260   76.2950   33.4650 C   0  0  0  0  0  0  0  0  0  0  0  0
   39.6020   75.5380   32.9540 O   0  0  0  0  0  0  0  0  0  0  0  0
   39.9710   74.4100   32.2680 C   0  0  0  0  0  0  0  0  0  0  0  0
   41.3640   73.9520   32.6520 C   0  0  0  0  0  0  0  0  0  0  0  0
   47.0950   68.3780   29.2550 C   0  0  0  0  0  0  0  0  0  0  0  0
   48.3520   67.8760   29.2090 N   0  0  0  0  0  0  0  0  0  0  0  0
   48.3350   66.6550   28.7390 O   0  0  0  0  0  0  0  0  0  0  0  0
   47.0640   66.3290   28.4660 C   0  0  0  0  0  0  0  0  0  0  0  0
   46.3030   67.3820   28.7820 N   0  0  0  0  0  0  0  0  0  0  0  0
   46.5910   65.0910   27.9360 N   0  0  0  0  0  0  0  0  0  0  0  0
   47.2490   64.2240   27.1430 C   0  0  0  0  0  0  0  0  0  0  0  0
   46.4470   63.1870   26.8730 N   0  0  0  0  0  0  0  0  0  0  0  0
   45.2910   63.3990   27.4900 C   0  0  0  0  0  0  0  0  0  0  0  0
   44.0920   62.7040   27.5910 C   0  0  0  0  0  0  0  0  0  0  0  0
   43.0910   63.2090   28.3160 N   0  0  0  0  0  0  0  0  0  0  0  0
   43.2020   64.3720   28.9560 C   0  0  0  0  0  0  0  0  0  0  0  0
   44.3260   65.1050   28.9100 N   0  0  0  0  0  0  0  0  0  0  0  0
   45.3410   64.6010   28.1790 C   0  0  0  0  0  0  0  0  0  0  0  0
   46.9705   72.9160   29.0711 H   0  0  0  0  0  0  0  0  0  0  0  0
   44.5017   70.8639   31.9997 H   0  0  0  0  0  0  0  0  0  0  0  0
   47.1090   74.5283   30.6397 H   0  0  0  0  0  0  0  0  0  0  0  0
   42.6383   76.9682   33.0198 H   0  0  0  0  0  0  0  0  0  0  0  0
   41.5915   76.8700   31.5940 H   0  0  0  0  0  0  0  0  0  0  0  0
   40.9428   75.8520   34.4207 H   0  0  0  0  0  0  0  0  0  0  0  0
   40.2418   77.3186   33.5858 H   0  0  0  0  0  0  0  0  0  0  0  0
   39.9512   74.6259   31.1896 H   0  0  0  0  0  0  0  0  0  0  0  0
   39.2634   73.6069   32.5218 H   0  0  0  0  0  0  0  0  0  0  0  0
   41.6372   73.0547   32.0774 H   0  0  0  0  0  0  0  0  0  0  0  0
   41.4101   73.6986   33.7214 H   0  0  0  0  0  0  0  0  0  0  0  0
   48.2787   64.3480   26.7765 H   0  0  0  0  0  0  0  0  0  0  0  0
   43.9679   61.7405   27.0751 H   0  0  0  0  0  0  0  0  0  0  0  0
   42.3468   64.7431   29.5399 H   0  0  0  0  0  0  0  0  0  0  0  0
  1  2  2  0
  2  7  1  0
  2  3  1  0
  4  3  2  0
  5  4  1  0
  6  1  1  0
  6  5  2  0
  7 11  1  0
  8  7  2  0
  8  9  1  0
  9 10  1  0
 10 12  1  0
 11 10  2  0
 12 13  1  0
 12 17  1  0
 13 14  1  0
 15 14  1  0
 16 17  1  0
 16 15  1  0
 18  5  1  0
 19 18  2  0
 20 19  1  0
 21 20  1  0
 21 22  2  0
 22 18  1  0
 23 31  1  0
 23 21  1  0
 24 23  1  0
 25 24  2  0
 25 26  1  0
 26 27  2  0
 26 31  1  0
 27 28  1  0
 28 29  2  0
 30 29  1  0
 31 30  2  0
  1 32  1  0
  3 33  1  0
  8 34  1  0
 13 35  1  0
 13 36  1  0
 14 37  1  0
 14 38  1  0
 16 39  1  0
 16 40  1  0
 17 41  1  0
 17 42  1  0
 24 43  1  0
 27 44  1  0
 29 45  1  0
M  END
>  <Score>  (1) 
-7.19825

$$$$
