
     RDKit          3D

 26 28  0  0  0  0  0  0  0  0999 V2000
   39.9600   32.4770   38.1370 C   0  0  0  0  0  0  0  0  0  0  0  0
   40.5580   33.3290   39.0950 C   0  0  0  0  0  0  0  0  0  0  0  0
   39.9530   33.3980   40.3630 C   0  0  0  0  0  0  0  0  0  0  0  0
   38.8300   32.6480   40.6010 N   0  0  0  0  0  0  0  0  0  0  0  0
   38.3010   31.8530   39.6510 C   0  0  0  0  0  0  0  0  0  0  0  0
   38.8630   31.7760   38.4420 N   0  0  0  0  0  0  0  0  0  0  0  0
   37.1020   31.0750   39.9600 C   0  0  0  0  0  0  0  0  0  0  0  0
   36.4930   30.9750   41.1960 C   0  0  0  0  0  0  0  0  0  0  0  0
   35.4210   30.1690   41.0700 N   0  0  0  0  0  0  0  0  0  0  0  0
   35.3130   29.7370   39.7790 C   0  0  0  0  0  0  0  0  0  0  0  0
   34.3950   28.9100   39.1720 C   0  0  0  0  0  0  0  0  0  0  0  0
   34.5650   28.6660   37.8290 C   0  0  0  0  0  0  0  0  0  0  0  0
   35.5990   29.2010   37.0710 C   0  0  0  0  0  0  0  0  0  0  0  0
   36.4900   30.0220   37.7260 C   0  0  0  0  0  0  0  0  0  0  0  0
   36.3730   30.3080   39.0760 C   0  0  0  0  0  0  0  0  0  0  0  0
   40.5520   32.3920   36.8530 N   0  0  0  0  0  0  0  0  0  0  0  0
   41.4592   33.9136   38.8580 H   0  0  0  0  0  0  0  0  0  0  0  0
   40.3732   34.0420   41.1495 H   0  0  0  0  0  0  0  0  0  0  0  0
   36.8255   31.4676   42.1216 H   0  0  0  0  0  0  0  0  0  0  0  0
   34.7782   29.9161   41.8340 H   0  0  0  0  0  0  0  0  0  0  0  0
   33.5625   28.4641   39.7359 H   0  0  0  0  0  0  0  0  0  0  0  0
   33.8401   28.0091   37.3260 H   0  0  0  0  0  0  0  0  0  0  0  0
   35.7013   28.9794   35.9984 H   0  0  0  0  0  0  0  0  0  0  0  0
   37.3216   30.4650   37.1584 H   0  0  0  0  0  0  0  0  0  0  0  0
   41.3970   32.9403   36.6382 H   0  0  0  0  0  0  0  0  0  0  0  0
   40.1374   31.7819   36.1341 H   0  0  0  0  0  0  0  0  0  0  0  0
  1  6  2  0
  1  2  1  0
  2  3  2  0
  3  4  1  0
  5  7  1  0
  5  4  2  0
  6  5  1  0
  7  8  2  0
  9  8  1  0
 10  9  1  0
 11 10  2  0
 12 11  1  0
 13 14  1  0
 13 12  2  0
 14 15  2  0
 15 10  1  0
 15  7  1  0
 16  1  1  0
  2 17  1  0
  3 18  1  0
  8 19  1  0
  9 20  1  0
 11 21  1  0
 12 22  1  0
 13 23  1  0
 14 24  1  0
 16 25  1  0
 16 26  1  0
M  ISO  8  17  14  18  14  19  14  20   9  21  14  22  14  23  14  24  14
M  END
>  <minimizedAffinity>  (1) 
-5.47655058

>  <minimizedRMSD>  (1) 
6.2036581

$$$$
