
     RDKit          3D

 23 25  0  0  0  0  0  0  0  0999 V2000
   39.6690   32.2700   38.3090 C   0  0  0  0  0  0  0  0  0  0  0  0
   40.4280   33.1680   39.0870 C   0  0  0  0  0  0  0  0  0  0  0  0
   40.2640   33.1280   40.4850 C   0  0  0  0  0  0  0  0  0  0  0  0
   39.3900   32.2320   41.0120 N   0  0  0  0  0  0  0  0  0  0  0  0
   38.6810   31.3880   40.2340 C   0  0  0  0  0  0  0  0  0  0  0  0
   38.8220   31.4100   38.9000 N   0  0  0  0  0  0  0  0  0  0  0  0
   37.7540   30.4330   40.7400 N   0  0  0  0  0  0  0  0  0  0  0  0
   36.4810   30.3820   40.3080 C   0  0  0  0  0  0  0  0  0  0  0  0
   35.8140   29.3830   40.9510 N   0  0  0  0  0  0  0  0  0  0  0  0
   36.6550   28.7910   41.7970 C   0  0  0  0  0  0  0  0  0  0  0  0
   36.6390   27.7550   42.7170 C   0  0  0  0  0  0  0  0  0  0  0  0
   37.7440   27.4150   43.4360 N   0  0  0  0  0  0  0  0  0  0  0  0
   38.8990   28.0840   43.2720 C   0  0  0  0  0  0  0  0  0  0  0  0
   38.9420   29.1070   42.3740 N   0  0  0  0  0  0  0  0  0  0  0  0
   37.8560   29.4540   41.6560 C   0  0  0  0  0  0  0  0  0  0  0  0
   39.8090   32.2850   36.9030 N   0  0  0  0  0  0  0  0  0  0  0  0
   41.1257   33.8769   38.6172 H   0  0  0  0  0  0  0  0  0  0  0  0
   40.8320   33.8083   41.1366 H   0  0  0  0  0  0  0  0  0  0  0  0
   36.0439   31.0475   39.5490 H   0  0  0  0  0  0  0  0  0  0  0  0
   35.7070   27.1913   42.8708 H   0  0  0  0  0  0  0  0  0  0  0  0
   39.7924   27.8101   43.8524 H   0  0  0  0  0  0  0  0  0  0  0  0
   40.4602   32.9470   36.4573 H   0  0  0  0  0  0  0  0  0  0  0  0
   39.2599   31.6339   36.3238 H   0  0  0  0  0  0  0  0  0  0  0  0
  1  6  2  0
  1  2  1  0
  2  3  2  0
  3  4  1  0
  5  7  1  0
  5  4  2  0
  6  5  1  0
  7 15  1  0
  8  7  1  0
  8  9  2  0
  9 10  1  0
 10 11  2  0
 11 12  1  0
 13 12  2  0
 14 13  1  0
 15 10  1  0
 15 14  2  0
 16  1  1  0
  2 17  1  0
  3 18  1  0
  8 19  1  0
 11 20  1  0
 13 21  1  0
 16 22  1  0
 16 23  1  0
M  ISO  5  17  14  18  14  19  14  20  14  21  14
M  END
>  <minimizedAffinity>  (1) 
-5.07793236

>  <minimizedRMSD>  (1) 
5.39617348

$$$$
