
     RDKit          3D

 28 29  0  0  0  0  0  0  0  0999 V2000
   37.7110   32.7750   40.0820 C   0  0  0  0  0  0  0  0  0  0  0  0
   39.1050   32.9760   40.2110 C   0  0  0  0  0  0  0  0  0  0  0  0
   39.8100   32.0230   40.9910 C   0  0  0  0  0  0  0  0  0  0  0  0
   39.1300   30.9960   41.5590 N   0  0  0  0  0  0  0  0  0  0  0  0
   37.7820   30.8550   41.3990 C   0  0  0  0  0  0  0  0  0  0  0  0
   37.0950   31.7470   40.6630 N   0  0  0  0  0  0  0  0  0  0  0  0
   37.0730   29.7120   42.0400 C   0  0  0  0  0  0  0  0  0  0  0  0
   37.9580   29.0610   43.1000 C   0  0  0  0  0  0  0  0  0  0  0  0
   37.0470   27.9900   43.7110 C   0  0  0  0  0  0  0  0  0  0  0  0
   37.0400   26.8780   42.7030 C   0  0  0  0  0  0  0  0  0  0  0  0
   36.8430   27.3130   41.2890 C   0  0  0  0  0  0  0  0  0  0  0  0
   36.4960   28.7390   41.0780 C   0  0  0  0  0  0  0  0  0  0  0  0
   36.9860   33.7180   39.3050 N   0  0  0  0  0  0  0  0  0  0  0  0
   39.6151   33.8251   39.7326 H   0  0  0  0  0  0  0  0  0  0  0  0
   40.8967   32.1162   41.1335 H   0  0  0  0  0  0  0  0  0  0  0  0
   36.1904   30.1282   42.5477 H   0  0  0  0  0  0  0  0  0  0  0  0
   38.8497   28.6063   42.6438 H   0  0  0  0  0  0  0  0  0  0  0  0
   38.3379   29.7778   43.8429 H   0  0  0  0  0  0  0  0  0  0  0  0
   37.4504   27.6398   44.6726 H   0  0  0  0  0  0  0  0  0  0  0  0
   36.0362   28.3712   43.9182 H   0  0  0  0  0  0  0  0  0  0  0  0
   38.0040   26.3521   42.7676 H   0  0  0  0  0  0  0  0  0  0  0  0
   36.1789   26.2407   42.9526 H   0  0  0  0  0  0  0  0  0  0  0  0
   37.7773   27.1122   40.7443 H   0  0  0  0  0  0  0  0  0  0  0  0
   35.9728   26.7451   40.9281 H   0  0  0  0  0  0  0  0  0  0  0  0
   36.8392   29.0208   40.0716 H   0  0  0  0  0  0  0  0  0  0  0  0
   35.4072   28.7976   41.2233 H   0  0  0  0  0  0  0  0  0  0  0  0
   35.9687   33.6117   39.1835 H   0  0  0  0  0  0  0  0  0  0  0  0
   37.4777   34.5079   38.8632 H   0  0  0  0  0  0  0  0  0  0  0  0
  1  2  2  0
  1  6  1  0
  2  3  1  0
  3  4  2  0
  5  4  1  0
  5  7  1  0
  6  5  2  0
  7  8  1  0
  8  9  1  0
 10  9  1  0
 11 10  1  0
 12 11  1  0
 12  7  1  0
 13  1  1  0
  2 14  1  0
  3 15  1  0
  7 16  1  0
  8 17  1  0
  8 18  1  0
  9 19  1  0
  9 20  1  0
 10 21  1  0
 10 22  1  0
 11 23  1  0
 11 24  1  0
 12 25  1  0
 12 26  1  0
 13 27  1  0
 13 28  1  0
M  ISO  8  14  14  15  14  16  13  17  13  18  13  19  13  20  13  21  13
M  ISO  5  22  13  23  13  24  13  25  13  26  13
M  END
>  <minimizedAffinity>  (1) 
-4.80520868

>  <minimizedRMSD>  (1) 
4.07130575

$$$$
