
     RDKit          3D

 25 26  0  0  0  0  0  0  0  0999 V2000
   36.8820   30.7760   41.3000 C   0  0  0  0  0  0  0  0  0  0  0  0
   37.5180   29.7870   42.0780 C   0  0  0  0  0  0  0  0  0  0  0  0
   38.8980   29.9620   42.3290 C   0  0  0  0  0  0  0  0  0  0  0  0
   39.5270   31.0520   41.8180 N   0  0  0  0  0  0  0  0  0  0  0  0
   38.8670   31.9720   41.0780 C   0  0  0  0  0  0  0  0  0  0  0  0
   37.5450   31.8310   40.8210 N   0  0  0  0  0  0  0  0  0  0  0  0
   39.5510   33.1060   40.5540 N   0  0  0  0  0  0  0  0  0  0  0  0
   40.9980   33.2020   40.4930 C   0  0  0  0  0  0  0  0  0  0  0  0
   41.2620   34.5800   39.8710 C   0  0  0  0  0  0  0  0  0  0  0  0
   40.6550   35.6040   40.5720 O   0  0  0  0  0  0  0  0  0  0  0  0
   39.3100   35.4550   40.7850 C   0  0  0  0  0  0  0  0  0  0  0  0
   38.7890   34.2350   40.0500 C   0  0  0  0  0  0  0  0  0  0  0  0
   35.4930   30.6140   41.0390 N   0  0  0  0  0  0  0  0  0  0  0  0
   36.9664   28.9203   42.4710 H   0  0  0  0  0  0  0  0  0  0  0  0
   39.4541   29.2266   42.9290 H   0  0  0  0  0  0  0  0  0  0  0  0
   41.4353   33.1392   41.5004 H   0  0  0  0  0  0  0  0  0  0  0  0
   41.4487   32.3851   39.9103 H   0  0  0  0  0  0  0  0  0  0  0  0
   42.3474   34.7580   39.8565 H   0  0  0  0  0  0  0  0  0  0  0  0
   40.8384   34.5742   38.8558 H   0  0  0  0  0  0  0  0  0  0  0  0
   39.1250   35.3350   41.8627 H   0  0  0  0  0  0  0  0  0  0  0  0
   38.7886   36.3474   40.4084 H   0  0  0  0  0  0  0  0  0  0  0  0
   38.9436   34.3469   38.9667 H   0  0  0  0  0  0  0  0  0  0  0  0
   37.7100   34.0972   40.2138 H   0  0  0  0  0  0  0  0  0  0  0  0
   34.9900   31.3137   40.4748 H   0  0  0  0  0  0  0  0  0  0  0  0
   34.9903   29.7970   41.4142 H   0  0  0  0  0  0  0  0  0  0  0  0
  1  2  2  0
  2  3  1  0
  4  3  2  0
  5  4  1  0
  6  5  2  0
  6  1  1  0
  7  5  1  0
  8  7  1  0
  9  8  1  0
  9 10  1  0
 10 11  1  0
 12  7  1  0
 12 11  1  0
 13  1  1  0
  2 14  1  0
  3 15  1  0
  8 16  1  0
  8 17  1  0
  9 18  1  0
  9 19  1  0
 11 20  1  0
 11 21  1  0
 12 22  1  0
 12 23  1  0
 13 24  1  0
 13 25  1  0
M  ISO  8  14  14  15  14  16  13  17  13  18  13  19  13  20  13  21  13
M  ISO  2  22  13  23  13
M  END
>  <minimizedAffinity>  (1) 
-4.65893316

>  <minimizedRMSD>  (1) 
7.76073122

$$$$
