
     RDKit          3D

 25 26  0  0  0  0  0  0  0  0999 V2000
   36.6940   29.9640   41.3200 C   0  0  0  0  0  0  0  0  0  0  0  0
   38.0310   30.4060   41.3690 C   0  0  0  0  0  0  0  0  0  0  0  0
   39.0470   29.4270   41.3330 C   0  0  0  0  0  0  0  0  0  0  0  0
   38.6730   28.1120   41.2540 N   0  0  0  0  0  0  0  0  0  0  0  0
   37.3730   27.7390   41.2100 C   0  0  0  0  0  0  0  0  0  0  0  0
   36.4120   28.6660   41.2430 N   0  0  0  0  0  0  0  0  0  0  0  0
   37.0800   26.3480   41.1280 N   0  0  0  0  0  0  0  0  0  0  0  0
   36.9120   25.5910   42.3560 C   0  0  0  0  0  0  0  0  0  0  0  0
   37.7530   24.3550   42.1870 C   0  0  0  0  0  0  0  0  0  0  0  0
   37.3860   23.5380   40.9920 C   0  0  0  0  0  0  0  0  0  0  0  0
   36.9810   24.2740   39.7820 C   0  0  0  0  0  0  0  0  0  0  0  0
   36.9610   25.7480   39.8370 C   0  0  0  0  0  0  0  0  0  0  0  0
   35.6540   30.9360   41.3550 N   0  0  0  0  0  0  0  0  0  0  0  0
   38.2745   31.4768   41.4331 H   0  0  0  0  0  0  0  0  0  0  0  0
   40.1089   29.7121   41.3674 H   0  0  0  0  0  0  0  0  0  0  0  0
   37.2600   26.1773   43.2192 H   0  0  0  0  0  0  0  0  0  0  0  0
   35.8563   25.3431   42.5404 H   0  0  0  0  0  0  0  0  0  0  0  0
   38.8048   24.6614   42.0885 H   0  0  0  0  0  0  0  0  0  0  0  0
   37.5805   23.7253   43.0723 H   0  0  0  0  0  0  0  0  0  0  0  0
   38.2585   22.9216   40.7299 H   0  0  0  0  0  0  0  0  0  0  0  0
   36.4940   22.9702   41.2950 H   0  0  0  0  0  0  0  0  0  0  0  0
   36.7011   23.7391   38.8625 H   0  0  0  0  0  0  0  0  0  0  0  0
   36.8592   26.3567   38.9265 H   0  0  0  0  0  0  0  0  0  0  0  0
   34.6688   30.6376   41.3204 H   0  0  0  0  0  0  0  0  0  0  0  0
   35.8869   31.9375   41.4149 H   0  0  0  0  0  0  0  0  0  0  0  0
  1 13  1  0
  1  2  2  0
  3  2  1  0
  4  3  2  0
  5  6  2  0
  5  4  1  0
  6  1  1  0
  7  5  1  0
  7  8  1  0
  9  8  1  0
 10  9  1  0
 11 12  2  0
 11 10  1  0
 12  7  1  0
  2 14  1  0
  3 15  1  0
  8 16  1  0
  8 17  1  0
  9 18  1  0
  9 19  1  0
 10 20  1  0
 10 21  1  0
 11 22  1  0
 12 23  1  0
 13 24  1  0
 13 25  1  0
M  ISO  8  14  14  15  14  16  13  17  13  18  13  19  13  20  13  21  13
M  ISO  2  22  13  23  13
M  END
>  <minimizedAffinity>  (1) 
-4.47432137

>  <minimizedRMSD>  (1) 
1.54969251

$$$$
