
     RDKit          3D

 25 26  0  0  0  0  0  0  0  0999 V2000
   36.7750   30.0650   41.4720 C   0  0  0  0  0  0  0  0  0  0  0  0
   38.0810   30.5960   41.3530 C   0  0  0  0  0  0  0  0  0  0  0  0
   39.1540   29.6770   41.5260 C   0  0  0  0  0  0  0  0  0  0  0  0
   38.8710   28.3700   41.7910 N   0  0  0  0  0  0  0  0  0  0  0  0
   37.6020   27.9200   41.8940 C   0  0  0  0  0  0  0  0  0  0  0  0
   36.5770   28.7710   41.7340 N   0  0  0  0  0  0  0  0  0  0  0  0
   37.2950   26.5010   42.1820 C   0  0  0  0  0  0  0  0  0  0  0  0
   38.5160   25.7300   42.6250 C   0  0  0  0  0  0  0  0  0  0  0  0
   38.1970   24.2830   42.2650 C   0  0  0  0  0  0  0  0  0  0  0  0
   36.8940   24.3210   41.4900 C   0  0  0  0  0  0  0  0  0  0  0  0
   36.9100   25.7340   40.9370 C   0  0  0  0  0  0  0  0  0  0  0  0
   35.6730   30.9520   41.3060 N   0  0  0  0  0  0  0  0  0  0  0  0
   38.2574   31.6604   41.1386 H   0  0  0  0  0  0  0  0  0  0  0  0
   40.1973   30.0167   41.4470 H   0  0  0  0  0  0  0  0  0  0  0  0
   36.4996   26.5626   42.9393 H   0  0  0  0  0  0  0  0  0  0  0  0
   39.4118   26.0768   42.0890 H   0  0  0  0  0  0  0  0  0  0  0  0
   38.7301   25.8599   43.6961 H   0  0  0  0  0  0  0  0  0  0  0  0
   38.9990   23.8584   41.6433 H   0  0  0  0  0  0  0  0  0  0  0  0
   38.1124   23.6541   43.1636 H   0  0  0  0  0  0  0  0  0  0  0  0
   36.8851   23.5739   40.6827 H   0  0  0  0  0  0  0  0  0  0  0  0
   36.0059   24.0871   42.0954 H   0  0  0  0  0  0  0  0  0  0  0  0
   37.6573   25.8510   40.1384 H   0  0  0  0  0  0  0  0  0  0  0  0
   35.9696   26.0574   40.4668 H   0  0  0  0  0  0  0  0  0  0  0  0
   35.8396   31.9482   41.1041 H   0  0  0  0  0  0  0  0  0  0  0  0
   34.7095   30.5972   41.3878 H   0  0  0  0  0  0  0  0  0  0  0  0
  1  6  2  0
  2  1  1  0
  2  3  2  0
  3  4  1  0
  4  5  2  0
  5  7  1  0
  6  5  1  0
  7  8  1  0
  9  8  1  0
 10  9  1  0
 11 10  1  0
 11  7  1  0
 12  1  1  0
  2 13  1  0
  3 14  1  0
  7 15  1  0
  8 16  1  0
  8 17  1  0
  9 18  1  0
  9 19  1  0
 10 20  1  0
 10 21  1  0
 11 22  1  0
 11 23  1  0
 12 24  1  0
 12 25  1  0
M  ISO  8  13  14  14  14  15  13  16  13  17  13  18  13  19  13  20  13
M  ISO  3  21  13  22  13  23  13
M  END
>  <minimizedAffinity>  (1) 
-4.46334743

>  <minimizedRMSD>  (1) 
1.29476464

$$$$
