
     RDKit          3D

 24 24  0  0  0  0  0  0  0  0999 V2000
   37.0690   30.5710   41.4210 C   0  0  0  0  0  0  0  0  0  0  0  0
   38.3350   31.1600   41.1670 C   0  0  0  0  0  0  0  0  0  0  0  0
   39.4540   30.4980   41.7150 C   0  0  0  0  0  0  0  0  0  0  0  0
   39.2600   29.3640   42.4360 N   0  0  0  0  0  0  0  0  0  0  0  0
   38.0280   28.8450   42.6480 C   0  0  0  0  0  0  0  0  0  0  0  0
   36.9490   29.4510   42.1400 N   0  0  0  0  0  0  0  0  0  0  0  0
   37.7980   27.6030   43.4360 C   0  0  0  0  0  0  0  0  0  0  0  0
   39.0900   26.9840   43.9110 C   0  0  0  0  0  0  0  0  0  0  0  0
   36.9120   27.9990   44.6230 C   0  0  0  0  0  0  0  0  0  0  0  0
   37.0320   26.6190   42.5830 C   0  0  0  0  0  0  0  0  0  0  0  0
   35.9130   31.2140   40.8810 N   0  0  0  0  0  0  0  0  0  0  0  0
   38.4381   32.0817   40.5756 H   0  0  0  0  0  0  0  0  0  0  0  0
   40.4683   30.8946   41.5604 H   0  0  0  0  0  0  0  0  0  0  0  0
   39.1095   26.9746   45.0108 H   0  0  0  0  0  0  0  0  0  0  0  0
   39.1630   25.9531   43.5342 H   0  0  0  0  0  0  0  0  0  0  0  0
   39.9391   27.5731   43.5342 H   0  0  0  0  0  0  0  0  0  0  0  0
   37.4331   27.7661   45.5633 H   0  0  0  0  0  0  0  0  0  0  0  0
   36.7001   29.0775   44.5787 H   0  0  0  0  0  0  0  0  0  0  0  0
   35.9671   27.4375   44.5787 H   0  0  0  0  0  0  0  0  0  0  0  0
   36.4864   25.9182   43.2320 H   0  0  0  0  0  0  0  0  0  0  0  0
   36.3172   27.1629   41.9480 H   0  0  0  0  0  0  0  0  0  0  0  0
   37.7347   26.0595   41.9480 H   0  0  0  0  0  0  0  0  0  0  0  0
   36.0148   32.0770   40.3280 H   0  0  0  0  0  0  0  0  0  0  0  0
   34.9778   30.8146   41.0447 H   0  0  0  0  0  0  0  0  0  0  0  0
  1  6  2  0
  2  1  1  0
  2  3  2  0
  3  4  1  0
  4  5  2  0
  5  7  1  0
  6  5  1  0
  7  8  1  0
  7  9  1  0
 10  7  1  0
 11  1  1  0
  2 12  1  0
  3 13  1  0
  8 14  1  0
  8 15  1  0
  8 16  1  0
  9 17  1  0
  9 18  1  0
  9 19  1  0
 10 20  1  0
 10 21  1  0
 10 22  1  0
 11 23  1  0
 11 24  1  0
M  ISO  8  12  14  13  14  14   8  15   8  16   8  17   8  18   8  19   8
M  ISO  3  20   8  21   8  22   8
M  END
>  <minimizedAffinity>  (1) 
-4.41220427

>  <minimizedRMSD>  (1) 
2.22765946

$$$$
