
     RDKit          3D

 19 20  0  0  0  0  0  0  0  0999 V2000
   37.2030   32.0880   39.8480 C   0  0  0  0  0  0  0  0  0  0  0  0
   37.6470   31.6210   38.5960 C   0  0  0  0  0  0  0  0  0  0  0  0
   37.9520   30.2490   38.4920 C   0  0  0  0  0  0  0  0  0  0  0  0
   37.8010   29.4630   39.5910 N   0  0  0  0  0  0  0  0  0  0  0  0
   37.3690   29.9590   40.7780 C   0  0  0  0  0  0  0  0  0  0  0  0
   37.0790   31.2600   40.8810 N   0  0  0  0  0  0  0  0  0  0  0  0
   37.2310   29.0850   41.8930 N   0  0  0  0  0  0  0  0  0  0  0  0
   36.3640   28.0640   41.9970 C   0  0  0  0  0  0  0  0  0  0  0  0
   36.5880   27.4980   43.2520 C   0  0  0  0  0  0  0  0  0  0  0  0
   37.5790   28.1760   43.8880 N   0  0  0  0  0  0  0  0  0  0  0  0
   37.9600   29.1550   43.0220 C   0  0  0  0  0  0  0  0  0  0  0  0
   36.8910   33.4630   39.9750 N   0  0  0  0  0  0  0  0  0  0  0  0
   37.7514   32.2983   37.7356 H   0  0  0  0  0  0  0  0  0  0  0  0
   38.3049   29.8229   37.5413 H   0  0  0  0  0  0  0  0  0  0  0  0
   35.6281   27.7406   41.2461 H   0  0  0  0  0  0  0  0  0  0  0  0
   36.0452   26.6345   43.6640 H   0  0  0  0  0  0  0  0  0  0  0  0
   38.7494   29.8959   43.2169 H   0  0  0  0  0  0  0  0  0  0  0  0
   36.9925   34.0911   39.1650 H   0  0  0  0  0  0  0  0  0  0  0  0
   36.5625   33.8353   40.8774 H   0  0  0  0  0  0  0  0  0  0  0  0
  1 12  1  0
  1  6  2  0
  2  1  1  0
  3  2  2  0
  3  4  1  0
  4  5  2  0
  5  6  1  0
  5  7  1  0
  7  8  1  0
  7 11  1  0
  8  9  2  0
  9 10  1  0
 11 10  2  0
  2 13  1  0
  3 14  1  0
  8 15  1  0
  9 16  1  0
 11 17  1  0
 12 18  1  0
 12 19  1  0
M  ISO  5  13  14  14  14  15  14  16  14  17  14
M  END
>  <minimizedAffinity>  (1) 
-4.39466476

>  <minimizedRMSD>  (1) 
3.96840549

$$$$
