
     RDKit          3D

 19 20  0  0  0  0  0  0  0  0999 V2000
   37.6960   32.2520   40.5720 C   0  0  0  0  0  0  0  0  0  0  0  0
   39.0620   32.5800   40.6490 C   0  0  0  0  0  0  0  0  0  0  0  0
   39.8970   31.7000   41.3740 C   0  0  0  0  0  0  0  0  0  0  0  0
   39.3390   30.5890   41.9570 N   0  0  0  0  0  0  0  0  0  0  0  0
   38.0220   30.3330   41.8450 C   0  0  0  0  0  0  0  0  0  0  0  0
   37.2150   31.1590   41.1590 N   0  0  0  0  0  0  0  0  0  0  0  0
   37.4920   29.1430   42.4820 C   0  0  0  0  0  0  0  0  0  0  0  0
   37.1980   27.9260   41.9050 C   0  0  0  0  0  0  0  0  0  0  0  0
   36.7200   27.0810   42.8630 N   0  0  0  0  0  0  0  0  0  0  0  0
   36.7150   27.7730   44.0410 C   0  0  0  0  0  0  0  0  0  0  0  0
   37.1830   29.0070   43.7830 N   0  0  0  0  0  0  0  0  0  0  0  0
   36.8340   33.1200   39.8480 N   0  0  0  0  0  0  0  0  0  0  0  0
   39.4630   33.4830   40.1655 H   0  0  0  0  0  0  0  0  0  0  0  0
   40.9742   31.9014   41.4695 H   0  0  0  0  0  0  0  0  0  0  0  0
   37.3281   27.6763   40.8417 H   0  0  0  0  0  0  0  0  0  0  0  0
   36.3885   27.3913   45.0196 H   0  0  0  0  0  0  0  0  0  0  0  0
   37.2904   29.7495   44.4888 H   0  0  0  0  0  0  0  0  0  0  0  0
   35.8294   32.9048   39.7750 H   0  0  0  0  0  0  0  0  0  0  0  0
   37.2140   33.9641   39.3964 H   0  0  0  0  0  0  0  0  0  0  0  0
  1  2  2  0
  1  6  1  0
  2  3  1  0
  3  4  2  0
  5  4  1  0
  5  7  1  0
  6  5  2  0
  7 11  1  0
  8  7  2  0
  8  9  1  0
  9 10  2  0
 11 10  1  0
 12  1  1  0
  2 13  1  0
  3 14  1  0
  8 15  1  0
 10 16  1  0
 11 17  1  0
 12 18  1  0
 12 19  1  0
M  ISO  5  13  14  14  14  15  14  16  14  17   9
M  END
>  <minimizedAffinity>  (1) 
-4.37911749

>  <minimizedRMSD>  (1) 
3.57136273

$$$$
