
     RDKit          3D

 18 19  0  0  0  0  0  0  0  0999 V2000
   36.8220   30.7260   41.2270 C   0  0  0  0  0  0  0  0  0  0  0  0
   37.5200   29.6910   41.8730 C   0  0  0  0  0  0  0  0  0  0  0  0
   38.9080   29.8910   42.1160 C   0  0  0  0  0  0  0  0  0  0  0  0
   39.4690   31.0600   41.7130 N   0  0  0  0  0  0  0  0  0  0  0  0
   38.7680   32.0280   41.0960 C   0  0  0  0  0  0  0  0  0  0  0  0
   37.4510   31.8480   40.8600 N   0  0  0  0  0  0  0  0  0  0  0  0
   39.4060   33.2350   40.6930 N   0  0  0  0  0  0  0  0  0  0  0  0
   40.7020   33.5760   40.5600 C   0  0  0  0  0  0  0  0  0  0  0  0
   40.8100   34.8560   40.1430 N   0  0  0  0  0  0  0  0  0  0  0  0
   39.5360   35.3260   40.0120 C   0  0  0  0  0  0  0  0  0  0  0  0
   38.7290   34.3200   40.3530 N   0  0  0  0  0  0  0  0  0  0  0  0
   35.4370   30.5450   40.9740 N   0  0  0  0  0  0  0  0  0  0  0  0
   37.0137   28.7635   42.1785 H   0  0  0  0  0  0  0  0  0  0  0  0
   39.5104   29.1189   42.6171 H   0  0  0  0  0  0  0  0  0  0  0  0
   41.5516   32.9072   40.7622 H   0  0  0  0  0  0  0  0  0  0  0  0
   39.2344   36.3335   39.6895 H   0  0  0  0  0  0  0  0  0  0  0  0
   34.8986   31.2856   40.5023 H   0  0  0  0  0  0  0  0  0  0  0  0
   34.9705   29.6731   41.2621 H   0  0  0  0  0  0  0  0  0  0  0  0
  1  2  2  0
  2  3  1  0
  4  3  2  0
  5  4  1  0
  6  5  2  0
  6  1  1  0
  7  5  1  0
  8  7  1  0
  9  8  2  0
 10  9  1  0
 10 11  2  0
 11  7  1  0
 12  1  1  0
  2 13  1  0
  3 14  1  0
  8 15  1  0
 10 16  1  0
 12 17  1  0
 12 18  1  0
M  ISO  4  13  14  14  14  15  14  16  14
M  END
>  <minimizedAffinity>  (1) 
-4.32852745

>  <minimizedRMSD>  (1) 
7.22379303

$$$$
