
     RDKit          3D

 19 20  0  0  0  0  0  0  0  0999 V2000
   37.9360   33.1260   40.1060 C   0  0  0  0  0  0  0  0  0  0  0  0
   39.3000   33.5070   40.0660 C   0  0  0  0  0  0  0  0  0  0  0  0
   40.2260   32.6530   40.6870 C   0  0  0  0  0  0  0  0  0  0  0  0
   39.7720   31.5180   41.2880 N   0  0  0  0  0  0  0  0  0  0  0  0
   38.4590   31.1880   41.3050 C   0  0  0  0  0  0  0  0  0  0  0  0
   37.5670   31.9900   40.7190 N   0  0  0  0  0  0  0  0  0  0  0  0
   37.9490   29.9960   41.9310 C   0  0  0  0  0  0  0  0  0  0  0  0
   38.2930   29.3760   43.0780 C   0  0  0  0  0  0  0  0  0  0  0  0
   37.6540   28.2430   43.4630 C   0  0  0  0  0  0  0  0  0  0  0  0
   36.6500   27.7770   42.6250 C   0  0  0  0  0  0  0  0  0  0  0  0
   36.6270   28.9790   41.2720 S   0  0  0  0  0  0  0  0  0  0  0  0
   36.9660   33.9720   39.4840 N   0  0  0  0  0  0  0  0  0  0  0  0
   39.6208   34.4342   39.5687 H   0  0  0  0  0  0  0  0  0  0  0  0
   41.2988   32.8963   40.6880 H   0  0  0  0  0  0  0  0  0  0  0  0
   39.0960   29.7912   43.7048 H   0  0  0  0  0  0  0  0  0  0  0  0
   37.9184   27.7192   44.3935 H   0  0  0  0  0  0  0  0  0  0  0  0
   36.0171   26.8865   42.7532 H   0  0  0  0  0  0  0  0  0  0  0  0
   37.2638   34.8406   39.0174 H   0  0  0  0  0  0  0  0  0  0  0  0
   35.9693   33.7130   39.5025 H   0  0  0  0  0  0  0  0  0  0  0  0
  1  6  2  0
  2  1  1  0
  2  3  2  0
  3  4  1  0
  4  5  2  0
  5  7  1  0
  6  5  1  0
  7  8  2  0
  8  9  1  0
 10  9  2  0
 11  7  1  0
 11 10  1  0
 12  1  1  0
  2 13  1  0
  3 14  1  0
  8 15  1  0
  9 16  1  0
 10 17  1  0
 12 18  1  0
 12 19  1  0
M  ISO  5  13  14  14  14  15  14  16  14  17  14
M  END
>  <minimizedAffinity>  (1) 
-4.23820305

>  <minimizedRMSD>  (1) 
4.54635954

$$$$
