
     RDKit          3D

 19 20  0  0  0  0  0  0  0  0999 V2000
   36.5360   30.9830   40.7930 C   0  0  0  0  0  0  0  0  0  0  0  0
   35.6860   30.1400   40.0210 C   0  0  0  0  0  0  0  0  0  0  0  0
   35.5830   28.7970   40.4310 C   0  0  0  0  0  0  0  0  0  0  0  0
   36.2790   28.3740   41.5160 N   0  0  0  0  0  0  0  0  0  0  0  0
   37.0780   29.2140   42.2210 C   0  0  0  0  0  0  0  0  0  0  0  0
   37.1930   30.5100   41.8450 N   0  0  0  0  0  0  0  0  0  0  0  0
   36.6550   32.3360   40.3990 N   0  0  0  0  0  0  0  0  0  0  0  0
   37.8340   28.7220   43.4120 C   0  0  0  0  0  0  0  0  0  0  0  0
   37.9000   27.2780   43.7140 C   0  0  0  0  0  0  0  0  0  0  0  0
   37.0000   28.1230   44.5580 C   0  0  0  0  0  0  0  0  0  0  0  0
   35.1367   30.5198   39.1469 H   0  0  0  0  0  0  0  0  0  0  0  0
   34.9428   28.0958   39.8756 H   0  0  0  0  0  0  0  0  0  0  0  0
   36.1358   32.6812   39.5792 H   0  0  0  0  0  0  0  0  0  0  0  0
   37.2609   32.9762   40.9319 H   0  0  0  0  0  0  0  0  0  0  0  0
   38.5944   29.5085   43.2967 H   0  0  0  0  0  0  0  0  0  0  0  0
   37.4632   26.5550   43.0094 H   0  0  0  0  0  0  0  0  0  0  0  0
   38.7216   26.5808   43.9350 H   0  0  0  0  0  0  0  0  0  0  0  0
   37.2610   28.3372   45.6049 H   0  0  0  0  0  0  0  0  0  0  0  0
   35.9352   28.1083   44.8336 H   0  0  0  0  0  0  0  0  0  0  0  0
  1  6  2  0
  2  3  2  0
  2  1  1  0
  3  4  1  0
  4  5  2  0
  5  8  1  0
  6  5  1  0
  7  1  1  0
  8  9  1  0
  8 10  1  0
  9 10  1  0
  2 11  1  0
  3 12  1  0
  7 13  1  0
  7 14  1  0
  8 15  1  0
  9 16  1  0
  9 17  1  0
 10 18  1  0
 10 19  1  0
M  ISO  7  11  14  12  14  15  13  16  13  17  13  18  13  19  13
M  END
>  <minimizedAffinity>  (1) 
-4.16312122

>  <minimizedRMSD>  (1) 
3.01261711

$$$$
