
     RDKit          3D

 15 15  0  0  0  0  0  0  0  0999 V2000
   36.8450   29.3430   41.9590 C   0  0  0  0  0  0  0  0  0  0  0  0
   38.0890   29.7550   42.4660 C   0  0  0  0  0  0  0  0  0  0  0  0
   38.9790   28.7460   42.9220 C   0  0  0  0  0  0  0  0  0  0  0  0
   38.5680   27.4390   42.8400 N   0  0  0  0  0  0  0  0  0  0  0  0
   37.3590   27.1020   42.3440 C   0  0  0  0  0  0  0  0  0  0  0  0
   36.5040   28.0590   41.9060 N   0  0  0  0  0  0  0  0  0  0  0  0
   35.9410   30.3300   41.4980 N   0  0  0  0  0  0  0  0  0  0  0  0
   36.9700   25.6520   42.2800 C   0  0  0  0  0  0  0  0  0  0  0  0
   38.3635   30.8193   42.5083 H   0  0  0  0  0  0  0  0  0  0  0  0
   39.9679   29.0044   43.3286 H   0  0  0  0  0  0  0  0  0  0  0  0
   35.0231   30.0524   41.1220 H   0  0  0  0  0  0  0  0  0  0  0  0
   36.2011   31.3258   41.5385 H   0  0  0  0  0  0  0  0  0  0  0  0
   36.8636   25.2555   43.3005 H   0  0  0  0  0  0  0  0  0  0  0  0
   36.0133   25.5522   41.7463 H   0  0  0  0  0  0  0  0  0  0  0  0
   37.7483   25.0868   41.7463 H   0  0  0  0  0  0  0  0  0  0  0  0
  1  2  2  0
  2  3  1  0
  4  3  2  0
  5  4  1  0
  6  1  1  0
  6  5  2  0
  7  1  1  0
  8  5  1  0
  2  9  1  0
  3 10  1  0
  7 11  1  0
  7 12  1  0
  8 13  1  0
  8 14  1  0
  8 15  1  0
M  ISO  5   9  14  10  14  13   8  14   8  15   8
M  END
>  <minimizedAffinity>  (1) 
-3.19102502

>  <minimizedRMSD>  (1) 
0.241543725

$$$$
