
     RDKit          3D

 13 13  0  0  0  0  0  0  0  0999 V2000
   36.7980   29.4080   41.9570 C   0  0  0  0  0  0  0  0  0  0  0  0
   38.0800   29.7850   42.4200 C   0  0  0  0  0  0  0  0  0  0  0  0
   38.9310   28.7490   42.9040 C   0  0  0  0  0  0  0  0  0  0  0  0
   38.4590   27.4610   42.8900 N   0  0  0  0  0  0  0  0  0  0  0  0
   37.2190   27.1680   42.4320 C   0  0  0  0  0  0  0  0  0  0  0  0
   36.3970   28.1400   41.9680 N   0  0  0  0  0  0  0  0  0  0  0  0
   35.9460   30.4260   41.4750 N   0  0  0  0  0  0  0  0  0  0  0  0
   36.8790   25.8210   42.4780 O   0  0  0  0  0  0  0  0  0  0  0  0
   38.4072   30.8351   42.4071 H   0  0  0  0  0  0  0  0  0  0  0  0
   39.9398   28.9763   43.2789 H   0  0  0  0  0  0  0  0  0  0  0  0
   36.2651   31.4053   41.4703 H   0  0  0  0  0  0  0  0  0  0  0  0
   35.0055   30.1891   41.1282 H   0  0  0  0  0  0  0  0  0  0  0  0
   35.9894   25.5239   42.1612 H   0  0  0  0  0  0  0  0  0  0  0  0
  1  6  2  0
  1  2  1  0
  2  3  2  0
  4  3  1  0
  5  8  1  0
  5  4  2  0
  6  5  1  0
  7  1  1  0
  2  9  1  0
  3 10  1  0
  7 11  1  0
  7 12  1  0
  8 13  1  0
M  ISO  3   9  14  10  14  13   3
M  END
>  <minimizedAffinity>  (1) 
-3.11219478

>  <minimizedRMSD>  (1) 
0.149639428

$$$$
