
     RDKit          3D

 39 42  0  0  1  0  0  0  0  0999 V2000
   37.7550   27.9030   41.6770 C   0  0  1  0  0  0  0  0  0  0  0  0
   36.5990   26.9880   42.0690 C   0  0  0  0  0  0  0  0  0  0  0  0
   36.4430   27.3130   43.5470 C   0  0  0  0  0  0  0  0  0  0  0  0
   37.7750   27.8560   44.0010 C   0  0  0  0  0  0  0  0  0  0  0  0
   38.7080   27.7010   42.8160 C   0  0  2  0  0  0  0  0  0  0  0  0
   37.6970   31.2690   37.4060 C   0  0  0  0  0  0  0  0  0  0  0  0
   37.2990   32.2110   38.3710 C   0  0  0  0  0  0  0  0  0  0  0  0
   37.3040   31.7960   39.6960 C   0  0  0  0  0  0  0  0  0  0  0  0
   37.6880   30.5250   39.9670 N   0  0  0  0  0  0  0  0  0  0  0  0
   38.0620   29.6430   39.0540 C   0  0  0  0  0  0  0  0  0  0  0  0
   38.0620   30.0310   37.7650 N   0  0  0  0  0  0  0  0  0  0  0  0
   38.4610   28.3020   39.3020 N   0  0  0  0  0  0  0  0  0  0  0  0
   39.0530   27.6720   38.3060 N   0  0  0  0  0  0  0  0  0  0  0  0
   39.3480   26.3990   38.7220 C   0  0  0  0  0  0  0  0  0  0  0  0
   38.8890   26.3160   40.0440 C   0  0  0  0  0  0  0  0  0  0  0  0
   38.3290   27.5420   40.3880 C   0  0  0  0  0  0  0  0  0  0  0  0
   39.6330   28.8900   42.8060 C   0  0  0  0  0  0  0  0  0  0  0  0
   39.2490   30.2210   42.7820 C   0  0  0  0  0  0  0  0  0  0  0  0
   40.2260   31.1950   42.7750 C   0  0  0  0  0  0  0  0  0  0  0  0
   41.5710   30.9080   42.7910 C   0  0  0  0  0  0  0  0  0  0  0  0
   41.9130   29.5760   42.8160 C   0  0  0  0  0  0  0  0  0  0  0  0
   40.9550   28.6440   42.8220 N   0  0  0  0  0  0  0  0  0  0  0  0
   37.4637   28.9543   41.5359 H   0  0  0  0  0  0  0  0  0  0  0  0
   35.6858   27.2304   41.5057 H   0  0  0  0  0  0  0  0  0  0  0  0
   36.7792   25.9231   41.8605 H   0  0  0  0  0  0  0  0  0  0  0  0
   35.6549   28.0668   43.6906 H   0  0  0  0  0  0  0  0  0  0  0  0
   36.1549   26.4226   44.1251 H   0  0  0  0  0  0  0  0  0  0  0  0
   37.6820   28.9161   44.2796 H   0  0  0  0  0  0  0  0  0  0  0  0
   38.1508   27.3211   44.8857 H   0  0  0  0  0  0  0  0  0  0  0  0
   39.2882   26.7666   42.8024 H   0  0  0  0  0  0  0  0  0  0  0  0
   37.7088   31.5521   36.3431 H   0  0  0  0  0  0  0  0  0  0  0  0
   36.9973   33.2305   38.0890 H   0  0  0  0  0  0  0  0  0  0  0  0
   37.0045   32.4802   40.5036 H   0  0  0  0  0  0  0  0  0  0  0  0
   39.8421   25.6075   38.1394 H   0  0  0  0  0  0  0  0  0  0  0  0
   38.9595   25.4335   40.6968 H   0  0  0  0  0  0  0  0  0  0  0  0
   38.1841   30.4962   42.7688 H   0  0  0  0  0  0  0  0  0  0  0  0
   39.9149   32.2499   42.7557 H   0  0  0  0  0  0  0  0  0  0  0  0
   42.3327   31.7016   42.7842 H   0  0  0  0  0  0  0  0  0  0  0  0
   42.9719   29.2786   42.8310 H   0  0  0  0  0  0  0  0  0  0  0  0
  1  2  1  0
  1  5  1  0
  2  3  1  0
  3  4  1  0
  5  4  1  0
  6 11  2  0
  6  7  1  0
  7  8  2  0
  8  9  1  0
 10 12  1  0
 10  9  2  0
 11 10  1  0
 12 16  1  0
 13 14  2  0
 13 12  1  0
 14 15  1  0
 15 16  2  0
 16  1  1  0
 17  5  1  0
 17 22  1  0
 18 17  2  0
 19 18  1  0
 19 20  2  0
 20 21  1  0
 21 22  2  0
  1 23  1  6
  2 24  1  0
  2 25  1  0
  3 26  1  0
  3 27  1  0
  4 28  1  0
  4 29  1  0
  5 30  1  6
  6 31  1  0
  7 32  1  0
  8 33  1  0
 14 34  1  0
 15 35  1  0
 18 36  1  0
 19 37  1  0
 20 38  1  0
 21 39  1  0
M  ISO  8  23  13  24  13  25  13  26  13  27  13  28  13  29  13  30  13
M  ISO  8  31  14  32  14  33  14  34  14  35  14  36  14  37  14  38  14
M  ISO  1  39  14
M  END
>  <minimizedAffinity>  (1) 
-5.45805216

>  <minimizedRMSD>  (1) 
5.02074242

$$$$
