
     RDKit          3D

 26 27  0  0  0  0  0  0  0  0999 V2000
   36.9150   30.0800   41.6660 C   0  0  0  0  0  0  0  0  0  0  0  0
   38.1750   30.7340   41.5430 C   0  0  0  0  0  0  0  0  0  0  0  0
   39.3350   30.0050   41.9100 C   0  0  0  0  0  0  0  0  0  0  0  0
   39.1790   28.7270   42.3560 N   0  0  0  0  0  0  0  0  0  0  0  0
   37.9510   28.1550   42.4510 C   0  0  0  0  0  0  0  0  0  0  0  0
   36.8210   28.8370   42.1050 N   0  0  0  0  0  0  0  0  0  0  0  0
   35.7700   30.8250   41.2960 N   0  0  0  0  0  0  0  0  0  0  0  0
   37.9390   26.8520   42.9200 O   0  0  0  0  0  0  0  0  0  0  0  0
   38.0340   23.4120   40.5220 C   0  0  0  0  0  0  0  0  0  0  0  0
   36.8190   23.8690   41.0460 C   0  0  0  0  0  0  0  0  0  0  0  0
   36.8270   25.0170   41.8400 C   0  0  0  0  0  0  0  0  0  0  0  0
   37.9890   25.7310   42.1350 C   0  0  0  0  0  0  0  0  0  0  0  0
   39.1580   25.2170   41.5790 C   0  0  0  0  0  0  0  0  0  0  0  0
   39.2070   24.0870   40.7890 C   0  0  0  0  0  0  0  0  0  0  0  0
   38.0500   21.9740   39.5240 S   0  0  0  0  0  0  0  0  0  0  0  0
   37.9650   20.7720   40.4300 O   0  0  0  0  0  0  0  0  0  0  0  0
   39.2970   21.9200   38.7180 O   0  0  0  0  0  0  0  0  0  0  0  0
   38.2456   31.7686   41.1761 H   0  0  0  0  0  0  0  0  0  0  0  0
   40.3341   30.4593   41.8365 H   0  0  0  0  0  0  0  0  0  0  0  0
   35.8723   31.7922   40.9570 H   0  0  0  0  0  0  0  0  0  0  0  0
   34.8344   30.4000   41.3657 H   0  0  0  0  0  0  0  0  0  0  0  0
   35.8798   23.3358   40.8369 H   0  0  0  0  0  0  0  0  0  0  0  0
   35.8724   25.3757   42.2525 H   0  0  0  0  0  0  0  0  0  0  0  0
   40.1012   25.7451   41.7825 H   0  0  0  0  0  0  0  0  0  0  0  0
   40.1638   23.7309   40.3796 H   0  0  0  0  0  0  0  0  0  0  0  0
   36.9868   21.9907   38.6602 H   0  0  0  0  0  0  0  0  0  0  0  0
  1  6  2  0
  2  1  1  0
  2  3  2  0
  3  4  1  0
  4  5  2  0
  5  8  1  0
  6  5  1  0
  7  1  1  0
  9 14  2  0
  9 10  1  0
 10 11  2  0
 11 12  1  0
 12  8  1  0
 13 12  2  0
 14 13  1  0
 15 16  2  0
 15  9  1  0
 17 15  2  0
  2 18  1  0
  3 19  1  0
  7 20  1  0
  7 21  1  0
 10 22  1  0
 11 23  1  0
 13 24  1  0
 14 25  1  0
 15 26  1  0
M  ISO  7  18  14  19  14  22  14  23  14  24  14  25  14  26  11
M  END
>  <minimizedAffinity>  (1) 
-4.56411457

>  <minimizedRMSD>  (1) 
3.8989985

$$$$
