
     RDKit          3D

 20 21  0  0  0  0  0  0  0  0999 V2000
   37.3840   29.7620   41.9040 C   0  0  0  0  0  0  0  0  0  0  0  0
   38.4650   29.5920   42.8030 C   0  0  0  0  0  0  0  0  0  0  0  0
   39.5660   30.4900   42.6930 C   0  0  0  0  0  0  0  0  0  0  0  0
   39.5090   31.4540   41.7310 N   0  0  0  0  0  0  0  0  0  0  0  0
   38.4390   31.5680   40.8920 C   0  0  0  0  0  0  0  0  0  0  0  0
   37.3910   30.7190   40.9920 N   0  0  0  0  0  0  0  0  0  0  0  0
   36.2990   28.8750   42.0130 N   0  0  0  0  0  0  0  0  0  0  0  0
   38.5510   32.6000   39.9810 O   0  0  0  0  0  0  0  0  0  0  0  0
   39.5150   32.6650   39.0020 C   0  0  0  0  0  0  0  0  0  0  0  0
   40.8070   33.1680   38.8590 C   0  0  0  0  0  0  0  0  0  0  0  0
   41.1840   32.8700   37.5650 C   0  0  0  0  0  0  0  0  0  0  0  0
   40.1650   32.2220   36.9640 N   0  0  0  0  0  0  0  0  0  0  0  0
   39.1600   32.0930   37.8160 N   0  0  0  0  0  0  0  0  0  0  0  0
   38.4551   28.7942   43.5602 H   0  0  0  0  0  0  0  0  0  0  0  0
   40.4344   30.4078   43.3632 H   0  0  0  0  0  0  0  0  0  0  0  0
   35.4936   28.9659   41.3774 H   0  0  0  0  0  0  0  0  0  0  0  0
   36.3093   28.1341   42.7285 H   0  0  0  0  0  0  0  0  0  0  0  0
   41.4028   33.6936   39.6198 H   0  0  0  0  0  0  0  0  0  0  0  0
   42.1507   33.1186   37.1027 H   0  0  0  0  0  0  0  0  0  0  0  0
   40.1683   31.8803   35.9923 H   0  0  0  0  0  0  0  0  0  0  0  0
  1  7  1  0
  1  2  2  0
  3  2  1  0
  4  3  2  0
  5  6  2  0
  5  4  1  0
  6  1  1  0
  8  5  1  0
  9  8  1  0
 10  9  1  0
 11 10  2  0
 12 11  1  0
 12 13  1  0
 13  9  2  0
  2 14  1  0
  3 15  1  0
  7 16  1  0
  7 17  1  0
 10 18  1  0
 11 19  1  0
 12 20  1  0
M  ISO  5  14  14  15  14  18  14  19  14  20   9
M  END
>  <minimizedAffinity>  (1) 
-4.08966494

>  <minimizedRMSD>  (1) 
6.94874144

$$$$
