
     RDKit          3D

 22 23  0  0  0  0  0  0  0  0999 V2000
   37.2260   28.9100   42.4680 C   0  0  0  0  0  0  0  0  0  0  0  0
   38.5330   29.0530   42.9810 C   0  0  0  0  0  0  0  0  0  0  0  0
   39.2570   27.8660   43.2850 C   0  0  0  0  0  0  0  0  0  0  0  0
   38.6400   26.6610   43.0600 N   0  0  0  0  0  0  0  0  0  0  0  0
   37.3870   26.5990   42.5670 C   0  0  0  0  0  0  0  0  0  0  0  0
   36.6740   27.7150   42.2680 N   0  0  0  0  0  0  0  0  0  0  0  0
   36.5160   30.0830   42.1680 N   0  0  0  0  0  0  0  0  0  0  0  0
   36.8800   25.3270   42.3860 O   0  0  0  0  0  0  0  0  0  0  0  0
   36.9580   24.5740   41.2460 C   0  0  0  0  0  0  0  0  0  0  0  0
   37.8660   23.5210   41.3990 C   0  0  0  0  0  0  0  0  0  0  0  0
   38.1160   22.6170   40.3670 C   0  0  0  0  0  0  0  0  0  0  0  0
   37.4420   22.7760   39.1700 C   0  0  0  0  0  0  0  0  0  0  0  0
   36.5560   23.8290   39.0690 C   0  0  0  0  0  0  0  0  0  0  0  0
   36.3170   24.7010   40.0650 N   0  0  0  0  0  0  0  0  0  0  0  0
   38.9765   30.0469   43.1403 H   0  0  0  0  0  0  0  0  0  0  0  0
   40.2795   27.9130   43.6878 H   0  0  0  0  0  0  0  0  0  0  0  0
   35.5591   30.0238   41.7916 H   0  0  0  0  0  0  0  0  0  0  0  0
   36.9519   31.0030   42.3242 H   0  0  0  0  0  0  0  0  0  0  0  0
   38.3954   23.4032   42.3560 H   0  0  0  0  0  0  0  0  0  0  0  0
   38.8342   21.7948   40.5023 H   0  0  0  0  0  0  0  0  0  0  0  0
   37.6064   22.0874   38.3281 H   0  0  0  0  0  0  0  0  0  0  0  0
   36.0147   23.9629   38.1208 H   0  0  0  0  0  0  0  0  0  0  0  0
  1  2  2  0
  2  3  1  0
  4  3  2  0
  5  4  1  0
  6  1  1  0
  6  5  2  0
  7  1  1  0
  8  5  1  0
  9 10  2  0
  9  8  1  0
 11 10  1  0
 12 11  2  0
 13 12  1  0
 13 14  2  0
 14  9  1  0
  2 15  1  0
  3 16  1  0
  7 17  1  0
  7 18  1  0
 10 19  1  0
 11 20  1  0
 12 21  1  0
 13 22  1  0
M  ISO  6  15  14  16  14  19  14  20  14  21  14  22  14
M  END
>  <minimizedAffinity>  (1) 
-4.0761075

>  <minimizedRMSD>  (1) 
2.46143985

$$$$
