
     RDKit          3D

 16 16  0  0  0  0  0  0  0  0999 V2000
   36.8390   30.0320   41.6090 C   0  0  0  0  0  0  0  0  0  0  0  0
   38.1610   30.4760   41.4310 C   0  0  0  0  0  0  0  0  0  0  0  0
   39.2070   29.5810   41.7640 C   0  0  0  0  0  0  0  0  0  0  0  0
   38.8660   28.3370   42.2390 N   0  0  0  0  0  0  0  0  0  0  0  0
   37.5760   27.9720   42.3870 C   0  0  0  0  0  0  0  0  0  0  0  0
   36.5710   28.8190   42.0720 N   0  0  0  0  0  0  0  0  0  0  0  0
   35.7970   30.9200   41.2790 N   0  0  0  0  0  0  0  0  0  0  0  0
   37.3730   26.6940   42.8740 O   0  0  0  0  0  0  0  0  0  0  0  0
   37.2790   25.5550   42.0410 C   0  0  0  0  0  0  0  0  0  0  0  0
   36.8130   25.8960   40.7750 F   0  0  0  0  0  0  0  0  0  0  0  0
   38.5070   24.9320   41.8520 F   0  0  0  0  0  0  0  0  0  0  0  0
   36.4140   24.6430   42.6110 F   0  0  0  0  0  0  0  0  0  0  0  0
   38.3756   31.4839   41.0463 H   0  0  0  0  0  0  0  0  0  0  0  0
   40.2610   29.8728   41.6460 H   0  0  0  0  0  0  0  0  0  0  0  0
   36.0160   31.8603   40.9200 H   0  0  0  0  0  0  0  0  0  0  0  0
   34.8159   30.6292   41.3966 H   0  0  0  0  0  0  0  0  0  0  0  0
  1  6  2  0
  2  1  1  0
  2  3  2  0
  3  4  1  0
  4  5  2  0
  5  8  1  0
  6  5  1  0
  7  1  1  0
  9 12  1  0
  9  8  1  0
 10  9  1  0
 11  9  1  0
  2 13  1  0
  3 14  1  0
  7 15  1  0
  7 16  1  0
M  ISO  2  13  14  14  14
M  END
>  <minimizedAffinity>  (1) 
-4.03040695

>  <minimizedRMSD>  (1) 
1.65306509

$$$$
