
     RDKit          3D

 26 27  0  0  1  0  0  0  0  0999 V2000
   36.8250   29.4570   41.8720 C   0  0  0  0  0  0  0  0  0  0  0  0
   38.0440   29.7550   42.5440 C   0  0  0  0  0  0  0  0  0  0  0  0
   38.8760   28.6490   42.8850 C   0  0  0  0  0  0  0  0  0  0  0  0
   38.4560   27.3940   42.5480 N   0  0  0  0  0  0  0  0  0  0  0  0
   37.2780   27.1780   41.9050 C   0  0  0  0  0  0  0  0  0  0  0  0
   36.4820   28.2140   41.5770 N   0  0  0  0  0  0  0  0  0  0  0  0
   35.9940   30.5410   41.5290 N   0  0  0  0  0  0  0  0  0  0  0  0
   36.9980   25.8530   41.6380 O   0  0  0  0  0  0  0  0  0  0  0  0
   38.7910   23.3520   40.2180 N   0  0  0  0  0  0  0  0  0  0  0  0
   38.9840   24.5400   39.4690 C   0  0  0  0  0  0  0  0  0  0  0  0
   37.9400   25.5880   39.4980 C   0  0  0  0  0  0  0  0  0  0  0  0
   36.7530   25.3320   40.3560 C   0  0  1  0  0  0  0  0  0  0  0  0
   36.5170   23.8300   40.5750 C   0  0  0  0  0  0  0  0  0  0  0  0
   37.8100   23.3960   41.2630 C   0  0  0  0  0  0  0  0  0  0  0  0
   38.3300   30.7887   42.7883 H   0  0  0  0  0  0  0  0  0  0  0  0
   39.8323   28.8025   43.4065 H   0  0  0  0  0  0  0  0  0  0  0  0
   35.1023   30.3723   41.0418 H   0  0  0  0  0  0  0  0  0  0  0  0
   36.2779   31.5025   41.7653 H   0  0  0  0  0  0  0  0  0  0  0  0
   39.3303   22.4969   40.0208 H   0  0  0  0  0  0  0  0  0  0  0  0
   39.8983   24.6809   38.8738 H   0  0  0  0  0  0  0  0  0  0  0  0
   38.0375   26.5137   38.9119 H   0  0  0  0  0  0  0  0  0  0  0  0
   35.8893   25.7906   39.8522 H   0  0  0  0  0  0  0  0  0  0  0  0
   35.6436   23.6536   41.2200 H   0  0  0  0  0  0  0  0  0  0  0  0
   36.3034   23.2773   39.6482 H   0  0  0  0  0  0  0  0  0  0  0  0
   37.6893   22.4035   41.7218 H   0  0  0  0  0  0  0  0  0  0  0  0
   38.0985   24.0841   42.0712 H   0  0  0  0  0  0  0  0  0  0  0  0
  1  2  2  0
  2  3  1  0
  4  3  2  0
  5  4  1  0
  6  1  1  0
  6  5  2  0
  7  1  1  0
  8  5  1  0
  9 14  1  0
 10 11  2  0
 10  9  1  0
 11 12  1  0
 12 13  1  0
 12  8  1  0
 13 14  1  0
  2 15  1  0
  3 16  1  0
  7 17  1  0
  7 18  1  0
  9 19  1  0
 10 20  1  0
 11 21  1  0
 12 22  1  6
 13 23  1  0
 13 24  1  0
 14 25  1  0
 14 26  1  0
M  ISO  8  15  14  16  14  20  13  21  13  22  13  23  13  24  13  25  13
M  ISO  1  26  13
M  END
>  <minimizedAffinity>  (1) 
-3.9322176

>  <minimizedRMSD>  (1) 
1.51390052

$$$$
