
     RDKit          3D

 20 21  0  0  0  0  0  0  0  0999 V2000
   36.7980   28.4700   41.2440 C   0  0  0  0  0  0  0  0  0  0  0  0
   36.6720   27.8750   42.5090 C   0  0  0  0  0  0  0  0  0  0  0  0
   37.4910   28.4040   43.5460 C   0  0  0  0  0  0  0  0  0  0  0  0
   38.3400   29.4430   43.2540 N   0  0  0  0  0  0  0  0  0  0  0  0
   38.4060   29.9670   42.0070 C   0  0  0  0  0  0  0  0  0  0  0  0
   37.6360   29.4800   41.0040 N   0  0  0  0  0  0  0  0  0  0  0  0
   36.0020   27.9730   40.1900 N   0  0  0  0  0  0  0  0  0  0  0  0
   39.3020   31.0070   41.8600 O   0  0  0  0  0  0  0  0  0  0  0  0
   39.0300   32.1580   41.1310 C   0  0  0  0  0  0  0  0  0  0  0  0
   40.1210   32.8990   40.6870 C   0  0  0  0  0  0  0  0  0  0  0  0
   39.6200   33.9990   39.9850 C   0  0  0  0  0  0  0  0  0  0  0  0
   38.2410   33.8480   40.0540 C   0  0  0  0  0  0  0  0  0  0  0  0
   37.9320   32.7650   40.7280 O   0  0  0  0  0  0  0  0  0  0  0  0
   35.9760   27.0426   42.6897 H   0  0  0  0  0  0  0  0  0  0  0  0
   37.4447   27.9879   44.5632 H   0  0  0  0  0  0  0  0  0  0  0  0
   36.0727   28.3896   39.2507 H   0  0  0  0  0  0  0  0  0  0  0  0
   35.3504   27.1937   40.3601 H   0  0  0  0  0  0  0  0  0  0  0  0
   41.1818   32.6627   40.8571 H   0  0  0  0  0  0  0  0  0  0  0  0
   40.1880   34.8010   39.4908 H   0  0  0  0  0  0  0  0  0  0  0  0
   37.5109   34.5386   39.6069 H   0  0  0  0  0  0  0  0  0  0  0  0
  1  2  2  0
  2  3  1  0
  4  3  2  0
  5  4  1  0
  6  1  1  0
  6  5  2  0
  7  1  1  0
  8  5  1  0
  9  8  1  0
 10  9  2  0
 11 12  2  0
 11 10  1  0
 12 13  1  0
 13  9  1  0
  2 14  1  0
  3 15  1  0
  7 16  1  0
  7 17  1  0
 10 18  1  0
 11 19  1  0
 12 20  1  0
M  ISO  5  14  14  15  14  18  14  19  14  20  14
M  END
>  <minimizedAffinity>  (1) 
-3.74037361

>  <minimizedRMSD>  (1) 
6.39198112

$$$$
