
     RDKit          3D

 17 17  0  0  0  0  0  0  0  0999 V2000
   36.7980   29.3930   41.9840 C   0  0  0  0  0  0  0  0  0  0  0  0
   38.1070   29.7690   42.3850 C   0  0  0  0  0  0  0  0  0  0  0  0
   38.9510   28.7410   42.9030 C   0  0  0  0  0  0  0  0  0  0  0  0
   38.4500   27.4690   42.9800 N   0  0  0  0  0  0  0  0  0  0  0  0
   37.1950   27.1840   42.5800 C   0  0  0  0  0  0  0  0  0  0  0  0
   36.3710   28.1320   42.0840 N   0  0  0  0  0  0  0  0  0  0  0  0
   35.9570   30.3950   41.4710 N   0  0  0  0  0  0  0  0  0  0  0  0
   36.8190   25.8590   42.7130 O   0  0  0  0  0  0  0  0  0  0  0  0
   37.2480   24.8970   41.8190 C   0  0  0  0  0  0  0  0  0  0  0  0
   38.0740   23.8480   42.3010 N   0  0  0  0  0  0  0  0  0  0  0  0
   36.9360   24.9140   40.5950 O   0  0  0  0  0  0  0  0  0  0  0  0
   38.4561   30.8087   42.3001 H   0  0  0  0  0  0  0  0  0  0  0  0
   39.9767   28.9647   43.2316 H   0  0  0  0  0  0  0  0  0  0  0  0
   36.2964   31.3648   41.3981 H   0  0  0  0  0  0  0  0  0  0  0  0
   35.0012   30.1597   41.1678 H   0  0  0  0  0  0  0  0  0  0  0  0
   38.4080   23.1177   41.6560 H   0  0  0  0  0  0  0  0  0  0  0  0
   38.3394   23.8171   43.2957 H   0  0  0  0  0  0  0  0  0  0  0  0
  1  6  2  0
  1  2  1  0
  2  3  2  0
  3  4  1  0
  5  8  1  0
  5  4  2  0
  6  5  1  0
  7  1  1  0
  9 10  1  0
  9  8  1  0
 11  9  2  0
  2 12  1  0
  3 13  1  0
  7 14  1  0
  7 15  1  0
 10 16  1  0
 10 17  1  0
M  ISO  2  12  14  13  14
M  END
>  <minimizedAffinity>  (1) 
-3.72544241

>  <minimizedRMSD>  (1) 
0.340448946

$$$$
