
     RDKit          3D

 25 25  0  0  0  0  0  0  0  0999 V2000
   36.8680   29.2350   41.7470 C   0  0  0  0  0  0  0  0  0  0  0  0
   37.8850   29.4930   42.6940 C   0  0  0  0  0  0  0  0  0  0  0  0
   38.8750   28.4930   42.8820 C   0  0  0  0  0  0  0  0  0  0  0  0
   38.7920   27.3510   42.1450 N   0  0  0  0  0  0  0  0  0  0  0  0
   37.8030   27.1510   41.2520 C   0  0  0  0  0  0  0  0  0  0  0  0
   36.8460   28.1000   41.0610 N   0  0  0  0  0  0  0  0  0  0  0  0
   35.8800   30.2210   41.5520 N   0  0  0  0  0  0  0  0  0  0  0  0
   37.8140   25.9550   40.5580 O   0  0  0  0  0  0  0  0  0  0  0  0
   37.4040   24.7140   41.0600 C   0  0  0  0  0  0  0  0  0  0  0  0
   38.6050   23.8170   41.2700 C   0  0  0  0  0  0  0  0  0  0  0  0
   36.3920   24.0700   40.1590 C   0  0  0  0  0  0  0  0  0  0  0  0
   36.7440   24.9580   42.3970 C   0  0  0  0  0  0  0  0  0  0  0  0
   37.9085   30.4335   43.2640 H   0  0  0  0  0  0  0  0  0  0  0  0
   39.6902   28.6373   43.6062 H   0  0  0  0  0  0  0  0  0  0  0  0
   35.1245   30.0651   40.8695 H   0  0  0  0  0  0  0  0  0  0  0  0
   35.9135   31.0975   42.0920 H   0  0  0  0  0  0  0  0  0  0  0  0
   38.7806   23.6858   42.3479 H   0  0  0  0  0  0  0  0  0  0  0  0
   38.4161   22.8371   40.8073 H   0  0  0  0  0  0  0  0  0  0  0  0
   39.4910   24.2763   40.8073 H   0  0  0  0  0  0  0  0  0  0  0  0
   35.6192   23.5782   40.7680 H   0  0  0  0  0  0  0  0  0  0  0  0
   35.9252   24.8375   39.5242 H   0  0  0  0  0  0  0  0  0  0  0  0
   36.8896   23.3221   39.5242 H   0  0  0  0  0  0  0  0  0  0  0  0
   37.4446   24.6990   43.2045 H   0  0  0  0  0  0  0  0  0  0  0  0
   36.4649   26.0188   42.4800 H   0  0  0  0  0  0  0  0  0  0  0  0
   35.8420   24.3339   42.4800 H   0  0  0  0  0  0  0  0  0  0  0  0
  1  2  2  0
  2  3  1  0
  4  3  2  0
  5  4  1  0
  6  5  2  0
  6  1  1  0
  7  1  1  0
  8  9  1  0
  8  5  1  0
  9 10  1  0
  9 12  1  0
 11  9  1  0
  2 13  1  0
  3 14  1  0
  7 15  1  0
  7 16  1  0
 10 17  1  0
 10 18  1  0
 10 19  1  0
 11 20  1  0
 11 21  1  0
 11 22  1  0
 12 23  1  0
 12 24  1  0
 12 25  1  0
M  ISO  8  13  14  14  14  17   8  18   8  19   8  20   8  21   8  22   8
M  ISO  3  23   8  24   8  25   8
M  END
>  <minimizedAffinity>  (1) 
-3.66801

>  <minimizedRMSD>  (1) 
1.93572366

$$$$
