
     RDKit          3D

 15 15  0  0  0  0  0  0  0  0999 V2000
   37.0180   30.1560   41.7170 C   0  0  0  0  0  0  0  0  0  0  0  0
   38.2130   30.7290   41.2060 C   0  0  0  0  0  0  0  0  0  0  0  0
   39.4290   30.1100   41.5780 C   0  0  0  0  0  0  0  0  0  0  0  0
   39.3970   29.0180   42.3900 N   0  0  0  0  0  0  0  0  0  0  0  0
   38.2200   28.5170   42.8470 C   0  0  0  0  0  0  0  0  0  0  0  0
   37.0400   29.0830   42.5120 N   0  0  0  0  0  0  0  0  0  0  0  0
   35.7940   30.7540   41.3630 N   0  0  0  0  0  0  0  0  0  0  0  0
   38.3180   27.4060   43.6640 O   0  0  0  0  0  0  0  0  0  0  0  0
   39.5480   26.7690   43.8550 C   0  0  0  0  0  0  0  0  0  0  0  0
   39.9080   25.5630   43.8600 O   0  0  0  0  0  0  0  0  0  0  0  0
   38.1936   31.6129   40.5515 H   0  0  0  0  0  0  0  0  0  0  0  0
   40.3890   30.5062   41.2155 H   0  0  0  0  0  0  0  0  0  0  0  0
   35.7834   31.5813   40.7496 H   0  0  0  0  0  0  0  0  0  0  0  0
   34.9089   30.3643   41.7174 H   0  0  0  0  0  0  0  0  0  0  0  0
   40.3755   27.4697   44.0399 H   0  0  0  0  0  0  0  0  0  0  0  0
  1  6  2  0
  2  3  2  0
  2  1  1  0
  3  4  1  0
  4  5  2  0
  5  8  1  0
  6  5  1  0
  7  1  1  0
  8  9  1  0
  9 10  2  0
  2 11  1  0
  3 12  1  0
  7 13  1  0
  7 14  1  0
  9 15  1  0
M  ISO  3  11  14  12  14  15   6
M  END
>  <minimizedAffinity>  (1) 
-3.40870547

>  <minimizedRMSD>  (1) 
2.17496753

$$$$
