
     RDKit          3D

 16 16  0  0  0  0  0  0  0  0999 V2000
   38.1920   28.6280   43.3180 C   0  0  0  0  0  0  0  0  0  0  0  0
   39.2090   29.4480   42.7990 C   0  0  0  0  0  0  0  0  0  0  0  0
   40.5060   28.8750   42.6760 C   0  0  0  0  0  0  0  0  0  0  0  0
   40.6830   27.5790   43.0630 N   0  0  0  0  0  0  0  0  0  0  0  0
   39.6710   26.8370   43.5570 C   0  0  0  0  0  0  0  0  0  0  0  0
   38.4270   27.3770   43.6780 N   0  0  0  0  0  0  0  0  0  0  0  0
   36.9070   29.1850   43.4440 N   0  0  0  0  0  0  0  0  0  0  0  0
   39.9930   25.5380   43.9100 O   0  0  0  0  0  0  0  0  0  0  0  0
   39.7380   24.4020   43.1370 C   0  0  0  0  0  0  0  0  0  0  0  0
   39.0109   30.4881   42.5007 H   0  0  0  0  0  0  0  0  0  0  0  0
   41.3460   29.4634   42.2782 H   0  0  0  0  0  0  0  0  0  0  0  0
   36.7384   30.1605   43.1597 H   0  0  0  0  0  0  0  0  0  0  0  0
   36.1344   28.6175   43.8206 H   0  0  0  0  0  0  0  0  0  0  0  0
   39.5455   23.5442   43.7982 H   0  0  0  0  0  0  0  0  0  0  0  0
   38.8576   24.5805   42.5022 H   0  0  0  0  0  0  0  0  0  0  0  0
   40.6103   24.1871   42.5022 H   0  0  0  0  0  0  0  0  0  0  0  0
  1  7  1  0
  1  6  2  0
  2  1  1  0
  3  2  2  0
  3  4  1  0
  4  5  2  0
  5  6  1  0
  5  8  1  0
  9  8  1  0
  2 10  1  0
  3 11  1  0
  7 12  1  0
  7 13  1  0
  9 14  1  0
  9 15  1  0
  9 16  1  0
M  ISO  5  10  14  11  14  14   8  15   8  16   8
M  END
>  <minimizedAffinity>  (1) 
-3.29283071

>  <minimizedRMSD>  (1) 
2.69204497

$$$$
