
     RDKit          3D

 20 21  0  0  0  0  0  0  0  0999 V2000
   42.1840   25.3640   41.2850 C   0  0  0  0  0  0  0  0  0  0  0  0
   43.0990   25.5800   42.3430 C   0  0  0  0  0  0  0  0  0  0  0  0
   42.5880   25.7850   43.6490 C   0  0  0  0  0  0  0  0  0  0  0  0
   41.2290   25.7630   43.8200 N   0  0  0  0  0  0  0  0  0  0  0  0
   40.3960   25.5520   42.7770 C   0  0  0  0  0  0  0  0  0  0  0  0
   40.8780   25.3560   41.5280 N   0  0  0  0  0  0  0  0  0  0  0  0
   42.6960   25.1630   39.9960 N   0  0  0  0  0  0  0  0  0  0  0  0
   39.0470   25.5540   43.0810 O   0  0  0  0  0  0  0  0  0  0  0  0
   37.5060   28.6820   43.1170 N   0  0  0  0  0  0  0  0  0  0  0  0
   38.4970   27.8770   43.5020 N   0  0  0  0  0  0  0  0  0  0  0  0
   38.2510   26.6600   42.9280 C   0  0  0  0  0  0  0  0  0  0  0  0
   37.0950   26.7160   42.1790 C   0  0  0  0  0  0  0  0  0  0  0  0
   36.6450   28.0080   42.3180 C   0  0  0  0  0  0  0  0  0  0  0  0
   44.1829   25.5886   42.1558 H   0  0  0  0  0  0  0  0  0  0  0  0
   43.2630   25.9568   44.5004 H   0  0  0  0  0  0  0  0  0  0  0  0
   43.7138   25.1747   39.8385 H   0  0  0  0  0  0  0  0  0  0  0  0
   42.0545   25.0036   39.2061 H   0  0  0  0  0  0  0  0  0  0  0  0
   37.4096   29.6711   43.3876 H   0  0  0  0  0  0  0  0  0  0  0  0
   36.6334   25.9045   41.5973 H   0  0  0  0  0  0  0  0  0  0  0  0
   35.7372   28.4245   41.8571 H   0  0  0  0  0  0  0  0  0  0  0  0
  1  6  2  0
  1  2  1  0
  2  3  2  0
  3  4  1  0
  5  8  1  0
  5  4  2  0
  6  5  1  0
  7  1  1  0
  9 10  1  0
 11  8  1  0
 11 10  2  0
 12 13  2  0
 12 11  1  0
 13  9  1  0
  2 14  1  0
  3 15  1  0
  7 16  1  0
  7 17  1  0
  9 18  1  0
 12 19  1  0
 13 20  1  0
M  ISO  5  14  14  15  14  18   9  19  14  20  14
M  END
>  <minimizedAffinity>  (1) 
-3.10344505

>  <minimizedRMSD>  (1) 
5.09995747

$$$$
