
     RDKit          3D

 18 19  0  0  0  0  0  0  0  0999 V2000
   38.2420   24.9200   42.3540 C   0  0  0  0  0  0  0  0  0  0  0  0
   39.4900   24.6040   42.9320 C   0  0  0  0  0  0  0  0  0  0  0  0
   40.1220   25.5980   43.7290 C   0  0  0  0  0  0  0  0  0  0  0  0
   39.4830   26.8000   43.8910 N   0  0  0  0  0  0  0  0  0  0  0  0
   38.2830   27.0460   43.3100 C   0  0  0  0  0  0  0  0  0  0  0  0
   37.6740   26.1150   42.5520 N   0  0  0  0  0  0  0  0  0  0  0  0
   37.6040   23.9530   41.5640 N   0  0  0  0  0  0  0  0  0  0  0  0
   37.7520   28.3070   43.5590 O   0  0  0  0  0  0  0  0  0  0  0  0
   37.7910   29.3370   42.6420 C   0  0  0  0  0  0  0  0  0  0  0  0
   37.0070   29.9500   41.7310 N   0  0  0  0  0  0  0  0  0  0  0  0
   37.6810   30.9150   41.1620 O   0  0  0  0  0  0  0  0  0  0  0  0
   38.8880   30.9770   41.6540 C   0  0  0  0  0  0  0  0  0  0  0  0
   38.9850   29.9950   42.5880 N   0  0  0  0  0  0  0  0  0  0  0  0
   39.9583   23.6217   42.7715 H   0  0  0  0  0  0  0  0  0  0  0  0
   41.0965   25.4076   44.2023 H   0  0  0  0  0  0  0  0  0  0  0  0
   38.0470   23.0350   41.4157 H   0  0  0  0  0  0  0  0  0  0  0  0
   36.6923   24.1607   41.1320 H   0  0  0  0  0  0  0  0  0  0  0  0
   39.6764   31.6885   41.3673 H   0  0  0  0  0  0  0  0  0  0  0  0
  1  6  2  0
  1  2  1  0
  2  3  2  0
  3  4  1  0
  5  8  1  0
  5  4  2  0
  6  5  1  0
  7  1  1  0
  9  8  1  0
 10  9  2  0
 11 12  1  0
 11 10  1  0
 12 13  2  0
 13  9  1  0
  2 14  1  0
  3 15  1  0
  7 16  1  0
  7 17  1  0
 12 18  1  0
M  ISO  3  14  14  15  14  18  14
M  END
>  <minimizedAffinity>  (1) 
-3.80673909

>  <minimizedRMSD>  (1) 
5.15269327

$$$$
