
     RDKit          3D

 38 41  0  0  1  0  0  0  0  0999 V2000
   38.7470   31.4770   40.1640 C   0  0  1  0  0  0  0  0  0  0  0  0
   39.4970   32.8170   40.1950 C   0  0  0  0  0  0  0  0  0  0  0  0
   38.3450   33.8060   40.1280 C   0  0  0  0  0  0  0  0  0  0  0  0
   37.2000   33.0660   39.4990 C   0  0  0  0  0  0  0  0  0  0  0  0
   37.7850   31.7430   39.0400 C   0  0  2  0  0  0  0  0  0  0  0  0
   39.1670   27.0960   43.3470 C   0  0  0  0  0  0  0  0  0  0  0  0
   38.0060   27.6200   43.9450 C   0  0  0  0  0  0  0  0  0  0  0  0
   37.4330   28.7260   43.3350 C   0  0  0  0  0  0  0  0  0  0  0  0
   38.0200   29.2270   42.2150 N   0  0  0  0  0  0  0  0  0  0  0  0
   39.1170   28.7180   41.6660 C   0  0  0  0  0  0  0  0  0  0  0  0
   39.7050   27.6330   42.2380 N   0  0  0  0  0  0  0  0  0  0  0  0
   39.7790   29.2010   40.5050 N   0  0  0  0  0  0  0  0  0  0  0  0
   40.6770   28.4110   39.9510 N   0  0  0  0  0  0  0  0  0  0  0  0
   41.2060   29.0560   38.8690 C   0  0  0  0  0  0  0  0  0  0  0  0
   40.5580   30.2980   38.8120 C   0  0  0  0  0  0  0  0  0  0  0  0
   39.6500   30.3740   39.8630 C   0  0  0  0  0  0  0  0  0  0  0  0
   36.7540   30.7000   38.8860 C   0  0  0  0  0  0  0  0  0  0  0  0
   36.4720   30.0040   37.7110 C   0  0  0  0  0  0  0  0  0  0  0  0
   35.4670   29.0590   37.7600 C   0  0  0  0  0  0  0  0  0  0  0  0
   34.7680   28.7960   38.8780 N   0  0  0  0  0  0  0  0  0  0  0  0
   35.0680   29.4870   39.9920 C   0  0  0  0  0  0  0  0  0  0  0  0
   36.0380   30.4140   39.9840 N   0  0  0  0  0  0  0  0  0  0  0  0
   38.2724   31.1806   41.1111 H   0  0  0  0  0  0  0  0  0  0  0  0
   40.0742   32.9338   41.1241 H   0  0  0  0  0  0  0  0  0  0  0  0
   40.2394   32.9359   39.3921 H   0  0  0  0  0  0  0  0  0  0  0  0
   38.0724   34.1442   41.1386 H   0  0  0  0  0  0  0  0  0  0  0  0
   38.6149   34.6999   39.5466 H   0  0  0  0  0  0  0  0  0  0  0  0
   36.3985   32.8991   40.2337 H   0  0  0  0  0  0  0  0  0  0  0  0
   36.7545   33.6295   38.6659 H   0  0  0  0  0  0  0  0  0  0  0  0
   38.2530   31.7562   38.0446 H   0  0  0  0  0  0  0  0  0  0  0  0
   39.6501   26.2185   43.8016 H   0  0  0  0  0  0  0  0  0  0  0  0
   37.5736   27.1738   44.8527 H   0  0  0  0  0  0  0  0  0  0  0  0
   36.5240   29.1878   43.7479 H   0  0  0  0  0  0  0  0  0  0  0  0
   41.9800   28.6790   38.1844 H   0  0  0  0  0  0  0  0  0  0  0  0
   40.7377   31.0817   38.0613 H   0  0  0  0  0  0  0  0  0  0  0  0
   37.0281   30.2001   36.7824 H   0  0  0  0  0  0  0  0  0  0  0  0
   35.2278   28.4970   36.8451 H   0  0  0  0  0  0  0  0  0  0  0  0
   34.5118   29.2900   40.9204 H   0  0  0  0  0  0  0  0  0  0  0  0
  1  2  1  0
  3  2  1  0
  4  3  1  0
  5  4  1  0
  5  1  1  0
  6  7  2  0
  8  7  1  0
  9  8  2  0
 10  9  1  0
 10 11  2  0
 11  6  1  0
 12 10  1  0
 13 12  1  0
 14 13  2  0
 15 14  1  0
 15 16  2  0
 16  1  1  0
 16 12  1  0
 17  5  1  0
 17 22  2  0
 18 19  2  0
 18 17  1  0
 19 20  1  0
 20 21  2  0
 22 21  1  0
  1 23  1  1
  2 24  1  0
  2 25  1  0
  3 26  1  0
  3 27  1  0
  4 28  1  0
  4 29  1  0
  5 30  1  6
  6 31  1  0
  7 32  1  0
  8 33  1  0
 14 34  1  0
 15 35  1  0
 18 36  1  0
 19 37  1  0
 21 38  1  0
M  ISO  8  23  13  24  13  25  13  26  13  27  13  28  13  29  13  30  13
M  ISO  8  31  14  32  14  33  14  34  14  35  14  36  14  37  14  38  14
M  END
>  <minimizedAffinity>  (1) 
-5.3602581

>  <minimizedRMSD>  (1) 
6.38935232

$$$$
