
     RDKit          3D

 33 35  0  0  0  0  0  0  0  0999 V2000
   36.9260   27.7710   43.0330 O   0  0  0  0  0  0  0  0  0  0  0  0
   36.6700   28.5670   41.9380 C   0  0  0  0  0  0  0  0  0  0  0  0
   35.7830   28.7080   40.9400 N   0  0  0  0  0  0  0  0  0  0  0  0
   36.1290   29.7180   40.1850 O   0  0  0  0  0  0  0  0  0  0  0  0
   37.2200   30.2600   40.6430 C   0  0  0  0  0  0  0  0  0  0  0  0
   37.5870   29.5630   41.7390 N   0  0  0  0  0  0  0  0  0  0  0  0
   37.8420   31.3830   40.0300 N   0  0  0  0  0  0  0  0  0  0  0  0
   37.0500   32.3380   39.3310 C   0  0  0  0  0  0  0  0  0  0  0  0
   37.4190   33.7660   39.5930 C   0  0  0  0  0  0  0  0  0  0  0  0
   38.7670   34.0160   40.1500 C   0  0  0  0  0  0  0  0  0  0  0  0
   39.4180   32.9030   40.8890 C   0  0  0  0  0  0  0  0  0  0  0  0
   39.2750   31.6200   40.0760 C   0  0  0  0  0  0  0  0  0  0  0  0
   38.5270   24.5850   42.4040 C   0  0  0  0  0  0  0  0  0  0  0  0
   39.7360   24.7430   43.1120 C   0  0  0  0  0  0  0  0  0  0  0  0
   39.9440   25.9660   43.7870 C   0  0  0  0  0  0  0  0  0  0  0  0
   38.9710   26.9290   43.7190 N   0  0  0  0  0  0  0  0  0  0  0  0
   37.8290   26.7140   43.0200 C   0  0  0  0  0  0  0  0  0  0  0  0
   37.6070   25.5470   42.3650 N   0  0  0  0  0  0  0  0  0  0  0  0
   38.2980   23.3700   41.7240 N   0  0  0  0  0  0  0  0  0  0  0  0
   36.0001   32.1952   39.6266 H   0  0  0  0  0  0  0  0  0  0  0  0
   37.2243   32.1627   38.2591 H   0  0  0  0  0  0  0  0  0  0  0  0
   37.3475   34.3085   38.6388 H   0  0  0  0  0  0  0  0  0  0  0  0
   36.7190   34.1059   40.3705 H   0  0  0  0  0  0  0  0  0  0  0  0
   39.4259   34.2854   39.3114 H   0  0  0  0  0  0  0  0  0  0  0  0
   38.6191   34.8050   40.9021 H   0  0  0  0  0  0  0  0  0  0  0  0
   40.4842   33.1306   41.0352 H   0  0  0  0  0  0  0  0  0  0  0  0
   38.9390   32.7773   41.8712 H   0  0  0  0  0  0  0  0  0  0  0  0
   39.7925   30.7851   40.5711 H   0  0  0  0  0  0  0  0  0  0  0  0
   39.7196   31.7055   39.0735 H   0  0  0  0  0  0  0  0  0  0  0  0
   40.4901   23.9426   43.1377 H   0  0  0  0  0  0  0  0  0  0  0  0
   40.8687   26.1423   44.3561 H   0  0  0  0  0  0  0  0  0  0  0  0
   37.4225   23.2304   41.1997 H   0  0  0  0  0  0  0  0  0  0  0  0
   39.0063   22.6228   41.7520 H   0  0  0  0  0  0  0  0  0  0  0  0
  2  1  1  0
  3  2  2  0
  4  5  1  0
  4  3  1  0
  5  6  2  0
  6  2  1  0
  7 12  1  0
  7  5  1  0
  8  9  1  0
  8  7  1  0
  9 10  1  0
 10 11  1  0
 12 11  1  0
 13 14  2  0
 14 15  1  0
 16 15  2  0
 17  1  1  0
 17 16  1  0
 18 13  1  0
 18 17  2  0
 19 13  1  0
  8 20  1  0
  8 21  1  0
  9 22  1  0
  9 23  1  0
 10 24  1  0
 10 25  1  0
 11 26  1  0
 11 27  1  0
 12 28  1  0
 12 29  1  0
 14 30  1  0
 15 31  1  0
 19 32  1  0
 19 33  1  0
M  ISO  8  20  13  21  13  22  13  23  13  24  13  25  13  26  13  27  13
M  ISO  4  28  13  29  13  30  14  31  14
M  END
>  <minimizedAffinity>  (1) 
-5.6135993

>  <minimizedRMSD>  (1) 
1.92852461

$$$$
