
     RDKit          3D

 25 27  0  0  0  0  0  0  0  0999 V2000
   37.4010   27.8720   43.3870 O   0  0  0  0  0  0  0  0  0  0  0  0
   38.4720   24.5540   42.3620 C   0  0  0  0  0  0  0  0  0  0  0  0
   39.7610   24.4970   42.9470 C   0  0  0  0  0  0  0  0  0  0  0  0
   40.1970   25.6310   43.6780 C   0  0  0  0  0  0  0  0  0  0  0  0
   39.3550   26.7160   43.7810 N   0  0  0  0  0  0  0  0  0  0  0  0
   38.1340   26.7050   43.1950 C   0  0  0  0  0  0  0  0  0  0  0  0
   37.7030   25.6310   42.4950 N   0  0  0  0  0  0  0  0  0  0  0  0
   38.0150   23.4470   41.6330 N   0  0  0  0  0  0  0  0  0  0  0  0
   36.9800   28.6670   42.3400 C   0  0  0  0  0  0  0  0  0  0  0  0
   36.0520   28.6960   41.3470 N   0  0  0  0  0  0  0  0  0  0  0  0
   36.2060   29.7920   40.6700 O   0  0  0  0  0  0  0  0  0  0  0  0
   37.1800   30.5150   41.1350 C   0  0  0  0  0  0  0  0  0  0  0  0
   37.6830   29.8170   42.1940 N   0  0  0  0  0  0  0  0  0  0  0  0
   37.5810   31.8020   40.5700 C   0  0  0  0  0  0  0  0  0  0  0  0
   38.9070   32.0700   40.2890 C   0  0  0  0  0  0  0  0  0  0  0  0
   38.9220   33.3310   39.7850 N   0  0  0  0  0  0  0  0  0  0  0  0
   37.6690   33.8130   39.7580 C   0  0  0  0  0  0  0  0  0  0  0  0
   36.8320   32.8520   40.2510 N   0  0  0  0  0  0  0  0  0  0  0  0
   40.3989   23.6075   42.8383 H   0  0  0  0  0  0  0  0  0  0  0  0
   41.1887   25.6439   44.1537 H   0  0  0  0  0  0  0  0  0  0  0  0
   38.6130   22.6145   41.5319 H   0  0  0  0  0  0  0  0  0  0  0  0
   37.0813   23.4663   41.1986 H   0  0  0  0  0  0  0  0  0  0  0  0
   39.7684   31.4030   40.4413 H   0  0  0  0  0  0  0  0  0  0  0  0
   37.3684   34.8090   39.4008 H   0  0  0  0  0  0  0  0  0  0  0  0
   35.8101   32.9276   40.3559 H   0  0  0  0  0  0  0  0  0  0  0  0
  2  7  2  0
  2  3  1  0
  3  4  2  0
  4  5  1  0
  6  1  1  0
  6  5  2  0
  7  6  1  0
  8  2  1  0
  9  1  1  0
 10  9  2  0
 11 12  1  0
 11 10  1  0
 12 13  2  0
 13  9  1  0
 14 12  1  0
 15 14  2  0
 16 15  1  0
 17 16  2  0
 17 18  1  0
 18 14  1  0
  3 19  1  0
  4 20  1  0
  8 21  1  0
  8 22  1  0
 15 23  1  0
 17 24  1  0
 18 25  1  0
M  ISO  5  19  14  20  14  23  14  24  14  25   9
M  END
>  <minimizedAffinity>  (1) 
-5.46497488

>  <minimizedRMSD>  (1) 
1.8074261

$$$$
