
     RDKit          3D

 31 33  0  0  0  0  0  0  0  0999 V2000
   37.4520   28.1500   43.3280 O   0  0  0  0  0  0  0  0  0  0  0  0
   38.4070   24.7690   42.4530 C   0  0  0  0  0  0  0  0  0  0  0  0
   39.6710   24.6710   43.0530 C   0  0  0  0  0  0  0  0  0  0  0  0
   40.1560   25.8160   43.7590 C   0  0  0  0  0  0  0  0  0  0  0  0
   39.3720   26.9280   43.8090 N   0  0  0  0  0  0  0  0  0  0  0  0
   38.1500   26.9600   43.2040 C   0  0  0  0  0  0  0  0  0  0  0  0
   37.6930   25.8920   42.5430 N   0  0  0  0  0  0  0  0  0  0  0  0
   37.9190   23.6560   41.7590 N   0  0  0  0  0  0  0  0  0  0  0  0
   37.2150   29.0030   42.2740 C   0  0  0  0  0  0  0  0  0  0  0  0
   36.3420   29.1930   41.2760 N   0  0  0  0  0  0  0  0  0  0  0  0
   36.6850   30.2310   40.5780 O   0  0  0  0  0  0  0  0  0  0  0  0
   37.7810   30.7720   41.0640 C   0  0  0  0  0  0  0  0  0  0  0  0
   38.1130   30.0050   42.1220 N   0  0  0  0  0  0  0  0  0  0  0  0
   38.4580   31.9200   40.5650 N   0  0  0  0  0  0  0  0  0  0  0  0
   39.8920   31.9950   40.7470 C   0  0  0  0  0  0  0  0  0  0  0  0
   40.4820   33.3320   40.4670 C   0  0  0  0  0  0  0  0  0  0  0  0
   39.6560   34.2010   39.7610 O   0  0  0  0  0  0  0  0  0  0  0  0
   38.3840   34.2730   40.2910 C   0  0  0  0  0  0  0  0  0  0  0  0
   37.7010   32.9540   39.9050 C   0  0  0  0  0  0  0  0  0  0  0  0
   40.2664   23.7487   42.9831 H   0  0  0  0  0  0  0  0  0  0  0  0
   41.1400   25.7988   44.2504 H   0  0  0  0  0  0  0  0  0  0  0  0
   38.4846   22.7972   41.7001 H   0  0  0  0  0  0  0  0  0  0  0  0
   36.9942   23.6956   41.3072 H   0  0  0  0  0  0  0  0  0  0  0  0
   40.1199   31.7309   41.7902 H   0  0  0  0  0  0  0  0  0  0  0  0
   40.3358   31.2994   40.0195 H   0  0  0  0  0  0  0  0  0  0  0  0
   40.7314   33.8036   41.4290 H   0  0  0  0  0  0  0  0  0  0  0  0
   41.3599   33.1540   39.8285 H   0  0  0  0  0  0  0  0  0  0  0  0
   38.4292   34.3762   41.3852 H   0  0  0  0  0  0  0  0  0  0  0  0
   37.8323   35.1443   39.9084 H   0  0  0  0  0  0  0  0  0  0  0  0
   36.6569   32.9462   40.2511 H   0  0  0  0  0  0  0  0  0  0  0  0
   37.6786   32.8102   38.8147 H   0  0  0  0  0  0  0  0  0  0  0  0
  2  7  2  0
  2  3  1  0
  3  4  2  0
  4  5  1  0
  6  1  1  0
  6  5  2  0
  7  6  1  0
  8  2  1  0
  9  1  1  0
 10  9  2  0
 11 12  1  0
 11 10  1  0
 12 13  2  0
 13  9  1  0
 14 15  1  0
 14 12  1  0
 16 15  1  0
 17 18  1  0
 17 16  1  0
 19 18  1  0
 19 14  1  0
  3 20  1  0
  4 21  1  0
  8 22  1  0
  8 23  1  0
 15 24  1  0
 15 25  1  0
 16 26  1  0
 16 27  1  0
 18 28  1  0
 18 29  1  0
 19 30  1  0
 19 31  1  0
M  ISO  8  20  14  21  14  24  13  25  13  26  13  27  13  28  13  29  13
M  ISO  2  30  13  31  13
M  END
>  <minimizedAffinity>  (1) 
-5.45406294

>  <minimizedRMSD>  (1) 
1.31534541

$$$$
