
     RDKit          3D

 26 28  0  0  0  0  0  0  0  0999 V2000
   36.2990   30.5080   41.4110 O   0  0  0  0  0  0  0  0  0  0  0  0
   37.1400   26.9730   41.5280 C   0  0  0  0  0  0  0  0  0  0  0  0
   37.8960   26.9250   42.7280 C   0  0  0  0  0  0  0  0  0  0  0  0
   38.0770   28.1300   43.4430 C   0  0  0  0  0  0  0  0  0  0  0  0
   37.5180   29.2730   42.9430 N   0  0  0  0  0  0  0  0  0  0  0  0
   36.8080   29.2660   41.7960 C   0  0  0  0  0  0  0  0  0  0  0  0
   36.6210   28.1270   41.0950 N   0  0  0  0  0  0  0  0  0  0  0  0
   36.9420   25.7930   40.7950 N   0  0  0  0  0  0  0  0  0  0  0  0
   36.8440   31.2610   40.3890 C   0  0  0  0  0  0  0  0  0  0  0  0
   36.8040   31.3950   39.0530 N   0  0  0  0  0  0  0  0  0  0  0  0
   37.6040   32.3500   38.6900 O   0  0  0  0  0  0  0  0  0  0  0  0
   38.1940   32.8790   39.7310 C   0  0  0  0  0  0  0  0  0  0  0  0
   37.7260   32.2040   40.8030 N   0  0  0  0  0  0  0  0  0  0  0  0
   39.1740   33.9840   39.7610 C   0  0  0  0  0  0  0  0  0  0  0  0
   38.7810   35.2220   40.2510 C   0  0  0  0  0  0  0  0  0  0  0  0
   39.7820   36.2010   40.2380 C   0  0  0  0  0  0  0  0  0  0  0  0
   41.0160   35.9300   39.7790 N   0  0  0  0  0  0  0  0  0  0  0  0
   41.3510   34.7160   39.3140 C   0  0  0  0  0  0  0  0  0  0  0  0
   40.4120   33.7250   39.3060 N   0  0  0  0  0  0  0  0  0  0  0  0
   38.3272   25.9800   43.0898 H   0  0  0  0  0  0  0  0  0  0  0  0
   38.6538   28.1481   44.3795 H   0  0  0  0  0  0  0  0  0  0  0  0
   36.3952   25.8144   39.9224 H   0  0  0  0  0  0  0  0  0  0  0  0
   37.3435   24.9054   41.1296 H   0  0  0  0  0  0  0  0  0  0  0  0
   37.7636   35.4183   40.6203 H   0  0  0  0  0  0  0  0  0  0  0  0
   39.5543   37.2107   40.6104 H   0  0  0  0  0  0  0  0  0  0  0  0
   42.3687   34.5223   38.9443 H   0  0  0  0  0  0  0  0  0  0  0  0
  1  6  1  0
  2  3  2  0
  3  4  1  0
  5  4  2  0
  6  5  1  0
  7  2  1  0
  7  6  2  0
  8  2  1  0
  9 13  1  0
  9  1  1  0
 10  9  2  0
 11 10  1  0
 11 12  1  0
 12 14  1  0
 12 13  2  0
 14 15  2  0
 16 15  1  0
 17 16  2  0
 18 17  1  0
 19 18  2  0
 19 14  1  0
  3 20  1  0
  4 21  1  0
  8 22  1  0
  8 23  1  0
 15 24  1  0
 16 25  1  0
 18 26  1  0
M  ISO  5  20  14  21  14  24  14  25  14  26  14
M  END
>  <minimizedAffinity>  (1) 
-5.40518045

>  <minimizedRMSD>  (1) 
2.88700986

$$$$
