
     RDKit          3D

 25 27  0  0  0  0  0  0  0  0999 V2000
   36.6530   27.7950   42.8080 O   0  0  0  0  0  0  0  0  0  0  0  0
   38.5320   24.7220   42.4280 C   0  0  0  0  0  0  0  0  0  0  0  0
   39.6920   25.0020   43.1990 C   0  0  0  0  0  0  0  0  0  0  0  0
   39.7640   26.2750   43.8260 C   0  0  0  0  0  0  0  0  0  0  0  0
   38.7310   27.1570   43.6620 N   0  0  0  0  0  0  0  0  0  0  0  0
   37.6450   26.8330   42.9130 C   0  0  0  0  0  0  0  0  0  0  0  0
   37.5460   25.6270   42.3010 N   0  0  0  0  0  0  0  0  0  0  0  0
   38.4260   23.4760   41.7940 N   0  0  0  0  0  0  0  0  0  0  0  0
   36.6190   28.7350   41.8030 C   0  0  0  0  0  0  0  0  0  0  0  0
   36.0320   28.9210   40.6020 N   0  0  0  0  0  0  0  0  0  0  0  0
   36.4180   30.0690   40.1130 O   0  0  0  0  0  0  0  0  0  0  0  0
   37.2350   30.6620   40.9260 C   0  0  0  0  0  0  0  0  0  0  0  0
   37.3740   29.8430   41.9900 N   0  0  0  0  0  0  0  0  0  0  0  0
   37.8890   31.9570   40.7520 C   0  0  0  0  0  0  0  0  0  0  0  0
   37.4470   32.9670   39.9230 C   0  0  0  0  0  0  0  0  0  0  0  0
   38.3700   33.9800   40.0870 C   0  0  0  0  0  0  0  0  0  0  0  0
   39.3200   33.6030   40.9650 N   0  0  0  0  0  0  0  0  0  0  0  0
   39.0160   32.3620   41.3680 N   0  0  0  0  0  0  0  0  0  0  0  0
   40.5007   24.2640   43.3061 H   0  0  0  0  0  0  0  0  0  0  0  0
   40.6385   26.5477   44.4350 H   0  0  0  0  0  0  0  0  0  0  0  0
   37.5928   23.2541   41.2306 H   0  0  0  0  0  0  0  0  0  0  0  0
   39.1813   22.7826   41.8916 H   0  0  0  0  0  0  0  0  0  0  0  0
   36.5576   32.9654   39.2758 H   0  0  0  0  0  0  0  0  0  0  0  0
   38.3351   34.9532   39.5755 H   0  0  0  0  0  0  0  0  0  0  0  0
   40.1285   34.1639   41.2693 H   0  0  0  0  0  0  0  0  0  0  0  0
  1  6  1  0
  2  3  2  0
  3  4  1  0
  5  4  2  0
  6  5  1  0
  7  2  1  0
  7  6  2  0
  8  2  1  0
  9 13  1  0
  9  1  1  0
 10  9  2  0
 11 10  1  0
 11 12  1  0
 12 13  2  0
 14 12  1  0
 14 18  2  0
 15 16  2  0
 15 14  1  0
 16 17  1  0
 17 18  1  0
  3 19  1  0
  4 20  1  0
  8 21  1  0
  8 22  1  0
 15 23  1  0
 16 24  1  0
 17 25  1  0
M  ISO  5  19  14  20  14  23  14  24  14  25   9
M  END
>  <minimizedAffinity>  (1) 
-5.31027269

>  <minimizedRMSD>  (1) 
1.69080484

$$$$
