
     RDKit          3D

 25 27  0  0  0  0  0  0  0  0999 V2000
   36.9430   27.7600   43.1480 O   0  0  0  0  0  0  0  0  0  0  0  0
   38.4790   24.5740   42.3700 C   0  0  0  0  0  0  0  0  0  0  0  0
   39.7270   24.6940   43.0260 C   0  0  0  0  0  0  0  0  0  0  0  0
   39.9720   25.9120   43.7230 C   0  0  0  0  0  0  0  0  0  0  0  0
   39.0140   26.8880   43.7280 N   0  0  0  0  0  0  0  0  0  0  0  0
   37.8370   26.7080   43.0770 C   0  0  0  0  0  0  0  0  0  0  0  0
   37.5760   25.5630   42.4070 N   0  0  0  0  0  0  0  0  0  0  0  0
   38.2030   23.3890   41.6730 N   0  0  0  0  0  0  0  0  0  0  0  0
   36.6790   28.6040   42.0760 C   0  0  0  0  0  0  0  0  0  0  0  0
   35.9220   28.6740   40.9610 N   0  0  0  0  0  0  0  0  0  0  0  0
   36.1600   29.7980   40.3560 O   0  0  0  0  0  0  0  0  0  0  0  0
   37.0440   30.5000   41.0050 C   0  0  0  0  0  0  0  0  0  0  0  0
   37.3880   29.7670   42.0960 N   0  0  0  0  0  0  0  0  0  0  0  0
   37.6070   31.8280   40.6820 C   0  0  0  0  0  0  0  0  0  0  0  0
   37.1130   32.7470   39.7610 C   0  0  0  0  0  0  0  0  0  0  0  0
   37.9360   33.8440   39.7770 C   0  0  0  0  0  0  0  0  0  0  0  0
   38.9110   33.5510   40.7160 C   0  0  0  0  0  0  0  0  0  0  0  0
   38.6680   32.3500   41.2180 O   0  0  0  0  0  0  0  0  0  0  0  0
   40.4723   23.8855   42.9990 H   0  0  0  0  0  0  0  0  0  0  0  0
   40.9237   26.0662   44.2527 H   0  0  0  0  0  0  0  0  0  0  0  0
   38.9009   22.6319   41.6478 H   0  0  0  0  0  0  0  0  0  0  0  0
   37.3024   23.2757   41.1862 H   0  0  0  0  0  0  0  0  0  0  0  0
   36.2204   32.6166   39.1316 H   0  0  0  0  0  0  0  0  0  0  0  0
   37.8420   34.7592   39.1741 H   0  0  0  0  0  0  0  0  0  0  0  0
   39.7479   34.2068   40.9979 H   0  0  0  0  0  0  0  0  0  0  0  0
  2  7  2  0
  2  3  1  0
  3  4  2  0
  4  5  1  0
  6  1  1  0
  6  5  2  0
  7  6  1  0
  8  2  1  0
  9 13  1  0
  9  1  1  0
 10  9  2  0
 11 10  1  0
 11 12  1  0
 12 13  2  0
 14 12  1  0
 14 18  1  0
 15 16  1  0
 15 14  2  0
 16 17  2  0
 17 18  1  0
  3 19  1  0
  4 20  1  0
  8 21  1  0
  8 22  1  0
 15 23  1  0
 16 24  1  0
 17 25  1  0
M  ISO  5  19  14  20  14  23  14  24  14  25  14
M  END
>  <minimizedAffinity>  (1) 
-5.27000904

>  <minimizedRMSD>  (1) 
1.87969315

$$$$
