
     RDKit          3D

 25 27  0  0  0  0  0  0  0  0999 V2000
   38.6200   24.8190   42.5320 C   0  0  0  0  0  0  0  0  0  0  0  0
   39.9430   24.6510   43.0190 C   0  0  0  0  0  0  0  0  0  0  0  0
   40.5360   25.7460   43.7180 C   0  0  0  0  0  0  0  0  0  0  0  0
   39.7900   26.8830   43.8700 N   0  0  0  0  0  0  0  0  0  0  0  0
   38.5230   26.9790   43.3750 C   0  0  0  0  0  0  0  0  0  0  0  0
   37.9570   25.9580   42.7190 N   0  0  0  0  0  0  0  0  0  0  0  0
   38.0600   23.7330   41.8610 N   0  0  0  0  0  0  0  0  0  0  0  0
   37.8800   28.1910   43.6020 O   0  0  0  0  0  0  0  0  0  0  0  0
   37.7410   29.1580   42.6380 C   0  0  0  0  0  0  0  0  0  0  0  0
   36.8530   29.5380   41.6820 N   0  0  0  0  0  0  0  0  0  0  0  0
   37.3370   30.5960   41.0700 O   0  0  0  0  0  0  0  0  0  0  0  0
   38.4910   30.9280   41.5730 C   0  0  0  0  0  0  0  0  0  0  0  0
   38.7730   30.0430   42.5600 N   0  0  0  0  0  0  0  0  0  0  0  0
   39.1890   32.0520   41.0500 N   0  0  0  0  0  0  0  0  0  0  0  0
   40.5010   32.0640   40.7600 C   0  0  0  0  0  0  0  0  0  0  0  0
   40.8810   33.2930   40.2720 C   0  0  0  0  0  0  0  0  0  0  0  0
   39.7720   34.0400   40.2660 N   0  0  0  0  0  0  0  0  0  0  0  0
   38.7510   33.2910   40.7360 C   0  0  0  0  0  0  0  0  0  0  0  0
   40.4919   23.7105   42.8634 H   0  0  0  0  0  0  0  0  0  0  0  0
   41.5575   25.6778   44.1204 H   0  0  0  0  0  0  0  0  0  0  0  0
   38.6051   22.8680   41.7362 H   0  0  0  0  0  0  0  0  0  0  0  0
   37.1012   23.7956   41.4900 H   0  0  0  0  0  0  0  0  0  0  0  0
   41.1787   31.2081   40.8944 H   0  0  0  0  0  0  0  0  0  0  0  0
   41.8886   33.5979   39.9529 H   0  0  0  0  0  0  0  0  0  0  0  0
   37.7135   33.6392   40.8470 H   0  0  0  0  0  0  0  0  0  0  0  0
  1  6  2  0
  1  2  1  0
  2  3  2  0
  3  4  1  0
  5  8  1  0
  5  4  2  0
  6  5  1  0
  7  1  1  0
  9  8  1  0
 10  9  2  0
 11 12  1  0
 11 10  1  0
 12 13  2  0
 13  9  1  0
 14 12  1  0
 15 14  1  0
 16 15  2  0
 17 16  1  0
 17 18  2  0
 18 14  1  0
  2 19  1  0
  3 20  1  0
  7 21  1  0
  7 22  1  0
 15 23  1  0
 16 24  1  0
 18 25  1  0
M  ISO  5  19  14  20  14  23  14  24  14  25  14
M  END
>  <minimizedAffinity>  (1) 
-5.11632824

>  <minimizedRMSD>  (1) 
0.559188366

$$$$
