
     RDKit          3D

 23 25  0  0  0  0  0  0  0  0999 V2000
   36.6080   27.7680   42.9060 O   0  0  0  0  0  0  0  0  0  0  0  0
   38.5210   24.7340   42.4190 C   0  0  0  0  0  0  0  0  0  0  0  0
   39.6950   25.0210   43.1590 C   0  0  0  0  0  0  0  0  0  0  0  0
   39.7580   26.2920   43.8060 C   0  0  0  0  0  0  0  0  0  0  0  0
   38.7070   27.1480   43.6820 N   0  0  0  0  0  0  0  0  0  0  0  0
   37.6100   26.8050   42.9540 C   0  0  0  0  0  0  0  0  0  0  0  0
   37.5230   25.6220   42.3370 N   0  0  0  0  0  0  0  0  0  0  0  0
   38.4360   23.4950   41.7750 N   0  0  0  0  0  0  0  0  0  0  0  0
   36.4980   28.7070   41.9030 C   0  0  0  0  0  0  0  0  0  0  0  0
   35.8340   28.9230   40.7450 N   0  0  0  0  0  0  0  0  0  0  0  0
   36.2070   30.0700   40.2550 O   0  0  0  0  0  0  0  0  0  0  0  0
   37.0860   30.6340   41.0220 C   0  0  0  0  0  0  0  0  0  0  0  0
   37.3000   29.8060   42.0800 N   0  0  0  0  0  0  0  0  0  0  0  0
   37.6450   31.9360   40.6660 C   0  0  0  0  0  0  0  0  0  0  0  0
   38.8130   32.3200   41.1880 N   0  0  0  0  0  0  0  0  0  0  0  0
   39.1050   33.4860   40.7360 O   0  0  0  0  0  0  0  0  0  0  0  0
   38.1640   33.8840   39.9310 C   0  0  0  0  0  0  0  0  0  0  0  0
   37.2110   32.9130   39.8620 N   0  0  0  0  0  0  0  0  0  0  0  0
   40.5202   24.2973   43.2316 H   0  0  0  0  0  0  0  0  0  0  0  0
   40.6423   26.5752   44.3957 H   0  0  0  0  0  0  0  0  0  0  0  0
   37.5963   23.2550   41.2289 H   0  0  0  0  0  0  0  0  0  0  0  0
   39.2131   22.8228   41.8470 H   0  0  0  0  0  0  0  0  0  0  0  0
   38.1415   34.8445   39.3953 H   0  0  0  0  0  0  0  0  0  0  0  0
  1  6  1  0
  2  3  2  0
  3  4  1  0
  5  4  2  0
  6  5  1  0
  7  2  1  0
  7  6  2  0
  8  2  1  0
  9 13  1  0
  9  1  1  0
 10  9  2  0
 11 10  1  0
 11 12  1  0
 12 13  2  0
 14 12  1  0
 14 15  2  0
 16 15  1  0
 17 16  1  0
 18 17  2  0
 18 14  1  0
  3 19  1  0
  4 20  1  0
  8 21  1  0
  8 22  1  0
 17 23  1  0
M  ISO  3  19  14  20  14  23  14
M  END
>  <minimizedAffinity>  (1) 
-5.09382915

>  <minimizedRMSD>  (1) 
1.73109496

$$$$
