
     RDKit          3D

 25 27  0  0  0  0  0  0  0  0999 V2000
   38.4650   24.6340   42.4070 C   0  0  0  0  0  0  0  0  0  0  0  0
   39.6880   24.7330   43.1120 C   0  0  0  0  0  0  0  0  0  0  0  0
   39.9610   25.9620   43.7880 C   0  0  0  0  0  0  0  0  0  0  0  0
   39.0400   26.9630   43.7150 N   0  0  0  0  0  0  0  0  0  0  0  0
   37.8830   26.8130   43.0230 C   0  0  0  0  0  0  0  0  0  0  0  0
   37.6040   25.6590   42.3770 N   0  0  0  0  0  0  0  0  0  0  0  0
   38.1550   23.4550   41.7320 N   0  0  0  0  0  0  0  0  0  0  0  0
   37.0420   27.9170   43.0380 O   0  0  0  0  0  0  0  0  0  0  0  0
   36.7150   28.6360   41.9050 C   0  0  0  0  0  0  0  0  0  0  0  0
   35.7820   28.7100   40.9390 N   0  0  0  0  0  0  0  0  0  0  0  0
   36.0900   29.6860   40.1130 O   0  0  0  0  0  0  0  0  0  0  0  0
   37.1930   30.2620   40.4970 C   0  0  0  0  0  0  0  0  0  0  0  0
   37.6050   29.6280   41.6140 N   0  0  0  0  0  0  0  0  0  0  0  0
   37.8240   31.4100   39.7800 C   0  0  0  0  0  0  0  0  0  0  0  0
   37.0960   32.7120   39.7120 C   0  0  0  0  0  0  0  0  0  0  0  0
   38.3080   32.5860   40.5520 C   0  0  0  0  0  0  0  0  0  0  0  0
   40.4012   23.8960   43.1386 H   0  0  0  0  0  0  0  0  0  0  0  0
   40.8941   26.0967   44.3547 H   0  0  0  0  0  0  0  0  0  0  0  0
   37.2669   23.3750   41.2165 H   0  0  0  0  0  0  0  0  0  0  0  0
   38.8140   22.6636   41.7485 H   0  0  0  0  0  0  0  0  0  0  0  0
   38.2733   30.7234   39.0474 H   0  0  0  0  0  0  0  0  0  0  0  0
   37.1258   33.3112   38.7900 H   0  0  0  0  0  0  0  0  0  0  0  0
   36.0585   33.0328   39.8871 H   0  0  0  0  0  0  0  0  0  0  0  0
   38.2195   32.5970   41.6484 H   0  0  0  0  0  0  0  0  0  0  0  0
   39.2626   33.1280   40.6220 H   0  0  0  0  0  0  0  0  0  0  0  0
  1  2  2  0
  2  3  1  0
  4  3  2  0
  5  8  1  0
  5  4  1  0
  6  1  1  0
  6  5  2  0
  7  1  1  0
  9  8  1  0
 10  9  2  0
 11 12  1  0
 11 10  1  0
 12 13  2  0
 13  9  1  0
 14 12  1  0
 14 16  1  0
 15 14  1  0
 15 16  1  0
  2 17  1  0
  3 18  1  0
  7 19  1  0
  7 20  1  0
 14 21  1  0
 15 22  1  0
 15 23  1  0
 16 24  1  0
 16 25  1  0
M  ISO  7  17  14  18  14  21  13  22  13  23  13  24  13  25  13
M  END
>  <minimizedAffinity>  (1) 
-4.53748655

>  <minimizedRMSD>  (1) 
1.62539232

$$$$
