
     RDKit          3D

 21 22  0  0  0  0  0  0  0  0999 V2000
   38.2510   24.9240   42.3590 C   0  0  0  0  0  0  0  0  0  0  0  0
   39.4950   24.6140   42.9340 C   0  0  0  0  0  0  0  0  0  0  0  0
   40.1250   25.6000   43.7260 C   0  0  0  0  0  0  0  0  0  0  0  0
   39.4890   26.8060   43.8900 N   0  0  0  0  0  0  0  0  0  0  0  0
   38.2900   27.0560   43.3150 C   0  0  0  0  0  0  0  0  0  0  0  0
   37.6910   26.1260   42.5650 N   0  0  0  0  0  0  0  0  0  0  0  0
   37.6090   23.9580   41.5690 N   0  0  0  0  0  0  0  0  0  0  0  0
   37.7630   28.3090   43.5620 O   0  0  0  0  0  0  0  0  0  0  0  0
   37.7640   29.3290   42.6360 C   0  0  0  0  0  0  0  0  0  0  0  0
   36.9590   29.9310   41.7290 N   0  0  0  0  0  0  0  0  0  0  0  0
   37.6130   30.8960   41.1440 O   0  0  0  0  0  0  0  0  0  0  0  0
   38.8190   30.9770   41.6090 C   0  0  0  0  0  0  0  0  0  0  0  0
   38.9500   30.0130   42.5440 N   0  0  0  0  0  0  0  0  0  0  0  0
   39.8850   31.9490   41.2010 C   0  0  0  0  0  0  0  0  0  0  0  0
   39.9646   23.6325   42.7723 H   0  0  0  0  0  0  0  0  0  0  0  0
   41.0992   25.4067   44.1988 H   0  0  0  0  0  0  0  0  0  0  0  0
   38.0500   23.0394   41.4190 H   0  0  0  0  0  0  0  0  0  0  0  0
   36.6968   24.1676   41.1391 H   0  0  0  0  0  0  0  0  0  0  0  0
   40.3543   32.3769   42.0992 H   0  0  0  0  0  0  0  0  0  0  0  0
   40.6466   31.4280   40.6022 H   0  0  0  0  0  0  0  0  0  0  0  0
   39.4363   32.7553   40.6022 H   0  0  0  0  0  0  0  0  0  0  0  0
  1  6  2  0
  1  2  1  0
  2  3  2  0
  3  4  1  0
  5  8  1  0
  5  4  2  0
  6  5  1  0
  7  1  1  0
  9  8  1  0
 10  9  2  0
 11 12  1  0
 11 10  1  0
 12 13  2  0
 13  9  1  0
 14 12  1  0
  2 15  1  0
  3 16  1  0
  7 17  1  0
  7 18  1  0
 14 19  1  0
 14 20  1  0
 14 21  1  0
M  ISO  5  15  14  16  14  19   8  20   8  21   8
M  END
>  <minimizedAffinity>  (1) 
-4.0330739

>  <minimizedRMSD>  (1) 
0.0501162373

$$$$
