
     RDKit          3D

 42 46  0  0  0  0  0  0  0  0999 V2000
   38.3590   24.5630   42.1680 C   0  0  0  0  0  0  0  0  0  0  0  0
   39.6140   25.0390   42.5750 C   0  0  0  0  0  0  0  0  0  0  0  0
   39.7340   26.3770   43.0130 C   0  0  0  0  0  0  0  0  0  0  0  0
   38.6010   27.1250   43.0130 N   0  0  0  0  0  0  0  0  0  0  0  0
   37.3970   26.6310   42.6120 C   0  0  0  0  0  0  0  0  0  0  0  0
   37.2890   25.3670   42.1970 N   0  0  0  0  0  0  0  0  0  0  0  0
   38.2610   23.2460   41.7310 N   0  0  0  0  0  0  0  0  0  0  0  0
   40.9420   26.9950   43.4890 C   0  0  0  0  0  0  0  0  0  0  0  0
   41.8240   26.2620   44.2910 C   0  0  0  0  0  0  0  0  0  0  0  0
   42.8750   27.0210   44.6440 N   0  0  0  0  0  0  0  0  0  0  0  0
   42.7660   28.2530   44.1230 C   0  0  0  0  0  0  0  0  0  0  0  0
   43.4880   29.4280   44.1370 C   0  0  0  0  0  0  0  0  0  0  0  0
   43.0830   30.5730   43.4840 C   0  0  0  0  0  0  0  0  0  0  0  0
   41.8890   30.4890   42.8000 C   0  0  0  0  0  0  0  0  0  0  0  0
   41.1560   29.3260   42.7750 C   0  0  0  0  0  0  0  0  0  0  0  0
   41.5810   28.2020   43.4300 C   0  0  0  0  0  0  0  0  0  0  0  0
   36.3340   27.5270   42.6730 O   0  0  0  0  0  0  0  0  0  0  0  0
   36.1370   28.5330   41.7310 C   0  0  0  0  0  0  0  0  0  0  0  0
   35.3130   28.8620   40.7270 N   0  0  0  0  0  0  0  0  0  0  0  0
   35.6950   30.0030   40.2120 O   0  0  0  0  0  0  0  0  0  0  0  0
   36.7530   30.4460   40.8450 C   0  0  0  0  0  0  0  0  0  0  0  0
   37.0570   29.5430   41.8070 N   0  0  0  0  0  0  0  0  0  0  0  0
   37.5050   31.6840   40.5950 C   0  0  0  0  0  0  0  0  0  0  0  0
   36.9710   32.7500   39.8820 C   0  0  0  0  0  0  0  0  0  0  0  0
   37.7440   33.9010   39.6820 C   0  0  0  0  0  0  0  0  0  0  0  0
   39.0320   33.9880   40.1850 C   0  0  0  0  0  0  0  0  0  0  0  0
   39.5390   32.9290   40.8840 C   0  0  0  0  0  0  0  0  0  0  0  0
   38.7950   31.7960   41.0880 C   0  0  0  0  0  0  0  0  0  0  0  0
   40.4937   24.3790   42.5535 H   0  0  0  0  0  0  0  0  0  0  0  0
   39.0970   22.6445   41.7168 H   0  0  0  0  0  0  0  0  0  0  0  0
   37.3524   22.8723   41.4216 H   0  0  0  0  0  0  0  0  0  0  0  0
   41.6776   25.2136   44.5899 H   0  0  0  0  0  0  0  0  0  0  0  0
   43.6568   26.7013   45.2334 H   0  0  0  0  0  0  0  0  0  0  0  0
   44.4344   29.4530   44.6972 H   0  0  0  0  0  0  0  0  0  0  0  0
   43.6773   31.4984   43.5075 H   0  0  0  0  0  0  0  0  0  0  0  0
   41.5143   31.3723   42.2621 H   0  0  0  0  0  0  0  0  0  0  0  0
   40.2084   29.2984   42.2170 H   0  0  0  0  0  0  0  0  0  0  0  0
   35.9497   32.6908   39.4778 H   0  0  0  0  0  0  0  0  0  0  0  0
   37.3230   34.7466   39.1184 H   0  0  0  0  0  0  0  0  0  0  0  0
   39.6357   34.8934   40.0245 H   0  0  0  0  0  0  0  0  0  0  0  0
   40.5600   32.9866   41.2893 H   0  0  0  0  0  0  0  0  0  0  0  0
   39.2305   30.9594   41.6541 H   0  0  0  0  0  0  0  0  0  0  0  0
  1  6  2  0
  1  2  1  0
  2  3  2  0
  3  8  1  0
  4  3  1  0
  5 17  1  0
  5  4  2  0
  6  5  1  0
  7  1  1  0
  8  9  2  0
  9 10  1  0
 11 12  2  0
 11 10  1  0
 13 12  1  0
 14 13  2  0
 15 14  1  0
 15 16  2  0
 16  8  1  0
 16 11  1  0
 18 22  1  0
 18 17  1  0
 19 18  2  0
 20 19  1  0
 20 21  1  0
 21 22  2  0
 23 21  1  0
 23 28  1  0
 24 23  2  0
 25 24  1  0
 25 26  2  0
 26 27  1  0
 27 28  2  0
  2 29  1  0
  7 30  1  0
  7 31  1  0
  9 32  1  0
 10 33  1  0
 12 34  1  0
 13 35  1  0
 14 36  1  0
 15 37  1  0
 24 38  1  0
 25 39  1  0
 26 40  1  0
 27 41  1  0
 28 42  1  0
M  ISO  8  29  14  32  14  33   9  34  14  35  14  36  14  37  14  38  14
M  ISO  4  39  14  40  14  41  14  42  14
M  END
>  <minimizedAffinity>  (1) 
-6.85698462

>  <minimizedRMSD>  (1) 
1.22176874

$$$$
