
     RDKit          3D

 41 45  0  0  0  0  0  0  0  0999 V2000
   38.3400   24.6400   42.1990 C   0  0  0  0  0  0  0  0  0  0  0  0
   39.5990   25.0360   42.6740 C   0  0  0  0  0  0  0  0  0  0  0  0
   39.7420   26.3680   43.1720 C   0  0  0  0  0  0  0  0  0  0  0  0
   38.6470   27.1750   43.1590 N   0  0  0  0  0  0  0  0  0  0  0  0
   37.4480   26.7480   42.6900 C   0  0  0  0  0  0  0  0  0  0  0  0
   37.3170   25.4940   42.2210 N   0  0  0  0  0  0  0  0  0  0  0  0
   38.2120   23.3420   41.7160 N   0  0  0  0  0  0  0  0  0  0  0  0
   41.0000   26.8150   43.6630 N   0  0  0  0  0  0  0  0  0  0  0  0
   41.9650   26.2110   44.4020 C   0  0  0  0  0  0  0  0  0  0  0  0
   42.9850   27.0350   44.6230 N   0  0  0  0  0  0  0  0  0  0  0  0
   42.6620   28.2070   44.0050 C   0  0  0  0  0  0  0  0  0  0  0  0
   43.3060   29.4180   43.8810 C   0  0  0  0  0  0  0  0  0  0  0  0
   42.7540   30.4370   43.2020 N   0  0  0  0  0  0  0  0  0  0  0  0
   41.5400   30.3030   42.6150 C   0  0  0  0  0  0  0  0  0  0  0  0
   40.8970   29.1280   42.7250 N   0  0  0  0  0  0  0  0  0  0  0  0
   41.4220   28.0860   43.4000 C   0  0  0  0  0  0  0  0  0  0  0  0
   44.5630   29.5510   44.4930 N   0  0  0  0  0  0  0  0  0  0  0  0
   36.4130   27.6630   42.7300 O   0  0  0  0  0  0  0  0  0  0  0  0
   36.2100   28.6180   41.7570 C   0  0  0  0  0  0  0  0  0  0  0  0
   35.4110   28.8660   40.6950 N   0  0  0  0  0  0  0  0  0  0  0  0
   35.7510   30.0060   40.1650 O   0  0  0  0  0  0  0  0  0  0  0  0
   36.7380   30.5380   40.8170 C   0  0  0  0  0  0  0  0  0  0  0  0
   37.0470   29.6910   41.8210 N   0  0  0  0  0  0  0  0  0  0  0  0
   37.4160   31.8180   40.5450 C   0  0  0  0  0  0  0  0  0  0  0  0
   36.8720   32.8100   39.7700 C   0  0  0  0  0  0  0  0  0  0  0  0
   37.5650   33.9930   39.5530 C   0  0  0  0  0  0  0  0  0  0  0  0
   38.8140   34.2030   40.1090 C   0  0  0  0  0  0  0  0  0  0  0  0
   39.3520   33.1960   40.8890 C   0  0  0  0  0  0  0  0  0  0  0  0
   38.6650   32.0320   41.1000 C   0  0  0  0  0  0  0  0  0  0  0  0
   40.4518   24.3413   42.6635 H   0  0  0  0  0  0  0  0  0  0  0  0
   39.0256   22.7103   41.7149 H   0  0  0  0  0  0  0  0  0  0  0  0
   37.3036   23.0124   41.3594 H   0  0  0  0  0  0  0  0  0  0  0  0
   41.9105   25.1758   44.7698 H   0  0  0  0  0  0  0  0  0  0  0  0
   41.0899   31.1391   42.0597 H   0  0  0  0  0  0  0  0  0  0  0  0
   45.0779   30.4404   44.4240 H   0  0  0  0  0  0  0  0  0  0  0  0
   44.9700   28.7591   45.0108 H   0  0  0  0  0  0  0  0  0  0  0  0
   35.8797   32.6673   39.3172 H   0  0  0  0  0  0  0  0  0  0  0  0
   37.1130   34.7772   38.9279 H   0  0  0  0  0  0  0  0  0  0  0  0
   39.3618   35.1411   39.9362 H   0  0  0  0  0  0  0  0  0  0  0  0
   40.3437   33.3324   41.3450 H   0  0  0  0  0  0  0  0  0  0  0  0
   39.1163   31.2478   41.7256 H   0  0  0  0  0  0  0  0  0  0  0  0
  1  6  2  0
  1  2  1  0
  2  3  2  0
  3  8  1  0
  4  3  1  0
  5 18  1  0
  5  4  2  0
  6  5  1  0
  7  1  1  0
  8  9  1  0
  9 10  2  0
 11 10  1  0
 12 11  2  0
 12 17  1  0
 13 12  1  0
 14 15  1  0
 14 13  2  0
 15 16  2  0
 16  8  1  0
 16 11  1  0
 19 23  1  0
 19 18  1  0
 20 19  2  0
 21 20  1  0
 21 22  1  0
 22 23  2  0
 24 22  1  0
 24 29  1  0
 25 24  2  0
 26 25  1  0
 26 27  2  0
 27 28  1  0
 28 29  2  0
  2 30  1  0
  7 31  1  0
  7 32  1  0
  9 33  1  0
 14 34  1  0
 17 35  1  0
 17 36  1  0
 25 37  1  0
 26 38  1  0
 27 39  1  0
 28 40  1  0
 29 41  1  0
M  ISO  8  30  14  33  14  34  14  37  14  38  14  39  14  40  14  41  14
M  END
>  <minimizedAffinity>  (1) 
-6.55735731

>  <minimizedRMSD>  (1) 
1.03646302

$$$$
