
     RDKit          3D

 35 38  0  0  0  0  0  0  0  0999 V2000
   36.8230   27.5860   43.0000 O   0  0  0  0  0  0  0  0  0  0  0  0
   38.3310   24.3920   42.1850 C   0  0  0  0  0  0  0  0  0  0  0  0
   39.6440   24.5790   42.6980 C   0  0  0  0  0  0  0  0  0  0  0  0
   39.9430   25.8240   43.3100 C   0  0  0  0  0  0  0  0  0  0  0  0
   38.9710   26.7720   43.3780 N   0  0  0  0  0  0  0  0  0  0  0  0
   37.7250   26.5400   42.8690 C   0  0  0  0  0  0  0  0  0  0  0  0
   37.4120   25.3620   42.2800 N   0  0  0  0  0  0  0  0  0  0  0  0
   38.0320   23.1750   41.5850 N   0  0  0  0  0  0  0  0  0  0  0  0
   41.2540   26.0840   43.8520 C   0  0  0  0  0  0  0  0  0  0  0  0
   42.4580   25.6490   43.3930 C   0  0  0  0  0  0  0  0  0  0  0  0
   43.4310   26.1280   44.2020 N   0  0  0  0  0  0  0  0  0  0  0  0
   42.7910   26.8560   45.1540 C   0  0  0  0  0  0  0  0  0  0  0  0
   41.4580   26.8280   44.9380 N   0  0  0  0  0  0  0  0  0  0  0  0
   36.5500   28.4820   41.9750 C   0  0  0  0  0  0  0  0  0  0  0  0
   35.7350   28.6200   40.9050 N   0  0  0  0  0  0  0  0  0  0  0  0
   35.9950   29.7610   40.3150 O   0  0  0  0  0  0  0  0  0  0  0  0
   36.9470   30.3800   40.9510 C   0  0  0  0  0  0  0  0  0  0  0  0
   37.3280   29.6090   42.0060 N   0  0  0  0  0  0  0  0  0  0  0  0
   37.5550   31.6950   40.6340 C   0  0  0  0  0  0  0  0  0  0  0  0
   36.9170   32.6350   39.8590 C   0  0  0  0  0  0  0  0  0  0  0  0
   37.5250   33.8550   39.5870 C   0  0  0  0  0  0  0  0  0  0  0  0
   38.7780   34.1480   40.0900 C   0  0  0  0  0  0  0  0  0  0  0  0
   39.3950   33.1940   40.8610 C   0  0  0  0  0  0  0  0  0  0  0  0
   38.8090   31.9870   41.1370 C   0  0  0  0  0  0  0  0  0  0  0  0
   40.4022   23.7856   42.6230 H   0  0  0  0  0  0  0  0  0  0  0  0
   38.7522   22.4414   41.5215 H   0  0  0  0  0  0  0  0  0  0  0  0
   37.0901   23.0064   41.2037 H   0  0  0  0  0  0  0  0  0  0  0  0
   42.6149   25.0126   42.5096 H   0  0  0  0  0  0  0  0  0  0  0  0
   43.2855   27.3896   45.9791 H   0  0  0  0  0  0  0  0  0  0  0  0
   40.7358   27.2938   45.5057 H   0  0  0  0  0  0  0  0  0  0  0  0
   35.9182   32.4198   39.4514 H   0  0  0  0  0  0  0  0  0  0  0  0
   37.0025   34.5958   38.9640 H   0  0  0  0  0  0  0  0  0  0  0  0
   39.2644   35.1120   39.8801 H   0  0  0  0  0  0  0  0  0  0  0  0
   40.3935   33.4061   41.2709 H   0  0  0  0  0  0  0  0  0  0  0  0
   39.3368   31.2495   41.7595 H   0  0  0  0  0  0  0  0  0  0  0  0
  2  7  2  0
  2  3  1  0
  3  4  2  0
  4  5  1  0
  4  9  1  0
  6  1  1  0
  6  5  2  0
  7  6  1  0
  8  2  1  0
  9 13  1  0
 10  9  2  0
 10 11  1  0
 11 12  2  0
 13 12  1  0
 14 18  1  0
 14  1  1  0
 15 14  2  0
 16 15  1  0
 16 17  1  0
 17 18  2  0
 19 17  1  0
 19 24  1  0
 20 19  2  0
 21 20  1  0
 21 22  2  0
 22 23  1  0
 23 24  2  0
  3 25  1  0
  8 26  1  0
  8 27  1  0
 10 28  1  0
 12 29  1  0
 13 30  1  0
 20 31  1  0
 21 32  1  0
 22 33  1  0
 23 34  1  0
 24 35  1  0
M  ISO  8  25  14  28  14  29  14  30   9  31  14  32  14  33  14  34  14
M  ISO  1  35  14
M  END
>  <minimizedAffinity>  (1) 
-6.5220933

>  <minimizedRMSD>  (1) 
0.39001742

$$$$
