
     RDKit          3D

 35 37  0  0  0  0  0  0  0  0999 V2000
   38.4700   24.4620   42.2770 C   0  0  0  0  0  0  0  0  0  0  0  0
   39.8050   24.5420   42.7240 C   0  0  0  0  0  0  0  0  0  0  0  0
   40.2380   25.7440   43.3420 C   0  0  0  0  0  0  0  0  0  0  0  0
   39.3310   26.7440   43.4660 N   0  0  0  0  0  0  0  0  0  0  0  0
   38.0600   26.6280   43.0250 C   0  0  0  0  0  0  0  0  0  0  0  0
   37.6340   25.4910   42.4340 N   0  0  0  0  0  0  0  0  0  0  0  0
   38.0370   23.2870   41.6670 N   0  0  0  0  0  0  0  0  0  0  0  0
   41.5830   25.8400   43.7920 N   0  0  0  0  0  0  0  0  0  0  0  0
   42.6400   25.2880   43.0420 C   0  0  0  0  0  0  0  0  0  0  0  0
   42.6290   25.3910   41.7600 N   0  0  0  0  0  0  0  0  0  0  0  0
   43.7140   24.6240   43.6990 N   0  0  0  0  0  0  0  0  0  0  0  0
   41.8760   25.8650   41.2260 H   0  0  0  0  0  0  0  0  0  0  0  0
   37.2490   27.7360   43.2220 O   0  0  0  0  0  0  0  0  0  0  0  0
   36.8710   28.5870   42.1950 C   0  0  0  0  0  0  0  0  0  0  0  0
   35.9750   28.6590   41.1760 N   0  0  0  0  0  0  0  0  0  0  0  0
   36.1450   29.7880   40.5410 O   0  0  0  0  0  0  0  0  0  0  0  0
   37.1060   30.4680   41.0860 C   0  0  0  0  0  0  0  0  0  0  0  0
   37.5860   29.7380   42.1340 N   0  0  0  0  0  0  0  0  0  0  0  0
   37.6360   31.7980   40.6920 C   0  0  0  0  0  0  0  0  0  0  0  0
   36.9350   32.6570   39.8820 C   0  0  0  0  0  0  0  0  0  0  0  0
   37.4660   33.8920   39.5380 C   0  0  0  0  0  0  0  0  0  0  0  0
   38.7120   34.2770   40.0070 C   0  0  0  0  0  0  0  0  0  0  0  0
   39.3900   33.4040   40.8120 C   0  0  0  0  0  0  0  0  0  0  0  0
   38.8790   32.1830   41.1590 C   0  0  0  0  0  0  0  0  0  0  0  0
   40.4937   23.6938   42.5969 H   0  0  0  0  0  0  0  0  0  0  0  0
   38.6880   22.4975   41.5495 H   0  0  0  0  0  0  0  0  0  0  0  0
   37.0658   23.2076   41.3334 H   0  0  0  0  0  0  0  0  0  0  0  0
   41.7878   26.3204   44.6798 H   0  0  0  0  0  0  0  0  0  0  0  0
   44.4852   24.2216   43.1474 H   0  0  0  0  0  0  0  0  0  0  0  0
   43.7200   24.5459   44.7260 H   0  0  0  0  0  0  0  0  0  0  0  0
   35.9449   32.3639   39.5029 H   0  0  0  0  0  0  0  0  0  0  0  0
   36.8937   34.5705   38.8882 H   0  0  0  0  0  0  0  0  0  0  0  0
   39.1419   35.2537   39.7402 H   0  0  0  0  0  0  0  0  0  0  0  0
   40.3803   33.6932   41.1938 H   0  0  0  0  0  0  0  0  0  0  0  0
   39.4564   31.5087   41.8086 H   0  0  0  0  0  0  0  0  0  0  0  0
  1  6  2  0
  1  2  1  0
  2  3  2  0
  3  4  1  0
  3  8  1  0
  5 13  1  0
  5  4  2  0
  6  5  1  0
  7  1  1  0
  9 11  1  0
  9  8  1  0
 10  9  2  0
 12 10  1  0
 14 13  1  0
 15 14  2  0
 16 17  1  0
 16 15  1  0
 17 18  2  0
 18 14  1  0
 19 17  1  0
 19 24  1  0
 20 19  2  0
 21 20  1  0
 21 22  2  0
 22 23  1  0
 23 24  2  0
  2 25  1  0
  7 26  1  0
  7 27  1  0
  8 28  1  0
 11 29  1  0
 11 30  1  0
 20 31  1  0
 21 32  1  0
 22 33  1  0
 23 34  1  0
 24 35  1  0
M  ISO  6  25  14  31  14  32  14  33  14  34  14  35  14
M  END
>  <minimizedAffinity>  (1) 
-6.51000929

>  <minimizedRMSD>  (1) 
0.440502375

$$$$
