
     RDKit          3D

 43 46  0  0  0  0  0  0  0  0999 V2000
   36.7150   30.6170   39.9320 O   0  0  0  0  0  0  0  0  0  0  0  0
   37.0060   28.6220   42.9430 C   0  0  0  0  0  0  0  0  0  0  0  0
   37.1400   27.3280   42.3810 C   0  0  0  0  0  0  0  0  0  0  0  0
   37.1230   27.2020   40.9700 C   0  0  0  0  0  0  0  0  0  0  0  0
   36.9800   28.3350   40.2400 N   0  0  0  0  0  0  0  0  0  0  0  0
   36.8550   29.5510   40.8080 C   0  0  0  0  0  0  0  0  0  0  0  0
   36.8670   29.6970   42.1500 N   0  0  0  0  0  0  0  0  0  0  0  0
   37.0240   28.7320   44.3290 N   0  0  0  0  0  0  0  0  0  0  0  0
   37.2500   25.9730   40.3150 N   0  0  0  0  0  0  0  0  0  0  0  0
   38.1840   24.9240   40.6660 C   0  0  0  0  0  0  0  0  0  0  0  0
   37.3240   23.7450   41.1410 C   0  0  0  0  0  0  0  0  0  0  0  0
   36.6220   23.2400   39.9220 C   0  0  0  0  0  0  0  0  0  0  0  0
   35.8400   24.2760   39.1920 C   0  0  0  0  0  0  0  0  0  0  0  0
   36.4230   25.6520   39.1950 C   0  0  0  0  0  0  0  0  0  0  0  0
   37.7950   31.3200   39.4150 C   0  0  0  0  0  0  0  0  0  0  0  0
   38.6630   31.2900   38.3910 N   0  0  0  0  0  0  0  0  0  0  0  0
   39.4870   32.3070   38.4900 O   0  0  0  0  0  0  0  0  0  0  0  0
   39.1910   33.0180   39.5530 C   0  0  0  0  0  0  0  0  0  0  0  0
   38.1380   32.4180   40.1450 N   0  0  0  0  0  0  0  0  0  0  0  0
   39.8590   34.2390   40.0380 C   0  0  0  0  0  0  0  0  0  0  0  0
   41.1560   34.2450   40.5100 C   0  0  0  0  0  0  0  0  0  0  0  0
   41.7310   35.4310   40.9540 C   0  0  0  0  0  0  0  0  0  0  0  0
   41.0160   36.6220   40.9320 C   0  0  0  0  0  0  0  0  0  0  0  0
   39.7260   36.5920   40.4580 C   0  0  0  0  0  0  0  0  0  0  0  0
   39.1610   35.4260   40.0220 C   0  0  0  0  0  0  0  0  0  0  0  0
   37.2544   26.4432   43.0245 H   0  0  0  0  0  0  0  0  0  0  0  0
   36.9292   29.6563   44.7735 H   0  0  0  0  0  0  0  0  0  0  0  0
   37.1321   27.8892   44.9111 H   0  0  0  0  0  0  0  0  0  0  0  0
   38.7822   24.6339   39.7897 H   0  0  0  0  0  0  0  0  0  0  0  0
   38.8894   25.2517   41.4438 H   0  0  0  0  0  0  0  0  0  0  0  0
   37.9584   22.9568   41.5725 H   0  0  0  0  0  0  0  0  0  0  0  0
   36.6124   24.0502   41.9223 H   0  0  0  0  0  0  0  0  0  0  0  0
   37.3768   22.8302   39.2347 H   0  0  0  0  0  0  0  0  0  0  0  0
   35.9004   22.4837   40.2645 H   0  0  0  0  0  0  0  0  0  0  0  0
   34.8418   24.3312   39.6509 H   0  0  0  0  0  0  0  0  0  0  0  0
   35.8310   23.9573   38.1392 H   0  0  0  0  0  0  0  0  0  0  0  0
   37.0295   25.7638   38.2842 H   0  0  0  0  0  0  0  0  0  0  0  0
   35.5664   26.3400   39.2484 H   0  0  0  0  0  0  0  0  0  0  0  0
   41.7357   33.3105   40.5350 H   0  0  0  0  0  0  0  0  0  0  0  0
   42.7656   35.4260   41.3275 H   0  0  0  0  0  0  0  0  0  0  0  0
   41.4686   37.5610   41.2834 H   0  0  0  0  0  0  0  0  0  0  0  0
   39.1386   37.5216   40.4290 H   0  0  0  0  0  0  0  0  0  0  0  0
   38.1258   35.4362   39.6501 H   0  0  0  0  0  0  0  0  0  0  0  0
  1  6  1  0
  2  8  1  0
  3  2  2  0
  4  3  1  0
  5  6  1  0
  5  4  2  0
  6  7  2  0
  7  2  1  0
  9 10  1  0
  9  4  1  0
 10 11  1  0
 12 11  1  0
 13 14  1  0
 13 12  1  0
 14  9  1  0
 15  1  1  0
 15 19  1  0
 16 17  1  0
 16 15  2  0
 17 18  1  0
 18 20  1  0
 18 19  2  0
 20 21  2  0
 21 22  1  0
 23 22  2  0
 24 23  1  0
 25 20  1  0
 25 24  2  0
  3 26  1  0
  8 27  1  0
  8 28  1  0
 10 29  1  0
 10 30  1  0
 11 31  1  0
 11 32  1  0
 12 33  1  0
 12 34  1  0
 13 35  1  0
 13 36  1  0
 14 37  1  0
 14 38  1  0
 21 39  1  0
 22 40  1  0
 23 41  1  0
 24 42  1  0
 25 43  1  0
M  ISO  8  26  14  29  13  30  13  31  13  32  13  33  13  34  13  35  13
M  ISO  8  36  13  37  13  38  13  39  14  40  14  41  14  42  14  43  14
M  END
>  <minimizedAffinity>  (1) 
-6.43513966

>  <minimizedRMSD>  (1) 
5.24889708

$$$$
