
     RDKit          3D

 33 36  0  0  0  0  0  0  0  0999 V2000
   36.7390   27.5190   42.9420 O   0  0  0  0  0  0  0  0  0  0  0  0
   38.1970   24.3300   42.0130 C   0  0  0  0  0  0  0  0  0  0  0  0
   39.5160   24.4830   42.4850 C   0  0  0  0  0  0  0  0  0  0  0  0
   39.8470   25.7180   43.1210 C   0  0  0  0  0  0  0  0  0  0  0  0
   38.8900   26.6720   43.2370 N   0  0  0  0  0  0  0  0  0  0  0  0
   37.6250   26.4690   42.7610 C   0  0  0  0  0  0  0  0  0  0  0  0
   37.2790   25.3100   42.1530 N   0  0  0  0  0  0  0  0  0  0  0  0
   37.8540   23.1390   41.3930 N   0  0  0  0  0  0  0  0  0  0  0  0
   41.1960   25.9380   43.6310 C   0  0  0  0  0  0  0  0  0  0  0  0
   42.3590   25.3500   43.3920 N   0  0  0  0  0  0  0  0  0  0  0  0
   43.2890   25.9170   44.1070 O   0  0  0  0  0  0  0  0  0  0  0  0
   42.7660   26.8770   44.8200 C   0  0  0  0  0  0  0  0  0  0  0  0
   41.4720   26.9030   44.5350 N   0  0  0  0  0  0  0  0  0  0  0  0
   36.4670   28.4560   41.9610 C   0  0  0  0  0  0  0  0  0  0  0  0
   35.6080   28.6660   40.9330 N   0  0  0  0  0  0  0  0  0  0  0  0
   35.8910   29.8020   40.3620 O   0  0  0  0  0  0  0  0  0  0  0  0
   36.9020   30.3640   40.9600 C   0  0  0  0  0  0  0  0  0  0  0  0
   37.2900   29.5420   41.9730 N   0  0  0  0  0  0  0  0  0  0  0  0
   37.5450   31.6550   40.6350 C   0  0  0  0  0  0  0  0  0  0  0  0
   36.9250   32.6280   39.8820 C   0  0  0  0  0  0  0  0  0  0  0  0
   37.5860   33.8190   39.6150 C   0  0  0  0  0  0  0  0  0  0  0  0
   38.8650   34.0580   40.0880 C   0  0  0  0  0  0  0  0  0  0  0  0
   39.4650   33.0690   40.8380 C   0  0  0  0  0  0  0  0  0  0  0  0
   38.8110   31.8880   41.1050 C   0  0  0  0  0  0  0  0  0  0  0  0
   40.2614   23.6825   42.3681 H   0  0  0  0  0  0  0  0  0  0  0  0
   38.5559   22.3927   41.2872 H   0  0  0  0  0  0  0  0  0  0  0  0
   36.8972   23.0001   41.0380 H   0  0  0  0  0  0  0  0  0  0  0  0
   43.2968   27.5370   45.5219 H   0  0  0  0  0  0  0  0  0  0  0  0
   35.9094   32.4615   39.4936 H   0  0  0  0  0  0  0  0  0  0  0  0
   37.0822   34.5904   39.0140 H   0  0  0  0  0  0  0  0  0  0  0  0
   39.3842   35.0036   39.8730 H   0  0  0  0  0  0  0  0  0  0  0  0
   40.4812   33.2262   41.2287 H   0  0  0  0  0  0  0  0  0  0  0  0
   39.3138   31.1167   41.7069 H   0  0  0  0  0  0  0  0  0  0  0  0
  2  7  2  0
  2  3  1  0
  3  4  2  0
  4  5  1  0
  4  9  1  0
  6  1  1  0
  6  5  2  0
  7  6  1  0
  8  2  1  0
  9 13  1  0
 10  9  2  0
 10 11  1  0
 11 12  1  0
 13 12  2  0
 14 18  1  0
 14  1  1  0
 15 14  2  0
 16 15  1  0
 16 17  1  0
 17 18  2  0
 19 17  1  0
 19 24  1  0
 20 19  2  0
 21 20  1  0
 21 22  2  0
 22 23  1  0
 23 24  2  0
  3 25  1  0
  8 26  1  0
  8 27  1  0
 12 28  1  0
 20 29  1  0
 21 30  1  0
 22 31  1  0
 23 32  1  0
 24 33  1  0
M  ISO  7  25  14  28  14  29  14  30  14  31  14  32  14  33  14
M  END
>  <minimizedAffinity>  (1) 
-6.2715745

>  <minimizedRMSD>  (1) 
0.544975758

$$$$
