
     RDKit          3D

 41 44  0  0  0  0  0  0  0  0999 V2000
   36.4100   27.6520   42.6820 O   0  0  0  0  0  0  0  0  0  0  0  0
   38.5030   24.7190   42.3170 C   0  0  0  0  0  0  0  0  0  0  0  0
   39.7590   25.2120   42.7360 C   0  0  0  0  0  0  0  0  0  0  0  0
   39.8100   26.5730   43.1340 C   0  0  0  0  0  0  0  0  0  0  0  0
   38.6840   27.3280   43.0970 N   0  0  0  0  0  0  0  0  0  0  0  0
   37.4930   26.7990   42.6810 C   0  0  0  0  0  0  0  0  0  0  0  0
   37.4100   25.5010   42.2940 N   0  0  0  0  0  0  0  0  0  0  0  0
   38.4160   23.3810   41.9170 N   0  0  0  0  0  0  0  0  0  0  0  0
   41.0480   27.1070   43.5620 N   0  0  0  0  0  0  0  0  0  0  0  0
   41.4460   28.4320   43.1290 C   0  0  0  0  0  0  0  0  0  0  0  0
   42.9460   28.4940   43.3230 C   0  0  0  0  0  0  0  0  0  0  0  0
   43.3690   28.2580   44.6000 O   0  0  0  0  0  0  0  0  0  0  0  0
   42.8080   27.2030   45.2610 C   0  0  0  0  0  0  0  0  0  0  0  0
   41.9050   26.3260   44.4300 C   0  0  0  0  0  0  0  0  0  0  0  0
   36.2080   28.6260   41.7280 C   0  0  0  0  0  0  0  0  0  0  0  0
   35.3910   28.8880   40.6880 N   0  0  0  0  0  0  0  0  0  0  0  0
   35.7330   30.0350   40.1620 O   0  0  0  0  0  0  0  0  0  0  0  0
   36.7380   30.5460   40.8050 C   0  0  0  0  0  0  0  0  0  0  0  0
   37.0710   29.6890   41.8020 N   0  0  0  0  0  0  0  0  0  0  0  0
   37.4380   31.8240   40.5460 C   0  0  0  0  0  0  0  0  0  0  0  0
   36.8880   32.8240   39.7730 C   0  0  0  0  0  0  0  0  0  0  0  0
   37.5940   34.0110   39.5630 C   0  0  0  0  0  0  0  0  0  0  0  0
   38.8470   34.2020   40.1220 C   0  0  0  0  0  0  0  0  0  0  0  0
   39.3670   33.1910   40.8840 C   0  0  0  0  0  0  0  0  0  0  0  0
   38.6850   32.0230   41.0970 C   0  0  0  0  0  0  0  0  0  0  0  0
   40.6535   24.5721   42.7528 H   0  0  0  0  0  0  0  0  0  0  0  0
   37.5134   22.9939   41.6066 H   0  0  0  0  0  0  0  0  0  0  0  0
   39.2546   22.7831   41.9330 H   0  0  0  0  0  0  0  0  0  0  0  0
   40.9485   29.2003   43.7391 H   0  0  0  0  0  0  0  0  0  0  0  0
   41.1644   28.6183   42.0821 H   0  0  0  0  0  0  0  0  0  0  0  0
   43.4074   27.7425   42.6654 H   0  0  0  0  0  0  0  0  0  0  0  0
   43.2468   29.5245   43.0828 H   0  0  0  0  0  0  0  0  0  0  0  0
   43.6224   26.5764   45.6535 H   0  0  0  0  0  0  0  0  0  0  0  0
   42.1703   27.6398   46.0437 H   0  0  0  0  0  0  0  0  0  0  0  0
   41.2768   25.7232   45.1023 H   0  0  0  0  0  0  0  0  0  0  0  0
   42.5374   25.6841   43.7991 H   0  0  0  0  0  0  0  0  0  0  0  0
   35.8941   32.6875   39.3219 H   0  0  0  0  0  0  0  0  0  0  0  0
   37.1488   34.8049   38.9453 H   0  0  0  0  0  0  0  0  0  0  0  0
   39.4056   35.1354   39.9588 H   0  0  0  0  0  0  0  0  0  0  0  0
   40.3606   33.3204   41.3380 H   0  0  0  0  0  0  0  0  0  0  0  0
   39.1381   31.2341   41.7154 H   0  0  0  0  0  0  0  0  0  0  0  0
  2  3  2  0
  3  4  1  0
  4  9  1  0
  5  4  2  0
  6  1  1  0
  6  5  1  0
  7  2  1  0
  7  6  2  0
  8  2  1  0
  9 14  1  0
 10 11  1  0
 10  9  1  0
 11 12  1  0
 12 13  1  0
 14 13  1  0
 15 19  1  0
 15  1  1  0
 16 15  2  0
 17 16  1  0
 17 18  1  0
 18 19  2  0
 20 18  1  0
 20 25  1  0
 21 20  2  0
 22 21  1  0
 22 23  2  0
 23 24  1  0
 24 25  2  0
  3 26  1  0
  8 27  1  0
  8 28  1  0
 10 29  1  0
 10 30  1  0
 11 31  1  0
 11 32  1  0
 13 33  1  0
 13 34  1  0
 14 35  1  0
 14 36  1  0
 21 37  1  0
 22 38  1  0
 23 39  1  0
 24 40  1  0
 25 41  1  0
M  ISO  8  26  14  29  13  30  13  31  13  32  13  33  13  34  13  35  13
M  ISO  6  36  13  37  14  38  14  39  14  40  14  41  14
M  END
>  <minimizedAffinity>  (1) 
-6.16156673

>  <minimizedRMSD>  (1) 
1.01375031

$$$$
