
     RDKit          3D

 34 36  0  0  0  0  0  0  0  0999 V2000
   36.3230   28.5070   41.8420 C   0  0  0  0  0  0  0  0  0  0  0  0
   35.5560   28.7020   40.7440 N   0  0  0  0  0  0  0  0  0  0  0  0
   35.8890   29.8260   40.1890 O   0  0  0  0  0  0  0  0  0  0  0  0
   36.8460   30.4040   40.8590 C   0  0  0  0  0  0  0  0  0  0  0  0
   37.1450   29.5950   41.9140 N   0  0  0  0  0  0  0  0  0  0  0  0
   37.5210   31.6880   40.5830 C   0  0  0  0  0  0  0  0  0  0  0  0
   36.9260   32.6900   39.8520 C   0  0  0  0  0  0  0  0  0  0  0  0
   37.6040   33.8890   39.6170 C   0  0  0  0  0  0  0  0  0  0  0  0
   38.8780   34.0860   40.1130 C   0  0  0  0  0  0  0  0  0  0  0  0
   39.4440   33.0720   40.8360 C   0  0  0  0  0  0  0  0  0  0  0  0
   38.7850   31.8890   41.0730 C   0  0  0  0  0  0  0  0  0  0  0  0
   36.5160   27.5850   42.8640 O   0  0  0  0  0  0  0  0  0  0  0  0
   38.2760   24.4920   42.2230 C   0  0  0  0  0  0  0  0  0  0  0  0
   39.5210   24.7620   42.8150 C   0  0  0  0  0  0  0  0  0  0  0  0
   39.7120   26.0320   43.4280 C   0  0  0  0  0  0  0  0  0  0  0  0
   38.6720   26.9120   43.4030 N   0  0  0  0  0  0  0  0  0  0  0  0
   37.4900   26.5990   42.8180 C   0  0  0  0  0  0  0  0  0  0  0  0
   37.2770   25.3960   42.2260 N   0  0  0  0  0  0  0  0  0  0  0  0
   38.1050   23.2400   41.6260 N   0  0  0  0  0  0  0  0  0  0  0  0
   41.0070   26.3790   44.0710 C   0  0  0  0  0  0  0  0  0  0  0  0
   42.1350   25.6230   43.4460 C   0  0  0  0  0  0  0  0  0  0  0  0
   35.9119   32.5467   39.4507 H   0  0  0  0  0  0  0  0  0  0  0  0
   37.1185   34.6836   39.0314 H   0  0  0  0  0  0  0  0  0  0  0  0
   39.4192   35.0265   39.9327 H   0  0  0  0  0  0  0  0  0  0  0  0
   40.4580   33.2074   41.2403 H   0  0  0  0  0  0  0  0  0  0  0  0
   39.2755   31.0985   41.6599 H   0  0  0  0  0  0  0  0  0  0  0  0
   40.3260   24.0124   42.8050 H   0  0  0  0  0  0  0  0  0  0  0  0
   38.8765   22.5576   41.6304 H   0  0  0  0  0  0  0  0  0  0  0  0
   37.2074   22.9996   41.1816 H   0  0  0  0  0  0  0  0  0  0  0  0
   41.1888   27.4576   43.9547 H   0  0  0  0  0  0  0  0  0  0  0  0
   40.9525   26.1100   45.1362 H   0  0  0  0  0  0  0  0  0  0  0  0
   42.7719   25.1962   44.2348 H   0  0  0  0  0  0  0  0  0  0  0  0
   41.7316   24.8122   42.8216 H   0  0  0  0  0  0  0  0  0  0  0  0
   42.7316   26.3043   42.8216 H   0  0  0  0  0  0  0  0  0  0  0  0
  1  5  1  0
  1 12  1  0
  2  1  2  0
  3  2  1  0
  3  4  1  0
  4  5  2  0
  6  4  1  0
  6 11  1  0
  7  6  2  0
  8  7  1  0
  8  9  2  0
  9 10  1  0
 10 11  2  0
 13 18  2  0
 13 14  1  0
 14 15  2  0
 15 20  1  0
 16 15  1  0
 17 12  1  0
 17 16  2  0
 18 17  1  0
 19 13  1  0
 21 20  1  0
  7 22  1  0
  8 23  1  0
  9 24  1  0
 10 25  1  0
 11 26  1  0
 14 27  1  0
 19 28  1  0
 19 29  1  0
 20 30  1  0
 20 31  1  0
 21 32  1  0
 21 33  1  0
 21 34  1  0
M  ISO  8  22  14  23  14  24  14  25  14  26  14  27  14  30   8  31   8
M  ISO  3  32   8  33   8  34   8
M  END
>  <minimizedAffinity>  (1) 
-5.82582092

>  <minimizedRMSD>  (1) 
0.5438959

$$$$
