
     RDKit          3D

 29 31  0  0  0  0  0  0  0  0999 V2000
   36.5950   28.5020   42.0070 C   0  0  0  0  0  0  0  0  0  0  0  0
   35.7940   28.6140   40.9140 N   0  0  0  0  0  0  0  0  0  0  0  0
   36.0480   29.7440   40.3180 O   0  0  0  0  0  0  0  0  0  0  0  0
   36.9750   30.3920   40.9530 C   0  0  0  0  0  0  0  0  0  0  0  0
   37.3490   29.6410   42.0280 N   0  0  0  0  0  0  0  0  0  0  0  0
   37.5760   31.7130   40.6350 C   0  0  0  0  0  0  0  0  0  0  0  0
   36.9000   32.6320   39.8470 C   0  0  0  0  0  0  0  0  0  0  0  0
   37.4960   33.8590   39.5710 C   0  0  0  0  0  0  0  0  0  0  0  0
   38.7470   34.1770   40.0670 C   0  0  0  0  0  0  0  0  0  0  0  0
   39.3880   33.2360   40.8470 C   0  0  0  0  0  0  0  0  0  0  0  0
   38.8180   32.0200   41.1320 C   0  0  0  0  0  0  0  0  0  0  0  0
   36.8620   27.6260   43.0520 O   0  0  0  0  0  0  0  0  0  0  0  0
   38.6500   24.5450   42.3750 C   0  0  0  0  0  0  0  0  0  0  0  0
   39.9080   24.8380   42.9350 C   0  0  0  0  0  0  0  0  0  0  0  0
   40.0910   26.1130   43.5350 C   0  0  0  0  0  0  0  0  0  0  0  0
   39.0390   26.9780   43.5350 N   0  0  0  0  0  0  0  0  0  0  0  0
   37.8460   26.6530   42.9840 C   0  0  0  0  0  0  0  0  0  0  0  0
   37.6530   25.4490   42.4090 N   0  0  0  0  0  0  0  0  0  0  0  0
   38.4590   23.3050   41.7860 N   0  0  0  0  0  0  0  0  0  0  0  0
   41.6750   26.5170   44.2550 S   0  0  0  0  0  0  0  0  0  0  0  0
   35.9042   32.3941   39.4447 H   0  0  0  0  0  0  0  0  0  0  0  0
   36.9616   34.5899   38.9463 H   0  0  0  0  0  0  0  0  0  0  0  0
   39.2156   35.1476   39.8472 H   0  0  0  0  0  0  0  0  0  0  0  0
   40.3843   33.4670   41.2520 H   0  0  0  0  0  0  0  0  0  0  0  0
   39.3560   31.2927   41.7578 H   0  0  0  0  0  0  0  0  0  0  0  0
   40.7249   24.1018   42.9089 H   0  0  0  0  0  0  0  0  0  0  0  0
   39.2285   22.6206   41.7654 H   0  0  0  0  0  0  0  0  0  0  0  0
   37.5476   23.0679   41.3689 H   0  0  0  0  0  0  0  0  0  0  0  0
   41.5755   26.4916   45.6211 H   0  0  0  0  0  0  0  0  0  0  0  0
  1  5  1  0
  1 12  1  0
  2  1  2  0
  3  2  1  0
  3  4  1  0
  4  5  2  0
  6  4  1  0
  6 11  1  0
  7  6  2  0
  8  7  1  0
  8  9  2  0
  9 10  1  0
 10 11  2  0
 13 18  2  0
 13 14  1  0
 14 15  2  0
 15 16  1  0
 15 20  1  0
 17 12  1  0
 17 16  2  0
 18 17  1  0
 19 13  1  0
  7 21  1  0
  8 22  1  0
  9 23  1  0
 10 24  1  0
 11 25  1  0
 14 26  1  0
 19 27  1  0
 19 28  1  0
 20 29  1  0
M  ISO  7  21  14  22  14  23  14  24  14  25  14  26  14  29  11
M  END
>  <minimizedAffinity>  (1) 
-5.70873451

>  <minimizedRMSD>  (1) 
0.197592348

$$$$
