
     RDKit          3D

 30 32  0  0  0  0  0  0  0  0999 V2000
   36.3920   28.5800   41.9050 C   0  0  0  0  0  0  0  0  0  0  0  0
   35.6250   28.7360   40.7990 N   0  0  0  0  0  0  0  0  0  0  0  0
   35.9360   29.8660   40.2290 O   0  0  0  0  0  0  0  0  0  0  0  0
   36.8790   30.4800   40.9000 C   0  0  0  0  0  0  0  0  0  0  0  0
   37.1900   29.6960   41.9630 N   0  0  0  0  0  0  0  0  0  0  0  0
   37.5040   31.7710   40.5900 C   0  0  0  0  0  0  0  0  0  0  0  0
   36.9120   32.7400   39.8250 C   0  0  0  0  0  0  0  0  0  0  0  0
   37.5640   33.9390   39.5730 C   0  0  0  0  0  0  0  0  0  0  0  0
   38.8400   34.1880   40.0920 C   0  0  0  0  0  0  0  0  0  0  0  0
   39.4190   33.2050   40.8550 C   0  0  0  0  0  0  0  0  0  0  0  0
   38.7710   32.0210   41.1030 C   0  0  0  0  0  0  0  0  0  0  0  0
   36.6090   27.6850   42.9440 O   0  0  0  0  0  0  0  0  0  0  0  0
   38.3670   24.5800   42.2940 C   0  0  0  0  0  0  0  0  0  0  0  0
   39.6160   24.8410   42.8830 C   0  0  0  0  0  0  0  0  0  0  0  0
   39.7980   26.1100   43.4930 C   0  0  0  0  0  0  0  0  0  0  0  0
   38.7490   26.9920   43.4680 N   0  0  0  0  0  0  0  0  0  0  0  0
   37.5660   26.6900   42.8860 C   0  0  0  0  0  0  0  0  0  0  0  0
   37.3750   25.4970   42.3050 N   0  0  0  0  0  0  0  0  0  0  0  0
   38.1630   23.3320   41.6830 N   0  0  0  0  0  0  0  0  0  0  0  0
   41.0590   26.4260   44.1100 C   0  0  0  0  0  0  0  0  0  0  0  0
   42.0790   25.7570   43.8500 O   0  0  0  0  0  0  0  0  0  0  0  0
   35.9098   32.5665   39.4060 H   0  0  0  0  0  0  0  0  0  0  0  0
   37.0708   34.7049   38.9564 H   0  0  0  0  0  0  0  0  0  0  0  0
   39.3599   35.1373   39.8954 H   0  0  0  0  0  0  0  0  0  0  0  0
   40.4219   33.3694   41.2759 H   0  0  0  0  0  0  0  0  0  0  0  0
   39.2640   31.2551   41.7197 H   0  0  0  0  0  0  0  0  0  0  0  0
   40.4210   24.0915   42.8718 H   0  0  0  0  0  0  0  0  0  0  0  0
   38.9194   22.6329   41.6746 H   0  0  0  0  0  0  0  0  0  0  0  0
   37.2570   23.1158   41.2433 H   0  0  0  0  0  0  0  0  0  0  0  0
   41.1240   27.2656   44.8177 H   0  0  0  0  0  0  0  0  0  0  0  0
  1  5  1  0
  1 12  1  0
  2  1  2  0
  3  2  1  0
  3  4  1  0
  4  5  2  0
  6  4  1  0
  6 11  1  0
  7  6  2  0
  8  7  1  0
  8  9  2  0
  9 10  1  0
 10 11  2  0
 13 18  2  0
 13 14  1  0
 14 15  2  0
 15 20  1  0
 16 15  1  0
 17 12  1  0
 17 16  2  0
 18 17  1  0
 19 13  1  0
 21 20  2  0
  7 22  1  0
  8 23  1  0
  9 24  1  0
 10 25  1  0
 11 26  1  0
 14 27  1  0
 19 28  1  0
 19 29  1  0
 20 30  1  0
M  ISO  7  22  14  23  14  24  14  25  14  26  14  27  14  30   6
M  END
>  <minimizedAffinity>  (1) 
-5.70022202

>  <minimizedRMSD>  (1) 
0.437887281

$$$$
