
     RDKit          3D

 30 32  0  0  0  0  0  0  0  0999 V2000
   36.4690   28.5540   41.9340 C   0  0  0  0  0  0  0  0  0  0  0  0
   35.7410   28.6720   40.8060 N   0  0  0  0  0  0  0  0  0  0  0  0
   36.0310   29.7960   40.2220 O   0  0  0  0  0  0  0  0  0  0  0  0
   36.9370   30.4460   40.9200 C   0  0  0  0  0  0  0  0  0  0  0  0
   37.2220   29.6840   41.9930 N   0  0  0  0  0  0  0  0  0  0  0  0
   37.5270   31.7540   40.5930 C   0  0  0  0  0  0  0  0  0  0  0  0
   36.9130   32.7110   39.8300 C   0  0  0  0  0  0  0  0  0  0  0  0
   37.5540   33.9240   39.5740 C   0  0  0  0  0  0  0  0  0  0  0  0
   38.8140   34.1790   40.0830 C   0  0  0  0  0  0  0  0  0  0  0  0
   39.4240   33.2210   40.8440 C   0  0  0  0  0  0  0  0  0  0  0  0
   38.7880   32.0280   41.0930 C   0  0  0  0  0  0  0  0  0  0  0  0
   36.6590   27.6730   42.9790 O   0  0  0  0  0  0  0  0  0  0  0  0
   38.5600   24.6440   42.4130 C   0  0  0  0  0  0  0  0  0  0  0  0
   39.7420   24.9300   43.1450 C   0  0  0  0  0  0  0  0  0  0  0  0
   39.8350   26.1790   43.8150 C   0  0  0  0  0  0  0  0  0  0  0  0
   38.7660   27.0330   43.7100 N   0  0  0  0  0  0  0  0  0  0  0  0
   37.6630   26.7190   43.0020 C   0  0  0  0  0  0  0  0  0  0  0  0
   37.5460   25.5330   42.3520 N   0  0  0  0  0  0  0  0  0  0  0  0
   38.4710   23.4160   41.7550 N   0  0  0  0  0  0  0  0  0  0  0  0
   40.9860   26.5060   44.5530 N   0  0  0  0  0  0  0  0  0  0  0  0
   35.9108   32.5230   39.4173 H   0  0  0  0  0  0  0  0  0  0  0  0
   37.0511   34.6859   38.9603 H   0  0  0  0  0  0  0  0  0  0  0  0
   39.3168   35.1359   39.8792 H   0  0  0  0  0  0  0  0  0  0  0  0
   40.4263   33.4053   41.2581 H   0  0  0  0  0  0  0  0  0  0  0  0
   39.2958   31.2697   41.7071 H   0  0  0  0  0  0  0  0  0  0  0  0
   40.5656   24.2024   43.1922 H   0  0  0  0  0  0  0  0  0  0  0  0
   37.6254   23.1806   41.2160 H   0  0  0  0  0  0  0  0  0  0  0  0
   39.2509   22.7453   41.8085 H   0  0  0  0  0  0  0  0  0  0  0  0
   41.0472   27.4134   45.0366 H   0  0  0  0  0  0  0  0  0  0  0  0
   41.7681   25.8382   44.6101 H   0  0  0  0  0  0  0  0  0  0  0  0
  1  5  1  0
  1 12  1  0
  2  1  2  0
  3  2  1  0
  3  4  1  0
  4  5  2  0
  6  4  1  0
  6 11  1  0
  7  6  2  0
  8  7  1  0
  8  9  2  0
  9 10  1  0
 10 11  2  0
 12 17  1  0
 13 14  2  0
 14 15  1  0
 15 20  1  0
 16 15  2  0
 17 16  1  0
 18 13  1  0
 18 17  2  0
 19 13  1  0
  7 21  1  0
  8 22  1  0
  9 23  1  0
 10 24  1  0
 11 25  1  0
 14 26  1  0
 19 27  1  0
 19 28  1  0
 20 29  1  0
 20 30  1  0
M  ISO  6  21  14  22  14  23  14  24  14  25  14  26  14
M  END
>  <minimizedAffinity>  (1) 
-6.02014685

>  <minimizedRMSD>  (1) 
0.226374865

$$$$
