
     RDKit          3D

 31 33  0  0  0  0  0  0  0  0999 V2000
   36.2740   28.6760   41.8070 C   0  0  0  0  0  0  0  0  0  0  0  0
   35.5620   28.8520   40.6800 N   0  0  0  0  0  0  0  0  0  0  0  0
   35.9100   29.9730   40.1210 O   0  0  0  0  0  0  0  0  0  0  0  0
   36.8350   30.5630   40.8300 C   0  0  0  0  0  0  0  0  0  0  0  0
   37.0850   29.7680   41.8990 N   0  0  0  0  0  0  0  0  0  0  0  0
   37.5020   31.8540   40.5460 C   0  0  0  0  0  0  0  0  0  0  0  0
   36.9210   32.8420   39.7880 C   0  0  0  0  0  0  0  0  0  0  0  0
   37.6080   34.0360   39.5610 C   0  0  0  0  0  0  0  0  0  0  0  0
   38.8780   34.2250   40.0990 C   0  0  0  0  0  0  0  0  0  0  0  0
   39.4460   33.2240   40.8570 C   0  0  0  0  0  0  0  0  0  0  0  0
   38.7560   32.0660   41.0670 C   0  0  0  0  0  0  0  0  0  0  0  0
   36.4250   27.7670   42.8470 O   0  0  0  0  0  0  0  0  0  0  0  0
   38.2870   24.7120   42.3060 C   0  0  0  0  0  0  0  0  0  0  0  0
   39.4720   24.9980   43.0280 C   0  0  0  0  0  0  0  0  0  0  0  0
   39.5820   26.2540   43.6830 C   0  0  0  0  0  0  0  0  0  0  0  0
   38.5170   27.1150   43.5680 N   0  0  0  0  0  0  0  0  0  0  0  0
   37.4150   26.8000   42.8740 C   0  0  0  0  0  0  0  0  0  0  0  0
   37.2890   25.6100   42.2430 N   0  0  0  0  0  0  0  0  0  0  0  0
   40.7400   26.5900   44.4140 N   0  0  0  0  0  0  0  0  0  0  0  0
   38.1810   23.4840   41.6680 N   0  0  0  0  0  0  0  0  0  0  0  0
   40.5200   24.1170   43.1250 O   0  0  0  0  0  0  0  0  0  0  0  0
   35.9181   32.6927   39.3615 H   0  0  0  0  0  0  0  0  0  0  0  0
   37.1448   34.8291   38.9557 H   0  0  0  0  0  0  0  0  0  0  0  0
   39.4227   35.1639   39.9209 H   0  0  0  0  0  0  0  0  0  0  0  0
   40.4485   33.3577   41.2896 H   0  0  0  0  0  0  0  0  0  0  0  0
   39.2194   31.2745   41.6744 H   0  0  0  0  0  0  0  0  0  0  0  0
   40.8053   27.5044   44.8836 H   0  0  0  0  0  0  0  0  0  0  0  0
   41.5205   25.9210   44.4784 H   0  0  0  0  0  0  0  0  0  0  0  0
   37.3299   23.2515   41.1365 H   0  0  0  0  0  0  0  0  0  0  0  0
   38.9534   22.8051   41.7260 H   0  0  0  0  0  0  0  0  0  0  0  0
   41.3277   24.3635   43.6417 H   0  0  0  0  0  0  0  0  0  0  0  0
  1  5  1  0
  1 12  1  0
  2  1  2  0
  3  2  1  0
  3  4  1  0
  4  5  2  0
  6  4  1  0
  6 11  1  0
  7  6  2  0
  8  7  1  0
  8  9  2  0
  9 10  1  0
 10 11  2  0
 12 17  1  0
 13 14  2  0
 14 21  1  0
 14 15  1  0
 15 19  1  0
 16 15  2  0
 17 16  1  0
 18 13  1  0
 18 17  2  0
 20 13  1  0
  7 22  1  0
  8 23  1  0
  9 24  1  0
 10 25  1  0
 11 26  1  0
 19 27  1  0
 19 28  1  0
 20 29  1  0
 20 30  1  0
 21 31  1  0
M  ISO  6  22  14  23  14  24  14  25  14  26  14  31   3
M  END
>  <minimizedAffinity>  (1) 
-6.23474216

>  <minimizedRMSD>  (1) 
0.240535975

$$$$
