
     RDKit          3D

 33 35  0  0  0  0  0  0  0  0999 V2000
   37.5360   27.2700   42.9360 O   0  0  0  0  0  0  0  0  0  0  0  0
   40.5920   25.8510   41.5910 C   0  0  0  0  0  0  0  0  0  0  0  0
   41.4560   25.9850   42.6970 C   0  0  0  0  0  0  0  0  0  0  0  0
   40.9410   26.5710   43.8890 C   0  0  0  0  0  0  0  0  0  0  0  0
   39.6200   26.9710   43.8780 N   0  0  0  0  0  0  0  0  0  0  0  0
   38.8400   26.8220   42.7990 C   0  0  0  0  0  0  0  0  0  0  0  0
   39.3180   26.2630   41.6530 N   0  0  0  0  0  0  0  0  0  0  0  0
   41.7540   26.7330   45.0290 N   0  0  0  0  0  0  0  0  0  0  0  0
   41.0870   25.2800   40.4270 N   0  0  0  0  0  0  0  0  0  0  0  0
   42.8500   25.5490   42.6720 C   0  0  0  0  0  0  0  0  0  0  0  0
   43.7710   25.9660   41.9550 O   0  0  0  0  0  0  0  0  0  0  0  0
   43.1490   24.5360   43.5800 O   0  0  0  0  0  0  0  0  0  0  0  0
   36.9870   28.2540   42.1380 C   0  0  0  0  0  0  0  0  0  0  0  0
   35.8660   28.5010   41.4240 N   0  0  0  0  0  0  0  0  0  0  0  0
   35.9620   29.6730   40.8660 O   0  0  0  0  0  0  0  0  0  0  0  0
   37.1010   30.2260   41.1760 C   0  0  0  0  0  0  0  0  0  0  0  0
   37.7700   29.3580   41.9760 N   0  0  0  0  0  0  0  0  0  0  0  0
   37.6130   31.5510   40.7560 C   0  0  0  0  0  0  0  0  0  0  0  0
   36.9060   32.3920   39.9260 C   0  0  0  0  0  0  0  0  0  0  0  0
   37.4380   33.6280   39.5640 C   0  0  0  0  0  0  0  0  0  0  0  0
   38.6840   34.0200   40.0390 C   0  0  0  0  0  0  0  0  0  0  0  0
   39.3680   33.1700   40.8620 C   0  0  0  0  0  0  0  0  0  0  0  0
   38.8450   31.9600   41.2140 C   0  0  0  0  0  0  0  0  0  0  0  0
   41.3652   27.1587   45.8825 H   0  0  0  0  0  0  0  0  0  0  0  0
   42.7369   26.4257   45.0085 H   0  0  0  0  0  0  0  0  0  0  0  0
   42.0667   24.9649   40.3842 H   0  0  0  0  0  0  0  0  0  0  0  0
   40.4747   25.1713   39.6059 H   0  0  0  0  0  0  0  0  0  0  0  0
   44.0697   24.1763   43.6348 H   0  0  0  0  0  0  0  0  0  0  0  0
   35.9190   32.0874   39.5478 H   0  0  0  0  0  0  0  0  0  0  0  0
   36.8698   34.2959   38.8999 H   0  0  0  0  0  0  0  0  0  0  0  0
   39.1107   34.9942   39.7583 H   0  0  0  0  0  0  0  0  0  0  0  0
   40.3552   33.4659   41.2465 H   0  0  0  0  0  0  0  0  0  0  0  0
   39.4199   31.2974   41.8777 H   0  0  0  0  0  0  0  0  0  0  0  0
  2  7  2  0
  2  3  1  0
  3  4  2  0
  4  8  1  0
  5  4  1  0
  6  1  1  0
  6  5  2  0
  7  6  1  0
  9  2  1  0
 10  3  1  0
 10 12  1  0
 11 10  2  0
 13  1  1  0
 14 13  2  0
 15 16  1  0
 15 14  1  0
 16 17  2  0
 17 13  1  0
 18 16  1  0
 18 23  1  0
 19 18  2  0
 20 19  1  0
 20 21  2  0
 21 22  1  0
 22 23  2  0
  8 24  1  0
  8 25  1  0
  9 26  1  0
  9 27  1  0
 12 28  1  0
 19 29  1  0
 20 30  1  0
 21 31  1  0
 22 32  1  0
 23 33  1  0
M  ISO  6  28   3  29  14  30  14  31  14  32  14  33  14
M  END
>  <minimizedAffinity>  (1) 
-6.0206871

>  <minimizedRMSD>  (1) 
1.60024738

$$$$
