
     RDKit          3D

 37 39  0  0  0  0  0  0  0  0999 V2000
   39.1300   25.3170   42.9470 C   0  0  0  0  0  0  0  0  0  0  0  0
   40.2670   26.0970   43.2930 C   0  0  0  0  0  0  0  0  0  0  0  0
   40.1910   27.5080   43.1900 C   0  0  0  0  0  0  0  0  0  0  0  0
   39.0010   28.0420   42.7540 N   0  0  0  0  0  0  0  0  0  0  0  0
   37.9380   27.2660   42.4350 C   0  0  0  0  0  0  0  0  0  0  0  0
   37.9830   25.9060   42.5250 N   0  0  0  0  0  0  0  0  0  0  0  0
   41.2940   28.3060   43.5230 N   0  0  0  0  0  0  0  0  0  0  0  0
   41.4460   25.4730   43.7300 N   0  0  0  0  0  0  0  0  0  0  0  0
   42.6280   25.2690   42.9900 C   0  0  0  0  0  0  0  0  0  0  0  0
   42.6100   25.6420   41.7550 N   0  0  0  0  0  0  0  0  0  0  0  0
   43.7720   24.6810   43.5960 N   0  0  0  0  0  0  0  0  0  0  0  0
   43.4650   25.5170   41.1470 H   0  0  0  0  0  0  0  0  0  0  0  0
   39.2060   23.9280   43.0490 N   0  0  0  0  0  0  0  0  0  0  0  0
   36.8120   27.9480   42.0140 O   0  0  0  0  0  0  0  0  0  0  0  0
   36.8230   28.8690   40.9740 C   0  0  0  0  0  0  0  0  0  0  0  0
   36.5080   28.9660   39.6770 N   0  0  0  0  0  0  0  0  0  0  0  0
   36.7700   30.1650   39.2570 O   0  0  0  0  0  0  0  0  0  0  0  0
   37.2580   30.8930   40.2370 C   0  0  0  0  0  0  0  0  0  0  0  0
   37.3010   30.0980   41.3320 N   0  0  0  0  0  0  0  0  0  0  0  0
   37.6820   32.3090   40.1730 C   0  0  0  0  0  0  0  0  0  0  0  0
   37.0500   33.2600   39.4290 C   0  0  0  0  0  0  0  0  0  0  0  0
   37.5170   34.5780   39.4240 C   0  0  0  0  0  0  0  0  0  0  0  0
   38.6310   34.9320   40.1790 C   0  0  0  0  0  0  0  0  0  0  0  0
   39.2570   33.9720   40.9210 C   0  0  0  0  0  0  0  0  0  0  0  0
   38.7840   32.6800   40.9140 C   0  0  0  0  0  0  0  0  0  0  0  0
   41.2302   29.3311   43.4453 H   0  0  0  0  0  0  0  0  0  0  0  0
   42.1684   27.8674   43.8455 H   0  0  0  0  0  0  0  0  0  0  0  0
   41.4475   25.1255   44.6996 H   0  0  0  0  0  0  0  0  0  0  0  0
   44.6301   24.5370   43.0448 H   0  0  0  0  0  0  0  0  0  0  0  0
   43.7426   24.3990   44.5862 H   0  0  0  0  0  0  0  0  0  0  0  0
   38.3913   23.3481   42.8022 H   0  0  0  0  0  0  0  0  0  0  0  0
   40.0768   23.4821   43.3711 H   0  0  0  0  0  0  0  0  0  0  0  0
   36.1683   32.9894   38.8295 H   0  0  0  0  0  0  0  0  0  0  0  0
   37.0011   35.3390   38.8201 H   0  0  0  0  0  0  0  0  0  0  0  0
   39.0010   35.9679   40.1780 H   0  0  0  0  0  0  0  0  0  0  0  0
   40.1394   34.2315   41.5243 H   0  0  0  0  0  0  0  0  0  0  0  0
   39.3008   31.9197   41.5181 H   0  0  0  0  0  0  0  0  0  0  0  0
  1 13  1  0
  1  2  2  0
  2  8  1  0
  3  2  1  0
  3  7  1  0
  4  3  2  0
  5  6  2  0
  5  4  1  0
  6  1  1  0
  9 11  1  0
  9  8  1  0
 10  9  2  0
 12 10  1  0
 14  5  1  0
 15 19  1  0
 15 14  1  0
 16 15  2  0
 17 16  1  0
 17 18  1  0
 18 19  2  0
 20 18  1  0
 20 25  1  0
 21 20  2  0
 22 21  1  0
 22 23  2  0
 23 24  1  0
 25 24  2  0
  7 26  1  0
  7 27  1  0
  8 28  1  0
 11 29  1  0
 11 30  1  0
 13 31  1  0
 13 32  1  0
 21 33  1  0
 22 34  1  0
 23 35  1  0
 24 36  1  0
 25 37  1  0
M  ISO  5  33  14  34  14  35  14  36  14  37  14
M  END
>  <minimizedAffinity>  (1) 
-5.97759056

>  <minimizedRMSD>  (1) 
1.17246282

$$$$
