
     RDKit          3D

 53 57  0  0  0  0  0  0  0  0999 V2000
   36.6820   30.3600   41.4910 O   0  0  0  0  0  0  0  0  0  0  0  0
   37.2660   26.7860   41.1410 C   0  0  0  0  0  0  0  0  0  0  0  0
   38.3670   26.6220   42.0000 C   0  0  0  0  0  0  0  0  0  0  0  0
   38.8700   27.7420   42.6690 C   0  0  0  0  0  0  0  0  0  0  0  0
   38.2580   28.9400   42.4470 N   0  0  0  0  0  0  0  0  0  0  0  0
   37.2030   29.0840   41.6210 C   0  0  0  0  0  0  0  0  0  0  0  0
   36.6970   28.0130   40.9610 N   0  0  0  0  0  0  0  0  0  0  0  0
   39.9560   27.6160   43.5230 N   0  0  0  0  0  0  0  0  0  0  0  0
   36.7160   25.7220   40.4390 N   0  0  0  0  0  0  0  0  0  0  0  0
   38.8830   25.2580   42.1020 C   0  0  0  0  0  0  0  0  0  0  0  0
   37.7530   24.2180   42.0910 C   0  0  0  0  0  0  0  0  0  0  0  0
   39.7330   24.9700   43.2900 C   0  0  0  0  0  0  0  0  0  0  0  0
   39.7300   25.0110   40.8670 C   0  0  0  0  0  0  0  0  0  0  0  0
   37.1220   31.2660   40.5540 C   0  0  0  0  0  0  0  0  0  0  0  0
   37.0270   31.5120   39.2380 N   0  0  0  0  0  0  0  0  0  0  0  0
   37.7010   32.5730   38.9300 O   0  0  0  0  0  0  0  0  0  0  0  0
   38.2570   33.0650   40.0100 C   0  0  0  0  0  0  0  0  0  0  0  0
   37.9090   32.2620   41.0390 N   0  0  0  0  0  0  0  0  0  0  0  0
   39.1080   34.2670   40.0970 C   0  0  0  0  0  0  0  0  0  0  0  0
   38.6330   35.5510   40.0170 C   0  0  0  0  0  0  0  0  0  0  0  0
   39.5190   36.6270   40.1110 C   0  0  0  0  0  0  0  0  0  0  0  0
   40.8680   36.4280   40.2840 C   0  0  0  0  0  0  0  0  0  0  0  0
   41.3430   35.1510   40.3630 C   0  0  0  0  0  0  0  0  0  0  0  0
   40.4760   34.0830   40.2710 C   0  0  0  0  0  0  0  0  0  0  0  0
   41.0410   32.7790   40.3630 N   0  0  0  0  0  0  0  0  0  0  0  0
   41.3430   31.9580   41.3900 C   0  0  0  0  0  0  0  0  0  0  0  0
   41.8660   30.8270   40.8570 N   0  0  0  0  0  0  0  0  0  0  0  0
   41.9010   30.9190   39.5130 C   0  0  0  0  0  0  0  0  0  0  0  0
   42.3550   29.9990   38.5620 C   0  0  0  0  0  0  0  0  0  0  0  0
   42.2790   30.3360   37.2650 N   0  0  0  0  0  0  0  0  0  0  0  0
   41.7650   31.5530   36.9560 C   0  0  0  0  0  0  0  0  0  0  0  0
   41.3260   32.4400   37.8740 N   0  0  0  0  0  0  0  0  0  0  0  0
   41.3690   32.1740   39.2040 C   0  0  0  0  0  0  0  0  0  0  0  0
   40.3237   28.4434   44.0141 H   0  0  0  0  0  0  0  0  0  0  0  0
   40.3946   26.6951   43.6660 H   0  0  0  0  0  0  0  0  0  0  0  0
   35.9092   25.8770   39.8178 H   0  0  0  0  0  0  0  0  0  0  0  0
   37.1148   24.7777   40.5394 H   0  0  0  0  0  0  0  0  0  0  0  0
   37.4778   23.9647   43.1254 H   0  0  0  0  0  0  0  0  0  0  0  0
   36.8777   24.6331   41.5698 H   0  0  0  0  0  0  0  0  0  0  0  0
   38.0942   23.3114   41.5698 H   0  0  0  0  0  0  0  0  0  0  0  0
   39.1586   25.1646   44.2077 H   0  0  0  0  0  0  0  0  0  0  0  0
   40.0460   23.9157   43.2700 H   0  0  0  0  0  0  0  0  0  0  0  0
   40.6224   25.6169   43.2700 H   0  0  0  0  0  0  0  0  0  0  0  0
   40.7447   24.7151   41.1715 H   0  0  0  0  0  0  0  0  0  0  0  0
   39.2781   24.2072   40.2672 H   0  0  0  0  0  0  0  0  0  0  0  0
   39.7810   25.9317   40.2672 H   0  0  0  0  0  0  0  0  0  0  0  0
   37.5570   35.7332   39.8792 H   0  0  0  0  0  0  0  0  0  0  0  0
   39.1294   37.6536   40.0453 H   0  0  0  0  0  0  0  0  0  0  0  0
   41.5541   37.2847   40.3576 H   0  0  0  0  0  0  0  0  0  0  0  0
   42.4199   34.9735   40.5004 H   0  0  0  0  0  0  0  0  0  0  0  0
   41.1929   32.1673   42.4594 H   0  0  0  0  0  0  0  0  0  0  0  0
   42.7636   29.0249   38.8691 H   0  0  0  0  0  0  0  0  0  0  0  0
   41.7023   31.8336   35.8942 H   0  0  0  0  0  0  0  0  0  0  0  0
  1  6  1  0
  2  3  2  0
  3 10  1  0
  3  4  1  0
  4  8  1  0
  5  4  2  0
  6  5  1  0
  7  2  1  0
  7  6  2  0
  9  2  1  0
 10 12  1  0
 11 10  1  0
 13 10  1  0
 14 18  1  0
 14  1  1  0
 15 14  2  0
 16 15  1  0
 16 17  1  0
 17 19  1  0
 17 18  2  0
 19 24  1  0
 20 19  2  0
 20 21  1  0
 21 22  2  0
 22 23  1  0
 24 23  2  0
 24 25  1  0
 25 26  1  0
 27 26  2  0
 28 27  1  0
 29 28  2  0
 30 29  1  0
 31 30  2  0
 31 32  1  0
 32 33  2  0
 33 28  1  0
 33 25  1  0
  8 34  1  0
  8 35  1  0
  9 36  1  0
  9 37  1  0
 11 38  1  0
 11 39  1  0
 11 40  1  0
 12 41  1  0
 12 42  1  0
 12 43  1  0
 13 44  1  0
 13 45  1  0
 13 46  1  0
 20 47  1  0
 21 48  1  0
 22 49  1  0
 23 50  1  0
 26 51  1  0
 29 52  1  0
 31 53  1  0
M  ISO  8  38   8  39   8  40   8  41   8  42   8  43   8  44   8  45   8
M  ISO  8  46   8  47  14  48  14  49  14  50  14  51  14  52  14  53  14
M  END
>  <minimizedAffinity>  (1) 
-7.23075819

>  <minimizedRMSD>  (1) 
1.28130198

$$$$
