
     RDKit          3D

 50 53  0  0  0  0  0  0  0  0999 V2000
   37.2840   26.7530   41.1270 C   0  0  0  0  0  0  0  0  0  0  0  0
   38.3620   26.5490   41.9870 C   0  0  0  0  0  0  0  0  0  0  0  0
   38.8800   27.6440   42.7050 C   0  0  0  0  0  0  0  0  0  0  0  0
   38.2820   28.8550   42.5090 N   0  0  0  0  0  0  0  0  0  0  0  0
   37.2410   29.0400   41.6750 C   0  0  0  0  0  0  0  0  0  0  0  0
   36.7330   27.9940   40.9770 N   0  0  0  0  0  0  0  0  0  0  0  0
   39.9550   27.4710   43.5640 N   0  0  0  0  0  0  0  0  0  0  0  0
   36.7270   25.7230   40.3780 N   0  0  0  0  0  0  0  0  0  0  0  0
   36.7400   30.3250   41.5800 O   0  0  0  0  0  0  0  0  0  0  0  0
   37.0890   31.2030   40.5780 C   0  0  0  0  0  0  0  0  0  0  0  0
   36.8540   31.4140   39.2720 N   0  0  0  0  0  0  0  0  0  0  0  0
   37.5070   32.4600   38.8670 O   0  0  0  0  0  0  0  0  0  0  0  0
   38.1810   32.9670   39.8570 C   0  0  0  0  0  0  0  0  0  0  0  0
   37.9390   32.1960   40.9520 N   0  0  0  0  0  0  0  0  0  0  0  0
   39.0570   34.1560   39.8360 C   0  0  0  0  0  0  0  0  0  0  0  0
   38.6350   35.4190   40.1910 C   0  0  0  0  0  0  0  0  0  0  0  0
   39.5370   36.4870   40.1410 C   0  0  0  0  0  0  0  0  0  0  0  0
   40.8520   36.2980   39.7400 C   0  0  0  0  0  0  0  0  0  0  0  0
   41.2490   35.0360   39.3930 C   0  0  0  0  0  0  0  0  0  0  0  0
   40.3670   33.9830   39.4400 C   0  0  0  0  0  0  0  0  0  0  0  0
   40.9480   32.7060   39.0370 C   0  0  0  0  0  0  0  0  0  0  0  0
   41.4120   31.6700   39.8210 C   0  0  0  0  0  0  0  0  0  0  0  0
   41.9200   30.5560   39.1740 C   0  0  0  0  0  0  0  0  0  0  0  0
   41.9590   30.4880   37.8220 N   0  0  0  0  0  0  0  0  0  0  0  0
   41.5100   31.4860   37.0780 C   0  0  0  0  0  0  0  0  0  0  0  0
   41.0120   32.5780   37.6810 N   0  0  0  0  0  0  0  0  0  0  0  0
   38.8580   25.1770   42.0610 C   0  0  0  0  0  0  0  0  0  0  0  0
   37.7230   24.1530   41.9900 C   0  0  0  0  0  0  0  0  0  0  0  0
   39.6880   24.8350   43.2500 C   0  0  0  0  0  0  0  0  0  0  0  0
   39.7360   24.9610   40.8390 C   0  0  0  0  0  0  0  0  0  0  0  0
   40.3307   28.2748   44.0872 H   0  0  0  0  0  0  0  0  0  0  0  0
   40.3777   26.5388   43.6787 H   0  0  0  0  0  0  0  0  0  0  0  0
   35.9305   25.9131   39.7532 H   0  0  0  0  0  0  0  0  0  0  0  0
   37.1107   24.7697   40.4478 H   0  0  0  0  0  0  0  0  0  0  0  0
   37.5961   35.5861   40.5115 H   0  0  0  0  0  0  0  0  0  0  0  0
   39.1980   37.4943   40.4245 H   0  0  0  0  0  0  0  0  0  0  0  0
   41.5570   37.1415   39.7022 H   0  0  0  0  0  0  0  0  0  0  0  0
   42.2867   34.8617   39.0724 H   0  0  0  0  0  0  0  0  0  0  0  0
   41.3797   31.7267   40.9191 H   0  0  0  0  0  0  0  0  0  0  0  0
   42.2985   29.7115   39.7687 H   0  0  0  0  0  0  0  0  0  0  0  0
   41.5442   31.4221   35.9804 H   0  0  0  0  0  0  0  0  0  0  0  0
   37.4153   23.8754   43.0090 H   0  0  0  0  0  0  0  0  0  0  0  0
   36.8673   24.5906   41.4550 H   0  0  0  0  0  0  0  0  0  0  0  0
   38.0706   23.2569   41.4550 H   0  0  0  0  0  0  0  0  0  0  0  0
   39.1270   25.0662   44.1675 H   0  0  0  0  0  0  0  0  0  0  0  0
   39.9327   23.7628   43.2302 H   0  0  0  0  0  0  0  0  0  0  0  0
   40.6171   25.4236   43.2302 H   0  0  0  0  0  0  0  0  0  0  0  0
   40.7573   24.7097   41.1611 H   0  0  0  0  0  0  0  0  0  0  0  0
   39.3284   24.1363   40.2358 H   0  0  0  0  0  0  0  0  0  0  0  0
   39.7576   25.8806   40.2358 H   0  0  0  0  0  0  0  0  0  0  0  0
  1  2  2  0
  2 27  1  0
  2  3  1  0
  3  7  1  0
  4  3  2  0
  5  4  1  0
  6  1  1  0
  6  5  2  0
  8  1  1  0
  9  5  1  0
 10 14  1  0
 10  9  1  0
 11 10  2  0
 12 11  1  0
 12 13  1  0
 13 14  2  0
 15 13  1  0
 15 16  2  0
 17 16  1  0
 18 17  2  0
 19 20  2  0
 19 18  1  0
 20 15  1  0
 21 20  1  0
 21 22  2  0
 23 22  1  0
 24 23  2  0
 25 26  2  0
 25 24  1  0
 26 21  1  0
 27 29  1  0
 28 27  1  0
 30 27  1  0
  7 31  1  0
  7 32  1  0
  8 33  1  0
  8 34  1  0
 16 35  1  0
 17 36  1  0
 18 37  1  0
 19 38  1  0
 22 39  1  0
 23 40  1  0
 25 41  1  0
 28 42  1  0
 28 43  1  0
 28 44  1  0
 29 45  1  0
 29 46  1  0
 29 47  1  0
 30 48  1  0
 30 49  1  0
 30 50  1  0
M  ISO  8  35  14  36  14  37  14  38  14  39  14  40  14  41  14  42   8
M  ISO  8  43   8  44   8  45   8  46   8  47   8  48   8  49   8  50   8
M  END
>  <minimizedAffinity>  (1) 
-6.99965286

>  <minimizedRMSD>  (1) 
0.819136977

$$$$
