
     RDKit          3D

 49 52  0  0  0  0  0  0  0  0999 V2000
   37.3270   26.6180   41.0740 C   0  0  0  0  0  0  0  0  0  0  0  0
   38.3700   26.3300   41.9850 C   0  0  0  0  0  0  0  0  0  0  0  0
   38.8470   27.3480   42.8150 C   0  0  0  0  0  0  0  0  0  0  0  0
   38.2690   28.5760   42.6970 N   0  0  0  0  0  0  0  0  0  0  0  0
   37.2720   28.8470   41.8250 C   0  0  0  0  0  0  0  0  0  0  0  0
   36.7950   27.8700   41.0090 N   0  0  0  0  0  0  0  0  0  0  0  0
   39.8700   27.0870   43.7060 N   0  0  0  0  0  0  0  0  0  0  0  0
   36.8140   25.6590   40.2140 N   0  0  0  0  0  0  0  0  0  0  0  0
   36.7840   30.1420   41.8180 O   0  0  0  0  0  0  0  0  0  0  0  0
   37.0490   31.0420   40.8070 C   0  0  0  0  0  0  0  0  0  0  0  0
   36.6650   31.3240   39.5530 N   0  0  0  0  0  0  0  0  0  0  0  0
   37.3220   32.3520   39.1130 O   0  0  0  0  0  0  0  0  0  0  0  0
   38.1500   32.7820   40.0380 C   0  0  0  0  0  0  0  0  0  0  0  0
   37.9900   31.9710   41.1090 N   0  0  0  0  0  0  0  0  0  0  0  0
   39.0710   33.9270   39.9310 C   0  0  0  0  0  0  0  0  0  0  0  0
   38.7510   35.2090   40.3210 C   0  0  0  0  0  0  0  0  0  0  0  0
   39.6880   36.2260   40.1800 C   0  0  0  0  0  0  0  0  0  0  0  0
   40.9440   35.9750   39.6550 C   0  0  0  0  0  0  0  0  0  0  0  0
   41.2570   34.6960   39.2690 C   0  0  0  0  0  0  0  0  0  0  0  0
   40.3290   33.6830   39.4070 C   0  0  0  0  0  0  0  0  0  0  0  0
   40.7010   32.3730   38.9920 N   0  0  0  0  0  0  0  0  0  0  0  0
   41.1370   31.3080   39.6510 N   0  0  0  0  0  0  0  0  0  0  0  0
   41.3560   30.2920   38.8020 C   0  0  0  0  0  0  0  0  0  0  0  0
   41.0290   30.7680   37.5280 C   0  0  0  0  0  0  0  0  0  0  0  0
   40.6220   32.0740   37.6630 C   0  0  0  0  0  0  0  0  0  0  0  0
   38.8420   24.9450   41.9510 C   0  0  0  0  0  0  0  0  0  0  0  0
   37.7070   23.9450   41.7280 C   0  0  0  0  0  0  0  0  0  0  0  0
   39.6020   24.4760   43.1440 C   0  0  0  0  0  0  0  0  0  0  0  0
   39.7810   24.8310   40.7570 C   0  0  0  0  0  0  0  0  0  0  0  0
   40.2230   27.8360   44.3186 H   0  0  0  0  0  0  0  0  0  0  0  0
   40.2797   26.1434   43.7577 H   0  0  0  0  0  0  0  0  0  0  0  0
   36.0540   25.9043   39.5635 H   0  0  0  0  0  0  0  0  0  0  0  0
   37.1929   24.7013   40.2257 H   0  0  0  0  0  0  0  0  0  0  0  0
   37.7584   35.4268   40.7421 H   0  0  0  0  0  0  0  0  0  0  0  0
   39.4268   37.2483   40.4911 H   0  0  0  0  0  0  0  0  0  0  0  0
   41.6785   36.7869   39.5491 H   0  0  0  0  0  0  0  0  0  0  0  0
   42.2497   34.4772   38.8486 H   0  0  0  0  0  0  0  0  0  0  0  0
   41.7200   29.2858   39.0571 H   0  0  0  0  0  0  0  0  0  0  0  0
   41.0871   30.1998   36.5879 H   0  0  0  0  0  0  0  0  0  0  0  0
   40.2960   32.7472   36.8565 H   0  0  0  0  0  0  0  0  0  0  0  0
   37.3213   23.6052   42.7005 H   0  0  0  0  0  0  0  0  0  0  0  0
   36.8978   24.4291   41.1615 H   0  0  0  0  0  0  0  0  0  0  0  0
   38.0853   23.0813   41.1615 H   0  0  0  0  0  0  0  0  0  0  0  0
   39.0825   24.7966   44.0590 H   0  0  0  0  0  0  0  0  0  0  0  0
   39.6706   23.3783   43.1268 H   0  0  0  0  0  0  0  0  0  0  0  0
   40.6139   24.9069   43.1268 H   0  0  0  0  0  0  0  0  0  0  0  0
   40.8140   24.7056   41.1136 H   0  0  0  0  0  0  0  0  0  0  0  0
   39.4953   23.9609   40.1476 H   0  0  0  0  0  0  0  0  0  0  0  0
   39.7118   25.7441   40.1476 H   0  0  0  0  0  0  0  0  0  0  0  0
  1  2  2  0
  2  3  1  0
  3  7  1  0
  4  3  2  0
  5  4  1  0
  6  1  1  0
  6  5  2  0
  8  1  1  0
  9  5  1  0
 10 14  1  0
 10  9  1  0
 11 10  2  0
 12 11  1  0
 12 13  1  0
 13 14  2  0
 15 13  1  0
 15 16  2  0
 17 16  1  0
 18 17  2  0
 19 20  2  0
 19 18  1  0
 20 15  1  0
 21 20  1  0
 21 22  1  0
 23 22  2  0
 24 25  2  0
 24 23  1  0
 25 21  1  0
 26  2  1  0
 26 28  1  0
 27 26  1  0
 29 26  1  0
  7 30  1  0
  7 31  1  0
  8 32  1  0
  8 33  1  0
 16 34  1  0
 17 35  1  0
 18 36  1  0
 19 37  1  0
 23 38  1  0
 24 39  1  0
 25 40  1  0
 27 41  1  0
 27 42  1  0
 27 43  1  0
 28 44  1  0
 28 45  1  0
 28 46  1  0
 29 47  1  0
 29 48  1  0
 29 49  1  0
M  ISO  8  34  14  35  14  36  14  37  14  38  14  39  14  40  14  41   8
M  ISO  8  42   8  43   8  44   8  45   8  46   8  47   8  48   8  49   8
M  END
>  <minimizedAffinity>  (1) 
-6.92452145

>  <minimizedRMSD>  (1) 
0.18096818

$$$$
