
     RDKit          3D

 49 52  0  0  0  0  0  0  0  0999 V2000
   37.3010   26.6290   41.0680 C   0  0  0  0  0  0  0  0  0  0  0  0
   38.3470   26.3420   41.9730 C   0  0  0  0  0  0  0  0  0  0  0  0
   38.8210   27.3650   42.7990 C   0  0  0  0  0  0  0  0  0  0  0  0
   38.2410   28.5930   42.6800 N   0  0  0  0  0  0  0  0  0  0  0  0
   37.2400   28.8550   41.8090 C   0  0  0  0  0  0  0  0  0  0  0  0
   36.7570   27.8760   40.9920 N   0  0  0  0  0  0  0  0  0  0  0  0
   39.8470   27.1180   43.6960 N   0  0  0  0  0  0  0  0  0  0  0  0
   36.7920   25.6590   40.2170 N   0  0  0  0  0  0  0  0  0  0  0  0
   36.7450   30.1480   41.7970 O   0  0  0  0  0  0  0  0  0  0  0  0
   37.0220   31.0550   40.7950 C   0  0  0  0  0  0  0  0  0  0  0  0
   36.6370   31.3500   39.5420 N   0  0  0  0  0  0  0  0  0  0  0  0
   37.3080   32.3710   39.1160 O   0  0  0  0  0  0  0  0  0  0  0  0
   38.1420   32.7840   40.0410 C   0  0  0  0  0  0  0  0  0  0  0  0
   37.9790   31.9730   41.1050 N   0  0  0  0  0  0  0  0  0  0  0  0
   39.0830   33.9210   39.9450 C   0  0  0  0  0  0  0  0  0  0  0  0
   38.8190   35.1770   40.4330 C   0  0  0  0  0  0  0  0  0  0  0  0
   39.7670   36.1810   40.2950 C   0  0  0  0  0  0  0  0  0  0  0  0
   40.9730   35.9560   39.6800 C   0  0  0  0  0  0  0  0  0  0  0  0
   41.2240   34.7110   39.2010 C   0  0  0  0  0  0  0  0  0  0  0  0
   40.3000   33.6780   39.3200 C   0  0  0  0  0  0  0  0  0  0  0  0
   40.6640   32.3750   38.7720 C   0  0  0  0  0  0  0  0  0  0  0  0
   40.5990   31.7180   37.5380 C   0  0  0  0  0  0  0  0  0  0  0  0
   41.1460   30.4600   37.7590 C   0  0  0  0  0  0  0  0  0  0  0  0
   41.5130   30.4100   39.0900 C   0  0  0  0  0  0  0  0  0  0  0  0
   41.2130   31.5550   39.6460 O   0  0  0  0  0  0  0  0  0  0  0  0
   38.8290   24.9620   41.9470 C   0  0  0  0  0  0  0  0  0  0  0  0
   37.7010   23.9570   41.7190 C   0  0  0  0  0  0  0  0  0  0  0  0
   39.5990   24.5120   43.1400 C   0  0  0  0  0  0  0  0  0  0  0  0
   39.7720   24.8530   40.7530 C   0  0  0  0  0  0  0  0  0  0  0  0
   40.1936   27.8745   44.3030 H   0  0  0  0  0  0  0  0  0  0  0  0
   40.2634   26.1778   43.7560 H   0  0  0  0  0  0  0  0  0  0  0  0
   36.0289   25.8939   39.5662 H   0  0  0  0  0  0  0  0  0  0  0  0
   37.1771   24.7039   40.2359 H   0  0  0  0  0  0  0  0  0  0  0  0
   37.8607   35.3863   40.9309 H   0  0  0  0  0  0  0  0  0  0  0  0
   39.5459   37.1839   40.6891 H   0  0  0  0  0  0  0  0  0  0  0  0
   41.7151   36.7616   39.5781 H   0  0  0  0  0  0  0  0  0  0  0  0
   42.1855   34.5133   38.7046 H   0  0  0  0  0  0  0  0  0  0  0  0
   40.1993   32.1139   36.5928 H   0  0  0  0  0  0  0  0  0  0  0  0
   41.2642   29.6573   37.0162 H   0  0  0  0  0  0  0  0  0  0  0  0
   41.9789   29.5519   39.5966 H   0  0  0  0  0  0  0  0  0  0  0  0
   37.3147   23.6129   42.6898 H   0  0  0  0  0  0  0  0  0  0  0  0
   36.8906   24.4379   41.1515 H   0  0  0  0  0  0  0  0  0  0  0  0
   38.0855   23.0967   41.1515 H   0  0  0  0  0  0  0  0  0  0  0  0
   39.0714   24.8203   44.0546 H   0  0  0  0  0  0  0  0  0  0  0  0
   39.6939   23.4162   43.1232 H   0  0  0  0  0  0  0  0  0  0  0  0
   40.6003   24.9671   43.1232 H   0  0  0  0  0  0  0  0  0  0  0  0
   40.8051   24.7336   41.1114 H   0  0  0  0  0  0  0  0  0  0  0  0
   39.4923   23.9812   40.1433 H   0  0  0  0  0  0  0  0  0  0  0  0
   39.6986   25.7656   40.1433 H   0  0  0  0  0  0  0  0  0  0  0  0
  1  2  2  0
  2  3  1  0
  3  7  1  0
  4  3  2  0
  5  4  1  0
  6  1  1  0
  6  5  2  0
  8  1  1  0
  9  5  1  0
 10 14  1  0
 10  9  1  0
 11 10  2  0
 12 11  1  0
 12 13  1  0
 13 14  2  0
 15 13  1  0
 15 16  2  0
 17 16  1  0
 18 17  2  0
 19 20  2  0
 19 18  1  0
 20 15  1  0
 21 20  1  0
 21 25  1  0
 22 23  1  0
 22 21  2  0
 23 24  2  0
 24 25  1  0
 26  2  1  0
 26 28  1  0
 27 26  1  0
 29 26  1  0
  7 30  1  0
  7 31  1  0
  8 32  1  0
  8 33  1  0
 16 34  1  0
 17 35  1  0
 18 36  1  0
 19 37  1  0
 22 38  1  0
 23 39  1  0
 24 40  1  0
 27 41  1  0
 27 42  1  0
 27 43  1  0
 28 44  1  0
 28 45  1  0
 28 46  1  0
 29 47  1  0
 29 48  1  0
 29 49  1  0
M  ISO  8  34  14  35  14  36  14  37  14  38  14  39  14  40  14  41   8
M  ISO  8  42   8  43   8  44   8  45   8  46   8  47   8  48   8  49   8
M  END
>  <minimizedAffinity>  (1) 
-6.88434887

>  <minimizedRMSD>  (1) 
0.281491667

$$$$
