
     RDKit          3D

 45 47  0  0  0  0  0  0  0  0999 V2000
   37.1980   26.5720   40.9820 C   0  0  0  0  0  0  0  0  0  0  0  0
   38.2530   26.3860   41.9040 C   0  0  0  0  0  0  0  0  0  0  0  0
   38.6860   27.4750   42.6680 C   0  0  0  0  0  0  0  0  0  0  0  0
   38.0540   28.6680   42.4720 N   0  0  0  0  0  0  0  0  0  0  0  0
   37.0460   28.8380   41.5890 C   0  0  0  0  0  0  0  0  0  0  0  0
   36.6120   27.7980   40.8400 N   0  0  0  0  0  0  0  0  0  0  0  0
   39.7190   27.3120   43.5720 N   0  0  0  0  0  0  0  0  0  0  0  0
   36.7190   25.5420   40.1880 N   0  0  0  0  0  0  0  0  0  0  0  0
   36.5050   30.1070   41.5050 O   0  0  0  0  0  0  0  0  0  0  0  0
   36.8840   31.0300   40.5530 C   0  0  0  0  0  0  0  0  0  0  0  0
   36.5940   31.3770   39.2900 N   0  0  0  0  0  0  0  0  0  0  0  0
   37.3280   32.3820   38.9290 O   0  0  0  0  0  0  0  0  0  0  0  0
   38.1180   32.7300   39.9170 C   0  0  0  0  0  0  0  0  0  0  0  0
   37.8540   31.8950   40.9440 N   0  0  0  0  0  0  0  0  0  0  0  0
   39.1080   33.8250   39.9170 C   0  0  0  0  0  0  0  0  0  0  0  0
   38.9840   34.9720   40.6540 C   0  0  0  0  0  0  0  0  0  0  0  0
   39.9720   35.9510   40.5880 C   0  0  0  0  0  0  0  0  0  0  0  0
   41.0830   35.7960   39.7950 C   0  0  0  0  0  0  0  0  0  0  0  0
   41.1960   34.6520   39.0660 C   0  0  0  0  0  0  0  0  0  0  0  0
   40.2270   33.6740   39.1200 C   0  0  0  0  0  0  0  0  0  0  0  0
   40.3920   32.4650   38.3210 C   0  0  0  0  0  0  0  0  0  0  0  0
   41.0080   31.4660   38.7830 O   0  0  0  0  0  0  0  0  0  0  0  0
   39.8910   32.3640   37.0500 O   0  0  0  0  0  0  0  0  0  0  0  0
   38.7830   25.0240   41.9520 C   0  0  0  0  0  0  0  0  0  0  0  0
   37.6990   23.9660   41.7740 C   0  0  0  0  0  0  0  0  0  0  0  0
   39.5600   24.6680   43.1730 C   0  0  0  0  0  0  0  0  0  0  0  0
   39.7440   24.8830   40.7740 C   0  0  0  0  0  0  0  0  0  0  0  0
   40.0405   28.1115   44.1363 H   0  0  0  0  0  0  0  0  0  0  0  0
   40.1672   26.3911   43.6813 H   0  0  0  0  0  0  0  0  0  0  0  0
   35.9482   25.7167   39.5275 H   0  0  0  0  0  0  0  0  0  0  0  0
   37.1338   24.6018   40.2584 H   0  0  0  0  0  0  0  0  0  0  0  0
   38.1045   35.1201   41.2979 H   0  0  0  0  0  0  0  0  0  0  0  0
   39.8604   36.8688   41.1840 H   0  0  0  0  0  0  0  0  0  0  0  0
   41.8592   36.5742   39.7504 H   0  0  0  0  0  0  0  0  0  0  0  0
   42.0762   34.5058   38.4226 H   0  0  0  0  0  0  0  0  0  0  0  0
   39.4008   33.1251   36.6492 H   0  0  0  0  0  0  0  0  0  0  0  0
   37.3518   23.6271   42.7612 H   0  0  0  0  0  0  0  0  0  0  0  0
   36.8544   24.3967   41.2162 H   0  0  0  0  0  0  0  0  0  0  0  0
   38.1090   23.1112   41.2162 H   0  0  0  0  0  0  0  0  0  0  0  0
   38.9787   24.9343   44.0681 H   0  0  0  0  0  0  0  0  0  0  0  0
   39.7633   23.5869   43.1760 H   0  0  0  0  0  0  0  0  0  0  0  0
   40.5115   25.2200   43.1760 H   0  0  0  0  0  0  0  0  0  0  0  0
   40.7665   24.7330   41.1509 H   0  0  0  0  0  0  0  0  0  0  0  0
   39.4486   24.0186   40.1612 H   0  0  0  0  0  0  0  0  0  0  0  0
   39.7093   25.7958   40.1612 H   0  0  0  0  0  0  0  0  0  0  0  0
  1  2  2  0
  2 24  1  0
  2  3  1  0
  3  7  1  0
  4  3  2  0
  5  4  1  0
  6  1  1  0
  6  5  2  0
  8  1  1  0
  9  5  1  0
 10 14  1  0
 10  9  1  0
 11 10  2  0
 12 11  1  0
 12 13  1  0
 13 14  2  0
 15 13  1  0
 15 16  2  0
 17 16  1  0
 18 17  2  0
 19 20  2  0
 19 18  1  0
 20 15  1  0
 21 22  2  0
 21 20  1  0
 23 21  1  0
 24 26  1  0
 25 24  1  0
 27 24  1  0
  7 28  1  0
  7 29  1  0
  8 30  1  0
  8 31  1  0
 16 32  1  0
 17 33  1  0
 18 34  1  0
 19 35  1  0
 23 36  1  0
 25 37  1  0
 25 38  1  0
 25 39  1  0
 26 40  1  0
 26 41  1  0
 26 42  1  0
 27 43  1  0
 27 44  1  0
 27 45  1  0
M  ISO  8  32  14  33  14  34  14  35  14  36   3  37   8  38   8  39   8
M  ISO  6  40   8  41   8  42   8  43   8  44   8  45   8
M  END
>  <minimizedAffinity>  (1) 
-6.86939144

>  <minimizedRMSD>  (1) 
0.461289763

$$$$
