
     RDKit          3D

 54 56  0  0  0  0  0  0  0  0999 V2000
   37.3160   26.6170   41.0850 C   0  0  0  0  0  0  0  0  0  0  0  0
   38.3520   26.3160   41.9830 C   0  0  0  0  0  0  0  0  0  0  0  0
   38.8400   27.3420   42.8210 C   0  0  0  0  0  0  0  0  0  0  0  0
   38.2530   28.5730   42.6890 N   0  0  0  0  0  0  0  0  0  0  0  0
   37.2570   28.8390   41.8180 C   0  0  0  0  0  0  0  0  0  0  0  0
   36.7870   27.8660   41.0150 N   0  0  0  0  0  0  0  0  0  0  0  0
   39.8600   27.0770   43.7160 N   0  0  0  0  0  0  0  0  0  0  0  0
   36.7940   25.6440   40.2260 N   0  0  0  0  0  0  0  0  0  0  0  0
   36.7840   30.1420   41.8230 O   0  0  0  0  0  0  0  0  0  0  0  0
   37.0380   31.0380   40.8090 C   0  0  0  0  0  0  0  0  0  0  0  0
   36.6370   31.3250   39.5660 N   0  0  0  0  0  0  0  0  0  0  0  0
   37.2920   32.3460   39.1050 O   0  0  0  0  0  0  0  0  0  0  0  0
   38.1310   32.7660   40.0020 C   0  0  0  0  0  0  0  0  0  0  0  0
   37.9900   31.9570   41.0880 N   0  0  0  0  0  0  0  0  0  0  0  0
   39.0750   33.9000   39.9050 C   0  0  0  0  0  0  0  0  0  0  0  0
   38.7550   35.1760   40.3360 C   0  0  0  0  0  0  0  0  0  0  0  0
   39.7060   36.1920   40.2200 C   0  0  0  0  0  0  0  0  0  0  0  0
   40.9470   35.9590   39.6910 C   0  0  0  0  0  0  0  0  0  0  0  0
   41.2270   34.6990   39.2800 C   0  0  0  0  0  0  0  0  0  0  0  0
   40.3210   33.6720   39.3760 C   0  0  0  0  0  0  0  0  0  0  0  0
   40.7770   32.3220   38.8750 C   0  0  0  0  0  0  0  0  0  0  0  0
   39.9890   31.9190   37.6380 C   0  0  0  0  0  0  0  0  0  0  0  0
   42.2250   32.3880   38.4340 C   0  0  0  0  0  0  0  0  0  0  0  0
   40.7220   31.2640   39.9410 C   0  0  0  0  0  0  0  0  0  0  0  0
   38.8260   24.9390   41.9570 C   0  0  0  0  0  0  0  0  0  0  0  0
   37.6950   23.9370   41.7380 C   0  0  0  0  0  0  0  0  0  0  0  0
   39.5920   24.4730   43.1480 C   0  0  0  0  0  0  0  0  0  0  0  0
   39.7670   24.8250   40.7630 C   0  0  0  0  0  0  0  0  0  0  0  0
   40.2161   27.8255   44.3274 H   0  0  0  0  0  0  0  0  0  0  0  0
   40.2638   26.1311   43.7713 H   0  0  0  0  0  0  0  0  0  0  0  0
   36.0337   25.8864   39.5748 H   0  0  0  0  0  0  0  0  0  0  0  0
   37.1700   24.6852   40.2448 H   0  0  0  0  0  0  0  0  0  0  0  0
   37.7641   35.3870   40.7645 H   0  0  0  0  0  0  0  0  0  0  0  0
   39.4514   37.2058   40.5626 H   0  0  0  0  0  0  0  0  0  0  0  0
   41.6897   36.7656   39.6029 H   0  0  0  0  0  0  0  0  0  0  0  0
   42.2189   34.4906   38.8527 H   0  0  0  0  0  0  0  0  0  0  0  0
   39.0481   31.4378   37.9433 H   0  0  0  0  0  0  0  0  0  0  0  0
   39.7656   32.8135   37.0381 H   0  0  0  0  0  0  0  0  0  0  0  0
   40.5835   31.2142   37.0381 H   0  0  0  0  0  0  0  0  0  0  0  0
   42.8770   32.4177   39.3195 H   0  0  0  0  0  0  0  0  0  0  0  0
   42.4655   31.4999   37.8312 H   0  0  0  0  0  0  0  0  0  0  0  0
   42.3838   33.2943   37.8312 H   0  0  0  0  0  0  0  0  0  0  0  0
   40.7468   31.7405   40.9321 H   0  0  0  0  0  0  0  0  0  0  0  0
   39.7926   30.6852   39.8355 H   0  0  0  0  0  0  0  0  0  0  0  0
   41.5864   30.5919   39.8355 H   0  0  0  0  0  0  0  0  0  0  0  0
   37.3120   23.5977   42.7118 H   0  0  0  0  0  0  0  0  0  0  0  0
   36.8835   24.4180   41.1722 H   0  0  0  0  0  0  0  0  0  0  0  0
   38.0746   23.0734   41.1722 H   0  0  0  0  0  0  0  0  0  0  0  0
   39.0725   24.7890   44.0647 H   0  0  0  0  0  0  0  0  0  0  0  0
   39.6675   23.3758   43.1291 H   0  0  0  0  0  0  0  0  0  0  0  0
   40.6011   24.9104   43.1291 H   0  0  0  0  0  0  0  0  0  0  0  0
   40.7997   24.6999   41.1207 H   0  0  0  0  0  0  0  0  0  0  0  0
   39.4821   23.9548   40.1534 H   0  0  0  0  0  0  0  0  0  0  0  0
   39.6982   25.7381   40.1534 H   0  0  0  0  0  0  0  0  0  0  0  0
  1  2  2  0
  2  3  1  0
  3  7  1  0
  4  3  2  0
  5  9  1  0
  5  4  1  0
  6  1  1  0
  6  5  2  0
  8  1  1  0
 10 14  1  0
 10  9  1  0
 11 10  2  0
 12 11  1  0
 12 13  1  0
 13 14  2  0
 15 13  1  0
 15 16  2  0
 17 16  1  0
 18 17  2  0
 19 20  2  0
 19 18  1  0
 20 15  1  0
 21 20  1  0
 21 24  1  0
 22 21  1  0
 23 21  1  0
 25  2  1  0
 25 27  1  0
 26 25  1  0
 28 25  1  0
  7 29  1  0
  7 30  1  0
  8 31  1  0
  8 32  1  0
 16 33  1  0
 17 34  1  0
 18 35  1  0
 19 36  1  0
 22 37  1  0
 22 38  1  0
 22 39  1  0
 23 40  1  0
 23 41  1  0
 23 42  1  0
 24 43  1  0
 24 44  1  0
 24 45  1  0
 26 46  1  0
 26 47  1  0
 26 48  1  0
 27 49  1  0
 27 50  1  0
 27 51  1  0
 28 52  1  0
 28 53  1  0
 28 54  1  0
M  ISO  8  33  14  34  14  35  14  36  14  37   8  38   8  39   8  40   8
M  ISO  8  41   8  42   8  43   8  44   8  45   8  46   8  47   8  48   8
M  ISO  6  49   8  50   8  51   8  52   8  53   8  54   8
M  END
>  <minimizedAffinity>  (1) 
-6.81607246

>  <minimizedRMSD>  (1) 
0.297508538

$$$$
