
     RDKit          3D

 49 52  0  0  0  0  0  0  0  0999 V2000
   37.3220   26.6080   41.0760 C   0  0  0  0  0  0  0  0  0  0  0  0
   38.3690   26.3170   41.9760 C   0  0  0  0  0  0  0  0  0  0  0  0
   38.8440   27.3350   42.8090 C   0  0  0  0  0  0  0  0  0  0  0  0
   38.2560   28.5660   42.6980 N   0  0  0  0  0  0  0  0  0  0  0  0
   37.2540   28.8320   41.8320 C   0  0  0  0  0  0  0  0  0  0  0  0
   36.7810   27.8490   41.0130 N   0  0  0  0  0  0  0  0  0  0  0  0
   39.8710   27.0910   43.7000 N   0  0  0  0  0  0  0  0  0  0  0  0
   36.8140   25.6430   40.2170 N   0  0  0  0  0  0  0  0  0  0  0  0
   36.7550   30.1230   41.8290 O   0  0  0  0  0  0  0  0  0  0  0  0
   37.0110   31.0300   40.8210 C   0  0  0  0  0  0  0  0  0  0  0  0
   36.6120   31.3280   39.5820 N   0  0  0  0  0  0  0  0  0  0  0  0
   37.2660   32.3510   39.1390 O   0  0  0  0  0  0  0  0  0  0  0  0
   38.1080   32.7640   40.0500 C   0  0  0  0  0  0  0  0  0  0  0  0
   37.9680   31.9500   41.1180 N   0  0  0  0  0  0  0  0  0  0  0  0
   39.0410   33.9020   39.9430 C   0  0  0  0  0  0  0  0  0  0  0  0
   38.7610   35.1780   40.3510 C   0  0  0  0  0  0  0  0  0  0  0  0
   39.7100   36.1870   40.2070 C   0  0  0  0  0  0  0  0  0  0  0  0
   40.9390   35.9300   39.6570 C   0  0  0  0  0  0  0  0  0  0  0  0
   41.2280   34.6650   39.2460 C   0  0  0  0  0  0  0  0  0  0  0  0
   40.2890   33.6510   39.3860 C   0  0  0  0  0  0  0  0  0  0  0  0
   40.6180   32.2640   38.9310 C   0  0  0  0  0  0  0  0  0  0  0  0
   40.6770   31.9680   37.4760 C   0  0  0  0  0  0  0  0  0  0  0  0
   41.9260   31.9920   38.2870 C   0  0  0  0  0  0  0  0  0  0  0  0
   38.8560   24.9420   41.9420 C   0  0  0  0  0  0  0  0  0  0  0  0
   37.7270   23.9350   41.7020 C   0  0  0  0  0  0  0  0  0  0  0  0
   39.6100   24.4710   43.1350 C   0  0  0  0  0  0  0  0  0  0  0  0
   39.8030   24.8440   40.7530 C   0  0  0  0  0  0  0  0  0  0  0  0
   40.2144   27.8469   44.3096 H   0  0  0  0  0  0  0  0  0  0  0  0
   40.2934   26.1532   43.7548 H   0  0  0  0  0  0  0  0  0  0  0  0
   36.0493   25.8812   39.5694 H   0  0  0  0  0  0  0  0  0  0  0  0
   37.2018   24.6889   40.2272 H   0  0  0  0  0  0  0  0  0  0  0  0
   37.7812   35.4078   40.7950 H   0  0  0  0  0  0  0  0  0  0  0  0
   39.4693   37.2073   40.5402 H   0  0  0  0  0  0  0  0  0  0  0  0
   41.6812   36.7347   39.5493 H   0  0  0  0  0  0  0  0  0  0  0  0
   42.2095   34.4447   38.8010 H   0  0  0  0  0  0  0  0  0  0  0  0
   40.0748   31.8426   39.7897 H   0  0  0  0  0  0  0  0  0  0  0  0
   40.4807   32.7649   36.7436 H   0  0  0  0  0  0  0  0  0  0  0  0
   40.1949   31.2378   36.8094 H   0  0  0  0  0  0  0  0  0  0  0  0
   42.4605   31.0549   38.5017 H   0  0  0  0  0  0  0  0  0  0  0  0
   42.8863   32.5245   38.2210 H   0  0  0  0  0  0  0  0  0  0  0  0
   37.3355   23.5858   42.6688 H   0  0  0  0  0  0  0  0  0  0  0  0
   36.9195   24.4183   41.1324 H   0  0  0  0  0  0  0  0  0  0  0  0
   38.1152   23.0778   41.1324 H   0  0  0  0  0  0  0  0  0  0  0  0
   39.0905   24.7955   44.0487 H   0  0  0  0  0  0  0  0  0  0  0  0
   39.6726   23.3729   43.1192 H   0  0  0  0  0  0  0  0  0  0  0  0
   40.6243   24.8964   43.1192 H   0  0  0  0  0  0  0  0  0  0  0  0
   40.8362   24.7371   41.1150 H   0  0  0  0  0  0  0  0  0  0  0  0
   39.5359   23.9687   40.1427 H   0  0  0  0  0  0  0  0  0  0  0  0
   39.7208   25.7554   40.1427 H   0  0  0  0  0  0  0  0  0  0  0  0
  1  2  2  0
  2  3  1  0
  3  7  1  0
  4  3  2  0
  5  4  1  0
  6  1  1  0
  6  5  2  0
  8  1  1  0
  9  5  1  0
 10 14  1  0
 10  9  1  0
 11 10  2  0
 12 11  1  0
 12 13  1  0
 13 14  2  0
 15 13  1  0
 15 16  2  0
 17 16  1  0
 18 17  2  0
 19 20  2  0
 19 18  1  0
 20 15  1  0
 21 20  1  0
 22 23  1  0
 22 21  1  0
 23 21  1  0
 24  2  1  0
 24 26  1  0
 25 24  1  0
 27 24  1  0
  7 28  1  0
  7 29  1  0
  8 30  1  0
  8 31  1  0
 16 32  1  0
 17 33  1  0
 18 34  1  0
 19 35  1  0
 21 36  1  0
 22 37  1  0
 22 38  1  0
 23 39  1  0
 23 40  1  0
 25 41  1  0
 25 42  1  0
 25 43  1  0
 26 44  1  0
 26 45  1  0
 26 46  1  0
 27 47  1  0
 27 48  1  0
 27 49  1  0
M  ISO  8  32  14  33  14  34  14  35  14  36  13  37  13  38  13  39  13
M  ISO  8  40  13  41   8  42   8  43   8  44   8  45   8  46   8  47   8
M  ISO  2  48   8  49   8
M  END
>  <minimizedAffinity>  (1) 
-6.67021227

>  <minimizedRMSD>  (1) 
0.574962676

$$$$
