
     RDKit          3D

 44 46  0  0  0  0  0  0  0  0999 V2000
   37.3240   26.6000   41.0700 C   0  0  0  0  0  0  0  0  0  0  0  0
   38.3500   26.3000   41.9920 C   0  0  0  0  0  0  0  0  0  0  0  0
   38.8160   27.3120   42.8410 C   0  0  0  0  0  0  0  0  0  0  0  0
   38.2410   28.5430   42.7210 N   0  0  0  0  0  0  0  0  0  0  0  0
   37.2590   28.8190   41.8360 C   0  0  0  0  0  0  0  0  0  0  0  0
   36.7920   27.8550   41.0050 N   0  0  0  0  0  0  0  0  0  0  0  0
   39.8230   27.0450   43.7480 N   0  0  0  0  0  0  0  0  0  0  0  0
   36.8200   25.6460   40.1960 N   0  0  0  0  0  0  0  0  0  0  0  0
   36.7720   30.1160   41.8320 O   0  0  0  0  0  0  0  0  0  0  0  0
   37.0300   31.0190   40.8310 C   0  0  0  0  0  0  0  0  0  0  0  0
   36.6270   31.3070   39.5840 N   0  0  0  0  0  0  0  0  0  0  0  0
   37.2800   32.3320   39.1370 O   0  0  0  0  0  0  0  0  0  0  0  0
   38.1200   32.7560   40.0410 C   0  0  0  0  0  0  0  0  0  0  0  0
   37.9840   31.9450   41.1240 N   0  0  0  0  0  0  0  0  0  0  0  0
   39.0510   33.8970   39.9340 C   0  0  0  0  0  0  0  0  0  0  0  0
   38.7280   35.1850   40.2970 C   0  0  0  0  0  0  0  0  0  0  0  0
   39.6720   36.1920   40.1590 C   0  0  0  0  0  0  0  0  0  0  0  0
   40.9340   35.9310   39.6660 C   0  0  0  0  0  0  0  0  0  0  0  0
   41.2510   34.6540   39.3080 C   0  0  0  0  0  0  0  0  0  0  0  0
   40.3270   33.6340   39.4360 C   0  0  0  0  0  0  0  0  0  0  0  0
   40.6950   32.3140   39.0510 N   0  0  0  0  0  0  0  0  0  0  0  0
   38.8250   24.9170   41.9570 C   0  0  0  0  0  0  0  0  0  0  0  0
   37.6900   23.9190   41.7240 C   0  0  0  0  0  0  0  0  0  0  0  0
   39.5870   24.4590   43.1520 C   0  0  0  0  0  0  0  0  0  0  0  0
   39.7730   24.8100   40.7710 C   0  0  0  0  0  0  0  0  0  0  0  0
   40.1650   27.7898   44.3719 H   0  0  0  0  0  0  0  0  0  0  0  0
   40.2319   26.1011   43.8005 H   0  0  0  0  0  0  0  0  0  0  0  0
   36.0709   25.8975   39.5353 H   0  0  0  0  0  0  0  0  0  0  0  0
   37.1952   24.6868   40.2084 H   0  0  0  0  0  0  0  0  0  0  0  0
   37.7280   35.4141   40.6938 H   0  0  0  0  0  0  0  0  0  0  0  0
   39.4090   37.2201   40.4486 H   0  0  0  0  0  0  0  0  0  0  0  0
   41.6724   36.7399   39.5634 H   0  0  0  0  0  0  0  0  0  0  0  0
   42.2535   34.4331   38.9128 H   0  0  0  0  0  0  0  0  0  0  0  0
   40.0173   31.5436   39.1406 H   0  0  0  0  0  0  0  0  0  0  0  0
   41.6390   32.1292   38.6828 H   0  0  0  0  0  0  0  0  0  0  0  0
   37.2992   23.5754   42.6931 H   0  0  0  0  0  0  0  0  0  0  0  0
   36.8841   24.4064   41.1556 H   0  0  0  0  0  0  0  0  0  0  0  0
   38.0703   23.0574   41.1556 H   0  0  0  0  0  0  0  0  0  0  0  0
   39.0614   24.7749   44.0652 H   0  0  0  0  0  0  0  0  0  0  0  0
   39.6685   23.3621   43.1367 H   0  0  0  0  0  0  0  0  0  0  0  0
   40.5939   24.9017   43.1367 H   0  0  0  0  0  0  0  0  0  0  0  0
   40.8044   24.6936   41.1353 H   0  0  0  0  0  0  0  0  0  0  0  0
   39.4991   23.9371   40.1603 H   0  0  0  0  0  0  0  0  0  0  0  0
   39.7006   25.7220   40.1603 H   0  0  0  0  0  0  0  0  0  0  0  0
  1  2  2  0
  2  3  1  0
  3  7  1  0
  4  3  2  0
  5  4  1  0
  6  1  1  0
  6  5  2  0
  8  1  1  0
  9  5  1  0
 10 14  1  0
 10  9  1  0
 11 10  2  0
 12 11  1  0
 12 13  1  0
 13 14  2  0
 15 13  1  0
 15 16  2  0
 17 16  1  0
 18 17  2  0
 19 20  2  0
 19 18  1  0
 20 15  1  0
 21 20  1  0
 22  2  1  0
 22 24  1  0
 23 22  1  0
 25 22  1  0
  7 26  1  0
  7 27  1  0
  8 28  1  0
  8 29  1  0
 16 30  1  0
 17 31  1  0
 18 32  1  0
 19 33  1  0
 21 34  1  0
 21 35  1  0
 23 36  1  0
 23 37  1  0
 23 38  1  0
 24 39  1  0
 24 40  1  0
 24 41  1  0
 25 42  1  0
 25 43  1  0
 25 44  1  0
M  ISO  8  30  14  31  14  32  14  33  14  36   8  37   8  38   8  39   8
M  ISO  5  40   8  41   8  42   8  43   8  44   8
M  END
>  <minimizedAffinity>  (1) 
-6.61670065

>  <minimizedRMSD>  (1) 
0.0295086876

$$$$
