
     RDKit          3D

 48 50  0  0  0  0  0  0  0  0999 V2000
   37.3190   26.6070   41.0860 C   0  0  0  0  0  0  0  0  0  0  0  0
   38.3520   26.3200   41.9790 C   0  0  0  0  0  0  0  0  0  0  0  0
   38.8320   27.3380   42.8040 C   0  0  0  0  0  0  0  0  0  0  0  0
   38.2650   28.5680   42.6930 N   0  0  0  0  0  0  0  0  0  0  0  0
   37.2640   28.8400   41.8270 C   0  0  0  0  0  0  0  0  0  0  0  0
   36.7850   27.8640   41.0190 N   0  0  0  0  0  0  0  0  0  0  0  0
   39.8680   27.0890   43.7080 N   0  0  0  0  0  0  0  0  0  0  0  0
   36.7930   25.6430   40.2310 N   0  0  0  0  0  0  0  0  0  0  0  0
   36.7760   30.1320   41.8140 O   0  0  0  0  0  0  0  0  0  0  0  0
   37.0400   31.0360   40.8140 C   0  0  0  0  0  0  0  0  0  0  0  0
   36.6440   31.3250   39.5710 N   0  0  0  0  0  0  0  0  0  0  0  0
   37.3000   32.3490   39.1250 O   0  0  0  0  0  0  0  0  0  0  0  0
   38.1370   32.7680   40.0350 C   0  0  0  0  0  0  0  0  0  0  0  0
   37.9910   31.9580   41.1060 N   0  0  0  0  0  0  0  0  0  0  0  0
   39.0700   33.9080   39.9290 C   0  0  0  0  0  0  0  0  0  0  0  0
   38.7680   35.1820   40.3450 C   0  0  0  0  0  0  0  0  0  0  0  0
   39.7160   36.1940   40.2030 C   0  0  0  0  0  0  0  0  0  0  0  0
   40.9530   35.9540   39.6550 C   0  0  0  0  0  0  0  0  0  0  0  0
   41.2430   34.6820   39.2450 C   0  0  0  0  0  0  0  0  0  0  0  0
   40.3120   33.6660   39.3800 C   0  0  0  0  0  0  0  0  0  0  0  0
   40.6970   32.2930   38.9070 C   0  0  0  0  0  0  0  0  0  0  0  0
   40.7910   32.2170   37.3980 C   0  0  0  0  0  0  0  0  0  0  0  0
   38.8400   24.9410   41.9570 C   0  0  0  0  0  0  0  0  0  0  0  0
   37.6960   23.9380   41.7250 C   0  0  0  0  0  0  0  0  0  0  0  0
   39.6050   24.4680   43.1400 C   0  0  0  0  0  0  0  0  0  0  0  0
   39.7810   24.8250   40.7640 C   0  0  0  0  0  0  0  0  0  0  0  0
   40.2164   27.8461   44.3133 H   0  0  0  0  0  0  0  0  0  0  0  0
   40.2833   26.1484   43.7691 H   0  0  0  0  0  0  0  0  0  0  0  0
   36.0303   25.8894   39.5841 H   0  0  0  0  0  0  0  0  0  0  0  0
   37.1664   24.6832   40.2451 H   0  0  0  0  0  0  0  0  0  0  0  0
   37.7850   35.4019   40.7870 H   0  0  0  0  0  0  0  0  0  0  0  0
   39.4673   37.2116   40.5385 H   0  0  0  0  0  0  0  0  0  0  0  0
   41.6903   36.7634   39.5489 H   0  0  0  0  0  0  0  0  0  0  0  0
   42.2264   34.4636   38.8032 H   0  0  0  0  0  0  0  0  0  0  0  0
   41.6749   32.0308   39.3371 H   0  0  0  0  0  0  0  0  0  0  0  0
   39.9163   31.5904   39.2339 H   0  0  0  0  0  0  0  0  0  0  0  0
   41.6177   31.5486   37.1153 H   0  0  0  0  0  0  0  0  0  0  0  0
   39.8471   31.8251   36.9911 H   0  0  0  0  0  0  0  0  0  0  0  0
   40.9765   33.2220   36.9911 H   0  0  0  0  0  0  0  0  0  0  0  0
   37.3059   23.5960   42.6950 H   0  0  0  0  0  0  0  0  0  0  0  0
   36.8901   24.4259   41.1571 H   0  0  0  0  0  0  0  0  0  0  0  0
   38.0743   23.0752   41.1571 H   0  0  0  0  0  0  0  0  0  0  0  0
   39.0916   24.7855   44.0596 H   0  0  0  0  0  0  0  0  0  0  0  0
   39.6725   23.3703   43.1180 H   0  0  0  0  0  0  0  0  0  0  0  0
   40.6172   24.8981   43.1180 H   0  0  0  0  0  0  0  0  0  0  0  0
   40.8132   24.6978   41.1222 H   0  0  0  0  0  0  0  0  0  0  0  0
   39.4946   23.9554   40.1543 H   0  0  0  0  0  0  0  0  0  0  0  0
   39.7144   25.7382   40.1543 H   0  0  0  0  0  0  0  0  0  0  0  0
  1  2  2  0
  2  3  1  0
  3  7  1  0
  4  3  2  0
  5  4  1  0
  6  1  1  0
  6  5  2  0
  8  1  1  0
  9  5  1  0
 10 14  1  0
 10  9  1  0
 11 10  2  0
 12 11  1  0
 12 13  1  0
 13 14  2  0
 15 13  1  0
 15 16  2  0
 17 16  1  0
 18 17  2  0
 19 20  2  0
 19 18  1  0
 20 15  1  0
 21 20  1  0
 22 21  1  0
 23  2  1  0
 23 25  1  0
 24 23  1  0
 26 23  1  0
  7 27  1  0
  7 28  1  0
  8 29  1  0
  8 30  1  0
 16 31  1  0
 17 32  1  0
 18 33  1  0
 19 34  1  0
 21 35  1  0
 21 36  1  0
 22 37  1  0
 22 38  1  0
 22 39  1  0
 24 40  1  0
 24 41  1  0
 24 42  1  0
 25 43  1  0
 25 44  1  0
 25 45  1  0
 26 46  1  0
 26 47  1  0
 26 48  1  0
M  ISO  8  31  14  32  14  33  14  34  14  35   8  36   8  37   8  38   8
M  ISO  8  39   8  40   8  41   8  42   8  43   8  44   8  45   8  46   8
M  ISO  2  47   8  48   8
M  END
>  <minimizedAffinity>  (1) 
-6.59642267

>  <minimizedRMSD>  (1) 
0.162455305

$$$$
