
     RDKit          3D

 26 28  0  0  0  0  0  0  0  0999 V2000
   37.4240   28.6210   41.1770 C   0  0  0  0  0  0  0  0  0  0  0  0
   37.5440   29.2310   42.4350 C   0  0  0  0  0  0  0  0  0  0  0  0
   37.4410   28.5790   43.6420 C   0  0  0  0  0  0  0  0  0  0  0  0
   37.2020   27.2250   43.6390 C   0  0  0  0  0  0  0  0  0  0  0  0
   37.0740   26.5530   42.4450 C   0  0  0  0  0  0  0  0  0  0  0  0
   36.8710   25.1940   42.4390 C   0  0  0  0  0  0  0  0  0  0  0  0
   36.7750   24.4610   41.2610 C   0  0  0  0  0  0  0  0  0  0  0  0
   36.9000   25.2090   40.0930 C   0  0  0  0  0  0  0  0  0  0  0  0
   37.1000   26.5540   40.1330 C   0  0  0  0  0  0  0  0  0  0  0  0
   37.1920   27.2790   41.2910 C   0  0  0  0  0  0  0  0  0  0  0  0
   37.5740   29.4590   40.0210 C   0  0  0  0  0  0  0  0  0  0  0  0
   36.6110   30.1360   39.2800 C   0  0  0  0  0  0  0  0  0  0  0  0
   36.9060   30.9750   38.2200 C   0  0  0  0  0  0  0  0  0  0  0  0
   38.2250   31.1020   37.9430 N   0  0  0  0  0  0  0  0  0  0  0  0
   39.1840   30.4710   38.6310 C   0  0  0  0  0  0  0  0  0  0  0  0
   38.8330   29.6750   39.6390 N   0  0  0  0  0  0  0  0  0  0  0  0
   37.7352   30.3140   42.4578 H   0  0  0  0  0  0  0  0  0  0  0  0
   37.5475   29.1289   44.5887 H   0  0  0  0  0  0  0  0  0  0  0  0
   37.1132   26.6795   44.5901 H   0  0  0  0  0  0  0  0  0  0  0  0
   36.7812   24.6670   43.4003 H   0  0  0  0  0  0  0  0  0  0  0  0
   36.6127   23.3731   41.2525 H   0  0  0  0  0  0  0  0  0  0  0  0
   36.8357   24.7022   39.1188 H   0  0  0  0  0  0  0  0  0  0  0  0
   37.1934   27.0914   39.1778 H   0  0  0  0  0  0  0  0  0  0  0  0
   35.5544   29.9964   39.5523 H   0  0  0  0  0  0  0  0  0  0  0  0
   36.1277   31.4991   37.6459 H   0  0  0  0  0  0  0  0  0  0  0  0
   40.2434   30.6076   38.3684 H   0  0  0  0  0  0  0  0  0  0  0  0
  1 10  1  0
  1  2  2  0
  2  3  1  0
  4  3  2  0
  5  4  1  0
  6  5  2  0
  7  6  1  0
  8  9  1  0
  8  7  2  0
  9 10  2  0
 10  5  1  0
 11  1  1  0
 12 11  2  0
 13 12  1  0
 14 13  2  0
 14 15  1  0
 15 16  2  0
 16 11  1  0
  2 17  1  0
  3 18  1  0
  4 19  1  0
  6 20  1  0
  7 21  1  0
  8 22  1  0
  9 23  1  0
 12 24  1  0
 13 25  1  0
 15 26  1  0
M  ISO  8  17  14  18  14  19  14  20  14  21  14  22  14  23  14  24  14
M  ISO  2  25  14  26  14
M  END
>  <minimizedAffinity>  (1) 
-5.05154133

>  <minimizedRMSD>  (1) 
5.46599817

$$$$
