
     RDKit          3D

 39 43  0  0  0  0  0  0  0  0999 V2000
   37.3490   29.4110   39.8100 C   0  0  0  0  0  0  0  0  0  0  0  0
   36.3630   29.4890   38.8300 C   0  0  0  0  0  0  0  0  0  0  0  0
   36.4240   30.3040   37.7200 C   0  0  0  0  0  0  0  0  0  0  0  0
   37.5540   31.0610   37.6350 N   0  0  0  0  0  0  0  0  0  0  0  0
   38.5350   31.0250   38.5510 C   0  0  0  0  0  0  0  0  0  0  0  0
   38.4110   30.2100   39.6030 N   0  0  0  0  0  0  0  0  0  0  0  0
   39.6490   31.8800   38.3140 N   0  0  0  0  0  0  0  0  0  0  0  0
   40.6010   31.5020   37.4100 C   0  0  0  0  0  0  0  0  0  0  0  0
   41.5780   32.4280   37.3150 N   0  0  0  0  0  0  0  0  0  0  0  0
   41.2590   33.4160   38.1620 C   0  0  0  0  0  0  0  0  0  0  0  0
   41.8020   34.6320   38.5530 C   0  0  0  0  0  0  0  0  0  0  0  0
   41.1990   35.4210   39.4730 N   0  0  0  0  0  0  0  0  0  0  0  0
   40.0280   34.9980   40.0230 C   0  0  0  0  0  0  0  0  0  0  0  0
   39.4430   33.8150   39.6830 N   0  0  0  0  0  0  0  0  0  0  0  0
   40.0700   33.0550   38.7640 C   0  0  0  0  0  0  0  0  0  0  0  0
   37.4100   28.6540   41.0140 C   0  0  0  0  0  0  0  0  0  0  0  0
   37.7020   29.3780   42.1890 C   0  0  0  0  0  0  0  0  0  0  0  0
   37.8090   28.8350   43.4420 C   0  0  0  0  0  0  0  0  0  0  0  0
   37.6200   27.4730   43.5890 C   0  0  0  0  0  0  0  0  0  0  0  0
   37.3310   26.6970   42.4820 C   0  0  0  0  0  0  0  0  0  0  0  0
   37.1510   25.3430   42.6200 C   0  0  0  0  0  0  0  0  0  0  0  0
   36.8690   24.5220   41.5350 C   0  0  0  0  0  0  0  0  0  0  0  0
   36.7850   25.1740   40.3080 C   0  0  0  0  0  0  0  0  0  0  0  0
   36.9690   26.5240   40.2110 C   0  0  0  0  0  0  0  0  0  0  0  0
   37.2450   27.3280   41.2720 C   0  0  0  0  0  0  0  0  0  0  0  0
   43.0390   34.9540   37.8930 N   0  0  0  0  0  0  0  0  0  0  0  0
   35.4720   28.8552   38.9501 H   0  0  0  0  0  0  0  0  0  0  0  0
   35.6255   30.3404   36.9643 H   0  0  0  0  0  0  0  0  0  0  0  0
   40.5746   30.5649   36.8345 H   0  0  0  0  0  0  0  0  0  0  0  0
   39.5346   35.6359   40.7711 H   0  0  0  0  0  0  0  0  0  0  0  0
   37.8557   30.4628   42.0914 H   0  0  0  0  0  0  0  0  0  0  0  0
   38.0400   29.4679   44.3115 H   0  0  0  0  0  0  0  0  0  0  0  0
   37.6993   27.0088   44.5831 H   0  0  0  0  0  0  0  0  0  0  0  0
   37.2326   24.8940   43.6209 H   0  0  0  0  0  0  0  0  0  0  0  0
   36.7229   23.4366   41.6381 H   0  0  0  0  0  0  0  0  0  0  0  0
   36.5666   24.5918   39.4006 H   0  0  0  0  0  0  0  0  0  0  0  0
   36.8892   26.9876   39.2167 H   0  0  0  0  0  0  0  0  0  0  0  0
   43.5252   35.8353   38.1117 H   0  0  0  0  0  0  0  0  0  0  0  0
   43.4385   34.3032   37.2018 H   0  0  0  0  0  0  0  0  0  0  0  0
  1 16  1  0
  2  1  2  0
  3  2  1  0
  4  3  2  0
  4  5  1  0
  5  6  2  0
  6  1  1  0
  7  5  1  0
  7 15  1  0
  8  7  1  0
  9  8  2  0
  9 10  1  0
 10 11  2  0
 10 15  1  0
 11 12  1  0
 12 13  2  0
 14 13  1  0
 15 14  2  0
 16 25  1  0
 16 17  2  0
 17 18  1  0
 18 19  2  0
 20 21  2  0
 20 19  1  0
 22 21  1  0
 23 22  2  0
 24 23  1  0
 24 25  2  0
 25 20  1  0
 26 11  1  0
  2 27  1  0
  3 28  1  0
  8 29  1  0
 13 30  1  0
 17 31  1  0
 18 32  1  0
 19 33  1  0
 21 34  1  0
 22 35  1  0
 23 36  1  0
 24 37  1  0
 26 38  1  0
 26 39  1  0
M  ISO  8  27  14  28  14  29  14  30  14  31  14  32  14  33  14  34  14
M  ISO  3  35  14  36  14  37  14
M  END
>  <minimizedAffinity>  (1) 
-7.97527218

>  <minimizedRMSD>  (1) 
1.75029194

$$$$
