
     RDKit          3D

 37 40  0  0  0  0  0  0  0  0999 V2000
   37.1850   29.4860   40.0430 C   0  0  0  0  0  0  0  0  0  0  0  0
   36.4440   29.4270   38.8560 C   0  0  0  0  0  0  0  0  0  0  0  0
   36.5330   30.3990   37.8610 C   0  0  0  0  0  0  0  0  0  0  0  0
   37.3900   31.4200   38.1140 N   0  0  0  0  0  0  0  0  0  0  0  0
   38.1060   31.5020   39.2290 C   0  0  0  0  0  0  0  0  0  0  0  0
   37.9940   30.5520   40.1580 N   0  0  0  0  0  0  0  0  0  0  0  0
   38.9670   32.6260   39.3630 N   0  0  0  0  0  0  0  0  0  0  0  0
   38.8290   33.7230   40.0960 C   0  0  0  0  0  0  0  0  0  0  0  0
   39.8240   34.6840   40.0510 C   0  0  0  0  0  0  0  0  0  0  0  0
   40.9390   34.5070   39.2600 C   0  0  0  0  0  0  0  0  0  0  0  0
   41.9540   35.5050   39.2250 N   0  0  0  0  0  0  0  0  0  0  0  0
   41.0660   33.3760   38.5140 N   0  0  0  0  0  0  0  0  0  0  0  0
   40.0730   32.4590   38.5830 C   0  0  0  0  0  0  0  0  0  0  0  0
   40.3350   31.4610   37.8320 O   0  0  0  0  0  0  0  0  0  0  0  0
   37.1910   28.6140   41.1690 C   0  0  0  0  0  0  0  0  0  0  0  0
   37.3640   29.2300   42.4270 C   0  0  0  0  0  0  0  0  0  0  0  0
   37.3980   28.5580   43.6330 C   0  0  0  0  0  0  0  0  0  0  0  0
   37.2560   27.1910   43.6230 C   0  0  0  0  0  0  0  0  0  0  0  0
   37.0840   26.5200   42.4290 C   0  0  0  0  0  0  0  0  0  0  0  0
   36.9480   25.1570   42.4110 C   0  0  0  0  0  0  0  0  0  0  0  0
   36.7790   24.4360   41.2350 C   0  0  0  0  0  0  0  0  0  0  0  0
   36.7590   25.2060   40.0760 C   0  0  0  0  0  0  0  0  0  0  0  0
   36.8970   26.5650   40.1250 C   0  0  0  0  0  0  0  0  0  0  0  0
   37.0620   27.2670   41.2780 C   0  0  0  0  0  0  0  0  0  0  0  0
   35.7626   28.5772   38.7024 H   0  0  0  0  0  0  0  0  0  0  0  0
   35.9470   30.3421   36.9318 H   0  0  0  0  0  0  0  0  0  0  0  0
   37.9401   33.8662   40.7280 H   0  0  0  0  0  0  0  0  0  0  0  0
   39.7240   35.5991   40.6531 H   0  0  0  0  0  0  0  0  0  0  0  0
   42.7868   35.3720   38.6337 H   0  0  0  0  0  0  0  0  0  0  0  0
   41.8554   36.3599   39.7910 H   0  0  0  0  0  0  0  0  0  0  0  0
   37.4801   30.3237   42.4484 H   0  0  0  0  0  0  0  0  0  0  0  0
   37.5354   29.1034   44.5783 H   0  0  0  0  0  0  0  0  0  0  0  0
   37.2795   26.6301   44.5690 H   0  0  0  0  0  0  0  0  0  0  0  0
   36.9736   24.6113   43.3657 H   0  0  0  0  0  0  0  0  0  0  0  0
   36.6695   23.3415   41.2214 H   0  0  0  0  0  0  0  0  0  0  0  0
   36.6297   24.7116   39.1019 H   0  0  0  0  0  0  0  0  0  0  0  0
   36.8732   27.1229   39.1773 H   0  0  0  0  0  0  0  0  0  0  0  0
  1  6  1  0
  1 15  1  0
  2  1  2  0
  3  4  2  0
  3  2  1  0
  4  5  1  0
  5  7  1  0
  5  6  2  0
  7  8  1  0
  9  8  2  0
 10  9  1  0
 11 10  1  0
 12 13  1  0
 12 10  2  0
 13  7  1  0
 14 13  2  0
 15 24  1  0
 15 16  2  0
 16 17  1  0
 18 17  2  0
 19 18  1  0
 20 19  2  0
 21 20  1  0
 22 23  1  0
 22 21  2  0
 23 24  2  0
 24 19  1  0
  2 25  1  0
  3 26  1  0
  8 27  1  0
  9 28  1  0
 11 29  1  0
 11 30  1  0
 16 31  1  0
 17 32  1  0
 18 33  1  0
 20 34  1  0
 21 35  1  0
 22 36  1  0
 23 37  1  0
M  ISO  8  25  14  26  14  27  14  28  14  31  14  32  14  33  14  34  14
M  ISO  3  35  14  36  14  37  14
M  END
>  <minimizedAffinity>  (1) 
-7.49160862

>  <minimizedRMSD>  (1) 
2.4162159

$$$$
