
     RDKit          3D

 39 42  0  0  0  0  0  0  0  0999 V2000
   37.3680   29.0450   41.4240 C   0  0  0  0  0  0  0  0  0  0  0  0
   37.4820   29.3010   42.8090 C   0  0  0  0  0  0  0  0  0  0  0  0
   37.4300   28.3280   43.7950 C   0  0  0  0  0  0  0  0  0  0  0  0
   37.2530   27.0100   43.4070 C   0  0  0  0  0  0  0  0  0  0  0  0
   37.1370   26.6960   42.0680 C   0  0  0  0  0  0  0  0  0  0  0  0
   36.9710   25.3930   41.6790 C   0  0  0  0  0  0  0  0  0  0  0  0
   36.8570   25.0200   40.3540 C   0  0  0  0  0  0  0  0  0  0  0  0
   36.9220   26.0700   39.4380 C   0  0  0  0  0  0  0  0  0  0  0  0
   37.0880   27.3570   39.8590 C   0  0  0  0  0  0  0  0  0  0  0  0
   37.2000   27.7220   41.1630 C   0  0  0  0  0  0  0  0  0  0  0  0
   37.4470   30.1830   40.5750 C   0  0  0  0  0  0  0  0  0  0  0  0
   36.8660   30.4230   39.3200 C   0  0  0  0  0  0  0  0  0  0  0  0
   37.0110   31.6220   38.6320 C   0  0  0  0  0  0  0  0  0  0  0  0
   37.7610   32.5640   39.2530 N   0  0  0  0  0  0  0  0  0  0  0  0
   38.3260   32.3720   40.4390 C   0  0  0  0  0  0  0  0  0  0  0  0
   38.1640   31.2050   41.0720 N   0  0  0  0  0  0  0  0  0  0  0  0
   39.1150   33.5170   40.9700 C   0  0  0  0  0  0  0  0  0  0  0  0
   38.6150   34.7420   40.2190 C   0  0  0  0  0  0  0  0  0  0  0  0
   39.9250   35.4530   39.9050 C   0  0  0  0  0  0  0  0  0  0  0  0
   40.7340   34.2700   39.4020 C   0  0  0  0  0  0  0  0  0  0  0  0
   40.5470   33.3180   40.5860 C   0  0  0  0  0  0  0  0  0  0  0  0
   37.6217   30.3448   43.1268 H   0  0  0  0  0  0  0  0  0  0  0  0
   37.5267   28.5955   44.8576 H   0  0  0  0  0  0  0  0  0  0  0  0
   37.2050   26.2145   44.1652 H   0  0  0  0  0  0  0  0  0  0  0  0
   36.9267   24.6125   42.4529 H   0  0  0  0  0  0  0  0  0  0  0  0
   36.7248   23.9729   40.0442 H   0  0  0  0  0  0  0  0  0  0  0  0
   36.8383   25.8575   38.3620 H   0  0  0  0  0  0  0  0  0  0  0  0
   37.1340   28.1479   39.0958 H   0  0  0  0  0  0  0  0  0  0  0  0
   36.2672   29.6238   38.8588 H   0  0  0  0  0  0  0  0  0  0  0  0
   36.5479   31.7945   37.6493 H   0  0  0  0  0  0  0  0  0  0  0  0
   39.0178   33.6127   42.0615 H   0  0  0  0  0  0  0  0  0  0  0  0
   38.0791   34.4606   39.3005 H   0  0  0  0  0  0  0  0  0  0  0  0
   37.8939   35.3529   40.7818 H   0  0  0  0  0  0  0  0  0  0  0  0
   39.7988   36.2237   39.1303 H   0  0  0  0  0  0  0  0  0  0  0  0
   40.3726   36.0049   40.7447 H   0  0  0  0  0  0  0  0  0  0  0  0
   40.3195   33.8547   38.4715 H   0  0  0  0  0  0  0  0  0  0  0  0
   41.7787   34.4934   39.1399 H   0  0  0  0  0  0  0  0  0  0  0  0
   40.7327   32.2761   40.2861 H   0  0  0  0  0  0  0  0  0  0  0  0
   41.2445   33.5192   41.4124 H   0  0  0  0  0  0  0  0  0  0  0  0
  1  2  2  0
  2  3  1  0
  4  3  2  0
  5  4  1  0
  6  5  2  0
  7  6  1  0
  8  9  1  0
  8  7  2  0
  9 10  2  0
 10  1  1  0
 10  5  1  0
 11 16  1  0
 11  1  1  0
 12 11  2  0
 13 14  2  0
 13 12  1  0
 14 15  1  0
 15 17  1  0
 15 16  2  0
 18 17  1  0
 19 18  1  0
 20 19  1  0
 20 21  1  0
 21 17  1  0
  2 22  1  0
  3 23  1  0
  4 24  1  0
  6 25  1  0
  7 26  1  0
  8 27  1  0
  9 28  1  0
 12 29  1  0
 13 30  1  0
 17 31  1  0
 18 32  1  0
 18 33  1  0
 19 34  1  0
 19 35  1  0
 20 36  1  0
 20 37  1  0
 21 38  1  0
 21 39  1  0
M  ISO  8  22  14  23  14  24  14  25  14  26  14  27  14  28  14  29  14
M  ISO  8  30  14  31  13  32  13  33  13  34  13  35  13  36  13  37  13
M  ISO  2  38  13  39  13
M  END
>  <minimizedAffinity>  (1) 
-6.46980333

>  <minimizedRMSD>  (1) 
2.5505383

$$$$
