
     RDKit          3D

 39 42  0  0  0  0  0  0  0  0999 V2000
   37.5300   29.8900   40.3530 C   0  0  0  0  0  0  0  0  0  0  0  0
   36.6330   30.9120   40.0100 C   0  0  0  0  0  0  0  0  0  0  0  0
   36.8860   31.8430   39.0080 C   0  0  0  0  0  0  0  0  0  0  0  0
   38.0750   31.7010   38.3710 N   0  0  0  0  0  0  0  0  0  0  0  0
   38.9460   30.7440   38.6700 C   0  0  0  0  0  0  0  0  0  0  0  0
   38.6680   29.8690   39.6380 N   0  0  0  0  0  0  0  0  0  0  0  0
   37.4430   28.8940   41.3680 C   0  0  0  0  0  0  0  0  0  0  0  0
   37.6090   29.3480   42.6930 C   0  0  0  0  0  0  0  0  0  0  0  0
   37.5570   28.5360   43.8120 C   0  0  0  0  0  0  0  0  0  0  0  0
   37.3290   27.1880   43.6310 C   0  0  0  0  0  0  0  0  0  0  0  0
   37.1590   26.6810   42.3640 C   0  0  0  0  0  0  0  0  0  0  0  0
   36.9400   25.3340   42.1760 C   0  0  0  0  0  0  0  0  0  0  0  0
   36.7720   24.7770   40.9210 C   0  0  0  0  0  0  0  0  0  0  0  0
   36.8410   25.6740   39.8640 C   0  0  0  0  0  0  0  0  0  0  0  0
   37.0600   27.0040   40.0800 C   0  0  0  0  0  0  0  0  0  0  0  0
   37.2250   27.5550   41.3130 C   0  0  0  0  0  0  0  0  0  0  0  0
   42.5660   30.4200   36.5040 C   0  0  0  0  0  0  0  0  0  0  0  0
   42.0980   31.6370   36.9190 C   0  0  0  0  0  0  0  0  0  0  0  0
   40.9210   31.8100   37.6310 C   0  0  0  0  0  0  0  0  0  0  0  0
   40.2060   30.6730   37.9210 C   0  0  0  0  0  0  0  0  0  0  0  0
   40.6660   29.4290   37.5090 C   0  0  0  0  0  0  0  0  0  0  0  0
   41.8570   29.2790   36.7910 C   0  0  0  0  0  0  0  0  0  0  0  0
   44.0580   30.2310   35.6060 S   0  0  0  0  0  0  0  0  0  0  0  0
   44.9960   31.3360   36.0080 O   0  0  0  0  0  0  0  0  0  0  0  0
   44.6710   28.9130   35.9860 O   0  0  0  0  0  0  0  0  0  0  0  0
   35.6830   30.9807   40.5602 H   0  0  0  0  0  0  0  0  0  0  0  0
   36.1717   32.6388   38.7502 H   0  0  0  0  0  0  0  0  0  0  0  0
   37.7924   30.4216   42.8473 H   0  0  0  0  0  0  0  0  0  0  0  0
   37.6940   28.9548   44.8199 H   0  0  0  0  0  0  0  0  0  0  0  0
   37.2830   26.5172   44.5016 H   0  0  0  0  0  0  0  0  0  0  0  0
   36.8971   24.6767   43.0569 H   0  0  0  0  0  0  0  0  0  0  0  0
   36.5965   23.7014   40.7716 H   0  0  0  0  0  0  0  0  0  0  0  0
   36.7171   25.3068   38.8345 H   0  0  0  0  0  0  0  0  0  0  0  0
   37.1058   27.6696   39.2054 H   0  0  0  0  0  0  0  0  0  0  0  0
   42.6905   32.5306   36.6733 H   0  0  0  0  0  0  0  0  0  0  0  0
   40.5773   32.8059   37.9474 H   0  0  0  0  0  0  0  0  0  0  0  0
   40.0755   28.5341   37.7549 H   0  0  0  0  0  0  0  0  0  0  0  0
   42.2112   28.2884   36.4695 H   0  0  0  0  0  0  0  0  0  0  0  0
   43.8231   30.2763   34.2570 H   0  0  0  0  0  0  0  0  0  0  0  0
  1  7  1  0
  2  1  2  0
  3  2  1  0
  4  5  1  0
  4  3  2  0
  5  6  2  0
  6  1  1  0
  7  8  2  0
  8  9  1  0
 10  9  2  0
 11 10  1  0
 12 11  2  0
 13 12  1  0
 14 15  1  0
 14 13  2  0
 15 16  2  0
 16  7  1  0
 16 11  1  0
 17 22  2  0
 17 18  1  0
 18 19  2  0
 19 20  1  0
 20  5  1  0
 21 20  2  0
 22 21  1  0
 23 25  2  0
 23 24  2  0
 23 17  1  0
  2 26  1  0
  3 27  1  0
  8 28  1  0
  9 29  1  0
 10 30  1  0
 12 31  1  0
 13 32  1  0
 14 33  1  0
 15 34  1  0
 18 35  1  0
 19 36  1  0
 21 37  1  0
 22 38  1  0
 23 39  1  0
M  ISO  8  26  14  27  14  28  14  29  14  30  14  31  14  32  14  33  14
M  ISO  6  34  14  35  14  36  14  37  14  38  14  39  11
M  END
>  <minimizedAffinity>  (1) 
-6.37080479

>  <minimizedRMSD>  (1) 
1.01641703

$$$$
