
     RDKit          3D

 33 36  0  0  0  0  0  0  0  0999 V2000
   37.2310   28.5300   40.8730 C   0  0  0  0  0  0  0  0  0  0  0  0
   37.4180   29.3060   42.0400 C   0  0  0  0  0  0  0  0  0  0  0  0
   37.4520   28.7910   43.3190 C   0  0  0  0  0  0  0  0  0  0  0  0
   37.2910   27.4280   43.4890 C   0  0  0  0  0  0  0  0  0  0  0  0
   37.1050   26.6210   42.3900 C   0  0  0  0  0  0  0  0  0  0  0  0
   36.9540   25.2610   42.5470 C   0  0  0  0  0  0  0  0  0  0  0  0
   36.7730   24.4020   41.4770 C   0  0  0  0  0  0  0  0  0  0  0  0
   36.7550   25.0150   40.2260 C   0  0  0  0  0  0  0  0  0  0  0  0
   36.9070   26.3640   40.1030 C   0  0  0  0  0  0  0  0  0  0  0  0
   37.0840   27.2100   41.1530 C   0  0  0  0  0  0  0  0  0  0  0  0
   37.2270   29.2510   39.6400 C   0  0  0  0  0  0  0  0  0  0  0  0
   36.2100   29.3830   38.6810 C   0  0  0  0  0  0  0  0  0  0  0  0
   36.3620   30.1710   37.5420 C   0  0  0  0  0  0  0  0  0  0  0  0
   37.5580   30.8080   37.4140 N   0  0  0  0  0  0  0  0  0  0  0  0
   38.5300   30.6920   38.3110 C   0  0  0  0  0  0  0  0  0  0  0  0
   38.3530   29.9340   39.3830 N   0  0  0  0  0  0  0  0  0  0  0  0
   39.7770   31.4160   38.0780 C   0  0  0  0  0  0  0  0  0  0  0  0
   40.9230   31.3920   38.8450 C   0  0  0  0  0  0  0  0  0  0  0  0
   41.8600   32.1830   38.3160 N   0  0  0  0  0  0  0  0  0  0  0  0
   41.3460   32.7350   37.2040 C   0  0  0  0  0  0  0  0  0  0  0  0
   40.0930   32.2610   37.0790 N   0  0  0  0  0  0  0  0  0  0  0  0
   37.5447   30.3921   41.9199 H   0  0  0  0  0  0  0  0  0  0  0  0
   37.6040   29.4508   44.1860 H   0  0  0  0  0  0  0  0  0  0  0  0
   37.3115   26.9909   44.4982 H   0  0  0  0  0  0  0  0  0  0  0  0
   36.9782   24.8408   43.5633 H   0  0  0  0  0  0  0  0  0  0  0  0
   36.6523   23.3161   41.6048 H   0  0  0  0  0  0  0  0  0  0  0  0
   36.6160   24.4011   39.3239 H   0  0  0  0  0  0  0  0  0  0  0  0
   36.8851   26.7953   39.0913 H   0  0  0  0  0  0  0  0  0  0  0  0
   35.2619   28.8466   38.8339 H   0  0  0  0  0  0  0  0  0  0  0  0
   35.5639   30.2722   36.7918 H   0  0  0  0  0  0  0  0  0  0  0  0
   41.0480   30.8027   39.7654 H   0  0  0  0  0  0  0  0  0  0  0  0
   41.8520   33.4386   36.5266 H   0  0  0  0  0  0  0  0  0  0  0  0
   39.4535   32.5139   36.3122 H   0  0  0  0  0  0  0  0  0  0  0  0
  1 10  1  0
  1  2  2  0
  2  3  1  0
  3  4  2  0
  5  6  2  0
  5  4  1  0
  7  6  1  0
  8  7  2  0
  9  8  1  0
  9 10  2  0
 10  5  1  0
 11  1  1  0
 12 11  2  0
 13 12  1  0
 14 13  2  0
 14 15  1  0
 15 16  2  0
 16 11  1  0
 17 15  1  0
 17 18  2  0
 19 18  1  0
 20 19  2  0
 21 20  1  0
 21 17  1  0
  2 22  1  0
  3 23  1  0
  4 24  1  0
  6 25  1  0
  7 26  1  0
  8 27  1  0
  9 28  1  0
 12 29  1  0
 13 30  1  0
 18 31  1  0
 20 32  1  0
 21 33  1  0
M  ISO  8  22  14  23  14  24  14  25  14  26  14  27  14  28  14  29  14
M  ISO  4  30  14  31  14  32  14  33   9
M  END
>  <minimizedAffinity>  (1) 
-6.22437382

>  <minimizedRMSD>  (1) 
0.954559565

$$$$
