
     RDKit          3D

 29 31  0  0  0  0  0  0  0  0999 V2000
   37.1940   28.5270   40.8220 C   0  0  0  0  0  0  0  0  0  0  0  0
   37.4070   29.3220   41.9690 C   0  0  0  0  0  0  0  0  0  0  0  0
   37.4890   28.8390   43.2590 C   0  0  0  0  0  0  0  0  0  0  0  0
   37.3540   27.4750   43.4560 C   0  0  0  0  0  0  0  0  0  0  0  0
   37.1450   26.6440   42.3810 C   0  0  0  0  0  0  0  0  0  0  0  0
   37.0130   25.2900   42.5700 C   0  0  0  0  0  0  0  0  0  0  0  0
   36.8030   24.4050   41.5220 C   0  0  0  0  0  0  0  0  0  0  0  0
   36.7360   24.9960   40.2620 C   0  0  0  0  0  0  0  0  0  0  0  0
   36.8720   26.3470   40.1080 C   0  0  0  0  0  0  0  0  0  0  0  0
   37.0780   27.2120   41.1410 C   0  0  0  0  0  0  0  0  0  0  0  0
   37.1410   29.2240   39.5840 C   0  0  0  0  0  0  0  0  0  0  0  0
   36.1210   29.2820   38.6220 C   0  0  0  0  0  0  0  0  0  0  0  0
   36.2010   30.0480   37.4680 C   0  0  0  0  0  0  0  0  0  0  0  0
   37.3510   30.7520   37.3210 N   0  0  0  0  0  0  0  0  0  0  0  0
   38.3370   30.7220   38.2090 C   0  0  0  0  0  0  0  0  0  0  0  0
   38.2220   29.9720   39.3080 N   0  0  0  0  0  0  0  0  0  0  0  0
   39.5100   31.5350   37.9050 C   0  0  0  0  0  0  0  0  0  0  0  0
   40.4570   31.5780   38.7010 O   0  0  0  0  0  0  0  0  0  0  0  0
   39.6750   32.2950   36.7670 O   0  0  0  0  0  0  0  0  0  0  0  0
   37.5157   30.4069   41.8236 H   0  0  0  0  0  0  0  0  0  0  0  0
   37.6570   29.5187   44.1074 H   0  0  0  0  0  0  0  0  0  0  0  0
   37.4139   27.0568   44.4716 H   0  0  0  0  0  0  0  0  0  0  0  0
   37.0763   24.8911   43.5932 H   0  0  0  0  0  0  0  0  0  0  0  0
   36.6976   23.3207   41.6742 H   0  0  0  0  0  0  0  0  0  0  0  0
   36.5709   24.3646   39.3765 H   0  0  0  0  0  0  0  0  0  0  0  0
   36.8117   26.7607   39.0906 H   0  0  0  0  0  0  0  0  0  0  0  0
   35.2102   28.6890   38.7918 H   0  0  0  0  0  0  0  0  0  0  0  0
   35.3900   30.0819   36.7256 H   0  0  0  0  0  0  0  0  0  0  0  0
   40.5047   32.8194   36.6380 H   0  0  0  0  0  0  0  0  0  0  0  0
  1 10  1  0
  1  2  2  0
  2  3  1  0
  3  4  2  0
  5  6  2  0
  5  4  1  0
  7  6  1  0
  8  7  2  0
  9  8  1  0
  9 10  2  0
 10  5  1  0
 11  1  1  0
 12 11  2  0
 13 12  1  0
 14 13  2  0
 14 15  1  0
 15 16  2  0
 16 11  1  0
 17 15  1  0
 17 18  2  0
 19 17  1  0
  2 20  1  0
  3 21  1  0
  4 22  1  0
  6 23  1  0
  7 24  1  0
  8 25  1  0
  9 26  1  0
 12 27  1  0
 13 28  1  0
 19 29  1  0
M  ISO  8  20  14  21  14  22  14  23  14  24  14  25  14  26  14  27  14
M  ISO  2  28  14  29   3
M  END
>  <minimizedAffinity>  (1) 
-5.97734642

>  <minimizedRMSD>  (1) 
0.918322444

$$$$
