
     RDKit          3D

 32 34  0  0  1  0  0  0  0  0999 V2000
   37.9840   31.5930   41.0000 C   0  0  0  0  0  0  0  0  0  0  0  0
   36.7950   31.5230   40.2520 C   0  0  0  0  0  0  0  0  0  0  0  0
   36.2030   30.2720   40.1340 C   0  0  0  0  0  0  0  0  0  0  0  0
   36.8020   29.2140   40.7390 N   0  0  0  0  0  0  0  0  0  0  0  0
   37.9220   29.2960   41.4400 C   0  0  0  0  0  0  0  0  0  0  0  0
   38.5180   30.5020   41.5710 N   0  0  0  0  0  0  0  0  0  0  0  0
   38.5840   28.2140   42.0800 N   0  0  0  0  0  0  0  0  0  0  0  0
   39.4970   28.5330   42.9780 N   0  0  0  0  0  0  0  0  0  0  0  0
   40.0250   27.3630   43.4650 C   0  0  0  0  0  0  0  0  0  0  0  0
   39.3680   26.3320   42.7980 C   0  0  0  0  0  0  0  0  0  0  0  0
   38.4490   26.8930   41.9160 C   0  0  0  0  0  0  0  0  0  0  0  0
   37.5300   26.1800   41.0360 C   0  0  1  0  0  0  0  0  0  0  0  0
   38.1760   25.8720   39.6800 C   0  0  0  0  0  0  0  0  0  0  0  0
   37.2060   24.8380   39.1240 C   0  0  0  0  0  0  0  0  0  0  0  0
   36.5200   24.2190   40.3170 C   0  0  0  0  0  0  0  0  0  0  0  0
   37.2390   24.7890   41.5280 C   0  0  2  0  0  0  0  0  0  0  0  0
   36.3410   24.7370   42.6510 N   0  0  0  0  0  0  0  0  0  0  0  0
   38.4876   32.5636   41.1197 H   0  0  0  0  0  0  0  0  0  0  0  0
   36.3552   32.4156   39.7832 H   0  0  0  0  0  0  0  0  0  0  0  0
   35.2712   30.1414   39.5641 H   0  0  0  0  0  0  0  0  0  0  0  0
   40.8098   27.2605   44.2290 H   0  0  0  0  0  0  0  0  0  0  0  0
   39.5454   25.2562   42.9436 H   0  0  0  0  0  0  0  0  0  0  0  0
   36.6476   26.8351   40.9886 H   0  0  0  0  0  0  0  0  0  0  0  0
   38.2220   26.7668   39.0419 H   0  0  0  0  0  0  0  0  0  0  0  0
   39.2189   25.5279   39.7424 H   0  0  0  0  0  0  0  0  0  0  0  0
   36.4673   25.3221   38.4683 H   0  0  0  0  0  0  0  0  0  0  0  0
   37.7299   24.0788   38.5247 H   0  0  0  0  0  0  0  0  0  0  0  0
   35.4551   24.4939   40.3356 H   0  0  0  0  0  0  0  0  0  0  0  0
   36.5627   23.1201   40.2922 H   0  0  0  0  0  0  0  0  0  0  0  0
   38.1470   24.2730   41.8733 H   0  0  0  0  0  0  0  0  0  0  0  0
   36.8834   24.7684   43.5261 H   0  0  0  0  0  0  0  0  0  0  0  0
   35.6998   25.5423   42.6154 H   0  0  0  0  0  0  0  0  0  0  0  0
  1  6  2  0
  2  1  1  0
  3  2  2  0
  3  4  1  0
  4  5  2  0
  5  6  1  0
  5  7  1  0
  7  8  1  0
  8  9  2  0
 10  9  1  0
 11  7  1  0
 11 10  2  0
 12 16  1  0
 12 11  1  0
 13 12  1  0
 14 13  1  0
 14 15  1  0
 15 16  1  0
 16 17  1  0
  1 18  1  0
  2 19  1  0
  3 20  1  0
  9 21  1  0
 10 22  1  0
 12 23  1  6
 13 24  1  0
 13 25  1  0
 14 26  1  0
 14 27  1  0
 15 28  1  0
 15 29  1  0
 16 30  1  1
 17 31  1  0
 17 32  1  0
M  ISO  8  18  14  19  14  20  14  21  14  22  14  23  13  24  13  25  13
M  ISO  7  26  13  27  13  28  13  29  13  30  13  31   5  32   5
M  END
>  <minimizedAffinity>  (1) 
-4.26374769

>  <minimizedRMSD>  (1) 
0.53287065

$$$$
