
     RDKit          3D

 33 36  0  0  0  0  0  0  0  0999 V2000
   37.1130   28.3230   40.9380 C   0  0  0  0  0  0  0  0  0  0  0  0
   37.3310   29.1090   42.0880 C   0  0  0  0  0  0  0  0  0  0  0  0
   37.4360   28.6020   43.3720 C   0  0  0  0  0  0  0  0  0  0  0  0
   37.3230   27.2460   43.5550 C   0  0  0  0  0  0  0  0  0  0  0  0
   37.1090   26.4130   42.4680 C   0  0  0  0  0  0  0  0  0  0  0  0
   37.0100   25.0610   42.6410 C   0  0  0  0  0  0  0  0  0  0  0  0
   36.8120   24.1870   41.5890 C   0  0  0  0  0  0  0  0  0  0  0  0
   36.7210   24.7890   40.3370 C   0  0  0  0  0  0  0  0  0  0  0  0
   36.8230   26.1420   40.1950 C   0  0  0  0  0  0  0  0  0  0  0  0
   37.0180   26.9940   41.2390 C   0  0  0  0  0  0  0  0  0  0  0  0
   37.0320   29.0330   39.7070 C   0  0  0  0  0  0  0  0  0  0  0  0
   35.9280   29.2820   38.8790 C   0  0  0  0  0  0  0  0  0  0  0  0
   36.0130   30.0360   37.7090 C   0  0  0  0  0  0  0  0  0  0  0  0
   37.2390   30.5180   37.4160 N   0  0  0  0  0  0  0  0  0  0  0  0
   38.3080   30.2990   38.1810 C   0  0  0  0  0  0  0  0  0  0  0  0
   38.1890   29.5750   39.2910 N   0  0  0  0  0  0  0  0  0  0  0  0
   39.5670   30.8870   37.7290 C   0  0  0  0  0  0  0  0  0  0  0  0
   40.7910   30.2080   37.7280 C   0  0  0  0  0  0  0  0  0  0  0  0
   41.6740   31.1430   37.2270 C   0  0  0  0  0  0  0  0  0  0  0  0
   41.0620   32.2880   36.9440 N   0  0  0  0  0  0  0  0  0  0  0  0
   39.7810   32.1430   37.2450 N   0  0  0  0  0  0  0  0  0  0  0  0
   37.4238   30.1971   41.9563 H   0  0  0  0  0  0  0  0  0  0  0  0
   37.6064   29.2717   44.2278 H   0  0  0  0  0  0  0  0  0  0  0  0
   37.4024   26.8199   44.5660 H   0  0  0  0  0  0  0  0  0  0  0  0
   37.0912   24.6519   43.6589 H   0  0  0  0  0  0  0  0  0  0  0  0
   36.7324   23.0990   41.7301 H   0  0  0  0  0  0  0  0  0  0  0  0
   36.5641   24.1626   39.4465 H   0  0  0  0  0  0  0  0  0  0  0  0
   36.7435   26.5671   39.1836 H   0  0  0  0  0  0  0  0  0  0  0  0
   34.9516   28.8640   39.1651 H   0  0  0  0  0  0  0  0  0  0  0  0
   35.1394   30.2252   37.0679 H   0  0  0  0  0  0  0  0  0  0  0  0
   40.9992   29.1768   38.0494 H   0  0  0  0  0  0  0  0  0  0  0  0
   42.7492   30.9630   37.0804 H   0  0  0  0  0  0  0  0  0  0  0  0
   41.5043   33.1352   36.5599 H   0  0  0  0  0  0  0  0  0  0  0  0
  1 10  1  0
  1  2  2  0
  2  3  1  0
  3  4  2  0
  5  6  2  0
  5  4  1  0
  7  6  1  0
  8  7  2  0
  9  8  1  0
  9 10  2  0
 10  5  1  0
 11  1  1  0
 12 11  2  0
 13 12  1  0
 14 13  2  0
 14 15  1  0
 15 16  2  0
 16 11  1  0
 17 15  1  0
 18 17  1  0
 19 18  2  0
 20 19  1  0
 20 21  1  0
 21 17  2  0
  2 22  1  0
  3 23  1  0
  4 24  1  0
  6 25  1  0
  7 26  1  0
  8 27  1  0
  9 28  1  0
 12 29  1  0
 13 30  1  0
 18 31  1  0
 19 32  1  0
 20 33  1  0
M  ISO  8  22  14  23  14  24  14  25  14  26  14  27  14  28  14  29  14
M  ISO  4  30  14  31  14  32  14  33   9
M  END
>  <minimizedAffinity>  (1) 
-5.89645195

>  <minimizedRMSD>  (1) 
0.973429978

$$$$
