
     RDKit          3D

 29 31  0  0  0  0  0  0  0  0999 V2000
   37.2430   28.4400   40.9600 C   0  0  0  0  0  0  0  0  0  0  0  0
   37.4260   29.1660   42.1550 C   0  0  0  0  0  0  0  0  0  0  0  0
   37.4470   28.6090   43.4210 C   0  0  0  0  0  0  0  0  0  0  0  0
   37.2790   27.2430   43.5350 C   0  0  0  0  0  0  0  0  0  0  0  0
   37.0970   26.4750   42.4090 C   0  0  0  0  0  0  0  0  0  0  0  0
   36.9350   25.1170   42.5130 C   0  0  0  0  0  0  0  0  0  0  0  0
   36.7550   24.2940   41.4090 C   0  0  0  0  0  0  0  0  0  0  0  0
   36.7490   24.9560   40.1830 C   0  0  0  0  0  0  0  0  0  0  0  0
   36.9120   26.3040   40.1150 C   0  0  0  0  0  0  0  0  0  0  0  0
   37.0890   27.1100   41.1950 C   0  0  0  0  0  0  0  0  0  0  0  0
   37.2510   29.2010   39.7570 C   0  0  0  0  0  0  0  0  0  0  0  0
   36.2180   29.4510   38.8400 C   0  0  0  0  0  0  0  0  0  0  0  0
   36.3720   30.2590   37.7200 C   0  0  0  0  0  0  0  0  0  0  0  0
   37.6080   30.8030   37.5640 N   0  0  0  0  0  0  0  0  0  0  0  0
   38.6070   30.5870   38.4120 C   0  0  0  0  0  0  0  0  0  0  0  0
   38.4190   29.8050   39.4770 N   0  0  0  0  0  0  0  0  0  0  0  0
   39.9110   31.2450   38.1230 C   0  0  0  0  0  0  0  0  0  0  0  0
   40.8120   30.2740   37.6610 F   0  0  0  0  0  0  0  0  0  0  0  0
   40.4670   31.7780   39.2870 F   0  0  0  0  0  0  0  0  0  0  0  0
   39.8500   32.1910   37.1420 F   0  0  0  0  0  0  0  0  0  0  0  0
   37.5620   30.2546   42.0745 H   0  0  0  0  0  0  0  0  0  0  0  0
   37.5935   29.2368   44.3123 H   0  0  0  0  0  0  0  0  0  0  0  0
   37.2908   26.7689   44.5275 H   0  0  0  0  0  0  0  0  0  0  0  0
   36.9482   24.6603   43.5136 H   0  0  0  0  0  0  0  0  0  0  0  0
   36.6272   23.2049   41.4956 H   0  0  0  0  0  0  0  0  0  0  0  0
   36.6103   24.3795   39.2565 H   0  0  0  0  0  0  0  0  0  0  0  0
   36.8998   26.7734   39.1202 H   0  0  0  0  0  0  0  0  0  0  0  0
   35.2378   28.9841   39.0168 H   0  0  0  0  0  0  0  0  0  0  0  0
   35.5524   30.4451   37.0104 H   0  0  0  0  0  0  0  0  0  0  0  0
  1 10  1  0
  1  2  2  0
  2  3  1  0
  3  4  2  0
  5  6  2  0
  5  4  1  0
  7  6  1  0
  8  7  2  0
  9  8  1  0
  9 10  2  0
 10  5  1  0
 11  1  1  0
 12 11  2  0
 13 12  1  0
 14 13  2  0
 14 15  1  0
 15 16  2  0
 16 11  1  0
 17 15  1  0
 17 19  1  0
 18 17  1  0
 20 17  1  0
  2 21  1  0
  3 22  1  0
  4 23  1  0
  6 24  1  0
  7 25  1  0
  8 26  1  0
  9 27  1  0
 12 28  1  0
 13 29  1  0
M  ISO  8  21  14  22  14  23  14  24  14  25  14  26  14  27  14  28  14
M  ISO  1  29  14
M  END
>  <minimizedAffinity>  (1) 
-5.50993299

>  <minimizedRMSD>  (1) 
0.633969963

$$$$
