
     RDKit          3D

 33 36  0  0  0  0  0  0  0  0999 V2000
   37.3480   28.4750   41.0480 C   0  0  0  0  0  0  0  0  0  0  0  0
   37.4770   29.1580   42.2750 C   0  0  0  0  0  0  0  0  0  0  0  0
   37.4110   28.5570   43.5230 C   0  0  0  0  0  0  0  0  0  0  0  0
   37.2090   27.2030   43.5790 C   0  0  0  0  0  0  0  0  0  0  0  0
   37.0730   26.4620   42.4150 C   0  0  0  0  0  0  0  0  0  0  0  0
   36.8740   25.1120   42.4680 C   0  0  0  0  0  0  0  0  0  0  0  0
   36.7390   24.3310   41.3380 C   0  0  0  0  0  0  0  0  0  0  0  0
   36.8200   25.0290   40.1320 C   0  0  0  0  0  0  0  0  0  0  0  0
   37.0190   26.3800   40.1070 C   0  0  0  0  0  0  0  0  0  0  0  0
   37.1510   27.1390   41.2270 C   0  0  0  0  0  0  0  0  0  0  0  0
   37.4430   29.2770   39.8770 C   0  0  0  0  0  0  0  0  0  0  0  0
   36.4480   29.6690   38.9670 C   0  0  0  0  0  0  0  0  0  0  0  0
   36.7040   30.4990   37.8790 C   0  0  0  0  0  0  0  0  0  0  0  0
   37.9860   30.9090   37.7480 N   0  0  0  0  0  0  0  0  0  0  0  0
   38.9520   30.5560   38.5890 C   0  0  0  0  0  0  0  0  0  0  0  0
   38.6710   29.7580   39.6250 N   0  0  0  0  0  0  0  0  0  0  0  0
   40.3180   31.0810   38.3240 C   0  0  0  0  0  0  0  0  0  0  0  0
   40.5400   32.4950   38.8800 C   0  0  0  0  0  0  0  0  0  0  0  0
   40.5470   32.2130   37.4240 C   0  0  0  0  0  0  0  0  0  0  0  0
   37.6417   30.2450   42.2396 H   0  0  0  0  0  0  0  0  0  0  0  0
   37.5179   29.1510   44.4427 H   0  0  0  0  0  0  0  0  0  0  0  0
   37.1543   26.6996   44.5555 H   0  0  0  0  0  0  0  0  0  0  0  0
   36.8189   24.6262   43.4534 H   0  0  0  0  0  0  0  0  0  0  0  0
   36.5800   23.2435   41.3843 H   0  0  0  0  0  0  0  0  0  0  0  0
   36.7217   24.4805   39.1836 H   0  0  0  0  0  0  0  0  0  0  0  0
   37.0754   26.8803   39.1290 H   0  0  0  0  0  0  0  0  0  0  0  0
   35.4216   29.3044   39.1205 H   0  0  0  0  0  0  0  0  0  0  0  0
   35.9162   30.8011   37.1732 H   0  0  0  0  0  0  0  0  0  0  0  0
   40.7775   30.0831   38.3794 H   0  0  0  0  0  0  0  0  0  0  0  0
   39.7063   33.0505   39.3342 H   0  0  0  0  0  0  0  0  0  0  0  0
   41.2315   32.9617   39.5970 H   0  0  0  0  0  0  0  0  0  0  0  0
   41.4915   32.2777   36.8638 H   0  0  0  0  0  0  0  0  0  0  0  0
   39.9966   32.6266   36.5661 H   0  0  0  0  0  0  0  0  0  0  0  0
  1 10  1  0
  1  2  2  0
  2  3  1  0
  3  4  2  0
  5  6  2  0
  5  4  1  0
  7  6  1  0
  8  7  2  0
  9  8  1  0
  9 10  2  0
 10  5  1  0
 11  1  1  0
 12 11  2  0
 13 12  1  0
 14 13  2  0
 14 15  1  0
 15 16  2  0
 16 11  1  0
 17 15  1  0
 17 18  1  0
 19 17  1  0
 19 18  1  0
  2 20  1  0
  3 21  1  0
  4 22  1  0
  6 23  1  0
  7 24  1  0
  8 25  1  0
  9 26  1  0
 12 27  1  0
 13 28  1  0
 17 29  1  0
 18 30  1  0
 18 31  1  0
 19 32  1  0
 19 33  1  0
M  ISO  8  20  14  21  14  22  14  23  14  24  14  25  14  26  14  27  14
M  ISO  6  28  14  29  13  30  13  31  13  32  13  33  13
M  END
>  <minimizedAffinity>  (1) 
-5.44869804

>  <minimizedRMSD>  (1) 
0.692180336

$$$$
