
     RDKit          3D

 28 30  0  0  0  0  0  0  0  0999 V2000
   37.3600   28.5170   41.1060 C   0  0  0  0  0  0  0  0  0  0  0  0
   37.4960   29.1680   42.3500 C   0  0  0  0  0  0  0  0  0  0  0  0
   37.4230   28.5370   43.5760 C   0  0  0  0  0  0  0  0  0  0  0  0
   37.2030   27.1690   43.6010 C   0  0  0  0  0  0  0  0  0  0  0  0
   37.0640   26.4790   42.4250 C   0  0  0  0  0  0  0  0  0  0  0  0
   36.8580   25.1170   42.4400 C   0  0  0  0  0  0  0  0  0  0  0  0
   36.7250   24.3720   41.2790 C   0  0  0  0  0  0  0  0  0  0  0  0
   36.8120   25.0970   40.1040 C   0  0  0  0  0  0  0  0  0  0  0  0
   37.0160   26.4440   40.1150 C   0  0  0  0  0  0  0  0  0  0  0  0
   37.1480   27.1790   41.2500 C   0  0  0  0  0  0  0  0  0  0  0  0
   37.4690   29.3450   39.9530 C   0  0  0  0  0  0  0  0  0  0  0  0
   36.4840   29.9840   39.2010 C   0  0  0  0  0  0  0  0  0  0  0  0
   36.7490   30.8000   38.1140 C   0  0  0  0  0  0  0  0  0  0  0  0
   38.0700   30.9460   37.8130 N   0  0  0  0  0  0  0  0  0  0  0  0
   39.0400   30.3540   38.5040 C   0  0  0  0  0  0  0  0  0  0  0  0
   38.7280   29.5760   39.5460 N   0  0  0  0  0  0  0  0  0  0  0  0
   40.3630   30.6180   38.0490 N   0  0  0  0  0  0  0  0  0  0  0  0
   37.6725   30.2537   42.3429 H   0  0  0  0  0  0  0  0  0  0  0  0
   37.5367   29.1064   44.5103 H   0  0  0  0  0  0  0  0  0  0  0  0
   37.1401   26.6382   44.5624 H   0  0  0  0  0  0  0  0  0  0  0  0
   36.7968   24.6015   43.4098 H   0  0  0  0  0  0  0  0  0  0  0  0
   36.5622   23.2842   41.2909 H   0  0  0  0  0  0  0  0  0  0  0  0
   36.7144   24.5750   39.1407 H   0  0  0  0  0  0  0  0  0  0  0  0
   37.0774   26.9667   39.1491 H   0  0  0  0  0  0  0  0  0  0  0  0
   35.4333   29.8307   39.4884 H   0  0  0  0  0  0  0  0  0  0  0  0
   35.9530   31.2933   37.5369 H   0  0  0  0  0  0  0  0  0  0  0  0
   41.1680   30.1953   38.5330 H   0  0  0  0  0  0  0  0  0  0  0  0
   40.5151   31.2317   37.2359 H   0  0  0  0  0  0  0  0  0  0  0  0
  1 10  1  0
  1  2  2  0
  2  3  1  0
  3  4  2  0
  5  6  2  0
  5  4  1  0
  7  6  1  0
  8  9  1  0
  8  7  2  0
  9 10  2  0
 10  5  1  0
 11  1  1  0
 12 11  2  0
 13 12  1  0
 14 13  2  0
 14 15  1  0
 15 16  2  0
 16 11  1  0
 17 15  1  0
  2 18  1  0
  3 19  1  0
  4 20  1  0
  6 21  1  0
  7 22  1  0
  8 23  1  0
  9 24  1  0
 12 25  1  0
 13 26  1  0
 17 27  1  0
 17 28  1  0
M  ISO  8  18  14  19  14  20  14  21  14  22  14  23  14  24  14  25  14
M  ISO  1  26  14
M  END
>  <minimizedAffinity>  (1) 
-5.19491053

>  <minimizedRMSD>  (1) 
0.163672805

$$$$
