
     RDKit          3D

 27 29  0  0  0  0  0  0  0  0999 V2000
   37.3620   28.5180   41.0960 C   0  0  0  0  0  0  0  0  0  0  0  0
   37.4980   29.1690   42.3400 C   0  0  0  0  0  0  0  0  0  0  0  0
   37.4310   28.5440   43.5690 C   0  0  0  0  0  0  0  0  0  0  0  0
   37.2150   27.1760   43.5980 C   0  0  0  0  0  0  0  0  0  0  0  0
   37.0750   26.4850   42.4200 C   0  0  0  0  0  0  0  0  0  0  0  0
   36.8650   25.1250   42.4410 C   0  0  0  0  0  0  0  0  0  0  0  0
   36.7190   24.3720   41.2870 C   0  0  0  0  0  0  0  0  0  0  0  0
   36.8030   25.0970   40.1010 C   0  0  0  0  0  0  0  0  0  0  0  0
   37.0120   26.4460   40.1140 C   0  0  0  0  0  0  0  0  0  0  0  0
   37.1540   27.1810   41.2510 C   0  0  0  0  0  0  0  0  0  0  0  0
   37.4650   29.3440   39.9420 C   0  0  0  0  0  0  0  0  0  0  0  0
   36.4790   29.9770   39.1910 C   0  0  0  0  0  0  0  0  0  0  0  0
   36.7520   30.7900   38.0990 C   0  0  0  0  0  0  0  0  0  0  0  0
   38.0720   30.9390   37.7970 N   0  0  0  0  0  0  0  0  0  0  0  0
   39.0380   30.3490   38.4920 C   0  0  0  0  0  0  0  0  0  0  0  0
   38.7230   29.5760   39.5330 N   0  0  0  0  0  0  0  0  0  0  0  0
   40.3230   30.6000   38.0570 O   0  0  0  0  0  0  0  0  0  0  0  0
   37.6702   30.2554   42.3300 H   0  0  0  0  0  0  0  0  0  0  0  0
   37.5461   29.1172   44.5008 H   0  0  0  0  0  0  0  0  0  0  0  0
   37.1559   26.6460   44.5601 H   0  0  0  0  0  0  0  0  0  0  0  0
   36.8108   24.6147   43.4140 H   0  0  0  0  0  0  0  0  0  0  0  0
   36.5498   23.2853   41.3062 H   0  0  0  0  0  0  0  0  0  0  0  0
   36.6993   24.5745   39.1386 H   0  0  0  0  0  0  0  0  0  0  0  0
   37.0690   26.9701   39.1486 H   0  0  0  0  0  0  0  0  0  0  0  0
   35.4279   29.8252   39.4777 H   0  0  0  0  0  0  0  0  0  0  0  0
   35.9571   31.2801   37.5177 H   0  0  0  0  0  0  0  0  0  0  0  0
   41.0932   30.1933   38.5276 H   0  0  0  0  0  0  0  0  0  0  0  0
  1 10  1  0
  1  2  2  0
  2  3  1  0
  3  4  2  0
  5  6  2  0
  5  4  1  0
  7  6  1  0
  8  9  1  0
  8  7  2  0
  9 10  2  0
 10  5  1  0
 11  1  1  0
 12 11  2  0
 13 12  1  0
 14 13  2  0
 14 15  1  0
 15 16  2  0
 16 11  1  0
 17 15  1  0
  2 18  1  0
  3 19  1  0
  4 20  1  0
  6 21  1  0
  7 22  1  0
  8 23  1  0
  9 24  1  0
 12 25  1  0
 13 26  1  0
 17 27  1  0
M  ISO  8  18  14  19  14  20  14  21  14  22  14  23  14  24  14  25  14
M  ISO  2  26  14  27   3
M  END
>  <minimizedAffinity>  (1) 
-5.18935871

>  <minimizedRMSD>  (1) 
0.17021054

$$$$
