
     RDKit          3D

 42 45  0  0  0  0  0  0  0  0999 V2000
   37.1860   28.4700   40.9830 C   0  0  0  0  0  0  0  0  0  0  0  0
   37.3760   29.1940   42.1870 C   0  0  0  0  0  0  0  0  0  0  0  0
   37.4310   28.6110   43.4430 C   0  0  0  0  0  0  0  0  0  0  0  0
   37.2940   27.2420   43.5410 C   0  0  0  0  0  0  0  0  0  0  0  0
   37.1060   26.4790   42.3950 C   0  0  0  0  0  0  0  0  0  0  0  0
   36.9680   25.1120   42.4800 C   0  0  0  0  0  0  0  0  0  0  0  0
   36.7830   24.3240   41.3720 C   0  0  0  0  0  0  0  0  0  0  0  0
   36.7420   24.9980   40.1630 C   0  0  0  0  0  0  0  0  0  0  0  0
   36.8800   26.3560   40.1080 C   0  0  0  0  0  0  0  0  0  0  0  0
   37.0630   27.1380   41.1960 C   0  0  0  0  0  0  0  0  0  0  0  0
   37.1480   29.2580   39.8120 C   0  0  0  0  0  0  0  0  0  0  0  0
   36.2280   29.2370   38.7380 C   0  0  0  0  0  0  0  0  0  0  0  0
   36.3080   30.1050   37.6480 C   0  0  0  0  0  0  0  0  0  0  0  0
   37.3490   30.9830   37.6960 N   0  0  0  0  0  0  0  0  0  0  0  0
   38.2350   31.0300   38.6920 C   0  0  0  0  0  0  0  0  0  0  0  0
   38.1100   30.1820   39.7030 N   0  0  0  0  0  0  0  0  0  0  0  0
   39.3100   32.0220   38.6370 C   0  0  0  0  0  0  0  0  0  0  0  0
   40.1300   32.0090   37.6690 O   0  0  0  0  0  0  0  0  0  0  0  0
   39.4350   33.0120   39.6820 N   0  0  0  0  0  0  0  0  0  0  0  0
   38.5900   33.9200   40.4420 C   0  0  0  0  0  0  0  0  0  0  0  0
   39.0400   35.3520   40.3760 C   0  0  0  0  0  0  0  0  0  0  0  0
   40.1960   35.5400   39.5210 N   0  0  0  0  0  0  0  0  0  0  0  0
   41.2470   34.6530   39.9730 C   0  0  0  0  0  0  0  0  0  0  0  0
   40.7740   33.2580   40.2150 C   0  0  0  0  0  0  0  0  0  0  0  0
   37.4866   30.2864   42.1201 H   0  0  0  0  0  0  0  0  0  0  0  0
   37.5807   29.2266   44.3422 H   0  0  0  0  0  0  0  0  0  0  0  0
   37.3336   26.7543   44.5262 H   0  0  0  0  0  0  0  0  0  0  0  0
   37.0074   24.6349   43.4704 H   0  0  0  0  0  0  0  0  0  0  0  0
   36.6747   23.2314   41.4395 H   0  0  0  0  0  0  0  0  0  0  0  0
   36.5960   24.4308   39.2319 H   0  0  0  0  0  0  0  0  0  0  0  0
   36.8399   26.8414   39.1217 H   0  0  0  0  0  0  0  0  0  0  0  0
   35.4104   28.5015   38.7630 H   0  0  0  0  0  0  0  0  0  0  0  0
   35.5882   30.0822   36.8165 H   0  0  0  0  0  0  0  0  0  0  0  0
   37.5661   33.8579   40.0448 H   0  0  0  0  0  0  0  0  0  0  0  0
   38.6473   33.6105   41.4960 H   0  0  0  0  0  0  0  0  0  0  0  0
   38.2121   35.9628   39.9867 H   0  0  0  0  0  0  0  0  0  0  0  0
   39.3283   35.6553   41.3933 H   0  0  0  0  0  0  0  0  0  0  0  0
   40.5165   36.5172   39.5790 H   0  0  0  0  0  0  0  0  0  0  0  0
   42.0362   34.6269   39.2072 H   0  0  0  0  0  0  0  0  0  0  0  0
   41.6159   35.0447   40.9324 H   0  0  0  0  0  0  0  0  0  0  0  0
   40.7593   33.0753   41.2996 H   0  0  0  0  0  0  0  0  0  0  0  0
   41.4665   32.5793   39.6955 H   0  0  0  0  0  0  0  0  0  0  0  0
  1 10  1  0
  1  2  2  0
  2  3  1  0
  3  4  2  0
  5  6  2  0
  5  4  1  0
  7  6  1  0
  8  7  2  0
  9  8  1  0
  9 10  2  0
 10  5  1  0
 11  1  1  0
 12 11  2  0
 13 14  2  0
 13 12  1  0
 14 15  1  0
 15 16  2  0
 16 11  1  0
 17 15  1  0
 17 19  1  0
 18 17  2  0
 19 24  1  0
 19 20  1  0
 21 20  1  0
 22 23  1  0
 22 21  1  0
 23 24  1  0
  2 25  1  0
  3 26  1  0
  4 27  1  0
  6 28  1  0
  7 29  1  0
  8 30  1  0
  9 31  1  0
 12 32  1  0
 13 33  1  0
 20 34  1  0
 20 35  1  0
 21 36  1  0
 21 37  1  0
 22 38  1  0
 23 39  1  0
 23 40  1  0
 24 41  1  0
 24 42  1  0
M  ISO  8  25  14  26  14  27  14  28  14  29  14  30  14  31  14  32  14
M  ISO  8  33  14  34  13  35  13  36  13  37  13  38   5  39  13  40  13
M  ISO  2  41  13  42  13
M  END
>  <minimizedAffinity>  (1) 
-7.22005177

>  <minimizedRMSD>  (1) 
2.41251779

$$$$
