
     RDKit          3D

 43 46  0  0  0  0  0  0  0  0999 V2000
   37.2160   28.5810   40.9100 C   0  0  0  0  0  0  0  0  0  0  0  0
   37.4290   29.3640   42.0700 C   0  0  0  0  0  0  0  0  0  0  0  0
   37.5120   28.8330   43.3460 C   0  0  0  0  0  0  0  0  0  0  0  0
   37.3820   27.4710   43.5140 C   0  0  0  0  0  0  0  0  0  0  0  0
   37.1730   26.6660   42.4190 C   0  0  0  0  0  0  0  0  0  0  0  0
   37.0380   25.3000   42.5590 C   0  0  0  0  0  0  0  0  0  0  0  0
   36.8260   24.4550   41.4980 C   0  0  0  0  0  0  0  0  0  0  0  0
   36.7590   25.0730   40.2730 C   0  0  0  0  0  0  0  0  0  0  0  0
   36.8920   26.4230   40.1320 C   0  0  0  0  0  0  0  0  0  0  0  0
   37.1010   27.2530   41.1810 C   0  0  0  0  0  0  0  0  0  0  0  0
   37.1590   29.3100   39.6930 C   0  0  0  0  0  0  0  0  0  0  0  0
   36.2040   29.2770   38.6550 C   0  0  0  0  0  0  0  0  0  0  0  0
   36.2850   30.0840   37.5240 C   0  0  0  0  0  0  0  0  0  0  0  0
   37.3600   30.9200   37.4840 N   0  0  0  0  0  0  0  0  0  0  0  0
   38.2860   30.9790   38.4510 C   0  0  0  0  0  0  0  0  0  0  0  0
   38.1700   30.1870   39.5170 N   0  0  0  0  0  0  0  0  0  0  0  0
   39.3800   31.9170   38.2800 C   0  0  0  0  0  0  0  0  0  0  0  0
   39.9680   32.0540   37.1810 O   0  0  0  0  0  0  0  0  0  0  0  0
   39.8230   32.7180   39.3650 N   0  0  0  0  0  0  0  0  0  0  0  0
   41.1790   32.6650   39.8810 C   0  0  0  0  0  0  0  0  0  0  0  0
   41.4330   33.7710   40.8810 C   0  0  0  0  0  0  0  0  0  0  0  0
   41.0150   35.0670   40.1820 C   0  0  0  0  0  0  0  0  0  0  0  0
   39.5060   35.0420   40.1560 C   0  0  0  0  0  0  0  0  0  0  0  0
   38.9500   33.6550   40.0430 C   0  0  0  0  0  0  0  0  0  0  0  0
   37.5342   30.4525   41.9513 H   0  0  0  0  0  0  0  0  0  0  0  0
   37.6793   29.4886   44.2133 H   0  0  0  0  0  0  0  0  0  0  0  0
   37.4452   27.0300   44.5197 H   0  0  0  0  0  0  0  0  0  0  0  0
   37.1033   24.8677   43.5684 H   0  0  0  0  0  0  0  0  0  0  0  0
   36.7181   23.3671   41.6194 H   0  0  0  0  0  0  0  0  0  0  0  0
   36.5925   24.4586   39.3759 H   0  0  0  0  0  0  0  0  0  0  0  0
   36.8267   26.8560   39.1229 H   0  0  0  0  0  0  0  0  0  0  0  0
   35.3564   28.5815   38.7437 H   0  0  0  0  0  0  0  0  0  0  0  0
   35.5349   30.0493   36.7201 H   0  0  0  0  0  0  0  0  0  0  0  0
   41.3367   31.6941   40.3735 H   0  0  0  0  0  0  0  0  0  0  0  0
   41.8749   32.7934   39.0389 H   0  0  0  0  0  0  0  0  0  0  0  0
   40.8310   33.6133   41.7881 H   0  0  0  0  0  0  0  0  0  0  0  0
   42.4872   33.8007   41.1938 H   0  0  0  0  0  0  0  0  0  0  0  0
   41.3755   35.9408   40.7446 H   0  0  0  0  0  0  0  0  0  0  0  0
   41.4396   35.1403   39.1699 H   0  0  0  0  0  0  0  0  0  0  0  0
   39.1309   35.4964   41.0849 H   0  0  0  0  0  0  0  0  0  0  0  0
   39.1808   35.6026   39.2672 H   0  0  0  0  0  0  0  0  0  0  0  0
   38.0023   33.7076   39.4871 H   0  0  0  0  0  0  0  0  0  0  0  0
   38.8220   33.2814   41.0697 H   0  0  0  0  0  0  0  0  0  0  0  0
  1 10  1  0
  1  2  2  0
  2  3  1  0
  3  4  2  0
  5  6  2  0
  5  4  1  0
  7  6  1  0
  8  7  2  0
  9  8  1  0
  9 10  2  0
 10  5  1  0
 11  1  1  0
 12 11  2  0
 13 12  1  0
 14 13  2  0
 14 15  1  0
 15 16  2  0
 16 11  1  0
 17 15  1  0
 17 19  1  0
 18 17  2  0
 19 20  1  0
 19 24  1  0
 20 21  1  0
 22 21  1  0
 23 22  1  0
 24 23  1  0
  2 25  1  0
  3 26  1  0
  4 27  1  0
  6 28  1  0
  7 29  1  0
  8 30  1  0
  9 31  1  0
 12 32  1  0
 13 33  1  0
 20 34  1  0
 20 35  1  0
 21 36  1  0
 21 37  1  0
 22 38  1  0
 22 39  1  0
 23 40  1  0
 23 41  1  0
 24 42  1  0
 24 43  1  0
M  ISO  8  25  14  26  14  27  14  28  14  29  14  30  14  31  14  32  14
M  ISO  8  33  14  34  13  35  13  36  13  37  13  38  13  39  13  40  13
M  ISO  3  41  13  42  13  43  13
M  END
>  <minimizedAffinity>  (1) 
-6.86933565

>  <minimizedRMSD>  (1) 
2.21856475

$$$$
