
     RDKit          3D

 41 44  0  0  0  0  0  0  0  0999 V2000
   37.2040   28.6780   41.1690 C   0  0  0  0  0  0  0  0  0  0  0  0
   37.4140   29.3080   42.4160 C   0  0  0  0  0  0  0  0  0  0  0  0
   37.4900   28.6250   43.6180 C   0  0  0  0  0  0  0  0  0  0  0  0
   37.3520   27.2450   43.6070 C   0  0  0  0  0  0  0  0  0  0  0  0
   37.1440   26.5760   42.4140 C   0  0  0  0  0  0  0  0  0  0  0  0
   37.0100   25.2130   42.3870 C   0  0  0  0  0  0  0  0  0  0  0  0
   36.8040   24.5090   41.2300 C   0  0  0  0  0  0  0  0  0  0  0  0
   36.7450   25.2750   40.0920 C   0  0  0  0  0  0  0  0  0  0  0  0
   36.8800   26.6310   40.1230 C   0  0  0  0  0  0  0  0  0  0  0  0
   37.0830   27.3300   41.2730 C   0  0  0  0  0  0  0  0  0  0  0  0
   37.1540   29.5520   40.0510 C   0  0  0  0  0  0  0  0  0  0  0  0
   36.4570   29.4420   38.8440 C   0  0  0  0  0  0  0  0  0  0  0  0
   36.4900   30.3930   37.8430 C   0  0  0  0  0  0  0  0  0  0  0  0
   37.2670   31.4870   38.1020 N   0  0  0  0  0  0  0  0  0  0  0  0
   37.9530   31.6300   39.2490 C   0  0  0  0  0  0  0  0  0  0  0  0
   37.8740   30.6730   40.1690 N   0  0  0  0  0  0  0  0  0  0  0  0
   38.7670   32.8390   39.4440 C   0  0  0  0  0  0  0  0  0  0  0  0
   38.3140   33.7610   40.1980 O   0  0  0  0  0  0  0  0  0  0  0  0
   40.0350   33.0000   38.8160 N   0  0  0  0  0  0  0  0  0  0  0  0
   40.9510   34.0270   39.2660 C   0  0  0  0  0  0  0  0  0  0  0  0
   42.2990   33.9210   38.5880 C   0  0  0  0  0  0  0  0  0  0  0  0
   42.1620   33.6230   37.2150 O   0  0  0  0  0  0  0  0  0  0  0  0
   41.7550   32.2730   37.2010 C   0  0  0  0  0  0  0  0  0  0  0  0
   40.3730   32.1110   37.7210 C   0  0  0  0  0  0  0  0  0  0  0  0
   37.5232   30.4024   42.4329 H   0  0  0  0  0  0  0  0  0  0  0  0
   37.6563   29.1654   44.5616 H   0  0  0  0  0  0  0  0  0  0  0  0
   37.4081   26.6807   44.5496 H   0  0  0  0  0  0  0  0  0  0  0  0
   37.0704   24.6596   43.3357 H   0  0  0  0  0  0  0  0  0  0  0  0
   36.6943   23.4146   41.2139 H   0  0  0  0  0  0  0  0  0  0  0  0
   36.5836   24.7783   39.1239 H   0  0  0  0  0  0  0  0  0  0  0  0
   36.8222   27.1859   39.1750 H   0  0  0  0  0  0  0  0  0  0  0  0
   35.8447   28.5427   38.6816 H   0  0  0  0  0  0  0  0  0  0  0  0
   35.9301   30.2779   36.9032 H   0  0  0  0  0  0  0  0  0  0  0  0
   40.5173   35.0127   39.0418 H   0  0  0  0  0  0  0  0  0  0  0  0
   41.1035   33.8959   40.3475 H   0  0  0  0  0  0  0  0  0  0  0  0
   42.8301   34.8783   38.6954 H   0  0  0  0  0  0  0  0  0  0  0  0
   42.8637   33.1063   39.0648 H   0  0  0  0  0  0  0  0  0  0  0  0
   41.7929   31.8998   36.1669 H   0  0  0  0  0  0  0  0  0  0  0  0
   42.4352   31.7028   37.8508 H   0  0  0  0  0  0  0  0  0  0  0  0
   39.6709   32.3000   36.8956 H   0  0  0  0  0  0  0  0  0  0  0  0
   40.3054   31.0869   38.1168 H   0  0  0  0  0  0  0  0  0  0  0  0
  1 10  1  0
  1  2  2  0
  2  3  1  0
  4  3  2  0
  5  4  1  0
  6  5  2  0
  7  6  1  0
  8  9  1  0
  8  7  2  0
  9 10  2  0
 10  5  1  0
 11 16  1  0
 11  1  1  0
 12 11  2  0
 13 14  2  0
 13 12  1  0
 14 15  1  0
 15 17  1  0
 15 16  2  0
 17 18  2  0
 19 20  1  0
 19 17  1  0
 21 20  1  0
 22 21  1  0
 23 22  1  0
 23 24  1  0
 24 19  1  0
  2 25  1  0
  3 26  1  0
  4 27  1  0
  6 28  1  0
  7 29  1  0
  8 30  1  0
  9 31  1  0
 12 32  1  0
 13 33  1  0
 20 34  1  0
 20 35  1  0
 21 36  1  0
 21 37  1  0
 23 38  1  0
 23 39  1  0
 24 40  1  0
 24 41  1  0
M  ISO  8  25  14  26  14  27  14  28  14  29  14  30  14  31  14  32  14
M  ISO  8  33  14  34  13  35  13  36  13  37  13  38  13  39  13  40  13
M  ISO  1  41  13
M  END
>  <minimizedAffinity>  (1) 
-6.86049128

>  <minimizedRMSD>  (1) 
2.32428575

$$$$
