
     RDKit          3D

 35 38  0  0  0  0  0  0  0  0999 V2000
   37.1750   28.4750   41.0050 C   0  0  0  0  0  0  0  0  0  0  0  0
   37.3660   29.1930   42.2100 C   0  0  0  0  0  0  0  0  0  0  0  0
   37.4280   28.5990   43.4650 C   0  0  0  0  0  0  0  0  0  0  0  0
   37.2960   27.2170   43.5470 C   0  0  0  0  0  0  0  0  0  0  0  0
   37.1070   26.4750   42.4010 C   0  0  0  0  0  0  0  0  0  0  0  0
   36.9740   25.1080   42.4690 C   0  0  0  0  0  0  0  0  0  0  0  0
   36.7850   24.3230   41.3570 C   0  0  0  0  0  0  0  0  0  0  0  0
   36.7380   25.0080   40.1550 C   0  0  0  0  0  0  0  0  0  0  0  0
   36.8730   26.3680   40.1110 C   0  0  0  0  0  0  0  0  0  0  0  0
   37.0580   27.1390   41.2040 C   0  0  0  0  0  0  0  0  0  0  0  0
   37.1380   29.2690   39.8370 C   0  0  0  0  0  0  0  0  0  0  0  0
   36.2230   29.2740   38.7640 C   0  0  0  0  0  0  0  0  0  0  0  0
   36.3190   30.1490   37.6840 C   0  0  0  0  0  0  0  0  0  0  0  0
   37.3660   31.0140   37.7260 N   0  0  0  0  0  0  0  0  0  0  0  0
   38.2540   31.0380   38.7270 C   0  0  0  0  0  0  0  0  0  0  0  0
   38.1270   30.1850   39.7390 N   0  0  0  0  0  0  0  0  0  0  0  0
   39.3400   32.0130   38.6640 C   0  0  0  0  0  0  0  0  0  0  0  0
   40.2610   31.8960   37.8120 O   0  0  0  0  0  0  0  0  0  0  0  0
   40.3270   34.6120   40.9300 N   0  0  0  0  0  0  0  0  0  0  0  0
   40.5640   33.5310   40.1710 N   0  0  0  0  0  0  0  0  0  0  0  0
   39.4270   33.1560   39.5620 C   0  0  0  0  0  0  0  0  0  0  0  0
   38.4850   34.0670   39.9910 C   0  0  0  0  0  0  0  0  0  0  0  0
   39.0390   34.9890   40.8540 C   0  0  0  0  0  0  0  0  0  0  0  0
   37.4716   30.2862   42.1494 H   0  0  0  0  0  0  0  0  0  0  0  0
   37.5776   29.2062   44.3699 H   0  0  0  0  0  0  0  0  0  0  0  0
   37.3424   26.7166   44.5255 H   0  0  0  0  0  0  0  0  0  0  0  0
   37.0209   24.6225   43.4549 H   0  0  0  0  0  0  0  0  0  0  0  0
   36.6788   23.2298   41.4176 H   0  0  0  0  0  0  0  0  0  0  0  0
   36.5895   24.4488   39.2194 H   0  0  0  0  0  0  0  0  0  0  0  0
   36.8283   26.8621   39.1292 H   0  0  0  0  0  0  0  0  0  0  0  0
   35.3932   28.5521   38.7805 H   0  0  0  0  0  0  0  0  0  0  0  0
   35.5968   30.1401   36.8543 H   0  0  0  0  0  0  0  0  0  0  0  0
   41.0403   35.0912   41.4978 H   0  0  0  0  0  0  0  0  0  0  0  0
   37.4286   34.0593   39.6846 H   0  0  0  0  0  0  0  0  0  0  0  0
   38.5448   35.8318   41.3595 H   0  0  0  0  0  0  0  0  0  0  0  0
  1 10  1  0
  1  2  2  0
  2  3  1  0
  3  4  2  0
  5  6  2  0
  5  4  1  0
  7  6  1  0
  8  7  2  0
  9  8  1  0
  9 10  2  0
 10  5  1  0
 11  1  1  0
 12 11  2  0
 13 14  2  0
 13 12  1  0
 14 15  1  0
 15 16  2  0
 16 11  1  0
 17 15  1  0
 17 21  1  0
 18 17  2  0
 20 19  1  0
 21 22  1  0
 21 20  2  0
 22 23  2  0
 23 19  1  0
  2 24  1  0
  3 25  1  0
  4 26  1  0
  6 27  1  0
  7 28  1  0
  8 29  1  0
  9 30  1  0
 12 31  1  0
 13 32  1  0
 19 33  1  0
 22 34  1  0
 23 35  1  0
M  ISO  8  24  14  25  14  26  14  27  14  28  14  29  14  30  14  31  14
M  ISO  4  32  14  33   9  34  14  35  14
M  END
>  <minimizedAffinity>  (1) 
-6.56820631

>  <minimizedRMSD>  (1) 
2.4921658

$$$$
