
     RDKit          3D

 35 38  0  0  0  0  0  0  0  0999 V2000
   37.2600   28.4900   40.9770 C   0  0  0  0  0  0  0  0  0  0  0  0
   37.4340   29.2130   42.1810 C   0  0  0  0  0  0  0  0  0  0  0  0
   37.4490   28.6280   43.4390 C   0  0  0  0  0  0  0  0  0  0  0  0
   37.2860   27.2600   43.5350 C   0  0  0  0  0  0  0  0  0  0  0  0
   37.1130   26.5050   42.3900 C   0  0  0  0  0  0  0  0  0  0  0  0
   36.9490   25.1350   42.4750 C   0  0  0  0  0  0  0  0  0  0  0  0
   36.7740   24.3420   41.3710 C   0  0  0  0  0  0  0  0  0  0  0  0
   36.7740   25.0170   40.1760 C   0  0  0  0  0  0  0  0  0  0  0  0
   36.9370   26.3680   40.0960 C   0  0  0  0  0  0  0  0  0  0  0  0
   37.1080   27.1450   41.1860 C   0  0  0  0  0  0  0  0  0  0  0  0
   37.2750   29.2640   39.7960 C   0  0  0  0  0  0  0  0  0  0  0  0
   36.3030   29.4220   38.7970 C   0  0  0  0  0  0  0  0  0  0  0  0
   36.4730   30.2520   37.6880 C   0  0  0  0  0  0  0  0  0  0  0  0
   37.6570   30.9090   37.6310 N   0  0  0  0  0  0  0  0  0  0  0  0
   38.6000   30.7830   38.5590 C   0  0  0  0  0  0  0  0  0  0  0  0
   38.4030   29.9820   39.6060 N   0  0  0  0  0  0  0  0  0  0  0  0
   39.8480   31.5400   38.4050 C   0  0  0  0  0  0  0  0  0  0  0  0
   40.1150   32.1190   37.3200 O   0  0  0  0  0  0  0  0  0  0  0  0
   40.7830   31.6200   39.5230 C   0  0  0  0  0  0  0  0  0  0  0  0
   40.7300   32.6350   40.4810 C   0  0  0  0  0  0  0  0  0  0  0  0
   41.7930   32.3030   41.3280 C   0  0  0  0  0  0  0  0  0  0  0  0
   42.4120   31.1590   40.8700 C   0  0  0  0  0  0  0  0  0  0  0  0
   41.7600   30.8020   39.7900 O   0  0  0  0  0  0  0  0  0  0  0  0
   37.5651   30.3032   42.1156 H   0  0  0  0  0  0  0  0  0  0  0  0
   37.5879   29.2413   44.3415 H   0  0  0  0  0  0  0  0  0  0  0  0
   37.2938   26.7720   44.5208 H   0  0  0  0  0  0  0  0  0  0  0  0
   36.9594   24.6625   43.4683 H   0  0  0  0  0  0  0  0  0  0  0  0
   36.6439   23.2517   41.4374 H   0  0  0  0  0  0  0  0  0  0  0  0
   36.6371   24.4453   39.2462 H   0  0  0  0  0  0  0  0  0  0  0  0
   36.9288   26.8435   39.1041 H   0  0  0  0  0  0  0  0  0  0  0  0
   35.3599   28.8639   38.8925 H   0  0  0  0  0  0  0  0  0  0  0  0
   35.6997   30.3651   36.9139 H   0  0  0  0  0  0  0  0  0  0  0  0
   40.0302   33.4807   40.5516 H   0  0  0  0  0  0  0  0  0  0  0  0
   42.0899   32.8687   42.2234 H   0  0  0  0  0  0  0  0  0  0  0  0
   43.2771   30.6495   41.3195 H   0  0  0  0  0  0  0  0  0  0  0  0
  1 10  1  0
  1  2  2  0
  2  3  1  0
  3  4  2  0
  5  6  2  0
  5  4  1  0
  7  6  1  0
  8  7  2  0
  9  8  1  0
  9 10  2  0
 10  5  1  0
 11  1  1  0
 12 11  2  0
 13 12  1  0
 14 13  2  0
 14 15  1  0
 15 16  2  0
 16 11  1  0
 17 15  1  0
 17 19  1  0
 18 17  2  0
 19 23  1  0
 19 20  2  0
 20 21  1  0
 22 21  2  0
 23 22  1  0
  2 24  1  0
  3 25  1  0
  4 26  1  0
  6 27  1  0
  7 28  1  0
  8 29  1  0
  9 30  1  0
 12 31  1  0
 13 32  1  0
 20 33  1  0
 21 34  1  0
 22 35  1  0
M  ISO  8  24  14  25  14  26  14  27  14  28  14  29  14  30  14  31  14
M  ISO  4  32  14  33  14  34  14  35  14
M  END
>  <minimizedAffinity>  (1) 
-5.75247049

>  <minimizedRMSD>  (1) 
1.00667286

$$$$
