
     RDKit          3D

 30 32  0  0  0  0  0  0  0  0999 V2000
   37.3390   28.5250   41.0910 C   0  0  0  0  0  0  0  0  0  0  0  0
   37.4750   29.1950   42.3280 C   0  0  0  0  0  0  0  0  0  0  0  0
   37.4290   28.5640   43.5630 C   0  0  0  0  0  0  0  0  0  0  0  0
   37.2420   27.2000   43.6000 C   0  0  0  0  0  0  0  0  0  0  0  0
   37.1040   26.4860   42.4240 C   0  0  0  0  0  0  0  0  0  0  0  0
   36.9160   25.1210   42.4420 C   0  0  0  0  0  0  0  0  0  0  0  0
   36.7750   24.3760   41.3000 C   0  0  0  0  0  0  0  0  0  0  0  0
   36.8350   25.0930   40.1310 C   0  0  0  0  0  0  0  0  0  0  0  0
   37.0200   26.4460   40.1120 C   0  0  0  0  0  0  0  0  0  0  0  0
   37.1590   27.1770   41.2380 C   0  0  0  0  0  0  0  0  0  0  0  0
   37.4130   29.3460   39.9460 C   0  0  0  0  0  0  0  0  0  0  0  0
   36.4180   29.7870   39.0660 C   0  0  0  0  0  0  0  0  0  0  0  0
   36.6480   30.6110   37.9860 C   0  0  0  0  0  0  0  0  0  0  0  0
   37.9460   30.9910   37.8080 N   0  0  0  0  0  0  0  0  0  0  0  0
   38.9230   30.5970   38.6180 C   0  0  0  0  0  0  0  0  0  0  0  0
   38.6570   29.7930   39.6590 N   0  0  0  0  0  0  0  0  0  0  0  0
   40.2860   31.0590   38.3460 C   0  0  0  0  0  0  0  0  0  0  0  0
   40.5160   31.8640   37.4050 O   0  0  0  0  0  0  0  0  0  0  0  0
   41.4100   30.6370   39.1130 N   0  0  0  0  0  0  0  0  0  0  0  0
   37.6267   30.2843   42.3107 H   0  0  0  0  0  0  0  0  0  0  0  0
   37.5396   29.1411   44.4929 H   0  0  0  0  0  0  0  0  0  0  0  0
   37.2023   26.6775   44.5672 H   0  0  0  0  0  0  0  0  0  0  0  0
   36.8774   24.6074   43.4140 H   0  0  0  0  0  0  0  0  0  0  0  0
   36.6252   23.2864   41.3189 H   0  0  0  0  0  0  0  0  0  0  0  0
   36.7303   24.5586   39.1752 H   0  0  0  0  0  0  0  0  0  0  0  0
   37.0572   26.9604   39.1404 H   0  0  0  0  0  0  0  0  0  0  0  0
   35.3856   29.4542   39.2484 H   0  0  0  0  0  0  0  0  0  0  0  0
   35.8413   30.9395   37.3142 H   0  0  0  0  0  0  0  0  0  0  0  0
   42.3507   30.9888   38.8846 H   0  0  0  0  0  0  0  0  0  0  0  0
   41.2819   29.9801   39.8959 H   0  0  0  0  0  0  0  0  0  0  0  0
  1 10  1  0
  1  2  2  0
  2  3  1  0
  3  4  2  0
  5  6  2  0
  5  4  1  0
  7  6  1  0
  8  7  2  0
  9  8  1  0
  9 10  2  0
 10  5  1  0
 11  1  1  0
 12 11  2  0
 13 12  1  0
 14 13  2  0
 14 15  1  0
 15 16  2  0
 16 11  1  0
 17 15  1  0
 17 19  1  0
 18 17  2  0
  2 20  1  0
  3 21  1  0
  4 22  1  0
  6 23  1  0
  7 24  1  0
  8 25  1  0
  9 26  1  0
 12 27  1  0
 13 28  1  0
 19 29  1  0
 19 30  1  0
M  ISO  8  20  14  21  14  22  14  23  14  24  14  25  14  26  14  27  14
M  ISO  1  28  14
M  END
>  <minimizedAffinity>  (1) 
-5.287498

>  <minimizedRMSD>  (1) 
0.0248404294

$$$$
