
     RDKit          3D

 52 56  0  0  0  0  0  0  0  0999 V2000
   37.0910   29.2590   39.6480 C   0  0  0  0  0  0  0  0  0  0  0  0
   36.0900   29.2730   38.6700 C   0  0  0  0  0  0  0  0  0  0  0  0
   36.1600   30.0380   37.5070 C   0  0  0  0  0  0  0  0  0  0  0  0
   37.2880   30.7920   37.3690 N   0  0  0  0  0  0  0  0  0  0  0  0
   38.2550   30.8010   38.2760 C   0  0  0  0  0  0  0  0  0  0  0  0
   38.1500   30.0570   39.3720 N   0  0  0  0  0  0  0  0  0  0  0  0
   37.1860   28.5680   40.8750 C   0  0  0  0  0  0  0  0  0  0  0  0
   37.4200   29.3660   42.0070 C   0  0  0  0  0  0  0  0  0  0  0  0
   37.5420   28.8760   43.2950 C   0  0  0  0  0  0  0  0  0  0  0  0
   37.4270   27.5070   43.4910 C   0  0  0  0  0  0  0  0  0  0  0  0
   37.1960   26.6700   42.4200 C   0  0  0  0  0  0  0  0  0  0  0  0
   37.0790   25.3240   42.5900 C   0  0  0  0  0  0  0  0  0  0  0  0
   36.8500   24.4550   41.5690 C   0  0  0  0  0  0  0  0  0  0  0  0
   36.7440   25.0420   40.3260 C   0  0  0  0  0  0  0  0  0  0  0  0
   36.8610   26.3900   40.1450 C   0  0  0  0  0  0  0  0  0  0  0  0
   37.0890   27.2420   41.1780 C   0  0  0  0  0  0  0  0  0  0  0  0
   39.4140   31.6570   38.0120 C   0  0  0  0  0  0  0  0  0  0  0  0
   39.7230   31.9930   36.8440 O   0  0  0  0  0  0  0  0  0  0  0  0
   40.3080   32.1970   39.0350 C   0  0  0  0  0  0  0  0  0  0  0  0
   39.8910   33.3140   39.7430 C   0  0  0  0  0  0  0  0  0  0  0  0
   40.7080   33.8730   40.7370 C   0  0  0  0  0  0  0  0  0  0  0  0
   41.9440   33.3400   41.0460 C   0  0  0  0  0  0  0  0  0  0  0  0
   42.3440   32.2420   40.3450 C   0  0  0  0  0  0  0  0  0  0  0  0
   41.5380   31.7040   39.3760 C   0  0  0  0  0  0  0  0  0  0  0  0
   41.9890   30.5420   38.6510 N   0  0  0  0  0  0  0  0  0  0  0  0
   41.7340   29.1490   38.9740 C   0  0  0  0  0  0  0  0  0  0  0  0
   40.9450   28.4280   37.9060 C   0  0  0  0  0  0  0  0  0  0  0  0
   41.0380   29.0850   36.6220 N   0  0  0  0  0  0  0  0  0  0  0  0
   42.3590   29.6250   36.3870 C   0  0  0  0  0  0  0  0  0  0  0  0
   42.8040   30.5920   37.4360 C   0  0  0  0  0  0  0  0  0  0  0  0
   35.1998   28.6463   38.8277 H   0  0  0  0  0  0  0  0  0  0  0  0
   35.3600   30.0339   36.7520 H   0  0  0  0  0  0  0  0  0  0  0  0
   37.5123   30.4522   41.8597 H   0  0  0  0  0  0  0  0  0  0  0  0
   37.7254   29.5539   44.1417 H   0  0  0  0  0  0  0  0  0  0  0  0
   37.5204   27.0883   44.5039 H   0  0  0  0  0  0  0  0  0  0  0  0
   37.1748   24.9177   43.6077 H   0  0  0  0  0  0  0  0  0  0  0  0
   36.7568   23.3698   41.7228 H   0  0  0  0  0  0  0  0  0  0  0  0
   36.5589   24.4024   39.4504 H   0  0  0  0  0  0  0  0  0  0  0  0
   36.7675   26.8000   39.1285 H   0  0  0  0  0  0  0  0  0  0  0  0
   38.9121   33.7652   39.5235 H   0  0  0  0  0  0  0  0  0  0  0  0
   40.3549   34.7592   41.2847 H   0  0  0  0  0  0  0  0  0  0  0  0
   42.5798   33.7838   41.8263 H   0  0  0  0  0  0  0  0  0  0  0  0
   43.3211   31.7841   40.5585 H   0  0  0  0  0  0  0  0  0  0  0  0
   42.6991   28.6369   39.1021 H   0  0  0  0  0  0  0  0  0  0  0  0
   41.1327   29.1305   39.8949 H   0  0  0  0  0  0  0  0  0  0  0  0
   41.3340   27.4037   37.8089 H   0  0  0  0  0  0  0  0  0  0  0  0
   39.8877   28.4274   38.2095 H   0  0  0  0  0  0  0  0  0  0  0  0
   40.8209   28.4022   35.8820 H   0  0  0  0  0  0  0  0  0  0  0  0
   43.0755   28.7909   36.3562 H   0  0  0  0  0  0  0  0  0  0  0  0
   42.3183   30.1761   35.4359 H   0  0  0  0  0  0  0  0  0  0  0  0
   43.8456   30.3616   37.7043 H   0  0  0  0  0  0  0  0  0  0  0  0
   42.6991   31.6024   37.0140 H   0  0  0  0  0  0  0  0  0  0  0  0
  1  7  1  0
  2  1  2  0
  3  2  1  0
  4  3  2  0
  4  5  1  0
  5  6  2  0
  6  1  1  0
  7 16  1  0
  7  8  2  0
  8  9  1  0
  9 10  2  0
 11 12  2  0
 11 10  1  0
 13 12  1  0
 14 13  2  0
 15 14  1  0
 15 16  2  0
 16 11  1  0
 17  5  1  0
 17 19  1  0
 18 17  2  0
 19 24  1  0
 19 20  2  0
 20 21  1  0
 21 22  2  0
 23 22  1  0
 24 23  2  0
 25 26  1  0
 25 24  1  0
 27 26  1  0
 28 27  1  0
 29 28  1  0
 29 30  1  0
 30 25  1  0
  2 31  1  0
  3 32  1  0
  8 33  1  0
  9 34  1  0
 10 35  1  0
 12 36  1  0
 13 37  1  0
 14 38  1  0
 15 39  1  0
 20 40  1  0
 21 41  1  0
 22 42  1  0
 23 43  1  0
 26 44  1  0
 26 45  1  0
 27 46  1  0
 27 47  1  0
 28 48  1  0
 29 49  1  0
 29 50  1  0
 30 51  1  0
 30 52  1  0
M  ISO  8  31  14  32  14  33  14  34  14  35  14  36  14  37  14  38  14
M  ISO  8  39  14  40  14  41  14  42  14  43  14  44  13  45  13  46  13
M  ISO  6  47  13  48   5  49  13  50  13  51  13  52  13
M  END
>  <minimizedAffinity>  (1) 
-6.42074156

>  <minimizedRMSD>  (1) 
0.957114398

$$$$
