
     RDKit          3D

 45 49  0  0  0  0  0  0  0  0999 V2000
   37.2930   29.2880   39.7360 C   0  0  0  0  0  0  0  0  0  0  0  0
   36.3150   29.4170   38.7350 C   0  0  0  0  0  0  0  0  0  0  0  0
   36.4790   30.2170   37.6060 C   0  0  0  0  0  0  0  0  0  0  0  0
   37.6630   30.8810   37.5230 N   0  0  0  0  0  0  0  0  0  0  0  0
   38.6000   30.7790   38.4480 C   0  0  0  0  0  0  0  0  0  0  0  0
   38.4130   30.0070   39.5150 N   0  0  0  0  0  0  0  0  0  0  0  0
   37.2880   28.5520   40.9290 C   0  0  0  0  0  0  0  0  0  0  0  0
   37.4820   29.3100   42.1060 C   0  0  0  0  0  0  0  0  0  0  0  0
   37.5130   28.7710   43.3870 C   0  0  0  0  0  0  0  0  0  0  0  0
   37.3420   27.3920   43.5250 C   0  0  0  0  0  0  0  0  0  0  0  0
   37.1510   26.6050   42.4110 C   0  0  0  0  0  0  0  0  0  0  0  0
   36.9840   25.2520   42.5330 C   0  0  0  0  0  0  0  0  0  0  0  0
   36.7920   24.4340   41.4620 C   0  0  0  0  0  0  0  0  0  0  0  0
   36.7770   25.0600   40.2460 C   0  0  0  0  0  0  0  0  0  0  0  0
   36.9430   26.4100   40.1120 C   0  0  0  0  0  0  0  0  0  0  0  0
   37.1340   27.2160   41.1870 C   0  0  0  0  0  0  0  0  0  0  0  0
   39.8590   31.5300   38.2530 C   0  0  0  0  0  0  0  0  0  0  0  0
   40.0230   32.2300   37.2060 O   0  0  0  0  0  0  0  0  0  0  0  0
   40.9800   31.5620   39.1640 C   0  0  0  0  0  0  0  0  0  0  0  0
   40.7880   32.1940   40.4000 C   0  0  0  0  0  0  0  0  0  0  0  0
   41.8140   32.2470   41.3520 C   0  0  0  0  0  0  0  0  0  0  0  0
   43.0440   31.6790   41.1030 C   0  0  0  0  0  0  0  0  0  0  0  0
   43.2210   31.0700   39.9030 C   0  0  0  0  0  0  0  0  0  0  0  0
   42.2120   31.0130   38.9530 C   0  0  0  0  0  0  0  0  0  0  0  0
   42.5680   30.3950   37.6910 C   0  0  0  0  0  0  0  0  0  0  0  0
   42.6140   29.0240   37.4410 C   0  0  0  0  0  0  0  0  0  0  0  0
   42.9520   28.7480   36.1690 N   0  0  0  0  0  0  0  0  0  0  0  0
   43.1370   29.9410   35.5580 C   0  0  0  0  0  0  0  0  0  0  0  0
   42.9000   30.8700   36.4910 N   0  0  0  0  0  0  0  0  0  0  0  0
   35.3738   28.8590   38.8484 H   0  0  0  0  0  0  0  0  0  0  0  0
   35.7018   30.3057   36.8326 H   0  0  0  0  0  0  0  0  0  0  0  0
   37.6172   30.3967   42.0017 H   0  0  0  0  0  0  0  0  0  0  0  0
   37.6678   29.4126   44.2670 H   0  0  0  0  0  0  0  0  0  0  0  0
   37.3599   26.9337   44.5248 H   0  0  0  0  0  0  0  0  0  0  0  0
   37.0059   24.8070   43.5387 H   0  0  0  0  0  0  0  0  0  0  0  0
   36.6585   23.3472   41.5670 H   0  0  0  0  0  0  0  0  0  0  0  0
   36.6255   24.4535   39.3409 H   0  0  0  0  0  0  0  0  0  0  0  0
   36.9212   26.8550   39.1063 H   0  0  0  0  0  0  0  0  0  0  0  0
   39.8157   32.6560   40.6262 H   0  0  0  0  0  0  0  0  0  0  0  0
   41.6347   32.7501   42.3136 H   0  0  0  0  0  0  0  0  0  0  0  0
   43.8520   31.7175   41.8484 H   0  0  0  0  0  0  0  0  0  0  0  0
   44.1934   30.6080   39.6772 H   0  0  0  0  0  0  0  0  0  0  0  0
   42.3984   28.2557   38.1981 H   0  0  0  0  0  0  0  0  0  0  0  0
   43.4234   30.1119   34.5098 H   0  0  0  0  0  0  0  0  0  0  0  0
   42.9691   31.8790   36.2960 H   0  0  0  0  0  0  0  0  0  0  0  0
  1  7  1  0
  2  1  2  0
  3  2  1  0
  4  3  2  0
  4  5  1  0
  5  6  2  0
  6  1  1  0
  7 16  1  0
  7  8  2  0
  8  9  1  0
  9 10  2  0
 11 12  2  0
 11 10  1  0
 13 12  1  0
 14 13  2  0
 15 14  1  0
 15 16  2  0
 16 11  1  0
 17  5  1  0
 17 19  1  0
 18 17  2  0
 19 20  2  0
 20 21  1  0
 22 21  2  0
 23 22  1  0
 24 19  1  0
 24 23  2  0
 25 24  1  0
 26 25  2  0
 27 26  1  0
 28 27  2  0
 28 29  1  0
 29 25  1  0
  2 30  1  0
  3 31  1  0
  8 32  1  0
  9 33  1  0
 10 34  1  0
 12 35  1  0
 13 36  1  0
 14 37  1  0
 15 38  1  0
 20 39  1  0
 21 40  1  0
 22 41  1  0
 23 42  1  0
 26 43  1  0
 28 44  1  0
 29 45  1  0
M  ISO  8  30  14  31  14  32  14  33  14  34  14  35  14  36  14  37  14
M  ISO  8  38  14  39  14  40  14  41  14  42  14  43  14  44  14  45   9
M  END
>  <minimizedAffinity>  (1) 
-6.37297821

>  <minimizedRMSD>  (1) 
1.20318794

$$$$
