
     RDKit          3D

 51 55  0  0  0  0  0  0  0  0999 V2000
   37.7000   29.8910   39.7710 C   0  0  0  0  0  0  0  0  0  0  0  0
   36.6860   30.0960   38.8250 C   0  0  0  0  0  0  0  0  0  0  0  0
   36.8330   30.9410   37.7200 C   0  0  0  0  0  0  0  0  0  0  0  0
   38.0420   31.5640   37.6140 N   0  0  0  0  0  0  0  0  0  0  0  0
   39.0190   31.3910   38.4900 C   0  0  0  0  0  0  0  0  0  0  0  0
   38.8420   30.5760   39.5340 N   0  0  0  0  0  0  0  0  0  0  0  0
   37.7300   29.0980   40.9380 C   0  0  0  0  0  0  0  0  0  0  0  0
   38.0620   29.7820   42.1260 C   0  0  0  0  0  0  0  0  0  0  0  0
   38.1410   29.1800   43.3700 C   0  0  0  0  0  0  0  0  0  0  0  0
   37.8750   27.8120   43.4580 C   0  0  0  0  0  0  0  0  0  0  0  0
   37.5460   27.0970   42.3260 C   0  0  0  0  0  0  0  0  0  0  0  0
   37.2840   25.7590   42.3970 C   0  0  0  0  0  0  0  0  0  0  0  0
   36.9540   25.0020   41.3140 C   0  0  0  0  0  0  0  0  0  0  0  0
   36.9040   25.6960   40.1310 C   0  0  0  0  0  0  0  0  0  0  0  0
   37.1640   27.0340   40.0480 C   0  0  0  0  0  0  0  0  0  0  0  0
   37.4910   27.7690   41.1410 C   0  0  0  0  0  0  0  0  0  0  0  0
   40.2650   32.1180   38.2630 C   0  0  0  0  0  0  0  0  0  0  0  0
   40.8500   32.0700   37.1540 O   0  0  0  0  0  0  0  0  0  0  0  0
   40.9440   32.9450   39.2520 C   0  0  0  0  0  0  0  0  0  0  0  0
   40.4950   34.2410   39.4540 C   0  0  0  0  0  0  0  0  0  0  0  0
   41.1020   35.0830   40.3860 C   0  0  0  0  0  0  0  0  0  0  0  0
   42.1740   34.6580   41.1470 C   0  0  0  0  0  0  0  0  0  0  0  0
   42.6210   33.3770   40.9510 C   0  0  0  0  0  0  0  0  0  0  0  0
   42.0130   32.5660   40.0310 C   0  0  0  0  0  0  0  0  0  0  0  0
   42.4830   31.2220   39.8270 N   0  0  0  0  0  0  0  0  0  0  0  0
   43.4820   30.8320   38.8230 C   0  0  0  0  0  0  0  0  0  0  0  0
   44.2010   29.6320   39.4040 C   0  0  0  0  0  0  0  0  0  0  0  0
   43.3670   28.5280   39.5110 O   0  0  0  0  0  0  0  0  0  0  0  0
   42.0380   28.8820   39.7110 C   0  0  0  0  0  0  0  0  0  0  0  0
   41.9940   30.1130   40.6170 C   0  0  0  0  0  0  0  0  0  0  0  0
   35.7303   29.5678   38.9578 H   0  0  0  0  0  0  0  0  0  0  0  0
   36.0280   31.0929   36.9860 H   0  0  0  0  0  0  0  0  0  0  0  0
   38.2710   30.8599   42.0599 H   0  0  0  0  0  0  0  0  0  0  0  0
   38.4059   29.7630   44.2644 H   0  0  0  0  0  0  0  0  0  0  0  0
   37.9280   27.3039   44.4322 H   0  0  0  0  0  0  0  0  0  0  0  0
   37.3424   25.2672   43.3792 H   0  0  0  0  0  0  0  0  0  0  0  0
   36.7450   23.9242   41.3818 H   0  0  0  0  0  0  0  0  0  0  0  0
   36.6436   25.1517   39.2113 H   0  0  0  0  0  0  0  0  0  0  0  0
   37.1068   27.5299   39.0678 H   0  0  0  0  0  0  0  0  0  0  0  0
   39.6423   34.6131   38.8671 H   0  0  0  0  0  0  0  0  0  0  0  0
   40.7195   36.1059   40.5177 H   0  0  0  0  0  0  0  0  0  0  0  0
   42.6509   35.3226   41.8825 H   0  0  0  0  0  0  0  0  0  0  0  0
   43.4724   32.9989   41.5359 H   0  0  0  0  0  0  0  0  0  0  0  0
   44.1902   31.6551   38.6469 H   0  0  0  0  0  0  0  0  0  0  0  0
   43.0144   30.5957   37.8558 H   0  0  0  0  0  0  0  0  0  0  0  0
   45.0482   29.3752   38.7511 H   0  0  0  0  0  0  0  0  0  0  0  0
   44.5440   29.8980   40.4147 H   0  0  0  0  0  0  0  0  0  0  0  0
   41.5669   29.1156   38.7448 H   0  0  0  0  0  0  0  0  0  0  0  0
   41.4931   28.0495   40.1801 H   0  0  0  0  0  0  0  0  0  0  0  0
   42.6365   29.9606   41.4967 H   0  0  0  0  0  0  0  0  0  0  0  0
   40.9734   30.3031   40.9806 H   0  0  0  0  0  0  0  0  0  0  0  0
  1  7  1  0
  2  1  2  0
  3  2  1  0
  4  3  2  0
  4  5  1  0
  5  6  2  0
  6  1  1  0
  7 16  1  0
  7  8  2  0
  8  9  1  0
  9 10  2  0
 11 12  2  0
 11 10  1  0
 13 12  1  0
 14 13  2  0
 15 14  1  0
 15 16  2  0
 16 11  1  0
 17  5  1  0
 17 19  1  0
 18 17  2  0
 19 20  2  0
 19 24  1  0
 20 21  1  0
 21 22  2  0
 23 22  1  0
 24 23  2  0
 25 24  1  0
 25 30  1  0
 26 27  1  0
 26 25  1  0
 27 28  1  0
 28 29  1  0
 29 30  1  0
  2 31  1  0
  3 32  1  0
  8 33  1  0
  9 34  1  0
 10 35  1  0
 12 36  1  0
 13 37  1  0
 14 38  1  0
 15 39  1  0
 20 40  1  0
 21 41  1  0
 22 42  1  0
 23 43  1  0
 26 44  1  0
 26 45  1  0
 27 46  1  0
 27 47  1  0
 29 48  1  0
 29 49  1  0
 30 50  1  0
 30 51  1  0
M  ISO  8  31  14  32  14  33  14  34  14  35  14  36  14  37  14  38  14
M  ISO  8  39  14  40  14  41  14  42  14  43  14  44  13  45  13  46  13
M  ISO  5  47  13  48  13  49  13  50  13  51  13
M  END
>  <minimizedAffinity>  (1) 
-6.24263811

>  <minimizedRMSD>  (1) 
1.64721477

$$$$
