
     RDKit          3D

 44 48  0  0  0  0  0  0  0  0999 V2000
   37.2630   29.2790   39.7570 C   0  0  0  0  0  0  0  0  0  0  0  0
   36.2900   29.4000   38.7490 C   0  0  0  0  0  0  0  0  0  0  0  0
   36.4670   30.2140   37.6270 C   0  0  0  0  0  0  0  0  0  0  0  0
   37.6370   30.8890   37.5580 N   0  0  0  0  0  0  0  0  0  0  0  0
   38.5720   30.7970   38.4870 C   0  0  0  0  0  0  0  0  0  0  0  0
   38.3810   30.0110   39.5540 N   0  0  0  0  0  0  0  0  0  0  0  0
   37.2630   28.5310   40.9530 C   0  0  0  0  0  0  0  0  0  0  0  0
   37.4430   29.2750   42.1340 C   0  0  0  0  0  0  0  0  0  0  0  0
   37.4730   28.7240   43.4040 C   0  0  0  0  0  0  0  0  0  0  0  0
   37.3140   27.3440   43.5260 C   0  0  0  0  0  0  0  0  0  0  0  0
   37.1350   26.5660   42.4080 C   0  0  0  0  0  0  0  0  0  0  0  0
   36.9780   25.2170   42.5080 C   0  0  0  0  0  0  0  0  0  0  0  0
   36.7960   24.4000   41.4310 C   0  0  0  0  0  0  0  0  0  0  0  0
   36.7830   25.0450   40.2190 C   0  0  0  0  0  0  0  0  0  0  0  0
   36.9390   26.3970   40.1040 C   0  0  0  0  0  0  0  0  0  0  0  0
   37.1190   27.1950   41.1870 C   0  0  0  0  0  0  0  0  0  0  0  0
   39.8000   31.5760   38.3090 C   0  0  0  0  0  0  0  0  0  0  0  0
   39.9660   32.2870   37.2830 O   0  0  0  0  0  0  0  0  0  0  0  0
   40.9180   31.6170   39.2510 C   0  0  0  0  0  0  0  0  0  0  0  0
   40.8110   32.4780   40.3490 C   0  0  0  0  0  0  0  0  0  0  0  0
   41.8560   32.5540   41.2810 C   0  0  0  0  0  0  0  0  0  0  0  0
   43.0110   31.7910   41.1510 C   0  0  0  0  0  0  0  0  0  0  0  0
   43.0960   30.9530   40.0680 C   0  0  0  0  0  0  0  0  0  0  0  0
   42.0730   30.8860   39.1630 C   0  0  0  0  0  0  0  0  0  0  0  0
   42.1380   30.0210   38.0290 N   0  0  0  0  0  0  0  0  0  0  0  0
   41.6730   28.7840   37.7770 C   0  0  0  0  0  0  0  0  0  0  0  0
   42.0080   28.4080   36.5290 N   0  0  0  0  0  0  0  0  0  0  0  0
   42.6950   29.4330   35.9950 C   0  0  0  0  0  0  0  0  0  0  0  0
   42.7700   30.4170   36.9180 N   0  0  0  0  0  0  0  0  0  0  0  0
   35.3532   28.8319   38.8475 H   0  0  0  0  0  0  0  0  0  0  0  0
   35.6987   30.3008   36.8446 H   0  0  0  0  0  0  0  0  0  0  0  0
   37.5679   30.3640   42.0423 H   0  0  0  0  0  0  0  0  0  0  0  0
   37.6182   29.3571   44.2917 H   0  0  0  0  0  0  0  0  0  0  0  0
   37.3320   26.8765   44.5215 H   0  0  0  0  0  0  0  0  0  0  0  0
   36.9991   24.7625   43.5095 H   0  0  0  0  0  0  0  0  0  0  0  0
   36.6697   23.3114   41.5259 H   0  0  0  0  0  0  0  0  0  0  0  0
   36.6414   24.4496   39.3049 H   0  0  0  0  0  0  0  0  0  0  0  0
   36.9181   26.8530   39.1032 H   0  0  0  0  0  0  0  0  0  0  0  0
   39.9091   33.0938   40.4807 H   0  0  0  0  0  0  0  0  0  0  0  0
   41.7593   33.2361   42.1386 H   0  0  0  0  0  0  0  0  0  0  0  0
   43.8251   31.8567   41.8879 H   0  0  0  0  0  0  0  0  0  0  0  0
   43.9924   30.3313   39.9268 H   0  0  0  0  0  0  0  0  0  0  0  0
   41.1018   28.1690   38.4880 H   0  0  0  0  0  0  0  0  0  0  0  0
   43.1222   29.4650   34.9818 H   0  0  0  0  0  0  0  0  0  0  0  0
  1  7  1  0
  2  1  2  0
  3  2  1  0
  4  3  2  0
  4  5  1  0
  5  6  2  0
  6  1  1  0
  7 16  1  0
  7  8  2  0
  8  9  1  0
  9 10  2  0
 11 12  2  0
 11 10  1  0
 13 12  1  0
 14 13  2  0
 15 14  1  0
 15 16  2  0
 16 11  1  0
 17  5  1  0
 17 19  1  0
 18 17  2  0
 19 20  2  0
 20 21  1  0
 22 21  2  0
 23 22  1  0
 24 19  1  0
 24 23  2  0
 25 24  1  0
 26 25  1  0
 27 26  2  0
 28 27  1  0
 28 29  2  0
 29 25  1  0
  2 30  1  0
  3 31  1  0
  8 32  1  0
  9 33  1  0
 10 34  1  0
 12 35  1  0
 13 36  1  0
 14 37  1  0
 15 38  1  0
 20 39  1  0
 21 40  1  0
 22 41  1  0
 23 42  1  0
 26 43  1  0
 28 44  1  0
M  ISO  8  30  14  31  14  32  14  33  14  34  14  35  14  36  14  37  14
M  ISO  7  38  14  39  14  40  14  41  14  42  14  43  14  44  14
M  END
>  <minimizedAffinity>  (1) 
-6.186028

>  <minimizedRMSD>  (1) 
0.818031311

$$$$
