
     RDKit          3D

 39 42  0  0  0  0  0  0  0  0999 V2000
   37.1760   29.2480   39.8110 C   0  0  0  0  0  0  0  0  0  0  0  0
   36.1760   29.4010   38.8350 C   0  0  0  0  0  0  0  0  0  0  0  0
   36.3250   30.2370   37.7230 C   0  0  0  0  0  0  0  0  0  0  0  0
   37.5080   30.8980   37.6440 N   0  0  0  0  0  0  0  0  0  0  0  0
   38.4710   30.7800   38.5400 C   0  0  0  0  0  0  0  0  0  0  0  0
   38.2980   29.9720   39.5930 N   0  0  0  0  0  0  0  0  0  0  0  0
   37.2030   28.4740   40.9890 C   0  0  0  0  0  0  0  0  0  0  0  0
   37.3920   29.1960   42.1840 C   0  0  0  0  0  0  0  0  0  0  0  0
   37.4450   28.6210   43.4420 C   0  0  0  0  0  0  0  0  0  0  0  0
   37.3040   27.2380   43.5390 C   0  0  0  0  0  0  0  0  0  0  0  0
   37.1170   26.4800   42.4000 C   0  0  0  0  0  0  0  0  0  0  0  0
   36.9750   25.1260   42.4780 C   0  0  0  0  0  0  0  0  0  0  0  0
   36.7870   24.3320   41.3860 C   0  0  0  0  0  0  0  0  0  0  0  0
   36.7490   25.0030   40.1890 C   0  0  0  0  0  0  0  0  0  0  0  0
   36.8890   26.3580   40.1030 C   0  0  0  0  0  0  0  0  0  0  0  0
   37.0790   27.1460   41.2070 C   0  0  0  0  0  0  0  0  0  0  0  0
   39.6940   31.5500   38.3340 C   0  0  0  0  0  0  0  0  0  0  0  0
   39.9700   32.0450   37.2160 O   0  0  0  0  0  0  0  0  0  0  0  0
   40.6980   31.8210   39.3680 C   0  0  0  0  0  0  0  0  0  0  0  0
   40.7740   33.1060   39.8870 C   0  0  0  0  0  0  0  0  0  0  0  0
   41.7080   33.4240   40.8720 C   0  0  0  0  0  0  0  0  0  0  0  0
   42.5950   32.4730   41.3670 C   0  0  0  0  0  0  0  0  0  0  0  0
   42.5170   31.2170   40.8550 C   0  0  0  0  0  0  0  0  0  0  0  0
   41.5890   30.9200   39.8850 C   0  0  0  0  0  0  0  0  0  0  0  0
   41.5280   29.6230   39.3740 O   0  0  0  0  0  0  0  0  0  0  0  0
   35.2369   28.8399   38.9503 H   0  0  0  0  0  0  0  0  0  0  0  0
   35.5369   30.3509   36.9641 H   0  0  0  0  0  0  0  0  0  0  0  0
   37.5048   30.2879   42.1126 H   0  0  0  0  0  0  0  0  0  0  0  0
   37.5942   29.2385   44.3400 H   0  0  0  0  0  0  0  0  0  0  0  0
   37.3417   26.7496   44.5239 H   0  0  0  0  0  0  0  0  0  0  0  0
   37.0140   24.6517   43.4697 H   0  0  0  0  0  0  0  0  0  0  0  0
   36.6746   23.2401   41.4583 H   0  0  0  0  0  0  0  0  0  0  0  0
   36.6001   24.4267   39.2639 H   0  0  0  0  0  0  0  0  0  0  0  0
   36.8478   26.8339   39.1121 H   0  0  0  0  0  0  0  0  0  0  0  0
   40.0890   33.8829   39.5167 H   0  0  0  0  0  0  0  0  0  0  0  0
   41.7446   34.4500   41.2668 H   0  0  0  0  0  0  0  0  0  0  0  0
   43.3313   32.7284   42.1433 H   0  0  0  0  0  0  0  0  0  0  0  0
   43.1993   30.4343   41.2181 H   0  0  0  0  0  0  0  0  0  0  0  0
   42.1483   28.9287   39.7105 H   0  0  0  0  0  0  0  0  0  0  0  0
  1  7  1  0
  2  1  2  0
  3  2  1  0
  4  3  2  0
  4  5  1  0
  5  6  2  0
  6  1  1  0
  7 16  1  0
  7  8  2  0
  8  9  1  0
  9 10  2  0
 11 12  2  0
 11 10  1  0
 13 12  1  0
 14 13  2  0
 15 14  1  0
 15 16  2  0
 16 11  1  0
 17  5  1  0
 17 19  1  0
 18 17  2  0
 19 24  1  0
 19 20  2  0
 20 21  1  0
 21 22  2  0
 23 22  1  0
 24 23  2  0
 25 24  1  0
  2 26  1  0
  3 27  1  0
  8 28  1  0
  9 29  1  0
 10 30  1  0
 12 31  1  0
 13 32  1  0
 14 33  1  0
 15 34  1  0
 20 35  1  0
 21 36  1  0
 22 37  1  0
 23 38  1  0
 25 39  1  0
M  ISO  8  26  14  27  14  28  14  29  14  30  14  31  14  32  14  33  14
M  ISO  6  34  14  35  14  36  14  37  14  38  14  39   3
M  END
>  <minimizedAffinity>  (1) 
-5.97226572

>  <minimizedRMSD>  (1) 
0.142952904

$$$$
