
     RDKit          3D

 39 42  0  0  0  0  0  0  0  0999 V2000
   37.2370   29.2440   39.7860 C   0  0  0  0  0  0  0  0  0  0  0  0
   36.2470   29.4060   38.8010 C   0  0  0  0  0  0  0  0  0  0  0  0
   36.4190   30.2320   37.6880 C   0  0  0  0  0  0  0  0  0  0  0  0
   37.6080   30.8790   37.6040 N   0  0  0  0  0  0  0  0  0  0  0  0
   38.5590   30.7460   38.5140 C   0  0  0  0  0  0  0  0  0  0  0  0
   38.3710   29.9510   39.5710 N   0  0  0  0  0  0  0  0  0  0  0  0
   37.2430   28.4790   40.9700 C   0  0  0  0  0  0  0  0  0  0  0  0
   37.4260   29.2070   42.1610 C   0  0  0  0  0  0  0  0  0  0  0  0
   37.4600   28.6390   43.4230 C   0  0  0  0  0  0  0  0  0  0  0  0
   37.3020   27.2550   43.5240 C   0  0  0  0  0  0  0  0  0  0  0  0
   37.1180   26.4980   42.3950 C   0  0  0  0  0  0  0  0  0  0  0  0
   36.9620   25.1450   42.4810 C   0  0  0  0  0  0  0  0  0  0  0  0
   36.7750   24.3420   41.3910 C   0  0  0  0  0  0  0  0  0  0  0  0
   36.7580   25.0050   40.1880 C   0  0  0  0  0  0  0  0  0  0  0  0
   36.9150   26.3580   40.0960 C   0  0  0  0  0  0  0  0  0  0  0  0
   37.1020   27.1540   41.2010 C   0  0  0  0  0  0  0  0  0  0  0  0
   39.8010   31.4990   38.3140 C   0  0  0  0  0  0  0  0  0  0  0  0
   40.0150   32.1240   37.2480 O   0  0  0  0  0  0  0  0  0  0  0  0
   40.8860   31.6040   39.2920 C   0  0  0  0  0  0  0  0  0  0  0  0
   40.8660   32.6600   40.1860 C   0  0  0  0  0  0  0  0  0  0  0  0
   41.8740   32.8120   41.1410 C   0  0  0  0  0  0  0  0  0  0  0  0
   42.9280   31.9200   41.2310 C   0  0  0  0  0  0  0  0  0  0  0  0
   42.9440   30.8820   40.3500 C   0  0  0  0  0  0  0  0  0  0  0  0
   41.9460   30.7460   39.4180 C   0  0  0  0  0  0  0  0  0  0  0  0
   41.9720   29.3670   38.2490 S   0  0  0  0  0  0  0  0  0  0  0  0
   35.2985   28.8600   38.9114 H   0  0  0  0  0  0  0  0  0  0  0  0
   35.6361   30.3508   36.9244 H   0  0  0  0  0  0  0  0  0  0  0  0
   37.5499   30.2973   42.0838 H   0  0  0  0  0  0  0  0  0  0  0  0
   37.6071   29.2592   44.3195 H   0  0  0  0  0  0  0  0  0  0  0  0
   37.3252   26.7708   44.5114 H   0  0  0  0  0  0  0  0  0  0  0  0
   36.9880   24.6778   43.4765 H   0  0  0  0  0  0  0  0  0  0  0  0
   36.6483   23.2522   41.4706 H   0  0  0  0  0  0  0  0  0  0  0  0
   36.6126   24.4245   39.2651 H   0  0  0  0  0  0  0  0  0  0  0  0
   36.8910   26.8281   39.1018 H   0  0  0  0  0  0  0  0  0  0  0  0
   40.0445   33.3903   40.1440 H   0  0  0  0  0  0  0  0  0  0  0  0
   41.8288   33.6614   41.8384 H   0  0  0  0  0  0  0  0  0  0  0  0
   43.7206   32.0444   41.9836 H   0  0  0  0  0  0  0  0  0  0  0  0
   43.7622   30.1477   40.3856 H   0  0  0  0  0  0  0  0  0  0  0  0
   41.9943   28.1837   38.9391 H   0  0  0  0  0  0  0  0  0  0  0  0
  1  7  1  0
  2  1  2  0
  3  2  1  0
  4  3  2  0
  4  5  1  0
  5  6  2  0
  6  1  1  0
  7 16  1  0
  7  8  2  0
  8  9  1  0
  9 10  2  0
 11 12  2  0
 11 10  1  0
 13 12  1  0
 14 13  2  0
 15 14  1  0
 15 16  2  0
 16 11  1  0
 17  5  1  0
 17 19  1  0
 18 17  2  0
 19 24  1  0
 19 20  2  0
 20 21  1  0
 21 22  2  0
 23 22  1  0
 24 23  2  0
 25 24  1  0
  2 26  1  0
  3 27  1  0
  8 28  1  0
  9 29  1  0
 10 30  1  0
 12 31  1  0
 13 32  1  0
 14 33  1  0
 15 34  1  0
 20 35  1  0
 21 36  1  0
 22 37  1  0
 23 38  1  0
 25 39  1  0
M  ISO  8  26  14  27  14  28  14  29  14  30  14  31  14  32  14  33  14
M  ISO  6  34  14  35  14  36  14  37  14  38  14  39  11
M  END
>  <minimizedAffinity>  (1) 
-5.90909815

>  <minimizedRMSD>  (1) 
0.243019894

$$$$
