
     RDKit          3D

 34 38  0  0  0  0  0  0  0  0999 V2000
   39.7420   29.0210   41.9220 C   0  0  0  0  0  0  0  0  0  0  0  0
   38.5550   28.3040   42.2140 C   0  0  0  0  0  0  0  0  0  0  0  0
   37.3410   28.9360   41.9750 C   0  0  0  0  0  0  0  0  0  0  0  0
   37.3560   30.2120   41.4750 N   0  0  0  0  0  0  0  0  0  0  0  0
   38.5020   30.8720   41.2070 C   0  0  0  0  0  0  0  0  0  0  0  0
   39.7040   30.2850   41.4270 N   0  0  0  0  0  0  0  0  0  0  0  0
   38.3530   32.1870   40.6920 N   0  0  0  0  0  0  0  0  0  0  0  0
   37.1510   32.5290   40.1670 C   0  0  0  0  0  0  0  0  0  0  0  0
   37.2580   33.8130   39.7500 N   0  0  0  0  0  0  0  0  0  0  0  0
   38.4820   34.2990   39.9910 C   0  0  0  0  0  0  0  0  0  0  0  0
   39.2050   35.4580   39.8250 C   0  0  0  0  0  0  0  0  0  0  0  0
   40.4970   35.5610   40.2240 N   0  0  0  0  0  0  0  0  0  0  0  0
   41.0990   34.4980   40.8030 C   0  0  0  0  0  0  0  0  0  0  0  0
   40.4350   33.3470   40.9850 N   0  0  0  0  0  0  0  0  0  0  0  0
   39.1610   33.2490   40.5900 C   0  0  0  0  0  0  0  0  0  0  0  0
   42.4540   34.7100   41.1840 N   0  0  0  0  0  0  0  0  0  0  0  0
   43.5130   34.0350   40.6650 C   0  0  0  0  0  0  0  0  0  0  0  0
   44.6650   34.4520   41.2180 N   0  0  0  0  0  0  0  0  0  0  0  0
   44.3850   35.3980   42.1010 C   0  0  0  0  0  0  0  0  0  0  0  0
   45.1710   36.1600   42.9420 C   0  0  0  0  0  0  0  0  0  0  0  0
   44.5330   37.0620   43.7350 N   0  0  0  0  0  0  0  0  0  0  0  0
   43.1950   37.2150   43.7100 C   0  0  0  0  0  0  0  0  0  0  0  0
   42.4380   36.4510   42.8710 N   0  0  0  0  0  0  0  0  0  0  0  0
   43.0180   35.5490   42.0710 C   0  0  0  0  0  0  0  0  0  0  0  0
   46.5820   35.9700   42.9400 N   0  0  0  0  0  0  0  0  0  0  0  0
   40.7164   28.5428   42.1004 H   0  0  0  0  0  0  0  0  0  0  0  0
   38.5935   27.2810   42.6165 H   0  0  0  0  0  0  0  0  0  0  0  0
   36.3897   28.4241   42.1823 H   0  0  0  0  0  0  0  0  0  0  0  0
   36.2605   31.8874   40.0938 H   0  0  0  0  0  0  0  0  0  0  0  0
   38.7207   36.3265   39.3548 H   0  0  0  0  0  0  0  0  0  0  0  0
   43.4377   33.2524   39.8956 H   0  0  0  0  0  0  0  0  0  0  0  0
   42.7132   37.9554   44.3656 H   0  0  0  0  0  0  0  0  0  0  0  0
   47.1783   36.5329   43.5633 H   0  0  0  0  0  0  0  0  0  0  0  0
   47.0065   35.2697   42.3153 H   0  0  0  0  0  0  0  0  0  0  0  0
  1  2  2  0
  3  2  1  0
  4  3  2  0
  5  6  2  0
  5  4  1  0
  6  1  1  0
  7  5  1  0
  8  7  1  0
  9 10  1  0
  9  8  2  0
 10 15  2  0
 11 10  1  0
 11 12  2  0
 12 13  1  0
 13 14  2  0
 13 16  1  0
 15  7  1  0
 15 14  1  0
 16 24  1  0
 17 16  1  0
 17 18  2  0
 18 19  1  0
 19 20  2  0
 20 21  1  0
 22 21  2  0
 23 22  1  0
 24 19  1  0
 24 23  2  0
 25 20  1  0
  1 26  1  0
  2 27  1  0
  3 28  1  0
  8 29  1  0
 11 30  1  0
 17 31  1  0
 22 32  1  0
 25 33  1  0
 25 34  1  0
M  ISO  7  26  14  27  14  28  14  29  14  30  14  31  14  32  14
M  END
>  <minimizedAffinity>  (1) 
-7.50640297

>  <minimizedRMSD>  (1) 
1.9409411

$$$$
