
     RDKit          3D

 34 37  0  0  0  0  0  0  0  0999 V2000
   40.0880   27.8810   43.1630 C   0  0  0  0  0  0  0  0  0  0  0  0
   39.1300   27.0770   43.8460 C   0  0  0  0  0  0  0  0  0  0  0  0
   37.7900   27.4230   43.7360 C   0  0  0  0  0  0  0  0  0  0  0  0
   37.4570   28.5170   42.9770 N   0  0  0  0  0  0  0  0  0  0  0  0
   38.3950   29.2570   42.3420 C   0  0  0  0  0  0  0  0  0  0  0  0
   39.7070   28.9510   42.4270 N   0  0  0  0  0  0  0  0  0  0  0  0
   37.8880   30.3590   41.5960 N   0  0  0  0  0  0  0  0  0  0  0  0
   36.5670   30.3660   41.2830 C   0  0  0  0  0  0  0  0  0  0  0  0
   36.3230   31.5040   40.5780 N   0  0  0  0  0  0  0  0  0  0  0  0
   37.4580   32.2130   40.4400 C   0  0  0  0  0  0  0  0  0  0  0  0
   37.8790   33.3850   39.8700 C   0  0  0  0  0  0  0  0  0  0  0  0
   39.1640   33.7930   39.9370 N   0  0  0  0  0  0  0  0  0  0  0  0
   40.0680   33.0240   40.5860 C   0  0  0  0  0  0  0  0  0  0  0  0
   39.6830   31.8740   41.1510 N   0  0  0  0  0  0  0  0  0  0  0  0
   38.4160   31.4730   41.0840 C   0  0  0  0  0  0  0  0  0  0  0  0
   41.4420   33.4560   40.6610 N   0  0  0  0  0  0  0  0  0  0  0  0
   42.4080   32.5230   40.5860 C   0  0  0  0  0  0  0  0  0  0  0  0
   43.7150   33.0140   40.6650 C   0  0  0  0  0  0  0  0  0  0  0  0
   44.7940   31.9860   40.5830 C   0  0  0  0  0  0  0  0  0  0  0  0
   44.0280   34.3420   40.8080 C   0  0  0  0  0  0  0  0  0  0  0  0
   45.2170   34.7130   40.8720 O   0  0  0  0  0  0  0  0  0  0  0  0
   42.9900   35.1980   40.8730 N   0  0  0  0  0  0  0  0  0  0  0  0
   41.7110   34.7640   40.8000 C   0  0  0  0  0  0  0  0  0  0  0  0
   40.7620   35.6000   40.8660 O   0  0  0  0  0  0  0  0  0  0  0  0
   41.1560   27.6275   43.2352 H   0  0  0  0  0  0  0  0  0  0  0  0
   39.4431   26.2077   44.4429 H   0  0  0  0  0  0  0  0  0  0  0  0
   37.0131   26.8340   44.2454 H   0  0  0  0  0  0  0  0  0  0  0  0
   35.8300   29.5943   41.5500 H   0  0  0  0  0  0  0  0  0  0  0  0
   37.1473   34.0134   39.3412 H   0  0  0  0  0  0  0  0  0  0  0  0
   42.1861   31.4518   40.4709 H   0  0  0  0  0  0  0  0  0  0  0  0
   45.1003   31.6942   41.5984 H   0  0  0  0  0  0  0  0  0  0  0  0
   44.4189   31.1028   40.0451 H   0  0  0  0  0  0  0  0  0  0  0  0
   45.6580   32.4034   40.0451 H   0  0  0  0  0  0  0  0  0  0  0  0
   43.1744   36.2056   40.9807 H   0  0  0  0  0  0  0  0  0  0  0  0
  1  2  2  0
  3  2  1  0
  4  3  2  0
  5  6  2  0
  5  4  1  0
  6  1  1  0
  7  5  1  0
  8  7  1  0
  9  8  2  0
 10  9  1  0
 10 15  2  0
 11 12  2  0
 11 10  1  0
 12 13  1  0
 13 16  1  0
 13 14  2  0
 15 14  1  0
 15  7  1  0
 16 23  1  0
 17 16  1  0
 17 18  2  0
 18 20  1  0
 19 18  1  0
 20 21  2  0
 20 22  1  0
 23 24  2  0
 23 22  1  0
  1 25  1  0
  2 26  1  0
  3 27  1  0
  8 28  1  0
 11 29  1  0
 17 30  1  0
 19 31  1  0
 19 32  1  0
 19 33  1  0
 22 34  1  0
M  ISO  8  25  14  26  14  27  14  28  14  29  14  30  14  31   8  32   8
M  ISO  2  33   8  34   9
M  END
>  <minimizedAffinity>  (1) 
-6.96914196

>  <minimizedRMSD>  (1) 
0.125331134

$$$$
