
     RDKit          3D

 35 39  0  0  0  0  0  0  0  0999 V2000
   40.0310   27.9780   43.1040 C   0  0  0  0  0  0  0  0  0  0  0  0
   38.9210   27.3150   43.6960 C   0  0  0  0  0  0  0  0  0  0  0  0
   37.6500   27.8750   43.5100 C   0  0  0  0  0  0  0  0  0  0  0  0
   37.5550   29.0270   42.7690 N   0  0  0  0  0  0  0  0  0  0  0  0
   38.6290   29.6300   42.2200 C   0  0  0  0  0  0  0  0  0  0  0  0
   39.8720   29.1120   42.3820 N   0  0  0  0  0  0  0  0  0  0  0  0
   38.3340   30.8140   41.4850 N   0  0  0  0  0  0  0  0  0  0  0  0
   37.0670   31.0560   41.1240 C   0  0  0  0  0  0  0  0  0  0  0  0
   37.0490   32.2300   40.4430 N   0  0  0  0  0  0  0  0  0  0  0  0
   38.2930   32.7390   40.3660 C   0  0  0  0  0  0  0  0  0  0  0  0
   38.9520   33.8390   39.8450 C   0  0  0  0  0  0  0  0  0  0  0  0
   40.2850   34.0070   39.9800 N   0  0  0  0  0  0  0  0  0  0  0  0
   41.0140   33.0700   40.6480 C   0  0  0  0  0  0  0  0  0  0  0  0
   40.4010   31.9970   41.1610 N   0  0  0  0  0  0  0  0  0  0  0  0
   39.0910   31.8270   41.0310 C   0  0  0  0  0  0  0  0  0  0  0  0
   42.4600   33.2120   40.8170 C   0  0  0  0  0  0  0  0  0  0  0  0
   43.4380   32.3330   40.3530 C   0  0  0  0  0  0  0  0  0  0  0  0
   44.6400   32.8220   40.7140 N   0  0  0  0  0  0  0  0  0  0  0  0
   44.5010   33.9670   41.3860 C   0  0  0  0  0  0  0  0  0  0  0  0
   45.3850   34.8570   41.9660 C   0  0  0  0  0  0  0  0  0  0  0  0
   44.9610   35.9770   42.6070 C   0  0  0  0  0  0  0  0  0  0  0  0
   43.6000   36.2770   42.7050 C   0  0  0  0  0  0  0  0  0  0  0  0
   42.7000   35.3860   42.1230 C   0  0  0  0  0  0  0  0  0  0  0  0
   43.1310   34.2330   41.4630 C   0  0  0  0  0  0  0  0  0  0  0  0
   41.0402   27.5606   43.2355 H   0  0  0  0  0  0  0  0  0  0  0  0
   39.0556   26.3930   44.2806 H   0  0  0  0  0  0  0  0  0  0  0  0
   36.7551   27.4057   43.9447 H   0  0  0  0  0  0  0  0  0  0  0  0
   36.1975   30.4180   41.3405 H   0  0  0  0  0  0  0  0  0  0  0  0
   38.3714   34.6006   39.3038 H   0  0  0  0  0  0  0  0  0  0  0  0
   43.2594   31.4042   39.7913 H   0  0  0  0  0  0  0  0  0  0  0  0
   45.5426   32.3739   40.5008 H   0  0  0  0  0  0  0  0  0  0  0  0
   46.4642   34.6523   41.9068 H   0  0  0  0  0  0  0  0  0  0  0  0
   45.6998   36.6576   43.0554 H   0  0  0  0  0  0  0  0  0  0  0  0
   43.2516   37.1830   43.2224 H   0  0  0  0  0  0  0  0  0  0  0  0
   41.6221   35.5964   42.1851 H   0  0  0  0  0  0  0  0  0  0  0  0
  1  2  2  0
  3  2  1  0
  4  3  2  0
  5  6  2  0
  5  4  1  0
  6  1  1  0
  7  5  1  0
  8  7  1  0
  9  8  2  0
 10  9  1  0
 10 15  2  0
 11 12  2  0
 11 10  1  0
 12 13  1  0
 13 16  1  0
 13 14  2  0
 15 14  1  0
 15  7  1  0
 16 24  1  0
 17 18  1  0
 17 16  2  0
 18 19  1  0
 19 24  2  0
 19 20  1  0
 20 21  2  0
 21 22  1  0
 23 22  2  0
 24 23  1  0
  1 25  1  0
  2 26  1  0
  3 27  1  0
  8 28  1  0
 11 29  1  0
 17 30  1  0
 18 31  1  0
 20 32  1  0
 21 33  1  0
 22 34  1  0
 23 35  1  0
M  ISO  8  25  14  26  14  27  14  28  14  29  14  30  14  31   9  32  14
M  ISO  3  33  14  34  14  35  14
M  END
>  <minimizedAffinity>  (1) 
-6.57595062

>  <minimizedRMSD>  (1) 
1.12197363

$$$$
