
     RDKit          3D

 36 39  0  0  0  0  0  0  0  0999 V2000
   40.3960   27.9630   43.1350 C   0  0  0  0  0  0  0  0  0  0  0  0
   39.5240   27.0450   43.7690 C   0  0  0  0  0  0  0  0  0  0  0  0
   38.1460   27.2500   43.6360 C   0  0  0  0  0  0  0  0  0  0  0  0
   37.7290   28.3240   42.9030 N   0  0  0  0  0  0  0  0  0  0  0  0
   38.5780   29.1880   42.3050 C   0  0  0  0  0  0  0  0  0  0  0  0
   39.9180   29.0120   42.4190 N   0  0  0  0  0  0  0  0  0  0  0  0
   37.9520   30.2420   41.5870 N   0  0  0  0  0  0  0  0  0  0  0  0
   36.6510   30.1350   41.2730 C   0  0  0  0  0  0  0  0  0  0  0  0
   36.2960   31.2550   40.5980 N   0  0  0  0  0  0  0  0  0  0  0  0
   37.3520   32.0800   40.4750 C   0  0  0  0  0  0  0  0  0  0  0  0
   37.6750   33.3030   39.9400 C   0  0  0  0  0  0  0  0  0  0  0  0
   38.9150   33.8290   40.0220 N   0  0  0  0  0  0  0  0  0  0  0  0
   39.9020   33.1280   40.6630 C   0  0  0  0  0  0  0  0  0  0  0  0
   39.6110   31.9350   41.1920 N   0  0  0  0  0  0  0  0  0  0  0  0
   38.3920   31.4160   41.1110 C   0  0  0  0  0  0  0  0  0  0  0  0
   41.2030   33.7010   40.7390 N   0  0  0  0  0  0  0  0  0  0  0  0
   42.2990   32.8420   41.1080 C   0  0  0  0  0  0  0  0  0  0  0  0
   43.6100   33.5200   41.2010 C   0  0  0  0  0  0  0  0  0  0  0  0
   43.5990   34.9440   41.6570 C   0  0  0  0  0  0  0  0  0  0  0  0
   42.2820   35.6340   41.5650 C   0  0  0  0  0  0  0  0  0  0  0  0
   41.4240   35.0820   40.4590 C   0  0  0  0  0  0  0  0  0  0  0  0
   41.4833   27.8229   43.2247 H   0  0  0  0  0  0  0  0  0  0  0  0
   39.9176   26.1968   44.3483 H   0  0  0  0  0  0  0  0  0  0  0  0
   37.4224   26.5682   44.1066 H   0  0  0  0  0  0  0  0  0  0  0  0
   35.9916   29.2898   41.5195 H   0  0  0  0  0  0  0  0  0  0  0  0
   36.8913   33.8769   39.4238 H   0  0  0  0  0  0  0  0  0  0  0  0
   42.0720   32.3987   42.0888 H   0  0  0  0  0  0  0  0  0  0  0  0
   42.3916   32.0942   40.3067 H   0  0  0  0  0  0  0  0  0  0  0  0
   44.2312   32.9489   41.9066 H   0  0  0  0  0  0  0  0  0  0  0  0
   43.9938   33.5495   40.1705 H   0  0  0  0  0  0  0  0  0  0  0  0
   43.9210   34.9661   42.7086 H   0  0  0  0  0  0  0  0  0  0  0  0
   44.2731   35.4854   40.9769 H   0  0  0  0  0  0  0  0  0  0  0  0
   41.7505   35.5106   42.5201 H   0  0  0  0  0  0  0  0  0  0  0  0
   42.4726   36.6949   41.3454 H   0  0  0  0  0  0  0  0  0  0  0  0
   41.9389   35.1920   39.4932 H   0  0  0  0  0  0  0  0  0  0  0  0
   40.4686   35.6242   40.4013 H   0  0  0  0  0  0  0  0  0  0  0  0
  1  2  2  0
  3  2  1  0
  4  3  2  0
  5  6  2  0
  5  4  1  0
  6  1  1  0
  7  5  1  0
  8  7  1  0
  9  8  2  0
 10  9  1  0
 10 15  2  0
 11 12  2  0
 11 10  1  0
 12 13  1  0
 13 16  1  0
 13 14  2  0
 15 14  1  0
 15  7  1  0
 16 17  1  0
 17 18  1  0
 18 19  1  0
 20 19  1  0
 21 16  1  0
 21 20  1  0
  1 22  1  0
  2 23  1  0
  3 24  1  0
  8 25  1  0
 11 26  1  0
 17 27  1  0
 17 28  1  0
 18 29  1  0
 18 30  1  0
 19 31  1  0
 19 32  1  0
 20 33  1  0
 20 34  1  0
 21 35  1  0
 21 36  1  0
M  ISO  8  22  14  23  14  24  14  25  14  26  14  27  13  28  13  29  13
M  ISO  7  30  13  31  13  32  13  33  13  34  13  35  13  36  13
M  END
>  <minimizedAffinity>  (1) 
-6.27241421

>  <minimizedRMSD>  (1) 
0.402421772

$$$$
