
     RDKit          3D

 33 36  0  0  0  0  0  0  0  0999 V2000
   40.1480   27.9380   43.1560 C   0  0  0  0  0  0  0  0  0  0  0  0
   39.2070   27.0770   43.7840 C   0  0  0  0  0  0  0  0  0  0  0  0
   37.8420   27.3680   43.6280 C   0  0  0  0  0  0  0  0  0  0  0  0
   37.4960   28.4600   42.8820 N   0  0  0  0  0  0  0  0  0  0  0  0
   38.4180   29.2540   42.3000 C   0  0  0  0  0  0  0  0  0  0  0  0
   39.7420   28.9970   42.4350 N   0  0  0  0  0  0  0  0  0  0  0  0
   37.8770   30.3460   41.5610 N   0  0  0  0  0  0  0  0  0  0  0  0
   36.5750   30.3170   41.2210 C   0  0  0  0  0  0  0  0  0  0  0  0
   36.3060   31.4500   40.5330 N   0  0  0  0  0  0  0  0  0  0  0  0
   37.4170   32.2060   40.4280 C   0  0  0  0  0  0  0  0  0  0  0  0
   37.8190   33.4020   39.8910 C   0  0  0  0  0  0  0  0  0  0  0  0
   39.0850   33.8600   39.9890 N   0  0  0  0  0  0  0  0  0  0  0  0
   40.0050   33.1070   40.6490 C   0  0  0  0  0  0  0  0  0  0  0  0
   39.6610   31.9270   41.1940 N   0  0  0  0  0  0  0  0  0  0  0  0
   38.3960   31.4910   41.0830 C   0  0  0  0  0  0  0  0  0  0  0  0
   41.3390   33.5880   40.7530 N   0  0  0  0  0  0  0  0  0  0  0  0
   42.5960   32.8490   40.8420 C   0  0  0  0  0  0  0  0  0  0  0  0
   43.2740   33.5610   41.9980 C   0  0  0  0  0  0  0  0  0  0  0  0
   43.0020   35.0190   41.6810 C   0  0  0  0  0  0  0  0  0  0  0  0
   41.7680   34.9540   40.7970 C   0  0  0  0  0  0  0  0  0  0  0  0
   41.2238   27.7345   43.2617 H   0  0  0  0  0  0  0  0  0  0  0  0
   39.5379   26.2096   44.3740 H   0  0  0  0  0  0  0  0  0  0  0  0
   37.0724   26.7346   44.0933 H   0  0  0  0  0  0  0  0  0  0  0  0
   35.8592   29.5166   41.4595 H   0  0  0  0  0  0  0  0  0  0  0  0
   37.0777   34.0148   39.3572 H   0  0  0  0  0  0  0  0  0  0  0  0
   42.4239   31.7863   41.0680 H   0  0  0  0  0  0  0  0  0  0  0  0
   43.1817   32.8398   39.9109 H   0  0  0  0  0  0  0  0  0  0  0  0
   42.8276   33.2723   42.9610 H   0  0  0  0  0  0  0  0  0  0  0  0
   44.3434   33.3229   42.0967 H   0  0  0  0  0  0  0  0  0  0  0  0
   42.8011   35.5919   42.5983 H   0  0  0  0  0  0  0  0  0  0  0  0
   43.8530   35.5233   41.1998 H   0  0  0  0  0  0  0  0  0  0  0  0
   42.0139   35.3029   39.7832 H   0  0  0  0  0  0  0  0  0  0  0  0
   40.9707   35.5969   41.1983 H   0  0  0  0  0  0  0  0  0  0  0  0
  1  2  2  0
  3  2  1  0
  4  3  2  0
  5  6  2  0
  5  4  1  0
  6  1  1  0
  7  5  1  0
  8  7  1  0
  9  8  2  0
 10  9  1  0
 10 15  2  0
 11 12  2  0
 11 10  1  0
 12 13  1  0
 13 16  1  0
 13 14  2  0
 15 14  1  0
 15  7  1  0
 16 20  1  0
 16 17  1  0
 17 18  1  0
 19 18  1  0
 20 19  1  0
  1 21  1  0
  2 22  1  0
  3 23  1  0
  8 24  1  0
 11 25  1  0
 17 26  1  0
 17 27  1  0
 18 28  1  0
 18 29  1  0
 19 30  1  0
 19 31  1  0
 20 32  1  0
 20 33  1  0
M  ISO  8  21  14  22  14  23  14  24  14  25  14  26  13  27  13  28  13
M  ISO  5  29  13  30  13  31  13  32  13  33  13
M  END
>  <minimizedAffinity>  (1) 
-6.11059189

>  <minimizedRMSD>  (1) 
0.190669373

$$$$
