
     RDKit          3D

 34 37  0  0  0  0  0  0  0  0999 V2000
   39.9730   27.8580   43.1610 C   0  0  0  0  0  0  0  0  0  0  0  0
   38.9450   27.0960   43.7860 C   0  0  0  0  0  0  0  0  0  0  0  0
   37.6290   27.5190   43.6220 C   0  0  0  0  0  0  0  0  0  0  0  0
   37.4070   28.6400   42.8700 N   0  0  0  0  0  0  0  0  0  0  0  0
   38.3980   29.3450   42.2870 C   0  0  0  0  0  0  0  0  0  0  0  0
   39.6870   28.9600   42.4280 N   0  0  0  0  0  0  0  0  0  0  0  0
   37.9630   30.4780   41.5480 N   0  0  0  0  0  0  0  0  0  0  0  0
   36.6720   30.5920   41.2090 C   0  0  0  0  0  0  0  0  0  0  0  0
   36.5270   31.7490   40.5180 N   0  0  0  0  0  0  0  0  0  0  0  0
   37.7110   32.3790   40.4080 C   0  0  0  0  0  0  0  0  0  0  0  0
   38.2290   33.5250   39.8630 C   0  0  0  0  0  0  0  0  0  0  0  0
   39.5520   33.8410   39.9620 N   0  0  0  0  0  0  0  0  0  0  0  0
   40.3760   32.9930   40.6210 C   0  0  0  0  0  0  0  0  0  0  0  0
   39.9070   31.8680   41.1640 N   0  0  0  0  0  0  0  0  0  0  0  0
   38.6050   31.5610   41.0640 C   0  0  0  0  0  0  0  0  0  0  0  0
   41.7450   33.3660   40.6970 N   0  0  0  0  0  0  0  0  0  0  0  0
   42.5370   32.9560   41.8320 C   0  0  0  0  0  0  0  0  0  0  0  0
   43.4900   34.0690   42.1710 C   0  0  0  0  0  0  0  0  0  0  0  0
   44.2640   34.4550   41.1090 O   0  0  0  0  0  0  0  0  0  0  0  0
   43.8840   33.9690   39.8780 C   0  0  0  0  0  0  0  0  0  0  0  0
   42.3870   34.1540   39.6600 C   0  0  0  0  0  0  0  0  0  0  0  0
   41.0212   27.5448   43.2761 H   0  0  0  0  0  0  0  0  0  0  0  0
   39.1834   26.2012   44.3797 H   0  0  0  0  0  0  0  0  0  0  0  0
   36.7945   26.9696   44.0822 H   0  0  0  0  0  0  0  0  0  0  0  0
   35.8728   29.8751   41.4485 H   0  0  0  0  0  0  0  0  0  0  0  0
   37.5561   34.2118   39.3287 H   0  0  0  0  0  0  0  0  0  0  0  0
   41.8797   32.7549   42.6908 H   0  0  0  0  0  0  0  0  0  0  0  0
   43.0956   32.0392   41.5924 H   0  0  0  0  0  0  0  0  0  0  0  0
   42.9073   34.9369   42.5134 H   0  0  0  0  0  0  0  0  0  0  0  0
   44.1678   33.6943   42.9521 H   0  0  0  0  0  0  0  0  0  0  0  0
   44.4321   34.5096   39.0923 H   0  0  0  0  0  0  0  0  0  0  0  0
   44.1154   32.8944   39.8372 H   0  0  0  0  0  0  0  0  0  0  0  0
   42.1123   35.2147   39.7573 H   0  0  0  0  0  0  0  0  0  0  0  0
   42.0780   33.8346   38.6538 H   0  0  0  0  0  0  0  0  0  0  0  0
  1  2  2  0
  3  2  1  0
  4  3  2  0
  5  6  2  0
  5  4  1  0
  6  1  1  0
  7  5  1  0
  8  7  1  0
  9  8  2  0
 10  9  1  0
 10 15  2  0
 11 12  2  0
 11 10  1  0
 12 13  1  0
 13 16  1  0
 13 14  2  0
 15 14  1  0
 15  7  1  0
 16 17  1  0
 17 18  1  0
 19 18  1  0
 20 19  1  0
 21 20  1  0
 21 16  1  0
  1 22  1  0
  2 23  1  0
  3 24  1  0
  8 25  1  0
 11 26  1  0
 17 27  1  0
 17 28  1  0
 18 29  1  0
 18 30  1  0
 20 31  1  0
 20 32  1  0
 21 33  1  0
 21 34  1  0
M  ISO  8  22  14  23  14  24  14  25  14  26  14  27  13  28  13  29  13
M  ISO  5  30  13  31  13  32  13  33  13  34  13
M  END
>  <minimizedAffinity>  (1) 
-6.09678364

>  <minimizedRMSD>  (1) 
0.215606257

$$$$
