
     RDKit          3D

 37 40  0  0  0  0  0  0  0  0999 V2000
   41.3280   27.9120   43.2320 C   0  0  0  0  0  0  0  0  0  0  0  0
   40.8230   26.8290   44.0070 C   0  0  0  0  0  0  0  0  0  0  0  0
   39.4350   26.6540   44.0540 C   0  0  0  0  0  0  0  0  0  0  0  0
   38.6750   27.5390   43.3490 N   0  0  0  0  0  0  0  0  0  0  0  0
   39.1770   28.5500   42.6260 C   0  0  0  0  0  0  0  0  0  0  0  0
   40.5050   28.7530   42.5560 N   0  0  0  0  0  0  0  0  0  0  0  0
   38.2150   29.3660   41.9600 N   0  0  0  0  0  0  0  0  0  0  0  0
   36.9550   28.8800   41.8160 C   0  0  0  0  0  0  0  0  0  0  0  0
   36.2330   29.8330   41.1540 N   0  0  0  0  0  0  0  0  0  0  0  0
   37.0040   30.8890   40.8850 C   0  0  0  0  0  0  0  0  0  0  0  0
   36.9130   32.1170   40.2790 C   0  0  0  0  0  0  0  0  0  0  0  0
   37.9580   32.9660   40.1870 N   0  0  0  0  0  0  0  0  0  0  0  0
   39.1520   32.6030   40.7100 C   0  0  0  0  0  0  0  0  0  0  0  0
   39.2980   31.4090   41.3160 N   0  0  0  0  0  0  0  0  0  0  0  0
   38.2440   30.5820   41.3950 C   0  0  0  0  0  0  0  0  0  0  0  0
   40.2980   33.5450   40.6050 C   0  0  0  0  0  0  0  0  0  0  0  0
   39.8900   34.8550   39.9810 C   0  0  0  0  0  0  0  0  0  0  0  0
   41.1190   35.5900   39.5530 C   0  0  0  0  0  0  0  0  0  0  0  0
   41.8380   34.9450   38.4080 C   0  0  0  0  0  0  0  0  0  0  0  0
   41.4490   33.4850   38.3820 C   0  0  0  0  0  0  0  0  0  0  0  0
   41.4530   33.0120   39.8180 C   0  0  0  0  0  0  0  0  0  0  0  0
   42.4152   28.0711   43.1800 H   0  0  0  0  0  0  0  0  0  0  0  0
   41.5004   26.1534   44.5499 H   0  0  0  0  0  0  0  0  0  0  0  0
   38.9780   25.8387   44.6340 H   0  0  0  0  0  0  0  0  0  0  0  0
   36.5858   27.9046   42.1658 H   0  0  0  0  0  0  0  0  0  0  0  0
   35.9472   32.4222   39.8500 H   0  0  0  0  0  0  0  0  0  0  0  0
   40.6204   33.6895   41.6467 H   0  0  0  0  0  0  0  0  0  0  0  0
   39.2503   34.6643   39.1067 H   0  0  0  0  0  0  0  0  0  0  0  0
   39.3302   35.4577   40.7113 H   0  0  0  0  0  0  0  0  0  0  0  0
   40.8282   36.6072   39.2518 H   0  0  0  0  0  0  0  0  0  0  0  0
   41.8098   35.5873   40.4090 H   0  0  0  0  0  0  0  0  0  0  0  0
   41.5458   35.4270   37.4634 H   0  0  0  0  0  0  0  0  0  0  0  0
   42.9262   35.0507   38.5291 H   0  0  0  0  0  0  0  0  0  0  0  0
   40.4459   33.3671   37.9462 H   0  0  0  0  0  0  0  0  0  0  0  0
   42.1491   32.8985   37.7689 H   0  0  0  0  0  0  0  0  0  0  0  0
   41.4073   31.9130   39.8266 H   0  0  0  0  0  0  0  0  0  0  0  0
   42.3752   33.3847   40.2878 H   0  0  0  0  0  0  0  0  0  0  0  0
  1  2  2  0
  2  3  1  0
  4  3  2  0
  5  4  1  0
  6  5  2  0
  6  1  1  0
  7  5  1  0
  8  7  1  0
  9  8  2  0
 10  9  1  0
 10 15  2  0
 11 10  1  0
 12 11  2  0
 12 13  1  0
 13 14  2  0
 14 15  1  0
 15  7  1  0
 16 13  1  0
 17 16  1  0
 18 17  1  0
 19 18  1  0
 20 19  1  0
 20 21  1  0
 21 16  1  0
  1 22  1  0
  2 23  1  0
  3 24  1  0
  8 25  1  0
 11 26  1  0
 16 27  1  0
 17 28  1  0
 17 29  1  0
 18 30  1  0
 18 31  1  0
 19 32  1  0
 19 33  1  0
 20 34  1  0
 20 35  1  0
 21 36  1  0
 21 37  1  0
M  ISO  8  22  14  23  14  24  14  25  14  26  14  27  13  28  13  29  13
M  ISO  8  30  13  31  13  32  13  33  13  34  13  35  13  36  13  37  13
M  END
>  <minimizedAffinity>  (1) 
-5.92333126

>  <minimizedRMSD>  (1) 
1.50572705

$$$$
