
     RDKit          3D

 34 37  0  0  0  0  0  0  0  0999 V2000
   39.7610   27.9060   43.2050 C   0  0  0  0  0  0  0  0  0  0  0  0
   38.7890   27.0260   43.7210 C   0  0  0  0  0  0  0  0  0  0  0  0
   37.4610   27.2870   43.4150 C   0  0  0  0  0  0  0  0  0  0  0  0
   37.1620   28.3730   42.6370 N   0  0  0  0  0  0  0  0  0  0  0  0
   38.1160   29.1980   42.1570 C   0  0  0  0  0  0  0  0  0  0  0  0
   39.4210   28.9680   42.4390 N   0  0  0  0  0  0  0  0  0  0  0  0
   37.6510   30.2790   41.3660 N   0  0  0  0  0  0  0  0  0  0  0  0
   36.3930   30.2280   40.8800 C   0  0  0  0  0  0  0  0  0  0  0  0
   36.2000   31.3630   40.1690 N   0  0  0  0  0  0  0  0  0  0  0  0
   37.2950   32.1320   40.1900 C   0  0  0  0  0  0  0  0  0  0  0  0
   37.7200   33.3430   39.6900 C   0  0  0  0  0  0  0  0  0  0  0  0
   38.9760   33.8130   39.9430 N   0  0  0  0  0  0  0  0  0  0  0  0
   39.8210   33.0770   40.6970 C   0  0  0  0  0  0  0  0  0  0  0  0
   39.4330   31.8960   41.1950 N   0  0  0  0  0  0  0  0  0  0  0  0
   38.2040   31.4360   40.9480 C   0  0  0  0  0  0  0  0  0  0  0  0
   43.7410   34.5910   41.4020 C   0  0  0  0  0  0  0  0  0  0  0  0
   42.6860   35.4710   41.1590 C   0  0  0  0  0  0  0  0  0  0  0  0
   41.3980   34.9830   40.9260 C   0  0  0  0  0  0  0  0  0  0  0  0
   41.1450   33.6240   40.9330 C   0  0  0  0  0  0  0  0  0  0  0  0
   42.1850   32.7440   41.1740 C   0  0  0  0  0  0  0  0  0  0  0  0
   43.4730   33.2290   41.4060 C   0  0  0  0  0  0  0  0  0  0  0  0
   45.3760   35.1540   41.7000 S   0  0  0  0  0  0  0  0  0  0  0  0
   45.3580   36.3120   42.6720 O   0  0  0  0  0  0  0  0  0  0  0  0
   46.1250   34.0240   42.3390 O   0  0  0  0  0  0  0  0  0  0  0  0
   40.8223   27.7250   43.4305 H   0  0  0  0  0  0  0  0  0  0  0  0
   39.0724   26.1643   44.3432 H   0  0  0  0  0  0  0  0  0  0  0  0
   36.6615   26.6319   43.7914 H   0  0  0  0  0  0  0  0  0  0  0  0
   35.6640   29.4186   41.0327 H   0  0  0  0  0  0  0  0  0  0  0  0
   37.0335   33.9431   39.0747 H   0  0  0  0  0  0  0  0  0  0  0  0
   42.8695   36.5556   41.1508 H   0  0  0  0  0  0  0  0  0  0  0  0
   40.5757   35.6882   40.7348 H   0  0  0  0  0  0  0  0  0  0  0  0
   41.9965   31.6603   41.1828 H   0  0  0  0  0  0  0  0  0  0  0  0
   44.2911   32.5186   41.5956 H   0  0  0  0  0  0  0  0  0  0  0  0
   45.9555   35.5573   40.5259 H   0  0  0  0  0  0  0  0  0  0  0  0
  1  2  2  0
  3  2  1  0
  4  3  2  0
  5  6  2  0
  5  4  1  0
  6  1  1  0
  7  5  1  0
  8  7  1  0
  9 10  1  0
  9  8  2  0
 10 15  2  0
 11 12  2  0
 11 10  1  0
 12 13  1  0
 13 19  1  0
 13 14  2  0
 15 14  1  0
 15  7  1  0
 16 21  2  0
 16 22  1  0
 17 16  1  0
 18 19  1  0
 18 17  2  0
 19 20  2  0
 20 21  1  0
 22 24  2  0
 22 23  2  0
  1 25  1  0
  2 26  1  0
  3 27  1  0
  8 28  1  0
 11 29  1  0
 17 30  1  0
 18 31  1  0
 20 32  1  0
 21 33  1  0
 22 34  1  0
M  ISO  8  25  14  26  14  27  14  28  14  29  14  30  14  31  14  32  14
M  ISO  2  33  14  34  11
M  END
>  <minimizedAffinity>  (1) 
-5.82696486

>  <minimizedRMSD>  (1) 
0.705542803

$$$$
