
     RDKit          3D

 30 33  0  0  0  0  0  0  0  0999 V2000
   39.9100   27.8180   43.1860 C   0  0  0  0  0  0  0  0  0  0  0  0
   38.8790   27.0740   43.7870 C   0  0  0  0  0  0  0  0  0  0  0  0
   37.5760   27.5110   43.6040 C   0  0  0  0  0  0  0  0  0  0  0  0
   37.3790   28.6380   42.8520 N   0  0  0  0  0  0  0  0  0  0  0  0
   38.3800   29.3320   42.2880 C   0  0  0  0  0  0  0  0  0  0  0  0
   39.6660   28.9310   42.4470 N   0  0  0  0  0  0  0  0  0  0  0  0
   37.9780   30.4730   41.5440 N   0  0  0  0  0  0  0  0  0  0  0  0
   36.6770   30.5880   41.1980 C   0  0  0  0  0  0  0  0  0  0  0  0
   36.5400   31.7520   40.4980 N   0  0  0  0  0  0  0  0  0  0  0  0
   37.7230   32.3630   40.4000 C   0  0  0  0  0  0  0  0  0  0  0  0
   38.2760   33.4990   39.8650 C   0  0  0  0  0  0  0  0  0  0  0  0
   39.5950   33.8120   39.9690 N   0  0  0  0  0  0  0  0  0  0  0  0
   40.4110   32.9630   40.6340 C   0  0  0  0  0  0  0  0  0  0  0  0
   39.9160   31.8330   41.1780 N   0  0  0  0  0  0  0  0  0  0  0  0
   38.6230   31.5500   41.0630 C   0  0  0  0  0  0  0  0  0  0  0  0
   41.8390   33.2260   40.7890 C   0  0  0  0  0  0  0  0  0  0  0  0
   42.5580   33.7960   39.7540 C   0  0  0  0  0  0  0  0  0  0  0  0
   43.9120   34.0520   39.8880 C   0  0  0  0  0  0  0  0  0  0  0  0
   44.5080   33.7120   41.1000 C   0  0  0  0  0  0  0  0  0  0  0  0
   43.7900   33.1390   42.1430 C   0  0  0  0  0  0  0  0  0  0  0  0
   42.4980   32.9240   41.9440 N   0  0  0  0  0  0  0  0  0  0  0  0
   40.9505   27.4869   43.3191 H   0  0  0  0  0  0  0  0  0  0  0  0
   39.0990   26.1755   44.3823 H   0  0  0  0  0  0  0  0  0  0  0  0
   36.7279   26.9697   44.0486 H   0  0  0  0  0  0  0  0  0  0  0  0
   35.8748   29.8742   41.4367 H   0  0  0  0  0  0  0  0  0  0  0  0
   37.6172   34.1935   39.3231 H   0  0  0  0  0  0  0  0  0  0  0  0
   42.0478   34.0490   38.8129 H   0  0  0  0  0  0  0  0  0  0  0  0
   44.4929   34.5051   39.0712 H   0  0  0  0  0  0  0  0  0  0  0  0
   45.5826   33.9033   41.2363 H   0  0  0  0  0  0  0  0  0  0  0  0
   44.2746   32.8749   43.0945 H   0  0  0  0  0  0  0  0  0  0  0  0
  1  2  2  0
  3  2  1  0
  4  3  2  0
  5  6  2  0
  5  4  1  0
  6  1  1  0
  7  5  1  0
  8  7  1  0
  9  8  2  0
 10  9  1  0
 10 15  2  0
 11 12  2  0
 11 10  1  0
 12 13  1  0
 13 16  1  0
 13 14  2  0
 15 14  1  0
 15  7  1  0
 16 21  2  0
 17 18  2  0
 17 16  1  0
 18 19  1  0
 19 20  2  0
 21 20  1  0
  1 22  1  0
  2 23  1  0
  3 24  1  0
  8 25  1  0
 11 26  1  0
 17 27  1  0
 18 28  1  0
 19 29  1  0
 20 30  1  0
M  ISO  8  22  14  23  14  24  14  25  14  26  14  27  14  28  14  29  14
M  ISO  1  30  14
M  END
>  <minimizedAffinity>  (1) 
-5.58405781

>  <minimizedRMSD>  (1) 
0.267657846

$$$$
