
     RDKit          3D

 31 34  0  0  0  0  0  0  0  0999 V2000
   39.9520   27.8770   43.1670 C   0  0  0  0  0  0  0  0  0  0  0  0
   38.9390   27.0940   43.7650 C   0  0  0  0  0  0  0  0  0  0  0  0
   37.6060   27.4980   43.5760 C   0  0  0  0  0  0  0  0  0  0  0  0
   37.3700   28.6220   42.8260 N   0  0  0  0  0  0  0  0  0  0  0  0
   38.3670   29.3430   42.2700 C   0  0  0  0  0  0  0  0  0  0  0  0
   39.6630   28.9790   42.4350 N   0  0  0  0  0  0  0  0  0  0  0  0
   37.9450   30.4730   41.5270 N   0  0  0  0  0  0  0  0  0  0  0  0
   36.6560   30.5600   41.1670 C   0  0  0  0  0  0  0  0  0  0  0  0
   36.4870   31.7130   40.4710 N   0  0  0  0  0  0  0  0  0  0  0  0
   37.6560   32.3660   40.3840 C   0  0  0  0  0  0  0  0  0  0  0  0
   38.1770   33.5270   39.8530 C   0  0  0  0  0  0  0  0  0  0  0  0
   39.4760   33.8610   39.9780 N   0  0  0  0  0  0  0  0  0  0  0  0
   40.3120   33.0350   40.6480 C   0  0  0  0  0  0  0  0  0  0  0  0
   39.8580   31.8940   41.1850 N   0  0  0  0  0  0  0  0  0  0  0  0
   38.5600   31.5640   41.0580 C   0  0  0  0  0  0  0  0  0  0  0  0
   41.7170   33.4250   40.7660 C   0  0  0  0  0  0  0  0  0  0  0  0
   42.0430   34.6720   41.2580 C   0  0  0  0  0  0  0  0  0  0  0  0
   43.3770   35.0110   41.3580 C   0  0  0  0  0  0  0  0  0  0  0  0
   44.3410   34.1240   40.9770 C   0  0  0  0  0  0  0  0  0  0  0  0
   44.0350   32.8730   40.4830 C   0  0  0  0  0  0  0  0  0  0  0  0
   42.6910   32.5260   40.3800 C   0  0  0  0  0  0  0  0  0  0  0  0
   41.0038   27.5834   43.2997 H   0  0  0  0  0  0  0  0  0  0  0  0
   39.1848   26.2002   44.3573 H   0  0  0  0  0  0  0  0  0  0  0  0
   36.7749   26.9284   44.0174 H   0  0  0  0  0  0  0  0  0  0  0  0
   35.8712   29.8240   41.3962 H   0  0  0  0  0  0  0  0  0  0  0  0
   37.5063   34.2063   39.3065 H   0  0  0  0  0  0  0  0  0  0  0  0
   41.2580   35.3795   41.5634 H   0  0  0  0  0  0  0  0  0  0  0  0
   43.6639   35.9995   41.7461 H   0  0  0  0  0  0  0  0  0  0  0  0
   45.3977   34.4162   41.0668 H   0  0  0  0  0  0  0  0  0  0  0  0
   44.8273   32.1725   40.1803 H   0  0  0  0  0  0  0  0  0  0  0  0
   42.4054   31.5372   39.9917 H   0  0  0  0  0  0  0  0  0  0  0  0
  1  2  2  0
  3  2  1  0
  4  3  2  0
  5  6  2  0
  5  4  1  0
  6  1  1  0
  7  5  1  0
  8  7  1  0
  9  8  2  0
 10  9  1  0
 10 15  2  0
 11 12  2  0
 11 10  1  0
 12 13  1  0
 13 16  1  0
 13 14  2  0
 15 14  1  0
 15  7  1  0
 16 17  2  0
 17 18  1  0
 19 18  2  0
 20 19  1  0
 21 20  2  0
 21 16  1  0
  1 22  1  0
  2 23  1  0
  3 24  1  0
  8 25  1  0
 11 26  1  0
 17 27  1  0
 18 28  1  0
 19 29  1  0
 20 30  1  0
 21 31  1  0
M  ISO  8  22  14  23  14  24  14  25  14  26  14  27  14  28  14  29  14
M  ISO  2  30  14  31  14
M  END
>  <minimizedAffinity>  (1) 
-5.55355835

>  <minimizedRMSD>  (1) 
0.181764245

$$$$
