
     RDKit          3D

 24 26  0  0  0  0  0  0  0  0999 V2000
   40.1580   27.8860   43.1520 C   0  0  0  0  0  0  0  0  0  0  0  0
   39.2260   27.0570   43.8020 C   0  0  0  0  0  0  0  0  0  0  0  0
   37.8850   27.3870   43.6690 C   0  0  0  0  0  0  0  0  0  0  0  0
   37.5400   28.4860   42.9250 N   0  0  0  0  0  0  0  0  0  0  0  0
   38.4570   29.2550   42.3180 C   0  0  0  0  0  0  0  0  0  0  0  0
   39.7590   28.9610   42.4270 N   0  0  0  0  0  0  0  0  0  0  0  0
   37.9270   30.3560   41.5850 N   0  0  0  0  0  0  0  0  0  0  0  0
   36.6120   30.3560   41.2750 C   0  0  0  0  0  0  0  0  0  0  0  0
   36.3540   31.4960   40.5850 N   0  0  0  0  0  0  0  0  0  0  0  0
   37.4830   32.2210   40.4510 C   0  0  0  0  0  0  0  0  0  0  0  0
   37.8880   33.4050   39.8920 C   0  0  0  0  0  0  0  0  0  0  0  0
   39.1690   33.8280   39.9610 N   0  0  0  0  0  0  0  0  0  0  0  0
   40.0900   33.0480   40.6100 C   0  0  0  0  0  0  0  0  0  0  0  0
   39.7170   31.8880   41.1620 N   0  0  0  0  0  0  0  0  0  0  0  0
   38.4550   31.4830   41.0880 C   0  0  0  0  0  0  0  0  0  0  0  0
   41.5110   33.4410   40.7280 C   0  0  0  0  0  0  0  0  0  0  0  0
   42.1220   33.9960   39.7870 O   0  0  0  0  0  0  0  0  0  0  0  0
   42.2220   33.2040   41.8970 O   0  0  0  0  0  0  0  0  0  0  0  0
   41.2311   27.6583   43.2331 H   0  0  0  0  0  0  0  0  0  0  0  0
   39.5465   26.1846   44.3904 H   0  0  0  0  0  0  0  0  0  0  0  0
   37.1095   26.7757   44.1536 H   0  0  0  0  0  0  0  0  0  0  0  0
   35.8830   29.5742   41.5346 H   0  0  0  0  0  0  0  0  0  0  0  0
   37.1474   34.0298   39.3713 H   0  0  0  0  0  0  0  0  0  0  0  0
   43.1727   33.4727   41.9612 H   0  0  0  0  0  0  0  0  0  0  0  0
  1  2  2  0
  3  2  1  0
  4  3  2  0
  5  6  2  0
  5  4  1  0
  6  1  1  0
  7  5  1  0
  8  7  1  0
  9  8  2  0
 10  9  1  0
 10 15  2  0
 11 12  2  0
 11 10  1  0
 12 13  1  0
 13 16  1  0
 13 14  2  0
 15 14  1  0
 15  7  1  0
 16 18  1  0
 17 16  2  0
  1 19  1  0
  2 20  1  0
  3 21  1  0
  8 22  1  0
 11 23  1  0
 18 24  1  0
M  ISO  6  19  14  20  14  21  14  22  14  23  14  24   3
M  END
>  <minimizedAffinity>  (1) 
-5.3332386

>  <minimizedRMSD>  (1) 
0.183409825

$$$$
