
     RDKit          3D

 28 31  0  0  0  0  0  0  0  0999 V2000
   40.7910   28.2500   42.8990 C   0  0  0  0  0  0  0  0  0  0  0  0
   40.0580   27.3000   43.6340 C   0  0  0  0  0  0  0  0  0  0  0  0
   38.6640   27.3940   43.6360 C   0  0  0  0  0  0  0  0  0  0  0  0
   38.0850   28.4110   42.9180 N   0  0  0  0  0  0  0  0  0  0  0  0
   38.8160   29.3070   42.2220 C   0  0  0  0  0  0  0  0  0  0  0  0
   40.1690   29.2300   42.2090 N   0  0  0  0  0  0  0  0  0  0  0  0
   38.0500   30.2890   41.5380 N   0  0  0  0  0  0  0  0  0  0  0  0
   36.7360   30.0790   41.3460 C   0  0  0  0  0  0  0  0  0  0  0  0
   36.2470   31.1520   40.6800 N   0  0  0  0  0  0  0  0  0  0  0  0
   37.2170   32.0440   40.4420 C   0  0  0  0  0  0  0  0  0  0  0  0
   37.3860   33.2730   39.8450 C   0  0  0  0  0  0  0  0  0  0  0  0
   38.5870   33.8940   39.7990 N   0  0  0  0  0  0  0  0  0  0  0  0
   39.6590   33.2820   40.3610 C   0  0  0  0  0  0  0  0  0  0  0  0
   39.5560   32.0880   40.9540 N   0  0  0  0  0  0  0  0  0  0  0  0
   38.3560   31.4810   40.9930 C   0  0  0  0  0  0  0  0  0  0  0  0
   40.9560   33.9890   40.2930 C   0  0  0  0  0  0  0  0  0  0  0  0
   41.2130   35.1290   39.4060 C   0  0  0  0  0  0  0  0  0  0  0  0
   40.8700   35.4250   40.8110 C   0  0  0  0  0  0  0  0  0  0  0  0
   41.8895   28.1934   42.8863 H   0  0  0  0  0  0  0  0  0  0  0  0
   40.5699   26.5030   44.1932 H   0  0  0  0  0  0  0  0  0  0  0  0
   38.0487   26.6746   44.1962 H   0  0  0  0  0  0  0  0  0  0  0  0
   36.1633   29.1976   41.6703 H   0  0  0  0  0  0  0  0  0  0  0  0
   36.5148   33.7668   39.3899 H   0  0  0  0  0  0  0  0  0  0  0  0
   41.5240   33.0615   40.4577 H   0  0  0  0  0  0  0  0  0  0  0  0
   42.2353   35.3167   39.0458 H   0  0  0  0  0  0  0  0  0  0  0  0
   40.8017   35.4490   38.4373 H   0  0  0  0  0  0  0  0  0  0  0  0
   39.8942   35.8662   41.0623 H   0  0  0  0  0  0  0  0  0  0  0  0
   41.3319   35.9950   41.6306 H   0  0  0  0  0  0  0  0  0  0  0  0
  1  2  2  0
  2  3  1  0
  4  3  2  0
  5  4  1  0
  6  5  2  0
  6  1  1  0
  7  5  1  0
  8  7  1  0
  9  8  2  0
 10  9  1  0
 10 15  2  0
 11 10  1  0
 12 11  2  0
 12 13  1  0
 13 14  2  0
 14 15  1  0
 15  7  1  0
 16 13  1  0
 16 18  1  0
 17 16  1  0
 17 18  1  0
  1 19  1  0
  2 20  1  0
  3 21  1  0
  8 22  1  0
 11 23  1  0
 16 24  1  0
 17 25  1  0
 17 26  1  0
 18 27  1  0
 18 28  1  0
M  ISO  8  19  14  20  14  21  14  22  14  23  14  24  13  25  13  26  13
M  ISO  2  27  13  28  13
M  END
>  <minimizedAffinity>  (1) 
-5.22754145

>  <minimizedRMSD>  (1) 
0.826103449

$$$$
