
     RDKit          3D

 41 46  0  0  0  0  0  0  0  0999 V2000
   40.2660   27.8930   43.1520 C   0  0  0  0  0  0  0  0  0  0  0  0
   39.3830   26.9720   43.7660 C   0  0  0  0  0  0  0  0  0  0  0  0
   37.9950   27.1610   43.5970 C   0  0  0  0  0  0  0  0  0  0  0  0
   37.5900   28.2330   42.8430 N   0  0  0  0  0  0  0  0  0  0  0  0
   38.4690   29.0810   42.2800 C   0  0  0  0  0  0  0  0  0  0  0  0
   39.8030   28.9300   42.4200 N   0  0  0  0  0  0  0  0  0  0  0  0
   37.8680   30.1430   41.5280 N   0  0  0  0  0  0  0  0  0  0  0  0
   36.5860   30.0200   41.1350 C   0  0  0  0  0  0  0  0  0  0  0  0
   36.2650   31.1370   40.4550 N   0  0  0  0  0  0  0  0  0  0  0  0
   37.3040   31.9720   40.3990 C   0  0  0  0  0  0  0  0  0  0  0  0
   37.6250   33.2060   39.8870 C   0  0  0  0  0  0  0  0  0  0  0  0
   38.8510   33.7660   40.0370 N   0  0  0  0  0  0  0  0  0  0  0  0
   39.8020   33.0810   40.7220 C   0  0  0  0  0  0  0  0  0  0  0  0
   39.5260   31.8690   41.2400 N   0  0  0  0  0  0  0  0  0  0  0  0
   38.3160   31.3350   41.0820 C   0  0  0  0  0  0  0  0  0  0  0  0
   41.1130   33.5900   40.9280 N   0  0  0  0  0  0  0  0  0  0  0  0
   41.7700   34.7230   40.6210 C   0  0  0  0  0  0  0  0  0  0  0  0
   43.0310   34.6550   41.0800 N   0  0  0  0  0  0  0  0  0  0  0  0
   43.1570   33.4580   41.6840 C   0  0  0  0  0  0  0  0  0  0  0  0
   41.9730   32.8140   41.5840 N   0  0  0  0  0  0  0  0  0  0  0  0
   44.3470   32.9890   42.3070 N   0  0  0  0  0  0  0  0  0  0  0  0
   45.0810   31.9840   41.7440 C   0  0  0  0  0  0  0  0  0  0  0  0
   46.1490   31.7220   42.5160 N   0  0  0  0  0  0  0  0  0  0  0  0
   46.1270   32.5560   43.5960 C   0  0  0  0  0  0  0  0  0  0  0  0
   46.9030   32.7740   44.6970 C   0  0  0  0  0  0  0  0  0  0  0  0
   47.9260   32.0920   44.8640 O   0  0  0  0  0  0  0  0  0  0  0  0
   46.5240   33.7330   45.5700 N   0  0  0  0  0  0  0  0  0  0  0  0
   45.4090   34.5090   45.4310 C   0  0  0  0  0  0  0  0  0  0  0  0
   45.0990   35.4910   46.4090 N   0  0  0  0  0  0  0  0  0  0  0  0
   44.6450   34.2790   44.3290 N   0  0  0  0  0  0  0  0  0  0  0  0
   44.9970   33.3270   43.4350 C   0  0  0  0  0  0  0  0  0  0  0  0
   41.3513   27.7615   43.2735 H   0  0  0  0  0  0  0  0  0  0  0  0
   39.7694   26.1304   44.3597 H   0  0  0  0  0  0  0  0  0  0  0  0
   37.2656   26.4750   44.0524 H   0  0  0  0  0  0  0  0  0  0  0  0
   35.9232   29.1647   41.3329 H   0  0  0  0  0  0  0  0  0  0  0  0
   36.8555   33.7629   39.3323 H   0  0  0  0  0  0  0  0  0  0  0  0
   41.3398   35.5764   40.0764 H   0  0  0  0  0  0  0  0  0  0  0  0
   44.8356   31.4687   40.8037 H   0  0  0  0  0  0  0  0  0  0  0  0
   47.1170   33.8896   46.3975 H   0  0  0  0  0  0  0  0  0  0  0  0
   44.2577   36.0757   46.3031 H   0  0  0  0  0  0  0  0  0  0  0  0
   45.7155   35.6185   47.2242 H   0  0  0  0  0  0  0  0  0  0  0  0
  1  2  2  0
  3  2  1  0
  4  3  2  0
  5  6  2  0
  5  4  1  0
  6  1  1  0
  7  5  1  0
  8  7  1  0
  9  8  2  0
 10  9  1  0
 10 15  2  0
 11 12  2  0
 11 10  1  0
 12 13  1  0
 13 16  1  0
 13 14  2  0
 15 14  1  0
 15  7  1  0
 16 20  1  0
 17 16  1  0
 17 18  2  0
 18 19  1  0
 19 21  1  0
 20 19  2  0
 21 31  1  0
 22 21  1  0
 22 23  2  0
 23 24  1  0
 24 25  1  0
 25 26  2  0
 25 27  1  0
 28 27  1  0
 28 29  1  0
 30 28  2  0
 31 24  2  0
 31 30  1  0
  1 32  1  0
  2 33  1  0
  3 34  1  0
  8 35  1  0
 11 36  1  0
 17 37  1  0
 22 38  1  0
 27 39  1  0
 29 40  1  0
 29 41  1  0
M  ISO  8  32  14  33  14  34  14  35  14  36  14  37  14  38  14  39   9
M  END
>  <minimizedAffinity>  (1) 
-8.13479996

>  <minimizedRMSD>  (1) 
0.383487314

$$$$
