
     RDKit          3D

 34 37  0  0  0  0  0  0  0  0999 V2000
   40.3250   27.9320   43.1270 C   0  0  0  0  0  0  0  0  0  0  0  0
   39.4830   27.0030   43.7800 C   0  0  0  0  0  0  0  0  0  0  0  0
   38.0910   27.1610   43.6610 C   0  0  0  0  0  0  0  0  0  0  0  0
   37.6350   28.2130   42.9140 N   0  0  0  0  0  0  0  0  0  0  0  0
   38.4680   29.0820   42.3020 C   0  0  0  0  0  0  0  0  0  0  0  0
   39.8250   28.9620   42.3950 N   0  0  0  0  0  0  0  0  0  0  0  0
   37.8470   30.1230   41.5600 N   0  0  0  0  0  0  0  0  0  0  0  0
   36.5480   29.9780   41.2150 C   0  0  0  0  0  0  0  0  0  0  0  0
   36.2050   31.0830   40.5240 N   0  0  0  0  0  0  0  0  0  0  0  0
   37.2330   31.9220   40.4180 C   0  0  0  0  0  0  0  0  0  0  0  0
   37.5270   33.1400   39.8750 C   0  0  0  0  0  0  0  0  0  0  0  0
   38.7440   33.7170   39.9660 N   0  0  0  0  0  0  0  0  0  0  0  0
   39.7220   33.0610   40.6280 C   0  0  0  0  0  0  0  0  0  0  0  0
   39.4790   31.8610   41.1780 N   0  0  0  0  0  0  0  0  0  0  0  0
   38.2700   31.3080   41.0750 C   0  0  0  0  0  0  0  0  0  0  0  0
   41.0330   33.5860   40.7810 N   0  0  0  0  0  0  0  0  0  0  0  0
   41.6780   34.7050   40.3970 C   0  0  0  0  0  0  0  0  0  0  0  0
   42.9410   34.6700   40.8340 N   0  0  0  0  0  0  0  0  0  0  0  0
   43.0920   33.5250   41.4960 C   0  0  0  0  0  0  0  0  0  0  0  0
   41.9160   32.8540   41.4630 N   0  0  0  0  0  0  0  0  0  0  0  0
   44.2550   32.9970   42.1620 N   0  0  0  0  0  0  0  0  0  0  0  0
   44.7130   33.4860   43.4120 C   0  0  0  0  0  0  0  0  0  0  0  0
   44.4170   34.7090   43.6810 N   0  0  0  0  0  0  0  0  0  0  0  0
   45.4480   32.6200   44.2600 N   0  0  0  0  0  0  0  0  0  0  0  0
   44.6810   35.2160   44.5550 H   0  0  0  0  0  0  0  0  0  0  0  0
   41.4156   27.8179   43.2138 H   0  0  0  0  0  0  0  0  0  0  0  0
   39.9071   26.1755   44.3677 H   0  0  0  0  0  0  0  0  0  0  0  0
   37.3941   26.4646   44.1503 H   0  0  0  0  0  0  0  0  0  0  0  0
   35.8971   29.1236   41.4523 H   0  0  0  0  0  0  0  0  0  0  0  0
   36.7326   33.6777   39.3367 H   0  0  0  0  0  0  0  0  0  0  0  0
   41.2327   35.5235   39.8124 H   0  0  0  0  0  0  0  0  0  0  0  0
   44.7763   32.2316   41.7111 H   0  0  0  0  0  0  0  0  0  0  0  0
   45.7884   32.9583   45.1714 H   0  0  0  0  0  0  0  0  0  0  0  0
   45.6417   31.6524   43.9648 H   0  0  0  0  0  0  0  0  0  0  0  0
  1  2  2  0
  3  2  1  0
  4  3  2  0
  5  6  2  0
  5  4  1  0
  6  1  1  0
  7  5  1  0
  8  7  1  0
  9  8  2  0
 10  9  1  0
 10 15  2  0
 11 12  2  0
 11 10  1  0
 12 13  1  0
 13 16  1  0
 13 14  2  0
 15 14  1  0
 15  7  1  0
 16 20  1  0
 17 16  1  0
 17 18  2  0
 18 19  1  0
 19 21  1  0
 20 19  2  0
 21 22  1  0
 22 23  2  0
 22 24  1  0
 23 25  1  0
  1 26  1  0
  2 27  1  0
  3 28  1  0
  8 29  1  0
 11 30  1  0
 17 31  1  0
 21 32  1  0
 24 33  1  0
 24 34  1  0
M  ISO  6  26  14  27  14  28  14  29  14  30  14  31  14
M  END
>  <minimizedAffinity>  (1) 
-6.88991308

>  <minimizedRMSD>  (1) 
0.248803213

$$$$
