
     RDKit          3D

 34 38  0  0  0  0  0  0  0  0999 V2000
   41.8550   28.2980   43.0940 C   0  0  0  0  0  0  0  0  0  0  0  0
   41.6360   27.1730   43.9310 C   0  0  0  0  0  0  0  0  0  0  0  0
   40.3130   26.7210   44.1050 C   0  0  0  0  0  0  0  0  0  0  0  0
   39.3210   27.4040   43.4510 N   0  0  0  0  0  0  0  0  0  0  0  0
   39.5750   28.4610   42.6710 C   0  0  0  0  0  0  0  0  0  0  0  0
   40.8380   28.9330   42.4740 N   0  0  0  0  0  0  0  0  0  0  0  0
   38.4130   29.0500   42.0670 N   0  0  0  0  0  0  0  0  0  0  0  0
   37.2780   28.3300   42.0230 C   0  0  0  0  0  0  0  0  0  0  0  0
   36.3400   29.1010   41.4110 N   0  0  0  0  0  0  0  0  0  0  0  0
   36.8640   30.2810   41.0740 C   0  0  0  0  0  0  0  0  0  0  0  0
   36.4790   31.4420   40.4670 C   0  0  0  0  0  0  0  0  0  0  0  0
   37.3190   32.4860   40.2840 N   0  0  0  0  0  0  0  0  0  0  0  0
   38.5860   32.3860   40.7130 C   0  0  0  0  0  0  0  0  0  0  0  0
   39.0100   31.2620   41.3180 N   0  0  0  0  0  0  0  0  0  0  0  0
   38.1680   30.2420   41.4900 C   0  0  0  0  0  0  0  0  0  0  0  0
   39.5380   33.4370   40.5620 N   0  0  0  0  0  0  0  0  0  0  0  0
   39.5290   34.7050   40.1040 C   0  0  0  0  0  0  0  0  0  0  0  0
   40.7500   35.2330   40.2020 N   0  0  0  0  0  0  0  0  0  0  0  0
   41.5360   34.2870   40.7280 C   0  0  0  0  0  0  0  0  0  0  0  0
   40.7910   33.1800   40.9500 N   0  0  0  0  0  0  0  0  0  0  0  0
   42.9720   34.4510   41.0090 C   0  0  0  0  0  0  0  0  0  0  0  0
   43.9960   33.6370   40.5730 C   0  0  0  0  0  0  0  0  0  0  0  0
   45.1360   34.1700   41.0710 N   0  0  0  0  0  0  0  0  0  0  0  0
   44.8040   35.2740   41.7870 C   0  0  0  0  0  0  0  0  0  0  0  0
   43.4620   35.4580   41.7540 N   0  0  0  0  0  0  0  0  0  0  0  0
   42.8822   28.6627   42.9464 H   0  0  0  0  0  0  0  0  0  0  0  0
   42.4761   26.6679   44.4301 H   0  0  0  0  0  0  0  0  0  0  0  0
   40.0850   25.8532   44.7414 H   0  0  0  0  0  0  0  0  0  0  0  0
   37.1354   27.3099   42.4092 H   0  0  0  0  0  0  0  0  0  0  0  0
   35.4418   31.5319   40.1119 H   0  0  0  0  0  0  0  0  0  0  0  0
   38.6454   35.2270   39.7080 H   0  0  0  0  0  0  0  0  0  0  0  0
   43.9048   32.7369   39.9473 H   0  0  0  0  0  0  0  0  0  0  0  0
   45.5180   35.9228   42.3154 H   0  0  0  0  0  0  0  0  0  0  0  0
   42.9273   36.2133   42.2062 H   0  0  0  0  0  0  0  0  0  0  0  0
  1  2  2  0
  2  3  1  0
  4  3  2  0
  5  4  1  0
  6  5  2  0
  6  1  1  0
  7  5  1  0
  8  7  1  0
  9  8  2  0
 10  9  1  0
 10 15  2  0
 11 10  1  0
 12 11  2  0
 12 13  1  0
 13 14  2  0
 14 15  1  0
 15  7  1  0
 16 13  1  0
 16 20  1  0
 17 18  2  0
 17 16  1  0
 18 19  1  0
 19 20  2  0
 19 21  1  0
 21 25  1  0
 22 21  2  0
 22 23  1  0
 23 24  2  0
 25 24  1  0
  1 26  1  0
  2 27  1  0
  3 28  1  0
  8 29  1  0
 11 30  1  0
 17 31  1  0
 22 32  1  0
 24 33  1  0
 25 34  1  0
M  ISO  8  26  14  27  14  28  14  29  14  30  14  31  14  32  14  33  14
M  ISO  1  34   9
M  END
>  <minimizedAffinity>  (1) 
-6.74010134

>  <minimizedRMSD>  (1) 
2.25920796

$$$$
