
     RDKit          3D

 39 43  0  0  0  0  0  0  0  0999 V2000
   40.4870   28.0960   43.1310 C   0  0  0  0  0  0  0  0  0  0  0  0
   39.6940   27.1130   43.7690 C   0  0  0  0  0  0  0  0  0  0  0  0
   38.2910   27.1780   43.6290 C   0  0  0  0  0  0  0  0  0  0  0  0
   37.7670   28.2000   42.8770 N   0  0  0  0  0  0  0  0  0  0  0  0
   38.5600   29.1170   42.2860 C   0  0  0  0  0  0  0  0  0  0  0  0
   39.9200   29.0830   42.4010 N   0  0  0  0  0  0  0  0  0  0  0  0
   37.8880   30.1190   41.5370 N   0  0  0  0  0  0  0  0  0  0  0  0
   36.5900   29.9020   41.1950 C   0  0  0  0  0  0  0  0  0  0  0  0
   36.1680   30.9740   40.4960 N   0  0  0  0  0  0  0  0  0  0  0  0
   37.1500   31.8700   40.3800 C   0  0  0  0  0  0  0  0  0  0  0  0
   37.3650   33.1020   39.8230 C   0  0  0  0  0  0  0  0  0  0  0  0
   38.5520   33.7430   39.9100 N   0  0  0  0  0  0  0  0  0  0  0  0
   39.5650   33.1480   40.5710 C   0  0  0  0  0  0  0  0  0  0  0  0
   39.3980   31.9380   41.1340 N   0  0  0  0  0  0  0  0  0  0  0  0
   38.2150   31.3120   41.0390 C   0  0  0  0  0  0  0  0  0  0  0  0
   40.8460   33.7510   40.7130 N   0  0  0  0  0  0  0  0  0  0  0  0
   41.4310   34.8890   40.2880 C   0  0  0  0  0  0  0  0  0  0  0  0
   42.6930   34.9420   40.7360 N   0  0  0  0  0  0  0  0  0  0  0  0
   42.8950   33.8280   41.4460 C   0  0  0  0  0  0  0  0  0  0  0  0
   41.7590   33.0910   41.4350 N   0  0  0  0  0  0  0  0  0  0  0  0
   44.1090   33.4830   42.1020 N   0  0  0  0  0  0  0  0  0  0  0  0
   45.3820   34.1570   41.8110 C   0  0  0  0  0  0  0  0  0  0  0  0
   46.4130   33.4180   42.6350 C   0  0  0  0  0  0  0  0  0  0  0  0
   45.5450   32.9970   43.8300 C   0  0  0  0  0  0  0  0  0  0  0  0
   44.3260   32.4700   43.1170 C   0  0  0  0  0  0  0  0  0  0  0  0
   41.5818   28.0567   43.2304 H   0  0  0  0  0  0  0  0  0  0  0  0
   40.1618   26.3137   44.3625 H   0  0  0  0  0  0  0  0  0  0  0  0
   37.6380   26.4332   44.1074 H   0  0  0  0  0  0  0  0  0  0  0  0
   35.9926   29.0125   41.4438 H   0  0  0  0  0  0  0  0  0  0  0  0
   36.5395   33.5894   39.2835 H   0  0  0  0  0  0  0  0  0  0  0  0
   40.9461   35.6572   39.6678 H   0  0  0  0  0  0  0  0  0  0  0  0
   45.6207   34.0867   40.7395 H   0  0  0  0  0  0  0  0  0  0  0  0
   45.3478   35.2288   42.0562 H   0  0  0  0  0  0  0  0  0  0  0  0
   46.8181   32.5478   42.0977 H   0  0  0  0  0  0  0  0  0  0  0  0
   47.3066   34.0046   42.8945 H   0  0  0  0  0  0  0  0  0  0  0  0
   46.0333   32.2152   44.4303 H   0  0  0  0  0  0  0  0  0  0  0  0
   45.3400   33.8014   44.5517 H   0  0  0  0  0  0  0  0  0  0  0  0
   43.4654   32.3959   43.7981 H   0  0  0  0  0  0  0  0  0  0  0  0
   44.4535   31.4556   42.7111 H   0  0  0  0  0  0  0  0  0  0  0  0
  1  2  2  0
  3  2  1  0
  4  3  2  0
  5  6  2  0
  5  4  1  0
  6  1  1  0
  7  5  1  0
  8  7  1  0
  9  8  2  0
 10  9  1  0
 10 15  2  0
 11 12  2  0
 11 10  1  0
 12 13  1  0
 13 16  1  0
 13 14  2  0
 15 14  1  0
 15  7  1  0
 16 20  1  0
 17 16  1  0
 17 18  2  0
 18 19  1  0
 19 21  1  0
 20 19  2  0
 21 25  1  0
 22 21  1  0
 22 23  1  0
 23 24  1  0
 25 24  1  0
  1 26  1  0
  2 27  1  0
  3 28  1  0
  8 29  1  0
 11 30  1  0
 17 31  1  0
 22 32  1  0
 22 33  1  0
 23 34  1  0
 23 35  1  0
 24 36  1  0
 24 37  1  0
 25 38  1  0
 25 39  1  0
M  ISO  8  26  14  27  14  28  14  29  14  30  14  31  14  32  13  33  13
M  ISO  6  34  13  35  13  36  13  37  13  38  13  39  13
M  END
>  <minimizedAffinity>  (1) 
-6.65232182

>  <minimizedRMSD>  (1) 
0.515594482

$$$$
