
     RDKit          3D

 33 37  0  0  0  0  0  0  0  0999 V2000
   40.2660   27.9560   43.1360 C   0  0  0  0  0  0  0  0  0  0  0  0
   39.3790   27.0690   43.7980 C   0  0  0  0  0  0  0  0  0  0  0  0
   37.9920   27.2950   43.6900 C   0  0  0  0  0  0  0  0  0  0  0  0
   37.5790   28.3680   42.9440 N   0  0  0  0  0  0  0  0  0  0  0  0
   38.4510   29.1930   42.3270 C   0  0  0  0  0  0  0  0  0  0  0  0
   39.7990   29.0020   42.4120 N   0  0  0  0  0  0  0  0  0  0  0  0
   37.8840   30.2650   41.5860 N   0  0  0  0  0  0  0  0  0  0  0  0
   36.5700   30.1800   41.2540 C   0  0  0  0  0  0  0  0  0  0  0  0
   36.2770   31.2990   40.5680 N   0  0  0  0  0  0  0  0  0  0  0  0
   37.3440   32.0930   40.4470 C   0  0  0  0  0  0  0  0  0  0  0  0
   37.6860   33.3030   39.8930 C   0  0  0  0  0  0  0  0  0  0  0  0
   38.9370   33.8090   39.9800 N   0  0  0  0  0  0  0  0  0  0  0  0
   39.8840   33.1070   40.6300 C   0  0  0  0  0  0  0  0  0  0  0  0
   39.5880   31.9170   41.1860 N   0  0  0  0  0  0  0  0  0  0  0  0
   38.3480   31.4230   41.0960 C   0  0  0  0  0  0  0  0  0  0  0  0
   41.2240   33.5680   40.7660 N   0  0  0  0  0  0  0  0  0  0  0  0
   41.9180   34.6560   40.3970 C   0  0  0  0  0  0  0  0  0  0  0  0
   43.1890   34.5410   40.8130 N   0  0  0  0  0  0  0  0  0  0  0  0
   43.2870   33.3750   41.4430 C   0  0  0  0  0  0  0  0  0  0  0  0
   42.0800   32.7680   41.4200 N   0  0  0  0  0  0  0  0  0  0  0  0
   44.4520   32.8300   42.0520 N   0  0  0  0  0  0  0  0  0  0  0  0
   44.8360   33.4170   43.2220 C   0  0  0  0  0  0  0  0  0  0  0  0
   45.9500   32.8190   43.7050 N   0  0  0  0  0  0  0  0  0  0  0  0
   46.2490   31.8480   42.8080 C   0  0  0  0  0  0  0  0  0  0  0  0
   45.3330   31.8610   41.8070 N   0  0  0  0  0  0  0  0  0  0  0  0
   41.3511   27.7921   43.2115 H   0  0  0  0  0  0  0  0  0  0  0  0
   39.7657   26.2220   44.3837 H   0  0  0  0  0  0  0  0  0  0  0  0
   37.2668   26.6337   44.1868 H   0  0  0  0  0  0  0  0  0  0  0  0
   35.8811   29.3579   41.4981 H   0  0  0  0  0  0  0  0  0  0  0  0
   36.9156   33.8799   39.3604 H   0  0  0  0  0  0  0  0  0  0  0  0
   41.5080   35.5109   39.8392 H   0  0  0  0  0  0  0  0  0  0  0  0
   44.3145   34.2569   43.7043 H   0  0  0  0  0  0  0  0  0  0  0  0
   47.1017   31.1568   42.8802 H   0  0  0  0  0  0  0  0  0  0  0  0
  1  2  2  0
  3  2  1  0
  4  3  2  0
  5  6  2  0
  5  4  1  0
  6  1  1  0
  7  5  1  0
  8  7  1  0
  9  8  2  0
 10  9  1  0
 10 15  2  0
 11 12  2  0
 11 10  1  0
 12 13  1  0
 13 16  1  0
 13 14  2  0
 15 14  1  0
 15  7  1  0
 16 20  1  0
 17 16  1  0
 17 18  2  0
 18 19  1  0
 19 21  1  0
 20 19  2  0
 21 22  1  0
 22 23  2  0
 24 23  1  0
 25 21  1  0
 25 24  2  0
  1 26  1  0
  2 27  1  0
  3 28  1  0
  8 29  1  0
 11 30  1  0
 17 31  1  0
 22 32  1  0
 24 33  1  0
M  ISO  8  26  14  27  14  28  14  29  14  30  14  31  14  32  14  33  14
M  END
>  <minimizedAffinity>  (1) 
-6.56144571

>  <minimizedRMSD>  (1) 
0.0603547618

$$$$
