
     RDKit          3D

 43 47  0  0  0  0  0  0  0  0999 V2000
   40.4230   28.0190   43.0790 C   0  0  0  0  0  0  0  0  0  0  0  0
   39.6720   27.0430   43.7850 C   0  0  0  0  0  0  0  0  0  0  0  0
   38.2840   27.0640   43.6740 C   0  0  0  0  0  0  0  0  0  0  0  0
   37.7340   28.0360   42.8840 N   0  0  0  0  0  0  0  0  0  0  0  0
   38.4550   28.9470   42.2270 C   0  0  0  0  0  0  0  0  0  0  0  0
   39.8170   28.9590   42.3100 N   0  0  0  0  0  0  0  0  0  0  0  0
   37.7040   29.8800   41.4540 N   0  0  0  0  0  0  0  0  0  0  0  0
   36.4490   29.5810   41.1050 C   0  0  0  0  0  0  0  0  0  0  0  0
   35.9720   30.6260   40.3840 N   0  0  0  0  0  0  0  0  0  0  0  0
   36.9070   31.5800   40.2720 C   0  0  0  0  0  0  0  0  0  0  0  0
   37.0490   32.8220   39.6970 C   0  0  0  0  0  0  0  0  0  0  0  0
   38.1940   33.5320   39.7920 N   0  0  0  0  0  0  0  0  0  0  0  0
   39.2270   33.0030   40.4730 C   0  0  0  0  0  0  0  0  0  0  0  0
   39.1350   31.7910   41.0520 N   0  0  0  0  0  0  0  0  0  0  0  0
   37.9980   31.1030   40.9490 C   0  0  0  0  0  0  0  0  0  0  0  0
   40.4770   33.6860   40.6240 N   0  0  0  0  0  0  0  0  0  0  0  0
   40.9710   34.8780   40.2440 C   0  0  0  0  0  0  0  0  0  0  0  0
   42.2330   34.9930   40.6710 N   0  0  0  0  0  0  0  0  0  0  0  0
   42.5320   33.8590   41.3240 C   0  0  0  0  0  0  0  0  0  0  0  0
   41.4510   33.0550   41.2960 N   0  0  0  0  0  0  0  0  0  0  0  0
   43.8020   33.4690   41.9940 C   0  0  0  0  0  0  0  0  0  0  0  0
   44.3630   34.5770   42.8300 C   0  0  0  0  0  0  0  0  0  0  0  0
   45.5920   34.0770   43.5410 C   0  0  0  0  0  0  0  0  0  0  0  0
   45.8320   32.6090   43.3050 C   0  0  0  0  0  0  0  0  0  0  0  0
   44.6030   31.8310   43.7220 C   0  0  0  0  0  0  0  0  0  0  0  0
   43.4680   32.2480   42.8340 C   0  0  0  0  0  0  0  0  0  0  0  0
   41.5202   28.0134   43.1569 H   0  0  0  0  0  0  0  0  0  0  0  0
   40.1751   26.2871   44.4058 H   0  0  0  0  0  0  0  0  0  0  0  0
   37.6560   26.3296   44.1997 H   0  0  0  0  0  0  0  0  0  0  0  0
   35.9043   28.6589   41.3559 H   0  0  0  0  0  0  0  0  0  0  0  0
   36.2019   33.2508   39.1416 H   0  0  0  0  0  0  0  0  0  0  0  0
   40.4221   35.6399   39.6710 H   0  0  0  0  0  0  0  0  0  0  0  0
   44.5845   33.2467   41.2536 H   0  0  0  0  0  0  0  0  0  0  0  0
   44.6297   35.4274   42.1852 H   0  0  0  0  0  0  0  0  0  0  0  0
   43.6140   34.9045   43.5660 H   0  0  0  0  0  0  0  0  0  0  0  0
   46.4642   34.6407   43.1784 H   0  0  0  0  0  0  0  0  0  0  0  0
   45.4390   34.2235   44.6204 H   0  0  0  0  0  0  0  0  0  0  0  0
   46.0324   32.4359   42.2374 H   0  0  0  0  0  0  0  0  0  0  0  0
   46.6982   32.2763   43.8957 H   0  0  0  0  0  0  0  0  0  0  0  0
   44.7880   30.7525   43.6100 H   0  0  0  0  0  0  0  0  0  0  0  0
   44.3598   32.0357   44.7751 H   0  0  0  0  0  0  0  0  0  0  0  0
   42.5959   32.4807   43.4627 H   0  0  0  0  0  0  0  0  0  0  0  0
   43.2608   31.4159   42.1450 H   0  0  0  0  0  0  0  0  0  0  0  0
  1  2  2  0
  3  2  1  0
  4  3  2  0
  5  6  2  0
  5  4  1  0
  6  1  1  0
  7  5  1  0
  8  7  1  0
  9  8  2  0
 10  9  1  0
 10 15  2  0
 11 12  2  0
 11 10  1  0
 12 13  1  0
 13 16  1  0
 13 14  2  0
 15 14  1  0
 15  7  1  0
 16 20  1  0
 17 16  1  0
 17 18  2  0
 18 19  1  0
 19 21  1  0
 20 19  2  0
 21 22  1  0
 21 26  1  0
 22 23  1  0
 24 23  1  0
 24 25  1  0
 26 25  1  0
  1 27  1  0
  2 28  1  0
  3 29  1  0
  8 30  1  0
 11 31  1  0
 17 32  1  0
 21 33  1  0
 22 34  1  0
 22 35  1  0
 23 36  1  0
 23 37  1  0
 24 38  1  0
 24 39  1  0
 25 40  1  0
 25 41  1  0
 26 42  1  0
 26 43  1  0
M  ISO  8  27  14  28  14  29  14  30  14  31  14  32  14  33  13  34  13
M  ISO  8  35  13  36  13  37  13  38  13  39  13  40  13  41  13  42  13
M  ISO  1  43  13
M  END
>  <minimizedAffinity>  (1) 
-6.54462194

>  <minimizedRMSD>  (1) 
0.910681069

$$$$
