
     RDKit          3D

 37 41  0  0  0  0  0  0  0  0999 V2000
   40.7680   28.2260   43.0560 C   0  0  0  0  0  0  0  0  0  0  0  0
   40.1310   27.1730   43.7580 C   0  0  0  0  0  0  0  0  0  0  0  0
   38.7290   27.0590   43.6630 C   0  0  0  0  0  0  0  0  0  0  0  0
   38.0940   27.9870   42.8930 N   0  0  0  0  0  0  0  0  0  0  0  0
   38.7180   28.9690   42.2410 C   0  0  0  0  0  0  0  0  0  0  0  0
   40.0610   29.1110   42.3080 N   0  0  0  0  0  0  0  0  0  0  0  0
   37.8810   29.8350   41.4910 N   0  0  0  0  0  0  0  0  0  0  0  0
   36.6310   29.4320   41.1750 C   0  0  0  0  0  0  0  0  0  0  0  0
   36.0360   30.4260   40.4620 N   0  0  0  0  0  0  0  0  0  0  0  0
   36.8830   31.4530   40.3170 C   0  0  0  0  0  0  0  0  0  0  0  0
   36.9180   32.6960   39.7400 C   0  0  0  0  0  0  0  0  0  0  0  0
   38.0030   33.5020   39.7970 N   0  0  0  0  0  0  0  0  0  0  0  0
   39.1070   33.0630   40.4540 C   0  0  0  0  0  0  0  0  0  0  0  0
   39.1050   31.8550   41.0270 N   0  0  0  0  0  0  0  0  0  0  0  0
   38.0300   31.0680   40.9650 C   0  0  0  0  0  0  0  0  0  0  0  0
   40.2840   33.8510   40.5580 N   0  0  0  0  0  0  0  0  0  0  0  0
   40.6880   35.0610   40.1260 C   0  0  0  0  0  0  0  0  0  0  0  0
   41.9420   35.2890   40.5420 N   0  0  0  0  0  0  0  0  0  0  0  0
   42.3250   34.2140   41.2390 C   0  0  0  0  0  0  0  0  0  0  0  0
   41.3000   33.3290   41.2460 N   0  0  0  0  0  0  0  0  0  0  0  0
   43.6320   34.0040   41.8950 C   0  0  0  0  0  0  0  0  0  0  0  0
   44.5760   35.0070   41.8130 C   0  0  0  0  0  0  0  0  0  0  0  0
   45.8050   34.8120   42.4300 C   0  0  0  0  0  0  0  0  0  0  0  0
   46.0350   33.6250   43.0970 C   0  0  0  0  0  0  0  0  0  0  0  0
   45.1000   32.6290   43.1780 C   0  0  0  0  0  0  0  0  0  0  0  0
   43.8680   32.8030   42.5710 C   0  0  0  0  0  0  0  0  0  0  0  0
   41.8614   28.3288   43.1186 H   0  0  0  0  0  0  0  0  0  0  0  0
   40.7152   26.4628   44.3615 H   0  0  0  0  0  0  0  0  0  0  0  0
   38.1765   26.2626   44.1832 H   0  0  0  0  0  0  0  0  0  0  0  0
   36.1743   28.4689   41.4466 H   0  0  0  0  0  0  0  0  0  0  0  0
   36.0246   33.0538   39.2072 H   0  0  0  0  0  0  0  0  0  0  0  0
   40.0825   35.7551   39.5246 H   0  0  0  0  0  0  0  0  0  0  0  0
   44.3602   35.9398   41.2713 H   0  0  0  0  0  0  0  0  0  0  0  0
   46.5817   35.5898   42.3880 H   0  0  0  0  0  0  0  0  0  0  0  0
   47.0100   33.4738   43.5833 H   0  0  0  0  0  0  0  0  0  0  0  0
   45.3253   31.6989   43.7203 H   0  0  0  0  0  0  0  0  0  0  0  0
   43.0974   32.0195   42.6191 H   0  0  0  0  0  0  0  0  0  0  0  0
  1  2  2  0
  3  2  1  0
  4  3  2  0
  5  6  2  0
  5  4  1  0
  6  1  1  0
  7  5  1  0
  8  7  1  0
  9  8  2  0
 10  9  1  0
 10 15  2  0
 11 12  2  0
 11 10  1  0
 12 13  1  0
 13 16  1  0
 13 14  2  0
 15 14  1  0
 15  7  1  0
 16 20  1  0
 17 18  2  0
 17 16  1  0
 18 19  1  0
 19 20  2  0
 19 21  1  0
 21 26  1  0
 22 21  2  0
 22 23  1  0
 23 24  2  0
 24 25  1  0
 26 25  2  0
  1 27  1  0
  2 28  1  0
  3 29  1  0
  8 30  1  0
 11 31  1  0
 17 32  1  0
 22 33  1  0
 23 34  1  0
 24 35  1  0
 25 36  1  0
 26 37  1  0
M  ISO  8  27  14  28  14  29  14  30  14  31  14  32  14  33  14  34  14
M  ISO  3  35  14  36  14  37  14
M  END
>  <minimizedAffinity>  (1) 
-6.46737242

>  <minimizedRMSD>  (1) 
1.16986787

$$$$
