
     RDKit          3D

 34 38  0  0  0  0  0  0  0  0999 V2000
   40.3060   27.9430   43.1420 C   0  0  0  0  0  0  0  0  0  0  0  0
   39.4620   27.0110   43.7850 C   0  0  0  0  0  0  0  0  0  0  0  0
   38.0760   27.1540   43.6460 C   0  0  0  0  0  0  0  0  0  0  0  0
   37.6190   28.2010   42.8870 N   0  0  0  0  0  0  0  0  0  0  0  0
   38.4640   29.0720   42.2880 C   0  0  0  0  0  0  0  0  0  0  0  0
   39.8140   28.9660   42.3990 N   0  0  0  0  0  0  0  0  0  0  0  0
   37.8230   30.1000   41.5360 N   0  0  0  0  0  0  0  0  0  0  0  0
   36.5300   29.9540   41.1790 C   0  0  0  0  0  0  0  0  0  0  0  0
   36.1630   31.0470   40.4850 N   0  0  0  0  0  0  0  0  0  0  0  0
   37.1920   31.9020   40.3850 C   0  0  0  0  0  0  0  0  0  0  0  0
   37.4690   33.1280   39.8390 C   0  0  0  0  0  0  0  0  0  0  0  0
   38.6810   33.7060   39.9450 N   0  0  0  0  0  0  0  0  0  0  0  0
   39.6560   33.0660   40.6070 C   0  0  0  0  0  0  0  0  0  0  0  0
   39.4370   31.8560   41.1640 N   0  0  0  0  0  0  0  0  0  0  0  0
   38.2260   31.2900   41.0520 C   0  0  0  0  0  0  0  0  0  0  0  0
   40.9720   33.6050   40.7670 N   0  0  0  0  0  0  0  0  0  0  0  0
   41.6120   34.7240   40.4000 C   0  0  0  0  0  0  0  0  0  0  0  0
   42.8790   34.6980   40.8380 N   0  0  0  0  0  0  0  0  0  0  0  0
   43.0280   33.5450   41.4880 C   0  0  0  0  0  0  0  0  0  0  0  0
   41.8620   32.8710   41.4480 N   0  0  0  0  0  0  0  0  0  0  0  0
   44.2190   33.0310   42.1550 C   0  0  0  0  0  0  0  0  0  0  0  0
   44.7730   33.6920   43.2530 C   0  0  0  0  0  0  0  0  0  0  0  0
   45.8680   32.9370   43.6200 C   0  0  0  0  0  0  0  0  0  0  0  0
   45.9450   31.8590   42.7500 C   0  0  0  0  0  0  0  0  0  0  0  0
   44.9530   31.9810   41.9250 O   0  0  0  0  0  0  0  0  0  0  0  0
   41.3958   27.8362   43.2468 H   0  0  0  0  0  0  0  0  0  0  0  0
   39.8846   26.1898   44.3826 H   0  0  0  0  0  0  0  0  0  0  0  0
   37.3793   26.4523   44.1279 H   0  0  0  0  0  0  0  0  0  0  0  0
   35.8881   29.0922   41.4141 H   0  0  0  0  0  0  0  0  0  0  0  0
   36.6737   33.6587   39.2951 H   0  0  0  0  0  0  0  0  0  0  0  0
   41.1626   35.5454   39.8226 H   0  0  0  0  0  0  0  0  0  0  0  0
   44.4130   34.6180   43.7252 H   0  0  0  0  0  0  0  0  0  0  0  0
   46.5554   33.1510   44.4517 H   0  0  0  0  0  0  0  0  0  0  0  0
   46.6994   31.0585   42.7587 H   0  0  0  0  0  0  0  0  0  0  0  0
  1  2  2  0
  3  2  1  0
  4  3  2  0
  5  6  2  0
  5  4  1  0
  6  1  1  0
  7  5  1  0
  8  7  1  0
  9  8  2  0
 10  9  1  0
 10 15  2  0
 11 12  2  0
 11 10  1  0
 12 13  1  0
 13 16  1  0
 13 14  2  0
 15 14  1  0
 15  7  1  0
 16 20  1  0
 17 16  1  0
 17 18  2  0
 18 19  1  0
 19 21  1  0
 20 19  2  0
 21 22  2  0
 22 23  1  0
 24 23  2  0
 25 21  1  0
 25 24  1  0
  1 26  1  0
  2 27  1  0
  3 28  1  0
  8 29  1  0
 11 30  1  0
 17 31  1  0
 22 32  1  0
 23 33  1  0
 24 34  1  0
M  ISO  8  26  14  27  14  28  14  29  14  30  14  31  14  32  14  33  14
M  ISO  1  34  14
M  END
>  <minimizedAffinity>  (1) 
-6.1918726

>  <minimizedRMSD>  (1) 
0.340004623

$$$$
