
     RDKit          3D

 30 33  0  0  0  0  0  0  0  0999 V2000
   40.3030   27.9490   43.1190 C   0  0  0  0  0  0  0  0  0  0  0  0
   39.4370   27.0750   43.7920 C   0  0  0  0  0  0  0  0  0  0  0  0
   38.0500   27.3020   43.7100 C   0  0  0  0  0  0  0  0  0  0  0  0
   37.6390   28.3750   42.9690 N   0  0  0  0  0  0  0  0  0  0  0  0
   38.4920   29.1890   42.3390 C   0  0  0  0  0  0  0  0  0  0  0  0
   39.8290   28.9960   42.4000 N   0  0  0  0  0  0  0  0  0  0  0  0
   37.9030   30.2660   41.6050 N   0  0  0  0  0  0  0  0  0  0  0  0
   36.5900   30.1950   41.2980 C   0  0  0  0  0  0  0  0  0  0  0  0
   36.2770   31.3140   40.6130 N   0  0  0  0  0  0  0  0  0  0  0  0
   37.3440   32.0960   40.4720 C   0  0  0  0  0  0  0  0  0  0  0  0
   37.6800   33.2980   39.9140 C   0  0  0  0  0  0  0  0  0  0  0  0
   38.9390   33.8040   39.9730 N   0  0  0  0  0  0  0  0  0  0  0  0
   39.8980   33.0920   40.6080 C   0  0  0  0  0  0  0  0  0  0  0  0
   39.6020   31.9140   41.1640 N   0  0  0  0  0  0  0  0  0  0  0  0
   38.3710   31.4220   41.1060 C   0  0  0  0  0  0  0  0  0  0  0  0
   41.2390   33.5520   40.7130 N   0  0  0  0  0  0  0  0  0  0  0  0
   41.9380   34.6160   40.2870 C   0  0  0  0  0  0  0  0  0  0  0  0
   43.2060   34.5240   40.6930 N   0  0  0  0  0  0  0  0  0  0  0  0
   43.3080   33.3880   41.3830 C   0  0  0  0  0  0  0  0  0  0  0  0
   42.0970   32.7810   41.4000 N   0  0  0  0  0  0  0  0  0  0  0  0
   44.5180   32.8270   42.0460 C   0  0  0  0  0  0  0  0  0  0  0  0
   41.3887   27.7816   43.1757 H   0  0  0  0  0  0  0  0  0  0  0  0
   39.8336   26.2289   44.3724 H   0  0  0  0  0  0  0  0  0  0  0  0
   37.3292   26.6455   44.2193 H   0  0  0  0  0  0  0  0  0  0  0  0
   35.9030   29.3763   41.5583 H   0  0  0  0  0  0  0  0  0  0  0  0
   36.9007   33.8776   39.3974 H   0  0  0  0  0  0  0  0  0  0  0  0
   41.5258   35.4431   39.6903 H   0  0  0  0  0  0  0  0  0  0  0  0
   44.3971   32.8831   43.1379 H   0  0  0  0  0  0  0  0  0  0  0  0
   44.6475   31.7770   41.7449 H   0  0  0  0  0  0  0  0  0  0  0  0
   45.4031   33.4066   41.7449 H   0  0  0  0  0  0  0  0  0  0  0  0
  1  2  2  0
  3  2  1  0
  4  3  2  0
  5  6  2  0
  5  4  1  0
  6  1  1  0
  7  5  1  0
  8  7  1  0
  9  8  2  0
 10  9  1  0
 10 15  2  0
 11 12  2  0
 11 10  1  0
 12 13  1  0
 13 16  1  0
 13 14  2  0
 15 14  1  0
 15  7  1  0
 16 20  1  0
 17 18  2  0
 17 16  1  0
 18 19  1  0
 19 20  2  0
 19 21  1  0
  1 22  1  0
  2 23  1  0
  3 24  1  0
  8 25  1  0
 11 26  1  0
 17 27  1  0
 21 28  1  0
 21 29  1  0
 21 30  1  0
M  ISO  8  22  14  23  14  24  14  25  14  26  14  27  14  28   8  29   8
M  ISO  1  30   8
M  END
>  <minimizedAffinity>  (1) 
-5.99822903

>  <minimizedRMSD>  (1) 
0.05310582

$$$$
