
     RDKit          3D

 34 38  0  0  0  0  0  0  0  0999 V2000
   40.2260   27.9290   43.1710 C   0  0  0  0  0  0  0  0  0  0  0  0
   39.3470   27.0380   43.8040 C   0  0  0  0  0  0  0  0  0  0  0  0
   37.9820   27.2650   43.6630 C   0  0  0  0  0  0  0  0  0  0  0  0
   37.5870   28.3420   42.9190 N   0  0  0  0  0  0  0  0  0  0  0  0
   38.4490   29.1740   42.3280 C   0  0  0  0  0  0  0  0  0  0  0  0
   39.7890   28.9870   42.4410 N   0  0  0  0  0  0  0  0  0  0  0  0
   37.8840   30.2520   41.5840 N   0  0  0  0  0  0  0  0  0  0  0  0
   36.5850   30.1790   41.2400 C   0  0  0  0  0  0  0  0  0  0  0  0
   36.2920   31.3010   40.5530 N   0  0  0  0  0  0  0  0  0  0  0  0
   37.3650   32.0850   40.4490 C   0  0  0  0  0  0  0  0  0  0  0  0
   37.7180   33.3000   39.9040 C   0  0  0  0  0  0  0  0  0  0  0  0
   38.9670   33.7980   40.0050 N   0  0  0  0  0  0  0  0  0  0  0  0
   39.9060   33.0890   40.6620 C   0  0  0  0  0  0  0  0  0  0  0  0
   39.5990   31.8970   41.2090 N   0  0  0  0  0  0  0  0  0  0  0  0
   38.3590   31.4130   41.1020 C   0  0  0  0  0  0  0  0  0  0  0  0
   41.2470   33.5370   40.8160 N   0  0  0  0  0  0  0  0  0  0  0  0
   41.9570   34.6090   40.4080 C   0  0  0  0  0  0  0  0  0  0  0  0
   43.2150   34.5170   40.8550 N   0  0  0  0  0  0  0  0  0  0  0  0
   43.2890   33.3800   41.5470 C   0  0  0  0  0  0  0  0  0  0  0  0
   42.0840   32.7660   41.5320 N   0  0  0  0  0  0  0  0  0  0  0  0
   44.4840   32.8280   42.2450 C   0  0  0  0  0  0  0  0  0  0  0  0
   44.9460   33.4480   43.5210 C   0  0  0  0  0  0  0  0  0  0  0  0
   44.2660   32.0470   43.5380 C   0  0  0  0  0  0  0  0  0  0  0  0
   41.3092   27.7645   43.2696 H   0  0  0  0  0  0  0  0  0  0  0  0
   39.7244   26.1884   44.3921 H   0  0  0  0  0  0  0  0  0  0  0  0
   37.2441   26.5995   44.1348 H   0  0  0  0  0  0  0  0  0  0  0  0
   35.8922   29.3576   41.4754 H   0  0  0  0  0  0  0  0  0  0  0  0
   36.9550   33.8837   39.3682 H   0  0  0  0  0  0  0  0  0  0  0  0
   41.5611   35.4351   39.7990 H   0  0  0  0  0  0  0  0  0  0  0  0
   44.9779   32.6147   41.2855 H   0  0  0  0  0  0  0  0  0  0  0  0
   46.0221   33.5396   43.7299 H   0  0  0  0  0  0  0  0  0  0  0  0
   44.7655   34.4063   44.0301 H   0  0  0  0  0  0  0  0  0  0  0  0
   43.2533   31.9256   43.9500 H   0  0  0  0  0  0  0  0  0  0  0  0
   44.5286   31.0457   43.9101 H   0  0  0  0  0  0  0  0  0  0  0  0
  1  2  2  0
  3  2  1  0
  4  3  2  0
  5  6  2  0
  5  4  1  0
  6  1  1  0
  7  5  1  0
  8  7  1  0
  9  8  2  0
 10  9  1  0
 10 15  2  0
 11 12  2  0
 11 10  1  0
 12 13  1  0
 13 16  1  0
 13 14  2  0
 15 14  1  0
 15  7  1  0
 16 20  1  0
 17 16  1  0
 17 18  2  0
 18 19  1  0
 19 21  1  0
 20 19  2  0
 21 22  1  0
 21 23  1  0
 22 23  1  0
  1 24  1  0
  2 25  1  0
  3 26  1  0
  8 27  1  0
 11 28  1  0
 17 29  1  0
 21 30  1  0
 22 31  1  0
 22 32  1  0
 23 33  1  0
 23 34  1  0
M  ISO  8  24  14  25  14  26  14  27  14  28  14  29  14  30  13  31  13
M  ISO  3  32  13  33  13  34  13
M  END
>  <minimizedAffinity>  (1) 
-6.07975435

>  <minimizedRMSD>  (1) 
0.0786838308

$$$$
