
     RDKit          3D

 41 46  0  0  1  0  0  0  0  0999 V2000
   42.0410   28.4020   43.1180 C   0  0  0  0  0  0  0  0  0  0  0  0
   42.1200   27.3010   43.9740 C   0  0  0  0  0  0  0  0  0  0  0  0
   40.9430   26.6400   44.2630 C   0  0  0  0  0  0  0  0  0  0  0  0
   39.7930   27.1010   43.6960 N   0  0  0  0  0  0  0  0  0  0  0  0
   39.7410   28.1620   42.8760 C   0  0  0  0  0  0  0  0  0  0  0  0
   40.8710   28.8280   42.5760 N   0  0  0  0  0  0  0  0  0  0  0  0
   38.4700   28.5250   42.3600 N   0  0  0  0  0  0  0  0  0  0  0  0
   37.4730   27.6310   42.4400 C   0  0  0  0  0  0  0  0  0  0  0  0
   36.3920   28.1960   41.8940 N   0  0  0  0  0  0  0  0  0  0  0  0
   36.6580   29.4280   41.4630 C   0  0  0  0  0  0  0  0  0  0  0  0
   36.0210   30.4850   40.8400 C   0  0  0  0  0  0  0  0  0  0  0  0
   36.6650   31.6350   40.5490 N   0  0  0  0  0  0  0  0  0  0  0  0
   37.9690   31.7650   40.8730 C   0  0  0  0  0  0  0  0  0  0  0  0
   38.6220   30.7590   41.4800 N   0  0  0  0  0  0  0  0  0  0  0  0
   37.9770   29.6230   41.7640 C   0  0  0  0  0  0  0  0  0  0  0  0
   38.7270   32.9350   40.5880 N   0  0  0  0  0  0  0  0  0  0  0  0
   38.4870   34.1020   39.9620 C   0  0  0  0  0  0  0  0  0  0  0  0
   39.5920   34.8510   39.9710 N   0  0  0  0  0  0  0  0  0  0  0  0
   40.5170   34.1500   40.6030 C   0  0  0  0  0  0  0  0  0  0  0  0
   39.9960   32.9610   40.9910 N   0  0  0  0  0  0  0  0  0  0  0  0
   41.9260   34.5400   40.8560 C   0  0  1  0  0  0  0  0  0  0  0  0
   42.8860   33.5320   41.4130 C   0  0  0  0  0  0  0  0  0  0  0  0
   43.0070   34.0570   39.9440 C   0  0  1  0  0  0  0  0  0  0  0  0
   42.7900   32.9960   38.9710 C   0  0  0  0  0  0  0  0  0  0  0  0
   43.0820   31.7100   39.1280 C   0  0  0  0  0  0  0  0  0  0  0  0
   42.8210   30.8110   38.1320 C   0  0  0  0  0  0  0  0  0  0  0  0
   42.2190   31.3800   36.9400 C   0  0  0  0  0  0  0  0  0  0  0  0
   42.0820   33.2220   37.3830 S   0  0  0  0  0  0  0  0  0  0  0  0
   42.9648   28.9465   42.8728 H   0  0  0  0  0  0  0  0  0  0  0  0
   43.0801   26.9743   44.4001 H   0  0  0  0  0  0  0  0  0  0  0  0
   40.9338   25.7665   44.9316 H   0  0  0  0  0  0  0  0  0  0  0  0
   37.5339   26.6220   42.8737 H   0  0  0  0  0  0  0  0  0  0  0  0
   34.9583   30.3860   40.5737 H   0  0  0  0  0  0  0  0  0  0  0  0
   37.5268   34.3941   39.5117 H   0  0  0  0  0  0  0  0  0  0  0  0
   41.5976   35.5384   41.1807 H   0  0  0  0  0  0  0  0  0  0  0  0
   43.6252   33.8301   42.1711 H   0  0  0  0  0  0  0  0  0  0  0  0
   42.8019   32.5455   41.8922 H   0  0  0  0  0  0  0  0  0  0  0  0
   43.7070   34.6033   39.2948 H   0  0  0  0  0  0  0  0  0  0  0  0
   43.5379   31.3653   40.0678 H   0  0  0  0  0  0  0  0  0  0  0  0
   43.0495   29.7391   38.2265 H   0  0  0  0  0  0  0  0  0  0  0  0
   41.9176   30.8717   36.0123 H   0  0  0  0  0  0  0  0  0  0  0  0
  1  2  2  0
  2  3  1  0
  4  3  2  0
  5  4  1  0
  6  5  2  0
  6  1  1  0
  7  8  1  0
  7  5  1  0
  9  8  2  0
 10 15  2  0
 10  9  1  0
 11 10  1  0
 12 11  2  0
 12 13  1  0
 13 14  2  0
 14 15  1  0
 15  7  1  0
 16 13  1  0
 16 20  1  0
 17 18  2  0
 17 16  1  0
 18 19  1  0
 19 21  1  0
 19 20  2  0
 21 22  1  0
 23 21  1  0
 23 22  1  0
 24 25  2  0
 24 23  1  0
 26 25  1  0
 27 28  1  0
 27 26  2  0
 28 24  1  0
  1 29  1  0
  2 30  1  0
  3 31  1  0
  8 32  1  0
 11 33  1  0
 17 34  1  0
 21 35  1  1
 22 36  1  0
 22 37  1  0
 23 38  1  1
 25 39  1  0
 26 40  1  0
 27 41  1  0
M  ISO  8  29  14  30  14  31  14  32  14  33  14  34  14  35  13  36  13
M  ISO  5  37  13  38  13  39  14  40  14  41  14
M  END
>  <minimizedAffinity>  (1) 
-6.79714632

>  <minimizedRMSD>  (1) 
3.92870331

$$$$
