
     RDKit          3D

 37 41  0  0  1  0  0  0  0  0999 V2000
   40.8790   28.2060   42.9650 C   0  0  0  0  0  0  0  0  0  0  0  0
   40.2670   27.2230   43.7350 C   0  0  0  0  0  0  0  0  0  0  0  0
   38.8820   27.2220   43.7690 C   0  0  0  0  0  0  0  0  0  0  0  0
   38.2160   28.1670   43.0570 N   0  0  0  0  0  0  0  0  0  0  0  0
   38.8340   29.1060   42.3200 C   0  0  0  0  0  0  0  0  0  0  0  0
   40.1790   29.1360   42.2650 N   0  0  0  0  0  0  0  0  0  0  0  0
   38.0080   30.0290   41.6330 N   0  0  0  0  0  0  0  0  0  0  0  0
   36.6970   29.7340   41.4790 C   0  0  0  0  0  0  0  0  0  0  0  0
   36.1380   30.7500   40.8090 N   0  0  0  0  0  0  0  0  0  0  0  0
   37.0420   31.6920   40.5250 C   0  0  0  0  0  0  0  0  0  0  0  0
   37.1160   32.9160   39.8950 C   0  0  0  0  0  0  0  0  0  0  0  0
   38.2710   33.6090   39.7990 N   0  0  0  0  0  0  0  0  0  0  0  0
   39.3850   33.0970   40.3320 C   0  0  0  0  0  0  0  0  0  0  0  0
   39.3590   31.9000   40.9610 N   0  0  0  0  0  0  0  0  0  0  0  0
   38.2180   31.2220   41.0520 C   0  0  0  0  0  0  0  0  0  0  0  0
   40.6450   33.7450   40.2690 N   0  0  0  0  0  0  0  0  0  0  0  0
   41.1400   34.8530   39.6750 C   0  0  0  0  0  0  0  0  0  0  0  0
   42.4410   34.9910   39.9470 N   0  0  0  0  0  0  0  0  0  0  0  0
   42.7700   33.9670   40.7160 C   0  0  0  0  0  0  0  0  0  0  0  0
   41.6710   33.1870   40.9250 N   0  0  0  0  0  0  0  0  0  0  0  0
   44.1140   33.6570   41.2690 C   0  0  1  0  0  0  0  0  0  0  0  0
   45.2450   34.6230   41.0130 C   0  0  0  0  0  0  0  0  0  0  0  0
   44.6270   34.4270   42.4430 C   0  0  1  0  0  0  0  0  0  0  0  0
   43.9790   35.6480   42.9280 C   0  0  0  0  0  0  0  0  0  0  0  0
   44.4450   36.7260   43.4360 O   0  0  0  0  0  0  0  0  0  0  0  0
   42.5950   35.7740   42.8750 O   0  0  0  0  0  0  0  0  0  0  0  0
   41.9778   28.2315   42.9209 H   0  0  0  0  0  0  0  0  0  0  0  0
   40.8561   26.4796   44.2921 H   0  0  0  0  0  0  0  0  0  0  0  0
   38.3344   26.4727   44.3594 H   0  0  0  0  0  0  0  0  0  0  0  0
   36.1854   28.8285   41.8372 H   0  0  0  0  0  0  0  0  0  0  0  0
   36.2025   33.3429   39.4553 H   0  0  0  0  0  0  0  0  0  0  0  0
   40.5533   35.5455   39.0536 H   0  0  0  0  0  0  0  0  0  0  0  0
   43.9660   32.5840   41.0773 H   0  0  0  0  0  0  0  0  0  0  0  0
   46.2547   34.2489   40.7883 H   0  0  0  0  0  0  0  0  0  0  0  0
   45.4183   35.4742   40.3381 H   0  0  0  0  0  0  0  0  0  0  0  0
   44.9168   34.0993   43.4523 H   0  0  0  0  0  0  0  0  0  0  0  0
   42.1603   36.6005   43.2036 H   0  0  0  0  0  0  0  0  0  0  0  0
  1  2  2  0
  2  3  1  0
  4  3  2  0
  5  4  1  0
  6  5  2  0
  6  1  1  0
  7  5  1  0
  8  7  1  0
  9  8  2  0
 10  9  1  0
 10 15  2  0
 11 10  1  0
 12 11  2  0
 12 13  1  0
 13 14  2  0
 14 15  1  0
 15  7  1  0
 16 13  1  0
 16 20  1  0
 17 18  2  0
 17 16  1  0
 18 19  1  0
 19 20  2  0
 19 21  1  0
 21 23  1  0
 22 21  1  0
 22 23  1  0
 23 24  1  0
 24 25  2  0
 26 24  1  0
  1 27  1  0
  2 28  1  0
  3 29  1  0
  8 30  1  0
 11 31  1  0
 17 32  1  0
 21 33  1  1
 22 34  1  0
 22 35  1  0
 23 36  1  1
 26 37  1  0
M  ISO  8  27  14  28  14  29  14  30  14  31  14  32  14  33  13  34  13
M  ISO  3  35  13  36  13  37   3
M  END
>  <minimizedAffinity>  (1) 
-6.79477739

>  <minimizedRMSD>  (1) 
1.86235046

$$$$
