
     RDKit          3D

 48 53  0  0  1  0  0  0  0  0999 V2000
   40.8670   27.8210   42.4500 C   0  0  0  0  0  0  0  0  0  0  0  0
   40.2610   26.9900   43.4200 C   0  0  0  0  0  0  0  0  0  0  0  0
   38.9290   27.2120   43.7320 C   0  0  0  0  0  0  0  0  0  0  0  0
   38.2900   28.2210   43.0790 N   0  0  0  0  0  0  0  0  0  0  0  0
   38.8920   28.9980   42.1630 C   0  0  0  0  0  0  0  0  0  0  0  0
   40.1930   28.8210   41.8220 N   0  0  0  0  0  0  0  0  0  0  0  0
   38.0830   30.0090   41.5700 N   0  0  0  0  0  0  0  0  0  0  0  0
   36.7430   29.9050   41.6620 C   0  0  0  0  0  0  0  0  0  0  0  0
   36.2090   30.9610   41.0340 N   0  0  0  0  0  0  0  0  0  0  0  0
   37.1690   31.7430   40.5380 C   0  0  0  0  0  0  0  0  0  0  0  0
   37.2860   32.9120   39.8230 C   0  0  0  0  0  0  0  0  0  0  0  0
   38.4880   33.4270   39.4800 N   0  0  0  0  0  0  0  0  0  0  0  0
   39.6150   32.7810   39.8480 C   0  0  0  0  0  0  0  0  0  0  0  0
   39.5330   31.6320   40.5500 N   0  0  0  0  0  0  0  0  0  0  0  0
   38.3410   31.1380   40.8800 C   0  0  0  0  0  0  0  0  0  0  0  0
   40.9110   33.2410   39.5210 N   0  0  0  0  0  0  0  0  0  0  0  0
   41.4250   34.2800   38.8330 C   0  0  0  0  0  0  0  0  0  0  0  0
   42.7520   34.2190   38.8320 N   0  0  0  0  0  0  0  0  0  0  0  0
   43.0810   33.1380   39.5240 C   0  0  0  0  0  0  0  0  0  0  0  0
   41.9560   32.5350   39.9490 N   0  0  0  0  0  0  0  0  0  0  0  0
   44.4420   32.6050   39.8130 C   0  0  1  0  0  0  0  0  0  0  0  0
   45.6380   33.4780   39.5440 C   0  0  0  0  0  0  0  0  0  0  0  0
   45.2100   33.1300   40.9970 C   0  0  1  0  0  0  0  0  0  0  0  0
   44.8680   34.2420   41.7800 N   0  0  0  0  0  0  0  0  0  0  0  0
   43.6410   34.3250   42.4560 C   0  0  0  0  0  0  0  0  0  0  0  0
   43.3050   35.8220   42.5780 C   0  0  0  0  0  0  0  0  0  0  0  0
   44.4550   36.5250   43.1240 N   0  0  0  0  0  0  0  0  0  0  0  0
   45.4730   35.6680   43.6480 C   0  0  0  0  0  0  0  0  0  0  0  0
   45.9410   34.5960   42.6810 C   0  0  0  0  0  0  0  0  0  0  0  0
   41.9233   27.6522   42.1937 H   0  0  0  0  0  0  0  0  0  0  0  0
   40.8311   26.1891   43.9136 H   0  0  0  0  0  0  0  0  0  0  0  0
   38.4077   26.5958   44.4794 H   0  0  0  0  0  0  0  0  0  0  0  0
   36.1874   29.0983   42.1626 H   0  0  0  0  0  0  0  0  0  0  0  0
   36.3725   33.4449   39.5206 H   0  0  0  0  0  0  0  0  0  0  0  0
   40.8310   35.0654   38.3429 H   0  0  0  0  0  0  0  0  0  0  0  0
   44.1361   31.5991   39.4896 H   0  0  0  0  0  0  0  0  0  0  0  0
   46.5549   33.0439   39.1187 H   0  0  0  0  0  0  0  0  0  0  0  0
   45.8210   34.4054   38.9815 H   0  0  0  0  0  0  0  0  0  0  0  0
   45.5797   32.6138   41.8953 H   0  0  0  0  0  0  0  0  0  0  0  0
   42.8574   33.8057   41.8848 H   0  0  0  0  0  0  0  0  0  0  0  0
   43.7016   33.8506   43.4466 H   0  0  0  0  0  0  0  0  0  0  0  0
   43.0632   36.2274   41.5844 H   0  0  0  0  0  0  0  0  0  0  0  0
   42.4394   35.9544   43.2438 H   0  0  0  0  0  0  0  0  0  0  0  0
   44.8692   37.0973   42.3745 H   0  0  0  0  0  0  0  0  0  0  0  0
   46.3393   36.2883   43.9214 H   0  0  0  0  0  0  0  0  0  0  0  0
   45.0340   35.1460   44.5110 H   0  0  0  0  0  0  0  0  0  0  0  0
   46.2508   33.7049   43.2467 H   0  0  0  0  0  0  0  0  0  0  0  0
   46.7905   34.9811   42.0979 H   0  0  0  0  0  0  0  0  0  0  0  0
  1  2  2  0
  2  3  1  0
  4  3  2  0
  5  4  1  0
  6  5  2  0
  6  1  1  0
  7  8  1  0
  7  5  1  0
  9  8  2  0
 10 15  2  0
 10  9  1  0
 11 10  1  0
 12 11  2  0
 12 13  1  0
 13 14  2  0
 14 15  1  0
 15  7  1  0
 16 13  1  0
 16 20  1  0
 17 16  1  0
 18 17  2  0
 18 19  1  0
 19 21  1  0
 19 20  2  0
 21 23  1  0
 22 21  1  0
 22 23  1  0
 23 24  1  0
 24 25  1  0
 24 29  1  0
 25 26  1  0
 26 27  1  0
 27 28  1  0
 29 28  1  0
  1 30  1  0
  2 31  1  0
  3 32  1  0
  8 33  1  0
 11 34  1  0
 17 35  1  0
 21 36  1  6
 22 37  1  0
 22 38  1  0
 23 39  1  1
 25 40  1  0
 25 41  1  0
 26 42  1  0
 26 43  1  0
 27 44  1  0
 28 45  1  0
 28 46  1  0
 29 47  1  0
 29 48  1  0
M  ISO  8  30  14  31  14  32  14  33  14  34  14  35  14  36  13  37  13
M  ISO  8  38  13  39  13  40  13  41  13  42  13  43  13  44   5  45  13
M  ISO  3  46  13  47  13  48  13
M  END
>  <minimizedAffinity>  (1) 
-6.77476788

>  <minimizedRMSD>  (1) 
2.67443514

$$$$
