
     RDKit          3D

 41 46  0  0  1  0  0  0  0  0999 V2000
   42.0520   28.4040   43.0480 C   0  0  0  0  0  0  0  0  0  0  0  0
   42.1440   27.3010   43.9060 C   0  0  0  0  0  0  0  0  0  0  0  0
   40.9770   26.6200   44.2210 C   0  0  0  0  0  0  0  0  0  0  0  0
   39.8240   27.0770   43.6680 N   0  0  0  0  0  0  0  0  0  0  0  0
   39.7470   28.1320   42.8500 C   0  0  0  0  0  0  0  0  0  0  0  0
   40.8680   28.8080   42.5320 N   0  0  0  0  0  0  0  0  0  0  0  0
   38.4610   28.4740   42.3640 N   0  0  0  0  0  0  0  0  0  0  0  0
   37.4630   27.5760   42.4750 C   0  0  0  0  0  0  0  0  0  0  0  0
   36.3650   28.1340   41.9510 N   0  0  0  0  0  0  0  0  0  0  0  0
   36.6130   29.3650   41.5030 C   0  0  0  0  0  0  0  0  0  0  0  0
   35.9630   30.4120   40.8920 C   0  0  0  0  0  0  0  0  0  0  0  0
   36.5900   31.5600   40.5780 N   0  0  0  0  0  0  0  0  0  0  0  0
   37.8970   31.7080   40.8610 C   0  0  0  0  0  0  0  0  0  0  0  0
   38.5670   30.7070   41.4580 N   0  0  0  0  0  0  0  0  0  0  0  0
   37.9490   29.5650   41.7730 C   0  0  0  0  0  0  0  0  0  0  0  0
   38.6380   32.8830   40.5550 N   0  0  0  0  0  0  0  0  0  0  0  0
   38.3810   34.0400   39.9170 C   0  0  0  0  0  0  0  0  0  0  0  0
   39.4780   34.8080   39.9120 N   0  0  0  0  0  0  0  0  0  0  0  0
   40.4130   34.1250   40.5460 C   0  0  0  0  0  0  0  0  0  0  0  0
   39.9090   32.9280   40.9520 N   0  0  0  0  0  0  0  0  0  0  0  0
   41.8170   34.5400   40.7910 C   0  0  1  0  0  0  0  0  0  0  0  0
   42.8410   33.5140   41.1650 C   0  0  0  0  0  0  0  0  0  0  0  0
   42.8700   34.2200   39.7730 C   0  0  1  0  0  0  0  0  0  0  0  0
   42.6060   33.2580   38.6720 C   0  0  0  0  0  0  0  0  0  0  0  0
   43.5380   32.2610   38.3520 C   0  0  0  0  0  0  0  0  0  0  0  0
   42.9850   31.5500   37.2960 C   0  0  0  0  0  0  0  0  0  0  0  0
   41.7490   32.1520   37.0300 C   0  0  0  0  0  0  0  0  0  0  0  0
   41.5910   33.1520   37.8800 O   0  0  0  0  0  0  0  0  0  0  0  0
   42.9664   28.9567   42.7866 H   0  0  0  0  0  0  0  0  0  0  0  0
   43.1133   26.9838   44.3182 H   0  0  0  0  0  0  0  0  0  0  0  0
   40.9854   25.7470   44.8902 H   0  0  0  0  0  0  0  0  0  0  0  0
   37.5368   26.5704   42.9148 H   0  0  0  0  0  0  0  0  0  0  0  0
   34.8946   30.3070   40.6521 H   0  0  0  0  0  0  0  0  0  0  0  0
   37.4151   34.3135   39.4673 H   0  0  0  0  0  0  0  0  0  0  0  0
   41.4687   35.4716   41.2608 H   0  0  0  0  0  0  0  0  0  0  0  0
   43.6072   33.7459   41.9195 H   0  0  0  0  0  0  0  0  0  0  0  0
   42.8170   32.4721   41.5171 H   0  0  0  0  0  0  0  0  0  0  0  0
   43.5245   34.8655   39.1688 H   0  0  0  0  0  0  0  0  0  0  0  0
   44.5081   32.0795   38.8378 H   0  0  0  0  0  0  0  0  0  0  0  0
   43.4277   30.6888   36.7742 H   0  0  0  0  0  0  0  0  0  0  0  0
   41.0351   31.8465   36.2508 H   0  0  0  0  0  0  0  0  0  0  0  0
  1  2  2  0
  2  3  1  0
  4  3  2  0
  5  4  1  0
  6  5  2  0
  6  1  1  0
  7  8  1  0
  7  5  1  0
  9  8  2  0
 10 15  2  0
 10  9  1  0
 11 10  1  0
 12 13  1  0
 12 11  2  0
 13 14  2  0
 14 15  1  0
 15  7  1  0
 16 13  1  0
 16 20  1  0
 17 16  1  0
 18 17  2  0
 18 19  1  0
 19 21  1  0
 19 20  2  0
 21 22  1  0
 23 21  1  0
 23 22  1  0
 24 23  1  0
 25 24  2  0
 26 25  1  0
 27 26  2  0
 27 28  1  0
 28 24  1  0
  1 29  1  0
  2 30  1  0
  3 31  1  0
  8 32  1  0
 11 33  1  0
 17 34  1  0
 21 35  1  1
 22 36  1  0
 22 37  1  0
 23 38  1  6
 25 39  1  0
 26 40  1  0
 27 41  1  0
M  ISO  8  29  14  30  14  31  14  32  14  33  14  34  14  35  13  36  13
M  ISO  5  37  13  38  13  39  14  40  14  41  14
M  END
>  <minimizedAffinity>  (1) 
-6.75008631

>  <minimizedRMSD>  (1) 
4.03650999

$$$$
