
     RDKit          3D

 36 40  0  0  1  0  0  0  0  0999 V2000
   42.1700   28.9000   43.0330 C   0  0  0  0  0  0  0  0  0  0  0  0
   42.4870   27.8710   43.9250 C   0  0  0  0  0  0  0  0  0  0  0  0
   41.4730   27.0020   44.2790 C   0  0  0  0  0  0  0  0  0  0  0  0
   40.2440   27.2070   43.7390 N   0  0  0  0  0  0  0  0  0  0  0  0
   39.9650   28.1890   42.8940 C   0  0  0  0  0  0  0  0  0  0  0  0
   40.9260   29.0620   42.5190 N   0  0  0  0  0  0  0  0  0  0  0  0
   38.6170   28.2760   42.4050 N   0  0  0  0  0  0  0  0  0  0  0  0
   37.8210   27.2020   42.5520 C   0  0  0  0  0  0  0  0  0  0  0  0
   36.6310   27.5230   42.0230 N   0  0  0  0  0  0  0  0  0  0  0  0
   36.6470   28.7620   41.5470 C   0  0  0  0  0  0  0  0  0  0  0  0
   35.7950   29.6340   40.9150 C   0  0  0  0  0  0  0  0  0  0  0  0
   36.1780   30.8860   40.5550 N   0  0  0  0  0  0  0  0  0  0  0  0
   37.4380   31.2890   40.8260 C   0  0  0  0  0  0  0  0  0  0  0  0
   38.3010   30.4570   41.4460 N   0  0  0  0  0  0  0  0  0  0  0  0
   37.9070   29.2290   41.7920 C   0  0  0  0  0  0  0  0  0  0  0  0
   37.9340   32.5690   40.4780 N   0  0  0  0  0  0  0  0  0  0  0  0
   37.4470   33.6360   39.8130 C   0  0  0  0  0  0  0  0  0  0  0  0
   38.3750   34.5950   39.7630 N   0  0  0  0  0  0  0  0  0  0  0  0
   39.4360   34.1310   40.3960 C   0  0  0  0  0  0  0  0  0  0  0  0
   39.1780   32.8750   40.8450 N   0  0  0  0  0  0  0  0  0  0  0  0
   40.7370   34.8210   40.5880 C   0  0  1  0  0  0  0  0  0  0  0  0
   41.9730   33.9980   40.8440 C   0  0  0  0  0  0  0  0  0  0  0  0
   41.7670   34.7650   39.4900 C   0  0  1  0  0  0  0  0  0  0  0  0
   41.5230   33.8380   38.3380 C   0  0  0  0  0  0  0  0  0  0  0  0
   41.9560   33.4350   37.2530 O   0  0  0  0  0  0  0  0  0  0  0  0
   42.9605   29.6053   42.7369 H   0  0  0  0  0  0  0  0  0  0  0  0
   43.5038   27.7578   44.3290 H   0  0  0  0  0  0  0  0  0  0  0  0
   41.6553   26.1707   44.9759 H   0  0  0  0  0  0  0  0  0  0  0  0
   38.0938   26.2433   43.0173 H   0  0  0  0  0  0  0  0  0  0  0  0
   34.7683   29.3075   40.6930 H   0  0  0  0  0  0  0  0  0  0  0  0
   36.4391   33.7059   39.3780 H   0  0  0  0  0  0  0  0  0  0  0  0
   40.2444   35.6431   41.1279 H   0  0  0  0  0  0  0  0  0  0  0  0
   42.7279   34.3423   41.5663 H   0  0  0  0  0  0  0  0  0  0  0  0
   42.1779   32.9570   41.1343 H   0  0  0  0  0  0  0  0  0  0  0  0
   42.2821   35.5355   38.8976 H   0  0  0  0  0  0  0  0  0  0  0  0
   40.5832   33.3025   38.5382 H   0  0  0  0  0  0  0  0  0  0  0  0
  1  2  2  0
  2  3  1  0
  4  3  2  0
  5  4  1  0
  6  5  2  0
  6  1  1  0
  7  8  1  0
  7  5  1  0
  9  8  2  0
 10 15  2  0
 10  9  1  0
 11 10  1  0
 12 13  1  0
 12 11  2  0
 13 14  2  0
 14 15  1  0
 15  7  1  0
 16 13  1  0
 16 20  1  0
 17 16  1  0
 18 17  2  0
 18 19  1  0
 19 21  1  0
 19 20  2  0
 21 22  1  0
 23 21  1  0
 23 22  1  0
 24 23  1  0
 25 24  2  0
  1 26  1  0
  2 27  1  0
  3 28  1  0
  8 29  1  0
 11 30  1  0
 17 31  1  0
 21 32  1  1
 22 33  1  0
 22 34  1  0
 23 35  1  6
 24 36  1  0
M  ISO  8  26  14  27  14  28  14  29  14  30  14  31  14  32  13  33  13
M  ISO  3  34  13  35  13  36   6
M  END
>  <minimizedAffinity>  (1) 
-6.43182802

>  <minimizedRMSD>  (1) 
3.90149498

$$$$
