
     RDKit          3D

 48 52  0  0  1  0  0  0  0  0999 V2000
   37.1000   29.8040   39.1770 C   0  0  1  0  0  0  0  0  0  0  0  0
   35.9760   29.5540   38.1360 C   0  0  0  0  0  0  0  0  0  0  0  0
   34.7970   29.2780   39.0700 C   0  0  0  0  0  0  0  0  0  0  0  0
   35.3870   28.8330   40.3890 C   0  0  0  0  0  0  0  0  0  0  0  0
   36.8670   28.6710   40.1040 C   0  0  2  0  0  0  0  0  0  0  0  0
   40.5750   34.0020   39.3290 C   0  0  0  0  0  0  0  0  0  0  0  0
   39.6810   34.4640   40.3330 C   0  0  0  0  0  0  0  0  0  0  0  0
   38.6790   33.6130   40.7320 C   0  0  0  0  0  0  0  0  0  0  0  0
   38.6020   32.3890   40.1460 N   0  0  0  0  0  0  0  0  0  0  0  0
   39.4260   31.9530   39.2150 C   0  0  0  0  0  0  0  0  0  0  0  0
   40.4290   32.7740   38.8000 N   0  0  0  0  0  0  0  0  0  0  0  0
   39.3780   30.6920   38.5680 N   0  0  0  0  0  0  0  0  0  0  0  0
   40.4480   30.3300   37.8720 N   0  0  0  0  0  0  0  0  0  0  0  0
   40.1950   29.0970   37.3140 C   0  0  0  0  0  0  0  0  0  0  0  0
   38.9020   28.7490   37.7270 C   0  0  0  0  0  0  0  0  0  0  0  0
   38.4070   29.7880   38.5280 C   0  0  0  0  0  0  0  0  0  0  0  0
   37.5580   28.7670   41.3620 N   0  0  0  0  0  0  0  0  0  0  0  0
   37.7750   29.8190   42.1110 N   0  0  0  0  0  0  0  0  0  0  0  0
   38.4650   29.5140   43.2280 C   0  0  0  0  0  0  0  0  0  0  0  0
   38.6910   28.1470   43.1560 C   0  0  0  0  0  0  0  0  0  0  0  0
   38.1220   27.7030   41.9930 C   0  0  0  0  0  0  0  0  0  0  0  0
   38.1890   26.3320   41.6370 N   0  0  0  0  0  0  0  0  0  0  0  0
   37.2250   25.5660   42.2000 C   0  0  0  0  0  0  0  0  0  0  0  0
   37.1320   24.2070   41.9700 C   0  0  0  0  0  0  0  0  0  0  0  0
   38.0820   23.6680   41.1280 C   0  0  0  0  0  0  0  0  0  0  0  0
   38.0670   22.2780   40.8300 N   0  0  0  0  0  0  0  0  0  0  0  0
   39.0370   24.4370   40.5720 N   0  0  0  0  0  0  0  0  0  0  0  0
   39.1070   25.7610   40.8130 C   0  0  0  0  0  0  0  0  0  0  0  0
   39.9700   26.5390   40.3300 O   0  0  0  0  0  0  0  0  0  0  0  0
   37.0851   30.7785   39.6870 H   0  0  0  0  0  0  0  0  0  0  0  0
   36.1995   28.6881   37.4955 H   0  0  0  0  0  0  0  0  0  0  0  0
   35.8167   30.3765   37.4232 H   0  0  0  0  0  0  0  0  0  0  0  0
   34.2012   30.1920   39.2097 H   0  0  0  0  0  0  0  0  0  0  0  0
   34.1316   28.5079   38.6527 H   0  0  0  0  0  0  0  0  0  0  0  0
   35.2212   29.5937   41.1661 H   0  0  0  0  0  0  0  0  0  0  0  0
   34.9278   27.9058   40.7624 H   0  0  0  0  0  0  0  0  0  0  0  0
   37.2093   27.7235   39.6624 H   0  0  0  0  0  0  0  0  0  0  0  0
   41.3913   34.6528   38.9825 H   0  0  0  0  0  0  0  0  0  0  0  0
   39.7876   35.4660   40.7742 H   0  0  0  0  0  0  0  0  0  0  0  0
   37.9576   33.9144   41.5058 H   0  0  0  0  0  0  0  0  0  0  0  0
   40.8689   28.5068   36.6756 H   0  0  0  0  0  0  0  0  0  0  0  0
   38.3685   27.8225   37.4681 H   0  0  0  0  0  0  0  0  0  0  0  0
   38.7813   30.2018   44.0260 H   0  0  0  0  0  0  0  0  0  0  0  0
   39.2274   27.5343   43.8956 H   0  0  0  0  0  0  0  0  0  0  0  0
   36.4894   26.0429   42.8644 H   0  0  0  0  0  0  0  0  0  0  0  0
   36.3462   23.5909   42.4314 H   0  0  0  0  0  0  0  0  0  0  0  0
   38.7779   21.8785   40.2008 H   0  0  0  0  0  0  0  0  0  0  0  0
   37.3452   21.6704   41.2433 H   0  0  0  0  0  0  0  0  0  0  0  0
  1  5  1  0
  2  3  1  0
  2  1  1  0
  3  4  1  0
  5  4  1  0
  5 17  1  0
  6  7  2  0
  7  8  1  0
  9  8  2  0
 10  9  1  0
 11 10  2  0
 11  6  1  0
 12 10  1  0
 13 12  1  0
 14 15  1  0
 14 13  2  0
 15 16  2  0
 16 12  1  0
 16  1  1  0
 17 21  1  0
 17 18  1  0
 18 19  2  0
 20 19  1  0
 21 20  2  0
 22 21  1  0
 22 23  1  0
 24 23  2  0
 25 24  1  0
 26 25  1  0
 27 28  1  0
 27 25  2  0
 28 22  1  0
 29 28  2  0
  1 30  1  1
  2 31  1  0
  2 32  1  0
  3 33  1  0
  3 34  1  0
  4 35  1  0
  4 36  1  0
  5 37  1  6
  6 38  1  0
  7 39  1  0
  8 40  1  0
 14 41  1  0
 15 42  1  0
 19 43  1  0
 20 44  1  0
 23 45  1  0
 24 46  1  0
 26 47  1  0
 26 48  1  0
M  ISO  8  30  13  31  13  32  13  33  13  34  13  35  13  36  13  37  13
M  ISO  8  38  14  39  14  40  14  41  14  42  14  43  14  44  14  45  14
M  ISO  1  46  14
M  END
>  <minimizedAffinity>  (1) 
-6.84561825

>  <minimizedRMSD>  (1) 
1.93400192

$$$$
