
     RDKit          3D

 50 55  0  0  1  0  0  0  0  0999 V2000
   40.2840   27.5110   43.2270 C   0  0  0  0  0  0  0  0  0  0  0  0
   39.1330   26.8990   43.7860 C   0  0  0  0  0  0  0  0  0  0  0  0
   37.9070   27.5430   43.6420 C   0  0  0  0  0  0  0  0  0  0  0  0
   37.9140   28.7190   42.9670 N   0  0  0  0  0  0  0  0  0  0  0  0
   38.9880   29.2910   42.4440 C   0  0  0  0  0  0  0  0  0  0  0  0
   40.2020   28.6900   42.5660 N   0  0  0  0  0  0  0  0  0  0  0  0
   38.8000   30.5310   41.7720 N   0  0  0  0  0  0  0  0  0  0  0  0
   37.5560   30.9040   41.4290 C   0  0  0  0  0  0  0  0  0  0  0  0
   37.6480   32.0940   40.8200 N   0  0  0  0  0  0  0  0  0  0  0  0
   38.9140   32.4950   40.7630 C   0  0  0  0  0  0  0  0  0  0  0  0
   39.6480   33.5650   40.2960 C   0  0  0  0  0  0  0  0  0  0  0  0
   40.9920   33.6330   40.4240 N   0  0  0  0  0  0  0  0  0  0  0  0
   41.6360   32.6240   41.0260 C   0  0  0  0  0  0  0  0  0  0  0  0
   40.9610   31.5580   41.4980 N   0  0  0  0  0  0  0  0  0  0  0  0
   39.6300   31.5010   41.3670 C   0  0  0  0  0  0  0  0  0  0  0  0
   43.0510   32.6230   41.2140 N   0  0  0  0  0  0  0  0  0  0  0  0
   44.0710   33.4250   40.8630 C   0  0  0  0  0  0  0  0  0  0  0  0
   45.2250   32.9370   41.3450 N   0  0  0  0  0  0  0  0  0  0  0  0
   44.9080   31.8300   41.9930 C   0  0  0  0  0  0  0  0  0  0  0  0
   43.5840   31.6290   41.9180 N   0  0  0  0  0  0  0  0  0  0  0  0
   45.8260   30.9110   42.7120 C   0  0  1  0  0  0  0  0  0  0  0  0
   46.4830   31.2870   43.9720 C   0  0  0  0  0  0  0  0  0  0  0  0
   45.4030   30.1400   43.9040 C   0  0  1  0  0  0  0  0  0  0  0  0
   44.4130   30.3180   44.9690 C   0  0  0  0  0  0  0  0  0  0  0  0
   44.2350   29.1550   45.8650 C   0  0  0  0  0  0  0  0  0  0  0  0
   43.7080   29.4840   47.2600 C   0  0  0  0  0  0  0  0  0  0  0  0
   44.5560   30.5660   47.8730 C   0  0  0  0  0  0  0  0  0  0  0  0
   44.2180   31.8070   47.0230 C   0  0  0  0  0  0  0  0  0  0  0  0
   44.8380   31.6030   45.7070 C   0  0  0  0  0  0  0  0  0  0  0  0
   41.2619   27.0185   43.3324 H   0  0  0  0  0  0  0  0  0  0  0  0
   39.2071   25.9400   44.3197 H   0  0  0  0  0  0  0  0  0  0  0  0
   36.9797   27.1192   44.0549 H   0  0  0  0  0  0  0  0  0  0  0  0
   36.6318   30.3369   41.6140 H   0  0  0  0  0  0  0  0  0  0  0  0
   39.1204   34.3937   39.8011 H   0  0  0  0  0  0  0  0  0  0  0  0
   43.9744   34.3454   40.2685 H   0  0  0  0  0  0  0  0  0  0  0  0
   46.2091   30.6139   41.7246 H   0  0  0  0  0  0  0  0  0  0  0  0
   47.5423   31.0430   44.1403 H   0  0  0  0  0  0  0  0  0  0  0  0
   46.6131   32.2152   44.5477 H   0  0  0  0  0  0  0  0  0  0  0  0
   45.1717   29.0649   43.9311 H   0  0  0  0  0  0  0  0  0  0  0  0
   43.4060   30.4081   44.5357 H   0  0  0  0  0  0  0  0  0  0  0  0
   43.5256   28.4630   45.3876 H   0  0  0  0  0  0  0  0  0  0  0  0
   45.2371   28.7255   46.0106 H   0  0  0  0  0  0  0  0  0  0  0  0
   42.6669   29.8313   47.1864 H   0  0  0  0  0  0  0  0  0  0  0  0
   43.7498   28.5834   47.8902 H   0  0  0  0  0  0  0  0  0  0  0  0
   44.2883   30.7262   48.9278 H   0  0  0  0  0  0  0  0  0  0  0  0
   45.6290   30.3236   47.8727 H   0  0  0  0  0  0  0  0  0  0  0  0
   43.1278   31.9072   46.9163 H   0  0  0  0  0  0  0  0  0  0  0  0
   44.5945   32.7248   47.4982 H   0  0  0  0  0  0  0  0  0  0  0  0
   45.9285   31.5693   45.8470 H   0  0  0  0  0  0  0  0  0  0  0  0
   44.4992   32.4400   45.0788 H   0  0  0  0  0  0  0  0  0  0  0  0
  1  2  2  0
  3  2  1  0
  4  3  2  0
  5  6  2  0
  5  4  1  0
  6  1  1  0
  7  5  1  0
  8  7  1  0
  9  8  2  0
 10  9  1  0
 10 15  2  0
 11 12  2  0
 11 10  1  0
 12 13  1  0
 13 16  1  0
 13 14  2  0
 15 14  1  0
 15  7  1  0
 16 20  1  0
 17 16  1  0
 17 18  2  0
 18 19  1  0
 19 21  1  0
 20 19  2  0
 21 23  1  0
 21 22  1  0
 23 22  1  0
 23 24  1  0
 24 29  1  0
 24 25  1  0
 25 26  1  0
 26 27  1  0
 28 27  1  0
 29 28  1  0
  1 30  1  0
  2 31  1  0
  3 32  1  0
  8 33  1  0
 11 34  1  0
 17 35  1  0
 21 36  1  6
 22 37  1  0
 22 38  1  0
 23 39  1  6
 24 40  1  0
 25 41  1  0
 25 42  1  0
 26 43  1  0
 26 44  1  0
 27 45  1  0
 27 46  1  0
 28 47  1  0
 28 48  1  0
 29 49  1  0
 29 50  1  0
M  ISO  8  30  14  31  14  32  14  33  14  34  14  35  14  36  13  37  13
M  ISO  8  38  13  39  13  40  13  41  13  42  13  43  13  44  13  45  13
M  ISO  5  46  13  47  13  48  13  49  13  50  13
M  END
>  <minimizedAffinity>  (1) 
-6.37327814

>  <minimizedRMSD>  (1) 
1.79599762

$$$$
