
     RDKit          3D

 44 49  0  0  1  0  0  0  0  0999 V2000
   40.7290   28.1090   43.0640 C   0  0  0  0  0  0  0  0  0  0  0  0
   40.1100   27.0730   43.7600 C   0  0  0  0  0  0  0  0  0  0  0  0
   38.7320   27.0010   43.6950 C   0  0  0  0  0  0  0  0  0  0  0  0
   38.0710   27.9400   42.9610 N   0  0  0  0  0  0  0  0  0  0  0  0
   38.6960   28.9300   42.3000 C   0  0  0  0  0  0  0  0  0  0  0  0
   40.0390   29.0290   42.3410 N   0  0  0  0  0  0  0  0  0  0  0  0
   37.8740   29.8370   41.5740 N   0  0  0  0  0  0  0  0  0  0  0  0
   36.5960   29.4830   41.3100 C   0  0  0  0  0  0  0  0  0  0  0  0
   36.0380   30.4900   40.6260 N   0  0  0  0  0  0  0  0  0  0  0  0
   36.9100   31.4780   40.4410 C   0  0  0  0  0  0  0  0  0  0  0  0
   36.9630   32.7190   39.8510 C   0  0  0  0  0  0  0  0  0  0  0  0
   38.0800   33.4760   39.8600 N   0  0  0  0  0  0  0  0  0  0  0  0
   39.1890   32.9950   40.4730 C   0  0  0  0  0  0  0  0  0  0  0  0
   39.1740   31.7860   41.0630 N   0  0  0  0  0  0  0  0  0  0  0  0
   38.0640   31.0520   41.0450 C   0  0  0  0  0  0  0  0  0  0  0  0
   40.4140   33.7250   40.5240 N   0  0  0  0  0  0  0  0  0  0  0  0
   40.8690   34.8870   40.0190 C   0  0  0  0  0  0  0  0  0  0  0  0
   42.1470   35.0700   40.3990 N   0  0  0  0  0  0  0  0  0  0  0  0
   42.4760   34.0240   41.1350 C   0  0  0  0  0  0  0  0  0  0  0  0
   41.4140   33.1840   41.2210 N   0  0  0  0  0  0  0  0  0  0  0  0
   43.7840   33.7580   41.7680 C   0  0  1  0  0  0  0  0  0  0  0  0
   44.2090   32.3490   42.0650 C   0  0  0  0  0  0  0  0  0  0  0  0
   44.8990   33.1560   40.9480 C   0  0  1  0  0  0  0  0  0  0  0  0
   44.6650   32.6140   39.5980 C   0  0  0  0  0  0  0  0  0  0  0  0
   44.8820   33.4000   38.4620 C   0  0  0  0  0  0  0  0  0  0  0  0
   44.6760   32.9040   37.1890 C   0  0  0  0  0  0  0  0  0  0  0  0
   44.2510   31.6190   36.9820 C   0  0  0  0  0  0  0  0  0  0  0  0
   44.0230   30.7990   38.0870 C   0  0  0  0  0  0  0  0  0  0  0  0
   44.2390   31.3330   39.3310 C   0  0  0  0  0  0  0  0  0  0  0  0
   41.8257   28.1854   43.1016 H   0  0  0  0  0  0  0  0  0  0  0  0
   40.6947   26.3421   44.3378 H   0  0  0  0  0  0  0  0  0  0  0  0
   38.1827   26.2068   44.2218 H   0  0  0  0  0  0  0  0  0  0  0  0
   36.1058   28.5427   41.6027 H   0  0  0  0  0  0  0  0  0  0  0  0
   36.0624   33.1086   39.3538 H   0  0  0  0  0  0  0  0  0  0  0  0
   40.2867   35.5793   39.3931 H   0  0  0  0  0  0  0  0  0  0  0  0
   43.6767   34.6680   42.3766 H   0  0  0  0  0  0  0  0  0  0  0  0
   44.7501   32.1206   42.9951 H   0  0  0  0  0  0  0  0  0  0  0  0
   43.6997   31.3758   42.1248 H   0  0  0  0  0  0  0  0  0  0  0  0
   45.9021   33.5233   40.6856 H   0  0  0  0  0  0  0  0  0  0  0  0
   45.2249   34.4380   38.5848 H   0  0  0  0  0  0  0  0  0  0  0  0
   44.8576   33.5563   36.3221 H   0  0  0  0  0  0  0  0  0  0  0  0
   44.0921   31.2398   35.9617 H   0  0  0  0  0  0  0  0  0  0  0  0
   43.6819   29.7604   37.9646 H   0  0  0  0  0  0  0  0  0  0  0  0
   44.0549   30.6774   40.1949 H   0  0  0  0  0  0  0  0  0  0  0  0
  1  2  2  0
  3  2  1  0
  4  3  2  0
  5  6  2  0
  5  4  1  0
  6  1  1  0
  7  5  1  0
  8  7  1  0
  9  8  2  0
 10  9  1  0
 10 15  2  0
 11 12  2  0
 11 10  1  0
 12 13  1  0
 13 16  1  0
 13 14  2  0
 15 14  1  0
 15  7  1  0
 16 20  1  0
 17 18  2  0
 17 16  1  0
 18 19  1  0
 19 20  2  0
 19 21  1  0
 21 22  1  0
 23 21  1  0
 23 22  1  0
 24 23  1  0
 25 24  2  0
 26 25  1  0
 27 26  2  0
 27 28  1  0
 28 29  2  0
 29 24  1  0
  1 30  1  0
  2 31  1  0
  3 32  1  0
  8 33  1  0
 11 34  1  0
 17 35  1  0
 21 36  1  1
 22 37  1  0
 22 38  1  0
 23 39  1  1
 25 40  1  0
 26 41  1  0
 27 42  1  0
 28 43  1  0
 29 44  1  0
M  ISO  8  30  14  31  14  32  14  33  14  34  14  35  14  36  13  37  13
M  ISO  7  38  13  39  13  40  14  41  14  42  14  43  14  44  14
M  END
>  <minimizedAffinity>  (1) 
-6.32867765

>  <minimizedRMSD>  (1) 
3.55394244

$$$$
