
     RDKit          3D

 40 45  0  0  1  0  0  0  0  0999 V2000
   39.4590   27.8480   42.8960 C   0  0  0  0  0  0  0  0  0  0  0  0
   38.2210   27.4050   43.3510 C   0  0  0  0  0  0  0  0  0  0  0  0
   37.1260   28.2520   43.1340 C   0  0  0  0  0  0  0  0  0  0  0  0
   37.3590   29.4320   42.5020 N   0  0  0  0  0  0  0  0  0  0  0  0
   38.5670   29.8240   42.0790 C   0  0  0  0  0  0  0  0  0  0  0  0
   39.6470   29.0410   42.2650 N   0  0  0  0  0  0  0  0  0  0  0  0
   38.6460   31.0930   41.4320 N   0  0  0  0  0  0  0  0  0  0  0  0
   37.5120   31.6520   40.9790 C   0  0  0  0  0  0  0  0  0  0  0  0
   37.8420   32.8230   40.4200 N   0  0  0  0  0  0  0  0  0  0  0  0
   39.1530   33.0390   40.4990 C   0  0  0  0  0  0  0  0  0  0  0  0
   40.0770   33.9880   40.1390 C   0  0  0  0  0  0  0  0  0  0  0  0
   41.3950   33.8460   40.4010 N   0  0  0  0  0  0  0  0  0  0  0  0
   41.8240   32.7430   41.0330 C   0  0  0  0  0  0  0  0  0  0  0  0
   40.9490   31.7880   41.4020 N   0  0  0  0  0  0  0  0  0  0  0  0
   39.6490   31.9370   41.1400 C   0  0  0  0  0  0  0  0  0  0  0  0
   43.1870   32.4990   41.3360 N   0  0  0  0  0  0  0  0  0  0  0  0
   44.3570   33.1300   41.0870 C   0  0  0  0  0  0  0  0  0  0  0  0
   45.3690   32.4330   41.6080 N   0  0  0  0  0  0  0  0  0  0  0  0
   44.8380   31.3690   42.1830 C   0  0  0  0  0  0  0  0  0  0  0  0
   43.4900   31.3960   42.0230 N   0  0  0  0  0  0  0  0  0  0  0  0
   45.5500   30.2730   42.8820 C   0  0  1  0  0  0  0  0  0  0  0  0
   47.0390   30.3380   43.0490 C   0  0  0  0  0  0  0  0  0  0  0  0
   46.0590   30.4750   44.2670 C   0  0  1  0  0  0  0  0  0  0  0  0
   46.1020   31.8100   44.8910 C   0  0  0  0  0  0  0  0  0  0  0  0
   44.9430   32.1990   45.7130 C   0  0  0  0  0  0  0  0  0  0  0  0
   45.4440   33.8540   46.2480 S   0  0  0  0  0  0  0  0  0  0  0  0
   47.0660   33.7860   45.3290 C   0  0  0  0  0  0  0  0  0  0  0  0
   47.0730   32.6920   44.7920 N   0  0  0  0  0  0  0  0  0  0  0  0
   40.3336   27.1999   43.0543 H   0  0  0  0  0  0  0  0  0  0  0  0
   38.1072   26.4352   43.8574 H   0  0  0  0  0  0  0  0  0  0  0  0
   36.1146   27.9718   43.4633 H   0  0  0  0  0  0  0  0  0  0  0  0
   36.5002   31.2268   41.0534 H   0  0  0  0  0  0  0  0  0  0  0  0
   39.7330   34.8947   39.6197 H   0  0  0  0  0  0  0  0  0  0  0  0
   44.4594   34.0770   40.5368 H   0  0  0  0  0  0  0  0  0  0  0  0
   44.8679   29.5396   42.4271 H   0  0  0  0  0  0  0  0  0  0  0  0
   47.6515   29.4324   42.9281 H   0  0  0  0  0  0  0  0  0  0  0  0
   47.8558   30.9382   42.6217 H   0  0  0  0  0  0  0  0  0  0  0  0
   45.8282   29.9698   45.2165 H   0  0  0  0  0  0  0  0  0  0  0  0
   44.0247   31.6375   45.9396 H   0  0  0  0  0  0  0  0  0  0  0  0
   47.8442   34.5620   45.2821 H   0  0  0  0  0  0  0  0  0  0  0  0
  1  2  2  0
  3  2  1  0
  4  3  2  0
  5  6  2  0
  5  4  1  0
  6  1  1  0
  7  5  1  0
  8  7  1  0
  9 10  1  0
  9  8  2  0
 10 15  2  0
 11 12  2  0
 11 10  1  0
 12 13  1  0
 13 16  1  0
 13 14  2  0
 15 14  1  0
 15  7  1  0
 16 20  1  0
 17 16  1  0
 17 18  2  0
 18 19  1  0
 19 21  1  0
 20 19  2  0
 21 22  1  0
 21 23  1  0
 22 23  1  0
 23 24  1  0
 24 25  2  0
 25 26  1  0
 27 26  1  0
 28 24  1  0
 28 27  2  0
  1 29  1  0
  2 30  1  0
  3 31  1  0
  8 32  1  0
 11 33  1  0
 17 34  1  0
 21 35  1  1
 22 36  1  0
 22 37  1  0
 23 38  1  1
 25 39  1  0
 27 40  1  0
M  ISO  8  29  14  30  14  31  14  32  14  33  14  34  14  35  13  36  13
M  ISO  4  37  13  38  13  39  14  40  14
M  END
>  <minimizedAffinity>  (1) 
-5.62133265

>  <minimizedRMSD>  (1) 
2.7400918

$$$$
