
     RDKit          3D

 48 53  0  0  1  0  0  0  0  0999 V2000
   38.4190   30.9650   38.6980 C   0  0  1  0  0  0  0  0  0  0  0  0
   37.6070   30.6230   37.4210 C   0  0  0  0  0  0  0  0  0  0  0  0
   36.2830   30.1850   38.0530 C   0  0  0  0  0  0  0  0  0  0  0  0
   36.5940   29.7640   39.4620 C   0  0  0  0  0  0  0  0  0  0  0  0
   38.1060   29.7870   39.5440 C   0  0  2  0  0  0  0  0  0  0  0  0
   41.1690   35.6150   39.3850 C   0  0  0  0  0  0  0  0  0  0  0  0
   40.0120   35.9820   40.1010 C   0  0  0  0  0  0  0  0  0  0  0  0
   39.0440   35.0100   40.3140 C   0  0  0  0  0  0  0  0  0  0  0  0
   39.2800   33.7700   39.8150 N   0  0  0  0  0  0  0  0  0  0  0  0
   40.3570   33.4260   39.1470 C   0  0  0  0  0  0  0  0  0  0  0  0
   41.3220   34.3600   38.9250 N   0  0  0  0  0  0  0  0  0  0  0  0
   40.6390   32.1470   38.5930 N   0  0  0  0  0  0  0  0  0  0  0  0
   41.8840   31.9150   38.1980 N   0  0  0  0  0  0  0  0  0  0  0  0
   41.9420   30.6480   37.6830 C   0  0  0  0  0  0  0  0  0  0  0  0
   40.6440   30.1300   37.7970 C   0  0  0  0  0  0  0  0  0  0  0  0
   39.8320   31.1100   38.3830 C   0  0  0  0  0  0  0  0  0  0  0  0
   38.4640   29.9270   40.9320 N   0  0  0  0  0  0  0  0  0  0  0  0
   38.9060   30.9910   41.5660 N   0  0  0  0  0  0  0  0  0  0  0  0
   39.1320   30.7300   42.8710 C   0  0  0  0  0  0  0  0  0  0  0  0
   38.8000   29.3930   43.0460 C   0  0  0  0  0  0  0  0  0  0  0  0
   38.3880   28.9120   41.8320 C   0  0  0  0  0  0  0  0  0  0  0  0
   37.9730   27.5510   41.6760 N   0  0  0  0  0  0  0  0  0  0  0  0
   36.9000   26.9480   41.0960 C   0  0  0  0  0  0  0  0  0  0  0  0
   37.0230   25.6230   41.2470 N   0  0  0  0  0  0  0  0  0  0  0  0
   38.1640   25.3770   41.9170 C   0  0  0  0  0  0  0  0  0  0  0  0
   38.6720   24.1400   42.2830 C   0  0  0  0  0  0  0  0  0  0  0  0
   39.8510   24.1760   42.9590 N   0  0  0  0  0  0  0  0  0  0  0  0
   40.4610   25.3490   43.2380 C   0  0  0  0  0  0  0  0  0  0  0  0
   39.9400   26.5320   42.8670 N   0  0  0  0  0  0  0  0  0  0  0  0
   38.7650   26.5660   42.1910 C   0  0  0  0  0  0  0  0  0  0  0  0
   38.1721   31.9187   39.1874 H   0  0  0  0  0  0  0  0  0  0  0  0
   38.0737   29.8090   36.8470 H   0  0  0  0  0  0  0  0  0  0  0  0
   37.5225   31.4438   36.6936 H   0  0  0  0  0  0  0  0  0  0  0  0
   35.5695   31.0222   38.0564 H   0  0  0  0  0  0  0  0  0  0  0  0
   35.8280   29.3599   37.4853 H   0  0  0  0  0  0  0  0  0  0  0  0
   36.1554   30.4691   40.1835 H   0  0  0  0  0  0  0  0  0  0  0  0
   36.1787   28.7742   39.7024 H   0  0  0  0  0  0  0  0  0  0  0  0
   38.6533   28.8973   39.1993 H   0  0  0  0  0  0  0  0  0  0  0  0
   41.9549   36.3622   39.2004 H   0  0  0  0  0  0  0  0  0  0  0  0
   39.8801   37.0065   40.4792 H   0  0  0  0  0  0  0  0  0  0  0  0
   38.1202   35.2363   40.8666 H   0  0  0  0  0  0  0  0  0  0  0  0
   42.8246   30.1410   37.2659 H   0  0  0  0  0  0  0  0  0  0  0  0
   40.3194   29.1276   37.4810 H   0  0  0  0  0  0  0  0  0  0  0  0
   39.5015   31.4295   43.6353 H   0  0  0  0  0  0  0  0  0  0  0  0
   38.8574   28.8251   43.9863 H   0  0  0  0  0  0  0  0  0  0  0  0
   36.0708   27.4624   40.5883 H   0  0  0  0  0  0  0  0  0  0  0  0
   38.1581   23.1973   42.0437 H   0  0  0  0  0  0  0  0  0  0  0  0
   41.4145   25.3358   43.7863 H   0  0  0  0  0  0  0  0  0  0  0  0
  1  5  1  0
  2  3  1  0
  2  1  1  0
  3  4  1  0
  4  5  1  0
  5 17  1  0
  6  7  2  0
  7  8  1  0
  9  8  2  0
 10  9  1  0
 11 10  2  0
 11  6  1  0
 12 10  1  0
 13 12  1  0
 14 15  1  0
 14 13  2  0
 15 16  2  0
 16 12  1  0
 16  1  1  0
 17 18  1  0
 17 21  1  0
 18 19  2  0
 19 20  1  0
 21 20  2  0
 22 21  1  0
 22 30  1  0
 23 24  2  0
 23 22  1  0
 24 25  1  0
 25 30  2  0
 25 26  1  0
 26 27  2  0
 27 28  1  0
 29 28  2  0
 30 29  1  0
  1 31  1  1
  2 32  1  0
  2 33  1  0
  3 34  1  0
  3 35  1  0
  4 36  1  0
  4 37  1  0
  5 38  1  6
  6 39  1  0
  7 40  1  0
  8 41  1  0
 14 42  1  0
 15 43  1  0
 19 44  1  0
 20 45  1  0
 23 46  1  0
 26 47  1  0
 28 48  1  0
M  ISO  8  31  13  32  13  33  13  34  13  35  13  36  13  37  13  38  13
M  ISO  8  39  14  40  14  41  14  42  14  43  14  44  14  45  14  46  14
M  ISO  2  47  14  48  14
M  END
>  <minimizedAffinity>  (1) 
-6.79170609

>  <minimizedRMSD>  (1) 
1.51275802

$$$$
