
     RDKit          3D

 37 39  0  0  1  0  0  0  0  0999 V2000
   40.0370   27.3470   43.5350 C   0  0  0  0  0  0  0  0  0  0  0  0
   39.7740   25.9760   43.3840 C   0  0  0  0  0  0  0  0  0  0  0  0
   38.6920   25.6200   42.5790 C   0  0  0  0  0  0  0  0  0  0  0  0
   37.9580   26.6160   41.9930 N   0  0  0  0  0  0  0  0  0  0  0  0
   38.2300   27.9220   42.1530 C   0  0  0  0  0  0  0  0  0  0  0  0
   39.2750   28.2530   42.9290 N   0  0  0  0  0  0  0  0  0  0  0  0
   37.4170   28.8810   41.5070 N   0  0  0  0  0  0  0  0  0  0  0  0
   36.1710   28.4200   40.9420 C   0  0  0  0  0  0  0  0  0  0  0  0
   35.2730   29.5180   40.4770 C   0  0  0  0  0  0  0  0  0  0  0  0
   35.5480   30.7270   41.1830 N   0  0  0  0  0  0  0  0  0  0  0  0
   36.8960   31.1790   40.8400 C   0  0  0  0  0  0  0  0  0  0  0  0
   37.8980   30.2570   41.4610 C   0  0  2  0  0  0  0  0  0  0  0  0
   39.1970   30.3690   40.8350 N   0  0  0  0  0  0  0  0  0  0  0  0
   39.3890   29.8800   39.5960 C   0  0  0  0  0  0  0  0  0  0  0  0
   40.5850   29.9310   38.9010 C   0  0  0  0  0  0  0  0  0  0  0  0
   40.7360   29.3730   37.5320 C   0  0  0  0  0  0  0  0  0  0  0  0
   41.6480   30.5310   39.5470 C   0  0  0  0  0  0  0  0  0  0  0  0
   42.7370   30.5910   38.9410 O   0  0  0  0  0  0  0  0  0  0  0  0
   41.4700   31.0180   40.7730 N   0  0  0  0  0  0  0  0  0  0  0  0
   40.2810   30.9380   41.3930 C   0  0  0  0  0  0  0  0  0  0  0  0
   40.1550   31.4120   42.5580 O   0  0  0  0  0  0  0  0  0  0  0  0
   40.8808   27.6746   44.1601 H   0  0  0  0  0  0  0  0  0  0  0  0
   40.3949   25.2151   43.8795 H   0  0  0  0  0  0  0  0  0  0  0  0
   38.4343   24.5627   42.4186 H   0  0  0  0  0  0  0  0  0  0  0  0
   36.3993   27.7724   40.0827 H   0  0  0  0  0  0  0  0  0  0  0  0
   35.6357   27.8881   41.7424 H   0  0  0  0  0  0  0  0  0  0  0  0
   35.4323   29.6837   39.4013 H   0  0  0  0  0  0  0  0  0  0  0  0
   34.2296   29.2264   40.6676 H   0  0  0  0  0  0  0  0  0  0  0  0
   34.8628   31.4477   40.9147 H   0  0  0  0  0  0  0  0  0  0  0  0
   37.0188   31.1732   39.7469 H   0  0  0  0  0  0  0  0  0  0  0  0
   37.0502   32.2005   41.2179 H   0  0  0  0  0  0  0  0  0  0  0  0
   38.0275   30.5769   42.5055 H   0  0  0  0  0  0  0  0  0  0  0  0
   38.5312   29.4041   39.0983 H   0  0  0  0  0  0  0  0  0  0  0  0
   41.0228   28.3131   37.5976 H   0  0  0  0  0  0  0  0  0  0  0  0
   39.7815   29.4618   36.9925 H   0  0  0  0  0  0  0  0  0  0  0  0
   41.5154   29.9310   36.9925 H   0  0  0  0  0  0  0  0  0  0  0  0
   42.2613   31.4660   41.2569 H   0  0  0  0  0  0  0  0  0  0  0  0
  2  1  2  0
  3  2  1  0
  4  5  1  0
  4  3  2  0
  5  6  2  0
  6  1  1  0
  7  5  1  0
  8  7  1  0
  9  8  1  0
  9 10  1  0
 11 10  1  0
 11 12  1  0
 12  7  1  0
 13 20  1  0
 13 12  1  0
 14 13  1  0
 15 17  1  0
 15 14  2  0
 16 15  1  0
 17 19  1  0
 18 17  2  0
 19 20  1  0
 20 21  2  0
  1 22  1  0
  2 23  1  0
  3 24  1  0
  8 25  1  0
  8 26  1  0
  9 27  1  0
  9 28  1  0
 10 29  1  0
 11 30  1  0
 11 31  1  0
 12 32  1  1
 14 33  1  0
 16 34  1  0
 16 35  1  0
 16 36  1  0
 19 37  1  0
M  ISO  8  22  14  23  14  24  14  25  13  26  13  27  13  28  13  29   5
M  ISO  8  30  13  31  13  32  13  33  14  34   8  35   8  36   8  37   9
M  END
>  <minimizedAffinity>  (1) 
-5.52757263

>  <minimizedRMSD>  (1) 
0.745187044

$$$$
