
     RDKit          3D

 38 40  0  0  1  0  0  0  0  0999 V2000
   40.0050   27.3470   43.6160 C   0  0  0  0  0  0  0  0  0  0  0  0
   39.7710   25.9760   43.4320 C   0  0  0  0  0  0  0  0  0  0  0  0
   38.7240   25.6100   42.5900 C   0  0  0  0  0  0  0  0  0  0  0  0
   37.9860   26.5970   41.9950 N   0  0  0  0  0  0  0  0  0  0  0  0
   38.2410   27.9120   42.1960 C   0  0  0  0  0  0  0  0  0  0  0  0
   39.2530   28.2680   43.0080 N   0  0  0  0  0  0  0  0  0  0  0  0
   37.4220   28.8700   41.5330 N   0  0  0  0  0  0  0  0  0  0  0  0
   36.2260   28.3870   40.8820 C   0  0  0  0  0  0  0  0  0  0  0  0
   35.2840   29.4620   40.4480 C   0  0  0  0  0  0  0  0  0  0  0  0
   35.5210   30.6600   41.1610 N   0  0  0  0  0  0  0  0  0  0  0  0
   36.8670   31.1490   40.8540 C   0  0  0  0  0  0  0  0  0  0  0  0
   37.8430   30.2630   41.5590 C   0  0  2  0  0  0  0  0  0  0  0  0
   39.2070   30.4040   41.1410 N   0  0  0  0  0  0  0  0  0  0  0  0
   39.8710   31.4830   41.7900 C   0  0  0  0  0  0  0  0  0  0  0  0
   40.1980   32.5820   40.8090 C   0  0  0  0  0  0  0  0  0  0  0  0
   41.1710   32.0540   39.8910 N   0  0  0  0  0  0  0  0  0  0  0  0
   40.7710   30.7820   39.3400 C   0  0  0  0  0  0  0  0  0  0  0  0
   39.3830   30.3690   39.7160 C   0  0  0  0  0  0  0  0  0  0  0  0
   40.8247   27.6700   44.2746 H   0  0  0  0  0  0  0  0  0  0  0  0
   40.3912   25.2187   43.9339 H   0  0  0  0  0  0  0  0  0  0  0  0
   38.4949   24.5498   42.4070 H   0  0  0  0  0  0  0  0  0  0  0  0
   36.5259   27.8126   39.9931 H   0  0  0  0  0  0  0  0  0  0  0  0
   35.6882   27.7783   41.6238 H   0  0  0  0  0  0  0  0  0  0  0  0
   35.4225   29.6495   39.3730 H   0  0  0  0  0  0  0  0  0  0  0  0
   34.2551   29.1302   40.6513 H   0  0  0  0  0  0  0  0  0  0  0  0
   34.8263   31.3682   40.8840 H   0  0  0  0  0  0  0  0  0  0  0  0
   37.0415   31.1100   39.7686 H   0  0  0  0  0  0  0  0  0  0  0  0
   36.9835   32.1915   41.1850 H   0  0  0  0  0  0  0  0  0  0  0  0
   37.8306   30.6176   42.6002 H   0  0  0  0  0  0  0  0  0  0  0  0
   39.2179   31.8861   42.5780 H   0  0  0  0  0  0  0  0  0  0  0  0
   40.8098   31.1081   42.2237 H   0  0  0  0  0  0  0  0  0  0  0  0
   39.2910   32.8842   40.2649 H   0  0  0  0  0  0  0  0  0  0  0  0
   40.5914   33.4674   41.3299 H   0  0  0  0  0  0  0  0  0  0  0  0
   41.2962   32.7245   39.1192 H   0  0  0  0  0  0  0  0  0  0  0  0
   41.4707   30.0132   39.6996 H   0  0  0  0  0  0  0  0  0  0  0  0
   40.7874   30.8884   38.2453 H   0  0  0  0  0  0  0  0  0  0  0  0
   38.6632   31.0560   39.2471 H   0  0  0  0  0  0  0  0  0  0  0  0
   39.2152   29.3398   39.3660 H   0  0  0  0  0  0  0  0  0  0  0  0
  2  1  2  0
  3  2  1  0
  4  5  1  0
  4  3  2  0
  5  6  2  0
  6  1  1  0
  7 12  1  0
  7  5  1  0
  8  7  1  0
  9  8  1  0
  9 10  1  0
 11 10  1  0
 11 12  1  0
 13 12  1  0
 13 14  1  0
 15 14  1  0
 16 15  1  0
 17 18  1  0
 17 16  1  0
 18 13  1  0
  1 19  1  0
  2 20  1  0
  3 21  1  0
  8 22  1  0
  8 23  1  0
  9 24  1  0
  9 25  1  0
 10 26  1  0
 11 27  1  0
 11 28  1  0
 12 29  1  1
 14 30  1  0
 14 31  1  0
 15 32  1  0
 15 33  1  0
 16 34  1  0
 17 35  1  0
 17 36  1  0
 18 37  1  0
 18 38  1  0
M  ISO  8  19  14  20  14  21  14  22  13  23  13  24  13  25  13  26   5
M  ISO  8  27  13  28  13  29  13  30  13  31  13  32  13  33  13  34   5
M  ISO  4  35  13  36  13  37  13  38  13
M  END
>  <minimizedAffinity>  (1) 
-5.3104167

>  <minimizedRMSD>  (1) 
0.634162545

$$$$
