
     RDKit          3D

 39 41  0  0  1  0  0  0  0  0999 V2000
   40.0770   27.3590   43.5540 C   0  0  0  0  0  0  0  0  0  0  0  0
   39.8280   25.9890   43.3780 C   0  0  0  0  0  0  0  0  0  0  0  0
   38.7310   25.6170   42.5990 C   0  0  0  0  0  0  0  0  0  0  0  0
   37.9690   26.6140   42.0550 N   0  0  0  0  0  0  0  0  0  0  0  0
   38.2260   27.9200   42.2370 C   0  0  0  0  0  0  0  0  0  0  0  0
   39.2830   28.2780   42.9880 N   0  0  0  0  0  0  0  0  0  0  0  0
   37.3770   28.8780   41.6310 N   0  0  0  0  0  0  0  0  0  0  0  0
   36.1160   28.4070   41.1090 C   0  0  0  0  0  0  0  0  0  0  0  0
   35.2700   29.4840   40.5140 C   0  0  0  0  0  0  0  0  0  0  0  0
   35.5550   30.7240   41.1620 N   0  0  0  0  0  0  0  0  0  0  0  0
   36.9220   31.1210   40.7720 C   0  0  0  0  0  0  0  0  0  0  0  0
   37.8490   30.2670   41.5870 C   0  0  2  0  0  0  0  0  0  0  0  0
   39.2260   30.3680   41.2620 N   0  0  0  0  0  0  0  0  0  0  0  0
   39.4220   30.2310   39.8530 C   0  0  0  0  0  0  0  0  0  0  0  0
   40.9100   30.2910   39.4880 C   0  0  0  0  0  0  0  0  0  0  0  0
   41.5610   31.5110   40.0420 C   0  0  0  0  0  0  0  0  0  0  0  0
   40.6640   32.3360   40.9260 C   0  0  0  0  0  0  0  0  0  0  0  0
   39.8530   31.4960   41.8720 C   0  0  0  0  0  0  0  0  0  0  0  0
   40.9338   27.6820   44.1636 H   0  0  0  0  0  0  0  0  0  0  0  0
   40.4778   25.2312   43.8400 H   0  0  0  0  0  0  0  0  0  0  0  0
   38.4877   24.5579   42.4285 H   0  0  0  0  0  0  0  0  0  0  0  0
   36.3212   27.6573   40.3306 H   0  0  0  0  0  0  0  0  0  0  0  0
   35.5537   27.9899   41.9575 H   0  0  0  0  0  0  0  0  0  0  0  0
   35.4902   29.5722   39.4399 H   0  0  0  0  0  0  0  0  0  0  0  0
   34.2075   29.2340   40.6505 H   0  0  0  0  0  0  0  0  0  0  0  0
   34.8804   31.4418   40.8611 H   0  0  0  0  0  0  0  0  0  0  0  0
   37.0808   30.9408   39.6985 H   0  0  0  0  0  0  0  0  0  0  0  0
   37.0975   32.1918   40.9523 H   0  0  0  0  0  0  0  0  0  0  0  0
   37.8058   30.6863   42.6031 H   0  0  0  0  0  0  0  0  0  0  0  0
   39.0119   29.2638   39.5268 H   0  0  0  0  0  0  0  0  0  0  0  0
   38.9075   31.0624   39.3489 H   0  0  0  0  0  0  0  0  0  0  0  0
   41.4136   29.4016   39.8946 H   0  0  0  0  0  0  0  0  0  0  0  0
   40.9947   30.3231   38.3917 H   0  0  0  0  0  0  0  0  0  0  0  0
   42.4356   31.1989   40.6316 H   0  0  0  0  0  0  0  0  0  0  0  0
   41.8323   32.1442   39.1844 H   0  0  0  0  0  0  0  0  0  0  0  0
   41.2869   33.0264   41.5136 H   0  0  0  0  0  0  0  0  0  0  0  0
   39.9614   32.8771   40.2752 H   0  0  0  0  0  0  0  0  0  0  0  0
   39.0693   32.1305   42.3116 H   0  0  0  0  0  0  0  0  0  0  0  0
   40.5526   31.1010   42.6233 H   0  0  0  0  0  0  0  0  0  0  0  0
  2  1  2  0
  3  2  1  0
  4  5  1  0
  4  3  2  0
  5  6  2  0
  6  1  1  0
  7  5  1  0
  8  7  1  0
  9  8  1  0
  9 10  1  0
 11 10  1  0
 11 12  1  0
 12  7  1  0
 13 12  1  0
 13 18  1  0
 14 13  1  0
 15 14  1  0
 15 16  1  0
 16 17  1  0
 17 18  1  0
  1 19  1  0
  2 20  1  0
  3 21  1  0
  8 22  1  0
  8 23  1  0
  9 24  1  0
  9 25  1  0
 10 26  1  0
 11 27  1  0
 11 28  1  0
 12 29  1  1
 14 30  1  0
 14 31  1  0
 15 32  1  0
 15 33  1  0
 16 34  1  0
 16 35  1  0
 17 36  1  0
 17 37  1  0
 18 38  1  0
 18 39  1  0
M  ISO  8  19  14  20  14  21  14  22  13  23  13  24  13  25  13  26   5
M  ISO  8  27  13  28  13  29  13  30  13  31  13  32  13  33  13  34  13
M  ISO  5  35  13  36  13  37  13  38  13  39  13
M  END
>  <minimizedAffinity>  (1) 
-5.26163912

>  <minimizedRMSD>  (1) 
0.354124308

$$$$
