
     RDKit          3D

 25 26  0  0  0  0  0  0  0  0999 V2000
   37.8320   28.8300   43.6910 C   0  0  0  0  0  0  0  0  0  0  0  0
   37.1270   27.6190   43.6430 C   0  0  0  0  0  0  0  0  0  0  0  0
   36.4590   27.3020   42.4430 C   0  0  0  0  0  0  0  0  0  0  0  0
   36.5350   28.1820   41.4140 N   0  0  0  0  0  0  0  0  0  0  0  0
   37.2250   29.3440   41.4970 C   0  0  0  0  0  0  0  0  0  0  0  0
   37.8690   29.6550   42.6430 N   0  0  0  0  0  0  0  0  0  0  0  0
   37.2480   30.2050   40.3630 N   0  0  0  0  0  0  0  0  0  0  0  0
   37.0370   31.6030   40.5850 C   0  0  0  0  0  0  0  0  0  0  0  0
   37.3480   32.5000   39.4480 C   0  0  0  0  0  0  0  0  0  0  0  0
   37.4090   31.9020   38.0920 C   0  0  0  0  0  0  0  0  0  0  0  0
   36.8720   30.4990   38.0050 C   0  0  0  0  0  0  0  0  0  0  0  0
   37.4790   29.6320   39.0750 C   0  0  0  0  0  0  0  0  0  0  0  0
   38.3660   29.1058   44.6123 H   0  0  0  0  0  0  0  0  0  0  0  0
   37.0964   26.9418   44.5093 H   0  0  0  0  0  0  0  0  0  0  0  0
   35.8909   26.3653   42.3438 H   0  0  0  0  0  0  0  0  0  0  0  0
   35.9777   31.7454   40.8448 H   0  0  0  0  0  0  0  0  0  0  0  0
   37.7406   31.8839   41.3825 H   0  0  0  0  0  0  0  0  0  0  0  0
   36.5755   33.2829   39.4269 H   0  0  0  0  0  0  0  0  0  0  0  0
   38.3726   32.8494   39.6430 H   0  0  0  0  0  0  0  0  0  0  0  0
   36.8244   32.5367   37.4098 H   0  0  0  0  0  0  0  0  0  0  0  0
   38.4738   31.8472   37.8214 H   0  0  0  0  0  0  0  0  0  0  0  0
   35.7798   30.5213   38.1342 H   0  0  0  0  0  0  0  0  0  0  0  0
   37.1304   30.0809   37.0209 H   0  0  0  0  0  0  0  0  0  0  0  0
   37.0226   28.6319   39.0349 H   0  0  0  0  0  0  0  0  0  0  0  0
   38.5631   29.5567   38.9044 H   0  0  0  0  0  0  0  0  0  0  0  0
  2  1  2  0
  3  2  1  0
  4  5  1  0
  4  3  2  0
  5  6  2  0
  6  1  1  0
  7  8  1  0
  7  5  1  0
  9  8  1  0
 10  9  1  0
 11 10  1  0
 11 12  1  0
 12  7  1  0
  1 13  1  0
  2 14  1  0
  3 15  1  0
  8 16  1  0
  8 17  1  0
  9 18  1  0
  9 19  1  0
 10 20  1  0
 10 21  1  0
 11 22  1  0
 11 23  1  0
 12 24  1  0
 12 25  1  0
M  ISO  8  13  14  14  14  15  14  16  13  17  13  18  13  19  13  20  13
M  ISO  5  21  13  22  13  23  13  24  13  25  13
M  END
>  <minimizedAffinity>  (1) 
-4.09695721

>  <minimizedRMSD>  (1) 
1.05894411

$$$$
