
     RDKit          3D

 47 51  0  0  1  0  0  0  0  0999 V2000
   37.9800   30.4140   39.5890 C   0  0  1  0  0  0  0  0  0  0  0  0
   37.4250   30.5170   38.1460 C   0  0  0  0  0  0  0  0  0  0  0  0
   35.9730   30.1090   38.3880 C   0  0  0  0  0  0  0  0  0  0  0  0
   35.9600   29.3030   39.6650 C   0  0  0  0  0  0  0  0  0  0  0  0
   37.4110   29.1090   40.0130 C   0  0  2  0  0  0  0  0  0  0  0  0
   40.9180   35.0010   39.7440 C   0  0  0  0  0  0  0  0  0  0  0  0
   39.6690   35.5710   40.0770 C   0  0  0  0  0  0  0  0  0  0  0  0
   38.6110   34.7070   40.2830 C   0  0  0  0  0  0  0  0  0  0  0  0
   38.8320   33.3750   40.1540 N   0  0  0  0  0  0  0  0  0  0  0  0
   39.9950   32.8400   39.8450 C   0  0  0  0  0  0  0  0  0  0  0  0
   41.0570   33.6670   39.6360 N   0  0  0  0  0  0  0  0  0  0  0  0
   40.2760   31.4560   39.6920 N   0  0  0  0  0  0  0  0  0  0  0  0
   41.5510   31.0970   39.6500 N   0  0  0  0  0  0  0  0  0  0  0  0
   41.6070   29.7370   39.4850 C   0  0  0  0  0  0  0  0  0  0  0  0
   40.2770   29.3010   39.4320 C   0  0  0  0  0  0  0  0  0  0  0  0
   39.4500   30.4250   39.5670 C   0  0  0  0  0  0  0  0  0  0  0  0
   37.4920   28.8390   41.4210 N   0  0  0  0  0  0  0  0  0  0  0  0
   37.6580   29.6840   42.4160 N   0  0  0  0  0  0  0  0  0  0  0  0
   37.6860   29.0500   43.6060 C   0  0  0  0  0  0  0  0  0  0  0  0
   37.5240   27.6960   43.3070 C   0  0  0  0  0  0  0  0  0  0  0  0
   37.4050   27.5830   41.9350 C   0  0  0  0  0  0  0  0  0  0  0  0
   37.2230   26.2710   41.3260 C   0  0  0  0  0  0  0  0  0  0  0  0
   36.7230   25.9880   40.0710 C   0  0  0  0  0  0  0  0  0  0  0  0
   36.6170   24.6830   39.6370 C   0  0  0  0  0  0  0  0  0  0  0  0
   37.0000   23.6150   40.4220 C   0  0  0  0  0  0  0  0  0  0  0  0
   37.5070   23.8290   41.6870 C   0  0  0  0  0  0  0  0  0  0  0  0
   37.5950   25.1480   42.0780 C   0  0  0  0  0  0  0  0  0  0  0  0
   37.7148   31.2390   40.2666 H   0  0  0  0  0  0  0  0  0  0  0  0
   37.9352   29.8226   37.4623 H   0  0  0  0  0  0  0  0  0  0  0  0
   37.5559   31.4996   37.6692 H   0  0  0  0  0  0  0  0  0  0  0  0
   35.3405   31.0024   38.4963 H   0  0  0  0  0  0  0  0  0  0  0  0
   35.5790   29.5232   37.5444 H   0  0  0  0  0  0  0  0  0  0  0  0
   35.4400   29.8517   40.4641 H   0  0  0  0  0  0  0  0  0  0  0  0
   35.4304   28.3462   39.5463 H   0  0  0  0  0  0  0  0  0  0  0  0
   37.9466   28.2728   39.5397 H   0  0  0  0  0  0  0  0  0  0  0  0
   41.7858   35.6545   39.5712 H   0  0  0  0  0  0  0  0  0  0  0  0
   39.5439   36.6600   40.1686 H   0  0  0  0  0  0  0  0  0  0  0  0
   37.6137   35.0899   40.5452 H   0  0  0  0  0  0  0  0  0  0  0  0
   42.5114   29.1155   39.4097 H   0  0  0  0  0  0  0  0  0  0  0  0
   39.9410   28.2611   39.3067 H   0  0  0  0  0  0  0  0  0  0  0  0
   37.8101   29.5033   44.6006 H   0  0  0  0  0  0  0  0  0  0  0  0
   37.4961   26.8692   44.0320 H   0  0  0  0  0  0  0  0  0  0  0  0
   36.4065   26.8097   39.4117 H   0  0  0  0  0  0  0  0  0  0  0  0
   36.2140   24.4874   38.6323 H   0  0  0  0  0  0  0  0  0  0  0  0
   36.9007   22.5891   40.0378 H   0  0  0  0  0  0  0  0  0  0  0  0
   37.8204   23.0016   42.3406 H   0  0  0  0  0  0  0  0  0  0  0  0
   37.9986   25.3389   43.0833 H   0  0  0  0  0  0  0  0  0  0  0  0
  1  5  1  0
  2  3  1  0
  2  1  1  0
  3  4  1  0
  4  5  1  0
  5 17  1  0
  6  7  2  0
  7  8  1  0
  9  8  2  0
 10  9  1  0
 11  6  1  0
 11 10  2  0
 12 10  1  0
 13 12  1  0
 14 13  2  0
 15 14  1  0
 15 16  2  0
 16  1  1  0
 16 12  1  0
 17 21  1  0
 17 18  1  0
 18 19  2  0
 20 19  1  0
 21 20  2  0
 22 21  1  0
 22 27  1  0
 23 22  2  0
 24 23  1  0
 24 25  2  0
 25 26  1  0
 26 27  2  0
  1 28  1  1
  2 29  1  0
  2 30  1  0
  3 31  1  0
  3 32  1  0
  4 33  1  0
  4 34  1  0
  5 35  1  6
  6 36  1  0
  7 37  1  0
  8 38  1  0
 14 39  1  0
 15 40  1  0
 19 41  1  0
 20 42  1  0
 23 43  1  0
 24 44  1  0
 25 45  1  0
 26 46  1  0
 27 47  1  0
M  ISO  8  28  13  29  13  30  13  31  13  32  13  33  13  34  13  35  13
M  ISO  8  36  14  37  14  38  14  39  14  40  14  41  14  42  14  43  14
M  ISO  4  44  14  45  14  46  14  47  14
M  END
>  <minimizedAffinity>  (1) 
-6.77711964

>  <minimizedRMSD>  (1) 
1.37956059

$$$$
