
     RDKit          3D

 30 32  0  0  1  0  0  0  0  0999 V2000
   40.0660   27.3570   43.5620 C   0  0  0  0  0  0  0  0  0  0  0  0
   39.7500   25.9730   43.4350 C   0  0  0  0  0  0  0  0  0  0  0  0
   38.6290   25.6190   42.6560 C   0  0  0  0  0  0  0  0  0  0  0  0
   37.9190   26.6210   42.0720 N   0  0  0  0  0  0  0  0  0  0  0  0
   38.2410   27.9300   42.2070 C   0  0  0  0  0  0  0  0  0  0  0  0
   39.3060   28.2650   42.9490 N   0  0  0  0  0  0  0  0  0  0  0  0
   37.4250   28.8920   41.5420 N   0  0  0  0  0  0  0  0  0  0  0  0
   36.1750   28.4350   40.9850 C   0  0  0  0  0  0  0  0  0  0  0  0
   35.3300   29.5470   40.4380 C   0  0  0  0  0  0  0  0  0  0  0  0
   35.5640   30.7310   41.1870 N   0  0  0  0  0  0  0  0  0  0  0  0
   36.9060   31.2070   40.9130 C   0  0  0  0  0  0  0  0  0  0  0  0
   37.9300   30.2610   41.4820 C   0  0  2  0  0  0  0  0  0  0  0  0
   39.1920   30.3100   40.6660 C   0  0  0  0  0  0  0  0  0  0  0  0
   40.3760   31.1750   41.1840 C   0  0  0  0  0  0  0  0  0  0  0  0
   41.5820   30.9100   39.8870 S   0  0  0  0  0  0  0  0  0  0  0  0
   40.4440   29.7630   38.8850 C   0  0  0  0  0  0  0  0  0  0  0  0
   39.3760   29.6740   39.5170 N   0  0  0  0  0  0  0  0  0  0  0  0
   40.9316   27.6741   44.1621 H   0  0  0  0  0  0  0  0  0  0  0  0
   40.3619   25.2043   43.9296 H   0  0  0  0  0  0  0  0  0  0  0  0
   38.3383   24.5662   42.5250 H   0  0  0  0  0  0  0  0  0  0  0  0
   36.3928   27.7283   40.1706 H   0  0  0  0  0  0  0  0  0  0  0  0
   35.6068   27.9635   41.8004 H   0  0  0  0  0  0  0  0  0  0  0  0
   35.5916   29.7220   39.3840 H   0  0  0  0  0  0  0  0  0  0  0  0
   34.2678   29.2706   40.5108 H   0  0  0  0  0  0  0  0  0  0  0  0
   34.8801   31.4518   40.9157 H   0  0  0  0  0  0  0  0  0  0  0  0
   37.0480   31.2817   39.8248 H   0  0  0  0  0  0  0  0  0  0  0  0
   37.0352   32.1936   41.3820 H   0  0  0  0  0  0  0  0  0  0  0  0
   38.1482   30.5844   42.5105 H   0  0  0  0  0  0  0  0  0  0  0  0
   40.4519   31.7833   42.0974 H   0  0  0  0  0  0  0  0  0  0  0  0
   40.6837   29.2724   37.9301 H   0  0  0  0  0  0  0  0  0  0  0  0
  2  1  2  0
  3  2  1  0
  4  5  1  0
  4  3  2  0
  5  6  2  0
  6  1  1  0
  7  5  1  0
  8  7  1  0
  9  8  1  0
  9 10  1  0
 11 10  1  0
 11 12  1  0
 12  7  1  0
 13 14  2  0
 13 12  1  0
 15 14  1  0
 16 17  2  0
 16 15  1  0
 17 13  1  0
  1 18  1  0
  2 19  1  0
  3 20  1  0
  8 21  1  0
  8 22  1  0
  9 23  1  0
  9 24  1  0
 10 25  1  0
 11 26  1  0
 11 27  1  0
 12 28  1  1
 14 29  1  0
 16 30  1  0
M  ISO  8  18  14  19  14  20  14  21  13  22  13  23  13  24  13  25   5
M  ISO  5  26  13  27  13  28  13  29  14  30  14
M  END
>  <minimizedAffinity>  (1) 
-4.92116451

>  <minimizedRMSD>  (1) 
0.221095502

$$$$
