
     RDKit          3D

 34 36  0  0  1  0  0  0  0  0999 V2000
   38.3720   29.7400   42.5670 C   0  0  0  0  0  0  0  0  0  0  0  0
   37.8070   28.7990   43.4410 C   0  0  0  0  0  0  0  0  0  0  0  0
   36.9240   27.8730   42.8990 C   0  0  0  0  0  0  0  0  0  0  0  0
   36.6720   27.9460   41.5630 N   0  0  0  0  0  0  0  0  0  0  0  0
   37.2320   28.8680   40.7380 C   0  0  0  0  0  0  0  0  0  0  0  0
   38.0920   29.7700   41.2660 N   0  0  0  0  0  0  0  0  0  0  0  0
   36.8840   28.8380   39.3560 N   0  0  0  0  0  0  0  0  0  0  0  0
   35.6960   28.0750   38.9850 C   0  0  0  0  0  0  0  0  0  0  0  0
   35.3940   28.1860   37.5320 C   0  0  0  0  0  0  0  0  0  0  0  0
   35.7430   29.5020   37.0790 N   0  0  0  0  0  0  0  0  0  0  0  0
   37.1890   29.6000   37.0540 C   0  0  0  0  0  0  0  0  0  0  0  0
   37.7580   29.5780   38.4490 C   0  0  1  0  0  0  0  0  0  0  0  0
   38.0980   30.9210   38.9540 C   0  0  0  0  0  0  0  0  0  0  0  0
   39.3830   31.3500   39.2140 C   0  0  0  0  0  0  0  0  0  0  0  0
   39.6360   32.6340   39.6890 C   0  0  0  0  0  0  0  0  0  0  0  0
   38.5770   33.5010   39.9070 C   0  0  0  0  0  0  0  0  0  0  0  0
   37.2770   33.1260   39.6650 C   0  0  0  0  0  0  0  0  0  0  0  0
   37.0790   31.8440   39.1950 C   0  0  0  0  0  0  0  0  0  0  0  0
   39.0745   30.4827   42.9731 H   0  0  0  0  0  0  0  0  0  0  0  0
   38.0533   28.7945   44.5131 H   0  0  0  0  0  0  0  0  0  0  0  0
   36.4453   27.1076   43.5275 H   0  0  0  0  0  0  0  0  0  0  0  0
   35.8618   27.0163   39.2335 H   0  0  0  0  0  0  0  0  0  0  0  0
   34.8408   28.4850   39.5423 H   0  0  0  0  0  0  0  0  0  0  0  0
   35.9785   27.4381   36.9761 H   0  0  0  0  0  0  0  0  0  0  0  0
   34.3220   28.0077   37.3617 H   0  0  0  0  0  0  0  0  0  0  0  0
   35.3660   29.6572   36.1331 H   0  0  0  0  0  0  0  0  0  0  0  0
   37.5969   28.7508   36.4861 H   0  0  0  0  0  0  0  0  0  0  0  0
   37.4666   30.5521   36.5782 H   0  0  0  0  0  0  0  0  0  0  0  0
   38.7160   29.0396   38.4008 H   0  0  0  0  0  0  0  0  0  0  0  0
   40.2252   30.6634   39.0425 H   0  0  0  0  0  0  0  0  0  0  0  0
   40.6680   32.9577   39.8896 H   0  0  0  0  0  0  0  0  0  0  0  0
   38.7819   34.5142   40.2830 H   0  0  0  0  0  0  0  0  0  0  0  0
   36.4361   33.8139   39.8375 H   0  0  0  0  0  0  0  0  0  0  0  0
   36.0447   31.5268   38.9961 H   0  0  0  0  0  0  0  0  0  0  0  0
  1  2  2  0
  3  2  1  0
  4  3  2  0
  5  6  2  0
  5  4  1  0
  6  1  1  0
  7  5  1  0
  8  7  1  0
  9  8  1  0
 10  9  1  0
 11 10  1  0
 11 12  1  0
 12 13  1  0
 12  7  1  0
 13 18  1  0
 13 14  2  0
 14 15  1  0
 15 16  2  0
 17 16  1  0
 18 17  2  0
  1 19  1  0
  2 20  1  0
  3 21  1  0
  8 22  1  0
  8 23  1  0
  9 24  1  0
  9 25  1  0
 10 26  1  0
 11 27  1  0
 11 28  1  0
 12 29  1  6
 14 30  1  0
 15 31  1  0
 16 32  1  0
 17 33  1  0
 18 34  1  0
M  ISO  8  19  14  20  14  21  14  22  13  23  13  24  13  25  13  26   5
M  ISO  8  27  13  28  13  29  13  30  14  31  14  32  14  33  14  34  14
M  END
>  <minimizedAffinity>  (1) 
-4.84035063

>  <minimizedRMSD>  (1) 
3.72212386

$$$$
