
     RDKit          3D

 27 28  0  0  1  0  0  0  0  0999 V2000
   40.0280   27.3440   43.5590 C   0  0  0  0  0  0  0  0  0  0  0  0
   39.7270   25.9760   43.4090 C   0  0  0  0  0  0  0  0  0  0  0  0
   38.6390   25.6440   42.6070 C   0  0  0  0  0  0  0  0  0  0  0  0
   37.9450   26.6520   42.0280 N   0  0  0  0  0  0  0  0  0  0  0  0
   38.2500   27.9550   42.1850 C   0  0  0  0  0  0  0  0  0  0  0  0
   39.3010   28.2830   42.9590 N   0  0  0  0  0  0  0  0  0  0  0  0
   37.4390   28.9280   41.5200 N   0  0  0  0  0  0  0  0  0  0  0  0
   36.1610   28.4700   40.9950 C   0  0  0  0  0  0  0  0  0  0  0  0
   35.3090   29.5790   40.4920 C   0  0  0  0  0  0  0  0  0  0  0  0
   35.5900   30.7760   41.2100 N   0  0  0  0  0  0  0  0  0  0  0  0
   36.9310   31.2170   40.8470 C   0  0  0  0  0  0  0  0  0  0  0  0
   37.9720   30.2910   41.4310 C   0  0  2  0  0  0  0  0  0  0  0  0
   39.1410   30.3260   40.4380 C   0  0  0  0  0  0  0  0  0  0  0  0
   39.0760   29.2080   39.6290 F   0  0  0  0  0  0  0  0  0  0  0  0
   40.3580   30.3420   41.0470 F   0  0  0  0  0  0  0  0  0  0  0  0
   38.9260   31.4780   39.6730 F   0  0  0  0  0  0  0  0  0  0  0  0
   40.8818   27.6421   44.1852 H   0  0  0  0  0  0  0  0  0  0  0  0
   40.3283   25.2006   43.9062 H   0  0  0  0  0  0  0  0  0  0  0  0
   38.3516   24.5941   42.4483 H   0  0  0  0  0  0  0  0  0  0  0  0
   36.3522   27.7715   40.1670 H   0  0  0  0  0  0  0  0  0  0  0  0
   35.6192   27.9878   41.8220 H   0  0  0  0  0  0  0  0  0  0  0  0
   35.5138   29.7392   39.4232 H   0  0  0  0  0  0  0  0  0  0  0  0
   34.2511   29.3135   40.6345 H   0  0  0  0  0  0  0  0  0  0  0  0
   34.9039   31.5024   40.9600 H   0  0  0  0  0  0  0  0  0  0  0  0
   37.0256   31.2218   39.7511 H   0  0  0  0  0  0  0  0  0  0  0  0
   37.0919   32.2288   41.2475 H   0  0  0  0  0  0  0  0  0  0  0  0
   38.2744   30.5967   42.4435 H   0  0  0  0  0  0  0  0  0  0  0  0
  2  1  2  0
  3  2  1  0
  4  5  1  0
  4  3  2  0
  5  6  2  0
  6  1  1  0
  7  5  1  0
  8  7  1  0
  9  8  1  0
  9 10  1  0
 11 10  1  0
 11 12  1  0
 12  7  1  0
 13 15  1  0
 13 12  1  0
 14 13  1  0
 16 13  1  0
  1 17  1  0
  2 18  1  0
  3 19  1  0
  8 20  1  0
  8 21  1  0
  9 22  1  0
  9 23  1  0
 10 24  1  0
 11 25  1  0
 11 26  1  0
 12 27  1  1
M  ISO  8  17  14  18  14  19  14  20  13  21  13  22  13  23  13  24   5
M  ISO  3  25  13  26  13  27  13
M  END
>  <minimizedAffinity>  (1) 
-4.79488516

>  <minimizedRMSD>  (1) 
0.535989344

$$$$
