
     RDKit          3D

 50 55  0  0  1  0  0  0  0  0999 V2000
   38.3880   30.6000   39.3280 C   0  0  1  0  0  0  0  0  0  0  0  0
   37.7810   30.6170   37.8980 C   0  0  0  0  0  0  0  0  0  0  0  0
   36.3880   30.0680   38.1890 C   0  0  0  0  0  0  0  0  0  0  0  0
   36.4860   29.2940   39.4790 C   0  0  0  0  0  0  0  0  0  0  0  0
   37.9690   29.2550   39.7830 C   0  0  2  0  0  0  0  0  0  0  0  0
   40.7790   35.4820   39.6770 C   0  0  0  0  0  0  0  0  0  0  0  0
   39.4960   35.8890   40.0780 C   0  0  0  0  0  0  0  0  0  0  0  0
   38.5510   34.9010   40.2670 C   0  0  0  0  0  0  0  0  0  0  0  0
   38.9180   33.6110   40.0550 N   0  0  0  0  0  0  0  0  0  0  0  0
   40.1190   33.2290   39.6790 C   0  0  0  0  0  0  0  0  0  0  0  0
   41.0730   34.1800   39.4840 N   0  0  0  0  0  0  0  0  0  0  0  0
   40.5460   31.8960   39.4350 N   0  0  0  0  0  0  0  0  0  0  0  0
   41.8520   31.6860   39.3380 N   0  0  0  0  0  0  0  0  0  0  0  0
   42.0540   30.3540   39.0890 C   0  0  0  0  0  0  0  0  0  0  0  0
   40.7780   29.7750   39.0440 C   0  0  0  0  0  0  0  0  0  0  0  0
   39.8370   30.7880   39.2690 C   0  0  0  0  0  0  0  0  0  0  0  0
   38.1130   29.0210   41.1960 N   0  0  0  0  0  0  0  0  0  0  0  0
   37.8000   29.7970   42.2020 N   0  0  0  0  0  0  0  0  0  0  0  0
   38.0850   29.2270   43.3900 C   0  0  0  0  0  0  0  0  0  0  0  0
   38.6250   27.9880   43.0800 C   0  0  0  0  0  0  0  0  0  0  0  0
   38.6340   27.8800   41.7180 C   0  0  0  0  0  0  0  0  0  0  0  0
   39.1130   26.7510   40.9950 N   0  0  0  0  0  0  0  0  0  0  0  0
   40.2500   26.4770   40.3320 C   0  0  0  0  0  0  0  0  0  0  0  0
   40.1360   25.2350   39.8450 N   0  0  0  0  0  0  0  0  0  0  0  0
   38.9490   24.7070   40.1800 C   0  0  0  0  0  0  0  0  0  0  0  0
   38.4360   23.4770   39.8870 C   0  0  0  0  0  0  0  0  0  0  0  0
   37.2040   23.2050   40.3570 N   0  0  0  0  0  0  0  0  0  0  0  0
   36.5340   24.1250   41.0790 C   0  0  0  0  0  0  0  0  0  0  0  0
   37.0650   25.3160   41.3460 N   0  0  0  0  0  0  0  0  0  0  0  0
   38.2800   25.6740   40.9230 C   0  0  0  0  0  0  0  0  0  0  0  0
   39.1440   22.5190   39.1310 N   0  0  0  0  0  0  0  0  0  0  0  0
   38.0582   31.3997   40.0075 H   0  0  0  0  0  0  0  0  0  0  0  0
   38.3402   29.9654   37.2104 H   0  0  0  0  0  0  0  0  0  0  0  0
   37.7955   31.5989   37.4024 H   0  0  0  0  0  0  0  0  0  0  0  0
   35.6701   30.8944   38.2968 H   0  0  0  0  0  0  0  0  0  0  0  0
   36.0377   29.4248   37.3683 H   0  0  0  0  0  0  0  0  0  0  0  0
   35.9372   29.8063   40.2830 H   0  0  0  0  0  0  0  0  0  0  0  0
   36.0478   28.2882   39.3989 H   0  0  0  0  0  0  0  0  0  0  0  0
   38.5740   28.4720   39.3025 H   0  0  0  0  0  0  0  0  0  0  0  0
   41.5597   36.2403   39.5172 H   0  0  0  0  0  0  0  0  0  0  0  0
   39.2544   36.9506   40.2348 H   0  0  0  0  0  0  0  0  0  0  0  0
   37.5272   35.1521   40.5812 H   0  0  0  0  0  0  0  0  0  0  0  0
   43.0189   29.8438   38.9525 H   0  0  0  0  0  0  0  0  0  0  0  0
   40.5551   28.7130   38.8639 H   0  0  0  0  0  0  0  0  0  0  0  0
   37.9237   29.6535   44.3910 H   0  0  0  0  0  0  0  0  0  0  0  0
   38.9799   27.2329   43.7969 H   0  0  0  0  0  0  0  0  0  0  0  0
   41.1132   27.1482   40.2120 H   0  0  0  0  0  0  0  0  0  0  0  0
   35.5281   23.8868   41.4552 H   0  0  0  0  0  0  0  0  0  0  0  0
   38.7184   21.6021   38.9332 H   0  0  0  0  0  0  0  0  0  0  0  0
   40.0865   22.7365   38.7769 H   0  0  0  0  0  0  0  0  0  0  0  0
  1  5  1  0
  2  3  1  0
  2  1  1  0
  3  4  1  0
  4  5  1  0
  5 17  1  0
  6  7  2  0
  7  8  1  0
  9  8  2  0
 10  9  1  0
 11  6  1  0
 11 10  2  0
 12 10  1  0
 13 12  1  0
 14 13  2  0
 15 14  1  0
 15 16  2  0
 16  1  1  0
 16 12  1  0
 17 21  1  0
 17 18  1  0
 18 19  2  0
 20 19  1  0
 21 20  2  0
 22 21  1  0
 23 22  1  0
 24 25  1  0
 24 23  2  0
 25 30  2  0
 26 25  1  0
 26 27  2  0
 27 28  1  0
 28 29  2  0
 30 22  1  0
 30 29  1  0
 31 26  1  0
  1 32  1  1
  2 33  1  0
  2 34  1  0
  3 35  1  0
  3 36  1  0
  4 37  1  0
  4 38  1  0
  5 39  1  6
  6 40  1  0
  7 41  1  0
  8 42  1  0
 14 43  1  0
 15 44  1  0
 19 45  1  0
 20 46  1  0
 23 47  1  0
 28 48  1  0
 31 49  1  0
 31 50  1  0
M  ISO  8  32  13  33  13  34  13  35  13  36  13  37  13  38  13  39  13
M  ISO  8  40  14  41  14  42  14  43  14  44  14  45  14  46  14  47  14
M  ISO  1  48  14
M  END
>  <minimizedAffinity>  (1) 
-6.7128706

>  <minimizedRMSD>  (1) 
0.868496001

$$$$
