
     RDKit          3D

 33 34  0  0  1  0  0  0  0  0999 V2000
   40.0270   27.3280   43.5870 C   0  0  0  0  0  0  0  0  0  0  0  0
   39.7370   25.9550   43.4500 C   0  0  0  0  0  0  0  0  0  0  0  0
   38.6390   25.5940   42.6400 C   0  0  0  0  0  0  0  0  0  0  0  0
   37.9360   26.5900   42.0460 N   0  0  0  0  0  0  0  0  0  0  0  0
   38.2310   27.8960   42.1910 C   0  0  0  0  0  0  0  0  0  0  0  0
   39.2760   28.2330   42.9620 N   0  0  0  0  0  0  0  0  0  0  0  0
   37.4380   28.8740   41.5300 N   0  0  0  0  0  0  0  0  0  0  0  0
   36.1970   28.4040   40.9200 C   0  0  0  0  0  0  0  0  0  0  0  0
   35.3050   29.4970   40.4710 C   0  0  0  0  0  0  0  0  0  0  0  0
   35.5540   30.6930   41.2060 N   0  0  0  0  0  0  0  0  0  0  0  0
   36.8970   31.1690   40.8790 C   0  0  0  0  0  0  0  0  0  0  0  0
   37.9140   30.2520   41.5100 C   0  0  2  0  0  0  0  0  0  0  0  0
   39.2680   30.4230   40.9050 C   0  0  0  0  0  0  0  0  0  0  0  0
   39.8110   31.7330   41.4920 C   0  0  0  0  0  0  0  0  0  0  0  0
   39.2800   30.4990   39.4130 C   0  0  0  0  0  0  0  0  0  0  0  0
   40.8737   27.6517   44.2102 H   0  0  0  0  0  0  0  0  0  0  0  0
   40.3455   25.1916   43.9569 H   0  0  0  0  0  0  0  0  0  0  0  0
   38.3625   24.5392   42.4953 H   0  0  0  0  0  0  0  0  0  0  0  0
   36.4516   27.7830   40.0485 H   0  0  0  0  0  0  0  0  0  0  0  0
   35.6523   27.8401   41.6915 H   0  0  0  0  0  0  0  0  0  0  0  0
   35.4803   29.6884   39.4021 H   0  0  0  0  0  0  0  0  0  0  0  0
   34.2622   29.1912   40.6413 H   0  0  0  0  0  0  0  0  0  0  0  0
   34.8597   31.4092   40.9493 H   0  0  0  0  0  0  0  0  0  0  0  0
   37.0310   31.1716   39.7872 H   0  0  0  0  0  0  0  0  0  0  0  0
   37.0312   32.1909   41.2634 H   0  0  0  0  0  0  0  0  0  0  0  0
   38.0363   30.5414   42.5642 H   0  0  0  0  0  0  0  0  0  0  0  0
   39.8783   29.5388   41.1411 H   0  0  0  0  0  0  0  0  0  0  0  0
   39.7888   31.6795   42.5905 H   0  0  0  0  0  0  0  0  0  0  0  0
   40.8464   31.8853   41.1531 H   0  0  0  0  0  0  0  0  0  0  0  0
   39.1870   32.5731   41.1531 H   0  0  0  0  0  0  0  0  0  0  0  0
   39.4445   31.5407   39.1002 H   0  0  0  0  0  0  0  0  0  0  0  0
   40.0893   29.8661   39.0201 H   0  0  0  0  0  0  0  0  0  0  0  0
   38.3150   30.1462   39.0201 H   0  0  0  0  0  0  0  0  0  0  0  0
  2  1  2  0
  3  2  1  0
  4  5  1  0
  4  3  2  0
  5  6  2  0
  6  1  1  0
  7  5  1  0
  8  7  1  0
  9  8  1  0
  9 10  1  0
 11 10  1  0
 11 12  1  0
 12  7  1  0
 13 14  1  0
 13 12  1  0
 15 13  1  0
  1 16  1  0
  2 17  1  0
  3 18  1  0
  8 19  1  0
  8 20  1  0
  9 21  1  0
  9 22  1  0
 10 23  1  0
 11 24  1  0
 11 25  1  0
 12 26  1  1
 13 27  1  0
 14 28  1  0
 14 29  1  0
 14 30  1  0
 15 31  1  0
 15 32  1  0
 15 33  1  0
M  ISO  8  16  14  17  14  18  14  19  13  20  13  21  13  22  13  23   5
M  ISO  8  24  13  25  13  26  13  27   8  28   8  29   8  30   8  31   8
M  ISO  2  32   8  33   8
M  END
>  <minimizedAffinity>  (1) 
-4.75315332

>  <minimizedRMSD>  (1) 
0.200167328

$$$$
