
     RDKit          3D

 32 34  0  0  1  0  0  0  0  0999 V2000
   38.1470   29.3370   43.1850 C   0  0  0  0  0  0  0  0  0  0  0  0
   37.4700   28.3550   43.9210 C   0  0  0  0  0  0  0  0  0  0  0  0
   36.6130   27.5110   43.2230 C   0  0  0  0  0  0  0  0  0  0  0  0
   36.4860   27.6920   41.8760 N   0  0  0  0  0  0  0  0  0  0  0  0
   37.1470   28.6400   41.2040 C   0  0  0  0  0  0  0  0  0  0  0  0
   37.9810   29.4630   41.8750 N   0  0  0  0  0  0  0  0  0  0  0  0
   36.9490   28.7560   39.7930 N   0  0  0  0  0  0  0  0  0  0  0  0
   35.7530   28.1130   39.2590 C   0  0  0  0  0  0  0  0  0  0  0  0
   35.5950   28.3750   37.7950 C   0  0  0  0  0  0  0  0  0  0  0  0
   36.0210   29.7280   37.5370 N   0  0  0  0  0  0  0  0  0  0  0  0
   37.4890   29.7200   37.6150 C   0  0  0  0  0  0  0  0  0  0  0  0
   37.9510   29.4950   39.0200 C   0  0  1  0  0  0  0  0  0  0  0  0
   38.3840   30.7420   39.6900 C   0  0  0  0  0  0  0  0  0  0  0  0
   39.6320   31.0250   40.1960 C   0  0  0  0  0  0  0  0  0  0  0  0
   39.9240   32.2280   40.8050 C   0  0  0  0  0  0  0  0  0  0  0  0
   38.9750   33.1770   40.9220 N   0  0  0  0  0  0  0  0  0  0  0  0
   37.7400   32.9150   40.4300 C   0  0  0  0  0  0  0  0  0  0  0  0
   37.4760   31.7530   39.8470 N   0  0  0  0  0  0  0  0  0  0  0  0
   38.8332   30.0203   43.7068 H   0  0  0  0  0  0  0  0  0  0  0  0
   37.6109   28.2558   45.0074 H   0  0  0  0  0  0  0  0  0  0  0  0
   36.0529   26.7193   43.7421 H   0  0  0  0  0  0  0  0  0  0  0  0
   35.8283   27.0277   39.4215 H   0  0  0  0  0  0  0  0  0  0  0  0
   34.8773   28.5280   39.7796 H   0  0  0  0  0  0  0  0  0  0  0  0
   36.2161   27.6719   37.2206 H   0  0  0  0  0  0  0  0  0  0  0  0
   34.5458   28.2402   37.4933 H   0  0  0  0  0  0  0  0  0  0  0  0
   35.6297   30.3662   38.2444 H   0  0  0  0  0  0  0  0  0  0  0  0
   37.8787   28.9146   36.9751 H   0  0  0  0  0  0  0  0  0  0  0  0
   37.8629   30.6974   37.2759 H   0  0  0  0  0  0  0  0  0  0  0  0
   38.8520   28.8662   38.9673 H   0  0  0  0  0  0  0  0  0  0  0  0
   40.4239   30.2661   40.1120 H   0  0  0  0  0  0  0  0  0  0  0  0
   40.9352   32.4129   41.1964 H   0  0  0  0  0  0  0  0  0  0  0  0
   36.9481   33.6737   40.5149 H   0  0  0  0  0  0  0  0  0  0  0  0
  1  2  2  0
  3  2  1  0
  4  3  2  0
  5  6  2  0
  5  4  1  0
  6  1  1  0
  7  5  1  0
  8  7  1  0
  9  8  1  0
 10 11  1  0
 10  9  1  0
 11 12  1  0
 12 13  1  0
 12  7  1  0
 13 18  1  0
 13 14  2  0
 14 15  1  0
 15 16  2  0
 17 16  1  0
 18 17  2  0
  1 19  1  0
  2 20  1  0
  3 21  1  0
  8 22  1  0
  8 23  1  0
  9 24  1  0
  9 25  1  0
 10 26  1  0
 11 27  1  0
 11 28  1  0
 12 29  1  6
 14 30  1  0
 15 31  1  0
 17 32  1  0
M  ISO  8  19  14  20  14  21  14  22  13  23  13  24  13  25  13  26   5
M  ISO  6  27  13  28  13  29  13  30  14  31  14  32  14
M  END
>  <minimizedAffinity>  (1) 
-4.6833849

>  <minimizedRMSD>  (1) 
3.1710701

$$$$
