
     RDKit          3D

 34 36  0  0  1  0  0  0  0  0999 V2000
   38.2320   27.3090   43.2650 C   0  0  0  0  0  0  0  0  0  0  0  0
   39.3920   26.7310   43.8100 C   0  0  0  0  0  0  0  0  0  0  0  0
   40.5980   27.3930   43.6070 C   0  0  0  0  0  0  0  0  0  0  0  0
   40.5720   28.5500   42.8990 N   0  0  0  0  0  0  0  0  0  0  0  0
   39.4600   29.0910   42.3850 C   0  0  0  0  0  0  0  0  0  0  0  0
   38.2990   28.4470   42.5840 N   0  0  0  0  0  0  0  0  0  0  0  0
   39.5340   30.3080   41.6580 N   0  0  0  0  0  0  0  0  0  0  0  0
   40.8720   30.7600   41.2890 C   0  0  0  0  0  0  0  0  0  0  0  0
   40.8770   31.9210   40.3660 C   0  0  0  0  0  0  0  0  0  0  0  0
   39.6700   31.9540   39.5920 N   0  0  0  0  0  0  0  0  0  0  0  0
   38.5770   32.2490   40.5300 C   0  0  0  0  0  0  0  0  0  0  0  0
   38.2960   31.0090   41.3360 C   0  0  1  0  0  0  0  0  0  0  0  0
   37.3610   30.1510   40.5630 C   0  0  0  0  0  0  0  0  0  0  0  0
   37.7890   29.4280   39.4750 C   0  0  0  0  0  0  0  0  0  0  0  0
   36.8820   28.6310   38.7720 C   0  0  0  0  0  0  0  0  0  0  0  0
   35.5390   28.5470   39.1490 C   0  0  0  0  0  0  0  0  0  0  0  0
   35.0850   29.2750   40.2530 C   0  0  0  0  0  0  0  0  0  0  0  0
   36.0220   30.0470   40.9110 C   0  0  0  0  0  0  0  0  0  0  0  0
   37.2597   26.8138   43.4041 H   0  0  0  0  0  0  0  0  0  0  0  0
   39.3472   25.7892   44.3765 H   0  0  0  0  0  0  0  0  0  0  0  0
   41.5411   26.9921   44.0069 H   0  0  0  0  0  0  0  0  0  0  0  0
   41.4078   31.0440   42.2068 H   0  0  0  0  0  0  0  0  0  0  0  0
   41.3575   29.9270   40.7595 H   0  0  0  0  0  0  0  0  0  0  0  0
   40.9566   32.8486   40.9519 H   0  0  0  0  0  0  0  0  0  0  0  0
   41.7344   31.8283   39.6832 H   0  0  0  0  0  0  0  0  0  0  0  0
   39.7291   32.6889   38.8728 H   0  0  0  0  0  0  0  0  0  0  0  0
   38.8739   33.0688   41.2006 H   0  0  0  0  0  0  0  0  0  0  0  0
   37.6759   32.5532   39.9773 H   0  0  0  0  0  0  0  0  0  0  0  0
   37.8294   31.2782   42.2951 H   0  0  0  0  0  0  0  0  0  0  0  0
   38.8415   29.4767   39.1591 H   0  0  0  0  0  0  0  0  0  0  0  0
   37.2330   28.0566   37.9020 H   0  0  0  0  0  0  0  0  0  0  0  0
   34.8433   27.9121   38.5807 H   0  0  0  0  0  0  0  0  0  0  0  0
   34.0356   29.2349   40.5805 H   0  0  0  0  0  0  0  0  0  0  0  0
   35.6792   30.6261   41.7811 H   0  0  0  0  0  0  0  0  0  0  0  0
  1  2  2  0
  3  2  1  0
  4  3  2  0
  5  6  2  0
  5  4  1  0
  6  1  1  0
  7  5  1  0
  8  7  1  0
  9  8  1  0
 10  9  1  0
 10 11  1  0
 11 12  1  0
 12  7  1  0
 13 18  1  0
 13 12  1  0
 14 13  2  0
 15 16  2  0
 15 14  1  0
 16 17  1  0
 17 18  2  0
  1 19  1  0
  2 20  1  0
  3 21  1  0
  8 22  1  0
  8 23  1  0
  9 24  1  0
  9 25  1  0
 10 26  1  0
 11 27  1  0
 11 28  1  0
 12 29  1  1
 14 30  1  0
 15 31  1  0
 16 32  1  0
 17 33  1  0
 18 34  1  0
M  ISO  8  19  14  20  14  21  14  22  13  23  13  24  13  25  13  26   5
M  ISO  8  27  13  28  13  29  13  30  14  31  14  32  14  33  14  34  14
M  END
>  <minimizedAffinity>  (1) 
-4.6706028

>  <minimizedRMSD>  (1) 
4.18301725

$$$$
