
     RDKit          3D

 27 28  0  0  1  0  0  0  0  0999 V2000
   40.5830   27.9590   43.2830 C   0  0  0  0  0  0  0  0  0  0  0  0
   40.1870   26.6420   43.5590 C   0  0  0  0  0  0  0  0  0  0  0  0
   38.9430   26.2360   43.0880 C   0  0  0  0  0  0  0  0  0  0  0  0
   38.2200   27.1530   42.4010 N   0  0  0  0  0  0  0  0  0  0  0  0
   38.6070   28.4070   42.1430 C   0  0  0  0  0  0  0  0  0  0  0  0
   39.8110   28.7940   42.6010 N   0  0  0  0  0  0  0  0  0  0  0  0
   37.7420   29.2650   41.4060 N   0  0  0  0  0  0  0  0  0  0  0  0
   36.3520   28.8430   41.2800 C   0  0  0  0  0  0  0  0  0  0  0  0
   35.5190   29.8710   40.5900 C   0  0  0  0  0  0  0  0  0  0  0  0
   35.9950   31.1770   40.9660 N   0  0  0  0  0  0  0  0  0  0  0  0
   37.2750   31.3640   40.2480 C   0  0  0  0  0  0  0  0  0  0  0  0
   38.3320   30.4840   40.8430 C   0  0  1  0  0  0  0  0  0  0  0  0
   39.1860   31.2010   41.8200 C   0  0  0  0  0  0  0  0  0  0  0  0
   39.1010   32.4210   41.4450 O   0  0  0  0  0  0  0  0  0  0  0  0
   40.0250   31.3500   42.8980 O   0  0  0  0  0  0  0  0  0  0  0  0
   41.5618   28.3091   43.6426 H   0  0  0  0  0  0  0  0  0  0  0  0
   40.8349   25.9572   44.1257 H   0  0  0  0  0  0  0  0  0  0  0  0
   38.5640   25.2186   43.2649 H   0  0  0  0  0  0  0  0  0  0  0  0
   36.3151   27.9083   40.7012 H   0  0  0  0  0  0  0  0  0  0  0  0
   35.9463   28.6987   42.2922 H   0  0  0  0  0  0  0  0  0  0  0  0
   34.4672   29.7590   40.8918 H   0  0  0  0  0  0  0  0  0  0  0  0
   35.5927   29.7440   39.4998 H   0  0  0  0  0  0  0  0  0  0  0  0
   35.3175   31.9000   40.6847 H   0  0  0  0  0  0  0  0  0  0  0  0
   37.5881   32.4153   40.3301 H   0  0  0  0  0  0  0  0  0  0  0  0
   37.1370   31.0964   39.1900 H   0  0  0  0  0  0  0  0  0  0  0  0
   39.0040   30.1810   40.0266 H   0  0  0  0  0  0  0  0  0  0  0  0
   40.3572   32.2490   43.1462 H   0  0  0  0  0  0  0  0  0  0  0  0
  1  2  2  0
  3  2  1  0
  4  3  2  0
  5  4  1  0
  5  6  2  0
  6  1  1  0
  7  5  1  0
  8  7  1  0
  9 10  1  0
  9  8  1  0
 11 12  1  0
 11 10  1  0
 12  7  1  0
 12 13  1  0
 13 15  1  0
 14 13  2  0
  1 16  1  0
  2 17  1  0
  3 18  1  0
  8 19  1  0
  8 20  1  0
  9 21  1  0
  9 22  1  0
 10 23  1  0
 11 24  1  0
 11 25  1  0
 12 26  1  6
 15 27  1  0
M  ISO  8  16  14  17  14  18  14  19  13  20  13  21  13  22  13  23   5
M  ISO  4  24  13  25  13  26  13  27   3
M  END
>  <minimizedAffinity>  (1) 
-4.6196208

>  <minimizedRMSD>  (1) 
0.870535731

$$$$
