
     RDKit          3D

 30 31  0  0  1  0  0  0  0  0999 V2000
   39.9010   27.2250   43.7040 C   0  0  0  0  0  0  0  0  0  0  0  0
   39.6560   25.8690   43.4430 C   0  0  0  0  0  0  0  0  0  0  0  0
   38.6090   25.5510   42.5600 C   0  0  0  0  0  0  0  0  0  0  0  0
   37.8840   26.5680   42.0020 N   0  0  0  0  0  0  0  0  0  0  0  0
   38.1550   27.8690   42.2830 C   0  0  0  0  0  0  0  0  0  0  0  0
   39.1550   28.1580   43.1250 N   0  0  0  0  0  0  0  0  0  0  0  0
   37.3700   28.8720   41.6710 N   0  0  0  0  0  0  0  0  0  0  0  0
   36.0860   28.4680   41.1360 C   0  0  0  0  0  0  0  0  0  0  0  0
   35.3340   29.5810   40.4910 C   0  0  0  0  0  0  0  0  0  0  0  0
   35.6020   30.7770   41.2170 N   0  0  0  0  0  0  0  0  0  0  0  0
   36.9780   31.1810   40.9460 C   0  0  0  0  0  0  0  0  0  0  0  0
   37.9140   30.2320   41.6240 C   0  0  2  0  0  0  0  0  0  0  0  0
   39.3050   30.2960   41.0520 C   0  0  0  0  0  0  0  0  0  0  0  0
   39.9710   31.4860   41.7540 C   0  0  0  0  0  0  0  0  0  0  0  0
   40.7115   27.5155   44.3886 H   0  0  0  0  0  0  0  0  0  0  0  0
   40.2624   25.0809   43.9132 H   0  0  0  0  0  0  0  0  0  0  0  0
   38.3769   24.5024   42.3220 H   0  0  0  0  0  0  0  0  0  0  0  0
   36.2533   27.6805   40.3864 H   0  0  0  0  0  0  0  0  0  0  0  0
   35.4790   28.1156   41.9830 H   0  0  0  0  0  0  0  0  0  0  0  0
   35.6623   29.6970   39.4476 H   0  0  0  0  0  0  0  0  0  0  0  0
   34.2553   29.3655   40.4976 H   0  0  0  0  0  0  0  0  0  0  0  0
   34.9554   31.5197   40.9150 H   0  0  0  0  0  0  0  0  0  0  0  0
   37.1592   31.1638   39.8612 H   0  0  0  0  0  0  0  0  0  0  0  0
   37.1452   32.1992   41.3273 H   0  0  0  0  0  0  0  0  0  0  0  0
   38.0094   30.5595   42.6698 H   0  0  0  0  0  0  0  0  0  0  0  0
   39.8531   29.3662   41.2643 H   0  0  0  0  0  0  0  0  0  0  0  0
   39.2960   30.4147   39.9585 H   0  0  0  0  0  0  0  0  0  0  0  0
   39.8984   31.3563   42.8439 H   0  0  0  0  0  0  0  0  0  0  0  0
   41.0299   31.5390   41.4608 H   0  0  0  0  0  0  0  0  0  0  0  0
   39.4624   32.4162   41.4608 H   0  0  0  0  0  0  0  0  0  0  0  0
  2  1  2  0
  3  2  1  0
  4  5  1  0
  4  3  2  0
  5  6  2  0
  6  1  1  0
  7  5  1  0
  8  7  1  0
  9  8  1  0
  9 10  1  0
 11 10  1  0
 11 12  1  0
 12  7  1  0
 13 12  1  0
 13 14  1  0
  1 15  1  0
  2 16  1  0
  3 17  1  0
  8 18  1  0
  8 19  1  0
  9 20  1  0
  9 21  1  0
 10 22  1  0
 11 23  1  0
 11 24  1  0
 12 25  1  1
 13 26  1  0
 13 27  1  0
 14 28  1  0
 14 29  1  0
 14 30  1  0
M  ISO  8  15  14  16  14  17  14  18  13  19  13  20  13  21  13  22   5
M  ISO  8  23  13  24  13  25  13  26   8  27   8  28   8  29   8  30   8
M  END
>  <minimizedAffinity>  (1) 
-4.59020853

>  <minimizedRMSD>  (1) 
0.562040687

$$$$
