
     RDKit          3D

 25 26  0  0  1  0  0  0  0  0999 V2000
   40.1190   27.2740   43.5050 C   0  0  0  0  0  0  0  0  0  0  0  0
   39.7550   25.9040   43.4300 C   0  0  0  0  0  0  0  0  0  0  0  0
   38.6110   25.5750   42.7040 C   0  0  0  0  0  0  0  0  0  0  0  0
   37.9060   26.5830   42.1080 N   0  0  0  0  0  0  0  0  0  0  0  0
   38.2850   27.8780   42.2020 C   0  0  0  0  0  0  0  0  0  0  0  0
   39.3830   28.2030   42.8990 N   0  0  0  0  0  0  0  0  0  0  0  0
   37.4830   28.8540   41.5460 N   0  0  0  0  0  0  0  0  0  0  0  0
   36.1630   28.4310   41.0880 C   0  0  0  0  0  0  0  0  0  0  0  0
   35.3540   29.5520   40.5240 C   0  0  0  0  0  0  0  0  0  0  0  0
   35.6470   30.7400   41.2500 N   0  0  0  0  0  0  0  0  0  0  0  0
   36.9930   31.1700   40.9110 C   0  0  0  0  0  0  0  0  0  0  0  0
   38.0390   30.1990   41.3790 C   0  0  1  0  0  0  0  0  0  0  0  0
   38.7890   30.6240   42.4430 O   0  0  0  0  0  0  0  0  0  0  0  0
   41.0162   27.5702   44.0682 H   0  0  0  0  0  0  0  0  0  0  0  0
   40.3552   25.1281   43.9278 H   0  0  0  0  0  0  0  0  0  0  0  0
   38.2835   24.5288   42.6130 H   0  0  0  0  0  0  0  0  0  0  0  0
   36.2911   27.6648   40.3092 H   0  0  0  0  0  0  0  0  0  0  0  0
   35.6208   28.0414   41.9622 H   0  0  0  0  0  0  0  0  0  0  0  0
   35.6088   29.6946   39.4635 H   0  0  0  0  0  0  0  0  0  0  0  0
   34.2824   29.3181   40.6073 H   0  0  0  0  0  0  0  0  0  0  0  0
   34.9732   31.4767   40.9966 H   0  0  0  0  0  0  0  0  0  0  0  0
   37.0673   31.2697   39.8181 H   0  0  0  0  0  0  0  0  0  0  0  0
   37.1759   32.1297   41.4166 H   0  0  0  0  0  0  0  0  0  0  0  0
   38.7792   30.1448   40.5671 H   0  0  0  0  0  0  0  0  0  0  0  0
   38.3388   30.3689   43.2870 H   0  0  0  0  0  0  0  0  0  0  0  0
  2  1  2  0
  3  2  1  0
  4  5  1  0
  4  3  2  0
  5  6  2  0
  6  1  1  0
  7  5  1  0
  8  7  1  0
  9  8  1  0
  9 10  1  0
 11 10  1  0
 11 12  1  0
 12  7  1  0
 12 13  1  0
  1 14  1  0
  2 15  1  0
  3 16  1  0
  8 17  1  0
  8 18  1  0
  9 19  1  0
  9 20  1  0
 10 21  1  0
 11 22  1  0
 11 23  1  0
 12 24  1  6
 13 25  1  0
M  ISO  8  14  14  15  14  16  14  17  13  18  13  19  13  20  13  21   5
M  ISO  4  22  13  23  13  24  13  25   3
M  END
>  <minimizedAffinity>  (1) 
-4.56461859

>  <minimizedRMSD>  (1) 
0.0827264264

$$$$
