
     RDKit          3D

 27 28  0  0  1  0  0  0  0  0999 V2000
   40.1450   27.1830   43.4630 C   0  0  0  0  0  0  0  0  0  0  0  0
   39.7400   25.8420   43.4030 C   0  0  0  0  0  0  0  0  0  0  0  0
   38.5720   25.5510   42.7050 C   0  0  0  0  0  0  0  0  0  0  0  0
   37.9050   26.5850   42.1290 N   0  0  0  0  0  0  0  0  0  0  0  0
   38.3180   27.8750   42.2020 C   0  0  0  0  0  0  0  0  0  0  0  0
   39.4570   28.1570   42.8830 N   0  0  0  0  0  0  0  0  0  0  0  0
   37.5270   28.8680   41.5510 N   0  0  0  0  0  0  0  0  0  0  0  0
   36.1780   28.5010   41.1630 C   0  0  0  0  0  0  0  0  0  0  0  0
   35.4190   29.6540   40.5880 C   0  0  0  0  0  0  0  0  0  0  0  0
   35.8210   30.8500   41.2750 N   0  0  0  0  0  0  0  0  0  0  0  0
   37.1680   31.1780   40.8420 C   0  0  0  0  0  0  0  0  0  0  0  0
   38.1630   30.1650   41.3320 C   0  0  1  0  0  0  0  0  0  0  0  0
   39.0140   30.6220   42.4600 C   0  0  0  0  0  0  0  0  0  0  0  0
   41.0652   27.4358   44.0101 H   0  0  0  0  0  0  0  0  0  0  0  0
   40.3249   25.0481   43.8905 H   0  0  0  0  0  0  0  0  0  0  0  0
   38.2012   24.5187   42.6224 H   0  0  0  0  0  0  0  0  0  0  0  0
   36.2319   27.7018   40.4091 H   0  0  0  0  0  0  0  0  0  0  0  0
   35.6475   28.1661   42.0665 H   0  0  0  0  0  0  0  0  0  0  0  0
   35.6435   29.7486   39.5153 H   0  0  0  0  0  0  0  0  0  0  0  0
   34.3377   29.4933   40.7106 H   0  0  0  0  0  0  0  0  0  0  0  0
   35.1798   31.6213   41.0406 H   0  0  0  0  0  0  0  0  0  0  0  0
   37.1944   31.2029   39.7426 H   0  0  0  0  0  0  0  0  0  0  0  0
   37.4373   32.1587   41.2612 H   0  0  0  0  0  0  0  0  0  0  0  0
   38.8934   30.0336   40.5201 H   0  0  0  0  0  0  0  0  0  0  0  0
   38.5301   30.3621   43.4131 H   0  0  0  0  0  0  0  0  0  0  0  0
   39.9960   30.1299   42.4012 H   0  0  0  0  0  0  0  0  0  0  0  0
   39.1462   31.7124   42.4012 H   0  0  0  0  0  0  0  0  0  0  0  0
  2  1  2  0
  3  2  1  0
  4  5  1  0
  4  3  2  0
  5  6  2  0
  6  1  1  0
  7  5  1  0
  8  7  1  0
  9  8  1  0
  9 10  1  0
 11 10  1  0
 11 12  1  0
 12  7  1  0
 12 13  1  0
  1 14  1  0
  2 15  1  0
  3 16  1  0
  8 17  1  0
  8 18  1  0
  9 19  1  0
  9 20  1  0
 10 21  1  0
 11 22  1  0
 11 23  1  0
 12 24  1  6
 13 25  1  0
 13 26  1  0
 13 27  1  0
M  ISO  8  14  14  15  14  16  14  17  13  18  13  19  13  20  13  21   5
M  ISO  6  22  13  23  13  24  13  25   8  26   8  27   8
M  END
>  <minimizedAffinity>  (1) 
-4.53956699

>  <minimizedRMSD>  (1) 
0.185276642

$$$$
