
     RDKit          3D

 26 27  0  0  1  0  0  0  0  0999 V2000
   40.2880   26.5850   43.4750 C   0  0  0  0  0  0  0  0  0  0  0  0
   39.8770   25.2490   43.3420 C   0  0  0  0  0  0  0  0  0  0  0  0
   38.7040   25.0010   42.6350 C   0  0  0  0  0  0  0  0  0  0  0  0
   38.0500   26.0740   42.1290 N   0  0  0  0  0  0  0  0  0  0  0  0
   38.4470   27.3480   42.2600 C   0  0  0  0  0  0  0  0  0  0  0  0
   39.5820   27.5860   42.9440 N   0  0  0  0  0  0  0  0  0  0  0  0
   37.6590   28.3830   41.6750 N   0  0  0  0  0  0  0  0  0  0  0  0
   36.3210   28.0310   41.2430 C   0  0  0  0  0  0  0  0  0  0  0  0
   35.5580   29.2150   40.7350 C   0  0  0  0  0  0  0  0  0  0  0  0
   35.9450   30.3700   41.4940 N   0  0  0  0  0  0  0  0  0  0  0  0
   37.3110   30.7260   41.0690 C   0  0  0  0  0  0  0  0  0  0  0  0
   38.2890   29.7050   41.5700 C   0  0  1  0  0  0  0  0  0  0  0  0
   38.9260   30.0920   42.8530 C   0  0  0  0  0  0  0  0  0  0  0  0
   39.7420   31.0240   42.8980 O   0  0  0  0  0  0  0  0  0  0  0  0
   41.2112   26.8117   44.0284 H   0  0  0  0  0  0  0  0  0  0  0  0
   40.4616   24.4272   43.7812 H   0  0  0  0  0  0  0  0  0  0  0  0
   38.3246   23.9783   42.4933 H   0  0  0  0  0  0  0  0  0  0  0  0
   36.3940   27.2852   40.4378 H   0  0  0  0  0  0  0  0  0  0  0  0
   35.7807   27.6307   42.1135 H   0  0  0  0  0  0  0  0  0  0  0  0
   35.7889   29.3761   39.6716 H   0  0  0  0  0  0  0  0  0  0  0  0
   34.4774   29.0397   40.8427 H   0  0  0  0  0  0  0  0  0  0  0  0
   35.3005   31.1506   41.3039 H   0  0  0  0  0  0  0  0  0  0  0  0
   37.3527   30.7614   39.9704 H   0  0  0  0  0  0  0  0  0  0  0  0
   37.5727   31.7100   41.4852 H   0  0  0  0  0  0  0  0  0  0  0  0
   39.0961   29.6541   40.8243 H   0  0  0  0  0  0  0  0  0  0  0  0
   38.6715   29.5463   43.7736 H   0  0  0  0  0  0  0  0  0  0  0  0
  2  1  2  0
  3  2  1  0
  4  5  1  0
  4  3  2  0
  5  6  2  0
  6  1  1  0
  7  5  1  0
  8  7  1  0
  9  8  1  0
  9 10  1  0
 11 10  1  0
 11 12  1  0
 12  7  1  0
 12 13  1  0
 13 14  2  0
  1 15  1  0
  2 16  1  0
  3 17  1  0
  8 18  1  0
  8 19  1  0
  9 20  1  0
  9 21  1  0
 10 22  1  0
 11 23  1  0
 11 24  1  0
 12 25  1  6
 13 26  1  0
M  ISO  8  15  14  16  14  17  14  18  13  19  13  20  13  21  13  22   5
M  ISO  4  23  13  24  13  25  13  26   6
M  END
>  <minimizedAffinity>  (1) 
-4.36376524

>  <minimizedRMSD>  (1) 
0.800895333

$$$$
