
     RDKit          3D

 25 26  0  0  1  0  0  0  0  0999 V2000
   40.3140   27.2520   43.1920 C   0  0  0  0  0  0  0  0  0  0  0  0
   39.8610   25.9270   43.2750 C   0  0  0  0  0  0  0  0  0  0  0  0
   38.6090   25.6300   42.7370 C   0  0  0  0  0  0  0  0  0  0  0  0
   37.9040   26.6530   42.1640 N   0  0  0  0  0  0  0  0  0  0  0  0
   38.3620   27.9100   42.0990 C   0  0  0  0  0  0  0  0  0  0  0  0
   39.5840   28.2100   42.6220 N   0  0  0  0  0  0  0  0  0  0  0  0
   37.5490   28.9130   41.4780 N   0  0  0  0  0  0  0  0  0  0  0  0
   36.1720   28.5410   41.1990 C   0  0  0  0  0  0  0  0  0  0  0  0
   35.3980   29.6840   40.6100 C   0  0  0  0  0  0  0  0  0  0  0  0
   35.8330   30.8940   41.2390 N   0  0  0  0  0  0  0  0  0  0  0  0
   37.1580   31.2070   40.7300 C   0  0  0  0  0  0  0  0  0  0  0  0
   38.1750   30.2070   41.1850 C   0  0  1  0  0  0  0  0  0  0  0  0
   39.1990   30.7300   42.5530 S   0  0  0  0  0  0  0  0  0  0  0  0
   41.2993   27.5073   43.6091 H   0  0  0  0  0  0  0  0  0  0  0  0
   40.4740   25.1466   43.7496 H   0  0  0  0  0  0  0  0  0  0  0  0
   38.2024   24.6085   42.7722 H   0  0  0  0  0  0  0  0  0  0  0  0
   36.1663   27.7021   40.4875 H   0  0  0  0  0  0  0  0  0  0  0  0
   35.6943   28.2555   42.1479 H   0  0  0  0  0  0  0  0  0  0  0  0
   35.5840   29.7402   39.5273 H   0  0  0  0  0  0  0  0  0  0  0  0
   34.3206   29.5371   40.7761 H   0  0  0  0  0  0  0  0  0  0  0  0
   35.1815   31.6595   41.0146 H   0  0  0  0  0  0  0  0  0  0  0  0
   37.4521   32.2040   41.0900 H   0  0  0  0  0  0  0  0  0  0  0  0
   37.1187   31.1812   39.6310 H   0  0  0  0  0  0  0  0  0  0  0  0
   38.8624   30.1057   40.3322 H   0  0  0  0  0  0  0  0  0  0  0  0
   38.5801   30.4139   43.7337 H   0  0  0  0  0  0  0  0  0  0  0  0
  1  2  2  0
  3  2  1  0
  4  3  2  0
  5  4  1  0
  5  6  2  0
  6  1  1  0
  7  5  1  0
  8  7  1  0
  9  8  1  0
  9 10  1  0
 11 12  1  0
 11 10  1  0
 12  7  1  0
 12 13  1  0
  1 14  1  0
  2 15  1  0
  3 16  1  0
  8 17  1  0
  8 18  1  0
  9 19  1  0
  9 20  1  0
 10 21  1  0
 11 22  1  0
 11 23  1  0
 12 24  1  6
 13 25  1  0
M  ISO  8  14  14  15  14  16  14  17  13  18  13  19  13  20  13  21   5
M  ISO  4  22  13  23  13  24  13  25  11
M  END
>  <minimizedAffinity>  (1) 
-4.27579021

>  <minimizedRMSD>  (1) 
0.308738351

$$$$
