
     RDKit          3D

 52 56  0  0  1  0  0  0  0  0999 V2000
   38.3330   30.7260   39.4400 C   0  0  1  0  0  0  0  0  0  0  0  0
   37.8200   30.8740   37.9920 C   0  0  0  0  0  0  0  0  0  0  0  0
   36.4010   30.3270   38.1410 C   0  0  0  0  0  0  0  0  0  0  0  0
   36.3970   29.4610   39.3760 C   0  0  0  0  0  0  0  0  0  0  0  0
   37.8710   29.3520   39.7630 C   0  0  2  0  0  0  0  0  0  0  0  0
   40.8350   35.5510   39.7760 C   0  0  0  0  0  0  0  0  0  0  0  0
   39.5350   36.0050   40.0530 C   0  0  0  0  0  0  0  0  0  0  0  0
   38.5440   35.0520   40.2120 C   0  0  0  0  0  0  0  0  0  0  0  0
   38.8840   33.7480   40.0910 N   0  0  0  0  0  0  0  0  0  0  0  0
   40.1100   33.3220   39.8290 C   0  0  0  0  0  0  0  0  0  0  0  0
   41.0950   34.2390   39.6710 N   0  0  0  0  0  0  0  0  0  0  0  0
   40.4990   31.9740   39.6790 N   0  0  0  0  0  0  0  0  0  0  0  0
   41.8150   31.7250   39.7010 N   0  0  0  0  0  0  0  0  0  0  0  0
   41.9990   30.3800   39.5220 C   0  0  0  0  0  0  0  0  0  0  0  0
   40.7250   29.8310   39.3890 C   0  0  0  0  0  0  0  0  0  0  0  0
   39.7810   30.8650   39.4930 C   0  0  0  0  0  0  0  0  0  0  0  0
   37.9070   29.0220   41.1580 N   0  0  0  0  0  0  0  0  0  0  0  0
   37.9530   29.8070   42.2170 N   0  0  0  0  0  0  0  0  0  0  0  0
   37.9700   29.1020   43.3620 C   0  0  0  0  0  0  0  0  0  0  0  0
   37.9340   27.7700   42.9920 C   0  0  0  0  0  0  0  0  0  0  0  0
   37.8950   27.7350   41.6100 C   0  0  0  0  0  0  0  0  0  0  0  0
   37.8730   26.4560   40.9940 N   0  0  0  0  0  0  0  0  0  0  0  0
   39.1490   25.7300   41.0640 C   0  0  0  0  0  0  0  0  0  0  0  0
   38.9410   24.6750   42.1260 C   0  0  0  0  0  0  0  0  0  0  0  0
   37.5130   24.2290   42.2190 C   0  0  0  0  0  0  0  0  0  0  0  0
   36.7520   24.3000   40.9150 C   0  0  0  0  0  0  0  0  0  0  0  0
   36.8370   25.6780   40.2890 C   0  0  0  0  0  0  0  0  0  0  0  0
   37.9695   31.4853   40.1481 H   0  0  0  0  0  0  0  0  0  0  0  0
   38.4145   30.2739   37.2874 H   0  0  0  0  0  0  0  0  0  0  0  0
   37.8770   31.8956   37.5880 H   0  0  0  0  0  0  0  0  0  0  0  0
   35.6859   31.1548   38.2563 H   0  0  0  0  0  0  0  0  0  0  0  0
   36.1043   29.7501   37.2526 H   0  0  0  0  0  0  0  0  0  0  0  0
   35.8161   29.9335   40.1818 H   0  0  0  0  0  0  0  0  0  0  0  0
   35.9342   28.4788   39.2000 H   0  0  0  0  0  0  0  0  0  0  0  0
   38.4933   28.5933   39.2660 H   0  0  0  0  0  0  0  0  0  0  0  0
   41.6488   36.2791   39.6437 H   0  0  0  0  0  0  0  0  0  0  0  0
   39.3126   37.0787   40.1404 H   0  0  0  0  0  0  0  0  0  0  0  0
   37.5072   35.3470   40.4310 H   0  0  0  0  0  0  0  0  0  0  0  0
   42.9579   29.8420   39.4897 H   0  0  0  0  0  0  0  0  0  0  0  0
   40.4974   28.7667   39.2294 H   0  0  0  0  0  0  0  0  0  0  0  0
   38.0054   29.5035   44.3855 H   0  0  0  0  0  0  0  0  0  0  0  0
   37.9360   26.9027   43.6686 H   0  0  0  0  0  0  0  0  0  0  0  0
   39.3818   25.2631   40.0956 H   0  0  0  0  0  0  0  0  0  0  0  0
   39.9910   26.3964   41.3029 H   0  0  0  0  0  0  0  0  0  0  0  0
   39.5679   23.8037   41.8855 H   0  0  0  0  0  0  0  0  0  0  0  0
   39.2174   25.1165   43.0949 H   0  0  0  0  0  0  0  0  0  0  0  0
   37.5001   23.1862   42.5689 H   0  0  0  0  0  0  0  0  0  0  0  0
   37.0123   24.9197   42.9134 H   0  0  0  0  0  0  0  0  0  0  0  0
   37.1749   23.5641   40.2152 H   0  0  0  0  0  0  0  0  0  0  0  0
   35.6939   24.0836   41.1239 H   0  0  0  0  0  0  0  0  0  0  0  0
   37.1034   25.5855   39.2258 H   0  0  0  0  0  0  0  0  0  0  0  0
   35.8655   26.1872   40.3717 H   0  0  0  0  0  0  0  0  0  0  0  0
  1 16  1  0
  1  5  1  0
  2  3  1  0
  2  1  1  0
  3  4  1  0
  4  5  1  0
  5 17  1  0
  6  7  2  0
  7  8  1  0
  9  8  2  0
 10  9  1  0
 11  6  1  0
 11 10  2  0
 12 13  1  0
 12 10  1  0
 14 13  2  0
 15 16  2  0
 15 14  1  0
 16 12  1  0
 17 21  1  0
 17 18  1  0
 18 19  2  0
 20 19  1  0
 21 20  2  0
 22 23  1  0
 22 21  1  0
 23 24  1  0
 24 25  1  0
 26 25  1  0
 27 26  1  0
 27 22  1  0
  1 28  1  1
  2 29  1  0
  2 30  1  0
  3 31  1  0
  3 32  1  0
  4 33  1  0
  4 34  1  0
  5 35  1  6
  6 36  1  0
  7 37  1  0
  8 38  1  0
 14 39  1  0
 15 40  1  0
 19 41  1  0
 20 42  1  0
 23 43  1  0
 23 44  1  0
 24 45  1  0
 24 46  1  0
 25 47  1  0
 25 48  1  0
 26 49  1  0
 26 50  1  0
 27 51  1  0
 27 52  1  0
M  ISO  8  28  13  29  13  30  13  31  13  32  13  33  13  34  13  35  13
M  ISO  8  36  14  37  14  38  14  39  14  40  14  41  14  42  14  43  13
M  ISO  8  44  13  45  13  46  13  47  13  48  13  49  13  50  13  51  13
M  ISO  1  52  13
M  END
>  <minimizedAffinity>  (1) 
-6.67572689

>  <minimizedRMSD>  (1) 
0.74605459

$$$$
