
     RDKit          3D

 43 46  0  0  1  0  0  0  0  0999 V2000
   38.0770   29.5290   42.8360 C   0  0  0  0  0  0  0  0  0  0  0  0
   37.6480   28.4560   43.6140 C   0  0  0  0  0  0  0  0  0  0  0  0
   37.2140   27.3160   42.9370 C   0  0  0  0  0  0  0  0  0  0  0  0
   37.2430   27.3410   41.5920 N   0  0  0  0  0  0  0  0  0  0  0  0
   37.6610   28.3900   40.8510 C   0  0  0  0  0  0  0  0  0  0  0  0
   38.0800   29.4890   41.5120 N   0  0  0  0  0  0  0  0  0  0  0  0
   37.6440   28.2950   39.4360 N   0  0  0  0  0  0  0  0  0  0  0  0
   36.8450   27.2100   38.8600 C   0  0  0  0  0  0  0  0  0  0  0  0
   36.9190   27.2110   37.3580 C   0  0  0  0  0  0  0  0  0  0  0  0
   36.8170   28.5820   36.9560 N   0  0  0  0  0  0  0  0  0  0  0  0
   38.1230   29.1890   37.2150 C   0  0  0  0  0  0  0  0  0  0  0  0
   38.4120   29.2710   38.6860 C   0  0  1  0  0  0  0  0  0  0  0  0
   38.2480   30.6270   39.2270 C   0  0  0  0  0  0  0  0  0  0  0  0
   37.0160   31.2910   39.3850 C   0  0  0  0  0  0  0  0  0  0  0  0
   36.9320   32.5650   39.9000 C   0  0  0  0  0  0  0  0  0  0  0  0
   38.0550   33.2060   40.2680 N   0  0  0  0  0  0  0  0  0  0  0  0
   39.2400   32.5970   40.1290 C   0  0  0  0  0  0  0  0  0  0  0  0
   39.3130   31.3730   39.6330 N   0  0  0  0  0  0  0  0  0  0  0  0
   40.4200   33.2890   40.5240 N   0  0  0  0  0  0  0  0  0  0  0  0
   41.4970   32.6010   40.9460 C   0  0  0  0  0  0  0  0  0  0  0  0
   42.5850   33.3710   41.3050 C   0  0  0  0  0  0  0  0  0  0  0  0
   42.6240   34.7480   41.2550 C   0  0  0  0  0  0  0  0  0  0  0  0
   43.7660   35.5060   41.6330 N   0  0  0  0  0  0  0  0  0  0  0  0
   41.5070   35.3650   40.8210 N   0  0  0  0  0  0  0  0  0  0  0  0
   40.4170   34.6350   40.4610 C   0  0  0  0  0  0  0  0  0  0  0  0
   39.4440   35.3270   40.0770 O   0  0  0  0  0  0  0  0  0  0  0  0
   38.4259   30.4427   43.3395 H   0  0  0  0  0  0  0  0  0  0  0  0
   37.6513   28.5054   44.7129 H   0  0  0  0  0  0  0  0  0  0  0  0
   36.8609   26.4288   43.4830 H   0  0  0  0  0  0  0  0  0  0  0  0
   37.2237   26.2482   39.2362 H   0  0  0  0  0  0  0  0  0  0  0  0
   35.7958   27.3590   39.1548 H   0  0  0  0  0  0  0  0  0  0  0  0
   37.8762   26.7851   37.0227 H   0  0  0  0  0  0  0  0  0  0  0  0
   36.1168   26.6019   36.9158 H   0  0  0  0  0  0  0  0  0  0  0  0
   36.0874   29.0601   37.5038 H   0  0  0  0  0  0  0  0  0  0  0  0
   38.9016   28.5807   36.7315 H   0  0  0  0  0  0  0  0  0  0  0  0
   38.1143   30.2111   36.8084 H   0  0  0  0  0  0  0  0  0  0  0  0
   39.4764   29.0211   38.8068 H   0  0  0  0  0  0  0  0  0  0  0  0
   36.0912   30.7751   39.0874 H   0  0  0  0  0  0  0  0  0  0  0  0
   35.9532   33.0549   40.0096 H   0  0  0  0  0  0  0  0  0  0  0  0
   41.5094   31.5024   41.0010 H   0  0  0  0  0  0  0  0  0  0  0  0
   43.4864   32.8477   41.6565 H   0  0  0  0  0  0  0  0  0  0  0  0
   43.7433   36.5342   41.5769 H   0  0  0  0  0  0  0  0  0  0  0  0
   44.6160   35.0269   41.9629 H   0  0  0  0  0  0  0  0  0  0  0  0
  1  2  2  0
  3  2  1  0
  4  3  2  0
  5  6  2  0
  5  4  1  0
  6  1  1  0
  7  5  1  0
  8  7  1  0
  9  8  1  0
 10 11  1  0
 10  9  1  0
 11 12  1  0
 12 13  1  0
 12  7  1  0
 13 14  2  0
 13 18  1  0
 14 15  1  0
 15 16  2  0
 17 16  1  0
 17 19  1  0
 18 17  2  0
 19 20  1  0
 20 21  2  0
 22 21  1  0
 22 23  1  0
 24 22  2  0
 25 19  1  0
 25 24  1  0
 26 25  2  0
  1 27  1  0
  2 28  1  0
  3 29  1  0
  8 30  1  0
  8 31  1  0
  9 32  1  0
  9 33  1  0
 10 34  1  0
 11 35  1  0
 11 36  1  0
 12 37  1  6
 14 38  1  0
 15 39  1  0
 20 40  1  0
 21 41  1  0
 23 42  1  0
 23 43  1  0
M  ISO  8  27  14  28  14  29  14  30  13  31  13  32  13  33  13  34   5
M  ISO  7  35  13  36  13  37  13  38  14  39  14  40  14  41  14
M  END
>  <minimizedAffinity>  (1) 
-6.79008245

>  <minimizedRMSD>  (1) 
1.39635789

$$$$
