
     RDKit          3D

 43 47  0  0  1  0  0  0  0  0999 V2000
   38.1120   29.5760   42.6570 C   0  0  0  0  0  0  0  0  0  0  0  0
   37.5710   28.5950   43.4920 C   0  0  0  0  0  0  0  0  0  0  0  0
   36.7400   27.6400   42.9060 C   0  0  0  0  0  0  0  0  0  0  0  0
   36.5220   27.7360   41.5720 N   0  0  0  0  0  0  0  0  0  0  0  0
   37.0620   28.7010   40.7870 C   0  0  0  0  0  0  0  0  0  0  0  0
   37.8530   29.6080   41.3520 N   0  0  0  0  0  0  0  0  0  0  0  0
   36.7530   28.6910   39.3990 N   0  0  0  0  0  0  0  0  0  0  0  0
   35.5990   27.8860   38.9840 C   0  0  0  0  0  0  0  0  0  0  0  0
   35.4330   27.9290   37.4810 C   0  0  0  0  0  0  0  0  0  0  0  0
   35.5860   29.3250   37.1270 N   0  0  0  0  0  0  0  0  0  0  0  0
   37.0520   29.5600   37.1250 C   0  0  0  0  0  0  0  0  0  0  0  0
   37.6000   29.4710   38.5180 C   0  0  1  0  0  0  0  0  0  0  0  0
   37.8920   30.8030   39.0970 C   0  0  0  0  0  0  0  0  0  0  0  0
   36.9280   31.7810   39.4130 C   0  0  0  0  0  0  0  0  0  0  0  0
   37.2960   32.9990   39.9490 C   0  0  0  0  0  0  0  0  0  0  0  0
   38.5910   33.2740   40.1810 N   0  0  0  0  0  0  0  0  0  0  0  0
   39.5260   32.3610   39.8880 C   0  0  0  0  0  0  0  0  0  0  0  0
   39.1560   31.2080   39.3780 N   0  0  0  0  0  0  0  0  0  0  0  0
   40.9160   32.5860   40.1080 N   0  0  0  0  0  0  0  0  0  0  0  0
   41.4530   32.1260   41.2540 C   0  0  0  0  0  0  0  0  0  0  0  0
   42.7710   32.4470   41.2510 N   0  0  0  0  0  0  0  0  0  0  0  0
   43.0400   33.1080   40.0990 C   0  0  0  0  0  0  0  0  0  0  0  0
   44.1460   33.6960   39.4810 C   0  0  0  0  0  0  0  0  0  0  0  0
   44.0110   34.2840   38.2770 N   0  0  0  0  0  0  0  0  0  0  0  0
   42.8330   34.3360   37.6190 C   0  0  0  0  0  0  0  0  0  0  0  0
   41.7510   33.7810   38.1860 N   0  0  0  0  0  0  0  0  0  0  0  0
   41.8570   33.1890   39.3830 C   0  0  0  0  0  0  0  0  0  0  0  0
   38.7704   30.3433   43.0904 H   0  0  0  0  0  0  0  0  0  0  0  0
   37.7918   28.5765   44.5695 H   0  0  0  0  0  0  0  0  0  0  0  0
   36.2794   26.8397   43.5038 H   0  0  0  0  0  0  0  0  0  0  0  0
   35.7523   26.8439   39.3012 H   0  0  0  0  0  0  0  0  0  0  0  0
   34.6928   28.2970   39.4529 H   0  0  0  0  0  0  0  0  0  0  0  0
   36.2046   27.3186   36.9891 H   0  0  0  0  0  0  0  0  0  0  0  0
   34.4610   27.5256   37.1609 H   0  0  0  0  0  0  0  0  0  0  0  0
   35.1883   29.5081   36.1947 H   0  0  0  0  0  0  0  0  0  0  0  0
   37.5394   28.8013   36.4951 H   0  0  0  0  0  0  0  0  0  0  0  0
   37.2504   30.5666   36.7283 H   0  0  0  0  0  0  0  0  0  0  0  0
   38.5572   28.9362   38.4295 H   0  0  0  0  0  0  0  0  0  0  0  0
   35.8640   31.5704   39.2295 H   0  0  0  0  0  0  0  0  0  0  0  0
   36.5260   33.7476   40.1872 H   0  0  0  0  0  0  0  0  0  0  0  0
   40.9187   31.5866   42.0499 H   0  0  0  0  0  0  0  0  0  0  0  0
   45.1273   33.6788   39.9777 H   0  0  0  0  0  0  0  0  0  0  0  0
   42.7617   34.8245   36.6360 H   0  0  0  0  0  0  0  0  0  0  0  0
  1  2  2  0
  3  2  1  0
  4  3  2  0
  5  6  2  0
  5  4  1  0
  6  1  1  0
  7  5  1  0
  8  7  1  0
  9  8  1  0
 10  9  1  0
 11 10  1  0
 11 12  1  0
 12 13  1  0
 12  7  1  0
 13 18  1  0
 13 14  2  0
 14 15  1  0
 15 16  2  0
 17 19  1  0
 17 16  1  0
 18 17  2  0
 19 20  1  0
 21 20  2  0
 22 21  1  0
 23 22  2  0
 24 23  1  0
 25 26  1  0
 25 24  2  0
 26 27  2  0
 27 22  1  0
 27 19  1  0
  1 28  1  0
  2 29  1  0
  3 30  1  0
  8 31  1  0
  8 32  1  0
  9 33  1  0
  9 34  1  0
 10 35  1  0
 11 36  1  0
 11 37  1  0
 12 38  1  6
 14 39  1  0
 15 40  1  0
 20 41  1  0
 23 42  1  0
 25 43  1  0
M  ISO  8  28  14  29  14  30  14  31  13  32  13  33  13  34  13  35   5
M  ISO  8  36  13  37  13  38  13  39  14  40  14  41  14  42  14  43  14
M  END
>  <minimizedAffinity>  (1) 
-6.49001646

>  <minimizedRMSD>  (1) 
0.815773904

$$$$
