
     RDKit          3D

 46 50  0  0  1  0  0  0  0  0999 V2000
   37.9790   29.3870   42.9700 C   0  0  0  0  0  0  0  0  0  0  0  0
   37.4200   28.3580   43.7300 C   0  0  0  0  0  0  0  0  0  0  0  0
   36.7810   27.3340   43.0420 C   0  0  0  0  0  0  0  0  0  0  0  0
   36.7440   27.4050   41.6870 N   0  0  0  0  0  0  0  0  0  0  0  0
   37.2970   28.4180   40.9790 C   0  0  0  0  0  0  0  0  0  0  0  0
   37.9110   29.4020   41.6420 N   0  0  0  0  0  0  0  0  0  0  0  0
   37.1940   28.3840   39.5590 N   0  0  0  0  0  0  0  0  0  0  0  0
   36.2140   27.4580   38.9860 C   0  0  0  0  0  0  0  0  0  0  0  0
   36.2400   27.5110   37.4780 C   0  0  0  0  0  0  0  0  0  0  0  0
   36.3260   28.9080   37.1320 N   0  0  0  0  0  0  0  0  0  0  0  0
   37.7410   29.2760   37.3450 C   0  0  0  0  0  0  0  0  0  0  0  0
   38.0650   29.2610   38.8040 C   0  0  1  0  0  0  0  0  0  0  0  0
   38.1300   30.6200   39.4070 C   0  0  0  0  0  0  0  0  0  0  0  0
   37.0470   31.4690   39.5730 C   0  0  0  0  0  0  0  0  0  0  0  0
   37.2310   32.7120   40.1440 C   0  0  0  0  0  0  0  0  0  0  0  0
   38.4480   33.1100   40.5410 N   0  0  0  0  0  0  0  0  0  0  0  0
   39.4940   32.3230   40.3950 C   0  0  0  0  0  0  0  0  0  0  0  0
   39.2890   31.1530   39.8520 N   0  0  0  0  0  0  0  0  0  0  0  0
   40.8890   32.4680   40.7180 C   0  0  0  0  0  0  0  0  0  0  0  0
   41.8320   32.3170   41.5260 N   0  0  0  0  0  0  0  0  0  0  0  0
   42.7570   32.1850   42.2780 C   0  0  0  0  0  0  0  0  0  0  0  0
   43.5680   32.7390   41.3600 N   0  0  0  0  0  0  0  0  0  0  0  0
   43.1440   33.1600   40.1650 C   0  0  0  0  0  0  0  0  0  0  0  0
   44.0400   33.7490   39.2110 C   0  0  0  0  0  0  0  0  0  0  0  0
   43.5720   34.1820   37.9710 C   0  0  0  0  0  0  0  0  0  0  0  0
   42.2260   34.0720   37.5850 C   0  0  0  0  0  0  0  0  0  0  0  0
   41.3860   33.5000   38.5270 C   0  0  0  0  0  0  0  0  0  0  0  0
   41.7890   33.0420   39.7930 C   0  0  0  0  0  0  0  0  0  0  0  0
   38.4921   30.2118   43.4862 H   0  0  0  0  0  0  0  0  0  0  0  0
   37.4829   28.3580   44.8282 H   0  0  0  0  0  0  0  0  0  0  0  0
   36.3195   26.4920   43.5786 H   0  0  0  0  0  0  0  0  0  0  0  0
   36.4502   26.4351   39.3145 H   0  0  0  0  0  0  0  0  0  0  0  0
   35.2111   27.7504   39.3305 H   0  0  0  0  0  0  0  0  0  0  0  0
   37.1142   26.9667   37.0912 H   0  0  0  0  0  0  0  0  0  0  0  0
   35.3455   27.0419   37.0424 H   0  0  0  0  0  0  0  0  0  0  0  0
   35.7120   29.4687   37.7399 H   0  0  0  0  0  0  0  0  0  0  0  0
   38.3865   28.5549   36.8222 H   0  0  0  0  0  0  0  0  0  0  0  0
   37.9116   30.2884   36.9502 H   0  0  0  0  0  0  0  0  0  0  0  0
   39.0809   28.8442   38.8692 H   0  0  0  0  0  0  0  0  0  0  0  0
   36.0439   31.1531   39.2506 H   0  0  0  0  0  0  0  0  0  0  0  0
   36.3696   33.3834   40.2748 H   0  0  0  0  0  0  0  0  0  0  0  0
   42.8871   31.7805   43.2926 H   0  0  0  0  0  0  0  0  0  0  0  0
   45.1056   33.8598   39.4603 H   0  0  0  0  0  0  0  0  0  0  0  0
   44.2874   34.6288   37.2649 H   0  0  0  0  0  0  0  0  0  0  0  0
   41.8644   34.4155   36.6046 H   0  0  0  0  0  0  0  0  0  0  0  0
   40.3230   33.3966   38.2638 H   0  0  0  0  0  0  0  0  0  0  0  0
  1  2  2  0
  3  2  1  0
  4  3  2  0
  5  6  2  0
  5  4  1  0
  6  1  1  0
  7  5  1  0
  8  7  1  0
  9  8  1  0
 10 11  1  0
 10  9  1  0
 11 12  1  0
 12 13  1  0
 12  7  1  0
 13 14  2  0
 13 18  1  0
 14 15  1  0
 15 16  2  0
 17 16  1  0
 17 19  1  0
 18 17  2  0
 19 20  2  0
 20 21  1  0
 22 21  2  0
 23 22  1  0
 24 23  2  0
 25 24  1  0
 26 25  2  0
 26 27  1  0
 27 28  2  0
 28 23  1  0
 28 19  1  0
  1 29  1  0
  2 30  1  0
  3 31  1  0
  8 32  1  0
  8 33  1  0
  9 34  1  0
  9 35  1  0
 10 36  1  0
 11 37  1  0
 11 38  1  0
 12 39  1  6
 14 40  1  0
 15 41  1  0
 21 42  1  0
 24 43  1  0
 25 44  1  0
 26 45  1  0
 27 46  1  0
M  ISO  8  29  14  30  14  31  14  32  13  33  13  34  13  35  13  36   5
M  ISO  8  37  13  38  13  39  13  40  14  41  14  42  14  43  14  44  14
M  ISO  2  45  14  46  14
M  END
>  <minimizedAffinity>  (1) 
-6.44502687

>  <minimizedRMSD>  (1) 
0.72959578

$$$$
