
     RDKit          3D

 46 50  0  0  1  0  0  0  0  0999 V2000
   38.5550   30.0750   42.4260 C   0  0  0  0  0  0  0  0  0  0  0  0
   38.1670   29.0170   43.2530 C   0  0  0  0  0  0  0  0  0  0  0  0
   37.5120   27.9520   42.6560 C   0  0  0  0  0  0  0  0  0  0  0  0
   37.2970   28.0140   41.3200 N   0  0  0  0  0  0  0  0  0  0  0  0
   37.6810   29.0460   40.5350 C   0  0  0  0  0  0  0  0  0  0  0  0
   38.3140   30.0730   41.1210 N   0  0  0  0  0  0  0  0  0  0  0  0
   37.3990   28.9960   39.1440 N   0  0  0  0  0  0  0  0  0  0  0  0
   36.4100   28.0120   38.7170 C   0  0  0  0  0  0  0  0  0  0  0  0
   36.2200   28.0470   37.2180 C   0  0  0  0  0  0  0  0  0  0  0  0
   36.1940   29.4240   36.8510 N   0  0  0  0  0  0  0  0  0  0  0  0
   37.5680   29.9150   36.8840 C   0  0  0  0  0  0  0  0  0  0  0  0
   38.1100   29.9160   38.2790 C   0  0  1  0  0  0  0  0  0  0  0  0
   38.1830   31.2710   38.8640 C   0  0  0  0  0  0  0  0  0  0  0  0
   37.0740   32.0820   39.1500 C   0  0  0  0  0  0  0  0  0  0  0  0
   37.2260   33.3400   39.6970 C   0  0  0  0  0  0  0  0  0  0  0  0
   38.4730   33.8120   39.9680 N   0  0  0  0  0  0  0  0  0  0  0  0
   39.5340   33.0530   39.7030 C   0  0  0  0  0  0  0  0  0  0  0  0
   39.3670   31.8590   39.1820 N   0  0  0  0  0  0  0  0  0  0  0  0
   40.8800   33.5430   39.9870 C   0  0  0  0  0  0  0  0  0  0  0  0
   41.5370   34.5900   39.3670 C   0  0  0  0  0  0  0  0  0  0  0  0
   42.7790   34.7470   39.9070 N   0  0  0  0  0  0  0  0  0  0  0  0
   42.9160   33.8110   40.8630 C   0  0  0  0  0  0  0  0  0  0  0  0
   43.9470   33.4970   41.7300 C   0  0  0  0  0  0  0  0  0  0  0  0
   43.8810   32.4610   42.6680 C   0  0  0  0  0  0  0  0  0  0  0  0
   42.6820   31.7620   42.6600 C   0  0  0  0  0  0  0  0  0  0  0  0
   41.6290   32.0280   41.8270 C   0  0  0  0  0  0  0  0  0  0  0  0
   41.7590   33.0560   40.9330 C   0  0  0  0  0  0  0  0  0  0  0  0
   39.0761   30.9357   42.8706 H   0  0  0  0  0  0  0  0  0  0  0  0
   38.3732   29.0294   44.3334 H   0  0  0  0  0  0  0  0  0  0  0  0
   37.1781   27.0861   43.2465 H   0  0  0  0  0  0  0  0  0  0  0  0
   36.7505   27.0087   39.0127 H   0  0  0  0  0  0  0  0  0  0  0  0
   35.4494   28.2511   39.1967 H   0  0  0  0  0  0  0  0  0  0  0  0
   37.0540   27.5346   36.7161 H   0  0  0  0  0  0  0  0  0  0  0  0
   35.2926   27.5359   36.9201 H   0  0  0  0  0  0  0  0  0  0  0  0
   35.6153   29.9544   37.5178 H   0  0  0  0  0  0  0  0  0  0  0  0
   38.1959   29.2661   36.2558 H   0  0  0  0  0  0  0  0  0  0  0  0
   37.5774   30.9481   36.5063 H   0  0  0  0  0  0  0  0  0  0  0  0
   39.1455   29.5532   38.2008 H   0  0  0  0  0  0  0  0  0  0  0  0
   36.0626   31.7073   38.9337 H   0  0  0  0  0  0  0  0  0  0  0  0
   36.3424   33.9586   39.9130 H   0  0  0  0  0  0  0  0  0  0  0  0
   41.1189   35.2058   38.5570 H   0  0  0  0  0  0  0  0  0  0  0  0
   43.4804   35.4502   39.6341 H   0  0  0  0  0  0  0  0  0  0  0  0
   44.8692   34.0945   41.6792 H   0  0  0  0  0  0  0  0  0  0  0  0
   44.7079   32.2212   43.3526 H   0  0  0  0  0  0  0  0  0  0  0  0
   42.5698   30.9339   43.3752 H   0  0  0  0  0  0  0  0  0  0  0  0
   40.7052   31.4328   41.8747 H   0  0  0  0  0  0  0  0  0  0  0  0
  1  2  2  0
  3  2  1  0
  4  3  2  0
  5  6  2  0
  5  4  1  0
  6  1  1  0
  7  5  1  0
  8  7  1  0
  9  8  1  0
 10 11  1  0
 10  9  1  0
 11 12  1  0
 12 13  1  0
 12  7  1  0
 13 14  2  0
 13 18  1  0
 14 15  1  0
 15 16  2  0
 17 16  1  0
 17 19  1  0
 18 17  2  0
 19 27  1  0
 20 21  1  0
 20 19  2  0
 21 22  1  0
 22 27  2  0
 22 23  1  0
 23 24  2  0
 25 24  1  0
 26 25  2  0
 27 26  1  0
  1 28  1  0
  2 29  1  0
  3 30  1  0
  8 31  1  0
  8 32  1  0
  9 33  1  0
  9 34  1  0
 10 35  1  0
 11 36  1  0
 11 37  1  0
 12 38  1  6
 14 39  1  0
 15 40  1  0
 20 41  1  0
 21 42  1  0
 23 43  1  0
 24 44  1  0
 25 45  1  0
 26 46  1  0
M  ISO  8  28  14  29  14  30  14  31  13  32  13  33  13  34  13  35   5
M  ISO  8  36  13  37  13  38  13  39  14  40  14  41  14  42   9  43  14
M  ISO  3  44  14  45  14  46  14
M  END
>  <minimizedAffinity>  (1) 
-6.19222736

>  <minimizedRMSD>  (1) 
1.64593434

$$$$
