
     RDKit          3D

 45 48  0  0  1  0  0  0  0  0999 V2000
   38.5140   29.9010   42.4130 C   0  0  0  0  0  0  0  0  0  0  0  0
   38.1190   28.9270   43.3420 C   0  0  0  0  0  0  0  0  0  0  0  0
   37.2940   27.8980   42.8860 C   0  0  0  0  0  0  0  0  0  0  0  0
   36.9370   27.9130   41.5780 N   0  0  0  0  0  0  0  0  0  0  0  0
   37.3340   28.8680   40.7020 C   0  0  0  0  0  0  0  0  0  0  0  0
   38.1200   29.8500   41.1410 N   0  0  0  0  0  0  0  0  0  0  0  0
   36.8890   28.7740   39.3490 N   0  0  0  0  0  0  0  0  0  0  0  0
   35.7550   27.8850   39.0900 C   0  0  0  0  0  0  0  0  0  0  0  0
   35.4180   27.8470   37.6320 C   0  0  0  0  0  0  0  0  0  0  0  0
   35.4760   29.2200   37.1780 N   0  0  0  0  0  0  0  0  0  0  0  0
   36.8990   29.5430   37.0300 C   0  0  0  0  0  0  0  0  0  0  0  0
   37.5950   29.5640   38.3580 C   0  0  1  0  0  0  0  0  0  0  0  0
   37.8760   30.9260   38.8410 C   0  0  0  0  0  0  0  0  0  0  0  0
   36.9050   31.8170   39.3400 C   0  0  0  0  0  0  0  0  0  0  0  0
   37.2290   33.0820   39.7780 C   0  0  0  0  0  0  0  0  0  0  0  0
   38.5290   33.4910   39.7300 N   0  0  0  0  0  0  0  0  0  0  0  0
   39.4500   32.6540   39.2600 C   0  0  0  0  0  0  0  0  0  0  0  0
   39.1230   31.4480   38.8460 N   0  0  0  0  0  0  0  0  0  0  0  0
   40.8120   33.0680   39.2040 N   0  0  0  0  0  0  0  0  0  0  0  0
   41.5630   33.4620   40.3850 C   0  0  0  0  0  0  0  0  0  0  0  0
   41.7820   34.9680   40.2060 C   0  0  0  0  0  0  0  0  0  0  0  0
   41.6920   35.3480   38.8880 O   0  0  0  0  0  0  0  0  0  0  0  0
   42.2760   34.4670   37.9880 C   0  0  0  0  0  0  0  0  0  0  0  0
   41.5390   33.1220   37.9460 C   0  0  0  0  0  0  0  0  0  0  0  0
   39.1636   30.7255   42.7419 H   0  0  0  0  0  0  0  0  0  0  0  0
   38.4473   28.9726   44.3909 H   0  0  0  0  0  0  0  0  0  0  0  0
   36.9461   27.1038   43.5629 H   0  0  0  0  0  0  0  0  0  0  0  0
   36.0116   26.8693   39.4254 H   0  0  0  0  0  0  0  0  0  0  0  0
   34.8815   28.2661   39.6393 H   0  0  0  0  0  0  0  0  0  0  0  0
   36.1483   27.2318   37.0860 H   0  0  0  0  0  0  0  0  0  0  0  0
   34.4263   27.4043   37.4571 H   0  0  0  0  0  0  0  0  0  0  0  0
   34.9919   29.3178   36.2741 H   0  0  0  0  0  0  0  0  0  0  0  0
   37.3734   28.7854   36.3890 H   0  0  0  0  0  0  0  0  0  0  0  0
   36.9825   30.5428   36.5789 H   0  0  0  0  0  0  0  0  0  0  0  0
   38.5750   29.0913   38.1961 H   0  0  0  0  0  0  0  0  0  0  0  0
   35.8549   31.4919   39.3810 H   0  0  0  0  0  0  0  0  0  0  0  0
   36.4480   33.7547   40.1621 H   0  0  0  0  0  0  0  0  0  0  0  0
   40.9872   33.2575   41.2997 H   0  0  0  0  0  0  0  0  0  0  0  0
   42.5078   32.9081   40.4877 H   0  0  0  0  0  0  0  0  0  0  0  0
   41.0189   35.5092   40.7846 H   0  0  0  0  0  0  0  0  0  0  0  0
   42.7950   35.2088   40.5608 H   0  0  0  0  0  0  0  0  0  0  0  0
   42.2535   34.9166   36.9843 H   0  0  0  0  0  0  0  0  0  0  0  0
   43.3095   34.2800   38.3149 H   0  0  0  0  0  0  0  0  0  0  0  0
   40.8448   33.0851   37.0935 H   0  0  0  0  0  0  0  0  0  0  0  0
   42.2256   32.2716   37.8219 H   0  0  0  0  0  0  0  0  0  0  0  0
  1  2  2  0
  3  2  1  0
  4  3  2  0
  5  6  2  0
  5  4  1  0
  6  1  1  0
  7  5  1  0
  8  7  1  0
  9  8  1  0
 10  9  1  0
 11 10  1  0
 11 12  1  0
 12 13  1  0
 12  7  1  0
 13 18  1  0
 13 14  2  0
 14 15  1  0
 16 15  2  0
 17 16  1  0
 18 17  2  0
 19 17  1  0
 19 20  1  0
 21 20  1  0
 22 21  1  0
 23 22  1  0
 24 23  1  0
 24 19  1  0
  1 25  1  0
  2 26  1  0
  3 27  1  0
  8 28  1  0
  8 29  1  0
  9 30  1  0
  9 31  1  0
 10 32  1  0
 11 33  1  0
 11 34  1  0
 12 35  1  6
 14 36  1  0
 15 37  1  0
 20 38  1  0
 20 39  1  0
 21 40  1  0
 21 41  1  0
 23 42  1  0
 23 43  1  0
 24 44  1  0
 24 45  1  0
M  ISO  8  25  14  26  14  27  14  28  13  29  13  30  13  31  13  32   5
M  ISO  8  33  13  34  13  35  13  36  14  37  14  38  13  39  13  40  13
M  ISO  5  41  13  42  13  43  13  44  13  45  13
M  END
>  <minimizedAffinity>  (1) 
-6.07758188

>  <minimizedRMSD>  (1) 
1.36870921

$$$$
