
     RDKit          3D

 46 49  0  0  1  0  0  0  0  0999 V2000
   38.0870   29.4840   42.8070 C   0  0  0  0  0  0  0  0  0  0  0  0
   37.5860   28.4900   43.6620 C   0  0  0  0  0  0  0  0  0  0  0  0
   36.8950   27.4450   43.0810 C   0  0  0  0  0  0  0  0  0  0  0  0
   36.7500   27.4540   41.7280 N   0  0  0  0  0  0  0  0  0  0  0  0
   37.2430   28.4240   40.9270 C   0  0  0  0  0  0  0  0  0  0  0  0
   37.9140   29.4390   41.4910 N   0  0  0  0  0  0  0  0  0  0  0  0
   37.0280   28.3250   39.5230 N   0  0  0  0  0  0  0  0  0  0  0  0
   35.9930   27.3970   39.0800 C   0  0  0  0  0  0  0  0  0  0  0  0
   35.9020   27.3570   37.5830 C   0  0  0  0  0  0  0  0  0  0  0  0
   35.9590   28.7360   37.1530 N   0  0  0  0  0  0  0  0  0  0  0  0
   37.3810   29.1180   37.2350 C   0  0  0  0  0  0  0  0  0  0  0  0
   37.8500   29.1500   38.6590 C   0  0  1  0  0  0  0  0  0  0  0  0
   37.9810   30.5290   39.1890 C   0  0  0  0  0  0  0  0  0  0  0  0
   36.9000   31.3700   39.5150 C   0  0  0  0  0  0  0  0  0  0  0  0
   37.0830   32.6440   40.0030 C   0  0  0  0  0  0  0  0  0  0  0  0
   38.3400   33.1080   40.1770 N   0  0  0  0  0  0  0  0  0  0  0  0
   39.3760   32.3260   39.8730 C   0  0  0  0  0  0  0  0  0  0  0  0
   39.1880   31.1040   39.4040 N   0  0  0  0  0  0  0  0  0  0  0  0
   40.7140   32.9360   40.1020 C   0  0  2  0  0  0  0  0  0  0  0  0
   40.5600   34.3880   40.2600 C   0  0  0  0  0  0  0  0  0  0  0  0
   41.2120   35.3080   39.3050 C   0  0  0  0  0  0  0  0  0  0  0  0
   42.2190   34.6840   38.3770 C   0  0  0  0  0  0  0  0  0  0  0  0
   41.5970   33.4090   37.8190 C   0  0  0  0  0  0  0  0  0  0  0  0
   41.5770   32.4550   38.9750 C   0  0  0  0  0  0  0  0  0  0  0  0
   38.6416   30.3287   43.2416 H   0  0  0  0  0  0  0  0  0  0  0  0
   37.7376   28.5413   44.7503 H   0  0  0  0  0  0  0  0  0  0  0  0
   36.4756   26.6320   43.6919 H   0  0  0  0  0  0  0  0  0  0  0  0
   36.2319   26.3896   39.4516 H   0  0  0  0  0  0  0  0  0  0  0  0
   35.0262   27.7391   39.4778 H   0  0  0  0  0  0  0  0  0  0  0  0
   36.7444   26.7885   37.1622 H   0  0  0  0  0  0  0  0  0  0  0  0
   34.9794   26.8629   37.2444 H   0  0  0  0  0  0  0  0  0  0  0  0
   35.3907   29.3300   37.7736 H   0  0  0  0  0  0  0  0  0  0  0  0
   37.9823   28.3867   36.6750 H   0  0  0  0  0  0  0  0  0  0  0  0
   37.4979   30.1241   36.8059 H   0  0  0  0  0  0  0  0  0  0  0  0
   38.8609   28.7163   38.6544 H   0  0  0  0  0  0  0  0  0  0  0  0
   35.8749   30.9965   39.3750 H   0  0  0  0  0  0  0  0  0  0  0  0
   36.2169   33.2763   40.2482 H   0  0  0  0  0  0  0  0  0  0  0  0
   41.2140   32.6349   41.0344 H   0  0  0  0  0  0  0  0  0  0  0  0
   39.9595   34.7906   41.0890 H   0  0  0  0  0  0  0  0  0  0  0  0
   40.9760   36.3819   39.2743 H   0  0  0  0  0  0  0  0  0  0  0  0
   42.4543   35.3777   37.5564 H   0  0  0  0  0  0  0  0  0  0  0  0
   43.1527   34.4580   38.9128 H   0  0  0  0  0  0  0  0  0  0  0  0
   40.5760   33.6018   37.4580 H   0  0  0  0  0  0  0  0  0  0  0  0
   42.1617   33.0119   36.9626 H   0  0  0  0  0  0  0  0  0  0  0  0
   41.1926   31.4854   38.6255 H   0  0  0  0  0  0  0  0  0  0  0  0
   42.6057   32.3693   39.3551 H   0  0  0  0  0  0  0  0  0  0  0  0
  1  2  2  0
  3  2  1  0
  4  3  2  0
  5  6  2  0
  5  4  1  0
  6  1  1  0
  7  5  1  0
  8  7  1  0
  9  8  1  0
 10 11  1  0
 10  9  1  0
 11 12  1  0
 12 13  1  0
 12  7  1  0
 13 18  1  0
 13 14  2  0
 14 15  1  0
 15 16  2  0
 17 16  1  0
 18 17  2  0
 19 17  1  0
 19 20  1  0
 21 20  2  0
 22 21  1  0
 23 22  1  0
 23 24  1  0
 24 19  1  0
  1 25  1  0
  2 26  1  0
  3 27  1  0
  8 28  1  0
  8 29  1  0
  9 30  1  0
  9 31  1  0
 10 32  1  0
 11 33  1  0
 11 34  1  0
 12 35  1  6
 14 36  1  0
 15 37  1  0
 19 38  1  1
 20 39  1  0
 21 40  1  0
 22 41  1  0
 22 42  1  0
 23 43  1  0
 23 44  1  0
 24 45  1  0
 24 46  1  0
M  ISO  8  25  14  26  14  27  14  28  13  29  13  30  13  31  13  32   5
M  ISO  8  33  13  34  13  35  13  36  14  37  14  38  13  39  13  40  13
M  ISO  6  41  13  42  13  43  13  44  13  45  13  46  13
M  END
>  <minimizedAffinity>  (1) 
-5.85355425

>  <minimizedRMSD>  (1) 
1.16976738

$$$$
