
     RDKit          3D

 40 43  0  0  1  0  0  0  0  0999 V2000
   37.9700   29.3480   43.0370 C   0  0  0  0  0  0  0  0  0  0  0  0
   37.3770   28.3300   43.7870 C   0  0  0  0  0  0  0  0  0  0  0  0
   36.6850   27.3390   43.0910 C   0  0  0  0  0  0  0  0  0  0  0  0
   36.6370   27.4350   41.7420 N   0  0  0  0  0  0  0  0  0  0  0  0
   37.2250   28.4420   41.0410 C   0  0  0  0  0  0  0  0  0  0  0  0
   37.8860   29.3850   41.7130 N   0  0  0  0  0  0  0  0  0  0  0  0
   37.1050   28.4350   39.6220 N   0  0  0  0  0  0  0  0  0  0  0  0
   36.0630   27.5730   39.0550 C   0  0  0  0  0  0  0  0  0  0  0  0
   36.0610   27.6400   37.5510 C   0  0  0  0  0  0  0  0  0  0  0  0
   36.2400   29.0120   37.2070 N   0  0  0  0  0  0  0  0  0  0  0  0
   37.6430   29.3420   37.4180 C   0  0  0  0  0  0  0  0  0  0  0  0
   38.0130   29.2730   38.8640 C   0  0  1  0  0  0  0  0  0  0  0  0
   38.1650   30.6080   39.4870 C   0  0  0  0  0  0  0  0  0  0  0  0
   37.1590   31.5860   39.5370 C   0  0  0  0  0  0  0  0  0  0  0  0
   37.3810   32.8100   40.1360 C   0  0  0  0  0  0  0  0  0  0  0  0
   38.5820   33.0820   40.6880 N   0  0  0  0  0  0  0  0  0  0  0  0
   39.5490   32.1650   40.6490 C   0  0  0  0  0  0  0  0  0  0  0  0
   39.3200   31.0060   40.0750 N   0  0  0  0  0  0  0  0  0  0  0  0
   40.8860   32.3730   41.2220 C   0  0  0  0  0  0  0  0  0  0  0  0
   41.3480   31.4960   42.1580 C   0  0  0  0  0  0  0  0  0  0  0  0
   42.5910   31.6250   42.7400 C   0  0  0  0  0  0  0  0  0  0  0  0
   43.3910   32.6520   42.3810 N   0  0  0  0  0  0  0  0  0  0  0  0
   42.9160   33.5120   41.4490 C   0  0  0  0  0  0  0  0  0  0  0  0
   41.6910   33.3890   40.8710 N   0  0  0  0  0  0  0  0  0  0  0  0
   38.5231   30.1427   43.5591 H   0  0  0  0  0  0  0  0  0  0  0  0
   37.4528   28.3105   44.8842 H   0  0  0  0  0  0  0  0  0  0  0  0
   36.1953   26.5083   43.6202 H   0  0  0  0  0  0  0  0  0  0  0  0
   36.2467   26.5345   39.3678 H   0  0  0  0  0  0  0  0  0  0  0  0
   35.0856   27.9207   39.4208 H   0  0  0  0  0  0  0  0  0  0  0  0
   36.8840   27.0352   37.1425 H   0  0  0  0  0  0  0  0  0  0  0  0
   35.1218   27.2450   37.1363 H   0  0  0  0  0  0  0  0  0  0  0  0
   35.6465   29.6040   37.8055 H   0  0  0  0  0  0  0  0  0  0  0  0
   38.2655   28.6303   36.8559 H   0  0  0  0  0  0  0  0  0  0  0  0
   37.8105   30.3716   37.0688 H   0  0  0  0  0  0  0  0  0  0  0  0
   39.0047   28.7980   38.8951 H   0  0  0  0  0  0  0  0  0  0  0  0
   36.1763   31.3733   39.0909 H   0  0  0  0  0  0  0  0  0  0  0  0
   36.5795   33.5629   40.1633 H   0  0  0  0  0  0  0  0  0  0  0  0
   40.7059   30.6553   42.4596 H   0  0  0  0  0  0  0  0  0  0  0  0
   42.9289   30.8964   43.4917 H   0  0  0  0  0  0  0  0  0  0  0  0
   43.5543   34.3541   41.1434 H   0  0  0  0  0  0  0  0  0  0  0  0
  1  2  2  0
  3  2  1  0
  4  3  2  0
  5  6  2  0
  5  4  1  0
  6  1  1  0
  7  5  1  0
  8  7  1  0
  9  8  1  0
 10 11  1  0
 10  9  1  0
 11 12  1  0
 12 13  1  0
 12  7  1  0
 13 14  2  0
 13 18  1  0
 14 15  1  0
 15 16  2  0
 17 16  1  0
 17 19  1  0
 18 17  2  0
 19 20  2  0
 20 21  1  0
 22 21  2  0
 23 22  1  0
 24 19  1  0
 24 23  2  0
  1 25  1  0
  2 26  1  0
  3 27  1  0
  8 28  1  0
  8 29  1  0
  9 30  1  0
  9 31  1  0
 10 32  1  0
 11 33  1  0
 11 34  1  0
 12 35  1  6
 14 36  1  0
 15 37  1  0
 20 38  1  0
 21 39  1  0
 23 40  1  0
M  ISO  8  25  14  26  14  27  14  28  13  29  13  30  13  31  13  32   5
M  ISO  8  33  13  34  13  35  13  36  14  37  14  38  14  39  14  40  14
M  END
>  <minimizedAffinity>  (1) 
-5.63841343

>  <minimizedRMSD>  (1) 
0.583631635

$$$$
