
     RDKit          3D

 50 54  0  0  1  0  0  0  0  0999 V2000
   37.8030   30.1390   39.6900 C   0  0  1  0  0  0  0  0  0  0  0  0
   37.2880   30.2950   38.2370 C   0  0  0  0  0  0  0  0  0  0  0  0
   35.8350   29.8730   38.4180 C   0  0  0  0  0  0  0  0  0  0  0  0
   35.7790   29.0390   39.6790 C   0  0  0  0  0  0  0  0  0  0  0  0
   37.2330   28.8130   40.0400 C   0  0  2  0  0  0  0  0  0  0  0  0
   40.7350   34.7280   39.8400 C   0  0  0  0  0  0  0  0  0  0  0  0
   39.4740   35.3070   40.1230 C   0  0  0  0  0  0  0  0  0  0  0  0
   38.4070   34.4480   40.3170 C   0  0  0  0  0  0  0  0  0  0  0  0
   38.6390   33.1130   40.2220 N   0  0  0  0  0  0  0  0  0  0  0  0
   39.8070   32.5780   39.9600 C   0  0  0  0  0  0  0  0  0  0  0  0
   40.8780   33.3940   39.7640 N   0  0  0  0  0  0  0  0  0  0  0  0
   40.0940   31.1910   39.8410 N   0  0  0  0  0  0  0  0  0  0  0  0
   41.3730   30.8380   39.8420 N   0  0  0  0  0  0  0  0  0  0  0  0
   41.4380   29.4750   39.6980 C   0  0  0  0  0  0  0  0  0  0  0  0
   40.1130   29.0370   39.6110 C   0  0  0  0  0  0  0  0  0  0  0  0
   39.2700   30.1520   39.7060 C   0  0  0  0  0  0  0  0  0  0  0  0
   37.2750   28.4870   41.4440 N   0  0  0  0  0  0  0  0  0  0  0  0
   37.3670   29.3050   42.4780 N   0  0  0  0  0  0  0  0  0  0  0  0
   37.3740   28.6080   43.6380 C   0  0  0  0  0  0  0  0  0  0  0  0
   37.2790   27.2720   43.2700 C   0  0  0  0  0  0  0  0  0  0  0  0
   37.2170   27.1930   41.9050 C   0  0  0  0  0  0  0  0  0  0  0  0
   37.0920   25.8810   41.2010 C   0  0  0  0  0  0  0  0  0  0  0  0
   37.0340   24.7030   42.1430 C   0  0  0  0  0  0  0  0  0  0  0  0
   38.4610   24.2400   42.2980 C   0  0  0  0  0  0  0  0  0  0  0  0
   39.2730   24.9360   41.2480 C   0  0  0  0  0  0  0  0  0  0  0  0
   38.2570   25.5290   40.3300 C   0  0  0  0  0  0  0  0  0  0  0  0
   37.5147   30.9350   40.3924 H   0  0  0  0  0  0  0  0  0  0  0  0
   37.8217   29.6299   37.5422 H   0  0  0  0  0  0  0  0  0  0  0  0
   37.4266   31.2966   37.8038 H   0  0  0  0  0  0  0  0  0  0  0  0
   35.1926   30.7599   38.5211 H   0  0  0  0  0  0  0  0  0  0  0  0
   35.4776   29.3012   37.5489 H   0  0  0  0  0  0  0  0  0  0  0  0
   35.2573   29.5804   40.4819 H   0  0  0  0  0  0  0  0  0  0  0  0
   35.2288   28.0971   39.5371 H   0  0  0  0  0  0  0  0  0  0  0  0
   37.7788   27.9986   39.5412 H   0  0  0  0  0  0  0  0  0  0  0  0
   41.6079   35.3780   39.6805 H   0  0  0  0  0  0  0  0  0  0  0  0
   39.3477   36.3979   40.1862 H   0  0  0  0  0  0  0  0  0  0  0  0
   37.4017   34.8342   40.5413 H   0  0  0  0  0  0  0  0  0  0  0  0
   42.3456   28.8547   39.6590 H   0  0  0  0  0  0  0  0  0  0  0  0
   39.7875   27.9934   39.4887 H   0  0  0  0  0  0  0  0  0  0  0  0
   37.4409   29.0142   44.6581 H   0  0  0  0  0  0  0  0  0  0  0  0
   37.2572   26.4174   43.9622 H   0  0  0  0  0  0  0  0  0  0  0  0
   36.1676   26.0354   40.6250 H   0  0  0  0  0  0  0  0  0  0  0  0
   36.6213   25.0086   43.1157 H   0  0  0  0  0  0  0  0  0  0  0  0
   36.3853   23.9031   41.7565 H   0  0  0  0  0  0  0  0  0  0  0  0
   38.8352   24.5026   43.2985 H   0  0  0  0  0  0  0  0  0  0  0  0
   38.5304   23.1482   42.1832 H   0  0  0  0  0  0  0  0  0  0  0  0
   39.8989   25.7216   41.6964 H   0  0  0  0  0  0  0  0  0  0  0  0
   39.9620   24.2538   40.7284 H   0  0  0  0  0  0  0  0  0  0  0  0
   37.9579   24.7987   39.5637 H   0  0  0  0  0  0  0  0  0  0  0  0
   38.6500   26.4077   39.7976 H   0  0  0  0  0  0  0  0  0  0  0  0
  1 16  1  0
  1  5  1  0
  2  3  1  0
  2  1  1  0
  3  4  1  0
  4  5  1  0
  5 17  1  0
  6  7  2  0
  7  8  1  0
  9  8  2  0
 10  9  1  0
 11  6  1  0
 11 10  2  0
 12 13  1  0
 12 10  1  0
 14 13  2  0
 15 14  1  0
 15 16  2  0
 16 12  1  0
 17 21  1  0
 17 18  1  0
 18 19  2  0
 20 19  1  0
 21 20  2  0
 22 21  1  0
 22 23  1  0
 23 24  1  0
 25 24  1  0
 26 22  1  0
 26 25  1  0
  1 27  1  1
  2 28  1  0
  2 29  1  0
  3 30  1  0
  3 31  1  0
  4 32  1  0
  4 33  1  0
  5 34  1  6
  6 35  1  0
  7 36  1  0
  8 37  1  0
 14 38  1  0
 15 39  1  0
 19 40  1  0
 20 41  1  0
 22 42  1  0
 23 43  1  0
 23 44  1  0
 24 45  1  0
 24 46  1  0
 25 47  1  0
 25 48  1  0
 26 49  1  0
 26 50  1  0
M  ISO  8  27  13  28  13  29  13  30  13  31  13  32  13  33  13  34  13
M  ISO  8  35  14  36  14  37  14  38  14  39  14  40  14  41  14  42  13
M  ISO  8  43  13  44  13  45  13  46  13  47  13  48  13  49  13  50  13
M  END
>  <minimizedAffinity>  (1) 
-6.52809048

>  <minimizedRMSD>  (1) 
1.299402

$$$$
