
     RDKit          3D

 45 48  0  0  1  0  0  0  0  0999 V2000
   38.3880   29.8490   42.6190 C   0  0  0  0  0  0  0  0  0  0  0  0
   37.8870   28.7960   43.3980 C   0  0  0  0  0  0  0  0  0  0  0  0
   37.1580   27.8080   42.7610 C   0  0  0  0  0  0  0  0  0  0  0  0
   36.9800   27.9330   41.4200 N   0  0  0  0  0  0  0  0  0  0  0  0
   37.4690   28.9540   40.6850 C   0  0  0  0  0  0  0  0  0  0  0  0
   38.1750   29.9070   41.3070 N   0  0  0  0  0  0  0  0  0  0  0  0
   37.2130   28.9700   39.2800 N   0  0  0  0  0  0  0  0  0  0  0  0
   36.1370   28.0950   38.7960 C   0  0  0  0  0  0  0  0  0  0  0  0
   36.0330   28.1660   37.2990 C   0  0  0  0  0  0  0  0  0  0  0  0
   36.0970   29.5770   36.9830 N   0  0  0  0  0  0  0  0  0  0  0  0
   37.5170   29.9300   37.0570 C   0  0  0  0  0  0  0  0  0  0  0  0
   38.0350   29.8440   38.4630 C   0  0  1  0  0  0  0  0  0  0  0  0
   38.1970   31.1720   39.0900 C   0  0  0  0  0  0  0  0  0  0  0  0
   37.1610   32.0820   39.3540 C   0  0  0  0  0  0  0  0  0  0  0  0
   37.4100   33.3050   39.9450 C   0  0  0  0  0  0  0  0  0  0  0  0
   38.6640   33.6530   40.2820 N   0  0  0  0  0  0  0  0  0  0  0  0
   39.6720   32.7970   40.0380 C   0  0  0  0  0  0  0  0  0  0  0  0
   39.4130   31.6370   39.4740 N   0  0  0  0  0  0  0  0  0  0  0  0
   41.0900   33.1100   40.3810 C   0  0  0  0  0  0  0  0  0  0  0  0
   41.3380   34.5730   40.5590 C   0  0  0  0  0  0  0  0  0  0  0  0
   41.4300   35.0890   39.1370 C   0  0  0  0  0  0  0  0  0  0  0  0
   41.7300   33.9060   38.2530 C   0  0  0  0  0  0  0  0  0  0  0  0
   41.8950   32.7170   39.1490 C   0  0  0  0  0  0  0  0  0  0  0  0
   38.9708   30.6458   43.1042 H   0  0  0  0  0  0  0  0  0  0  0  0
   38.0682   28.7569   44.4823 H   0  0  0  0  0  0  0  0  0  0  0  0
   36.7397   26.9562   43.3173 H   0  0  0  0  0  0  0  0  0  0  0  0
   36.3516   27.0584   39.0950 H   0  0  0  0  0  0  0  0  0  0  0  0
   35.1845   28.4273   39.2345 H   0  0  0  0  0  0  0  0  0  0  0  0
   36.8679   27.6265   36.8279 H   0  0  0  0  0  0  0  0  0  0  0  0
   35.1073   27.7021   36.9277 H   0  0  0  0  0  0  0  0  0  0  0  0
   35.5539   30.1240   37.6662 H   0  0  0  0  0  0  0  0  0  0  0  0
   38.0904   29.2383   36.4224 H   0  0  0  0  0  0  0  0  0  0  0  0
   37.6321   30.9677   36.7107 H   0  0  0  0  0  0  0  0  0  0  0  0
   39.0396   29.4004   38.3998 H   0  0  0  0  0  0  0  0  0  0  0  0
   36.1286   31.8150   39.0842 H   0  0  0  0  0  0  0  0  0  0  0  0
   36.5783   33.9977   40.1409 H   0  0  0  0  0  0  0  0  0  0  0  0
   41.3500   32.5907   41.3152 H   0  0  0  0  0  0  0  0  0  0  0  0
   40.5065   35.0505   41.0980 H   0  0  0  0  0  0  0  0  0  0  0  0
   42.2390   34.7868   41.1526 H   0  0  0  0  0  0  0  0  0  0  0  0
   40.4758   35.5489   38.8404 H   0  0  0  0  0  0  0  0  0  0  0  0
   42.2169   35.8525   39.0485 H   0  0  0  0  0  0  0  0  0  0  0  0
   40.8987   33.7381   37.5525 H   0  0  0  0  0  0  0  0  0  0  0  0
   42.6412   34.0801   37.6619 H   0  0  0  0  0  0  0  0  0  0  0  0
   41.4866   31.8088   38.6817 H   0  0  0  0  0  0  0  0  0  0  0  0
   42.9462   32.4816   39.3719 H   0  0  0  0  0  0  0  0  0  0  0  0
  1  2  2  0
  3  2  1  0
  4  3  2  0
  5  6  2  0
  5  4  1  0
  6  1  1  0
  7  5  1  0
  8  7  1  0
  9  8  1  0
 10 11  1  0
 10  9  1  0
 11 12  1  0
 12 13  1  0
 12  7  1  0
 13 14  2  0
 13 18  1  0
 14 15  1  0
 15 16  2  0
 17 16  1  0
 17 19  1  0
 18 17  2  0
 19 20  1  0
 21 20  1  0
 22 21  1  0
 22 23  1  0
 23 19  1  0
  1 24  1  0
  2 25  1  0
  3 26  1  0
  8 27  1  0
  8 28  1  0
  9 29  1  0
  9 30  1  0
 10 31  1  0
 11 32  1  0
 11 33  1  0
 12 34  1  6
 14 35  1  0
 15 36  1  0
 19 37  1  0
 20 38  1  0
 20 39  1  0
 21 40  1  0
 21 41  1  0
 22 42  1  0
 22 43  1  0
 23 44  1  0
 23 45  1  0
M  ISO  8  24  14  25  14  26  14  27  13  28  13  29  13  30  13  31   5
M  ISO  8  32  13  33  13  34  13  35  14  36  14  37  13  38  13  39  13
M  ISO  6  40  13  41  13  42  13  43  13  44  13  45  13
M  END
>  <minimizedAffinity>  (1) 
-5.52548456

>  <minimizedRMSD>  (1) 
1.2543726

$$$$
