
     RDKit          3D

 35 37  0  0  1  0  0  0  0  0999 V2000
   38.1570   29.4650   42.9020 C   0  0  0  0  0  0  0  0  0  0  0  0
   37.5450   28.4620   43.6740 C   0  0  0  0  0  0  0  0  0  0  0  0
   36.7080   27.5750   43.0190 C   0  0  0  0  0  0  0  0  0  0  0  0
   36.5360   27.7330   41.6820 N   0  0  0  0  0  0  0  0  0  0  0  0
   37.1360   28.7060   40.9620 C   0  0  0  0  0  0  0  0  0  0  0  0
   37.9450   29.5640   41.5920 N   0  0  0  0  0  0  0  0  0  0  0  0
   36.8790   28.7720   39.5670 N   0  0  0  0  0  0  0  0  0  0  0  0
   35.7150   28.0240   39.0720 C   0  0  0  0  0  0  0  0  0  0  0  0
   35.5860   28.1390   37.5850 C   0  0  0  0  0  0  0  0  0  0  0  0
   35.8550   29.4980   37.2540 N   0  0  0  0  0  0  0  0  0  0  0  0
   37.2950   29.7110   37.3460 C   0  0  0  0  0  0  0  0  0  0  0  0
   37.7760   29.5630   38.7480 C   0  0  1  0  0  0  0  0  0  0  0  0
   38.0920   30.8560   39.3950 C   0  0  0  0  0  0  0  0  0  0  0  0
   37.1570   31.8660   39.6700 C   0  0  0  0  0  0  0  0  0  0  0  0
   37.5250   33.0480   40.2770 C   0  0  0  0  0  0  0  0  0  0  0  0
   38.8150   33.2500   40.6190 N   0  0  0  0  0  0  0  0  0  0  0  0
   39.7190   32.3050   40.3680 C   0  0  0  0  0  0  0  0  0  0  0  0
   39.3520   31.1840   39.7900 N   0  0  0  0  0  0  0  0  0  0  0  0
   41.1270   32.5830   40.7680 C   0  0  0  0  0  0  0  0  0  0  0  0
   41.9980   32.1350   39.7960 F   0  0  0  0  0  0  0  0  0  0  0  0
   41.4050   31.9610   41.9690 F   0  0  0  0  0  0  0  0  0  0  0  0
   41.3440   33.9590   40.9170 F   0  0  0  0  0  0  0  0  0  0  0  0
   38.8276   30.1857   43.3929 H   0  0  0  0  0  0  0  0  0  0  0  0
   37.7243   28.3850   44.7566 H   0  0  0  0  0  0  0  0  0  0  0  0
   36.1983   26.7675   43.5650 H   0  0  0  0  0  0  0  0  0  0  0  0
   35.8300   26.9635   39.3406 H   0  0  0  0  0  0  0  0  0  0  0  0
   34.8097   28.4465   39.5325 H   0  0  0  0  0  0  0  0  0  0  0  0
   36.3117   27.4774   37.0894 H   0  0  0  0  0  0  0  0  0  0  0  0
   34.5807   27.8423   37.2512 H   0  0  0  0  0  0  0  0  0  0  0  0
   35.3672   30.1210   37.9135 H   0  0  0  0  0  0  0  0  0  0  0  0
   37.8076   28.9729   36.7116 H   0  0  0  0  0  0  0  0  0  0  0  0
   37.5166   30.7345   37.0094 H   0  0  0  0  0  0  0  0  0  0  0  0
   38.7223   29.0077   38.6687 H   0  0  0  0  0  0  0  0  0  0  0  0
   36.1036   31.7106   39.3942 H   0  0  0  0  0  0  0  0  0  0  0  0
   36.7711   33.8225   40.4815 H   0  0  0  0  0  0  0  0  0  0  0  0
  1  2  2  0
  3  2  1  0
  4  3  2  0
  5  6  2  0
  5  4  1  0
  6  1  1  0
  7  5  1  0
  8  7  1  0
  9  8  1  0
 10 11  1  0
 10  9  1  0
 11 12  1  0
 12 13  1  0
 12  7  1  0
 13 14  2  0
 13 18  1  0
 14 15  1  0
 15 16  2  0
 17 16  1  0
 17 19  1  0
 18 17  2  0
 19 22  1  0
 19 21  1  0
 20 19  1  0
  1 23  1  0
  2 24  1  0
  3 25  1  0
  8 26  1  0
  8 27  1  0
  9 28  1  0
  9 29  1  0
 10 30  1  0
 11 31  1  0
 11 32  1  0
 12 33  1  6
 14 34  1  0
 15 35  1  0
M  ISO  8  23  14  24  14  25  14  26  13  27  13  28  13  29  13  30   5
M  ISO  5  31  13  32  13  33  13  34  14  35  14
M  END
>  <minimizedAffinity>  (1) 
-5.20476389

>  <minimizedRMSD>  (1) 
0.596409082

$$$$
