
     RDKit          3D

 44 46  0  0  1  0  0  0  0  0999 V2000
   38.2120   29.4720   42.8880 C   0  0  0  0  0  0  0  0  0  0  0  0
   37.5890   28.4920   43.6780 C   0  0  0  0  0  0  0  0  0  0  0  0
   36.7180   27.6150   43.0420 C   0  0  0  0  0  0  0  0  0  0  0  0
   36.5400   27.7720   41.7120 N   0  0  0  0  0  0  0  0  0  0  0  0
   37.1470   28.7200   40.9600 C   0  0  0  0  0  0  0  0  0  0  0  0
   37.9870   29.5670   41.5810 N   0  0  0  0  0  0  0  0  0  0  0  0
   36.8710   28.7770   39.5750 N   0  0  0  0  0  0  0  0  0  0  0  0
   35.7010   28.0560   39.1030 C   0  0  0  0  0  0  0  0  0  0  0  0
   35.5720   28.1440   37.6070 C   0  0  0  0  0  0  0  0  0  0  0  0
   35.8350   29.5170   37.2800 N   0  0  0  0  0  0  0  0  0  0  0  0
   37.2810   29.7060   37.3400 C   0  0  0  0  0  0  0  0  0  0  0  0
   37.7790   29.5480   38.7460 C   0  0  1  0  0  0  0  0  0  0  0  0
   38.1450   30.8300   39.3720 C   0  0  0  0  0  0  0  0  0  0  0  0
   37.2430   31.8510   39.6890 C   0  0  0  0  0  0  0  0  0  0  0  0
   37.6420   33.0320   40.2740 C   0  0  0  0  0  0  0  0  0  0  0  0
   38.9470   33.2200   40.5550 N   0  0  0  0  0  0  0  0  0  0  0  0
   39.8320   32.2650   40.2650 C   0  0  0  0  0  0  0  0  0  0  0  0
   39.4350   31.1310   39.7010 N   0  0  0  0  0  0  0  0  0  0  0  0
   41.2840   32.4540   40.5680 C   0  0  0  0  0  0  0  0  0  0  0  0
   41.5400   33.9410   40.6000 C   0  0  0  0  0  0  0  0  0  0  0  0
   41.7050   31.8010   41.8570 C   0  0  0  0  0  0  0  0  0  0  0  0
   42.0560   31.8840   39.3850 C   0  0  0  0  0  0  0  0  0  0  0  0
   38.9056   30.1809   43.3639 H   0  0  0  0  0  0  0  0  0  0  0  0
   37.7829   28.4212   44.7585 H   0  0  0  0  0  0  0  0  0  0  0  0
   36.1944   26.8244   43.5995 H   0  0  0  0  0  0  0  0  0  0  0  0
   35.7902   26.9988   39.3935 H   0  0  0  0  0  0  0  0  0  0  0  0
   34.8072   28.5098   39.5560 H   0  0  0  0  0  0  0  0  0  0  0  0
   36.3049   27.4851   37.1184 H   0  0  0  0  0  0  0  0  0  0  0  0
   34.5766   27.8259   37.2636 H   0  0  0  0  0  0  0  0  0  0  0  0
   35.3697   30.1367   37.9585 H   0  0  0  0  0  0  0  0  0  0  0  0
   37.7697   28.9585   36.6978 H   0  0  0  0  0  0  0  0  0  0  0  0
   37.5193   30.7222   36.9928 H   0  0  0  0  0  0  0  0  0  0  0  0
   38.7088   28.9653   38.6688 H   0  0  0  0  0  0  0  0  0  0  0  0
   36.1764   31.7052   39.4628 H   0  0  0  0  0  0  0  0  0  0  0  0
   36.9042   33.8132   40.5094 H   0  0  0  0  0  0  0  0  0  0  0  0
   41.5985   34.2806   41.6446 H   0  0  0  0  0  0  0  0  0  0  0  0
   42.4892   34.1607   40.0893 H   0  0  0  0  0  0  0  0  0  0  0  0
   40.7189   34.4655   40.0893 H   0  0  0  0  0  0  0  0  0  0  0  0
   41.3263   32.3884   42.7064 H   0  0  0  0  0  0  0  0  0  0  0  0
   41.2934   30.7820   41.9033 H   0  0  0  0  0  0  0  0  0  0  0  0
   42.8031   31.7553   41.9033 H   0  0  0  0  0  0  0  0  0  0  0  0
   42.8898   31.2684   39.7536 H   0  0  0  0  0  0  0  0  0  0  0  0
   41.3844   31.2635   38.7736 H   0  0  0  0  0  0  0  0  0  0  0  0
   42.4513   32.7085   38.7736 H   0  0  0  0  0  0  0  0  0  0  0  0
  1  2  2  0
  3  2  1  0
  4  3  2  0
  5  6  2  0
  5  4  1  0
  6  1  1  0
  7  5  1  0
  8  7  1  0
  9  8  1  0
 10 11  1  0
 10  9  1  0
 11 12  1  0
 12 13  1  0
 12  7  1  0
 13 14  2  0
 13 18  1  0
 14 15  1  0
 15 16  2  0
 17 16  1  0
 17 19  1  0
 18 17  2  0
 19 20  1  0
 19 21  1  0
 22 19  1  0
  1 23  1  0
  2 24  1  0
  3 25  1  0
  8 26  1  0
  8 27  1  0
  9 28  1  0
  9 29  1  0
 10 30  1  0
 11 31  1  0
 11 32  1  0
 12 33  1  6
 14 34  1  0
 15 35  1  0
 20 36  1  0
 20 37  1  0
 20 38  1  0
 21 39  1  0
 21 40  1  0
 21 41  1  0
 22 42  1  0
 22 43  1  0
 22 44  1  0
M  ISO  8  23  14  24  14  25  14  26  13  27  13  28  13  29  13  30   5
M  ISO  8  31  13  32  13  33  13  34  14  35  14  36   8  37   8  38   8
M  ISO  6  39   8  40   8  41   8  42   8  43   8  44   8
M  END
>  <minimizedAffinity>  (1) 
-5.17634201

>  <minimizedRMSD>  (1) 
0.338242859

$$$$
