
     RDKit          3D

 39 42  0  0  1  0  0  0  0  0999 V2000
   38.1720   29.3540   43.0340 C   0  0  0  0  0  0  0  0  0  0  0  0
   37.5210   28.3700   43.7890 C   0  0  0  0  0  0  0  0  0  0  0  0
   36.6600   27.5170   43.1150 C   0  0  0  0  0  0  0  0  0  0  0  0
   36.5090   27.6940   41.7810 N   0  0  0  0  0  0  0  0  0  0  0  0
   37.1520   28.6540   41.0720 C   0  0  0  0  0  0  0  0  0  0  0  0
   37.9790   29.4720   41.7270 N   0  0  0  0  0  0  0  0  0  0  0  0
   36.9060   28.7350   39.6730 N   0  0  0  0  0  0  0  0  0  0  0  0
   35.7360   28.0300   39.1600 C   0  0  0  0  0  0  0  0  0  0  0  0
   35.6170   28.1860   37.6760 C   0  0  0  0  0  0  0  0  0  0  0  0
   35.9380   29.5460   37.3620 N   0  0  0  0  0  0  0  0  0  0  0  0
   37.3870   29.6950   37.4670 C   0  0  0  0  0  0  0  0  0  0  0  0
   37.8430   29.5110   38.8830 C   0  0  1  0  0  0  0  0  0  0  0  0
   38.2180   30.7760   39.5430 C   0  0  0  0  0  0  0  0  0  0  0  0
   37.3180   31.8070   39.8390 C   0  0  0  0  0  0  0  0  0  0  0  0
   37.7220   32.9720   40.4560 C   0  0  0  0  0  0  0  0  0  0  0  0
   39.0200   33.1310   40.7890 N   0  0  0  0  0  0  0  0  0  0  0  0
   39.8960   32.1530   40.5140 C   0  0  0  0  0  0  0  0  0  0  0  0
   39.4930   31.0500   39.9230 N   0  0  0  0  0  0  0  0  0  0  0  0
   41.3420   32.2830   40.8630 C   0  0  0  0  0  0  0  0  0  0  0  0
   42.0070   33.5390   40.3620 C   0  0  0  0  0  0  0  0  0  0  0  0
   42.3620   32.1950   39.7980 C   0  0  0  0  0  0  0  0  0  0  0  0
   38.8614   30.0471   43.5383 H   0  0  0  0  0  0  0  0  0  0  0  0
   37.6860   28.2776   44.8726 H   0  0  0  0  0  0  0  0  0  0  0  0
   36.1170   26.7220   43.6471 H   0  0  0  0  0  0  0  0  0  0  0  0
   35.8267   26.9608   39.4022 H   0  0  0  0  0  0  0  0  0  0  0  0
   34.8379   28.4592   39.6283 H   0  0  0  0  0  0  0  0  0  0  0  0
   36.3186   27.5072   37.1690 H   0  0  0  0  0  0  0  0  0  0  0  0
   34.5992   27.9392   37.3396 H   0  0  0  0  0  0  0  0  0  0  0  0
   35.4710   30.1793   38.0267 H   0  0  0  0  0  0  0  0  0  0  0  0
   37.8735   28.9407   36.8312 H   0  0  0  0  0  0  0  0  0  0  0  0
   37.6605   30.7087   37.1389 H   0  0  0  0  0  0  0  0  0  0  0  0
   38.7681   28.9192   38.8201 H   0  0  0  0  0  0  0  0  0  0  0  0
   36.2581   31.6840   39.5716 H   0  0  0  0  0  0  0  0  0  0  0  0
   36.9922   33.7653   40.6750 H   0  0  0  0  0  0  0  0  0  0  0  0
   41.2196   31.7683   41.8274 H   0  0  0  0  0  0  0  0  0  0  0  0
   41.4401   34.2610   39.7559 H   0  0  0  0  0  0  0  0  0  0  0  0
   42.5638   34.3688   40.8217 H   0  0  0  0  0  0  0  0  0  0  0  0
   42.0619   31.9348   38.7722 H   0  0  0  0  0  0  0  0  0  0  0  0
   43.2992   31.6335   39.6696 H   0  0  0  0  0  0  0  0  0  0  0  0
  1  2  2  0
  3  2  1  0
  4  3  2  0
  5  6  2  0
  5  4  1  0
  6  1  1  0
  7  5  1  0
  8  7  1  0
  9  8  1  0
 10 11  1  0
 10  9  1  0
 11 12  1  0
 12 13  1  0
 12  7  1  0
 13 14  2  0
 13 18  1  0
 14 15  1  0
 15 16  2  0
 17 16  1  0
 17 19  1  0
 18 17  2  0
 20 19  1  0
 21 20  1  0
 21 19  1  0
  1 22  1  0
  2 23  1  0
  3 24  1  0
  8 25  1  0
  8 26  1  0
  9 27  1  0
  9 28  1  0
 10 29  1  0
 11 30  1  0
 11 31  1  0
 12 32  1  6
 14 33  1  0
 15 34  1  0
 19 35  1  0
 20 36  1  0
 20 37  1  0
 21 38  1  0
 21 39  1  0
M  ISO  8  22  14  23  14  24  14  25  13  26  13  27  13  28  13  29   5
M  ISO  8  30  13  31  13  32  13  33  14  34  14  35  13  36  13  37  13
M  ISO  2  38  13  39  13
M  END
>  <minimizedAffinity>  (1) 
-4.99529505

>  <minimizedRMSD>  (1) 
0.0670724809

$$$$
