
     RDKit          3D

 33 35  0  0  1  0  0  0  0  0999 V2000
   38.1920   29.4180   42.9380 C   0  0  0  0  0  0  0  0  0  0  0  0
   37.5480   28.4400   43.7030 C   0  0  0  0  0  0  0  0  0  0  0  0
   36.6820   27.5750   43.0410 C   0  0  0  0  0  0  0  0  0  0  0  0
   36.5250   27.7390   41.7110 N   0  0  0  0  0  0  0  0  0  0  0  0
   37.1620   28.6980   40.9850 C   0  0  0  0  0  0  0  0  0  0  0  0
   37.9900   29.5230   41.6290 N   0  0  0  0  0  0  0  0  0  0  0  0
   36.9120   28.7670   39.5920 N   0  0  0  0  0  0  0  0  0  0  0  0
   35.7320   28.0490   39.0970 C   0  0  0  0  0  0  0  0  0  0  0  0
   35.5950   28.1920   37.6040 C   0  0  0  0  0  0  0  0  0  0  0  0
   35.8950   29.5540   37.2960 N   0  0  0  0  0  0  0  0  0  0  0  0
   37.3410   29.7250   37.3800 C   0  0  0  0  0  0  0  0  0  0  0  0
   37.8360   29.5350   38.7820 C   0  0  1  0  0  0  0  0  0  0  0  0
   38.1940   30.8190   39.4340 C   0  0  0  0  0  0  0  0  0  0  0  0
   37.2770   31.8350   39.7490 C   0  0  0  0  0  0  0  0  0  0  0  0
   37.6820   33.0050   40.3560 C   0  0  0  0  0  0  0  0  0  0  0  0
   38.9790   33.1890   40.6570 N   0  0  0  0  0  0  0  0  0  0  0  0
   39.8670   32.2320   40.3640 C   0  0  0  0  0  0  0  0  0  0  0  0
   39.4660   31.1210   39.7840 N   0  0  0  0  0  0  0  0  0  0  0  0
   41.5600   32.5770   40.8040 S   0  0  0  0  0  0  0  0  0  0  0  0
   38.8825   30.1173   43.4322 H   0  0  0  0  0  0  0  0  0  0  0  0
   37.7195   28.3578   44.7864 H   0  0  0  0  0  0  0  0  0  0  0  0
   36.1435   26.7841   43.5838 H   0  0  0  0  0  0  0  0  0  0  0  0
   35.8293   26.9825   39.3480 H   0  0  0  0  0  0  0  0  0  0  0  0
   34.8377   28.4788   39.5719 H   0  0  0  0  0  0  0  0  0  0  0  0
   36.3018   27.5224   37.0920 H   0  0  0  0  0  0  0  0  0  0  0  0
   34.5816   27.9236   37.2708 H   0  0  0  0  0  0  0  0  0  0  0  0
   35.4292   30.1763   37.9718 H   0  0  0  0  0  0  0  0  0  0  0  0
   37.8269   28.9859   36.7261 H   0  0  0  0  0  0  0  0  0  0  0  0
   37.5864   30.7494   37.0631 H   0  0  0  0  0  0  0  0  0  0  0  0
   38.7618   28.9463   38.7017 H   0  0  0  0  0  0  0  0  0  0  0  0
   36.2133   31.6945   39.5064 H   0  0  0  0  0  0  0  0  0  0  0  0
   36.9450   33.7863   40.5935 H   0  0  0  0  0  0  0  0  0  0  0  0
   41.6813   32.6017   42.1684 H   0  0  0  0  0  0  0  0  0  0  0  0
  1  2  2  0
  3  2  1  0
  4  3  2  0
  5  6  2  0
  5  4  1  0
  6  1  1  0
  7  5  1  0
  8  7  1  0
  9  8  1  0
 10 11  1  0
 10  9  1  0
 11 12  1  0
 12 13  1  0
 12  7  1  0
 13 14  2  0
 13 18  1  0
 14 15  1  0
 15 16  2  0
 17 16  1  0
 17 19  1  0
 18 17  2  0
  1 20  1  0
  2 21  1  0
  3 22  1  0
  8 23  1  0
  8 24  1  0
  9 25  1  0
  9 26  1  0
 10 27  1  0
 11 28  1  0
 11 29  1  0
 12 30  1  6
 14 31  1  0
 15 32  1  0
 19 33  1  0
M  ISO  8  20  14  21  14  22  14  23  13  24  13  25  13  26  13  27   5
M  ISO  6  28  13  29  13  30  13  31  14  32  14  33  11
M  END
>  <minimizedAffinity>  (1) 
-4.91913128

>  <minimizedRMSD>  (1) 
0.144737601

$$$$
