
     RDKit          3D

 34 36  0  0  1  0  0  0  0  0999 V2000
   38.1400   29.3990   42.9880 C   0  0  0  0  0  0  0  0  0  0  0  0
   37.4970   28.4020   43.7390 C   0  0  0  0  0  0  0  0  0  0  0  0
   36.6560   27.5330   43.0670 C   0  0  0  0  0  0  0  0  0  0  0  0
   36.5140   27.7070   41.7360 N   0  0  0  0  0  0  0  0  0  0  0  0
   37.1420   28.6750   41.0240 C   0  0  0  0  0  0  0  0  0  0  0  0
   37.9500   29.5070   41.6790 N   0  0  0  0  0  0  0  0  0  0  0  0
   36.9050   28.7490   39.6270 N   0  0  0  0  0  0  0  0  0  0  0  0
   35.7420   28.0280   39.1010 C   0  0  0  0  0  0  0  0  0  0  0  0
   35.6320   28.1700   37.6170 C   0  0  0  0  0  0  0  0  0  0  0  0
   35.9200   29.5350   37.3140 N   0  0  0  0  0  0  0  0  0  0  0  0
   37.3600   29.7150   37.4180 C   0  0  0  0  0  0  0  0  0  0  0  0
   37.8310   29.5310   38.8300 C   0  0  1  0  0  0  0  0  0  0  0  0
   38.1780   30.8010   39.4880 C   0  0  0  0  0  0  0  0  0  0  0  0
   37.2660   31.8350   39.7710 C   0  0  0  0  0  0  0  0  0  0  0  0
   37.6440   33.0070   40.3890 C   0  0  0  0  0  0  0  0  0  0  0  0
   38.9440   33.1750   40.7420 N   0  0  0  0  0  0  0  0  0  0  0  0
   39.8300   32.2060   40.4850 C   0  0  0  0  0  0  0  0  0  0  0  0
   39.4510   31.0830   39.8880 N   0  0  0  0  0  0  0  0  0  0  0  0
   41.2050   32.3270   40.8310 N   0  0  0  0  0  0  0  0  0  0  0  0
   38.8147   30.1047   43.4948 H   0  0  0  0  0  0  0  0  0  0  0  0
   37.6564   28.3149   44.8239 H   0  0  0  0  0  0  0  0  0  0  0  0
   36.1230   26.7303   43.5975 H   0  0  0  0  0  0  0  0  0  0  0  0
   35.8400   26.9614   39.3513 H   0  0  0  0  0  0  0  0  0  0  0  0
   34.8367   28.4565   39.5558 H   0  0  0  0  0  0  0  0  0  0  0  0
   36.3566   27.5097   37.1181 H   0  0  0  0  0  0  0  0  0  0  0  0
   34.6281   27.8896   37.2656 H   0  0  0  0  0  0  0  0  0  0  0  0
   35.4397   30.1523   37.9842 H   0  0  0  0  0  0  0  0  0  0  0  0
   37.8609   28.9771   36.7740 H   0  0  0  0  0  0  0  0  0  0  0  0
   37.6060   30.7390   37.1003 H   0  0  0  0  0  0  0  0  0  0  0  0
   38.7627   28.9506   38.7584 H   0  0  0  0  0  0  0  0  0  0  0  0
   36.2113   31.7024   39.4880 H   0  0  0  0  0  0  0  0  0  0  0  0
   36.9037   33.7945   40.5932 H   0  0  0  0  0  0  0  0  0  0  0  0
   41.8591   31.5604   40.6178 H   0  0  0  0  0  0  0  0  0  0  0  0
   41.5462   33.1811   41.2946 H   0  0  0  0  0  0  0  0  0  0  0  0
  1  2  2  0
  3  2  1  0
  4  3  2  0
  5  6  2  0
  5  4  1  0
  6  1  1  0
  7  5  1  0
  8  7  1  0
  9  8  1  0
 10 11  1  0
 10  9  1  0
 11 12  1  0
 12 13  1  0
 12  7  1  0
 13 14  2  0
 13 18  1  0
 14 15  1  0
 15 16  2  0
 17 16  1  0
 17 19  1  0
 18 17  2  0
  1 20  1  0
  2 21  1  0
  3 22  1  0
  8 23  1  0
  8 24  1  0
  9 25  1  0
  9 26  1  0
 10 27  1  0
 11 28  1  0
 11 29  1  0
 12 30  1  6
 14 31  1  0
 15 32  1  0
 19 33  1  0
 19 34  1  0
M  ISO  8  20  14  21  14  22  14  23  13  24  13  25  13  26  13  27   5
M  ISO  5  28  13  29  13  30  13  31  14  32  14
M  END
>  <minimizedAffinity>  (1) 
-4.91730118

>  <minimizedRMSD>  (1) 
0.111224815

$$$$
