
     RDKit          3D

 34 36  0  0  1  0  0  0  0  0999 V2000
   38.1680   29.4320   42.9290 C   0  0  0  0  0  0  0  0  0  0  0  0
   37.5400   28.4490   43.6980 C   0  0  0  0  0  0  0  0  0  0  0  0
   36.6950   27.5720   43.0360 C   0  0  0  0  0  0  0  0  0  0  0  0
   36.5360   27.7250   41.7000 N   0  0  0  0  0  0  0  0  0  0  0  0
   37.1600   28.6910   40.9780 C   0  0  0  0  0  0  0  0  0  0  0  0
   37.9730   29.5330   41.6210 N   0  0  0  0  0  0  0  0  0  0  0  0
   36.9180   28.7600   39.5720 N   0  0  0  0  0  0  0  0  0  0  0  0
   35.7540   28.0150   39.0770 C   0  0  0  0  0  0  0  0  0  0  0  0
   35.6260   28.1630   37.5830 C   0  0  0  0  0  0  0  0  0  0  0  0
   35.8870   29.5390   37.2940 N   0  0  0  0  0  0  0  0  0  0  0  0
   37.3370   29.7220   37.3670 C   0  0  0  0  0  0  0  0  0  0  0  0
   37.8340   29.5520   38.7720 C   0  0  1  0  0  0  0  0  0  0  0  0
   38.1640   30.8320   39.4250 C   0  0  0  0  0  0  0  0  0  0  0  0
   37.2340   31.8440   39.7270 C   0  0  0  0  0  0  0  0  0  0  0  0
   37.5970   33.0220   40.3370 C   0  0  0  0  0  0  0  0  0  0  0  0
   38.9060   33.2110   40.6600 N   0  0  0  0  0  0  0  0  0  0  0  0
   39.8010   32.2660   40.3830 C   0  0  0  0  0  0  0  0  0  0  0  0
   39.4280   31.1460   39.7970 N   0  0  0  0  0  0  0  0  0  0  0  0
   41.1780   32.5640   40.7670 C   0  0  0  0  0  0  0  0  0  0  0  0
   41.5740   33.7390   40.8180 O   0  0  0  0  0  0  0  0  0  0  0  0
   38.8450   30.1441   43.4236 H   0  0  0  0  0  0  0  0  0  0  0  0
   37.7089   28.3742   44.7824 H   0  0  0  0  0  0  0  0  0  0  0  0
   36.1685   26.7743   43.5805 H   0  0  0  0  0  0  0  0  0  0  0  0
   35.8737   26.9502   39.3259 H   0  0  0  0  0  0  0  0  0  0  0  0
   34.8472   28.4172   39.5523 H   0  0  0  0  0  0  0  0  0  0  0  0
   36.3584   27.5206   37.0721 H   0  0  0  0  0  0  0  0  0  0  0  0
   34.6265   27.8631   37.2349 H   0  0  0  0  0  0  0  0  0  0  0  0
   35.4189   30.1411   37.9862 H   0  0  0  0  0  0  0  0  0  0  0  0
   37.8257   28.9780   36.7208 H   0  0  0  0  0  0  0  0  0  0  0  0
   37.5771   30.7422   37.0331 H   0  0  0  0  0  0  0  0  0  0  0  0
   38.7793   28.9943   38.6985 H   0  0  0  0  0  0  0  0  0  0  0  0
   36.1772   31.6870   39.4654 H   0  0  0  0  0  0  0  0  0  0  0  0
   36.8461   33.7946   40.5591 H   0  0  0  0  0  0  0  0  0  0  0  0
   41.8677   31.7429   41.0123 H   0  0  0  0  0  0  0  0  0  0  0  0
  1  2  2  0
  3  2  1  0
  4  3  2  0
  5  6  2  0
  5  4  1  0
  6  1  1  0
  7  5  1  0
  8  7  1  0
  9  8  1  0
 10 11  1  0
 10  9  1  0
 11 12  1  0
 12 13  1  0
 12  7  1  0
 13 14  2  0
 13 18  1  0
 14 15  1  0
 15 16  2  0
 17 16  1  0
 17 19  1  0
 18 17  2  0
 19 20  2  0
  1 21  1  0
  2 22  1  0
  3 23  1  0
  8 24  1  0
  8 25  1  0
  9 26  1  0
  9 27  1  0
 10 28  1  0
 11 29  1  0
 11 30  1  0
 12 31  1  6
 14 32  1  0
 15 33  1  0
 19 34  1  0
M  ISO  8  21  14  22  14  23  14  24  13  25  13  26  13  27  13  28   5
M  ISO  6  29  13  30  13  31  13  32  14  33  14  34   6
M  END
>  <minimizedAffinity>  (1) 
-4.88710833

>  <minimizedRMSD>  (1) 
0.274180859

$$$$
