
     RDKit          3D

 35 37  0  0  1  0  0  0  0  0999 V2000
   38.1480   29.4040   42.9800 C   0  0  0  0  0  0  0  0  0  0  0  0
   37.4990   28.4040   43.7320 C   0  0  0  0  0  0  0  0  0  0  0  0
   36.6610   27.5380   43.0530 C   0  0  0  0  0  0  0  0  0  0  0  0
   36.5220   27.7080   41.7210 N   0  0  0  0  0  0  0  0  0  0  0  0
   37.1520   28.6750   41.0080 C   0  0  0  0  0  0  0  0  0  0  0  0
   37.9690   29.5200   41.6710 N   0  0  0  0  0  0  0  0  0  0  0  0
   36.9260   28.7550   39.6080 N   0  0  0  0  0  0  0  0  0  0  0  0
   35.7620   28.0250   39.0920 C   0  0  0  0  0  0  0  0  0  0  0  0
   35.6690   28.1700   37.5900 C   0  0  0  0  0  0  0  0  0  0  0  0
   35.9320   29.5550   37.3070 N   0  0  0  0  0  0  0  0  0  0  0  0
   37.3820   29.7270   37.4110 C   0  0  0  0  0  0  0  0  0  0  0  0
   37.8570   29.5430   38.8230 C   0  0  1  0  0  0  0  0  0  0  0  0
   38.1970   30.8150   39.4830 C   0  0  0  0  0  0  0  0  0  0  0  0
   37.2790   31.8430   39.7660 C   0  0  0  0  0  0  0  0  0  0  0  0
   37.6520   33.0120   40.3850 C   0  0  0  0  0  0  0  0  0  0  0  0
   38.9410   33.1830   40.7340 N   0  0  0  0  0  0  0  0  0  0  0  0
   39.8330   32.2270   40.4790 C   0  0  0  0  0  0  0  0  0  0  0  0
   39.4560   31.1060   39.8810 N   0  0  0  0  0  0  0  0  0  0  0  0
   41.2870   32.3390   40.8360 C   0  0  0  0  0  0  0  0  0  0  0  0
   38.8210   30.1071   43.4926 H   0  0  0  0  0  0  0  0  0  0  0  0
   37.6531   28.3156   44.8176 H   0  0  0  0  0  0  0  0  0  0  0  0
   36.1248   26.7361   43.5817 H   0  0  0  0  0  0  0  0  0  0  0  0
   35.8606   26.9596   39.3474 H   0  0  0  0  0  0  0  0  0  0  0  0
   34.8509   28.4413   39.5466 H   0  0  0  0  0  0  0  0  0  0  0  0
   36.4167   27.5309   37.0976 H   0  0  0  0  0  0  0  0  0  0  0  0
   34.6806   27.8638   37.2167 H   0  0  0  0  0  0  0  0  0  0  0  0
   35.4515   30.1564   37.9913 H   0  0  0  0  0  0  0  0  0  0  0  0
   37.8772   28.9849   36.7675 H   0  0  0  0  0  0  0  0  0  0  0  0
   37.6323   30.7498   37.0927 H   0  0  0  0  0  0  0  0  0  0  0  0
   38.7950   28.9718   38.7603 H   0  0  0  0  0  0  0  0  0  0  0  0
   36.2252   31.7062   39.4817 H   0  0  0  0  0  0  0  0  0  0  0  0
   36.9087   33.7960   40.5921 H   0  0  0  0  0  0  0  0  0  0  0  0
   41.3962   32.3474   41.9305 H   0  0  0  0  0  0  0  0  0  0  0  0
   41.8340   31.4803   40.4195 H   0  0  0  0  0  0  0  0  0  0  0  0
   41.6961   33.2713   40.4195 H   0  0  0  0  0  0  0  0  0  0  0  0
  1  2  2  0
  3  2  1  0
  4  3  2  0
  5  6  2  0
  5  4  1  0
  6  1  1  0
  7  5  1  0
  8  7  1  0
  9  8  1  0
 10 11  1  0
 10  9  1  0
 11 12  1  0
 12 13  1  0
 12  7  1  0
 13 14  2  0
 13 18  1  0
 14 15  1  0
 15 16  2  0
 17 16  1  0
 17 19  1  0
 18 17  2  0
  1 20  1  0
  2 21  1  0
  3 22  1  0
  8 23  1  0
  8 24  1  0
  9 25  1  0
  9 26  1  0
 10 27  1  0
 11 28  1  0
 11 29  1  0
 12 30  1  6
 14 31  1  0
 15 32  1  0
 19 33  1  0
 19 34  1  0
 19 35  1  0
M  ISO  8  20  14  21  14  22  14  23  13  24  13  25  13  26  13  27   5
M  ISO  8  28  13  29  13  30  13  31  14  32  14  33   8  34   8  35   8
M  END
>  <minimizedAffinity>  (1) 
-4.91316462

>  <minimizedRMSD>  (1) 
0.117005758

$$$$
