
     RDKit          3D

 51 55  0  0  1  0  0  0  0  0999 V2000
   38.7140   30.0560   42.4190 C   0  0  0  0  0  0  0  0  0  0  0  0
   38.3360   29.0210   43.3020 C   0  0  0  0  0  0  0  0  0  0  0  0
   37.5660   27.9960   42.8020 C   0  0  0  0  0  0  0  0  0  0  0  0
   37.2200   28.0420   41.5020 N   0  0  0  0  0  0  0  0  0  0  0  0
   37.5820   29.0370   40.6460 C   0  0  0  0  0  0  0  0  0  0  0  0
   38.3410   30.0440   41.1460 N   0  0  0  0  0  0  0  0  0  0  0  0
   37.1590   28.9790   39.3030 N   0  0  0  0  0  0  0  0  0  0  0  0
   36.0670   28.0480   38.9940 C   0  0  0  0  0  0  0  0  0  0  0  0
   35.7460   28.0780   37.5120 C   0  0  0  0  0  0  0  0  0  0  0  0
   35.7490   29.4600   37.1300 N   0  0  0  0  0  0  0  0  0  0  0  0
   37.1580   29.8430   37.0130 C   0  0  0  0  0  0  0  0  0  0  0  0
   37.8390   29.8400   38.3460 C   0  0  1  0  0  0  0  0  0  0  0  0
   38.0650   31.1990   38.8880 C   0  0  0  0  0  0  0  0  0  0  0  0
   37.0620   32.0230   39.3980 C   0  0  0  0  0  0  0  0  0  0  0  0
   37.3250   33.2820   39.8870 C   0  0  0  0  0  0  0  0  0  0  0  0
   38.5960   33.7360   39.8700 N   0  0  0  0  0  0  0  0  0  0  0  0
   39.5780   32.9710   39.3880 C   0  0  0  0  0  0  0  0  0  0  0  0
   39.2810   31.7770   38.9340 N   0  0  0  0  0  0  0  0  0  0  0  0
   41.0120   33.3860   39.3130 C   0  0  0  0  0  0  0  0  0  0  0  0
   41.1880   34.6160   40.0630 C   0  0  0  0  0  0  0  0  0  0  0  0
   40.3480   35.6830   39.7340 C   0  0  0  0  0  0  0  0  0  0  0  0
   40.3940   36.9100   40.3610 C   0  0  0  0  0  0  0  0  0  0  0  0
   41.3080   37.1250   41.3710 C   0  0  0  0  0  0  0  0  0  0  0  0
   42.1240   36.0680   41.6810 C   0  0  0  0  0  0  0  0  0  0  0  0
   43.0550   36.2330   42.6750 C   0  0  0  0  0  0  0  0  0  0  0  0
   43.9400   35.2700   43.0900 C   0  0  0  0  0  0  0  0  0  0  0  0
   43.8710   34.0320   42.4390 C   0  0  0  0  0  0  0  0  0  0  0  0
   42.9610   33.7770   41.4250 C   0  0  0  0  0  0  0  0  0  0  0  0
   42.1090   34.8240   41.0800 C   0  0  0  0  0  0  0  0  0  0  0  0
   39.3291   30.8875   42.7936 H   0  0  0  0  0  0  0  0  0  0  0  0
   38.6474   29.0337   44.3569 H   0  0  0  0  0  0  0  0  0  0  0  0
   37.2430   27.1642   43.4452 H   0  0  0  0  0  0  0  0  0  0  0  0
   36.3687   27.0291   39.2784 H   0  0  0  0  0  0  0  0  0  0  0  0
   35.1721   28.3500   39.5578 H   0  0  0  0  0  0  0  0  0  0  0  0
   36.5089   27.5241   36.9453 H   0  0  0  0  0  0  0  0  0  0  0  0
   34.7746   27.6063   37.3026 H   0  0  0  0  0  0  0  0  0  0  0  0
   35.2685   29.5829   36.2273 H   0  0  0  0  0  0  0  0  0  0  0  0
   37.6685   29.1298   36.3491 H   0  0  0  0  0  0  0  0  0  0  0  0
   37.2060   30.8625   36.6028 H   0  0  0  0  0  0  0  0  0  0  0  0
   38.8381   29.4133   38.1734 H   0  0  0  0  0  0  0  0  0  0  0  0
   36.0258   31.6540   39.4097 H   0  0  0  0  0  0  0  0  0  0  0  0
   36.5129   33.9081   40.2852 H   0  0  0  0  0  0  0  0  0  0  0  0
   41.6470   32.5976   39.7433 H   0  0  0  0  0  0  0  0  0  0  0  0
   41.2978   33.5469   38.2630 H   0  0  0  0  0  0  0  0  0  0  0  0
   39.6102   35.5361   38.9314 H   0  0  0  0  0  0  0  0  0  0  0  0
   39.7058   37.7126   40.0575 H   0  0  0  0  0  0  0  0  0  0  0  0
   41.3782   38.0884   41.8972 H   0  0  0  0  0  0  0  0  0  0  0  0
   43.0950   37.2109   43.1771 H   0  0  0  0  0  0  0  0  0  0  0  0
   44.6668   35.4608   43.8933 H   0  0  0  0  0  0  0  0  0  0  0  0
   44.5637   33.2335   42.7432 H   0  0  0  0  0  0  0  0  0  0  0  0
   42.9141   32.8009   40.9200 H   0  0  0  0  0  0  0  0  0  0  0  0
  1  2  2  0
  3  2  1  0
  4  3  2  0
  5  6  2  0
  5  4  1  0
  6  1  1  0
  7  5  1  0
  8  7  1  0
  9  8  1  0
 10  9  1  0
 11 10  1  0
 11 12  1  0
 12 13  1  0
 12  7  1  0
 13 18  1  0
 13 14  2  0
 14 15  1  0
 16 15  2  0
 17 16  1  0
 18 17  2  0
 19 17  1  0
 19 20  1  0
 20 29  1  0
 21 20  2  0
 21 22  1  0
 22 23  2  0
 23 24  1  0
 24 25  2  0
 25 26  1  0
 27 26  2  0
 28 27  1  0
 29 28  2  0
 29 24  1  0
  1 30  1  0
  2 31  1  0
  3 32  1  0
  8 33  1  0
  8 34  1  0
  9 35  1  0
  9 36  1  0
 10 37  1  0
 11 38  1  0
 11 39  1  0
 12 40  1  6
 14 41  1  0
 15 42  1  0
 19 43  1  0
 19 44  1  0
 21 45  1  0
 22 46  1  0
 23 47  1  0
 25 48  1  0
 26 49  1  0
 27 50  1  0
 28 51  1  0
M  ISO  8  30  14  31  14  32  14  33  13  34  13  35  13  36  13  37   5
M  ISO  8  38  13  39  13  40  13  41  14  42  14  43   8  44   8  45  14
M  ISO  6  46  14  47  14  48  14  49  14  50  14  51  14
M  END
>  <minimizedAffinity>  (1) 
-7.31172752

>  <minimizedRMSD>  (1) 
1.45264339

$$$$
