
     RDKit          3D

 49 53  0  0  1  0  0  0  0  0999 V2000
   38.1120   29.1600   43.2180 C   0  0  0  0  0  0  0  0  0  0  0  0
   37.3540   28.1740   43.8760 C   0  0  0  0  0  0  0  0  0  0  0  0
   36.5910   27.3210   43.1000 C   0  0  0  0  0  0  0  0  0  0  0  0
   36.6270   27.4940   41.7690 N   0  0  0  0  0  0  0  0  0  0  0  0
   37.3580   28.4450   41.1340 C   0  0  0  0  0  0  0  0  0  0  0  0
   38.1030   29.2750   41.8950 N   0  0  0  0  0  0  0  0  0  0  0  0
   37.3150   28.5270   39.7160 N   0  0  0  0  0  0  0  0  0  0  0  0
   36.2130   27.8110   39.0630 C   0  0  0  0  0  0  0  0  0  0  0  0
   36.3050   27.9630   37.5600 C   0  0  0  0  0  0  0  0  0  0  0  0
   36.6160   29.3520   37.3110 N   0  0  0  0  0  0  0  0  0  0  0  0
   38.0550   29.4850   37.5900 C   0  0  0  0  0  0  0  0  0  0  0  0
   38.3430   29.3010   39.0470 C   0  0  1  0  0  0  0  0  0  0  0  0
   38.6180   30.5680   39.7450 C   0  0  0  0  0  0  0  0  0  0  0  0
   37.7230   31.6490   39.8250 C   0  0  0  0  0  0  0  0  0  0  0  0
   38.0350   32.8130   40.4930 C   0  0  0  0  0  0  0  0  0  0  0  0
   39.2440   32.9200   41.0950 N   0  0  0  0  0  0  0  0  0  0  0  0
   40.1020   31.9080   41.0300 C   0  0  0  0  0  0  0  0  0  0  0  0
   39.7850   30.8070   40.3880 N   0  0  0  0  0  0  0  0  0  0  0  0
   41.4530   31.9720   41.6780 C   0  0  0  0  0  0  0  0  0  0  0  0
   42.2880   32.9060   40.8770 C   0  0  0  0  0  0  0  0  0  0  0  0
   42.5080   34.2310   41.2330 C   0  0  0  0  0  0  0  0  0  0  0  0
   43.2910   34.8720   40.3510 N   0  0  0  0  0  0  0  0  0  0  0  0
   43.5840   33.9470   39.4070 C   0  0  0  0  0  0  0  0  0  0  0  0
   44.3510   34.0450   38.2680 C   0  0  0  0  0  0  0  0  0  0  0  0
   44.4950   32.9220   37.4540 C   0  0  0  0  0  0  0  0  0  0  0  0
   43.8890   31.7300   37.7680 C   0  0  0  0  0  0  0  0  0  0  0  0
   43.1150   31.6240   38.9160 C   0  0  0  0  0  0  0  0  0  0  0  0
   42.9820   32.7390   39.7110 C   0  0  0  0  0  0  0  0  0  0  0  0
   38.7263   29.8516   43.8132 H   0  0  0  0  0  0  0  0  0  0  0  0
   37.3679   28.0846   44.9723 H   0  0  0  0  0  0  0  0  0  0  0  0
   35.9774   26.5302   43.5561 H   0  0  0  0  0  0  0  0  0  0  0  0
   36.2687   26.7438   39.3238 H   0  0  0  0  0  0  0  0  0  0  0  0
   35.2578   28.2339   39.4075 H   0  0  0  0  0  0  0  0  0  0  0  0
   37.1003   27.3170   37.1598 H   0  0  0  0  0  0  0  0  0  0  0  0
   35.3647   27.6699   37.0703 H   0  0  0  0  0  0  0  0  0  0  0  0
   36.4146   29.5965   36.3309 H   0  0  0  0  0  0  0  0  0  0  0  0
   38.6036   28.7231   37.0168 H   0  0  0  0  0  0  0  0  0  0  0  0
   38.3747   30.4958   37.2967 H   0  0  0  0  0  0  0  0  0  0  0  0
   39.2730   28.7156   39.0968 H   0  0  0  0  0  0  0  0  0  0  0  0
   36.7405   31.5627   39.3379 H   0  0  0  0  0  0  0  0  0  0  0  0
   37.3138   33.6424   40.5368 H   0  0  0  0  0  0  0  0  0  0  0  0
   41.3580   32.3431   42.7092 H   0  0  0  0  0  0  0  0  0  0  0  0
   41.9135   30.9737   41.7141 H   0  0  0  0  0  0  0  0  0  0  0  0
   42.0884   34.7010   42.1347 H   0  0  0  0  0  0  0  0  0  0  0  0
   43.6012   35.8536   40.3851 H   0  0  0  0  0  0  0  0  0  0  0  0
   44.8421   34.9934   38.0044 H   0  0  0  0  0  0  0  0  0  0  0  0
   45.1062   32.9921   36.5421 H   0  0  0  0  0  0  0  0  0  0  0  0
   44.0170   30.8584   37.1093 H   0  0  0  0  0  0  0  0  0  0  0  0
   42.6229   30.6768   39.1819 H   0  0  0  0  0  0  0  0  0  0  0  0
  1  2  2  0
  3  2  1  0
  4  3  2  0
  5  4  1  0
  5  6  2  0
  6  1  1  0
  7  5  1  0
  8  7  1  0
  9  8  1  0
 10  9  1  0
 10 11  1  0
 11 12  1  0
 12  7  1  0
 12 13  1  0
 13 14  2  0
 13 18  1  0
 14 15  1  0
 15 16  2  0
 17 16  1  0
 17 19  1  0
 18 17  2  0
 20 21  2  0
 20 19  1  0
 22 21  1  0
 23 28  2  0
 23 22  1  0
 24 23  1  0
 25 26  1  0
 25 24  2  0
 26 27  2  0
 27 28  1  0
 28 20  1  0
  1 29  1  0
  2 30  1  0
  3 31  1  0
  8 32  1  0
  8 33  1  0
  9 34  1  0
  9 35  1  0
 10 36  1  0
 11 37  1  0
 11 38  1  0
 12 39  1  6
 14 40  1  0
 15 41  1  0
 19 42  1  0
 19 43  1  0
 21 44  1  0
 22 45  1  0
 24 46  1  0
 25 47  1  0
 26 48  1  0
 27 49  1  0
M  ISO  8  29  14  30  14  31  14  32  13  33  13  34  13  35  13  36   5
M  ISO  8  37  13  38  13  39  13  40  14  41  14  42   8  43   8  44  14
M  ISO  5  45   9  46  14  47  14  48  14  49  14
M  END
>  <minimizedAffinity>  (1) 
-6.1362648

>  <minimizedRMSD>  (1) 
1.43200481

$$$$
