
     RDKit          3D

 46 50  0  0  1  0  0  0  0  0999 V2000
   38.0550   29.1890   43.2490 C   0  0  0  0  0  0  0  0  0  0  0  0
   37.3600   28.2090   43.9750 C   0  0  0  0  0  0  0  0  0  0  0  0
   36.4800   27.3910   43.2780 C   0  0  0  0  0  0  0  0  0  0  0  0
   36.3510   27.5920   41.9490 N   0  0  0  0  0  0  0  0  0  0  0  0
   37.0270   28.5410   41.2600 C   0  0  0  0  0  0  0  0  0  0  0  0
   37.8860   29.3370   41.9440 N   0  0  0  0  0  0  0  0  0  0  0  0
   36.8170   28.6700   39.8590 N   0  0  0  0  0  0  0  0  0  0  0  0
   35.6040   28.0180   39.3290 C   0  0  0  0  0  0  0  0  0  0  0  0
   35.5280   28.1770   37.8390 C   0  0  0  0  0  0  0  0  0  0  0  0
   35.8690   29.5560   37.5740 N   0  0  0  0  0  0  0  0  0  0  0  0
   37.3260   29.6540   37.6770 C   0  0  0  0  0  0  0  0  0  0  0  0
   37.7860   29.4130   39.0860 C   0  0  1  0  0  0  0  0  0  0  0  0
   38.2080   30.6490   39.7750 C   0  0  0  0  0  0  0  0  0  0  0  0
   37.4020   31.7950   39.9020 C   0  0  0  0  0  0  0  0  0  0  0  0
   37.8340   32.9250   40.5510 C   0  0  0  0  0  0  0  0  0  0  0  0
   39.0650   32.9460   41.0840 N   0  0  0  0  0  0  0  0  0  0  0  0
   39.8520   31.8770   40.9810 C   0  0  0  0  0  0  0  0  0  0  0  0
   39.4140   30.7960   40.3500 N   0  0  0  0  0  0  0  0  0  0  0  0
   41.2440   31.7970   41.5410 C   0  0  0  0  0  0  0  0  0  0  0  0
   42.1040   32.8110   40.9580 N   0  0  0  0  0  0  0  0  0  0  0  0
   42.9140   33.7320   41.5440 C   0  0  0  0  0  0  0  0  0  0  0  0
   43.5290   34.4730   40.6050 N   0  0  0  0  0  0  0  0  0  0  0  0
   43.1440   34.0650   39.3890 C   0  0  0  0  0  0  0  0  0  0  0  0
   43.3750   34.3710   38.0680 C   0  0  0  0  0  0  0  0  0  0  0  0
   42.7730   33.7050   37.0680 N   0  0  0  0  0  0  0  0  0  0  0  0
   41.9240   32.7130   37.3250 C   0  0  0  0  0  0  0  0  0  0  0  0
   41.6950   32.4090   38.5950 N   0  0  0  0  0  0  0  0  0  0  0  0
   42.2660   33.0390   39.6390 C   0  0  0  0  0  0  0  0  0  0  0  0
   38.7575   29.8504   43.7773 H   0  0  0  0  0  0  0  0  0  0  0  0
   37.5073   28.0928   45.0589 H   0  0  0  0  0  0  0  0  0  0  0  0
   35.9069   26.6052   43.7919 H   0  0  0  0  0  0  0  0  0  0  0  0
   35.6313   26.9468   39.5775 H   0  0  0  0  0  0  0  0  0  0  0  0
   34.7201   28.4909   39.7819 H   0  0  0  0  0  0  0  0  0  0  0  0
   36.2434   27.5034   37.3446 H   0  0  0  0  0  0  0  0  0  0  0  0
   34.5285   27.9253   37.4547 H   0  0  0  0  0  0  0  0  0  0  0  0
   35.4215   30.1723   38.2674 H   0  0  0  0  0  0  0  0  0  0  0  0
   37.7841   28.9034   37.0162 H   0  0  0  0  0  0  0  0  0  0  0  0
   37.6298   30.6684   37.3791 H   0  0  0  0  0  0  0  0  0  0  0  0
   38.6848   28.7843   39.0038 H   0  0  0  0  0  0  0  0  0  0  0  0
   36.3918   31.7853   39.4667 H   0  0  0  0  0  0  0  0  0  0  0  0
   37.1777   33.8040   40.6331 H   0  0  0  0  0  0  0  0  0  0  0  0
   41.2016   31.9455   42.6301 H   0  0  0  0  0  0  0  0  0  0  0  0
   41.6598   30.8075   41.3002 H   0  0  0  0  0  0  0  0  0  0  0  0
   43.0472   33.8537   42.6291 H   0  0  0  0  0  0  0  0  0  0  0  0
   44.0732   35.1849   37.8229 H   0  0  0  0  0  0  0  0  0  0  0  0
   41.4287   32.1636   36.5109 H   0  0  0  0  0  0  0  0  0  0  0  0
  1  2  2  0
  3  2  1  0
  4  3  2  0
  5  6  2  0
  5  4  1  0
  6  1  1  0
  7  5  1  0
  8  7  1  0
  9  8  1  0
 10 11  1  0
 10  9  1  0
 11 12  1  0
 12 13  1  0
 12  7  1  0
 13 14  2  0
 13 18  1  0
 14 15  1  0
 15 16  2  0
 17 16  1  0
 17 19  1  0
 18 17  2  0
 20 19  1  0
 20 21  1  0
 22 21  2  0
 23 28  2  0
 23 22  1  0
 24 23  1  0
 25 26  1  0
 25 24  2  0
 26 27  2  0
 27 28  1  0
 28 20  1  0
  1 29  1  0
  2 30  1  0
  3 31  1  0
  8 32  1  0
  8 33  1  0
  9 34  1  0
  9 35  1  0
 10 36  1  0
 11 37  1  0
 11 38  1  0
 12 39  1  6
 14 40  1  0
 15 41  1  0
 19 42  1  0
 19 43  1  0
 21 44  1  0
 24 45  1  0
 26 46  1  0
M  ISO  8  29  14  30  14  31  14  32  13  33  13  34  13  35  13  36   5
M  ISO  8  37  13  38  13  39  13  40  14  41  14  42   8  43   8  44  14
M  ISO  2  45  14  46  14
M  END
>  <minimizedAffinity>  (1) 
-6.10789824

>  <minimizedRMSD>  (1) 
1.0552448

$$$$
