
     RDKit          3D

 51 54  0  0  1  0  0  0  0  0999 V2000
   38.0240   29.3790   42.9690 C   0  0  0  0  0  0  0  0  0  0  0  0
   37.4450   28.3590   43.7510 C   0  0  0  0  0  0  0  0  0  0  0  0
   36.7370   27.3810   43.0960 C   0  0  0  0  0  0  0  0  0  0  0  0
   36.6430   27.4600   41.7490 N   0  0  0  0  0  0  0  0  0  0  0  0
   37.2040   28.4440   41.0080 C   0  0  0  0  0  0  0  0  0  0  0  0
   37.8990   29.4050   41.6560 N   0  0  0  0  0  0  0  0  0  0  0  0
   37.0370   28.4230   39.5880 N   0  0  0  0  0  0  0  0  0  0  0  0
   35.9810   27.5450   39.0790 C   0  0  0  0  0  0  0  0  0  0  0  0
   35.9380   27.5970   37.5740 C   0  0  0  0  0  0  0  0  0  0  0  0
   36.0800   28.9800   37.2150 N   0  0  0  0  0  0  0  0  0  0  0  0
   37.4910   29.3160   37.3630 C   0  0  0  0  0  0  0  0  0  0  0  0
   37.9150   29.2600   38.8020 C   0  0  1  0  0  0  0  0  0  0  0  0
   38.0970   30.6000   39.4000 C   0  0  0  0  0  0  0  0  0  0  0  0
   37.0640   31.5020   39.6500 C   0  0  0  0  0  0  0  0  0  0  0  0
   37.2790   32.7320   40.2060 C   0  0  0  0  0  0  0  0  0  0  0  0
   38.5280   33.0880   40.5240 N   0  0  0  0  0  0  0  0  0  0  0  0
   39.5580   32.2560   40.3030 C   0  0  0  0  0  0  0  0  0  0  0  0
   39.3080   31.0790   39.7660 N   0  0  0  0  0  0  0  0  0  0  0  0
   40.9850   32.5500   40.6190 C   0  0  0  0  0  0  0  0  0  0  0  0
   41.4000   33.8820   40.0120 C   0  0  0  0  0  0  0  0  0  0  0  0
   41.3930   33.7430   38.5330 C   0  0  0  0  0  0  0  0  0  0  0  0
   42.5220   34.5710   37.9620 C   0  0  0  0  0  0  0  0  0  0  0  0
   43.8080   33.9510   38.4650 C   0  0  0  0  0  0  0  0  0  0  0  0
   43.9110   34.0100   39.9680 C   0  0  0  0  0  0  0  0  0  0  0  0
   42.6300   34.4360   40.6300 C   0  0  0  0  0  0  0  0  0  0  0  0
   38.5960   30.1754   43.4675 H   0  0  0  0  0  0  0  0  0  0  0  0
   37.5561   28.3467   44.8453 H   0  0  0  0  0  0  0  0  0  0  0  0
   36.2610   26.5586   43.6501 H   0  0  0  0  0  0  0  0  0  0  0  0
   36.1812   26.5124   39.4008 H   0  0  0  0  0  0  0  0  0  0  0  0
   35.0125   27.8826   39.4765 H   0  0  0  0  0  0  0  0  0  0  0  0
   36.7627   27.0063   37.1486 H   0  0  0  0  0  0  0  0  0  0  0  0
   34.9982   27.1773   37.1859 H   0  0  0  0  0  0  0  0  0  0  0  0
   35.5090   29.5679   37.8390 H   0  0  0  0  0  0  0  0  0  0  0  0
   38.0928   28.6004   36.7836 H   0  0  0  0  0  0  0  0  0  0  0  0
   37.6453   30.3408   36.9943 H   0  0  0  0  0  0  0  0  0  0  0  0
   38.9084   28.7878   38.8154 H   0  0  0  0  0  0  0  0  0  0  0  0
   36.0352   31.2125   39.3895 H   0  0  0  0  0  0  0  0  0  0  0  0
   36.4385   33.4176   40.3888 H   0  0  0  0  0  0  0  0  0  0  0  0
   41.1127   32.5939   41.7107 H   0  0  0  0  0  0  0  0  0  0  0  0
   41.6151   31.7538   40.1960 H   0  0  0  0  0  0  0  0  0  0  0  0
   40.6705   34.6700   40.2503 H   0  0  0  0  0  0  0  0  0  0  0  0
   41.5340   32.6868   38.2600 H   0  0  0  0  0  0  0  0  0  0  0  0
   40.4313   34.0918   38.1287 H   0  0  0  0  0  0  0  0  0  0  0  0
   42.4418   35.6123   38.3075 H   0  0  0  0  0  0  0  0  0  0  0  0
   42.4898   34.5824   36.8625 H   0  0  0  0  0  0  0  0  0  0  0  0
   43.8433   32.8985   38.1473 H   0  0  0  0  0  0  0  0  0  0  0  0
   44.6488   34.5212   38.0433 H   0  0  0  0  0  0  0  0  0  0  0  0
   44.1820   33.0109   40.3400 H   0  0  0  0  0  0  0  0  0  0  0  0
   44.6744   34.7623   40.2155 H   0  0  0  0  0  0  0  0  0  0  0  0
   42.5706   35.5336   40.5875 H   0  0  0  0  0  0  0  0  0  0  0  0
   42.6655   34.0446   41.6574 H   0  0  0  0  0  0  0  0  0  0  0  0
  1  2  2  0
  3  2  1  0
  4  3  2  0
  5  6  2  0
  5  4  1  0
  6  1  1  0
  7  5  1  0
  8  7  1  0
  9  8  1  0
 10 11  1  0
 10  9  1  0
 11 12  1  0
 12 13  1  0
 12  7  1  0
 13 14  2  0
 13 18  1  0
 14 15  1  0
 15 16  2  0
 17 16  1  0
 17 19  1  0
 18 17  2  0
 20 19  1  0
 20 25  1  0
 21 20  1  0
 22 23  1  0
 22 21  1  0
 23 24  1  0
 24 25  1  0
  1 26  1  0
  2 27  1  0
  3 28  1  0
  8 29  1  0
  8 30  1  0
  9 31  1  0
  9 32  1  0
 10 33  1  0
 11 34  1  0
 11 35  1  0
 12 36  1  6
 14 37  1  0
 15 38  1  0
 19 39  1  0
 19 40  1  0
 20 41  1  0
 21 42  1  0
 21 43  1  0
 22 44  1  0
 22 45  1  0
 23 46  1  0
 23 47  1  0
 24 48  1  0
 24 49  1  0
 25 50  1  0
 25 51  1  0
M  ISO  8  26  14  27  14  28  14  29  13  30  13  31  13  32  13  33   5
M  ISO  8  34  13  35  13  36  13  37  14  38  14  39   8  40   8  41  13
M  ISO  8  42  13  43  13  44  13  45  13  46  13  47  13  48  13  49  13
M  ISO  2  50  13  51  13
M  END
>  <minimizedAffinity>  (1) 
-5.79200792

>  <minimizedRMSD>  (1) 
1.15996003

$$$$
