
     RDKit          3D

 47 50  0  0  1  0  0  0  0  0999 V2000
   38.0170   29.3560   43.0210 C   0  0  0  0  0  0  0  0  0  0  0  0
   37.4100   28.3330   43.7650 C   0  0  0  0  0  0  0  0  0  0  0  0
   36.7140   27.3560   43.0670 C   0  0  0  0  0  0  0  0  0  0  0  0
   36.6710   27.4590   41.7190 N   0  0  0  0  0  0  0  0  0  0  0  0
   37.2650   28.4560   41.0200 C   0  0  0  0  0  0  0  0  0  0  0  0
   37.9370   29.4000   41.6960 N   0  0  0  0  0  0  0  0  0  0  0  0
   37.1470   28.4540   39.6000 N   0  0  0  0  0  0  0  0  0  0  0  0
   36.1120   27.5820   39.0290 C   0  0  0  0  0  0  0  0  0  0  0  0
   36.1130   27.6670   37.5260 C   0  0  0  0  0  0  0  0  0  0  0  0
   36.2590   29.0610   37.1930 N   0  0  0  0  0  0  0  0  0  0  0  0
   37.6640   29.3940   37.4010 C   0  0  0  0  0  0  0  0  0  0  0  0
   38.0480   29.3040   38.8540 C   0  0  1  0  0  0  0  0  0  0  0  0
   38.1990   30.6320   39.4780 C   0  0  0  0  0  0  0  0  0  0  0  0
   37.1630   31.5600   39.6520 C   0  0  0  0  0  0  0  0  0  0  0  0
   37.3570   32.7870   40.2410 C   0  0  0  0  0  0  0  0  0  0  0  0
   38.5840   33.1100   40.6640 N   0  0  0  0  0  0  0  0  0  0  0  0
   39.6070   32.2560   40.5210 C   0  0  0  0  0  0  0  0  0  0  0  0
   39.3880   31.0870   39.9520 N   0  0  0  0  0  0  0  0  0  0  0  0
   40.9990   32.5420   40.9660 C   0  0  0  0  0  0  0  0  0  0  0  0
   41.7570   33.3120   40.0290 N   0  0  0  0  0  0  0  0  0  0  0  0
   40.9190   34.0750   39.1590 C   0  0  0  0  0  0  0  0  0  0  0  0
   41.1330   35.5380   39.5070 C   0  0  0  0  0  0  0  0  0  0  0  0
   41.6590   35.4290   40.9240 C   0  0  0  0  0  0  0  0  0  0  0  0
   42.5750   34.2280   40.8020 C   0  0  0  0  0  0  0  0  0  0  0  0
   38.5745   30.1433   43.5496 H   0  0  0  0  0  0  0  0  0  0  0  0
   37.4831   28.3063   44.8622 H   0  0  0  0  0  0  0  0  0  0  0  0
   36.2152   26.5275   43.5913 H   0  0  0  0  0  0  0  0  0  0  0  0
   36.3082   26.5429   39.3318 H   0  0  0  0  0  0  0  0  0  0  0  0
   35.1298   27.9094   39.4007 H   0  0  0  0  0  0  0  0  0  0  0  0
   36.9526   27.0883   37.1136 H   0  0  0  0  0  0  0  0  0  0  0  0
   35.1849   27.2534   37.1045 H   0  0  0  0  0  0  0  0  0  0  0  0
   35.6629   29.6368   37.8046 H   0  0  0  0  0  0  0  0  0  0  0  0
   38.2856   28.6937   36.8239 H   0  0  0  0  0  0  0  0  0  0  0  0
   37.8241   30.4299   37.0674 H   0  0  0  0  0  0  0  0  0  0  0  0
   39.0393   28.8284   38.8874 H   0  0  0  0  0  0  0  0  0  0  0  0
   36.1538   31.2958   39.3031 H   0  0  0  0  0  0  0  0  0  0  0  0
   36.5193   33.4895   40.3620 H   0  0  0  0  0  0  0  0  0  0  0  0
   40.9529   33.0972   41.9145 H   0  0  0  0  0  0  0  0  0  0  0  0
   41.5079   31.5724   41.0705 H   0  0  0  0  0  0  0  0  0  0  0  0
   39.8650   33.8003   39.3129 H   0  0  0  0  0  0  0  0  0  0  0  0
   41.1677   33.8817   38.1051 H   0  0  0  0  0  0  0  0  0  0  0  0
   41.8695   36.0079   38.8386 H   0  0  0  0  0  0  0  0  0  0  0  0
   40.2332   36.1626   39.4060 H   0  0  0  0  0  0  0  0  0  0  0  0
   42.2139   36.3317   41.2193 H   0  0  0  0  0  0  0  0  0  0  0  0
   40.8771   35.3263   41.6908 H   0  0  0  0  0  0  0  0  0  0  0  0
   42.8218   33.8099   41.7891 H   0  0  0  0  0  0  0  0  0  0  0  0
   43.5487   34.4537   40.3427 H   0  0  0  0  0  0  0  0  0  0  0  0
  1  2  2  0
  3  2  1  0
  4  3  2  0
  5  6  2  0
  5  4  1  0
  6  1  1  0
  7  5  1  0
  8  7  1  0
  9  8  1  0
 10 11  1  0
 10  9  1  0
 11 12  1  0
 12 13  1  0
 12  7  1  0
 13 14  2  0
 13 18  1  0
 14 15  1  0
 15 16  2  0
 17 16  1  0
 17 19  1  0
 18 17  2  0
 20 24  1  0
 20 19  1  0
 21 22  1  0
 21 20  1  0
 22 23  1  0
 24 23  1  0
  1 25  1  0
  2 26  1  0
  3 27  1  0
  8 28  1  0
  8 29  1  0
  9 30  1  0
  9 31  1  0
 10 32  1  0
 11 33  1  0
 11 34  1  0
 12 35  1  6
 14 36  1  0
 15 37  1  0
 19 38  1  0
 19 39  1  0
 21 40  1  0
 21 41  1  0
 22 42  1  0
 22 43  1  0
 23 44  1  0
 23 45  1  0
 24 46  1  0
 24 47  1  0
M  ISO  8  25  14  26  14  27  14  28  13  29  13  30  13  31  13  32   5
M  ISO  8  33  13  34  13  35  13  36  14  37  14  38   8  39   8  40  13
M  ISO  7  41  13  42  13  43  13  44  13  45  13  46  13  47  13
M  END
>  <minimizedAffinity>  (1) 
-5.70350647

>  <minimizedRMSD>  (1) 
0.803066015

$$$$
