
     RDKit          3D

 43 46  0  0  1  0  0  0  0  0999 V2000
   38.0870   29.4470   42.8900 C   0  0  0  0  0  0  0  0  0  0  0  0
   37.4920   28.4240   43.6550 C   0  0  0  0  0  0  0  0  0  0  0  0
   36.7490   27.4690   42.9630 C   0  0  0  0  0  0  0  0  0  0  0  0
   36.6520   27.5870   41.6190 N   0  0  0  0  0  0  0  0  0  0  0  0
   37.2370   28.5820   40.9050 C   0  0  0  0  0  0  0  0  0  0  0  0
   37.9580   29.5120   41.5750 N   0  0  0  0  0  0  0  0  0  0  0  0
   37.0690   28.6070   39.4950 N   0  0  0  0  0  0  0  0  0  0  0  0
   35.9930   27.7750   38.9540 C   0  0  0  0  0  0  0  0  0  0  0  0
   35.9670   27.8640   37.4480 C   0  0  0  0  0  0  0  0  0  0  0  0
   36.1120   29.2570   37.1400 N   0  0  0  0  0  0  0  0  0  0  0  0
   37.5450   29.5550   37.2900 C   0  0  0  0  0  0  0  0  0  0  0  0
   37.9630   29.4420   38.7340 C   0  0  1  0  0  0  0  0  0  0  0  0
   38.1720   30.7550   39.3670 C   0  0  0  0  0  0  0  0  0  0  0  0
   37.1550   31.7050   39.6030 C   0  0  0  0  0  0  0  0  0  0  0  0
   37.4000   32.9220   40.2000 C   0  0  0  0  0  0  0  0  0  0  0  0
   38.6640   33.2120   40.5710 N   0  0  0  0  0  0  0  0  0  0  0  0
   39.6460   32.3330   40.3610 C   0  0  0  0  0  0  0  0  0  0  0  0
   39.3910   31.1760   39.7890 N   0  0  0  0  0  0  0  0  0  0  0  0
   41.0740   32.5930   40.7460 C   0  0  0  0  0  0  0  0  0  0  0  0
   41.8840   33.0590   39.5990 C   0  0  0  0  0  0  0  0  0  0  0  0
   41.6160   34.2890   38.9920 C   0  0  0  0  0  0  0  0  0  0  0  0
   42.4080   34.6670   37.9270 C   0  0  0  0  0  0  0  0  0  0  0  0
   43.4050   33.8790   37.4830 N   0  0  0  0  0  0  0  0  0  0  0  0
   43.6550   32.6950   38.0750 C   0  0  0  0  0  0  0  0  0  0  0  0
   42.8930   32.3100   39.1150 N   0  0  0  0  0  0  0  0  0  0  0  0
   38.6793   30.2183   43.4041 H   0  0  0  0  0  0  0  0  0  0  0  0
   37.6085   28.3811   44.7480 H   0  0  0  0  0  0  0  0  0  0  0  0
   36.2553   26.6424   43.4950 H   0  0  0  0  0  0  0  0  0  0  0  0
   36.1582   26.7293   39.2526 H   0  0  0  0  0  0  0  0  0  0  0  0
   35.0312   28.1332   39.3496 H   0  0  0  0  0  0  0  0  0  0  0  0
   36.7974   27.2869   37.0151 H   0  0  0  0  0  0  0  0  0  0  0  0
   35.0361   27.4507   37.0325 H   0  0  0  0  0  0  0  0  0  0  0  0
   35.5568   29.8282   37.7930 H   0  0  0  0  0  0  0  0  0  0  0  0
   38.1273   28.8416   36.6884 H   0  0  0  0  0  0  0  0  0  0  0  0
   37.7308   30.5835   36.9469 H   0  0  0  0  0  0  0  0  0  0  0  0
   38.9421   28.9407   38.7337 H   0  0  0  0  0  0  0  0  0  0  0  0
   36.1260   31.4639   39.2981 H   0  0  0  0  0  0  0  0  0  0  0  0
   36.5843   33.6402   40.3701 H   0  0  0  0  0  0  0  0  0  0  0  0
   41.0950   33.3631   41.5312 H   0  0  0  0  0  0  0  0  0  0  0  0
   41.5060   31.6466   41.1033 H   0  0  0  0  0  0  0  0  0  0  0  0
   40.8008   34.9344   39.3512 H   0  0  0  0  0  0  0  0  0  0  0  0
   42.2210   35.6310   37.4313 H   0  0  0  0  0  0  0  0  0  0  0  0
   44.4708   32.0519   37.7132 H   0  0  0  0  0  0  0  0  0  0  0  0
  1  2  2  0
  3  2  1  0
  4  3  2  0
  5  6  2  0
  5  4  1  0
  6  1  1  0
  7  5  1  0
  8  7  1  0
  9  8  1  0
 10 11  1  0
 10  9  1  0
 11 12  1  0
 12 13  1  0
 12  7  1  0
 13 14  2  0
 13 18  1  0
 14 15  1  0
 15 16  2  0
 17 16  1  0
 17 19  1  0
 18 17  2  0
 20 19  1  0
 21 20  2  0
 22 21  1  0
 23 22  2  0
 23 24  1  0
 24 25  2  0
 25 20  1  0
  1 26  1  0
  2 27  1  0
  3 28  1  0
  8 29  1  0
  8 30  1  0
  9 31  1  0
  9 32  1  0
 10 33  1  0
 11 34  1  0
 11 35  1  0
 12 36  1  6
 14 37  1  0
 15 38  1  0
 19 39  1  0
 19 40  1  0
 21 41  1  0
 22 42  1  0
 24 43  1  0
M  ISO  8  26  14  27  14  28  14  29  13  30  13  31  13  32  13  33   5
M  ISO  8  34  13  35  13  36  13  37  14  38  14  39   8  40   8  41  14
M  ISO  2  42  14  43  14
M  END
>  <minimizedAffinity>  (1) 
-5.63619661

>  <minimizedRMSD>  (1) 
2.81287384

$$$$
