
     RDKit          3D

 41 44  0  0  1  0  0  0  0  0999 V2000
   38.1460   29.4120   42.9680 C   0  0  0  0  0  0  0  0  0  0  0  0
   37.5040   28.4070   43.7260 C   0  0  0  0  0  0  0  0  0  0  0  0
   36.6690   27.5370   43.0530 C   0  0  0  0  0  0  0  0  0  0  0  0
   36.5240   27.7020   41.7300 N   0  0  0  0  0  0  0  0  0  0  0  0
   37.1450   28.6750   41.0000 C   0  0  0  0  0  0  0  0  0  0  0  0
   37.9570   29.5200   41.6620 N   0  0  0  0  0  0  0  0  0  0  0  0
   36.9090   28.7440   39.6110 N   0  0  0  0  0  0  0  0  0  0  0  0
   35.7460   28.0040   39.1010 C   0  0  0  0  0  0  0  0  0  0  0  0
   35.6480   28.1500   37.5980 C   0  0  0  0  0  0  0  0  0  0  0  0
   35.8960   29.5280   37.3150 N   0  0  0  0  0  0  0  0  0  0  0  0
   37.3360   29.7240   37.4060 C   0  0  0  0  0  0  0  0  0  0  0  0
   37.8240   29.5300   38.8200 C   0  0  1  0  0  0  0  0  0  0  0  0
   38.1660   30.8130   39.4750 C   0  0  0  0  0  0  0  0  0  0  0  0
   37.2380   31.8280   39.7570 C   0  0  0  0  0  0  0  0  0  0  0  0
   37.6070   33.0080   40.3690 C   0  0  0  0  0  0  0  0  0  0  0  0
   38.9070   33.1880   40.7060 N   0  0  0  0  0  0  0  0  0  0  0  0
   39.8000   32.2420   40.4470 C   0  0  0  0  0  0  0  0  0  0  0  0
   39.4220   31.1250   39.8630 N   0  0  0  0  0  0  0  0  0  0  0  0
   41.2420   32.3760   40.7910 C   0  0  0  0  0  0  0  0  0  0  0  0
   42.0300   33.0670   39.7380 C   0  0  0  0  0  0  0  0  0  0  0  0
   41.3440   33.4560   38.4020 C   0  0  0  0  0  0  0  0  0  0  0  0
   42.7390   34.2190   37.5800 S   0  0  0  0  0  0  0  0  0  0  0  0
   43.9590   33.9410   39.0120 C   0  0  0  0  0  0  0  0  0  0  0  0
   43.3080   33.3060   40.0340 N   0  0  0  0  0  0  0  0  0  0  0  0
   38.8179   30.1206   43.4744 H   0  0  0  0  0  0  0  0  0  0  0  0
   37.6633   28.3209   44.8110 H   0  0  0  0  0  0  0  0  0  0  0  0
   36.1392   26.7335   43.5856 H   0  0  0  0  0  0  0  0  0  0  0  0
   35.8532   26.9393   39.3559 H   0  0  0  0  0  0  0  0  0  0  0  0
   34.8333   28.4116   39.5602 H   0  0  0  0  0  0  0  0  0  0  0  0
   36.4001   27.5177   37.1035 H   0  0  0  0  0  0  0  0  0  0  0  0
   34.6608   27.8359   37.2280 H   0  0  0  0  0  0  0  0  0  0  0  0
   35.4130   30.1236   38.0026 H   0  0  0  0  0  0  0  0  0  0  0  0
   37.8392   28.9985   36.7499 H   0  0  0  0  0  0  0  0  0  0  0  0
   37.5680   30.7534   37.0953 H   0  0  0  0  0  0  0  0  0  0  0  0
   38.7573   28.9518   38.7515 H   0  0  0  0  0  0  0  0  0  0  0  0
   36.1838   31.6777   39.4814 H   0  0  0  0  0  0  0  0  0  0  0  0
   36.8602   33.7878   40.5794 H   0  0  0  0  0  0  0  0  0  0  0  0
   41.3272   32.9500   41.7255 H   0  0  0  0  0  0  0  0  0  0  0  0
   41.6508   31.3599   40.8933 H   0  0  0  0  0  0  0  0  0  0  0  0
   40.3087   33.3072   38.0614 H   0  0  0  0  0  0  0  0  0  0  0  0
   45.0170   34.2421   39.0177 H   0  0  0  0  0  0  0  0  0  0  0  0
  1  2  2  0
  3  2  1  0
  4  3  2  0
  5  6  2  0
  5  4  1  0
  6  1  1  0
  7  5  1  0
  8  7  1  0
  9  8  1  0
 10 11  1  0
 10  9  1  0
 11 12  1  0
 12 13  1  0
 12  7  1  0
 13 14  2  0
 13 18  1  0
 14 15  1  0
 15 16  2  0
 17 16  1  0
 17 19  1  0
 18 17  2  0
 20 24  1  0
 20 19  1  0
 21 20  2  0
 22 21  1  0
 22 23  1  0
 23 24  2  0
  1 25  1  0
  2 26  1  0
  3 27  1  0
  8 28  1  0
  8 29  1  0
  9 30  1  0
  9 31  1  0
 10 32  1  0
 11 33  1  0
 11 34  1  0
 12 35  1  6
 14 36  1  0
 15 37  1  0
 19 38  1  0
 19 39  1  0
 21 40  1  0
 23 41  1  0
M  ISO  8  25  14  26  14  27  14  28  13  29  13  30  13  31  13  32   5
M  ISO  8  33  13  34  13  35  13  36  14  37  14  38   8  39   8  40  14
M  ISO  1  41  14
M  END
>  <minimizedAffinity>  (1) 
-5.52647591

>  <minimizedRMSD>  (1) 
0.122626372

$$$$
