
     RDKit          3D

 42 45  0  0  1  0  0  0  0  0999 V2000
   38.2080   29.4950   42.9010 C   0  0  0  0  0  0  0  0  0  0  0  0
   37.5870   28.5000   43.6730 C   0  0  0  0  0  0  0  0  0  0  0  0
   36.7410   27.6080   43.0370 C   0  0  0  0  0  0  0  0  0  0  0  0
   36.5700   27.7590   41.7010 N   0  0  0  0  0  0  0  0  0  0  0  0
   37.1690   28.7190   40.9590 C   0  0  0  0  0  0  0  0  0  0  0  0
   37.9940   29.5860   41.5920 N   0  0  0  0  0  0  0  0  0  0  0  0
   36.9100   28.7750   39.5640 N   0  0  0  0  0  0  0  0  0  0  0  0
   35.7430   28.0270   39.0850 C   0  0  0  0  0  0  0  0  0  0  0  0
   35.6310   28.1410   37.5840 C   0  0  0  0  0  0  0  0  0  0  0  0
   35.8590   29.5350   37.2780 N   0  0  0  0  0  0  0  0  0  0  0  0
   37.2990   29.7340   37.3400 C   0  0  0  0  0  0  0  0  0  0  0  0
   37.8120   29.5580   38.7420 C   0  0  1  0  0  0  0  0  0  0  0  0
   38.1690   30.8420   39.3760 C   0  0  0  0  0  0  0  0  0  0  0  0
   37.2470   31.8670   39.6830 C   0  0  0  0  0  0  0  0  0  0  0  0
   37.6310   33.0460   40.2750 C   0  0  0  0  0  0  0  0  0  0  0  0
   38.9250   33.2350   40.5760 N   0  0  0  0  0  0  0  0  0  0  0  0
   39.8250   32.2820   40.2990 C   0  0  0  0  0  0  0  0  0  0  0  0
   39.4300   31.1640   39.7320 N   0  0  0  0  0  0  0  0  0  0  0  0
   41.2790   32.4190   40.6050 C   0  0  0  0  0  0  0  0  0  0  0  0
   41.9950   33.1250   39.5590 N   0  0  0  0  0  0  0  0  0  0  0  0
   43.2280   33.5780   39.4940 N   0  0  0  0  0  0  0  0  0  0  0  0
   43.4430   34.1760   38.3030 C   0  0  0  0  0  0  0  0  0  0  0  0
   42.2710   34.1020   37.5560 C   0  0  0  0  0  0  0  0  0  0  0  0
   41.3870   33.4320   38.3880 C   0  0  0  0  0  0  0  0  0  0  0  0
   38.8843   30.2127   43.3884 H   0  0  0  0  0  0  0  0  0  0  0  0
   37.7682   28.4312   44.7558 H   0  0  0  0  0  0  0  0  0  0  0  0
   36.2284   26.8092   43.5931 H   0  0  0  0  0  0  0  0  0  0  0  0
   35.8515   26.9680   39.3619 H   0  0  0  0  0  0  0  0  0  0  0  0
   34.8354   28.4444   39.5454 H   0  0  0  0  0  0  0  0  0  0  0  0
   36.3891   27.5122   37.0943 H   0  0  0  0  0  0  0  0  0  0  0  0
   34.6483   27.8025   37.2240 H   0  0  0  0  0  0  0  0  0  0  0  0
   35.3857   30.1343   37.9691 H   0  0  0  0  0  0  0  0  0  0  0  0
   37.7911   29.0015   36.6832 H   0  0  0  0  0  0  0  0  0  0  0  0
   37.5233   30.7601   37.0131 H   0  0  0  0  0  0  0  0  0  0  0  0
   38.7444   28.9802   38.6595 H   0  0  0  0  0  0  0  0  0  0  0  0
   36.1849   31.7162   39.4398 H   0  0  0  0  0  0  0  0  0  0  0  0
   36.8873   33.8249   40.4993 H   0  0  0  0  0  0  0  0  0  0  0  0
   41.3918   32.9738   41.5481 H   0  0  0  0  0  0  0  0  0  0  0  0
   41.7046   31.4076   40.6822 H   0  0  0  0  0  0  0  0  0  0  0  0
   44.3847   34.6426   37.9781 H   0  0  0  0  0  0  0  0  0  0  0  0
   42.0884   34.4858   36.5414 H   0  0  0  0  0  0  0  0  0  0  0  0
   40.3453   33.1860   38.1345 H   0  0  0  0  0  0  0  0  0  0  0  0
  1  2  2  0
  3  2  1  0
  4  3  2  0
  5  6  2  0
  5  4  1  0
  6  1  1  0
  7  5  1  0
  8  7  1  0
  9  8  1  0
 10 11  1  0
 10  9  1  0
 11 12  1  0
 12 13  1  0
 12  7  1  0
 13 14  2  0
 13 18  1  0
 14 15  1  0
 15 16  2  0
 17 16  1  0
 17 19  1  0
 18 17  2  0
 20 19  1  0
 21 20  1  0
 22 21  2  0
 23 22  1  0
 23 24  2  0
 24 20  1  0
  1 25  1  0
  2 26  1  0
  3 27  1  0
  8 28  1  0
  8 29  1  0
  9 30  1  0
  9 31  1  0
 10 32  1  0
 11 33  1  0
 11 34  1  0
 12 35  1  6
 14 36  1  0
 15 37  1  0
 19 38  1  0
 19 39  1  0
 22 40  1  0
 23 41  1  0
 24 42  1  0
M  ISO  8  25  14  26  14  27  14  28  13  29  13  30  13  31  13  32   5
M  ISO  8  33  13  34  13  35  13  36  14  37  14  38   8  39   8  40  14
M  ISO  2  41  14  42  14
M  END
>  <minimizedAffinity>  (1) 
-5.51746321

>  <minimizedRMSD>  (1) 
0.196942791

$$$$
