
     RDKit          3D

 48 51  0  0  1  0  0  0  0  0999 V2000
   38.3910   29.9190   42.4070 C   0  0  0  0  0  0  0  0  0  0  0  0
   37.9130   28.9350   43.2960 C   0  0  0  0  0  0  0  0  0  0  0  0
   37.1080   27.9390   42.7750 C   0  0  0  0  0  0  0  0  0  0  0  0
   36.8410   27.9800   41.4610 N   0  0  0  0  0  0  0  0  0  0  0  0
   37.3030   28.9280   40.6130 C   0  0  0  0  0  0  0  0  0  0  0  0
   38.0910   29.9030   41.1220 N   0  0  0  0  0  0  0  0  0  0  0  0
   36.9470   28.8600   39.2400 N   0  0  0  0  0  0  0  0  0  0  0  0
   35.8240   27.9870   38.9000 C   0  0  0  0  0  0  0  0  0  0  0  0
   35.5930   27.9800   37.4060 C   0  0  0  0  0  0  0  0  0  0  0  0
   35.6750   29.3610   36.9840 N   0  0  0  0  0  0  0  0  0  0  0  0
   37.1000   29.6730   36.9320 C   0  0  0  0  0  0  0  0  0  0  0  0
   37.7160   29.6500   38.3100 C   0  0  1  0  0  0  0  0  0  0  0  0
   38.0040   31.0000   38.8260 C   0  0  0  0  0  0  0  0  0  0  0  0
   37.0170   31.9540   39.1600 C   0  0  0  0  0  0  0  0  0  0  0  0
   37.3340   33.2010   39.6390 C   0  0  0  0  0  0  0  0  0  0  0  0
   38.6210   33.5370   39.7980 N   0  0  0  0  0  0  0  0  0  0  0  0
   39.5800   32.6550   39.4900 C   0  0  0  0  0  0  0  0  0  0  0  0
   39.2540   31.4610   39.0320 N   0  0  0  0  0  0  0  0  0  0  0  0
   41.0530   32.9320   39.6320 C   0  0  0  0  0  0  0  0  0  0  0  0
   41.4170   33.4390   40.9130 N   0  0  0  0  0  0  0  0  0  0  0  0
   42.4850   32.6040   41.4350 C   0  0  0  0  0  0  0  0  0  0  0  0
   43.7820   32.8160   40.6850 C   0  0  0  0  0  0  0  0  0  0  0  0
   44.2430   34.1210   40.8080 O   0  0  0  0  0  0  0  0  0  0  0  0
   43.3290   34.8930   41.4890 C   0  0  0  0  0  0  0  0  0  0  0  0
   41.9350   34.7980   40.8580 C   0  0  0  0  0  0  0  0  0  0  0  0
   39.0327   30.7235   42.7956 H   0  0  0  0  0  0  0  0  0  0  0  0
   38.1710   28.9587   44.3650 H   0  0  0  0  0  0  0  0  0  0  0  0
   36.7012   27.1419   43.4147 H   0  0  0  0  0  0  0  0  0  0  0  0
   36.0460   26.9637   39.2369 H   0  0  0  0  0  0  0  0  0  0  0  0
   34.9180   28.3619   39.3986 H   0  0  0  0  0  0  0  0  0  0  0  0
   36.3653   27.3799   36.9025 H   0  0  0  0  0  0  0  0  0  0  0  0
   34.6187   27.5376   37.1508 H   0  0  0  0  0  0  0  0  0  0  0  0
   35.2473   29.4787   36.0544 H   0  0  0  0  0  0  0  0  0  0  0  0
   37.6071   28.9290   36.3001 H   0  0  0  0  0  0  0  0  0  0  0  0
   37.2196   30.6836   36.5145 H   0  0  0  0  0  0  0  0  0  0  0  0
   38.6895   29.1493   38.2028 H   0  0  0  0  0  0  0  0  0  0  0  0
   35.9573   31.6884   39.0318 H   0  0  0  0  0  0  0  0  0  0  0  0
   36.5383   33.9178   39.8900 H   0  0  0  0  0  0  0  0  0  0  0  0
   41.6014   31.9940   39.4605 H   0  0  0  0  0  0  0  0  0  0  0  0
   41.3083   33.7066   38.8939 H   0  0  0  0  0  0  0  0  0  0  0  0
   42.6428   32.8495   42.4956 H   0  0  0  0  0  0  0  0  0  0  0  0
   42.1874   31.5521   41.3126 H   0  0  0  0  0  0  0  0  0  0  0  0
   43.6173   32.5957   39.6200 H   0  0  0  0  0  0  0  0  0  0  0  0
   44.5392   32.1444   41.1158 H   0  0  0  0  0  0  0  0  0  0  0  0
   43.2742   34.5464   42.5315 H   0  0  0  0  0  0  0  0  0  0  0  0
   43.6589   35.9413   41.4426 H   0  0  0  0  0  0  0  0  0  0  0  0
   41.9961   35.1151   39.8065 H   0  0  0  0  0  0  0  0  0  0  0  0
   41.2542   35.4504   41.4244 H   0  0  0  0  0  0  0  0  0  0  0  0
  1  2  2  0
  3  2  1  0
  4  3  2  0
  5  6  2  0
  5  4  1  0
  6  1  1  0
  7  5  1  0
  8  7  1  0
  9  8  1  0
 10  9  1  0
 11 10  1  0
 11 12  1  0
 12 13  1  0
 12  7  1  0
 13 18  1  0
 13 14  2  0
 14 15  1  0
 15 16  2  0
 17 19  1  0
 17 16  1  0
 18 17  2  0
 19 20  1  0
 20 21  1  0
 22 23  1  0
 22 21  1  0
 23 24  1  0
 25 20  1  0
 25 24  1  0
  1 26  1  0
  2 27  1  0
  3 28  1  0
  8 29  1  0
  8 30  1  0
  9 31  1  0
  9 32  1  0
 10 33  1  0
 11 34  1  0
 11 35  1  0
 12 36  1  6
 14 37  1  0
 15 38  1  0
 19 39  1  0
 19 40  1  0
 21 41  1  0
 21 42  1  0
 22 43  1  0
 22 44  1  0
 24 45  1  0
 24 46  1  0
 25 47  1  0
 25 48  1  0
M  ISO  8  26  14  27  14  28  14  29  13  30  13  31  13  32  13  33   5
M  ISO  8  34  13  35  13  36  13  37  14  38  14  39   8  40   8  41  13
M  ISO  7  42  13  43  13  44  13  45  13  46  13  47  13  48  13
M  END
>  <minimizedAffinity>  (1) 
-5.46303892

>  <minimizedRMSD>  (1) 
2.43846178

$$$$
