
     RDKit          3D

 42 45  0  0  1  0  0  0  0  0999 V2000
   38.0310   29.3610   43.0110 C   0  0  0  0  0  0  0  0  0  0  0  0
   37.4290   28.3400   43.7720 C   0  0  0  0  0  0  0  0  0  0  0  0
   36.7140   27.3720   43.1090 C   0  0  0  0  0  0  0  0  0  0  0  0
   36.6330   27.4610   41.7570 N   0  0  0  0  0  0  0  0  0  0  0  0
   37.2130   28.4420   41.0310 C   0  0  0  0  0  0  0  0  0  0  0  0
   37.9150   29.3920   41.6830 N   0  0  0  0  0  0  0  0  0  0  0  0
   37.0620   28.4360   39.6130 N   0  0  0  0  0  0  0  0  0  0  0  0
   36.0020   27.5820   39.0830 C   0  0  0  0  0  0  0  0  0  0  0  0
   35.9750   27.6530   37.5740 C   0  0  0  0  0  0  0  0  0  0  0  0
   36.1260   29.0380   37.2370 N   0  0  0  0  0  0  0  0  0  0  0  0
   37.5400   29.3500   37.3950 C   0  0  0  0  0  0  0  0  0  0  0  0
   37.9580   29.2620   38.8360 C   0  0  1  0  0  0  0  0  0  0  0  0
   38.1580   30.5950   39.4520 C   0  0  0  0  0  0  0  0  0  0  0  0
   37.1200   31.5260   39.6850 C   0  0  0  0  0  0  0  0  0  0  0  0
   37.3570   32.7510   40.2610 C   0  0  0  0  0  0  0  0  0  0  0  0
   38.6050   33.0800   40.6110 N   0  0  0  0  0  0  0  0  0  0  0  0
   39.6060   32.2160   40.4010 C   0  0  0  0  0  0  0  0  0  0  0  0
   39.3610   31.0420   39.8470 N   0  0  0  0  0  0  0  0  0  0  0  0
   41.0310   32.5120   40.7670 C   0  0  0  0  0  0  0  0  0  0  0  0
   41.8380   32.9550   39.6830 C   0  0  0  0  0  0  0  0  0  0  0  0
   42.8470   32.4200   38.9380 C   0  0  0  0  0  0  0  0  0  0  0  0
   43.4310   33.1460   37.9260 C   0  0  0  0  0  0  0  0  0  0  0  0
   42.9810   34.4020   37.6890 C   0  0  0  0  0  0  0  0  0  0  0  0
   41.6150   34.5850   39.0020 S   0  0  0  0  0  0  0  0  0  0  0  0
   38.6072   30.1469   43.5214 H   0  0  0  0  0  0  0  0  0  0  0  0
   37.5286   28.3182   44.8673 H   0  0  0  0  0  0  0  0  0  0  0  0
   36.2238   26.5527   43.6553 H   0  0  0  0  0  0  0  0  0  0  0  0
   36.1841   26.5427   39.3940 H   0  0  0  0  0  0  0  0  0  0  0  0
   35.0343   27.9290   39.4744 H   0  0  0  0  0  0  0  0  0  0  0  0
   36.8019   27.0647   37.1496 H   0  0  0  0  0  0  0  0  0  0  0  0
   35.0384   27.2415   37.1696 H   0  0  0  0  0  0  0  0  0  0  0  0
   35.5599   29.6218   37.8691 H   0  0  0  0  0  0  0  0  0  0  0  0
   38.1332   28.6358   36.8050 H   0  0  0  0  0  0  0  0  0  0  0  0
   37.7111   30.3786   37.0448 H   0  0  0  0  0  0  0  0  0  0  0  0
   38.9393   28.7650   38.8431 H   0  0  0  0  0  0  0  0  0  0  0  0
   36.0918   31.2620   39.3966 H   0  0  0  0  0  0  0  0  0  0  0  0
   36.5284   33.4539   40.4324 H   0  0  0  0  0  0  0  0  0  0  0  0
   41.0319   33.2958   41.5388 H   0  0  0  0  0  0  0  0  0  0  0  0
   41.4679   31.5647   41.1158 H   0  0  0  0  0  0  0  0  0  0  0  0
   43.1971   31.3986   39.1482 H   0  0  0  0  0  0  0  0  0  0  0  0
   44.2447   32.7168   37.3229 H   0  0  0  0  0  0  0  0  0  0  0  0
   43.3177   35.1275   36.9339 H   0  0  0  0  0  0  0  0  0  0  0  0
  1  2  2  0
  3  2  1  0
  4  3  2  0
  5  6  2  0
  5  4  1  0
  6  1  1  0
  7  5  1  0
  8  7  1  0
  9  8  1  0
 10 11  1  0
 10  9  1  0
 11 12  1  0
 12 13  1  0
 12  7  1  0
 13 14  2  0
 13 18  1  0
 14 15  1  0
 15 16  2  0
 17 16  1  0
 17 19  1  0
 18 17  2  0
 20 19  1  0
 21 20  2  0
 22 21  1  0
 23 22  2  0
 23 24  1  0
 24 20  1  0
  1 25  1  0
  2 26  1  0
  3 27  1  0
  8 28  1  0
  8 29  1  0
  9 30  1  0
  9 31  1  0
 10 32  1  0
 11 33  1  0
 11 34  1  0
 12 35  1  6
 14 36  1  0
 15 37  1  0
 19 38  1  0
 19 39  1  0
 21 40  1  0
 22 41  1  0
 23 42  1  0
M  ISO  8  25  14  26  14  27  14  28  13  29  13  30  13  31  13  32   5
M  ISO  8  33  13  34  13  35  13  36  14  37  14  38   8  39   8  40  14
M  ISO  2  41  14  42  14
M  END
>  <minimizedAffinity>  (1) 
-5.4123807

>  <minimizedRMSD>  (1) 
2.65146279

$$$$
