
     RDKit          3D

 50 54  0  0  1  0  0  0  0  0999 V2000
   38.0630   30.4170   39.5780 C   0  0  1  0  0  0  0  0  0  0  0  0
   37.4990   30.5040   38.1360 C   0  0  0  0  0  0  0  0  0  0  0  0
   36.0700   30.0120   38.3710 C   0  0  0  0  0  0  0  0  0  0  0  0
   36.0930   29.2180   39.6590 C   0  0  0  0  0  0  0  0  0  0  0  0
   37.5820   29.0750   39.9910 C   0  0  2  0  0  0  0  0  0  0  0  0
   40.7280   35.1660   39.7320 C   0  0  0  0  0  0  0  0  0  0  0  0
   39.4600   35.6640   40.0660 C   0  0  0  0  0  0  0  0  0  0  0  0
   38.4490   34.7510   40.2790 C   0  0  0  0  0  0  0  0  0  0  0  0
   38.7510   33.4250   40.1510 N   0  0  0  0  0  0  0  0  0  0  0  0
   39.9370   32.9610   39.8390 C   0  0  0  0  0  0  0  0  0  0  0  0
   40.9500   33.8400   39.6240 N   0  0  0  0  0  0  0  0  0  0  0  0
   40.2880   31.6000   39.6880 N   0  0  0  0  0  0  0  0  0  0  0  0
   41.5850   31.3090   39.6470 N   0  0  0  0  0  0  0  0  0  0  0  0
   41.7200   29.9540   39.4790 C   0  0  0  0  0  0  0  0  0  0  0  0
   40.4180   29.4520   39.4220 C   0  0  0  0  0  0  0  0  0  0  0  0
   39.5330   30.5150   39.5570 C   0  0  0  0  0  0  0  0  0  0  0  0
   37.6670   28.8110   41.3980 N   0  0  0  0  0  0  0  0  0  0  0  0
   37.5780   29.6430   42.4110 N   0  0  0  0  0  0  0  0  0  0  0  0
   37.7050   29.0060   43.5950 C   0  0  0  0  0  0  0  0  0  0  0  0
   37.8870   27.6690   43.2690 C   0  0  0  0  0  0  0  0  0  0  0  0
   37.8580   27.5710   41.9010 C   0  0  0  0  0  0  0  0  0  0  0  0
   38.0330   26.2660   41.3720 N   0  0  0  0  0  0  0  0  0  0  0  0
   39.2620   25.8670   40.6630 C   0  0  0  0  0  0  0  0  0  0  0  0
   40.0290   24.9480   41.6270 C   0  0  0  0  0  0  0  0  0  0  0  0
   39.1660   23.9580   42.1120 O   0  0  0  0  0  0  0  0  0  0  0  0
   38.0260   23.8640   41.3450 C   0  0  0  0  0  0  0  0  0  0  0  0
   37.1470   25.0950   41.3870 C   0  0  0  0  0  0  0  0  0  0  0  0
   37.7451   31.2186   40.2609 H   0  0  0  0  0  0  0  0  0  0  0  0
   38.0470   29.8472   37.4444 H   0  0  0  0  0  0  0  0  0  0  0  0
   37.5729   31.4986   37.6720 H   0  0  0  0  0  0  0  0  0  0  0  0
   35.3846   30.8673   38.4645 H   0  0  0  0  0  0  0  0  0  0  0  0
   35.7194   29.3949   37.5306 H   0  0  0  0  0  0  0  0  0  0  0  0
   35.5658   29.7584   40.4590 H   0  0  0  0  0  0  0  0  0  0  0  0
   35.5896   28.2449   39.5611 H   0  0  0  0  0  0  0  0  0  0  0  0
   38.1623   28.2729   39.5116 H   0  0  0  0  0  0  0  0  0  0  0  0
   41.5555   35.8689   39.5551 H   0  0  0  0  0  0  0  0  0  0  0  0
   39.2785   36.7453   40.1549 H   0  0  0  0  0  0  0  0  0  0  0  0
   37.4330   35.0795   40.5432 H   0  0  0  0  0  0  0  0  0  0  0  0
   42.6572   29.3828   39.4048 H   0  0  0  0  0  0  0  0  0  0  0  0
   40.1404   28.3955   39.2924 H   0  0  0  0  0  0  0  0  0  0  0  0
   37.6715   29.4506   44.6006 H   0  0  0  0  0  0  0  0  0  0  0  0
   38.0286   26.8399   43.9779 H   0  0  0  0  0  0  0  0  0  0  0  0
   39.0113   25.3266   39.7383 H   0  0  0  0  0  0  0  0  0  0  0  0
   39.8638   26.7422   40.3768 H   0  0  0  0  0  0  0  0  0  0  0  0
   40.8672   24.4752   41.0943 H   0  0  0  0  0  0  0  0  0  0  0  0
   40.4176   25.5407   42.4683 H   0  0  0  0  0  0  0  0  0  0  0  0
   37.4375   23.0074   41.7053 H   0  0  0  0  0  0  0  0  0  0  0  0
   38.3555   23.7462   40.3021 H   0  0  0  0  0  0  0  0  0  0  0  0
   36.5409   25.0935   42.3050 H   0  0  0  0  0  0  0  0  0  0  0  0
   36.4626   25.1139   40.5261 H   0  0  0  0  0  0  0  0  0  0  0  0
  1  5  1  0
  2  3  1  0
  2  1  1  0
  3  4  1  0
  4  5  1  0
  5 17  1  0
  6  7  2  0
  7  8  1  0
  9  8  2  0
 10  9  1  0
 11  6  1  0
 11 10  2  0
 12 10  1  0
 13 12  1  0
 14 13  2  0
 15 14  1  0
 15 16  2  0
 16  1  1  0
 16 12  1  0
 17 21  1  0
 17 18  1  0
 18 19  2  0
 20 19  1  0
 21 20  2  0
 22 27  1  0
 22 21  1  0
 23 22  1  0
 23 24  1  0
 24 25  1  0
 26 27  1  0
 26 25  1  0
  1 28  1  1
  2 29  1  0
  2 30  1  0
  3 31  1  0
  3 32  1  0
  4 33  1  0
  4 34  1  0
  5 35  1  6
  6 36  1  0
  7 37  1  0
  8 38  1  0
 14 39  1  0
 15 40  1  0
 19 41  1  0
 20 42  1  0
 23 43  1  0
 23 44  1  0
 24 45  1  0
 24 46  1  0
 26 47  1  0
 26 48  1  0
 27 49  1  0
 27 50  1  0
M  ISO  8  28  13  29  13  30  13  31  13  32  13  33  13  34  13  35  13
M  ISO  8  36  14  37  14  38  14  39  14  40  14  41  14  42  14  43  13
M  ISO  7  44  13  45  13  46  13  47  13  48  13  49  13  50  13
M  END
>  <minimizedAffinity>  (1) 
-6.28207636

>  <minimizedRMSD>  (1) 
0.711333156

$$$$
