
     RDKit          3D

 37 39  0  0  1  0  0  0  0  0999 V2000
   38.1590   29.4120   42.9740 C   0  0  0  0  0  0  0  0  0  0  0  0
   37.5020   28.4010   43.7240 C   0  0  0  0  0  0  0  0  0  0  0  0
   36.6690   27.5400   43.0440 C   0  0  0  0  0  0  0  0  0  0  0  0
   36.5300   27.7090   41.7200 N   0  0  0  0  0  0  0  0  0  0  0  0
   37.1620   28.6790   41.0010 C   0  0  0  0  0  0  0  0  0  0  0  0
   37.9770   29.5210   41.6660 N   0  0  0  0  0  0  0  0  0  0  0  0
   36.9320   28.7530   39.5990 N   0  0  0  0  0  0  0  0  0  0  0  0
   35.7730   28.0150   39.0900 C   0  0  0  0  0  0  0  0  0  0  0  0
   35.6660   28.1710   37.5820 C   0  0  0  0  0  0  0  0  0  0  0  0
   35.9220   29.5590   37.3060 N   0  0  0  0  0  0  0  0  0  0  0  0
   37.3800   29.7290   37.4040 C   0  0  0  0  0  0  0  0  0  0  0  0
   37.8510   29.5400   38.8140 C   0  0  1  0  0  0  0  0  0  0  0  0
   38.2050   30.8110   39.4730 C   0  0  0  0  0  0  0  0  0  0  0  0
   37.2780   31.8330   39.7570 C   0  0  0  0  0  0  0  0  0  0  0  0
   37.6490   33.0060   40.3740 C   0  0  0  0  0  0  0  0  0  0  0  0
   38.9460   33.1810   40.7180 N   0  0  0  0  0  0  0  0  0  0  0  0
   39.8370   32.2330   40.4610 C   0  0  0  0  0  0  0  0  0  0  0  0
   39.4610   31.1140   39.8690 N   0  0  0  0  0  0  0  0  0  0  0  0
   41.2840   32.3630   40.8140 C   0  0  0  0  0  0  0  0  0  0  0  0
   42.0100   33.0190   39.7320 N   0  0  0  0  0  0  0  0  0  0  0  0
   38.8301   30.1164   43.4873 H   0  0  0  0  0  0  0  0  0  0  0  0
   37.6529   28.3086   44.8097 H   0  0  0  0  0  0  0  0  0  0  0  0
   36.1331   26.7369   43.5712 H   0  0  0  0  0  0  0  0  0  0  0  0
   35.8851   26.9490   39.3370 H   0  0  0  0  0  0  0  0  0  0  0  0
   34.8613   28.4172   39.5559 H   0  0  0  0  0  0  0  0  0  0  0  0
   36.4115   27.5378   37.0787 H   0  0  0  0  0  0  0  0  0  0  0  0
   34.6753   27.8642   37.2153 H   0  0  0  0  0  0  0  0  0  0  0  0
   35.4448   30.1554   37.9970 H   0  0  0  0  0  0  0  0  0  0  0  0
   37.8725   28.9872   36.7581 H   0  0  0  0  0  0  0  0  0  0  0  0
   37.6353   30.7500   37.0840 H   0  0  0  0  0  0  0  0  0  0  0  0
   38.7835   28.9603   38.7482 H   0  0  0  0  0  0  0  0  0  0  0  0
   36.2241   31.6890   39.4767 H   0  0  0  0  0  0  0  0  0  0  0  0
   36.9041   33.7877   40.5839 H   0  0  0  0  0  0  0  0  0  0  0  0
   41.3817   32.9612   41.7320 H   0  0  0  0  0  0  0  0  0  0  0  0
   41.7061   31.3597   40.9726 H   0  0  0  0  0  0  0  0  0  0  0  0
   42.7153   33.6563   40.1287 H   0  0  0  0  0  0  0  0  0  0  0  0
   42.4775   32.3080   39.1517 H   0  0  0  0  0  0  0  0  0  0  0  0
  1  2  2  0
  3  2  1  0
  4  3  2  0
  5  6  2  0
  5  4  1  0
  6  1  1  0
  7  5  1  0
  8  7  1  0
  9  8  1  0
 10 11  1  0
 10  9  1  0
 11 12  1  0
 12 13  1  0
 12  7  1  0
 13 14  2  0
 13 18  1  0
 14 15  1  0
 15 16  2  0
 17 16  1  0
 17 19  1  0
 18 17  2  0
 20 19  1  0
  1 21  1  0
  2 22  1  0
  3 23  1  0
  8 24  1  0
  8 25  1  0
  9 26  1  0
  9 27  1  0
 10 28  1  0
 11 29  1  0
 11 30  1  0
 12 31  1  6
 14 32  1  0
 15 33  1  0
 19 34  1  0
 19 35  1  0
 20 36  1  0
 20 37  1  0
M  ISO  8  21  14  22  14  23  14  24  13  25  13  26  13  27  13  28   5
M  ISO  8  29  13  30  13  31  13  32  14  33  14  34   8  35   8  36   5
M  ISO  1  37   5
M  END
>  <minimizedAffinity>  (1) 
-4.81932688

>  <minimizedRMSD>  (1) 
0.0211705584

$$$$
