
     RDKit          3D

 36 38  0  0  1  0  0  0  0  0999 V2000
   38.1420   29.4070   42.9770 C   0  0  0  0  0  0  0  0  0  0  0  0
   37.4990   28.4040   43.7400 C   0  0  0  0  0  0  0  0  0  0  0  0
   36.6610   27.5320   43.0590 C   0  0  0  0  0  0  0  0  0  0  0  0
   36.5250   27.7090   41.7260 N   0  0  0  0  0  0  0  0  0  0  0  0
   37.1450   28.6720   41.0190 C   0  0  0  0  0  0  0  0  0  0  0  0
   37.9640   29.5240   41.6770 N   0  0  0  0  0  0  0  0  0  0  0  0
   36.9200   28.7560   39.6150 N   0  0  0  0  0  0  0  0  0  0  0  0
   35.7550   28.0260   39.0950 C   0  0  0  0  0  0  0  0  0  0  0  0
   35.6500   28.1860   37.5980 C   0  0  0  0  0  0  0  0  0  0  0  0
   35.9380   29.5580   37.3010 N   0  0  0  0  0  0  0  0  0  0  0  0
   37.3640   29.7390   37.4220 C   0  0  0  0  0  0  0  0  0  0  0  0
   37.8420   29.5420   38.8310 C   0  0  1  0  0  0  0  0  0  0  0  0
   38.2000   30.8110   39.4890 C   0  0  0  0  0  0  0  0  0  0  0  0
   37.2830   31.8510   39.7590 C   0  0  0  0  0  0  0  0  0  0  0  0
   37.6500   33.0200   40.3740 C   0  0  0  0  0  0  0  0  0  0  0  0
   38.9270   33.1880   40.7350 N   0  0  0  0  0  0  0  0  0  0  0  0
   39.8180   32.2280   40.4960 C   0  0  0  0  0  0  0  0  0  0  0  0
   39.4470   31.1140   39.9050 N   0  0  0  0  0  0  0  0  0  0  0  0
   41.2680   32.3310   40.8660 C   0  0  0  0  0  0  0  0  0  0  0  0
   42.1890   33.0720   39.4720 S   0  0  0  0  0  0  0  0  0  0  0  0
   38.8136   30.1134   43.4868 H   0  0  0  0  0  0  0  0  0  0  0  0
   37.6563   28.3190   44.8254 H   0  0  0  0  0  0  0  0  0  0  0  0
   36.1272   26.7266   43.5848 H   0  0  0  0  0  0  0  0  0  0  0  0
   35.8602   26.9582   39.3375 H   0  0  0  0  0  0  0  0  0  0  0  0
   34.8454   28.4349   39.5591 H   0  0  0  0  0  0  0  0  0  0  0  0
   36.3770   27.5304   37.0963 H   0  0  0  0  0  0  0  0  0  0  0  0
   34.6457   27.9106   37.2437 H   0  0  0  0  0  0  0  0  0  0  0  0
   35.4480   30.1721   37.9671 H   0  0  0  0  0  0  0  0  0  0  0  0
   37.8702   29.0110   36.7710 H   0  0  0  0  0  0  0  0  0  0  0  0
   37.6000   30.7719   37.1262 H   0  0  0  0  0  0  0  0  0  0  0  0
   38.7724   28.9589   38.7646 H   0  0  0  0  0  0  0  0  0  0  0  0
   36.2318   31.7175   39.4638 H   0  0  0  0  0  0  0  0  0  0  0  0
   36.9063   33.8071   40.5675 H   0  0  0  0  0  0  0  0  0  0  0  0
   41.3765   32.9655   41.7580 H   0  0  0  0  0  0  0  0  0  0  0  0
   41.6673   31.3294   41.0836 H   0  0  0  0  0  0  0  0  0  0  0  0
   43.1867   33.8747   39.9591 H   0  0  0  0  0  0  0  0  0  0  0  0
  1  2  2  0
  3  2  1  0
  4  3  2  0
  5  6  2  0
  5  4  1  0
  6  1  1  0
  7  5  1  0
  8  7  1  0
  9  8  1  0
 10 11  1  0
 10  9  1  0
 11 12  1  0
 12 13  1  0
 12  7  1  0
 13 14  2  0
 13 18  1  0
 14 15  1  0
 15 16  2  0
 17 16  1  0
 17 19  1  0
 18 17  2  0
 20 19  1  0
  1 21  1  0
  2 22  1  0
  3 23  1  0
  8 24  1  0
  8 25  1  0
  9 26  1  0
  9 27  1  0
 10 28  1  0
 11 29  1  0
 11 30  1  0
 12 31  1  6
 14 32  1  0
 15 33  1  0
 19 34  1  0
 19 35  1  0
 20 36  1  0
M  ISO  8  21  14  22  14  23  14  24  13  25  13  26  13  27  13  28   5
M  ISO  8  29  13  30  13  31  13  32  14  33  14  34   8  35   8  36  11
M  END
>  <minimizedAffinity>  (1) 
-4.81584978

>  <minimizedRMSD>  (1) 
0.0152737033

$$$$
