
     RDKit          3D

 33 34  0  0  1  0  0  0  0  0999 V2000
   36.1330   30.0490   40.3700 C   0  0  2  0  0  0  0  0  0  0  0  0
   38.3140   29.2040   43.2190 C   0  0  0  0  0  0  0  0  0  0  0  0
   37.7720   27.9620   43.6470 C   0  0  0  0  0  0  0  0  0  0  0  0
   36.6650   27.4420   42.9430 C   0  0  0  0  0  0  0  0  0  0  0  0
   36.1940   28.1700   41.8990 N   0  0  0  0  0  0  0  0  0  0  0  0
   36.7420   29.3530   41.5250 C   0  0  0  0  0  0  0  0  0  0  0  0
   37.7970   29.8710   42.1790 N   0  0  0  0  0  0  0  0  0  0  0  0
   34.9260   29.2490   39.8980 C   0  0  0  0  0  0  0  0  0  0  0  0
   37.0860   30.2620   39.2220 C   0  0  0  0  0  0  0  0  0  0  0  0
   36.9100   31.5330   38.6070 N   0  0  0  0  0  0  0  0  0  0  0  0
   37.7540   31.7030   37.4350 C   0  0  0  0  0  0  0  0  0  0  0  0
   39.2140   31.6760   37.8060 C   0  0  0  0  0  0  0  0  0  0  0  0
   39.4490   32.8220   38.6470 N   0  0  0  0  0  0  0  0  0  0  0  0
   38.6650   32.7230   39.8360 C   0  0  0  0  0  0  0  0  0  0  0  0
   37.1890   32.6430   39.4960 C   0  0  0  0  0  0  0  0  0  0  0  0
   35.8378   31.0521   40.7117 H   0  0  0  0  0  0  0  0  0  0  0  0
   39.1773   29.6269   43.7537 H   0  0  0  0  0  0  0  0  0  0  0  0
   38.2030   27.4214   44.5026 H   0  0  0  0  0  0  0  0  0  0  0  0
   36.2027   26.4856   43.2288 H   0  0  0  0  0  0  0  0  0  0  0  0
   34.3675   28.8788   40.7704 H   0  0  0  0  0  0  0  0  0  0  0  0
   34.2732   29.8938   39.2914 H   0  0  0  0  0  0  0  0  0  0  0  0
   35.2656   28.3965   39.2914 H   0  0  0  0  0  0  0  0  0  0  0  0
   38.1168   30.1905   39.5992 H   0  0  0  0  0  0  0  0  0  0  0  0
   36.8823   29.4895   38.4658 H   0  0  0  0  0  0  0  0  0  0  0  0
   37.5217   32.6689   36.9627 H   0  0  0  0  0  0  0  0  0  0  0  0
   37.5560   30.8736   36.7401 H   0  0  0  0  0  0  0  0  0  0  0  0
   39.4493   30.7505   38.3520 H   0  0  0  0  0  0  0  0  0  0  0  0
   39.8506   31.7061   36.9094 H   0  0  0  0  0  0  0  0  0  0  0  0
   40.4470   32.8617   38.8986 H   0  0  0  0  0  0  0  0  0  0  0  0
   38.9585   31.8182   40.3884 H   0  0  0  0  0  0  0  0  0  0  0  0
   38.8395   33.6176   40.4518 H   0  0  0  0  0  0  0  0  0  0  0  0
   36.8834   33.5793   39.0061 H   0  0  0  0  0  0  0  0  0  0  0  0
   36.6270   32.4888   40.4289 H   0  0  0  0  0  0  0  0  0  0  0  0
  1  6  1  0
  2  3  2  0
  4  3  1  0
  5  4  2  0
  6  5  1  0
  6  7  2  0
  7  2  1  0
  8  1  1  0
  9  1  1  0
 10  9  1  0
 10 15  1  0
 11 12  1  0
 11 10  1  0
 12 13  1  0
 13 14  1  0
 15 14  1  0
  1 16  1  1
  2 17  1  0
  3 18  1  0
  4 19  1  0
  8 20  1  0
  8 21  1  0
  8 22  1  0
  9 23  1  0
  9 24  1  0
 11 25  1  0
 11 26  1  0
 12 27  1  0
 12 28  1  0
 13 29  1  0
 14 30  1  0
 14 31  1  0
 15 32  1  0
 15 33  1  0
M  ISO  8  16   8  17  14  18  14  19  14  20   8  21   8  22   8  23   8
M  ISO  8  24   8  25  13  26  13  27  13  28  13  29   5  30  13  31  13
M  ISO  2  32  13  33  13
M  END
>  <minimizedAffinity>  (1) 
-4.5355773

>  <minimizedRMSD>  (1) 
1.07536554

$$$$
