
     RDKit          3D

 27 28  0  0  1  0  0  0  0  0999 V2000
   36.0870   29.9390   40.4980 C   0  0  2  0  0  0  0  0  0  0  0  0
   38.1970   29.0470   43.3840 C   0  0  0  0  0  0  0  0  0  0  0  0
   37.7560   27.7260   43.6710 C   0  0  0  0  0  0  0  0  0  0  0  0
   36.7430   27.1740   42.8620 C   0  0  0  0  0  0  0  0  0  0  0  0
   36.2510   27.9420   41.8560 N   0  0  0  0  0  0  0  0  0  0  0  0
   36.7060   29.2060   41.6200 C   0  0  0  0  0  0  0  0  0  0  0  0
   37.6560   29.7490   42.3630 N   0  0  0  0  0  0  0  0  0  0  0  0
   34.8310   29.2260   40.0690 C   0  0  0  0  0  0  0  0  0  0  0  0
   36.9900   30.1920   39.3400 C   0  0  0  0  0  0  0  0  0  0  0  0
   37.9030   31.3060   39.5130 C   0  0  0  0  0  0  0  0  0  0  0  0
   37.1260   32.4680   39.6320 C   0  0  0  0  0  0  0  0  0  0  0  0
   37.6870   33.7410   39.8110 C   0  0  0  0  0  0  0  0  0  0  0  0
   39.0480   33.8430   39.8710 N   0  0  0  0  0  0  0  0  0  0  0  0
   39.8040   32.7210   39.7570 C   0  0  0  0  0  0  0  0  0  0  0  0
   39.2040   31.5350   39.5870 N   0  0  0  0  0  0  0  0  0  0  0  0
   35.8464   30.9433   40.8769 H   0  0  0  0  0  0  0  0  0  0  0  0
   38.9868   29.5027   43.9993 H   0  0  0  0  0  0  0  0  0  0  0  0
   38.1932   27.1514   44.5009 H   0  0  0  0  0  0  0  0  0  0  0  0
   36.3640   26.1566   43.0391 H   0  0  0  0  0  0  0  0  0  0  0  0
   34.2685   28.9067   40.9588 H   0  0  0  0  0  0  0  0  0  0  0  0
   34.2103   29.9064   39.4675 H   0  0  0  0  0  0  0  0  0  0  0  0
   35.0971   28.3443   39.4675 H   0  0  0  0  0  0  0  0  0  0  0  0
   36.3659   30.3949   38.4572 H   0  0  0  0  0  0  0  0  0  0  0  0
   37.6149   29.2932   39.2322 H   0  0  0  0  0  0  0  0  0  0  0  0
   36.0309   32.3769   39.5829 H   0  0  0  0  0  0  0  0  0  0  0  0
   37.0488   34.6325   39.9006 H   0  0  0  0  0  0  0  0  0  0  0  0
   40.9011   32.7851   39.8039 H   0  0  0  0  0  0  0  0  0  0  0  0
  1  6  1  0
  2  3  2  0
  4  3  1  0
  5  4  2  0
  6  5  1  0
  6  7  2  0
  7  2  1  0
  8  1  1  0
  9 10  1  0
  9  1  1  0
 10 15  1  0
 10 11  2  0
 11 12  1  0
 12 13  2  0
 14 13  1  0
 15 14  2  0
  1 16  1  1
  2 17  1  0
  3 18  1  0
  4 19  1  0
  8 20  1  0
  8 21  1  0
  8 22  1  0
  9 23  1  0
  9 24  1  0
 11 25  1  0
 12 26  1  0
 14 27  1  0
M  ISO  8  16   8  17  14  18  14  19  14  20   8  21   8  22   8  23   8
M  ISO  4  24   8  25  14  26  14  27  14
M  END
>  <minimizedAffinity>  (1) 
-4.47478199

>  <minimizedRMSD>  (1) 
1.12601304

$$$$
