
     RDKit          3D

 30 31  0  0  1  0  0  0  0  0999 V2000
   35.8440   30.0660   40.8310 C   0  0  2  0  0  0  0  0  0  0  0  0
   38.3520   28.9450   43.2720 C   0  0  0  0  0  0  0  0  0  0  0  0
   38.1670   27.5340   43.2290 C   0  0  0  0  0  0  0  0  0  0  0  0
   37.1810   26.9750   42.3720 C   0  0  0  0  0  0  0  0  0  0  0  0
   36.4620   27.8340   41.6320 N   0  0  0  0  0  0  0  0  0  0  0  0
   36.6730   29.1860   41.7030 C   0  0  0  0  0  0  0  0  0  0  0  0
   37.6060   29.7340   42.5140 N   0  0  0  0  0  0  0  0  0  0  0  0
   34.9600   29.2000   39.9980 C   0  0  0  0  0  0  0  0  0  0  0  0
   36.6210   31.0730   40.0610 C   0  0  0  0  0  0  0  0  0  0  0  0
   37.6660   30.5820   39.2170 N   0  0  0  0  0  0  0  0  0  0  0  0
   37.5220   29.7250   38.1890 C   0  0  0  0  0  0  0  0  0  0  0  0
   38.5410   29.2680   37.3920 C   0  0  0  0  0  0  0  0  0  0  0  0
   39.8270   29.7030   37.6410 C   0  0  0  0  0  0  0  0  0  0  0  0
   40.8680   29.2190   36.8050 N   0  0  0  0  0  0  0  0  0  0  0  0
   39.9940   30.5640   38.6680 N   0  0  0  0  0  0  0  0  0  0  0  0
   38.9570   30.9860   39.4240 C   0  0  0  0  0  0  0  0  0  0  0  0
   39.2810   31.7860   40.3380 O   0  0  0  0  0  0  0  0  0  0  0  0
   35.2144   30.7053   41.4673 H   0  0  0  0  0  0  0  0  0  0  0  0
   39.1146   29.3798   43.9349 H   0  0  0  0  0  0  0  0  0  0  0  0
   38.7863   26.8777   43.8581 H   0  0  0  0  0  0  0  0  0  0  0  0
   37.0146   25.8890   42.3174 H   0  0  0  0  0  0  0  0  0  0  0  0
   34.3290   28.5819   40.6536 H   0  0  0  0  0  0  0  0  0  0  0  0
   34.3210   29.8314   39.3631 H   0  0  0  0  0  0  0  0  0  0  0  0
   35.5781   28.5482   39.3631 H   0  0  0  0  0  0  0  0  0  0  0  0
   35.9120   31.6232   39.4249 H   0  0  0  0  0  0  0  0  0  0  0  0
   37.1315   31.6817   40.8219 H   0  0  0  0  0  0  0  0  0  0  0  0
   36.5068   29.3623   37.9706 H   0  0  0  0  0  0  0  0  0  0  0  0
   38.3367   28.5673   36.5691 H   0  0  0  0  0  0  0  0  0  0  0  0
   41.8392   29.5235   36.9632 H   0  0  0  0  0  0  0  0  0  0  0  0
   40.6518   28.5635   36.0405 H   0  0  0  0  0  0  0  0  0  0  0  0
  1  6  1  0
  3  2  2  0
  4  3  1  0
  5  6  1  0
  5  4  2  0
  6  7  2  0
  7  2  1  0
  8  1  1  0
  9  1  1  0
 10 16  1  0
 10  9  1  0
 11 10  1  0
 12 13  1  0
 12 11  2  0
 13 15  2  0
 14 13  1  0
 15 16  1  0
 16 17  2  0
  1 18  1  1
  2 19  1  0
  3 20  1  0
  4 21  1  0
  8 22  1  0
  8 23  1  0
  8 24  1  0
  9 25  1  0
  9 26  1  0
 11 27  1  0
 12 28  1  0
 14 29  1  0
 14 30  1  0
M  ISO  8  18   8  19  14  20  14  21  14  22   8  23   8  24   8  25   8
M  ISO  3  26   8  27  14  28  14
M  END
>  <minimizedAffinity>  (1) 
-4.34577751

>  <minimizedRMSD>  (1) 
1.29358494

$$$$
