
     RDKit          3D

 44 48  0  0  1  0  0  0  0  0999 V2000
   37.4980   29.8630   39.5140 C   0  0  1  0  0  0  0  0  0  0  0  0
   36.6980   29.8350   38.1840 C   0  0  0  0  0  0  0  0  0  0  0  0
   35.3030   29.4840   38.7030 C   0  0  0  0  0  0  0  0  0  0  0  0
   35.4980   28.8240   40.0450 C   0  0  0  0  0  0  0  0  0  0  0  0
   37.0000   28.6200   40.1540 C   0  0  2  0  0  0  0  0  0  0  0  0
   40.5400   34.3850   39.5510 C   0  0  0  0  0  0  0  0  0  0  0  0
   39.3790   34.9440   40.1390 C   0  0  0  0  0  0  0  0  0  0  0  0
   38.3440   34.0800   40.4540 C   0  0  0  0  0  0  0  0  0  0  0  0
   38.5080   32.7590   40.1820 N   0  0  0  0  0  0  0  0  0  0  0  0
   39.5890   32.2370   39.6360 C   0  0  0  0  0  0  0  0  0  0  0  0
   40.6130   33.0660   39.3190 N   0  0  0  0  0  0  0  0  0  0  0  0
   39.7960   30.8670   39.3250 N   0  0  0  0  0  0  0  0  0  0  0  0
   41.0380   30.4910   39.0400 N   0  0  0  0  0  0  0  0  0  0  0  0
   41.0230   29.1510   38.7540 C   0  0  0  0  0  0  0  0  0  0  0  0
   39.6950   28.7610   38.8880 C   0  0  0  0  0  0  0  0  0  0  0  0
   38.9280   29.8640   39.2530 C   0  0  0  0  0  0  0  0  0  0  0  0
   37.3200   28.4750   41.5470 N   0  0  0  0  0  0  0  0  0  0  0  0
   37.3380   29.4100   42.4900 N   0  0  0  0  0  0  0  0  0  0  0  0
   37.6880   28.9070   43.6850 C   0  0  0  0  0  0  0  0  0  0  0  0
   37.9000   27.5630   43.4620 C   0  0  0  0  0  0  0  0  0  0  0  0
   37.6670   27.2980   42.1160 C   0  0  0  0  0  0  0  0  0  0  0  0
   37.7970   25.9570   41.5590 C   0  0  0  0  0  0  0  0  0  0  0  0
   37.0230   24.8580   41.8620 C   0  0  0  0  0  0  0  0  0  0  0  0
   37.4100   23.7600   41.1650 C   0  0  0  0  0  0  0  0  0  0  0  0
   38.4360   24.1740   40.4180 N   0  0  0  0  0  0  0  0  0  0  0  0
   38.6460   25.4480   40.6600 N   0  0  0  0  0  0  0  0  0  0  0  0
   37.3596   30.7537   40.1445 H   0  0  0  0  0  0  0  0  0  0  0  0
   37.0805   29.0662   37.4965 H   0  0  0  0  0  0  0  0  0  0  0  0
   36.7482   30.7658   37.6000 H   0  0  0  0  0  0  0  0  0  0  0  0
   34.6979   30.3960   38.8126 H   0  0  0  0  0  0  0  0  0  0  0  0
   34.7754   28.8172   38.0051 H   0  0  0  0  0  0  0  0  0  0  0  0
   35.1341   29.4739   40.8545 H   0  0  0  0  0  0  0  0  0  0  0  0
   34.9402   27.8799   40.1318 H   0  0  0  0  0  0  0  0  0  0  0  0
   37.4390   27.7310   39.6776 H   0  0  0  0  0  0  0  0  0  0  0  0
   41.3856   35.0356   39.2834 H   0  0  0  0  0  0  0  0  0  0  0  0
   39.3026   36.0232   40.3378 H   0  0  0  0  0  0  0  0  0  0  0  0
   37.4155   34.4524   40.9114 H   0  0  0  0  0  0  0  0  0  0  0  0
   41.8793   28.5184   38.4773 H   0  0  0  0  0  0  0  0  0  0  0  0
   39.3113   27.7422   38.7305 H   0  0  0  0  0  0  0  0  0  0  0  0
   37.7847   29.4502   44.6366 H   0  0  0  0  0  0  0  0  0  0  0  0
   38.2022   26.8252   44.2198 H   0  0  0  0  0  0  0  0  0  0  0  0
   36.1916   24.8694   42.5821 H   0  0  0  0  0  0  0  0  0  0  0  0
   36.9742   22.7509   41.2064 H   0  0  0  0  0  0  0  0  0  0  0  0
   38.9738   23.5911   39.7608 H   0  0  0  0  0  0  0  0  0  0  0  0
  1  5  1  0
  2  3  1  0
  2  1  1  0
  3  4  1  0
  4  5  1  0
  5 17  1  0
  6  7  2  0
  7  8  1  0
  9  8  2  0
 10  9  1  0
 11  6  1  0
 11 10  2  0
 12 10  1  0
 13 12  1  0
 14 15  1  0
 14 13  2  0
 15 16  2  0
 16 12  1  0
 16  1  1  0
 17 21  1  0
 17 18  1  0
 18 19  2  0
 20 19  1  0
 21 20  2  0
 22 23  1  0
 22 21  1  0
 24 23  2  0
 25 26  1  0
 25 24  1  0
 26 22  2  0
  1 27  1  1
  2 28  1  0
  2 29  1  0
  3 30  1  0
  3 31  1  0
  4 32  1  0
  4 33  1  0
  5 34  1  6
  6 35  1  0
  7 36  1  0
  8 37  1  0
 14 38  1  0
 15 39  1  0
 19 40  1  0
 20 41  1  0
 23 42  1  0
 24 43  1  0
 25 44  1  0
M  ISO  8  27  13  28  13  29  13  30  13  31  13  32  13  33  13  34  13
M  ISO  8  35  14  36  14  37  14  38  14  39  14  40  14  41  14  42  14
M  ISO  2  43  14  44   9
M  END
>  <minimizedAffinity>  (1) 
-6.15079165

>  <minimizedRMSD>  (1) 
1.34666443

$$$$
