
     RDKit          3D

 25 26  0  0  1  0  0  0  0  0999 V2000
   36.5190   30.2710   40.7720 C   0  0  2  0  0  0  0  0  0  0  0  0
   38.6400   28.7280   43.3350 C   0  0  0  0  0  0  0  0  0  0  0  0
   37.9020   27.5530   43.6620 C   0  0  0  0  0  0  0  0  0  0  0  0
   36.6750   27.3080   42.9890 C   0  0  0  0  0  0  0  0  0  0  0  0
   36.2850   28.2290   42.0650 N   0  0  0  0  0  0  0  0  0  0  0  0
   37.0210   29.3330   41.7870 C   0  0  0  0  0  0  0  0  0  0  0  0
   38.1700   29.5650   42.4150 N   0  0  0  0  0  0  0  0  0  0  0  0
   35.2930   29.6560   40.1210 C   0  0  0  0  0  0  0  0  0  0  0  0
   37.5090   30.7410   39.7780 C   0  0  0  0  0  0  0  0  0  0  0  0
   37.7670   32.1460   39.9260 N   0  0  0  0  0  0  0  0  0  0  0  0
   37.3030   33.3180   39.4770 C   0  0  0  0  0  0  0  0  0  0  0  0
   37.9850   34.3610   39.9670 N   0  0  0  0  0  0  0  0  0  0  0  0
   38.9240   33.8320   40.7640 C   0  0  0  0  0  0  0  0  0  0  0  0
   38.7810   32.4970   40.7300 N   0  0  0  0  0  0  0  0  0  0  0  0
   36.2586   31.2012   41.2982 H   0  0  0  0  0  0  0  0  0  0  0  0
   39.5932   28.9411   43.8411 H   0  0  0  0  0  0  0  0  0  0  0  0
   38.2754   26.8496   44.4208 H   0  0  0  0  0  0  0  0  0  0  0  0
   36.0684   26.4160   43.2043 H   0  0  0  0  0  0  0  0  0  0  0  0
   34.5994   29.3081   40.9007 H   0  0  0  0  0  0  0  0  0  0  0  0
   34.7929   30.4100   39.4953 H   0  0  0  0  0  0  0  0  0  0  0  0
   35.5984   28.8044   39.4953 H   0  0  0  0  0  0  0  0  0  0  0  0
   37.1194   30.5523   38.7668 H   0  0  0  0  0  0  0  0  0  0  0  0
   38.4504   30.1952   39.9392 H   0  0  0  0  0  0  0  0  0  0  0  0
   36.4554   33.4140   38.7825 H   0  0  0  0  0  0  0  0  0  0  0  0
   39.6757   34.3902   41.3414 H   0  0  0  0  0  0  0  0  0  0  0  0
  1  6  1  0
  2  3  2  0
  4  3  1  0
  5  4  2  0
  6  5  1  0
  6  7  2  0
  7  2  1  0
  8  1  1  0
  9 10  1  0
  9  1  1  0
 10 14  1  0
 11 10  1  0
 11 12  2  0
 12 13  1  0
 14 13  2  0
  1 15  1  1
  2 16  1  0
  3 17  1  0
  4 18  1  0
  8 19  1  0
  8 20  1  0
  8 21  1  0
  9 22  1  0
  9 23  1  0
 11 24  1  0
 13 25  1  0
M  ISO  8  15   8  16  14  17  14  18  14  19   8  20   8  21   8  22   8
M  ISO  3  23   8  24  14  25  14
M  END
>  <minimizedAffinity>  (1) 
-4.14767551

>  <minimizedRMSD>  (1) 
0.914722621

$$$$
