
     RDKit          3D

 31 32  0  0  1  0  0  0  0  0999 V2000
   36.2440   30.1040   40.6530 C   0  0  2  0  0  0  0  0  0  0  0  0
   38.3230   28.8490   43.4640 C   0  0  0  0  0  0  0  0  0  0  0  0
   37.7770   27.5780   43.6830 C   0  0  0  0  0  0  0  0  0  0  0  0
   36.7130   27.1880   42.8770 C   0  0  0  0  0  0  0  0  0  0  0  0
   36.2670   28.0570   41.9270 N   0  0  0  0  0  0  0  0  0  0  0  0
   36.8340   29.2880   41.7500 C   0  0  0  0  0  0  0  0  0  0  0  0
   37.8520   29.6550   42.5260 N   0  0  0  0  0  0  0  0  0  0  0  0
   35.0780   29.3820   40.0570 C   0  0  0  0  0  0  0  0  0  0  0  0
   37.2860   30.4850   39.6340 C   0  0  0  0  0  0  0  0  0  0  0  0
   37.7390   31.7830   39.9320 N   0  0  0  0  0  0  0  0  0  0  0  0
   37.1490   32.8860   39.2710 C   0  0  0  0  0  0  0  0  0  0  0  0
   37.9080   34.0670   39.8620 C   0  0  0  0  0  0  0  0  0  0  0  0
   39.1400   33.4850   40.5240 C   0  0  0  0  0  0  0  0  0  0  0  0
   39.1090   32.0060   40.1920 C   0  0  0  0  0  0  0  0  0  0  0  0
   35.8684   31.0521   41.0653 H   0  0  0  0  0  0  0  0  0  0  0  0
   39.1645   29.1858   44.0873 H   0  0  0  0  0  0  0  0  0  0  0  0
   38.1750   26.9129   44.4636 H   0  0  0  0  0  0  0  0  0  0  0  0
   36.2427   26.2017   43.0033 H   0  0  0  0  0  0  0  0  0  0  0  0
   34.4407   28.9874   40.8620 H   0  0  0  0  0  0  0  0  0  0  0  0
   34.4950   30.0774   39.4353 H   0  0  0  0  0  0  0  0  0  0  0  0
   35.4406   28.5502   39.4353 H   0  0  0  0  0  0  0  0  0  0  0  0
   36.8454   30.4667   38.6263 H   0  0  0  0  0  0  0  0  0  0  0  0
   38.1246   29.7738   39.6643 H   0  0  0  0  0  0  0  0  0  0  0  0
   36.0736   32.9535   39.4921 H   0  0  0  0  0  0  0  0  0  0  0  0
   37.2137   32.8268   38.1745 H   0  0  0  0  0  0  0  0  0  0  0  0
   38.1977   34.7708   39.0678 H   0  0  0  0  0  0  0  0  0  0  0  0
   37.2894   34.6229   40.5819 H   0  0  0  0  0  0  0  0  0  0  0  0
   40.0511   33.9517   40.1213 H   0  0  0  0  0  0  0  0  0  0  0  0
   39.1458   33.6625   41.6096 H   0  0  0  0  0  0  0  0  0  0  0  0
   39.4568   31.3999   41.0416 H   0  0  0  0  0  0  0  0  0  0  0  0
   39.7663   31.7294   39.3545 H   0  0  0  0  0  0  0  0  0  0  0  0
  1  6  1  0
  2  3  2  0
  4  3  1  0
  5  4  2  0
  6  5  1  0
  6  7  2  0
  7  2  1  0
  8  1  1  0
  9 10  1  0
  9  1  1  0
 10 14  1  0
 11 12  1  0
 11 10  1  0
 12 13  1  0
 14 13  1  0
  1 15  1  1
  2 16  1  0
  3 17  1  0
  4 18  1  0
  8 19  1  0
  8 20  1  0
  8 21  1  0
  9 22  1  0
  9 23  1  0
 11 24  1  0
 11 25  1  0
 12 26  1  0
 12 27  1  0
 13 28  1  0
 13 29  1  0
 14 30  1  0
 14 31  1  0
M  ISO  8  15   8  16  14  17  14  18  14  19   8  20   8  21   8  22   8
M  ISO  8  23   8  24  13  25  13  26  13  27  13  28  13  29  13  30  13
M  ISO  1  31  13
M  END
>  <minimizedAffinity>  (1) 
-4.13306141

>  <minimizedRMSD>  (1) 
0.630920589

$$$$
