
     RDKit          3D

 34 35  0  0  1  0  0  0  0  0999 V2000
   35.9670   29.9690   40.9140 C   0  0  2  0  0  0  0  0  0  0  0  0
   37.8820   28.1540   43.5230 C   0  0  0  0  0  0  0  0  0  0  0  0
   37.9490   26.8630   42.9900 C   0  0  0  0  0  0  0  0  0  0  0  0
   37.3390   26.6370   41.7520 C   0  0  0  0  0  0  0  0  0  0  0  0
   36.7240   27.6690   41.1390 N   0  0  0  0  0  0  0  0  0  0  0  0
   36.6790   28.9050   41.6880 C   0  0  0  0  0  0  0  0  0  0  0  0
   37.2640   29.1370   42.8850 N   0  0  0  0  0  0  0  0  0  0  0  0
   35.4320   29.3650   39.6680 C   0  0  0  0  0  0  0  0  0  0  0  0
   36.7550   31.2050   40.7290 C   0  0  0  0  0  0  0  0  0  0  0  0
   38.0910   31.0430   40.2010 N   0  0  0  0  0  0  0  0  0  0  0  0
   38.9810   31.7850   41.1130 C   0  0  0  0  0  0  0  0  0  0  0  0
   38.9040   33.2640   40.9110 C   0  0  0  0  0  0  0  0  0  0  0  0
   39.6820   33.5840   39.6410 C   0  0  0  0  0  0  0  0  0  0  0  0
   39.5940   32.3480   38.7800 C   0  0  0  0  0  0  0  0  0  0  0  0
   38.2340   31.7420   38.9260 C   0  0  0  0  0  0  0  0  0  0  0  0
   35.1141   30.3391   41.5019 H   0  0  0  0  0  0  0  0  0  0  0  0
   38.3538   28.3584   44.4955 H   0  0  0  0  0  0  0  0  0  0  0  0
   38.4641   26.0525   43.5264 H   0  0  0  0  0  0  0  0  0  0  0  0
   37.3603   25.6397   41.2885 H   0  0  0  0  0  0  0  0  0  0  0  0
   34.7227   28.5642   39.9239 H   0  0  0  0  0  0  0  0  0  0  0  0
   34.9161   30.1371   39.0784 H   0  0  0  0  0  0  0  0  0  0  0  0
   36.2608   28.9461   39.0784 H   0  0  0  0  0  0  0  0  0  0  0  0
   36.1990   31.8561   40.0384 H   0  0  0  0  0  0  0  0  0  0  0  0
   36.8885   31.6201   41.7389 H   0  0  0  0  0  0  0  0  0  0  0  0
   38.6944   31.5553   42.1499 H   0  0  0  0  0  0  0  0  0  0  0  0
   40.0138   31.4721   40.8998 H   0  0  0  0  0  0  0  0  0  0  0  0
   37.8549   33.5754   40.7993 H   0  0  0  0  0  0  0  0  0  0  0  0
   39.3263   33.7994   41.7741 H   0  0  0  0  0  0  0  0  0  0  0  0
   39.2322   34.4439   39.1231 H   0  0  0  0  0  0  0  0  0  0  0  0
   40.7265   33.8483   39.8629 H   0  0  0  0  0  0  0  0  0  0  0  0
   40.3563   31.6222   39.0994 H   0  0  0  0  0  0  0  0  0  0  0  0
   39.7671   32.6178   37.7277 H   0  0  0  0  0  0  0  0  0  0  0  0
   37.4795   32.5405   38.8700 H   0  0  0  0  0  0  0  0  0  0  0  0
   38.0938   31.0117   38.1155 H   0  0  0  0  0  0  0  0  0  0  0  0
  1  6  1  0
  3  2  2  0
  4  3  1  0
  5  6  1  0
  5  4  2  0
  6  7  2  0
  7  2  1  0
  8  1  1  0
  9  1  1  0
 10  9  1  0
 10 11  1  0
 12 11  1  0
 13 12  1  0
 14 15  1  0
 14 13  1  0
 15 10  1  0
  1 16  1  1
  2 17  1  0
  3 18  1  0
  4 19  1  0
  8 20  1  0
  8 21  1  0
  8 22  1  0
  9 23  1  0
  9 24  1  0
 11 25  1  0
 11 26  1  0
 12 27  1  0
 12 28  1  0
 13 29  1  0
 13 30  1  0
 14 31  1  0
 14 32  1  0
 15 33  1  0
 15 34  1  0
M  ISO  8  16   8  17  14  18  14  19  14  20   8  21   8  22   8  23   8
M  ISO  8  24   8  25  13  26  13  27  13  28  13  29  13  30  13  31  13
M  ISO  3  32  13  33  13  34  13
M  END
>  <minimizedAffinity>  (1) 
-4.10448694

>  <minimizedRMSD>  (1) 
1.96773517

$$$$
