
     RDKit          3D

 26 27  0  0  1  0  0  0  0  0999 V2000
   35.8830   30.0960   40.6100 C   0  0  2  0  0  0  0  0  0  0  0  0
   38.4140   29.1660   43.1020 C   0  0  0  0  0  0  0  0  0  0  0  0
   38.0040   27.8570   43.4720 C   0  0  0  0  0  0  0  0  0  0  0  0
   36.8690   27.3250   42.8450 C   0  0  0  0  0  0  0  0  0  0  0  0
   36.2350   28.1040   41.9210 N   0  0  0  0  0  0  0  0  0  0  0  0
   36.6700   29.3570   41.6040 C   0  0  0  0  0  0  0  0  0  0  0  0
   37.7430   29.8920   42.1780 N   0  0  0  0  0  0  0  0  0  0  0  0
   34.8950   29.1740   39.9560 C   0  0  0  0  0  0  0  0  0  0  0  0
   36.7140   30.8530   39.6050 C   0  0  0  0  0  0  0  0  0  0  0  0
   37.0750   30.0920   38.4510 C   0  0  0  0  0  0  0  0  0  0  0  0
   36.5850   30.0050   37.1830 C   0  0  0  0  0  0  0  0  0  0  0  0
   37.1870   29.1470   36.3030 C   0  0  0  0  0  0  0  0  0  0  0  0
   38.3130   28.3740   36.7620 C   0  0  0  0  0  0  0  0  0  0  0  0
   38.4970   28.9080   38.5050 S   0  0  0  0  0  0  0  0  0  0  0  0
   35.3354   30.8813   41.1518 H   0  0  0  0  0  0  0  0  0  0  0  0
   39.3031   29.6022   43.5808 H   0  0  0  0  0  0  0  0  0  0  0  0
   38.5593   27.2798   44.2260 H   0  0  0  0  0  0  0  0  0  0  0  0
   36.5027   26.3168   43.0887 H   0  0  0  0  0  0  0  0  0  0  0  0
   34.3234   28.6406   40.7298 H   0  0  0  0  0  0  0  0  0  0  0  0
   34.2061   29.7596   39.3295 H   0  0  0  0  0  0  0  0  0  0  0  0
   35.4316   28.4463   39.3295 H   0  0  0  0  0  0  0  0  0  0  0  0
   36.1395   31.7306   39.2736 H   0  0  0  0  0  0  0  0  0  0  0  0
   37.6524   31.1239   40.1110 H   0  0  0  0  0  0  0  0  0  0  0  0
   35.7222   30.6126   36.8724 H   0  0  0  0  0  0  0  0  0  0  0  0
   36.8202   29.0499   35.2705 H   0  0  0  0  0  0  0  0  0  0  0  0
   38.9148   27.6424   36.2029 H   0  0  0  0  0  0  0  0  0  0  0  0
  1  6  1  0
  2  3  2  0
  4  3  1  0
  5  4  2  0
  6  5  1  0
  6  7  2  0
  7  2  1  0
  8  1  1  0
  9  1  1  0
 10 14  1  0
 10  9  1  0
 11 10  2  0
 12 13  2  0
 12 11  1  0
 13 14  1  0
  1 15  1  1
  2 16  1  0
  3 17  1  0
  4 18  1  0
  8 19  1  0
  8 20  1  0
  8 21  1  0
  9 22  1  0
  9 23  1  0
 11 24  1  0
 12 25  1  0
 13 26  1  0
M  ISO  8  15   8  16  14  17  14  18  14  19   8  20   8  21   8  22   8
M  ISO  4  23   8  24  14  25  14  26  14
M  END
>  <minimizedAffinity>  (1) 
-3.9783752

>  <minimizedRMSD>  (1) 
0.877674162

$$$$
