
     RDKit          3D

 21 21  0  0  1  0  0  0  0  0999 V2000
   35.8750   30.1470   40.7650 C   0  0  2  0  0  0  0  0  0  0  0  0
   38.5260   29.1230   43.0940 C   0  0  0  0  0  0  0  0  0  0  0  0
   38.1310   27.7920   43.4110 C   0  0  0  0  0  0  0  0  0  0  0  0
   36.9530   27.2600   42.8190 C   0  0  0  0  0  0  0  0  0  0  0  0
   36.2720   28.0850   41.9720 N   0  0  0  0  0  0  0  0  0  0  0  0
   36.6860   29.3380   41.7050 C   0  0  0  0  0  0  0  0  0  0  0  0
   37.8020   29.8590   42.2570 N   0  0  0  0  0  0  0  0  0  0  0  0
   35.0180   29.2220   39.9590 C   0  0  0  0  0  0  0  0  0  0  0  0
   36.6870   31.0580   39.8770 C   0  0  0  0  0  0  0  0  0  0  0  0
   36.7170   32.3650   40.4900 N   0  0  0  0  0  0  0  0  0  0  0  0
   35.2521   30.8280   41.3635 H   0  0  0  0  0  0  0  0  0  0  0  0
   39.4364   29.5448   43.5449 H   0  0  0  0  0  0  0  0  0  0  0  0
   38.7295   27.1835   44.1049 H   0  0  0  0  0  0  0  0  0  0  0  0
   36.6087   26.2373   43.0325 H   0  0  0  0  0  0  0  0  0  0  0  0
   34.4284   28.5857   40.6354 H   0  0  0  0  0  0  0  0  0  0  0  0
   34.3390   29.8106   39.3246 H   0  0  0  0  0  0  0  0  0  0  0  0
   35.6567   28.5898   39.3246 H   0  0  0  0  0  0  0  0  0  0  0  0
   36.2215   31.1224   38.8824 H   0  0  0  0  0  0  0  0  0  0  0  0
   37.7083   30.6669   39.7589 H   0  0  0  0  0  0  0  0  0  0  0  0
   36.7147   32.2636   41.5150 H   0  0  0  0  0  0  0  0  0  0  0  0
   37.5696   32.8626   40.1961 H   0  0  0  0  0  0  0  0  0  0  0  0
  1  6  1  0
  2  3  2  0
  4  3  1  0
  5  4  2  0
  6  5  1  0
  6  7  2  0
  7  2  1  0
  8  1  1  0
  9 10  1  0
  9  1  1  0
  1 11  1  1
  2 12  1  0
  3 13  1  0
  4 14  1  0
  8 15  1  0
  8 16  1  0
  8 17  1  0
  9 18  1  0
  9 19  1  0
 10 20  1  0
 10 21  1  0
M  ISO  8  11   8  12  14  13  14  14  14  15   8  16   8  17   8  18   8
M  ISO  3  19   8  20   5  21   5
M  END
>  <minimizedAffinity>  (1) 
-3.79601049

>  <minimizedRMSD>  (1) 
0.457899421

$$$$
