
     RDKit          3D

 20 20  0  0  1  0  0  0  0  0999 V2000
   35.9180   30.1000   40.5600 C   0  0  2  0  0  0  0  0  0  0  0  0
   38.3840   29.1880   43.1390 C   0  0  0  0  0  0  0  0  0  0  0  0
   37.9730   27.8740   43.4900 C   0  0  0  0  0  0  0  0  0  0  0  0
   36.8440   27.3160   42.8330 C   0  0  0  0  0  0  0  0  0  0  0  0
   36.2340   28.0880   41.9070 N   0  0  0  0  0  0  0  0  0  0  0  0
   36.6610   29.3470   41.5970 C   0  0  0  0  0  0  0  0  0  0  0  0
   37.7280   29.8860   42.2130 N   0  0  0  0  0  0  0  0  0  0  0  0
   34.8850   29.1910   39.9660 C   0  0  0  0  0  0  0  0  0  0  0  0
   36.8110   30.6840   39.4870 C   0  0  0  0  0  0  0  0  0  0  0  0
   37.9200   29.9200   39.2370 O   0  0  0  0  0  0  0  0  0  0  0  0
   35.4400   30.9658   41.0415 H   0  0  0  0  0  0  0  0  0  0  0  0
   39.2559   29.6352   43.6387 H   0  0  0  0  0  0  0  0  0  0  0  0
   38.5178   27.3008   44.2546 H   0  0  0  0  0  0  0  0  0  0  0  0
   36.4834   26.3035   43.0670 H   0  0  0  0  0  0  0  0  0  0  0  0
   34.3237   28.6971   40.7728 H   0  0  0  0  0  0  0  0  0  0  0  0
   34.1932   29.7786   39.3446 H   0  0  0  0  0  0  0  0  0  0  0  0
   35.3799   28.4301   39.3446 H   0  0  0  0  0  0  0  0  0  0  0  0
   36.2297   30.7722   38.5573 H   0  0  0  0  0  0  0  0  0  0  0  0
   37.1610   31.6624   39.8479 H   0  0  0  0  0  0  0  0  0  0  0  0
   38.3275   29.6393   40.0945 H   0  0  0  0  0  0  0  0  0  0  0  0
  1  6  1  0
  2  3  2  0
  4  3  1  0
  5  4  2  0
  6  5  1  0
  6  7  2  0
  7  2  1  0
  8  1  1  0
  9  1  1  0
 10  9  1  0
  1 11  1  1
  2 12  1  0
  3 13  1  0
  4 14  1  0
  8 15  1  0
  8 16  1  0
  8 17  1  0
  9 18  1  0
  9 19  1  0
 10 20  1  0
M  ISO  8  11   8  12  14  13  14  14  14  15   8  16   8  17   8  18   8
M  ISO  2  19   8  20   3
M  END
>  <minimizedAffinity>  (1) 
-3.26994753

>  <minimizedRMSD>  (1) 
0.22213535

$$$$
