
     RDKit          3D

 33 35  0  0  1  0  0  0  0  0999 V2000
   38.6460   32.9790   40.6280 C   0  0  2  0  0  0  0  0  0  0  0  0
   39.6920   36.4600   40.1090 C   0  0  0  0  0  0  0  0  0  0  0  0
   40.9600   36.2880   39.4750 C   0  0  0  0  0  0  0  0  0  0  0  0
   41.4270   34.9780   39.2430 C   0  0  0  0  0  0  0  0  0  0  0  0
   40.6210   33.9420   39.6460 N   0  0  0  0  0  0  0  0  0  0  0  0
   39.4070   34.1720   40.2530 C   0  0  0  0  0  0  0  0  0  0  0  0
   38.9230   35.3960   40.4930 N   0  0  0  0  0  0  0  0  0  0  0  0
   39.4570   31.7580   40.3750 C   0  0  0  0  0  0  0  0  0  0  0  0
   37.2620   32.9050   39.9960 C   0  0  0  0  0  0  0  0  0  0  0  0
   37.1850   31.8660   38.9830 N   0  0  0  0  0  0  0  0  0  0  0  0
   37.6370   31.7660   37.7600 N   0  0  0  0  0  0  0  0  0  0  0  0
   37.3480   30.6300   37.1550 C   0  0  0  0  0  0  0  0  0  0  0  0
   36.6230   29.8650   38.0460 C   0  0  0  0  0  0  0  0  0  0  0  0
   36.5450   30.6710   39.1700 C   0  0  0  0  0  0  0  0  0  0  0  0
   35.8340   30.2440   40.4170 C   0  0  0  0  0  0  0  0  0  0  0  0
   35.5980   28.8190   40.6850 C   0  0  0  0  0  0  0  0  0  0  0  0
   36.7010   29.4700   41.4450 C   0  0  0  0  0  0  0  0  0  0  0  0
   38.4452   33.0489   41.7073 H   0  0  0  0  0  0  0  0  0  0  0  0
   39.3224   37.4794   40.2942 H   0  0  0  0  0  0  0  0  0  0  0  0
   41.5599   37.1594   39.1739 H   0  0  0  0  0  0  0  0  0  0  0  0
   42.3974   34.7935   38.7589 H   0  0  0  0  0  0  0  0  0  0  0  0
   39.7545   31.3101   41.3346 H   0  0  0  0  0  0  0  0  0  0  0  0
   38.8600   31.0336   39.8016 H   0  0  0  0  0  0  0  0  0  0  0  0
   40.3563   32.0274   39.8016 H   0  0  0  0  0  0  0  0  0  0  0  0
   36.5228   32.6911   40.7821 H   0  0  0  0  0  0  0  0  0  0  0  0
   37.0561   33.8706   39.5110 H   0  0  0  0  0  0  0  0  0  0  0  0
   37.6320   30.3454   36.1311 H   0  0  0  0  0  0  0  0  0  0  0  0
   36.2070   28.8574   37.8990 H   0  0  0  0  0  0  0  0  0  0  0  0
   35.1812   31.1293   40.4078 H   0  0  0  0  0  0  0  0  0  0  0  0
   34.6839   28.5125   41.2146 H   0  0  0  0  0  0  0  0  0  0  0  0
   35.5424   27.9262   40.0448 H   0  0  0  0  0  0  0  0  0  0  0  0
   37.7502   29.2293   41.2184 H   0  0  0  0  0  0  0  0  0  0  0  0
   36.9668   29.5908   42.5055 H   0  0  0  0  0  0  0  0  0  0  0  0
  2  7  2  0
  3  2  1  0
  4  3  2  0
  4  5  1  0
  5  6  2  0
  6  7  1  0
  6  1  1  0
  8  1  1  0
  9  1  1  0
 10 14  1  0
 10  9  1  0
 11 10  1  0
 12 11  2  0
 12 13  1  0
 13 14  2  0
 14 15  1  0
 15 16  1  0
 15 17  1  0
 16 17  1  0
  1 18  1  1
  2 19  1  0
  3 20  1  0
  4 21  1  0
  8 22  1  0
  8 23  1  0
  8 24  1  0
  9 25  1  0
  9 26  1  0
 12 27  1  0
 13 28  1  0
 15 29  1  0
 16 30  1  0
 16 31  1  0
 17 32  1  0
 17 33  1  0
M  ISO  8  18   8  19  14  20  14  21  14  22   8  23   8  24   8  25   8
M  ISO  8  26   8  27  14  28  14  29  13  30  13  31  13  32  13  33  13
M  END
>  <minimizedAffinity>  (1) 
-4.80015087

>  <minimizedRMSD>  (1) 
5.99905443

$$$$
