
     RDKit          3D

 38 39  0  0  1  0  0  0  0  0999 V2000
   36.2960   29.1380   40.8610 C   0  0  2  0  0  0  0  0  0  0  0  0
   37.0640   25.9750   42.5820 C   0  0  0  0  0  0  0  0  0  0  0  0
   37.0790   25.0510   41.4810 C   0  0  0  0  0  0  0  0  0  0  0  0
   36.8270   25.5400   40.1860 C   0  0  0  0  0  0  0  0  0  0  0  0
   36.5800   26.8820   40.0630 N   0  0  0  0  0  0  0  0  0  0  0  0
   36.5770   27.7180   41.1520 C   0  0  0  0  0  0  0  0  0  0  0  0
   36.8110   27.3030   42.3940 N   0  0  0  0  0  0  0  0  0  0  0  0
   34.9750   29.2720   40.2040 C   0  0  0  0  0  0  0  0  0  0  0  0
   37.4220   29.8430   40.1240 C   0  0  0  0  0  0  0  0  0  0  0  0
   38.3850   30.4290   41.0140 N   0  0  0  0  0  0  0  0  0  0  0  0
   38.9160   29.9870   42.1240 N   0  0  0  0  0  0  0  0  0  0  0  0
   39.8010   30.7980   42.6780 C   0  0  0  0  0  0  0  0  0  0  0  0
   39.8910   31.9130   41.8710 C   0  0  0  0  0  0  0  0  0  0  0  0
   38.9820   31.6310   40.8430 C   0  0  0  0  0  0  0  0  0  0  0  0
   38.7960   32.6340   39.7440 C   0  0  0  0  0  0  0  0  0  0  0  0
   37.3250   32.9520   39.7400 C   0  0  0  0  0  0  0  0  0  0  0  0
   39.7060   33.8030   39.7900 C   0  0  0  0  0  0  0  0  0  0  0  0
   39.0780   31.9750   38.3840 C   0  0  0  0  0  0  0  0  0  0  0  0
   36.2438   29.6724   41.8210 H   0  0  0  0  0  0  0  0  0  0  0  0
   37.2608   25.6036   43.5985 H   0  0  0  0  0  0  0  0  0  0  0  0
   37.2834   23.9831   41.6475 H   0  0  0  0  0  0  0  0  0  0  0  0
   36.8282   24.8739   39.3106 H   0  0  0  0  0  0  0  0  0  0  0  0
   34.1905   29.3516   40.9709 H   0  0  0  0  0  0  0  0  0  0  0  0
   34.9675   30.1755   39.5766 H   0  0  0  0  0  0  0  0  0  0  0  0
   34.7862   28.3884   39.5766 H   0  0  0  0  0  0  0  0  0  0  0  0
   37.9351   29.1114   39.4825 H   0  0  0  0  0  0  0  0  0  0  0  0
   36.9750   30.6574   39.5349 H   0  0  0  0  0  0  0  0  0  0  0  0
   40.3604   30.6175   43.6078 H   0  0  0  0  0  0  0  0  0  0  0  0
   40.5216   32.8046   42.0024 H   0  0  0  0  0  0  0  0  0  0  0  0
   36.9639   33.0301   40.7761 H   0  0  0  0  0  0  0  0  0  0  0  0
   37.1577   33.9071   39.2205 H   0  0  0  0  0  0  0  0  0  0  0  0
   36.7782   32.1513   39.2205 H   0  0  0  0  0  0  0  0  0  0  0  0
   39.9113   34.0668   40.8380 H   0  0  0  0  0  0  0  0  0  0  0  0
   40.6497   33.5532   39.2831 H   0  0  0  0  0  0  0  0  0  0  0  0
   39.2323   34.6566   39.2831 H   0  0  0  0  0  0  0  0  0  0  0  0
   39.5062   30.9743   38.5432 H   0  0  0  0  0  0  0  0  0  0  0  0
   38.1391   31.8862   37.8178 H   0  0  0  0  0  0  0  0  0  0  0  0
   39.7905   32.5929   37.8178 H   0  0  0  0  0  0  0  0  0  0  0  0
  1  6  1  0
  3  2  2  0
  4  3  1  0
  5  4  2  0
  5  6  1  0
  6  7  2  0
  7  2  1  0
  8  1  1  0
  9  1  1  0
  9 10  1  0
 10 11  1  0
 11 12  2  0
 13 12  1  0
 14 10  1  0
 14 13  2  0
 15 17  1  0
 15 14  1  0
 16 15  1  0
 18 15  1  0
  1 19  1  1
  2 20  1  0
  3 21  1  0
  4 22  1  0
  8 23  1  0
  8 24  1  0
  8 25  1  0
  9 26  1  0
  9 27  1  0
 12 28  1  0
 13 29  1  0
 16 30  1  0
 16 31  1  0
 16 32  1  0
 17 33  1  0
 17 34  1  0
 17 35  1  0
 18 36  1  0
 18 37  1  0
 18 38  1  0
M  ISO  8  19   8  20  14  21  14  22  14  23   8  24   8  25   8  26   8
M  ISO  8  27   8  28  14  29  14  30   8  31   8  32   8  33   8  34   8
M  ISO  4  35   8  36   8  37   8  38   8
M  END
>  <minimizedAffinity>  (1) 
-4.31104422

>  <minimizedRMSD>  (1) 
2.61519837

$$$$
