
     RDKit          3D

 27 28  0  0  1  0  0  0  0  0999 V2000
   36.2810   29.8790   40.6520 C   0  0  2  0  0  0  0  0  0  0  0  0
   37.8040   28.2420   43.5770 C   0  0  0  0  0  0  0  0  0  0  0  0
   37.7360   26.8620   43.1950 C   0  0  0  0  0  0  0  0  0  0  0  0
   37.1710   26.5270   41.9500 C   0  0  0  0  0  0  0  0  0  0  0  0
   36.7200   27.5630   41.1810 N   0  0  0  0  0  0  0  0  0  0  0  0
   36.8080   28.8680   41.5930 C   0  0  0  0  0  0  0  0  0  0  0  0
   37.3340   29.2230   42.7590 N   0  0  0  0  0  0  0  0  0  0  0  0
   35.0380   29.3720   40.0130 C   0  0  0  0  0  0  0  0  0  0  0  0
   37.3100   30.3500   39.6310 C   0  0  0  0  0  0  0  0  0  0  0  0
   37.9240   31.6100   40.0270 N   0  0  0  0  0  0  0  0  0  0  0  0
   38.5890   31.9900   41.0830 N   0  0  0  0  0  0  0  0  0  0  0  0
   38.9840   33.2540   41.0500 C   0  0  0  0  0  0  0  0  0  0  0  0
   38.5540   33.7950   39.8650 C   0  0  0  0  0  0  0  0  0  0  0  0
   37.8960   32.7340   39.2570 C   0  0  0  0  0  0  0  0  0  0  0  0
   37.2750   32.8140   37.9950 O   0  0  0  0  0  0  0  0  0  0  0  0
   36.0351   30.7792   41.2344 H   0  0  0  0  0  0  0  0  0  0  0  0
   38.2437   28.5128   44.5482 H   0  0  0  0  0  0  0  0  0  0  0  0
   38.1192   26.0774   43.8640 H   0  0  0  0  0  0  0  0  0  0  0  0
   37.0961   25.4827   41.6126 H   0  0  0  0  0  0  0  0  0  0  0  0
   34.3187   29.0786   40.7918 H   0  0  0  0  0  0  0  0  0  0  0  0
   34.5986   30.1628   39.3872 H   0  0  0  0  0  0  0  0  0  0  0  0
   35.2770   28.4995   39.3872 H   0  0  0  0  0  0  0  0  0  0  0  0
   36.8120   30.4859   38.6596 H   0  0  0  0  0  0  0  0  0  0  0  0
   38.1012   29.5887   39.5653 H   0  0  0  0  0  0  0  0  0  0  0  0
   39.5544   33.7761   41.8324 H   0  0  0  0  0  0  0  0  0  0  0  0
   38.6957   34.8188   39.4885 H   0  0  0  0  0  0  0  0  0  0  0  0
   36.8213   32.0202   37.6154 H   0  0  0  0  0  0  0  0  0  0  0  0
  1  6  1  0
  3  2  2  0
  4  3  1  0
  5  6  1  0
  5  4  2  0
  6  7  2  0
  7  2  1  0
  8  1  1  0
  9 10  1  0
  9  1  1  0
 10 11  1  0
 12 11  2  0
 13 12  1  0
 14 13  2  0
 14 10  1  0
 15 14  1  0
  1 16  1  1
  2 17  1  0
  3 18  1  0
  4 19  1  0
  8 20  1  0
  8 21  1  0
  8 22  1  0
  9 23  1  0
  9 24  1  0
 12 25  1  0
 13 26  1  0
 15 27  1  0
M  ISO  8  16   8  17  14  18  14  19  14  20   8  21   8  22   8  23   8
M  ISO  4  24   8  25  14  26  14  27   3
M  END
>  <minimizedAffinity>  (1) 
-4.19454813

>  <minimizedRMSD>  (1) 
0.498316795

$$$$
