
     RDKit          3D

 32 33  0  0  1  0  0  0  0  0999 V2000
   36.0950   29.7980   40.3590 C   0  0  2  0  0  0  0  0  0  0  0  0
   37.8810   28.8060   43.4200 C   0  0  0  0  0  0  0  0  0  0  0  0
   37.8350   27.3810   43.3300 C   0  0  0  0  0  0  0  0  0  0  0  0
   37.1920   26.7910   42.2240 C   0  0  0  0  0  0  0  0  0  0  0  0
   36.6460   27.6380   41.2930 N   0  0  0  0  0  0  0  0  0  0  0  0
   36.7220   29.0040   41.4330 C   0  0  0  0  0  0  0  0  0  0  0  0
   37.3210   29.6050   42.4630 N   0  0  0  0  0  0  0  0  0  0  0  0
   34.7430   29.2540   40.0600 C   0  0  0  0  0  0  0  0  0  0  0  0
   36.9580   29.9230   39.1110 C   0  0  0  0  0  0  0  0  0  0  0  0
   38.2590   30.4910   39.4010 N   0  0  0  0  0  0  0  0  0  0  0  0
   39.4420   29.9660   39.5610 N   0  0  0  0  0  0  0  0  0  0  0  0
   40.4020   30.8420   39.8170 C   0  0  0  0  0  0  0  0  0  0  0  0
   39.8190   32.0970   39.8340 C   0  0  0  0  0  0  0  0  0  0  0  0
   38.4890   31.8160   39.5690 C   0  0  0  0  0  0  0  0  0  0  0  0
   37.4670   32.9250   39.4940 C   0  0  0  0  0  0  0  0  0  0  0  0
   38.0530   34.2240   39.9990 C   0  0  0  0  0  0  0  0  0  0  0  0
   35.9908   30.8295   40.7266 H   0  0  0  0  0  0  0  0  0  0  0  0
   38.3802   29.2724   44.2821 H   0  0  0  0  0  0  0  0  0  0  0  0
   38.2934   26.7556   44.1103 H   0  0  0  0  0  0  0  0  0  0  0  0
   37.1304   25.6985   42.1117 H   0  0  0  0  0  0  0  0  0  0  0  0
   34.2164   29.0421   41.0022 H   0  0  0  0  0  0  0  0  0  0  0  0
   34.1712   29.9920   39.4783 H   0  0  0  0  0  0  0  0  0  0  0  0
   34.8417   28.3256   39.4783 H   0  0  0  0  0  0  0  0  0  0  0  0
   36.4421   30.5705   38.3867 H   0  0  0  0  0  0  0  0  0  0  0  0
   37.1131   28.9127   38.7046 H   0  0  0  0  0  0  0  0  0  0  0  0
   41.4650   30.6143   39.9849 H   0  0  0  0  0  0  0  0  0  0  0  0
   40.2932   33.0732   40.0131 H   0  0  0  0  0  0  0  0  0  0  0  0
   37.1495   33.0539   38.4487 H   0  0  0  0  0  0  0  0  0  0  0  0
   36.6056   32.6564   40.1231 H   0  0  0  0  0  0  0  0  0  0  0  0
   38.0527   34.2233   41.0990 H   0  0  0  0  0  0  0  0  0  0  0  0
   39.0850   34.3276   39.6327 H   0  0  0  0  0  0  0  0  0  0  0  0
   37.4476   35.0662   39.6327 H   0  0  0  0  0  0  0  0  0  0  0  0
  1  6  1  0
  3  2  2  0
  4  3  1  0
  5  6  1  0
  5  4  2  0
  6  7  2  0
  7  2  1  0
  8  1  1  0
  9 10  1  0
  9  1  1  0
 10 11  1  0
 10 14  1  0
 11 12  2  0
 12 13  1  0
 14 13  2  0
 15 14  1  0
 15 16  1  0
  1 17  1  1
  2 18  1  0
  3 19  1  0
  4 20  1  0
  8 21  1  0
  8 22  1  0
  8 23  1  0
  9 24  1  0
  9 25  1  0
 12 26  1  0
 13 27  1  0
 15 28  1  0
 15 29  1  0
 16 30  1  0
 16 31  1  0
 16 32  1  0
M  ISO  8  17   8  18  14  19  14  20  14  21   8  22   8  23   8  24   8
M  ISO  8  25   8  26  14  27  14  28   8  29   8  30   8  31   8  32   8
M  END
>  <minimizedAffinity>  (1) 
-4.14733458

>  <minimizedRMSD>  (1) 
1.65058005

$$$$
