
     RDKit          3D

 28 29  0  0  1  0  0  0  0  0999 V2000
   36.1480   29.7570   40.3540 C   0  0  2  0  0  0  0  0  0  0  0  0
   37.9050   28.8320   43.4470 C   0  0  0  0  0  0  0  0  0  0  0  0
   37.8280   27.3980   43.3990 C   0  0  0  0  0  0  0  0  0  0  0  0
   37.1730   26.7940   42.3060 C   0  0  0  0  0  0  0  0  0  0  0  0
   36.6530   27.6330   41.3560 N   0  0  0  0  0  0  0  0  0  0  0  0
   36.7580   28.9960   41.4570 C   0  0  0  0  0  0  0  0  0  0  0  0
   37.3640   29.6030   42.4670 N   0  0  0  0  0  0  0  0  0  0  0  0
   34.7840   29.2460   40.0660 C   0  0  0  0  0  0  0  0  0  0  0  0
   37.0260   29.8450   39.1160 C   0  0  0  0  0  0  0  0  0  0  0  0
   38.2370   30.5930   39.3540 N   0  0  0  0  0  0  0  0  0  0  0  0
   39.4700   30.2090   39.5780 N   0  0  0  0  0  0  0  0  0  0  0  0
   40.3280   31.2150   39.7510 C   0  0  0  0  0  0  0  0  0  0  0  0
   39.6240   32.3890   39.6380 C   0  0  0  0  0  0  0  0  0  0  0  0
   38.3350   31.9480   39.3920 C   0  0  0  0  0  0  0  0  0  0  0  0
   37.2340   32.8850   39.2050 C   0  0  0  0  0  0  0  0  0  0  0  0
   37.2180   34.0900   39.5490 O   0  0  0  0  0  0  0  0  0  0  0  0
   36.0530   30.7999   40.6905 H   0  0  0  0  0  0  0  0  0  0  0  0
   38.4124   29.3160   44.2946 H   0  0  0  0  0  0  0  0  0  0  0  0
   38.2705   26.7846   44.1977 H   0  0  0  0  0  0  0  0  0  0  0  0
   37.0838   25.7010   42.2202 H   0  0  0  0  0  0  0  0  0  0  0  0
   34.2588   29.0492   41.0123 H   0  0  0  0  0  0  0  0  0  0  0  0
   34.2263   29.9962   39.4862 H   0  0  0  0  0  0  0  0  0  0  0  0
   34.8564   28.3140   39.4862 H   0  0  0  0  0  0  0  0  0  0  0  0
   36.4576   30.3384   38.3138 H   0  0  0  0  0  0  0  0  0  0  0  0
   37.3133   28.8212   38.8344 H   0  0  0  0  0  0  0  0  0  0  0  0
   41.4060   31.1215   39.9487 H   0  0  0  0  0  0  0  0  0  0  0  0
   39.9925   33.4220   39.7220 H   0  0  0  0  0  0  0  0  0  0  0  0
   36.3294   32.4966   38.7143 H   0  0  0  0  0  0  0  0  0  0  0  0
  1  6  1  0
  3  2  2  0
  4  3  1  0
  5  6  1  0
  5  4  2  0
  6  7  2  0
  7  2  1  0
  8  1  1  0
  9 10  1  0
  9  1  1  0
 10 14  1  0
 10 11  1  0
 11 12  2  0
 13 12  1  0
 14 13  2  0
 15 14  1  0
 15 16  2  0
  1 17  1  1
  2 18  1  0
  3 19  1  0
  4 20  1  0
  8 21  1  0
  8 22  1  0
  8 23  1  0
  9 24  1  0
  9 25  1  0
 12 26  1  0
 13 27  1  0
 15 28  1  0
M  ISO  8  17   8  18  14  19  14  20  14  21   8  22   8  23   8  24   8
M  ISO  4  25   8  26  14  27  14  28   6
M  END
>  <minimizedAffinity>  (1) 
-4.08498907

>  <minimizedRMSD>  (1) 
1.44801235

$$$$
