
     RDKit          3D

 29 30  0  0  1  0  0  0  0  0999 V2000
   35.9760   29.8850   40.4500 C   0  0  2  0  0  0  0  0  0  0  0  0
   37.9340   28.7550   43.3450 C   0  0  0  0  0  0  0  0  0  0  0  0
   37.9840   27.3400   43.1100 C   0  0  0  0  0  0  0  0  0  0  0  0
   37.3480   26.8150   41.9720 C   0  0  0  0  0  0  0  0  0  0  0  0
   36.7120   27.7100   41.1490 N   0  0  0  0  0  0  0  0  0  0  0  0
   36.7020   29.0530   41.4330 C   0  0  0  0  0  0  0  0  0  0  0  0
   37.2860   29.5900   42.4910 N   0  0  0  0  0  0  0  0  0  0  0  0
   34.6780   29.2790   40.1080 C   0  0  0  0  0  0  0  0  0  0  0  0
   36.8170   30.2250   39.2120 C   0  0  0  0  0  0  0  0  0  0  0  0
   38.2090   30.4490   39.5490 N   0  0  0  0  0  0  0  0  0  0  0  0
   39.2380   29.6310   39.5520 N   0  0  0  0  0  0  0  0  0  0  0  0
   40.3840   30.2020   39.9210 C   0  0  0  0  0  0  0  0  0  0  0  0
   40.1200   31.5180   40.1960 C   0  0  0  0  0  0  0  0  0  0  0  0
   38.7550   31.6160   39.9480 C   0  0  0  0  0  0  0  0  0  0  0  0
   38.0480   32.8710   40.1190 C   0  0  0  0  0  0  0  0  0  0  0  0
   38.4430   33.8420   40.8220 O   0  0  0  0  0  0  0  0  0  0  0  0
   36.8300   33.1890   39.5320 O   0  0  0  0  0  0  0  0  0  0  0  0
   35.7731   30.8532   40.9310 H   0  0  0  0  0  0  0  0  0  0  0  0
   38.4300   29.1718   44.2340 H   0  0  0  0  0  0  0  0  0  0  0  0
   38.5123   26.6763   43.8102 H   0  0  0  0  0  0  0  0  0  0  0  0
   37.3595   25.7374   41.7514 H   0  0  0  0  0  0  0  0  0  0  0  0
   34.1366   29.0262   41.0316 H   0  0  0  0  0  0  0  0  0  0  0  0
   34.0840   29.9929   39.5185 H   0  0  0  0  0  0  0  0  0  0  0  0
   34.8439   28.3652   39.5185 H   0  0  0  0  0  0  0  0  0  0  0  0
   36.4127   31.1361   38.7467 H   0  0  0  0  0  0  0  0  0  0  0  0
   36.7668   29.3708   38.5207 H   0  0  0  0  0  0  0  0  0  0  0  0
   41.3637   29.7069   39.9919 H   0  0  0  0  0  0  0  0  0  0  0  0
   40.8151   32.3024   40.5300 H   0  0  0  0  0  0  0  0  0  0  0  0
   36.4142   34.0713   39.7015 H   0  0  0  0  0  0  0  0  0  0  0  0
  1  6  1  0
  3  2  2  0
  4  3  1  0
  5  6  1  0
  5  4  2  0
  6  7  2  0
  7  2  1  0
  8  1  1  0
  9 10  1  0
  9  1  1  0
 10 11  1  0
 10 14  1  0
 11 12  2  0
 12 13  1  0
 14 15  1  0
 14 13  2  0
 15 16  2  0
 17 15  1  0
  1 18  1  1
  2 19  1  0
  3 20  1  0
  4 21  1  0
  8 22  1  0
  8 23  1  0
  8 24  1  0
  9 25  1  0
  9 26  1  0
 12 27  1  0
 13 28  1  0
 17 29  1  0
M  ISO  8  18   8  19  14  20  14  21  14  22   8  23   8  24   8  25   8
M  ISO  4  26   8  27  14  28  14  29   3
M  END
>  <minimizedAffinity>  (1) 
-4.3277173

>  <minimizedRMSD>  (1) 
0.789241672

$$$$
