
     RDKit          3D

 44 47  0  0  1  0  0  0  0  0999 V2000
   38.8920   29.8210   39.1910 N   0  0  0  0  0  0  0  0  0  0  0  0
   40.0160   29.5800   39.8260 N   0  0  0  0  0  0  0  0  0  0  0  0
   40.8450   30.6210   39.8740 C   0  0  0  0  0  0  0  0  0  0  0  0
   40.2430   31.6560   39.2220 C   0  0  0  0  0  0  0  0  0  0  0  0
   39.0220   31.1020   38.8130 C   0  0  0  0  0  0  0  0  0  0  0  0
   40.7710   32.9790   39.0250 C   0  0  0  0  0  0  0  0  0  0  0  0
   41.8150   33.2130   38.1530 C   0  0  0  0  0  0  0  0  0  0  0  0
   42.1140   34.5220   38.1550 N   0  0  0  0  0  0  0  0  0  0  0  0
   41.2890   35.1540   39.0060 C   0  0  0  0  0  0  0  0  0  0  0  0
   41.1320   36.4610   39.4070 C   0  0  0  0  0  0  0  0  0  0  0  0
   40.1630   36.7950   40.3250 C   0  0  0  0  0  0  0  0  0  0  0  0
   39.3170   35.8330   40.8750 C   0  0  0  0  0  0  0  0  0  0  0  0
   39.4590   34.5080   40.4830 C   0  0  0  0  0  0  0  0  0  0  0  0
   40.4430   34.2160   39.5610 C   0  0  0  0  0  0  0  0  0  0  0  0
   38.0660   31.8820   38.0740 C   0  0  0  0  0  0  0  0  0  0  0  0
   37.0960   32.5200   38.5730 O   0  0  0  0  0  0  0  0  0  0  0  0
   38.0640   32.0560   36.6630 N   0  0  0  0  0  0  0  0  0  0  0  0
   37.7620   28.9530   38.9350 C   0  0  0  0  0  0  0  0  0  0  0  0
   36.5980   29.2050   39.9240 C   0  0  2  0  0  0  0  0  0  0  0  0
   37.6470   29.0520   43.4410 C   0  0  0  0  0  0  0  0  0  0  0  0
   37.4630   27.6530   43.7330 C   0  0  0  0  0  0  0  0  0  0  0  0
   36.9900   26.8170   42.7220 C   0  0  0  0  0  0  0  0  0  0  0  0
   36.7260   27.3870   41.4990 N   0  0  0  0  0  0  0  0  0  0  0  0
   36.9260   28.7410   41.2950 C   0  0  0  0  0  0  0  0  0  0  0  0
   37.3720   29.5700   42.2130 N   0  0  0  0  0  0  0  0  0  0  0  0
   35.3450   28.6250   39.4530 C   0  0  0  0  0  0  0  0  0  0  0  0
   41.8352   30.6420   40.3526 H   0  0  0  0  0  0  0  0  0  0  0  0
   42.3232   32.4461   37.5500 H   0  0  0  0  0  0  0  0  0  0  0  0
   42.8547   34.9684   37.5956 H   0  0  0  0  0  0  0  0  0  0  0  0
   41.7846   37.2429   38.9914 H   0  0  0  0  0  0  0  0  0  0  0  0
   40.0533   37.8455   40.6321 H   0  0  0  0  0  0  0  0  0  0  0  0
   38.5486   36.1190   41.6084 H   0  0  0  0  0  0  0  0  0  0  0  0
   38.8103   33.7199   40.8929 H   0  0  0  0  0  0  0  0  0  0  0  0
   38.7888   31.6041   36.0873 H   0  0  0  0  0  0  0  0  0  0  0  0
   37.3378   32.6340   36.2164 H   0  0  0  0  0  0  0  0  0  0  0  0
   37.4023   29.1318   37.9110 H   0  0  0  0  0  0  0  0  0  0  0  0
   38.0974   27.9134   39.0645 H   0  0  0  0  0  0  0  0  0  0  0  0
   36.4557   30.2947   39.9713 H   0  0  0  0  0  0  0  0  0  0  0  0
   38.0198   29.7193   44.2320 H   0  0  0  0  0  0  0  0  0  0  0  0
   37.6908   27.2530   44.7321 H   0  0  0  0  0  0  0  0  0  0  0  0
   36.8340   25.7422   42.8964 H   0  0  0  0  0  0  0  0  0  0  0  0
   34.7262   28.3386   40.3162 H   0  0  0  0  0  0  0  0  0  0  0  0
   34.8047   29.3646   38.8438 H   0  0  0  0  0  0  0  0  0  0  0  0
   35.5593   27.7345   38.8438 H   0  0  0  0  0  0  0  0  0  0  0  0
  1  2  1  0
  2  3  2  0
  4  3  1  0
  5  1  1  0
  5  4  2  0
  6  4  1  0
  6 14  1  0
  7  8  1  0
  7  6  2  0
  8  9  1  0
  9 10  1  0
  9 14  2  0
 10 11  2  0
 11 12  1  0
 13 12  2  0
 14 13  1  0
 15 16  2  0
 15  5  1  0
 17 15  1  0
 18  1  1  0
 18 19  1  0
 19 24  1  0
 20 21  2  0
 22 21  1  0
 23 22  2  0
 24 23  1  0
 24 25  2  0
 25 20  1  0
 26 19  1  0
  3 27  1  0
  7 28  1  0
  8 29  1  0
 10 30  1  0
 11 31  1  0
 12 32  1  0
 13 33  1  0
 17 34  1  0
 17 35  1  0
 18 36  1  0
 18 37  1  0
 19 38  1  1
 20 39  1  0
 21 40  1  0
 22 41  1  0
 26 42  1  0
 26 43  1  0
 26 44  1  0
M  ISO  8  27  14  28  14  29   9  30  14  31  14  32  14  33  14  36   8
M  ISO  8  37   8  38   8  39  14  40  14  41  14  42   8  43   8  44   8
M  END
>  <minimizedAffinity>  (1) 
-6.19319248

>  <minimizedRMSD>  (1) 
1.89012682

$$$$
