
     RDKit          3D

 43 46  0  0  1  0  0  0  0  0999 V2000
   38.0840   30.2940   38.5230 N   0  0  0  0  0  0  0  0  0  0  0  0
   39.0990   30.0650   37.7300 N   0  0  0  0  0  0  0  0  0  0  0  0
   40.1750   30.8140   38.0060 C   0  0  0  0  0  0  0  0  0  0  0  0
   39.8620   31.6130   39.0660 C   0  0  0  0  0  0  0  0  0  0  0  0
   38.5490   31.2440   39.3440 C   0  0  0  0  0  0  0  0  0  0  0  0
   40.6490   32.5860   39.7440 N   0  0  0  0  0  0  0  0  0  0  0  0
   41.8520   32.2370   40.2790 C   0  0  0  0  0  0  0  0  0  0  0  0
   42.4330   33.2760   40.8670 N   0  0  0  0  0  0  0  0  0  0  0  0
   41.6020   34.3350   40.7210 C   0  0  0  0  0  0  0  0  0  0  0  0
   41.6310   35.6500   41.0950 C   0  0  0  0  0  0  0  0  0  0  0  0
   40.5910   36.4570   40.7720 N   0  0  0  0  0  0  0  0  0  0  0  0
   39.5250   35.9620   40.0770 C   0  0  0  0  0  0  0  0  0  0  0  0
   39.4310   34.6620   39.6730 N   0  0  0  0  0  0  0  0  0  0  0  0
   40.4950   33.8980   40.0220 C   0  0  0  0  0  0  0  0  0  0  0  0
   42.7760   36.0800   41.8130 N   0  0  0  0  0  0  0  0  0  0  0  0
   37.8080   31.8670   40.4350 C   0  0  0  0  0  0  0  0  0  0  0  0
   37.9150   31.5540   41.6510 O   0  0  0  0  0  0  0  0  0  0  0  0
   36.8600   32.9120   40.2980 N   0  0  0  0  0  0  0  0  0  0  0  0
   36.7640   29.6910   38.5380 C   0  0  0  0  0  0  0  0  0  0  0  0
   36.3220   29.3000   39.9700 C   0  0  2  0  0  0  0  0  0  0  0  0
   38.4940   26.8910   41.6830 C   0  0  0  0  0  0  0  0  0  0  0  0
   38.0310   25.6480   41.1210 C   0  0  0  0  0  0  0  0  0  0  0  0
   36.9960   25.6710   40.1790 C   0  0  0  0  0  0  0  0  0  0  0  0
   36.4900   26.9050   39.8550 N   0  0  0  0  0  0  0  0  0  0  0  0
   36.9830   28.0620   40.4360 C   0  0  0  0  0  0  0  0  0  0  0  0
   37.9520   28.0860   41.3220 N   0  0  0  0  0  0  0  0  0  0  0  0
   34.8690   29.2090   40.0830 C   0  0  0  0  0  0  0  0  0  0  0  0
   41.1373   30.7890   37.4737 H   0  0  0  0  0  0  0  0  0  0  0  0
   42.2852   31.2271   40.2303 H   0  0  0  0  0  0  0  0  0  0  0  0
   38.6998   36.6462   39.8301 H   0  0  0  0  0  0  0  0  0  0  0  0
   42.8529   37.0599   42.1207 H   0  0  0  0  0  0  0  0  0  0  0  0
   43.5306   35.4123   42.0267 H   0  0  0  0  0  0  0  0  0  0  0  0
   36.3855   33.2893   41.1307 H   0  0  0  0  0  0  0  0  0  0  0  0
   36.6457   33.2940   39.3658 H   0  0  0  0  0  0  0  0  0  0  0  0
   36.0402   30.4100   38.1266 H   0  0  0  0  0  0  0  0  0  0  0  0
   36.8020   28.7741   37.9315 H   0  0  0  0  0  0  0  0  0  0  0  0
   36.6511   30.1107   40.6366 H   0  0  0  0  0  0  0  0  0  0  0  0
   39.3072   26.8738   42.4236 H   0  0  0  0  0  0  0  0  0  0  0  0
   38.4846   24.6940   41.4279 H   0  0  0  0  0  0  0  0  0  0  0  0
   36.6084   24.7484   39.7223 H   0  0  0  0  0  0  0  0  0  0  0  0
   34.5843   29.1912   41.1454 H   0  0  0  0  0  0  0  0  0  0  0  0
   34.4080   30.0800   39.5944 H   0  0  0  0  0  0  0  0  0  0  0  0
   34.5202   28.2873   39.5944 H   0  0  0  0  0  0  0  0  0  0  0  0
  1 19  1  0
  1  5  1  0
  2  3  2  0
  2  1  1  0
  3  4  1  0
  4  5  2  0
  4  6  1  0
  5 16  1  0
  6 14  1  0
  6  7  1  0
  7  8  2  0
  9  8  1  0
  9 10  2  0
 10 15  1  0
 11 10  1  0
 12 11  2  0
 13 14  2  0
 13 12  1  0
 14  9  1  0
 16 17  2  0
 18 16  1  0
 19 20  1  0
 20 27  1  0
 20 25  1  0
 22 21  2  0
 23 22  1  0
 24 23  2  0
 24 25  1  0
 25 26  2  0
 26 21  1  0
  3 28  1  0
  7 29  1  0
 12 30  1  0
 15 31  1  0
 15 32  1  0
 18 33  1  0
 18 34  1  0
 19 35  1  0
 19 36  1  0
 20 37  1  1
 21 38  1  0
 22 39  1  0
 23 40  1  0
 27 41  1  0
 27 42  1  0
 27 43  1  0
M  ISO  8  28  14  29  14  30  14  35   8  36   8  37   8  38  14  39  14
M  ISO  4  40  14  41   8  42   8  43   8
M  END
>  <minimizedAffinity>  (1) 
-5.89240646

>  <minimizedRMSD>  (1) 
1.48030305

$$$$
