
     RDKit          3D

 41 43  0  0  1  0  0  0  0  0999 V2000
   38.1370   30.6180   39.2900 N   0  0  0  0  0  0  0  0  0  0  0  0
   39.0960   29.7840   38.9650 N   0  0  0  0  0  0  0  0  0  0  0  0
   40.3220   30.2460   39.2210 C   0  0  0  0  0  0  0  0  0  0  0  0
   40.1790   31.4820   39.7580 C   0  0  0  0  0  0  0  0  0  0  0  0
   38.8000   31.6730   39.7810 C   0  0  0  0  0  0  0  0  0  0  0  0
   41.1930   32.3790   40.1970 N   0  0  0  0  0  0  0  0  0  0  0  0
   41.7640   32.3190   41.4290 C   0  0  0  0  0  0  0  0  0  0  0  0
   42.7500   33.2450   41.7640 C   0  0  0  0  0  0  0  0  0  0  0  0
   43.1000   34.1870   40.8120 C   0  0  0  0  0  0  0  0  0  0  0  0
   44.0880   35.1680   41.0530 N   0  0  0  0  0  0  0  0  0  0  0  0
   42.5150   34.2140   39.6090 N   0  0  0  0  0  0  0  0  0  0  0  0
   41.5570   33.3200   39.2770 C   0  0  0  0  0  0  0  0  0  0  0  0
   41.0230   33.3700   38.1340 O   0  0  0  0  0  0  0  0  0  0  0  0
   38.2260   32.8910   40.2870 C   0  0  0  0  0  0  0  0  0  0  0  0
   38.6600   33.5760   41.2510 O   0  0  0  0  0  0  0  0  0  0  0  0
   37.0520   33.5250   39.7610 N   0  0  0  0  0  0  0  0  0  0  0  0
   36.6990   30.4790   39.1680 C   0  0  0  0  0  0  0  0  0  0  0  0
   36.0440   30.0310   40.4960 C   0  0  2  0  0  0  0  0  0  0  0  0
   38.4490   28.9170   43.0310 C   0  0  0  0  0  0  0  0  0  0  0  0
   38.6020   27.5120   42.6830 C   0  0  0  0  0  0  0  0  0  0  0  0
   37.8710   27.0040   41.5910 C   0  0  0  0  0  0  0  0  0  0  0  0
   37.0630   27.8980   40.9370 N   0  0  0  0  0  0  0  0  0  0  0  0
   36.9640   29.2100   41.3170 C   0  0  0  0  0  0  0  0  0  0  0  0
   37.6260   29.7420   42.3320 N   0  0  0  0  0  0  0  0  0  0  0  0
   34.7770   29.3420   40.2710 C   0  0  0  0  0  0  0  0  0  0  0  0
   41.2703   29.7218   39.0316 H   0  0  0  0  0  0  0  0  0  0  0  0
   41.4522   31.5503   42.1514 H   0  0  0  0  0  0  0  0  0  0  0  0
   43.2339   33.2280   42.7517 H   0  0  0  0  0  0  0  0  0  0  0  0
   44.3226   35.8534   40.3208 H   0  0  0  0  0  0  0  0  0  0  0  0
   44.5736   35.1977   41.9609 H   0  0  0  0  0  0  0  0  0  0  0  0
   36.7056   34.3985   40.1828 H   0  0  0  0  0  0  0  0  0  0  0  0
   36.5552   33.1068   38.9615 H   0  0  0  0  0  0  0  0  0  0  0  0
   36.2726   31.4486   38.8714 H   0  0  0  0  0  0  0  0  0  0  0  0
   36.4958   29.7063   38.4120 H   0  0  0  0  0  0  0  0  0  0  0  0
   35.8248   30.9462   41.0655 H   0  0  0  0  0  0  0  0  0  0  0  0
   39.0149   29.3220   43.8829 H   0  0  0  0  0  0  0  0  0  0  0  0
   39.2743   26.8605   43.2605 H   0  0  0  0  0  0  0  0  0  0  0  0
   37.9443   25.9511   41.2811 H   0  0  0  0  0  0  0  0  0  0  0  0
   34.3183   29.0926   41.2392 H   0  0  0  0  0  0  0  0  0  0  0  0
   34.0999   29.9961   39.7021 H   0  0  0  0  0  0  0  0  0  0  0  0
   34.9580   28.4181   39.7021 H   0  0  0  0  0  0  0  0  0  0  0  0
  1  5  1  0
  2  3  2  0
  2  1  1  0
  3  4  1  0
  4  5  2  0
  4  6  1  0
  5 14  1  0
  6  7  1  0
  7  8  2  0
  9 10  1  0
  9  8  1  0
 11  9  2  0
 12 11  1  0
 12  6  1  0
 13 12  2  0
 14 15  2  0
 16 14  1  0
 17  1  1  0
 17 18  1  0
 18 23  1  0
 20 19  2  0
 21 20  1  0
 22 23  1  0
 22 21  2  0
 23 24  2  0
 24 19  1  0
 25 18  1  0
  3 26  1  0
  7 27  1  0
  8 28  1  0
 10 29  1  0
 10 30  1  0
 16 31  1  0
 16 32  1  0
 17 33  1  0
 17 34  1  0
 18 35  1  1
 19 36  1  0
 20 37  1  0
 21 38  1  0
 25 39  1  0
 25 40  1  0
 25 41  1  0
M  ISO  8  26  14  27  14  28  14  33   8  34   8  35   8  36  14  37  14
M  ISO  4  38  14  39   8  40   8  41   8
M  END
>  <minimizedAffinity>  (1) 
-5.65541506

>  <minimizedRMSD>  (1) 
0.548743665

$$$$
