
     RDKit          3D

 37 38  0  0  1  0  0  0  0  0999 V2000
   38.8670   31.1200   40.1660 N   0  0  0  0  0  0  0  0  0  0  0  0
   39.9650   30.5700   40.6200 N   0  0  0  0  0  0  0  0  0  0  0  0
   40.8690   31.4470   41.0440 C   0  0  0  0  0  0  0  0  0  0  0  0
   40.3550   32.6880   40.8680 C   0  0  0  0  0  0  0  0  0  0  0  0
   39.0950   32.4320   40.3140 C   0  0  0  0  0  0  0  0  0  0  0  0
   40.9550   33.9400   41.1760 N   0  0  0  0  0  0  0  0  0  0  0  0
   41.9090   34.5370   40.3050 C   0  0  0  0  0  0  0  0  0  0  0  0
   41.7160   34.3770   39.0190 N   0  0  0  0  0  0  0  0  0  0  0  0
   43.0050   35.2670   40.8550 N   0  0  0  0  0  0  0  0  0  0  0  0
   42.4280   34.8230   38.4000 H   0  0  0  0  0  0  0  0  0  0  0  0
   38.1960   33.5060   39.9670 C   0  0  0  0  0  0  0  0  0  0  0  0
   38.3190   34.7090   40.3300 O   0  0  0  0  0  0  0  0  0  0  0  0
   37.0280   33.3710   39.1610 N   0  0  0  0  0  0  0  0  0  0  0  0
   37.6720   30.5030   39.6220 C   0  0  0  0  0  0  0  0  0  0  0  0
   36.6390   30.1640   40.7260 C   0  0  2  0  0  0  0  0  0  0  0  0
   37.8950   28.2390   43.5860 C   0  0  0  0  0  0  0  0  0  0  0  0
   37.9300   26.9120   43.0350 C   0  0  0  0  0  0  0  0  0  0  0  0
   37.5260   26.7170   41.7130 C   0  0  0  0  0  0  0  0  0  0  0  0
   37.1160   27.8270   41.0170 N   0  0  0  0  0  0  0  0  0  0  0  0
   37.1040   29.0750   41.6020 C   0  0  0  0  0  0  0  0  0  0  0  0
   37.4780   29.3050   42.8510 N   0  0  0  0  0  0  0  0  0  0  0  0
   35.3260   29.8650   40.1590 C   0  0  0  0  0  0  0  0  0  0  0  0
   41.8576   31.2080   41.4629 H   0  0  0  0  0  0  0  0  0  0  0  0
   40.6939   34.4243   42.0467 H   0  0  0  0  0  0  0  0  0  0  0  0
   43.6993   35.7018   40.2307 H   0  0  0  0  0  0  0  0  0  0  0  0
   43.1017   35.3591   41.8763 H   0  0  0  0  0  0  0  0  0  0  0  0
   36.4411   34.1939   38.9628 H   0  0  0  0  0  0  0  0  0  0  0  0
   36.7709   32.4505   38.7769 H   0  0  0  0  0  0  0  0  0  0  0  0
   37.2097   31.1965   38.9041 H   0  0  0  0  0  0  0  0  0  0  0  0
   37.9677   29.5628   39.1335 H   0  0  0  0  0  0  0  0  0  0  0  0
   36.5353   31.0622   41.3525 H   0  0  0  0  0  0  0  0  0  0  0  0
   38.2131   28.3964   44.6272 H   0  0  0  0  0  0  0  0  0  0  0  0
   38.2700   26.0627   43.6458 H   0  0  0  0  0  0  0  0  0  0  0  0
   37.5358   25.7192   41.2500 H   0  0  0  0  0  0  0  0  0  0  0  0
   34.6041   29.7006   40.9725 H   0  0  0  0  0  0  0  0  0  0  0  0
   34.9933   30.7104   39.5388 H   0  0  0  0  0  0  0  0  0  0  0  0
   35.3921   28.9589   39.5388 H   0  0  0  0  0  0  0  0  0  0  0  0
  1  5  1  0
  1  2  1  0
  2  3  2  0
  4  3  1  0
  4  6  1  0
  5  4  2  0
  7  9  1  0
  7  6  1  0
  8  7  2  0
 10  8  1  0
 11  5  1  0
 11 12  2  0
 13 11  1  0
 14  1  1  0
 14 15  1  0
 15 20  1  0
 17 16  2  0
 18 17  1  0
 19 20  1  0
 19 18  2  0
 20 21  2  0
 21 16  1  0
 22 15  1  0
  3 23  1  0
  6 24  1  0
  9 25  1  0
  9 26  1  0
 13 27  1  0
 13 28  1  0
 14 29  1  0
 14 30  1  0
 15 31  1  1
 16 32  1  0
 17 33  1  0
 18 34  1  0
 22 35  1  0
 22 36  1  0
 22 37  1  0
M  ISO  8  23  14  29   8  30   8  31   8  32  14  33  14  34  14  35   8
M  ISO  2  36   8  37   8
M  END
>  <minimizedAffinity>  (1) 
-5.23626804

>  <minimizedRMSD>  (1) 
1.34186435

$$$$
