
     RDKit          3D

 43 45  0  0  1  0  0  0  0  0999 V2000
   37.1740   29.2360   39.0770 C   0  0  0  0  0  0  0  0  0  0  0  0
   38.5120   29.7550   39.2770 N   0  0  0  0  0  0  0  0  0  0  0  0
   39.5930   29.1340   39.6760 N   0  0  0  0  0  0  0  0  0  0  0  0
   40.6630   29.9290   39.7440 C   0  0  0  0  0  0  0  0  0  0  0  0
   40.2730   31.1770   39.3640 C   0  0  0  0  0  0  0  0  0  0  0  0
   38.9260   31.0180   39.0830 C   0  0  0  0  0  0  0  0  0  0  0  0
   41.1530   32.2970   39.3140 N   0  0  0  0  0  0  0  0  0  0  0  0
   41.9010   32.8870   38.2300 C   0  0  0  0  0  0  0  0  0  0  0  0
   41.8410   34.3720   38.1490 C   0  0  0  0  0  0  0  0  0  0  0  0
   41.2460   35.1250   39.2630 C   0  0  0  0  0  0  0  0  0  0  0  0
   40.6280   34.3420   40.3650 C   0  0  0  0  0  0  0  0  0  0  0  0
   41.4250   33.0680   40.5210 C   0  0  0  0  0  0  0  0  0  0  0  0
   38.1030   32.1280   38.6360 C   0  0  0  0  0  0  0  0  0  0  0  0
   37.5640   32.9790   39.3940 O   0  0  0  0  0  0  0  0  0  0  0  0
   37.7850   32.4200   37.2830 N   0  0  0  0  0  0  0  0  0  0  0  0
   36.2510   29.5200   40.2850 C   0  0  2  0  0  0  0  0  0  0  0  0
   37.7670   28.9480   43.5750 C   0  0  0  0  0  0  0  0  0  0  0  0
   37.6100   27.5140   43.7130 C   0  0  0  0  0  0  0  0  0  0  0  0
   36.9930   26.8060   42.6810 C   0  0  0  0  0  0  0  0  0  0  0  0
   36.5760   27.5300   41.5930 N   0  0  0  0  0  0  0  0  0  0  0  0
   36.7580   28.8980   41.5280 C   0  0  0  0  0  0  0  0  0  0  0  0
   37.3320   29.6120   42.4720 N   0  0  0  0  0  0  0  0  0  0  0  0
   34.8630   29.1440   40.0270 C   0  0  0  0  0  0  0  0  0  0  0  0
   36.7413   29.7071   38.1821 H   0  0  0  0  0  0  0  0  0  0  0  0
   37.2491   28.1450   38.9583 H   0  0  0  0  0  0  0  0  0  0  0  0
   41.6761   29.6302   40.0513 H   0  0  0  0  0  0  0  0  0  0  0  0
   42.4754   32.2814   37.5135 H   0  0  0  0  0  0  0  0  0  0  0  0
   42.2363   34.8988   37.2680 H   0  0  0  0  0  0  0  0  0  0  0  0
   42.0406   35.7448   39.7040 H   0  0  0  0  0  0  0  0  0  0  0  0
   40.4119   35.6825   38.8119 H   0  0  0  0  0  0  0  0  0  0  0  0
   40.6588   34.9209   41.2999 H   0  0  0  0  0  0  0  0  0  0  0  0
   39.5764   34.1149   40.1358 H   0  0  0  0  0  0  0  0  0  0  0  0
   41.0977   32.5151   41.4139 H   0  0  0  0  0  0  0  0  0  0  0  0
   42.4992   33.2679   40.6479 H   0  0  0  0  0  0  0  0  0  0  0  0
   37.1918   33.2311   37.0569 H   0  0  0  0  0  0  0  0  0  0  0  0
   38.1475   31.8206   36.5279 H   0  0  0  0  0  0  0  0  0  0  0  0
   36.2644   30.6098   40.4337 H   0  0  0  0  0  0  0  0  0  0  0  0
   38.2511   29.5140   44.3845 H   0  0  0  0  0  0  0  0  0  0  0  0
   37.9700   26.9942   44.6131 H   0  0  0  0  0  0  0  0  0  0  0  0
   36.8476   25.7171   42.7373 H   0  0  0  0  0  0  0  0  0  0  0  0
   34.3379   29.0017   40.9830 H   0  0  0  0  0  0  0  0  0  0  0  0
   34.3682   29.9405   39.4519 H   0  0  0  0  0  0  0  0  0  0  0  0
   34.8379   28.2067   39.4519 H   0  0  0  0  0  0  0  0  0  0  0  0
  1  2  1  0
  1 16  1  0
  2  3  1  0
  3  4  2  0
  5  4  1  0
  6  2  1  0
  6  5  2  0
  7  5  1  0
  7 12  1  0
  8  7  1  0
  9  8  2  0
  9 10  1  0
 10 11  1  0
 11 12  1  0
 13  6  1  0
 13 14  2  0
 15 13  1  0
 16 21  1  0
 17 18  2  0
 19 18  1  0
 20 19  2  0
 21 20  1  0
 21 22  2  0
 22 17  1  0
 23 16  1  0
  1 24  1  0
  1 25  1  0
  4 26  1  0
  8 27  1  0
  9 28  1  0
 10 29  1  0
 10 30  1  0
 11 31  1  0
 11 32  1  0
 12 33  1  0
 12 34  1  0
 15 35  1  0
 15 36  1  0
 16 37  1  1
 17 38  1  0
 18 39  1  0
 19 40  1  0
 23 41  1  0
 23 42  1  0
 23 43  1  0
M  ISO  8  24   8  25   8  26  14  27  13  28  13  29  13  30  13  31  13
M  ISO  8  32  13  33  13  34  13  37   8  38  14  39  14  40  14  41   8
M  ISO  2  42   8  43   8
M  END
>  <minimizedAffinity>  (1) 
-5.14578533

>  <minimizedRMSD>  (1) 
1.20373273

$$$$
