
     RDKit          3D

 46 49  0  0  1  0  0  0  0  0999 V2000
   38.0130   30.3050   39.6220 C   0  0  1  0  0  0  0  0  0  0  0  0
   37.4380   30.4300   38.1880 C   0  0  0  0  0  0  0  0  0  0  0  0
   35.9990   29.9730   38.4320 C   0  0  0  0  0  0  0  0  0  0  0  0
   36.0080   29.1530   39.6870 C   0  0  0  0  0  0  0  0  0  0  0  0
   37.4770   28.9840   40.0270 C   0  0  2  0  0  0  0  0  0  0  0  0
   40.7850   34.9940   39.7340 C   0  0  0  0  0  0  0  0  0  0  0  0
   39.5240   35.5260   40.0660 C   0  0  0  0  0  0  0  0  0  0  0  0
   38.4920   34.6330   40.2920 C   0  0  0  0  0  0  0  0  0  0  0  0
   38.7590   33.3080   40.1780 N   0  0  0  0  0  0  0  0  0  0  0  0
   39.9380   32.8090   39.8680 C   0  0  0  0  0  0  0  0  0  0  0  0
   40.9740   33.6620   39.6400 N   0  0  0  0  0  0  0  0  0  0  0  0
   40.2640   31.4330   39.7230 N   0  0  0  0  0  0  0  0  0  0  0  0
   41.5520   31.1210   39.6840 N   0  0  0  0  0  0  0  0  0  0  0  0
   41.6510   29.7590   39.5240 C   0  0  0  0  0  0  0  0  0  0  0  0
   40.3360   29.2820   39.4710 C   0  0  0  0  0  0  0  0  0  0  0  0
   39.4670   30.3730   39.6020 C   0  0  0  0  0  0  0  0  0  0  0  0
   37.5670   28.6970   41.4330 N   0  0  0  0  0  0  0  0  0  0  0  0
   37.5620   29.5320   42.4480 N   0  0  0  0  0  0  0  0  0  0  0  0
   37.6650   28.8900   43.6280 C   0  0  0  0  0  0  0  0  0  0  0  0
   37.7400   27.5400   43.3030 C   0  0  0  0  0  0  0  0  0  0  0  0
   37.6770   27.4460   41.9390 C   0  0  0  0  0  0  0  0  0  0  0  0
   37.7350   26.1220   41.3060 C   0  0  0  0  0  0  0  0  0  0  0  0
   37.0610   25.0540   42.1480 C   0  0  0  0  0  0  0  0  0  0  0  0
   39.1650   25.6930   41.0880 C   0  0  0  0  0  0  0  0  0  0  0  0
   37.7335   31.1072   40.3209 H   0  0  0  0  0  0  0  0  0  0  0  0
   37.9607   29.7695   37.4806 H   0  0  0  0  0  0  0  0  0  0  0  0
   37.5346   31.4290   37.7378 H   0  0  0  0  0  0  0  0  0  0  0  0
   35.3410   30.8458   38.5554 H   0  0  0  0  0  0  0  0  0  0  0  0
   35.6234   29.3856   37.5812 H   0  0  0  0  0  0  0  0  0  0  0  0
   35.4804   29.6779   40.4970 H   0  0  0  0  0  0  0  0  0  0  0  0
   35.4975   28.1874   39.5566 H   0  0  0  0  0  0  0  0  0  0  0  0
   38.0297   28.1679   39.5387 H   0  0  0  0  0  0  0  0  0  0  0  0
   41.6285   35.6752   39.5485 H   0  0  0  0  0  0  0  0  0  0  0  0
   39.3655   36.6118   40.1428 H   0  0  0  0  0  0  0  0  0  0  0  0
   37.4846   34.9869   40.5564 H   0  0  0  0  0  0  0  0  0  0  0  0
   42.5745   29.1657   39.4523 H   0  0  0  0  0  0  0  0  0  0  0  0
   40.0364   28.2308   39.3476 H   0  0  0  0  0  0  0  0  0  0  0  0
   37.6854   29.3376   44.6326 H   0  0  0  0  0  0  0  0  0  0  0  0
   37.8327   26.7030   44.0107 H   0  0  0  0  0  0  0  0  0  0  0  0
   37.2057   26.2206   40.3468 H   0  0  0  0  0  0  0  0  0  0  0  0
   37.2052   25.2825   43.2143 H   0  0  0  0  0  0  0  0  0  0  0  0
   35.9851   25.0321   41.9200 H   0  0  0  0  0  0  0  0  0  0  0  0
   37.5042   24.0734   41.9200 H   0  0  0  0  0  0  0  0  0  0  0  0
   39.6560   25.5457   42.0612 H   0  0  0  0  0  0  0  0  0  0  0  0
   39.1827   24.7500   40.5219 H   0  0  0  0  0  0  0  0  0  0  0  0
   39.6988   26.4705   40.5219 H   0  0  0  0  0  0  0  0  0  0  0  0
  1  5  1  0
  2  3  1  0
  2  1  1  0
  3  4  1  0
  4  5  1  0
  5 17  1  0
  6  7  2  0
  7  8  1  0
  9  8  2  0
 10  9  1  0
 11  6  1  0
 11 10  2  0
 12 10  1  0
 13 12  1  0
 14 13  2  0
 15 14  1  0
 15 16  2  0
 16  1  1  0
 16 12  1  0
 17 21  1  0
 17 18  1  0
 18 19  2  0
 20 19  1  0
 21 20  2  0
 22 21  1  0
 22 23  1  0
 24 22  1  0
  1 25  1  1
  2 26  1  0
  2 27  1  0
  3 28  1  0
  3 29  1  0
  4 30  1  0
  4 31  1  0
  5 32  1  6
  6 33  1  0
  7 34  1  0
  8 35  1  0
 14 36  1  0
 15 37  1  0
 19 38  1  0
 20 39  1  0
 22 40  1  0
 23 41  1  0
 23 42  1  0
 23 43  1  0
 24 44  1  0
 24 45  1  0
 24 46  1  0
M  ISO  8  25  13  26  13  27  13  28  13  29  13  30  13  31  13  32  13
M  ISO  8  33  14  34  14  35  14  36  14  37  14  38  14  39  14  40   8
M  ISO  6  41   8  42   8  43   8  44   8  45   8  46   8
M  END
>  <minimizedAffinity>  (1) 
-5.92084312

>  <minimizedRMSD>  (1) 
0.973551154

$$$$
