
     RDKit          3D

 37 39  0  0  1  0  0  0  0  0999 V2000
   37.4180   29.4780   39.1280 C   0  0  0  0  0  0  0  0  0  0  0  0
   38.7000   30.1280   39.3450 N   0  0  0  0  0  0  0  0  0  0  0  0
   39.8840   29.5980   39.5190 N   0  0  0  0  0  0  0  0  0  0  0  0
   40.8510   30.4820   39.6870 C   0  0  0  0  0  0  0  0  0  0  0  0
   40.2910   31.7330   39.6230 C   0  0  0  0  0  0  0  0  0  0  0  0
   38.9560   31.4400   39.4100 C   0  0  0  0  0  0  0  0  0  0  0  0
   40.9920   33.0000   39.7540 C   0  0  0  0  0  0  0  0  0  0  0  0
   41.7530   33.3380   40.8700 C   0  0  0  0  0  0  0  0  0  0  0  0
   42.2920   34.5950   40.7040 C   0  0  0  0  0  0  0  0  0  0  0  0
   41.8400   34.9660   39.5060 N   0  0  0  0  0  0  0  0  0  0  0  0
   41.0920   34.0550   38.9520 N   0  0  0  0  0  0  0  0  0  0  0  0
   37.9590   32.4950   39.2720 C   0  0  0  0  0  0  0  0  0  0  0  0
   37.4830   33.1900   40.2130 O   0  0  0  0  0  0  0  0  0  0  0  0
   37.3540   32.9190   38.0470 N   0  0  0  0  0  0  0  0  0  0  0  0
   36.4530   29.6920   40.3180 C   0  0  2  0  0  0  0  0  0  0  0  0
   38.0530   28.9690   43.5460 C   0  0  0  0  0  0  0  0  0  0  0  0
   37.7140   27.5850   43.7260 C   0  0  0  0  0  0  0  0  0  0  0  0
   36.9560   26.9390   42.7520 C   0  0  0  0  0  0  0  0  0  0  0  0
   36.5810   27.6970   41.6650 N   0  0  0  0  0  0  0  0  0  0  0  0
   36.9360   29.0220   41.5470 C   0  0  0  0  0  0  0  0  0  0  0  0
   37.6520   29.6690   42.4460 N   0  0  0  0  0  0  0  0  0  0  0  0
   35.0890   29.2670   39.9970 C   0  0  0  0  0  0  0  0  0  0  0  0
   36.9585   29.8928   38.2187 H   0  0  0  0  0  0  0  0  0  0  0  0
   37.5971   28.3976   39.0249 H   0  0  0  0  0  0  0  0  0  0  0  0
   41.9152   30.2557   39.8492 H   0  0  0  0  0  0  0  0  0  0  0  0
   41.9016   32.6975   41.7519 H   0  0  0  0  0  0  0  0  0  0  0  0
   42.9391   35.1569   41.3936 H   0  0  0  0  0  0  0  0  0  0  0  0
   42.0580   35.8721   39.0674 H   0  0  0  0  0  0  0  0  0  0  0  0
   36.6563   33.6767   38.0524 H   0  0  0  0  0  0  0  0  0  0  0  0
   37.6161   32.4666   37.1596 H   0  0  0  0  0  0  0  0  0  0  0  0
   36.4303   30.7744   40.5127 H   0  0  0  0  0  0  0  0  0  0  0  0
   38.6519   29.4780   44.3156 H   0  0  0  0  0  0  0  0  0  0  0  0
   38.0488   27.0418   44.6220 H   0  0  0  0  0  0  0  0  0  0  0  0
   36.6722   25.8804   42.8460 H   0  0  0  0  0  0  0  0  0  0  0  0
   34.5304   29.0929   40.9285 H   0  0  0  0  0  0  0  0  0  0  0  0
   34.5888   30.0519   39.4107 H   0  0  0  0  0  0  0  0  0  0  0  0
   35.1232   28.3369   39.4107 H   0  0  0  0  0  0  0  0  0  0  0  0
  1  2  1  0
  1 15  1  0
  2  6  1  0
  2  3  1  0
  3  4  2  0
  5  4  1  0
  5  7  1  0
  6  5  2  0
  7  8  1  0
  9  8  2  0
 10  9  1  0
 11 10  1  0
 11  7  2  0
 12  6  1  0
 12 13  2  0
 14 12  1  0
 15 20  1  0
 16 17  2  0
 18 17  1  0
 19 18  2  0
 20 19  1  0
 20 21  2  0
 21 16  1  0
 22 15  1  0
  1 23  1  0
  1 24  1  0
  4 25  1  0
  8 26  1  0
  9 27  1  0
 10 28  1  0
 14 29  1  0
 14 30  1  0
 15 31  1  1
 16 32  1  0
 17 33  1  0
 18 34  1  0
 22 35  1  0
 22 36  1  0
 22 37  1  0
M  ISO  8  23   8  24   8  25  14  26  14  27  14  28   9  31   8  32  14
M  ISO  5  33  14  34  14  35   8  36   8  37   8
M  END
>  <minimizedAffinity>  (1) 
-5.04044819

>  <minimizedRMSD>  (1) 
1.00529981

$$$$
