
     RDKit          3D

 37 39  0  0  1  0  0  0  0  0999 V2000
   37.2370   29.3170   39.0640 C   0  0  0  0  0  0  0  0  0  0  0  0
   38.5370   29.9460   39.2160 N   0  0  0  0  0  0  0  0  0  0  0  0
   39.7170   29.3980   39.3590 N   0  0  0  0  0  0  0  0  0  0  0  0
   40.7030   30.2680   39.4690 C   0  0  0  0  0  0  0  0  0  0  0  0
   40.1630   31.5270   39.3980 C   0  0  0  0  0  0  0  0  0  0  0  0
   38.8150   31.2530   39.2420 C   0  0  0  0  0  0  0  0  0  0  0  0
   40.8870   32.7910   39.4740 C   0  0  0  0  0  0  0  0  0  0  0  0
   41.3390   33.4830   38.3690 C   0  0  0  0  0  0  0  0  0  0  0  0
   41.9830   34.6360   38.7610 C   0  0  0  0  0  0  0  0  0  0  0  0
   41.8980   34.6030   40.1370 C   0  0  0  0  0  0  0  0  0  0  0  0
   41.2570   33.5190   40.4960 O   0  0  0  0  0  0  0  0  0  0  0  0
   37.8360   32.3270   39.1190 C   0  0  0  0  0  0  0  0  0  0  0  0
   37.3040   32.9540   40.0770 O   0  0  0  0  0  0  0  0  0  0  0  0
   37.3170   32.8440   37.8920 N   0  0  0  0  0  0  0  0  0  0  0  0
   36.3190   29.5780   40.2810 C   0  0  2  0  0  0  0  0  0  0  0  0
   37.9440   28.9710   43.5190 C   0  0  0  0  0  0  0  0  0  0  0  0
   37.7230   27.5600   43.6880 C   0  0  0  0  0  0  0  0  0  0  0  0
   37.0320   26.8580   42.7020 C   0  0  0  0  0  0  0  0  0  0  0  0
   36.6060   27.5900   41.6170 N   0  0  0  0  0  0  0  0  0  0  0  0
   36.8470   28.9390   41.5120 C   0  0  0  0  0  0  0  0  0  0  0  0
   37.4950   29.6380   42.4200 N   0  0  0  0  0  0  0  0  0  0  0  0
   34.9460   29.1450   40.0200 C   0  0  0  0  0  0  0  0  0  0  0  0
   36.7523   29.7178   38.1616 H   0  0  0  0  0  0  0  0  0  0  0  0
   37.3932   28.2311   38.9840 H   0  0  0  0  0  0  0  0  0  0  0  0
   41.7687   30.0265   39.5952 H   0  0  0  0  0  0  0  0  0  0  0  0
   41.2045   33.1606   37.3259 H   0  0  0  0  0  0  0  0  0  0  0  0
   42.4536   35.4016   38.1267 H   0  0  0  0  0  0  0  0  0  0  0  0
   42.3026   35.3632   40.8214 H   0  0  0  0  0  0  0  0  0  0  0  0
   36.6255   33.6072   37.9063 H   0  0  0  0  0  0  0  0  0  0  0  0
   37.6345   32.4534   36.9933 H   0  0  0  0  0  0  0  0  0  0  0  0
   36.3057   30.6655   40.4460 H   0  0  0  0  0  0  0  0  0  0  0  0
   38.4894   29.5253   44.2970 H   0  0  0  0  0  0  0  0  0  0  0  0
   38.0946   27.0414   44.5841 H   0  0  0  0  0  0  0  0  0  0  0  0
   36.8378   25.7786   42.7863 H   0  0  0  0  0  0  0  0  0  0  0  0
   34.4255   28.9808   40.9751 H   0  0  0  0  0  0  0  0  0  0  0  0
   34.4200   29.9209   39.4444 H   0  0  0  0  0  0  0  0  0  0  0  0
   34.9603   28.2077   39.4444 H   0  0  0  0  0  0  0  0  0  0  0  0
  1  2  1  0
  1 15  1  0
  2  6  1  0
  2  3  1  0
  3  4  2  0
  5  4  1  0
  5  7  1  0
  6  5  2  0
  7 11  1  0
  8  9  1  0
  8  7  2  0
  9 10  2  0
 10 11  1  0
 12  6  1  0
 12 13  2  0
 14 12  1  0
 15 20  1  0
 16 17  2  0
 18 17  1  0
 19 18  2  0
 20 19  1  0
 20 21  2  0
 21 16  1  0
 22 15  1  0
  1 23  1  0
  1 24  1  0
  4 25  1  0
  8 26  1  0
  9 27  1  0
 10 28  1  0
 14 29  1  0
 14 30  1  0
 15 31  1  1
 16 32  1  0
 17 33  1  0
 18 34  1  0
 22 35  1  0
 22 36  1  0
 22 37  1  0
M  ISO  8  23   8  24   8  25  14  26  14  27  14  28  14  31   8  32  14
M  ISO  5  33  14  34  14  35   8  36   8  37   8
M  END
>  <minimizedAffinity>  (1) 
-4.975492

>  <minimizedRMSD>  (1) 
1.10748446

$$$$
