
     RDKit          3D

 37 39  0  0  1  0  0  0  0  0999 V2000
   36.9520   30.1530   39.2540 C   0  0  0  0  0  0  0  0  0  0  0  0
   38.3450   30.4230   39.5570 N   0  0  0  0  0  0  0  0  0  0  0  0
   39.3730   29.6260   39.5360 N   0  0  0  0  0  0  0  0  0  0  0  0
   40.5160   30.1950   39.8640 C   0  0  0  0  0  0  0  0  0  0  0  0
   40.2450   31.5080   40.1360 C   0  0  0  0  0  0  0  0  0  0  0  0
   38.8860   31.6060   39.9330 C   0  0  0  0  0  0  0  0  0  0  0  0
   38.1580   32.8440   40.1090 C   0  0  0  0  0  0  0  0  0  0  0  0
   38.4380   33.7410   40.9370 O   0  0  0  0  0  0  0  0  0  0  0  0
   37.0040   33.2490   39.3720 N   0  0  0  0  0  0  0  0  0  0  0  0
   41.2660   32.4790   40.5340 C   0  0  0  0  0  0  0  0  0  0  0  0
   42.1910   32.2640   41.5370 C   0  0  0  0  0  0  0  0  0  0  0  0
   43.0580   33.2650   41.7720 C   0  0  0  0  0  0  0  0  0  0  0  0
   43.0430   34.4280   41.0750 C   0  0  0  0  0  0  0  0  0  0  0  0
   41.6490   34.1240   39.9320 S   0  0  0  0  0  0  0  0  0  0  0  0
   36.1230   29.8910   40.5340 C   0  0  2  0  0  0  0  0  0  0  0  0
   38.1250   28.6860   43.3700 C   0  0  0  0  0  0  0  0  0  0  0  0
   38.1200   27.2530   43.1250 C   0  0  0  0  0  0  0  0  0  0  0  0
   37.4400   26.7550   42.0110 C   0  0  0  0  0  0  0  0  0  0  0  0
   36.8080   27.6840   41.2080 N   0  0  0  0  0  0  0  0  0  0  0  0
   36.8530   29.0380   41.5020 C   0  0  0  0  0  0  0  0  0  0  0  0
   37.4800   29.5490   42.5380 N   0  0  0  0  0  0  0  0  0  0  0  0
   34.8030   29.3290   40.2400 C   0  0  0  0  0  0  0  0  0  0  0  0
   36.5281   31.0206   38.7272 H   0  0  0  0  0  0  0  0  0  0  0  0
   36.9083   29.2490   38.6287 H   0  0  0  0  0  0  0  0  0  0  0  0
   41.5006   29.7068   39.9102 H   0  0  0  0  0  0  0  0  0  0  0  0
   36.5557   34.1542   39.5736 H   0  0  0  0  0  0  0  0  0  0  0  0
   36.6199   32.6360   38.6388 H   0  0  0  0  0  0  0  0  0  0  0  0
   42.2171   31.3263   42.1116 H   0  0  0  0  0  0  0  0  0  0  0  0
   43.8111   33.1347   42.5631 H   0  0  0  0  0  0  0  0  0  0  0  0
   43.6913   35.3114   41.1709 H   0  0  0  0  0  0  0  0  0  0  0  0
   35.9651   30.8744   41.0009 H   0  0  0  0  0  0  0  0  0  0  0  0
   38.6610   29.0810   44.2456 H   0  0  0  0  0  0  0  0  0  0  0  0
   38.6451   26.5694   43.8083 H   0  0  0  0  0  0  0  0  0  0  0  0
   37.4095   25.6789   41.7851 H   0  0  0  0  0  0  0  0  0  0  0  0
   34.2809   29.1067   41.1824 H   0  0  0  0  0  0  0  0  0  0  0  0
   34.2165   30.0554   39.6584 H   0  0  0  0  0  0  0  0  0  0  0  0
   34.9201   28.4027   39.6584 H   0  0  0  0  0  0  0  0  0  0  0  0
  1  2  1  0
  1 15  1  0
  2  6  1  0
  3  2  1  0
  3  4  2  0
  4  5  1  0
  5 10  1  0
  6  7  1  0
  6  5  2  0
  7  8  2  0
  9  7  1  0
 10 11  2  0
 11 12  1  0
 13 12  2  0
 14 10  1  0
 14 13  1  0
 15 20  1  0
 17 16  2  0
 18 17  1  0
 19 20  1  0
 19 18  2  0
 20 21  2  0
 21 16  1  0
 22 15  1  0
  1 23  1  0
  1 24  1  0
  4 25  1  0
  9 26  1  0
  9 27  1  0
 11 28  1  0
 12 29  1  0
 13 30  1  0
 15 31  1  1
 16 32  1  0
 17 33  1  0
 18 34  1  0
 22 35  1  0
 22 36  1  0
 22 37  1  0
M  ISO  8  23   8  24   8  25  14  28  14  29  14  30  14  31   8  32  14
M  ISO  5  33  14  34  14  35   8  36   8  37   8
M  END
>  <minimizedAffinity>  (1) 
-4.97315645

>  <minimizedRMSD>  (1) 
0.10978622

$$$$
