
     RDKit          3D

 43 47  0  0  1  0  0  0  0  0999 V2000
   38.2130   30.6140   39.5170 C   0  0  1  0  0  0  0  0  0  0  0  0
   37.6510   30.7290   38.0750 C   0  0  0  0  0  0  0  0  0  0  0  0
   36.2280   30.2210   38.2920 C   0  0  0  0  0  0  0  0  0  0  0  0
   36.2490   29.3960   39.5560 C   0  0  0  0  0  0  0  0  0  0  0  0
   37.7170   29.2720   39.9000 C   0  0  2  0  0  0  0  0  0  0  0  0
   40.8290   35.3890   39.7250 C   0  0  0  0  0  0  0  0  0  0  0  0
   39.5470   35.8710   40.0530 C   0  0  0  0  0  0  0  0  0  0  0  0
   38.5460   34.9430   40.2500 C   0  0  0  0  0  0  0  0  0  0  0  0
   38.8590   33.6270   40.1150 N   0  0  0  0  0  0  0  0  0  0  0  0
   40.0520   33.1730   39.8090 C   0  0  0  0  0  0  0  0  0  0  0  0
   41.0610   34.0680   39.6090 N   0  0  0  0  0  0  0  0  0  0  0  0
   40.4270   31.8120   39.6460 N   0  0  0  0  0  0  0  0  0  0  0  0
   41.7230   31.5340   39.6080 N   0  0  0  0  0  0  0  0  0  0  0  0
   41.8690   30.1880   39.4320 C   0  0  0  0  0  0  0  0  0  0  0  0
   40.5700   29.6620   39.3650 C   0  0  0  0  0  0  0  0  0  0  0  0
   39.6710   30.7280   39.5060 C   0  0  0  0  0  0  0  0  0  0  0  0
   37.8080   28.9720   41.3050 N   0  0  0  0  0  0  0  0  0  0  0  0
   37.7710   29.7830   42.3310 N   0  0  0  0  0  0  0  0  0  0  0  0
   37.8890   29.1170   43.4980 C   0  0  0  0  0  0  0  0  0  0  0  0
   38.0110   27.7820   43.1530 C   0  0  0  0  0  0  0  0  0  0  0  0
   37.9590   27.7060   41.7880 C   0  0  0  0  0  0  0  0  0  0  0  0
   38.0460   26.5150   40.9900 N   0  0  0  0  0  0  0  0  0  0  0  0
   39.2840   26.0200   40.6940 C   0  0  0  0  0  0  0  0  0  0  0  0
   39.1720   24.9090   39.9430 N   0  0  0  0  0  0  0  0  0  0  0  0
   37.8310   24.7390   39.7880 C   0  0  0  0  0  0  0  0  0  0  0  0
   37.1390   25.7220   40.4290 N   0  0  0  0  0  0  0  0  0  0  0  0
   37.9010   31.3983   40.2223 H   0  0  0  0  0  0  0  0  0  0  0  0
   38.2066   30.0929   37.3703 H   0  0  0  0  0  0  0  0  0  0  0  0
   37.7173   31.7351   37.6352 H   0  0  0  0  0  0  0  0  0  0  0  0
   35.5360   31.0687   38.4042 H   0  0  0  0  0  0  0  0  0  0  0  0
   35.8870   29.6221   37.4347 H   0  0  0  0  0  0  0  0  0  0  0  0
   35.7019   29.9058   40.3627 H   0  0  0  0  0  0  0  0  0  0  0  0
   35.7647   28.4170   39.4258 H   0  0  0  0  0  0  0  0  0  0  0  0
   38.2976   28.4810   39.4028 H   0  0  0  0  0  0  0  0  0  0  0  0
   41.6513   36.1011   39.5615 H   0  0  0  0  0  0  0  0  0  0  0  0
   39.3511   36.9492   40.1486 H   0  0  0  0  0  0  0  0  0  0  0  0
   37.5244   35.2584   40.5087 H   0  0  0  0  0  0  0  0  0  0  0  0
   42.8136   29.6292   39.3578 H   0  0  0  0  0  0  0  0  0  0  0  0
   40.3048   28.6034   39.2267 H   0  0  0  0  0  0  0  0  0  0  0  0
   37.8884   29.5450   44.5113 H   0  0  0  0  0  0  0  0  0  0  0  0
   38.1282   26.9377   43.8483 H   0  0  0  0  0  0  0  0  0  0  0  0
   40.2350   26.4650   41.0220 H   0  0  0  0  0  0  0  0  0  0  0  0
   37.3677   23.9180   39.2212 H   0  0  0  0  0  0  0  0  0  0  0  0
  1  5  1  0
  2  3  1  0
  2  1  1  0
  3  4  1  0
  4  5  1  0
  5 17  1  0
  6  7  2  0
  7  8  1  0
  9  8  2  0
 10  9  1  0
 11  6  1  0
 11 10  2  0
 12 10  1  0
 13 12  1  0
 14 13  2  0
 15 14  1  0
 15 16  2  0
 16  1  1  0
 16 12  1  0
 17 21  1  0
 17 18  1  0
 18 19  2  0
 20 19  1  0
 21 20  2  0
 22 21  1  0
 23 22  1  0
 24 23  2  0
 25 24  1  0
 25 26  2  0
 26 22  1  0
  1 27  1  1
  2 28  1  0
  2 29  1  0
  3 30  1  0
  3 31  1  0
  4 32  1  0
  4 33  1  0
  5 34  1  6
  6 35  1  0
  7 36  1  0
  8 37  1  0
 14 38  1  0
 15 39  1  0
 19 40  1  0
 20 41  1  0
 23 42  1  0
 25 43  1  0
M  ISO  8  27  13  28  13  29  13  30  13  31  13  32  13  33  13  34  13
M  ISO  8  35  14  36  14  37  14  38  14  39  14  40  14  41  14  42  14
M  ISO  1  43  14
M  END
>  <minimizedAffinity>  (1) 
-5.90369654

>  <minimizedRMSD>  (1) 
0.695608735

$$$$
