
     RDKit          3D

 42 43  0  0  1  0  0  0  0  0999 V2000
   37.0130   29.2740   39.0070 C   0  0  0  0  0  0  0  0  0  0  0  0
   38.3840   29.7300   39.1400 N   0  0  0  0  0  0  0  0  0  0  0  0
   39.4950   29.0200   39.1940 N   0  0  0  0  0  0  0  0  0  0  0  0
   40.5820   29.7650   39.3130 C   0  0  0  0  0  0  0  0  0  0  0  0
   40.1930   31.0860   39.3430 C   0  0  0  0  0  0  0  0  0  0  0  0
   38.8210   30.9980   39.2340 C   0  0  0  0  0  0  0  0  0  0  0  0
   37.9880   32.1720   39.2270 C   0  0  0  0  0  0  0  0  0  0  0  0
   37.5760   32.8020   40.2440 O   0  0  0  0  0  0  0  0  0  0  0  0
   37.4790   32.8310   38.0570 N   0  0  0  0  0  0  0  0  0  0  0  0
   41.1610   32.2030   39.4730 C   0  0  0  0  0  0  0  0  0  0  0  0
   40.8940   33.0410   40.7080 C   0  0  0  0  0  0  0  0  0  0  0  0
   42.6030   31.7490   39.5090 C   0  0  0  0  0  0  0  0  0  0  0  0
   41.0550   33.1770   38.3170 C   0  0  0  0  0  0  0  0  0  0  0  0
   36.1840   29.5540   40.2830 C   0  0  2  0  0  0  0  0  0  0  0  0
   37.9380   28.9620   43.4540 C   0  0  0  0  0  0  0  0  0  0  0  0
   37.8150   27.5280   43.5900 C   0  0  0  0  0  0  0  0  0  0  0  0
   37.1410   26.8210   42.5960 C   0  0  0  0  0  0  0  0  0  0  0  0
   36.6290   27.5450   41.5370 N   0  0  0  0  0  0  0  0  0  0  0  0
   36.7890   28.9160   41.4780 C   0  0  0  0  0  0  0  0  0  0  0  0
   37.4170   29.6290   42.3910 N   0  0  0  0  0  0  0  0  0  0  0  0
   34.7840   29.1660   40.1340 C   0  0  0  0  0  0  0  0  0  0  0  0
   36.5459   29.7951   38.1583 H   0  0  0  0  0  0  0  0  0  0  0  0
   37.0304   28.1862   38.8444 H   0  0  0  0  0  0  0  0  0  0  0  0
   41.6157   29.3942   39.3768 H   0  0  0  0  0  0  0  0  0  0  0  0
   36.8880   33.6690   38.1540 H   0  0  0  0  0  0  0  0  0  0  0  0
   37.7049   32.4657   37.1208 H   0  0  0  0  0  0  0  0  0  0  0  0
   41.0859   32.4388   41.6083 H   0  0  0  0  0  0  0  0  0  0  0  0
   41.5570   33.9188   40.7059 H   0  0  0  0  0  0  0  0  0  0  0  0
   39.8454   33.3735   40.7059 H   0  0  0  0  0  0  0  0  0  0  0  0
   42.9291   31.6463   40.5545 H   0  0  0  0  0  0  0  0  0  0  0  0
   42.6947   30.7785   38.9993 H   0  0  0  0  0  0  0  0  0  0  0  0
   43.2341   32.4919   38.9993 H   0  0  0  0  0  0  0  0  0  0  0  0
   40.9438   34.1992   38.7078 H   0  0  0  0  0  0  0  0  0  0  0  0
   41.9650   33.1166   37.7020 H   0  0  0  0  0  0  0  0  0  0  0  0
   40.1793   32.9223   37.7020 H   0  0  0  0  0  0  0  0  0  0  0  0
   36.2027   30.6435   40.4337 H   0  0  0  0  0  0  0  0  0  0  0  0
   38.4684   29.5292   44.2331 H   0  0  0  0  0  0  0  0  0  0  0  0
   38.2438   27.0067   44.4585 H   0  0  0  0  0  0  0  0  0  0  0  0
   37.0214   25.7290   42.6526 H   0  0  0  0  0  0  0  0  0  0  0  0
   34.3305   29.0403   41.1283 H   0  0  0  0  0  0  0  0  0  0  0  0
   34.2436   29.9482   39.5808 H   0  0  0  0  0  0  0  0  0  0  0  0
   34.7234   28.2172   39.5808 H   0  0  0  0  0  0  0  0  0  0  0  0
  1  2  1  0
  1 14  1  0
  2  3  1  0
  2  6  1  0
  3  4  2  0
  4  5  1  0
  5 10  1  0
  6  5  2  0
  7  6  1  0
  7  8  2  0
  9  7  1  0
 10 12  1  0
 10 11  1  0
 13 10  1  0
 14 19  1  0
 15 16  2  0
 17 16  1  0
 18 17  2  0
 19 18  1  0
 19 20  2  0
 20 15  1  0
 21 14  1  0
  1 22  1  0
  1 23  1  0
  4 24  1  0
  9 25  1  0
  9 26  1  0
 11 27  1  0
 11 28  1  0
 11 29  1  0
 12 30  1  0
 12 31  1  0
 12 32  1  0
 13 33  1  0
 13 34  1  0
 13 35  1  0
 14 36  1  1
 15 37  1  0
 16 38  1  0
 17 39  1  0
 21 40  1  0
 21 41  1  0
 21 42  1  0
M  ISO  8  22   8  23   8  24  14  27   8  28   8  29   8  30   8  31   8
M  ISO  8  32   8  33   8  34   8  35   8  36   8  37  14  38  14  39  14
M  ISO  3  40   8  41   8  42   8
M  END
>  <minimizedAffinity>  (1) 
-4.63838863

>  <minimizedRMSD>  (1) 
0.963801086

$$$$
