
     RDKit          3D

 32 33  0  0  1  0  0  0  0  0999 V2000
   36.9360   30.1320   39.2620 C   0  0  0  0  0  0  0  0  0  0  0  0
   38.3220   30.3960   39.5940 N   0  0  0  0  0  0  0  0  0  0  0  0
   39.3600   29.5930   39.5990 N   0  0  0  0  0  0  0  0  0  0  0  0
   40.5000   30.1820   39.9650 C   0  0  0  0  0  0  0  0  0  0  0  0
   40.2100   31.4800   40.2270 C   0  0  0  0  0  0  0  0  0  0  0  0
   38.8410   31.5690   39.9820 C   0  0  0  0  0  0  0  0  0  0  0  0
   38.1370   32.8130   40.1470 C   0  0  0  0  0  0  0  0  0  0  0  0
   38.4350   33.7280   40.9640 O   0  0  0  0  0  0  0  0  0  0  0  0
   36.9810   33.2090   39.4030 N   0  0  0  0  0  0  0  0  0  0  0  0
   41.0920   32.5120   40.6510 N   0  0  0  0  0  0  0  0  0  0  0  0
   36.0770   29.8690   40.5240 C   0  0  2  0  0  0  0  0  0  0  0  0
   37.9980   28.6780   43.4130 C   0  0  0  0  0  0  0  0  0  0  0  0
   38.0230   27.2590   43.1760 C   0  0  0  0  0  0  0  0  0  0  0  0
   37.3810   26.7590   42.0390 C   0  0  0  0  0  0  0  0  0  0  0  0
   36.7690   27.6750   41.2240 N   0  0  0  0  0  0  0  0  0  0  0  0
   36.7810   29.0190   41.5070 C   0  0  0  0  0  0  0  0  0  0  0  0
   37.3720   29.5330   42.5660 N   0  0  0  0  0  0  0  0  0  0  0  0
   34.7710   29.3140   40.1800 C   0  0  0  0  0  0  0  0  0  0  0  0
   36.5265   31.0026   38.7288 H   0  0  0  0  0  0  0  0  0  0  0  0
   36.9030   29.2293   38.6343 H   0  0  0  0  0  0  0  0  0  0  0  0
   41.4882   29.7046   40.0399 H   0  0  0  0  0  0  0  0  0  0  0  0
   36.5380   34.1206   39.5862 H   0  0  0  0  0  0  0  0  0  0  0  0
   36.5917   32.5825   38.6841 H   0  0  0  0  0  0  0  0  0  0  0  0
   40.7314   33.4629   40.8142 H   0  0  0  0  0  0  0  0  0  0  0  0
   42.0914   32.3085   40.7949 H   0  0  0  0  0  0  0  0  0  0  0  0
   35.9075   30.8448   41.0025 H   0  0  0  0  0  0  0  0  0  0  0  0
   38.5001   29.0804   44.3052 H   0  0  0  0  0  0  0  0  0  0  0  0
   38.5363   26.5819   43.8746 H   0  0  0  0  0  0  0  0  0  0  0  0
   37.3678   25.6832   41.8100 H   0  0  0  0  0  0  0  0  0  0  0  0
   34.2182   29.0791   41.1015 H   0  0  0  0  0  0  0  0  0  0  0  0
   34.2042   30.0490   39.5897 H   0  0  0  0  0  0  0  0  0  0  0  0
   34.9067   28.3958   39.5897 H   0  0  0  0  0  0  0  0  0  0  0  0
  1  2  1  0
  1 11  1  0
  2  3  1  0
  2  6  1  0
  3  4  2  0
  4  5  1  0
  5 10  1  0
  6  7  1  0
  6  5  2  0
  7  8  2  0
  9  7  1  0
 11 16  1  0
 13 12  2  0
 14 13  1  0
 15 16  1  0
 15 14  2  0
 16 17  2  0
 17 12  1  0
 18 11  1  0
  1 19  1  0
  1 20  1  0
  4 21  1  0
  9 22  1  0
  9 23  1  0
 10 24  1  0
 10 25  1  0
 11 26  1  1
 12 27  1  0
 13 28  1  0
 14 29  1  0
 18 30  1  0
 18 31  1  0
 18 32  1  0
M  ISO  8  19   8  20   8  21  14  26   8  27  14  28  14  29  14  30   8
M  ISO  2  31   8  32   8
M  END
>  <minimizedAffinity>  (1) 
-4.44758224

>  <minimizedRMSD>  (1) 
0.0180903077

$$$$
