
     RDKit          3D

 44 48  0  0  1  0  0  0  0  0999 V2000
   38.0590   30.3470   39.5880 C   0  0  1  0  0  0  0  0  0  0  0  0
   37.4600   30.4460   38.1600 C   0  0  0  0  0  0  0  0  0  0  0  0
   36.0440   29.9400   38.4190 C   0  0  0  0  0  0  0  0  0  0  0  0
   36.0980   29.1270   39.6930 C   0  0  0  0  0  0  0  0  0  0  0  0
   37.5740   29.0060   39.9990 C   0  0  2  0  0  0  0  0  0  0  0  0
   40.6890   35.1150   39.6990 C   0  0  0  0  0  0  0  0  0  0  0  0
   39.4180   35.6020   40.0780 C   0  0  0  0  0  0  0  0  0  0  0  0
   38.4280   34.6700   40.3150 C   0  0  0  0  0  0  0  0  0  0  0  0
   38.7360   33.3620   40.1680 N   0  0  0  0  0  0  0  0  0  0  0  0
   39.9130   32.8990   39.8170 C   0  0  0  0  0  0  0  0  0  0  0  0
   40.9110   33.7950   39.5770 N   0  0  0  0  0  0  0  0  0  0  0  0
   40.2780   31.5360   39.6450 N   0  0  0  0  0  0  0  0  0  0  0  0
   41.5730   31.2620   39.5690 N   0  0  0  0  0  0  0  0  0  0  0  0
   41.7130   29.9090   39.3920 C   0  0  0  0  0  0  0  0  0  0  0  0
   40.4110   29.3900   39.3660 C   0  0  0  0  0  0  0  0  0  0  0  0
   39.5180   30.4570   39.5310 C   0  0  0  0  0  0  0  0  0  0  0  0
   37.7110   28.7170   41.3990 N   0  0  0  0  0  0  0  0  0  0  0  0
   37.5690   29.5300   42.4300 N   0  0  0  0  0  0  0  0  0  0  0  0
   37.7740   28.8980   43.6010 C   0  0  0  0  0  0  0  0  0  0  0  0
   38.0650   27.5890   43.2580 C   0  0  0  0  0  0  0  0  0  0  0  0
   38.0220   27.4920   41.8910 C   0  0  0  0  0  0  0  0  0  0  0  0
   38.2860   26.2190   41.1430 C   0  0  0  0  0  0  0  0  0  0  0  0
   37.0030   25.4400   40.8120 C   0  0  0  0  0  0  0  0  0  0  0  0
   38.0310   24.9160   41.7880 C   0  0  0  0  0  0  0  0  0  0  0  0
   37.7656   31.1381   40.2938 H   0  0  0  0  0  0  0  0  0  0  0  0
   37.9977   29.8025   37.4482 H   0  0  0  0  0  0  0  0  0  0  0  0
   37.5143   31.4472   37.7077 H   0  0  0  0  0  0  0  0  0  0  0  0
   35.3546   30.7886   38.5400 H   0  0  0  0  0  0  0  0  0  0  0  0
   35.6815   29.3318   37.5772 H   0  0  0  0  0  0  0  0  0  0  0  0
   35.5726   29.6457   40.5084 H   0  0  0  0  0  0  0  0  0  0  0  0
   35.6100   28.1470   39.5863 H   0  0  0  0  0  0  0  0  0  0  0  0
   38.1386   28.2085   39.4938 H   0  0  0  0  0  0  0  0  0  0  0  0
   41.5062   35.8243   39.5015 H   0  0  0  0  0  0  0  0  0  0  0  0
   39.2253   36.6802   40.1800 H   0  0  0  0  0  0  0  0  0  0  0  0
   37.4170   34.9827   40.6150 H   0  0  0  0  0  0  0  0  0  0  0  0
   42.6532   29.3470   39.2912 H   0  0  0  0  0  0  0  0  0  0  0  0
   40.1386   28.3319   39.2386 H   0  0  0  0  0  0  0  0  0  0  0  0
   37.7216   29.3288   44.6118 H   0  0  0  0  0  0  0  0  0  0  0  0
   38.2908   26.7712   43.9582 H   0  0  0  0  0  0  0  0  0  0  0  0
   39.1613   26.6190   40.6103 H   0  0  0  0  0  0  0  0  0  0  0  0
   36.0271   25.7981   41.1717 H   0  0  0  0  0  0  0  0  0  0  0  0
   36.5197   25.0662   39.8973 H   0  0  0  0  0  0  0  0  0  0  0  0
   38.6450   24.0446   41.5167 H   0  0  0  0  0  0  0  0  0  0  0  0
   37.9911   24.5725   42.8322 H   0  0  0  0  0  0  0  0  0  0  0  0
  1  5  1  0
  2  3  1  0
  2  1  1  0
  3  4  1  0
  4  5  1  0
  5 17  1  0
  6  7  2  0
  7  8  1  0
  9  8  2  0
 10  9  1  0
 11  6  1  0
 11 10  2  0
 12 10  1  0
 13 12  1  0
 14 13  2  0
 15 14  1  0
 15 16  2  0
 16  1  1  0
 16 12  1  0
 17 21  1  0
 17 18  1  0
 18 19  2  0
 20 19  1  0
 21 20  2  0
 22 24  1  0
 22 21  1  0
 23 22  1  0
 23 24  1  0
  1 25  1  1
  2 26  1  0
  2 27  1  0
  3 28  1  0
  3 29  1  0
  4 30  1  0
  4 31  1  0
  5 32  1  6
  6 33  1  0
  7 34  1  0
  8 35  1  0
 14 36  1  0
 15 37  1  0
 19 38  1  0
 20 39  1  0
 22 40  1  0
 23 41  1  0
 23 42  1  0
 24 43  1  0
 24 44  1  0
M  ISO  8  25  13  26  13  27  13  28  13  29  13  30  13  31  13  32  13
M  ISO  8  33  14  34  14  35  14  36  14  37  14  38  14  39  14  40  13
M  ISO  4  41  13  42  13  43  13  44  13
M  END
>  <minimizedAffinity>  (1) 
-5.8466692

>  <minimizedRMSD>  (1) 
0.726762295

$$$$
