
     RDKit          3D

 43 45  0  0  1  0  0  0  0  0999 V2000
   40.5800   31.4630   40.5920 C   0  0  1  0  0  0  0  0  0  0  0  0
   44.2280   31.9070   40.3690 C   0  0  0  0  0  0  0  0  0  0  0  0
   44.5350   32.3560   41.7010 C   0  0  0  0  0  0  0  0  0  0  0  0
   43.4860   32.4900   42.6180 C   0  0  0  0  0  0  0  0  0  0  0  0
   42.2390   32.1790   42.1660 N   0  0  0  0  0  0  0  0  0  0  0  0
   42.0010   31.7560   40.8880 C   0  0  0  0  0  0  0  0  0  0  0  0
   42.9680   31.6160   39.9900 N   0  0  0  0  0  0  0  0  0  0  0  0
   39.7070   31.5190   41.8560 C   0  0  0  0  0  0  0  0  0  0  0  0
   39.1200   30.2200   42.1810 N   0  0  0  0  0  0  0  0  0  0  0  0
   39.5840   29.2720   42.9570 N   0  0  0  0  0  0  0  0  0  0  0  0
   38.7870   28.2060   43.0390 C   0  0  0  0  0  0  0  0  0  0  0  0
   37.7080   28.4600   42.2570 C   0  0  0  0  0  0  0  0  0  0  0  0
   37.9640   29.7340   41.7410 C   0  0  0  0  0  0  0  0  0  0  0  0
   37.0370   30.3590   40.8550 C   0  0  0  0  0  0  0  0  0  0  0  0
   37.0840   30.3480   39.6000 O   0  0  0  0  0  0  0  0  0  0  0  0
   35.8800   31.1140   41.2720 N   0  0  0  0  0  0  0  0  0  0  0  0
   36.5570   27.6060   42.0140 C   0  0  0  0  0  0  0  0  0  0  0  0
   36.5730   26.8490   40.9870 O   0  0  0  0  0  0  0  0  0  0  0  0
   40.0780   32.2690   39.5010 C   0  0  0  0  0  0  0  0  0  0  0  0
   39.9290   33.6670   39.7030 N   0  0  0  0  0  0  0  0  0  0  0  0
   40.9180   34.5880   39.6210 C   0  0  0  0  0  0  0  0  0  0  0  0
   40.7980   35.9480   39.7690 C   0  0  0  0  0  0  0  0  0  0  0  0
   39.5620   36.4820   40.0270 C   0  0  0  0  0  0  0  0  0  0  0  0
   39.4000   37.8810   40.1860 N   0  0  0  0  0  0  0  0  0  0  0  0
   38.5370   35.5970   40.1170 N   0  0  0  0  0  0  0  0  0  0  0  0
   38.7470   34.2730   39.9580 C   0  0  0  0  0  0  0  0  0  0  0  0
   37.6750   33.6600   40.0770 O   0  0  0  0  0  0  0  0  0  0  0  0
   40.5213   30.4225   40.2399 H   0  0  0  0  0  0  0  0  0  0  0  0
   45.0444   31.7983   39.6398 H   0  0  0  0  0  0  0  0  0  0  0  0
   45.5700   32.5886   41.9920 H   0  0  0  0  0  0  0  0  0  0  0  0
   43.6595   32.8288   43.6500 H   0  0  0  0  0  0  0  0  0  0  0  0
   40.3289   31.8480   42.7015 H   0  0  0  0  0  0  0  0  0  0  0  0
   38.8835   32.2232   41.6662 H   0  0  0  0  0  0  0  0  0  0  0  0
   38.9696   27.2951   43.6280 H   0  0  0  0  0  0  0  0  0  0  0  0
   35.2583   31.5350   40.5669 H   0  0  0  0  0  0  0  0  0  0  0  0
   35.6759   31.2319   42.2747 H   0  0  0  0  0  0  0  0  0  0  0  0
   35.6951   27.6122   42.6974 H   0  0  0  0  0  0  0  0  0  0  0  0
   39.0875   31.8723   39.2334 H   0  0  0  0  0  0  0  0  0  0  0  0
   40.8568   32.1905   38.7281 H   0  0  0  0  0  0  0  0  0  0  0  0
   41.9280   34.2051   39.4131 H   0  0  0  0  0  0  0  0  0  0  0  0
   41.6803   36.5991   39.6818 H   0  0  0  0  0  0  0  0  0  0  0  0
   38.4673   38.2727   40.3796 H   0  0  0  0  0  0  0  0  0  0  0  0
   40.2150   38.5060   40.1079 H   0  0  0  0  0  0  0  0  0  0  0  0
  1  6  1  0
  1  8  1  0
  2  3  2  0
  3  4  1  0
  5  4  2  0
  6  5  1  0
  7  2  1  0
  7  6  2  0
  8  9  1  0
  9 10  1  0
 10 11  2  0
 12 11  1  0
 13  9  1  0
 13 12  2  0
 14 16  1  0
 14 13  1  0
 15 14  2  0
 17 12  1  0
 18 17  2  0
 19 20  1  0
 19  1  1  0
 20 26  1  0
 21 20  1  0
 21 22  2  0
 22 23  1  0
 23 25  2  0
 23 24  1  0
 26 27  2  0
 26 25  1  0
  1 28  1  6
  2 29  1  0
  3 30  1  0
  4 31  1  0
  8 32  1  0
  8 33  1  0
 11 34  1  0
 16 35  1  0
 16 36  1  0
 17 37  1  0
 19 38  1  0
 19 39  1  0
 21 40  1  0
 22 41  1  0
 24 42  1  0
 24 43  1  0
M  ISO  8  28   8  29  14  30  14  31  14  32   8  33   8  34  14  37   6
M  ISO  4  38   8  39   8  40  14  41  14
M  END
>  <minimizedAffinity>  (1) 
-5.69074965

>  <minimizedRMSD>  (1) 
7.64588308

$$$$
