
     RDKit          3D

 46 49  0  0  1  0  0  0  0  0999 V2000
   36.8760   29.3250   40.0450 C   0  0  1  0  0  0  0  0  0  0  0  0
   37.7550   29.0750   43.6160 C   0  0  0  0  0  0  0  0  0  0  0  0
   37.3580   27.7220   43.9100 C   0  0  0  0  0  0  0  0  0  0  0  0
   36.8130   26.9530   42.8940 C   0  0  0  0  0  0  0  0  0  0  0  0
   36.6840   27.5430   41.6540 N   0  0  0  0  0  0  0  0  0  0  0  0
   37.0810   28.8400   41.4310 C   0  0  0  0  0  0  0  0  0  0  0  0
   37.6070   29.6080   42.3760 N   0  0  0  0  0  0  0  0  0  0  0  0
   38.1000   29.0680   39.1630 C   0  0  0  0  0  0  0  0  0  0  0  0
   39.1390   30.0620   39.3640 N   0  0  0  0  0  0  0  0  0  0  0  0
   40.2660   29.9690   40.0400 N   0  0  0  0  0  0  0  0  0  0  0  0
   41.0050   31.0810   40.0310 C   0  0  0  0  0  0  0  0  0  0  0  0
   40.3210   31.9930   39.2890 C   0  0  0  0  0  0  0  0  0  0  0  0
   39.1600   31.3150   38.8910 C   0  0  0  0  0  0  0  0  0  0  0  0
   38.1710   31.9530   38.0850 C   0  0  0  0  0  0  0  0  0  0  0  0
   37.1210   32.5140   38.4920 O   0  0  0  0  0  0  0  0  0  0  0  0
   38.2370   32.0480   36.6490 N   0  0  0  0  0  0  0  0  0  0  0  0
   40.6970   33.3530   38.9750 C   0  0  0  0  0  0  0  0  0  0  0  0
   40.1980   34.3010   39.6850 O   0  0  0  0  0  0  0  0  0  0  0  0
   35.6450   28.7800   39.4910 C   0  0  0  0  0  0  0  0  0  0  0  0
   35.7140   28.4590   38.0590 C   0  0  0  0  0  0  0  0  0  0  0  0
   35.6620   29.4670   37.1770 N   0  0  0  0  0  0  0  0  0  0  0  0
   35.7390   29.2780   35.8240 C   0  0  0  0  0  0  0  0  0  0  0  0
   35.8710   28.0400   35.3540 N   0  0  0  0  0  0  0  0  0  0  0  0
   35.9300   26.9730   36.1670 C   0  0  0  0  0  0  0  0  0  0  0  0
   36.0520   25.6890   35.6400 C   0  0  0  0  0  0  0  0  0  0  0  0
   36.0940   24.6000   36.4840 C   0  0  0  0  0  0  0  0  0  0  0  0
   36.0110   24.8480   37.8590 C   0  0  0  0  0  0  0  0  0  0  0  0
   35.8910   26.1170   38.3820 C   0  0  0  0  0  0  0  0  0  0  0  0
   35.8490   27.1930   37.5390 C   0  0  0  0  0  0  0  0  0  0  0  0
   36.7597   30.4185   40.0727 H   0  0  0  0  0  0  0  0  0  0  0  0
   38.1891   29.6922   44.4164 H   0  0  0  0  0  0  0  0  0  0  0  0
   37.4849   27.3073   44.9209 H   0  0  0  0  0  0  0  0  0  0  0  0
   36.4962   25.9143   43.0694 H   0  0  0  0  0  0  0  0  0  0  0  0
   37.7878   29.0901   38.1085 H   0  0  0  0  0  0  0  0  0  0  0  0
   38.5139   28.0865   39.4373 H   0  0  0  0  0  0  0  0  0  0  0  0
   41.9759   31.2302   40.5262 H   0  0  0  0  0  0  0  0  0  0  0  0
   39.0352   31.6398   36.1420 H   0  0  0  0  0  0  0  0  0  0  0  0
   37.4859   32.5242   36.1293 H   0  0  0  0  0  0  0  0  0  0  0  0
   41.3917   33.5707   38.1504 H   0  0  0  0  0  0  0  0  0  0  0  0
   35.3997   27.8582   40.0388 H   0  0  0  0  0  0  0  0  0  0  0  0
   34.8783   29.5611   39.6011 H   0  0  0  0  0  0  0  0  0  0  0  0
   35.6926   30.1352   35.1362 H   0  0  0  0  0  0  0  0  0  0  0  0
   36.1147   25.5445   34.5513 H   0  0  0  0  0  0  0  0  0  0  0  0
   36.1890   23.5765   36.0924 H   0  0  0  0  0  0  0  0  0  0  0  0
   36.0429   23.9937   38.5513 H   0  0  0  0  0  0  0  0  0  0  0  0
   35.8294   26.2637   39.4704 H   0  0  0  0  0  0  0  0  0  0  0  0
  1  6  1  0
  2  3  2  0
  4  3  1  0
  5  4  2  0
  6  5  1  0
  6  7  2  0
  7  2  1  0
  8  9  1  0
  8  1  1  0
  9 10  1  0
 11 10  2  0
 12 11  1  0
 13 12  2  0
 13  9  1  0
 14 15  2  0
 14 13  1  0
 16 14  1  0
 17 12  1  0
 17 18  2  0
 19  1  1  0
 20 19  1  0
 21 20  2  0
 22 21  1  0
 23 22  2  0
 23 24  1  0
 24 29  2  0
 25 24  1  0
 25 26  2  0
 26 27  1  0
 27 28  2  0
 29 20  1  0
 29 28  1  0
  1 30  1  1
  2 31  1  0
  3 32  1  0
  4 33  1  0
  8 34  1  0
  8 35  1  0
 11 36  1  0
 16 37  1  0
 16 38  1  0
 17 39  1  0
 19 40  1  0
 19 41  1  0
 22 42  1  0
 25 43  1  0
 26 44  1  0
 27 45  1  0
 28 46  1  0
M  ISO  8  30   8  31  14  32  14  33  14  34   8  35   8  36  14  39   6
M  ISO  7  40   8  41   8  42  14  43  14  44  14  45  14  46  14
M  END
>  <minimizedAffinity>  (1) 
-5.1251564

>  <minimizedRMSD>  (1) 
2.65034914

$$$$
