
     RDKit          3D

 41 43  0  0  1  0  0  0  0  0999 V2000
   36.6870   29.3620   40.0720 C   0  0  1  0  0  0  0  0  0  0  0  0
   37.7780   29.1060   43.5850 C   0  0  0  0  0  0  0  0  0  0  0  0
   37.4050   27.7510   43.9010 C   0  0  0  0  0  0  0  0  0  0  0  0
   36.7980   26.9800   42.9120 C   0  0  0  0  0  0  0  0  0  0  0  0
   36.5920   27.5670   41.6880 N   0  0  0  0  0  0  0  0  0  0  0  0
   36.9750   28.8770   41.4500 C   0  0  0  0  0  0  0  0  0  0  0  0
   37.5550   29.6380   42.3690 N   0  0  0  0  0  0  0  0  0  0  0  0
   37.8320   29.0190   39.1080 C   0  0  0  0  0  0  0  0  0  0  0  0
   38.9580   29.9330   39.2320 N   0  0  0  0  0  0  0  0  0  0  0  0
   40.1120   29.7460   39.8320 N   0  0  0  0  0  0  0  0  0  0  0  0
   40.9300   30.7980   39.7600 C   0  0  0  0  0  0  0  0  0  0  0  0
   40.2740   31.7530   39.0600 C   0  0  0  0  0  0  0  0  0  0  0  0
   39.0490   31.1680   38.7530 C   0  0  0  0  0  0  0  0  0  0  0  0
   38.0630   31.8780   38.0060 C   0  0  0  0  0  0  0  0  0  0  0  0
   37.0970   32.5310   38.4770 O   0  0  0  0  0  0  0  0  0  0  0  0
   38.0170   31.9650   36.5660 N   0  0  0  0  0  0  0  0  0  0  0  0
   40.7460   33.0890   38.7110 C   0  0  0  0  0  0  0  0  0  0  0  0
   40.4110   34.0620   39.4670 O   0  0  0  0  0  0  0  0  0  0  0  0
   35.4030   28.8820   39.6220 C   0  0  0  0  0  0  0  0  0  0  0  0
   34.9570   28.9670   38.2570 C   0  0  0  0  0  0  0  0  0  0  0  0
   35.5550   29.1320   37.0330 C   0  0  0  0  0  0  0  0  0  0  0  0
   34.9070   29.2150   35.8240 C   0  0  0  0  0  0  0  0  0  0  0  0
   33.5350   29.1270   35.8360 C   0  0  0  0  0  0  0  0  0  0  0  0
   32.8990   28.9630   37.0460 C   0  0  0  0  0  0  0  0  0  0  0  0
   33.5910   28.8900   38.1720 N   0  0  0  0  0  0  0  0  0  0  0  0
   36.6258   30.4602   40.0897 H   0  0  0  0  0  0  0  0  0  0  0  0
   38.2583   29.7229   44.3588 H   0  0  0  0  0  0  0  0  0  0  0  0
   37.5952   27.3342   44.9011 H   0  0  0  0  0  0  0  0  0  0  0  0
   36.4952   25.9402   43.1045 H   0  0  0  0  0  0  0  0  0  0  0  0
   37.4512   29.0662   38.0771 H   0  0  0  0  0  0  0  0  0  0  0  0
   38.1909   28.0104   39.3609 H   0  0  0  0  0  0  0  0  0  0  0  0
   41.9410   30.8743   40.1866 H   0  0  0  0  0  0  0  0  0  0  0  0
   38.7328   31.4895   35.9982 H   0  0  0  0  0  0  0  0  0  0  0  0
   37.2684   32.5026   36.1062 H   0  0  0  0  0  0  0  0  0  0  0  0
   41.3726   33.2532   37.8219 H   0  0  0  0  0  0  0  0  0  0  0  0
   35.3738   27.8135   39.8817 H   0  0  0  0  0  0  0  0  0  0  0  0
   34.7237   29.5935   40.1142 H   0  0  0  0  0  0  0  0  0  0  0  0
   36.6525   29.2044   37.0182 H   0  0  0  0  0  0  0  0  0  0  0  0
   35.4636   29.3466   34.8844 H   0  0  0  0  0  0  0  0  0  0  0  0
   32.9589   29.1862   34.9008 H   0  0  0  0  0  0  0  0  0  0  0  0
   31.8018   28.8917   37.0774 H   0  0  0  0  0  0  0  0  0  0  0  0
  1  6  1  0
  2  3  2  0
  4  3  1  0
  5  4  2  0
  6  5  1  0
  6  7  2  0
  7  2  1  0
  8  9  1  0
  8  1  1  0
  9 10  1  0
 11 10  2  0
 12 11  1  0
 13 12  2  0
 13  9  1  0
 14 15  2  0
 14 13  1  0
 16 14  1  0
 17 12  1  0
 17 18  2  0
 19  1  1  0
 20 19  1  0
 21 20  2  0
 22 23  2  0
 22 21  1  0
 23 24  1  0
 24 25  2  0
 25 20  1  0
  1 26  1  1
  2 27  1  0
  3 28  1  0
  4 29  1  0
  8 30  1  0
  8 31  1  0
 11 32  1  0
 16 33  1  0
 16 34  1  0
 17 35  1  0
 19 36  1  0
 19 37  1  0
 21 38  1  0
 22 39  1  0
 23 40  1  0
 24 41  1  0
M  ISO  8  26   8  27  14  28  14  29  14  30   8  31   8  32  14  35   6
M  ISO  6  36   8  37   8  38  14  39  14  40  14  41  14
M  END
>  <minimizedAffinity>  (1) 
-5.10928631

>  <minimizedRMSD>  (1) 
1.40215361

$$$$
