
     RDKit          3D

 40 43  0  0  1  0  0  0  0  0999 V2000
   38.2310   30.5700   39.5650 C   0  0  1  0  0  0  0  0  0  0  0  0
   37.6470   30.7120   38.1400 C   0  0  0  0  0  0  0  0  0  0  0  0
   36.2310   30.1880   38.3520 C   0  0  0  0  0  0  0  0  0  0  0  0
   36.2660   29.3440   39.6010 C   0  0  0  0  0  0  0  0  0  0  0  0
   37.7430   29.2190   39.9300 C   0  0  2  0  0  0  0  0  0  0  0  0
   40.8050   35.3700   39.7360 C   0  0  0  0  0  0  0  0  0  0  0  0
   39.5220   35.8500   40.0620 C   0  0  0  0  0  0  0  0  0  0  0  0
   38.5290   34.9100   40.2650 C   0  0  0  0  0  0  0  0  0  0  0  0
   38.8510   33.5980   40.1380 N   0  0  0  0  0  0  0  0  0  0  0  0
   40.0480   33.1490   39.8350 C   0  0  0  0  0  0  0  0  0  0  0  0
   41.0440   34.0510   39.6290 N   0  0  0  0  0  0  0  0  0  0  0  0
   40.4290   31.7880   39.6800 N   0  0  0  0  0  0  0  0  0  0  0  0
   41.7280   31.5260   39.6410 N   0  0  0  0  0  0  0  0  0  0  0  0
   41.8840   30.1730   39.4720 C   0  0  0  0  0  0  0  0  0  0  0  0
   40.5900   29.6440   39.4130 C   0  0  0  0  0  0  0  0  0  0  0  0
   39.6810   30.7030   39.5490 C   0  0  0  0  0  0  0  0  0  0  0  0
   37.8450   28.8970   41.3280 N   0  0  0  0  0  0  0  0  0  0  0  0
   37.5470   29.6210   42.3740 N   0  0  0  0  0  0  0  0  0  0  0  0
   37.7840   28.9690   43.5280 C   0  0  0  0  0  0  0  0  0  0  0  0
   38.2720   27.7310   43.1590 C   0  0  0  0  0  0  0  0  0  0  0  0
   38.3000   27.7110   41.7920 C   0  0  0  0  0  0  0  0  0  0  0  0
   38.7700   26.5090   41.1170 C   0  0  0  0  0  0  0  0  0  0  0  0
   39.8830   26.3140   40.5680 O   0  0  0  0  0  0  0  0  0  0  0  0
   38.1210   25.3080   40.9180 O   0  0  0  0  0  0  0  0  0  0  0  0
   37.9259   31.3393   40.2896 H   0  0  0  0  0  0  0  0  0  0  0  0
   38.2002   30.0984   37.4138 H   0  0  0  0  0  0  0  0  0  0  0  0
   37.6964   31.7313   37.7293 H   0  0  0  0  0  0  0  0  0  0  0  0
   35.5312   31.0269   38.4804 H   0  0  0  0  0  0  0  0  0  0  0  0
   35.8917   29.6007   37.4860 H   0  0  0  0  0  0  0  0  0  0  0  0
   35.7250   29.8392   40.4208 H   0  0  0  0  0  0  0  0  0  0  0  0
   35.7832   28.3657   39.4600 H   0  0  0  0  0  0  0  0  0  0  0  0
   38.3228   28.4392   39.4145 H   0  0  0  0  0  0  0  0  0  0  0  0
   41.6239   36.0846   39.5663 H   0  0  0  0  0  0  0  0  0  0  0  0
   39.3185   36.9273   40.1513 H   0  0  0  0  0  0  0  0  0  0  0  0
   37.5048   35.2175   40.5227 H   0  0  0  0  0  0  0  0  0  0  0  0
   42.8312   29.6186   39.3981 H   0  0  0  0  0  0  0  0  0  0  0  0
   40.3311   28.5829   39.2827 H   0  0  0  0  0  0  0  0  0  0  0  0
   37.6228   29.3436   44.5496 H   0  0  0  0  0  0  0  0  0  0  0  0
   38.5788   26.9184   43.8339 H   0  0  0  0  0  0  0  0  0  0  0  0
   38.5759   24.5737   40.4343 H   0  0  0  0  0  0  0  0  0  0  0  0
  1  5  1  0
  2  3  1  0
  2  1  1  0
  3  4  1  0
  4  5  1  0
  5 17  1  0
  6  7  2  0
  7  8  1  0
  9  8  2  0
 10  9  1  0
 11  6  1  0
 11 10  2  0
 12 10  1  0
 13 12  1  0
 14 13  2  0
 15 14  1  0
 15 16  2  0
 16  1  1  0
 16 12  1  0
 17 21  1  0
 17 18  1  0
 18 19  2  0
 20 19  1  0
 21 20  2  0
 22 21  1  0
 23 22  2  0
 24 22  1  0
  1 25  1  1
  2 26  1  0
  2 27  1  0
  3 28  1  0
  3 29  1  0
  4 30  1  0
  4 31  1  0
  5 32  1  6
  6 33  1  0
  7 34  1  0
  8 35  1  0
 14 36  1  0
 15 37  1  0
 19 38  1  0
 20 39  1  0
 24 40  1  0
M  ISO  8  25  13  26  13  27  13  28  13  29  13  30  13  31  13  32  13
M  ISO  8  33  14  34  14  35  14  36  14  37  14  38  14  39  14  40   3
M  END
>  <minimizedAffinity>  (1) 
-5.61733532

>  <minimizedRMSD>  (1) 
0.210700542

$$$$
