
     RDKit          3D

 45 47  0  0  1  0  0  0  0  0999 V2000
   37.8650   29.6950   40.7830 C   0  0  1  0  0  0  0  0  0  0  0  0
   37.3660   27.9390   43.9680 C   0  0  0  0  0  0  0  0  0  0  0  0
   38.5300   27.0900   44.0010 C   0  0  0  0  0  0  0  0  0  0  0  0
   39.4430   27.1480   42.9340 C   0  0  0  0  0  0  0  0  0  0  0  0
   39.1400   28.0260   41.9340 N   0  0  0  0  0  0  0  0  0  0  0  0
   38.0190   28.8110   41.9510 C   0  0  0  0  0  0  0  0  0  0  0  0
   37.1340   28.7860   42.9380 N   0  0  0  0  0  0  0  0  0  0  0  0
   39.0940   29.6230   39.8380 C   0  0  0  0  0  0  0  0  0  0  0  0
   39.9390   30.8080   39.9530 N   0  0  0  0  0  0  0  0  0  0  0  0
   40.9580   31.0260   40.7530 N   0  0  0  0  0  0  0  0  0  0  0  0
   41.5170   32.2280   40.5950 C   0  0  0  0  0  0  0  0  0  0  0  0
   40.8210   32.8580   39.6200 C   0  0  0  0  0  0  0  0  0  0  0  0
   39.8450   31.9300   39.2500 C   0  0  0  0  0  0  0  0  0  0  0  0
   38.8980   32.2380   38.2290 C   0  0  0  0  0  0  0  0  0  0  0  0
   37.6880   32.5270   38.3950 O   0  0  0  0  0  0  0  0  0  0  0  0
   39.1940   32.2660   36.8160 N   0  0  0  0  0  0  0  0  0  0  0  0
   41.0420   34.1920   39.0820 C   0  0  0  0  0  0  0  0  0  0  0  0
   40.3890   35.1600   39.5890 O   0  0  0  0  0  0  0  0  0  0  0  0
   36.6120   29.4670   40.0900 C   0  0  0  0  0  0  0  0  0  0  0  0
   36.4630   28.3790   39.1740 N   0  0  0  0  0  0  0  0  0  0  0  0
   36.3790   27.0700   39.5370 C   0  0  0  0  0  0  0  0  0  0  0  0
   36.2030   26.0080   38.6780 C   0  0  0  0  0  0  0  0  0  0  0  0
   36.1210   24.6000   39.1410 C   0  0  0  0  0  0  0  0  0  0  0  0
   36.1000   26.2600   37.3270 C   0  0  0  0  0  0  0  0  0  0  0  0
   35.9420   25.3270   36.5140 O   0  0  0  0  0  0  0  0  0  0  0  0
   36.1790   27.5420   36.9400 N   0  0  0  0  0  0  0  0  0  0  0  0
   36.3510   28.5260   37.8410 C   0  0  0  0  0  0  0  0  0  0  0  0
   36.4020   29.6570   37.3130 O   0  0  0  0  0  0  0  0  0  0  0  0
   37.8236   30.7274   41.1604 H   0  0  0  0  0  0  0  0  0  0  0  0
   36.6482   27.8977   44.8005 H   0  0  0  0  0  0  0  0  0  0  0  0
   38.7010   26.4081   44.8470 H   0  0  0  0  0  0  0  0  0  0  0  0
   40.3478   26.5230   42.9065 H   0  0  0  0  0  0  0  0  0  0  0  0
   38.7400   29.5380   38.8000 H   0  0  0  0  0  0  0  0  0  0  0  0
   39.6942   28.7470   40.1252 H   0  0  0  0  0  0  0  0  0  0  0  0
   42.3776   32.6292   41.1503 H   0  0  0  0  0  0  0  0  0  0  0  0
   40.1458   32.0531   36.4849 H   0  0  0  0  0  0  0  0  0  0  0  0
   38.4533   32.4989   36.1392 H   0  0  0  0  0  0  0  0  0  0  0  0
   41.7536   34.3592   38.2600 H   0  0  0  0  0  0  0  0  0  0  0  0
   35.8459   29.3284   40.8671 H   0  0  0  0  0  0  0  0  0  0  0  0
   36.5354   30.3468   39.4342 H   0  0  0  0  0  0  0  0  0  0  0  0
   36.4586   26.8403   40.6098 H   0  0  0  0  0  0  0  0  0  0  0  0
   36.1196   24.5751   40.2407 H   0  0  0  0  0  0  0  0  0  0  0  0
   35.1947   24.1430   38.7627 H   0  0  0  0  0  0  0  0  0  0  0  0
   36.9880   24.0385   38.7627 H   0  0  0  0  0  0  0  0  0  0  0  0
   36.1070   27.7761   35.9395 H   0  0  0  0  0  0  0  0  0  0  0  0
  1  6  1  0
  2  3  2  0
  4  3  1  0
  5  6  1  0
  5  4  2  0
  6  7  2  0
  7  2  1  0
  8  9  1  0
  8  1  1  0
  9 10  1  0
 11 10  2  0
 12 11  1  0
 13 12  2  0
 13  9  1  0
 14 15  2  0
 14 13  1  0
 16 14  1  0
 17 18  2  0
 17 12  1  0
 19  1  1  0
 20 21  1  0
 20 19  1  0
 22 23  1  0
 22 21  2  0
 24 22  1  0
 25 24  2  0
 26 24  1  0
 26 27  1  0
 27 20  1  0
 28 27  2  0
  1 29  1  1
  2 30  1  0
  3 31  1  0
  4 32  1  0
  8 33  1  0
  8 34  1  0
 11 35  1  0
 16 36  1  0
 16 37  1  0
 17 38  1  0
 19 39  1  0
 19 40  1  0
 21 41  1  0
 23 42  1  0
 23 43  1  0
 23 44  1  0
 26 45  1  0
M  ISO  8  29   8  30  14  31  14  32  14  33   8  34   8  35  14  38   6
M  ISO  7  39   8  40   8  41  14  42   8  43   8  44   8  45   9
M  END
>  <minimizedAffinity>  (1) 
-4.91288137

>  <minimizedRMSD>  (1) 
2.30946469

$$$$
