
     RDKit          3D

 39 41  0  0  1  0  0  0  0  0999 V2000
   36.4770   29.5300   40.2560 C   0  0  1  0  0  0  0  0  0  0  0  0
   37.8410   28.9450   43.6070 C   0  0  0  0  0  0  0  0  0  0  0  0
   37.5790   27.5290   43.7720 C   0  0  0  0  0  0  0  0  0  0  0  0
   36.9460   26.8400   42.7330 C   0  0  0  0  0  0  0  0  0  0  0  0
   36.6280   27.5830   41.6370 N   0  0  0  0  0  0  0  0  0  0  0  0
   36.8970   28.9200   41.5290 C   0  0  0  0  0  0  0  0  0  0  0  0
   37.4900   29.6010   42.4850 N   0  0  0  0  0  0  0  0  0  0  0  0
   37.4390   29.2220   39.0950 C   0  0  0  0  0  0  0  0  0  0  0  0
   38.6740   29.9850   39.1870 N   0  0  0  0  0  0  0  0  0  0  0  0
   39.8230   29.6850   39.7500 N   0  0  0  0  0  0  0  0  0  0  0  0
   40.7480   30.6370   39.6390 C   0  0  0  0  0  0  0  0  0  0  0  0
   40.1830   31.6590   38.9490 C   0  0  0  0  0  0  0  0  0  0  0  0
   38.8860   31.2050   38.6880 C   0  0  0  0  0  0  0  0  0  0  0  0
   37.9630   32.0210   37.9670 C   0  0  0  0  0  0  0  0  0  0  0  0
   37.0890   32.7640   38.4630 O   0  0  0  0  0  0  0  0  0  0  0  0
   37.8990   32.1140   36.5310 N   0  0  0  0  0  0  0  0  0  0  0  0
   40.7870   32.9320   38.5700 C   0  0  0  0  0  0  0  0  0  0  0  0
   40.5700   33.9490   39.3110 O   0  0  0  0  0  0  0  0  0  0  0  0
   35.0980   29.2010   39.9210 C   0  0  0  0  0  0  0  0  0  0  0  0
   34.8650   28.4200   38.6830 C   0  0  0  0  0  0  0  0  0  0  0  0
   34.0630   29.0410   37.7170 C   0  0  0  0  0  0  0  0  0  0  0  0
   33.9610   28.1740   36.6530 C   0  0  0  0  0  0  0  0  0  0  0  0
   34.7110   27.0960   37.0610 C   0  0  0  0  0  0  0  0  0  0  0  0
   35.2390   27.2420   38.2470 O   0  0  0  0  0  0  0  0  0  0  0  0
   36.5240   30.6179   40.4114 H   0  0  0  0  0  0  0  0  0  0  0  0
   38.3386   29.4969   44.4181 H   0  0  0  0  0  0  0  0  0  0  0  0
   37.8720   27.0075   44.6951 H   0  0  0  0  0  0  0  0  0  0  0  0
   36.7192   25.7655   42.7969 H   0  0  0  0  0  0  0  0  0  0  0  0
   36.9399   29.4691   38.1464 H   0  0  0  0  0  0  0  0  0  0  0  0
   37.6976   28.1540   39.1452 H   0  0  0  0  0  0  0  0  0  0  0  0
   41.7747   30.6012   40.0321 H   0  0  0  0  0  0  0  0  0  0  0  0
   38.5497   31.5664   35.9499 H   0  0  0  0  0  0  0  0  0  0  0  0
   37.2025   32.7281   36.0852 H   0  0  0  0  0  0  0  0  0  0  0  0
   41.4131   33.0135   37.6692 H   0  0  0  0  0  0  0  0  0  0  0  0
   34.6839   28.6218   40.7595 H   0  0  0  0  0  0  0  0  0  0  0  0
   34.6138   30.1714   39.7370 H   0  0  0  0  0  0  0  0  0  0  0  0
   33.6008   30.0362   37.7944 H   0  0  0  0  0  0  0  0  0  0  0  0
   33.4140   28.3099   35.7084 H   0  0  0  0  0  0  0  0  0  0  0  0
   34.8531   26.1950   36.4462 H   0  0  0  0  0  0  0  0  0  0  0  0
  1  6  1  0
  2  3  2  0
  4  3  1  0
  5  4  2  0
  6  5  1  0
  6  7  2  0
  7  2  1  0
  8  9  1  0
  8  1  1  0
  9 10  1  0
 11 10  2  0
 12 11  1  0
 13 12  2  0
 13  9  1  0
 14 15  2  0
 14 13  1  0
 16 14  1  0
 17 12  1  0
 17 18  2  0
 19  1  1  0
 20 19  1  0
 21 20  2  0
 22 23  2  0
 22 21  1  0
 23 24  1  0
 24 20  1  0
  1 25  1  1
  2 26  1  0
  3 27  1  0
  4 28  1  0
  8 29  1  0
  8 30  1  0
 11 31  1  0
 16 32  1  0
 16 33  1  0
 17 34  1  0
 19 35  1  0
 19 36  1  0
 21 37  1  0
 22 38  1  0
 23 39  1  0
M  ISO  8  25   8  26  14  27  14  28  14  29   8  30   8  31  14  34   6
M  ISO  5  35   8  36   8  37  14  38  14  39  14
M  END
>  <minimizedAffinity>  (1) 
-4.83659697

>  <minimizedRMSD>  (1) 
1.26486409

$$$$
