
     RDKit          3D

 39 41  0  0  1  0  0  0  0  0999 V2000
   37.8850   28.9810   39.7360 C   0  0  1  0  0  0  0  0  0  0  0  0
   37.4620   28.8920   43.3730 C   0  0  0  0  0  0  0  0  0  0  0  0
   37.3730   27.4720   43.6130 C   0  0  0  0  0  0  0  0  0  0  0  0
   37.4600   26.6090   42.5220 C   0  0  0  0  0  0  0  0  0  0  0  0
   37.6250   27.1880   41.2970 N   0  0  0  0  0  0  0  0  0  0  0  0
   37.7030   28.5410   41.1290 C   0  0  0  0  0  0  0  0  0  0  0  0
   37.6250   29.4020   42.1310 N   0  0  0  0  0  0  0  0  0  0  0  0
   39.3700   29.3180   39.4180 C   0  0  0  0  0  0  0  0  0  0  0  0
   39.7450   30.6290   39.9110 N   0  0  0  0  0  0  0  0  0  0  0  0
   40.4320   30.9580   40.9830 N   0  0  0  0  0  0  0  0  0  0  0  0
   40.6020   32.2750   41.1420 C   0  0  0  0  0  0  0  0  0  0  0  0
   39.9790   32.8760   40.0960 C   0  0  0  0  0  0  0  0  0  0  0  0
   39.4630   31.8110   39.3580 C   0  0  0  0  0  0  0  0  0  0  0  0
   38.7250   32.0510   38.1610 C   0  0  0  0  0  0  0  0  0  0  0  0
   37.4780   32.1320   38.0500 O   0  0  0  0  0  0  0  0  0  0  0  0
   39.3180   32.2430   36.8590 N   0  0  0  0  0  0  0  0  0  0  0  0
   39.8810   34.3010   39.8180 C   0  0  0  0  0  0  0  0  0  0  0  0
   38.8490   34.9310   40.2430 O   0  0  0  0  0  0  0  0  0  0  0  0
   37.3520   28.0320   38.7760 C   0  0  0  0  0  0  0  0  0  0  0  0
   36.0350   28.2430   38.2310 N   0  0  0  0  0  0  0  0  0  0  0  0
   35.2950   27.1630   37.9170 N   0  0  0  0  0  0  0  0  0  0  0  0
   34.1230   27.5760   37.4090 C   0  0  0  0  0  0  0  0  0  0  0  0
   34.0800   28.9580   37.3820 C   0  0  0  0  0  0  0  0  0  0  0  0
   35.3020   29.3260   37.9070 C   0  0  0  0  0  0  0  0  0  0  0  0
   37.3012   29.9078   39.6348 H   0  0  0  0  0  0  0  0  0  0  0  0
   37.3952   29.5817   44.2273 H   0  0  0  0  0  0  0  0  0  0  0  0
   37.2397   27.0801   44.6321 H   0  0  0  0  0  0  0  0  0  0  0  0
   37.3988   25.5173   42.6420 H   0  0  0  0  0  0  0  0  0  0  0  0
   40.0150   28.5626   39.8905 H   0  0  0  0  0  0  0  0  0  0  0  0
   39.4930   29.3171   38.3249 H   0  0  0  0  0  0  0  0  0  0  0  0
   41.1414   32.7740   41.9606 H   0  0  0  0  0  0  0  0  0  0  0  0
   38.7175   32.4120   36.0394 H   0  0  0  0  0  0  0  0  0  0  0  0
   40.3417   32.2110   36.7495 H   0  0  0  0  0  0  0  0  0  0  0  0
   40.6710   34.8232   39.2584 H   0  0  0  0  0  0  0  0  0  0  0  0
   38.0506   28.0085   37.9266 H   0  0  0  0  0  0  0  0  0  0  0  0
   37.2469   27.1046   39.3581 H   0  0  0  0  0  0  0  0  0  0  0  0
   33.3157   26.9128   37.0649 H   0  0  0  0  0  0  0  0  0  0  0  0
   33.2667   29.6081   37.0271 H   0  0  0  0  0  0  0  0  0  0  0  0
   35.6337   30.3659   38.0430 H   0  0  0  0  0  0  0  0  0  0  0  0
  1  6  1  0
  2  3  2  0
  4  3  1  0
  5  4  2  0
  6  5  1  0
  6  7  2  0
  7  2  1  0
  8  1  1  0
  8  9  1  0
  9 10  1  0
 10 11  2  0
 12 11  1  0
 13  9  1  0
 13 12  2  0
 14 13  1  0
 15 14  2  0
 16 14  1  0
 17 12  1  0
 17 18  2  0
 19  1  1  0
 20 19  1  0
 21 20  1  0
 22 21  2  0
 23 22  1  0
 23 24  2  0
 24 20  1  0
  1 25  1  1
  2 26  1  0
  3 27  1  0
  4 28  1  0
  8 29  1  0
  8 30  1  0
 11 31  1  0
 16 32  1  0
 16 33  1  0
 17 34  1  0
 19 35  1  0
 19 36  1  0
 22 37  1  0
 23 38  1  0
 24 39  1  0
M  ISO  8  25   8  26  14  27  14  28  14  29   8  30   8  31  14  34   6
M  ISO  5  35   8  36   8  37  14  38  14  39  14
M  END
>  <minimizedAffinity>  (1) 
-4.83047199

>  <minimizedRMSD>  (1) 
2.1550014

$$$$
