
     RDKit          3D

 38 40  0  0  1  0  0  0  0  0999 V2000
   40.7080   31.7530   40.4530 C   0  0  1  0  0  0  0  0  0  0  0  0
   44.3450   32.0850   40.1810 C   0  0  0  0  0  0  0  0  0  0  0  0
   44.6830   32.5800   41.4930 C   0  0  0  0  0  0  0  0  0  0  0  0
   43.6510   32.7820   42.4190 C   0  0  0  0  0  0  0  0  0  0  0  0
   42.3930   32.4840   41.9850 N   0  0  0  0  0  0  0  0  0  0  0  0
   42.1330   32.0180   40.7270 C   0  0  0  0  0  0  0  0  0  0  0  0
   43.0690   31.8120   39.8210 N   0  0  0  0  0  0  0  0  0  0  0  0
   39.8360   31.8740   41.7380 C   0  0  0  0  0  0  0  0  0  0  0  0
   39.1610   30.6280   42.0540 N   0  0  0  0  0  0  0  0  0  0  0  0
   39.4890   29.6900   42.9190 N   0  0  0  0  0  0  0  0  0  0  0  0
   38.6390   28.6630   42.9590 C   0  0  0  0  0  0  0  0  0  0  0  0
   37.6630   28.9290   42.0500 C   0  0  0  0  0  0  0  0  0  0  0  0
   38.0340   30.1600   41.5150 C   0  0  0  0  0  0  0  0  0  0  0  0
   37.2370   30.7780   40.5060 C   0  0  0  0  0  0  0  0  0  0  0  0
   37.1860   30.4620   39.2890 O   0  0  0  0  0  0  0  0  0  0  0  0
   36.3470   31.8910   40.7370 N   0  0  0  0  0  0  0  0  0  0  0  0
   36.5060   28.1080   41.7230 C   0  0  0  0  0  0  0  0  0  0  0  0
   36.6130   27.2660   40.7640 O   0  0  0  0  0  0  0  0  0  0  0  0
   40.1790   32.5840   39.3850 C   0  0  0  0  0  0  0  0  0  0  0  0
   39.7880   33.9360   39.6860 N   0  0  0  0  0  0  0  0  0  0  0  0
   38.7200   34.6440   40.0860 C   0  0  0  0  0  0  0  0  0  0  0  0
   39.0100   35.9460   40.1640 N   0  0  0  0  0  0  0  0  0  0  0  0
   40.3000   36.0620   39.8040 C   0  0  0  0  0  0  0  0  0  0  0  0
   40.7580   34.8550   39.5200 N   0  0  0  0  0  0  0  0  0  0  0  0
   40.6550   30.7104   40.1064 H   0  0  0  0  0  0  0  0  0  0  0  0
   45.1504   31.9241   39.4492 H   0  0  0  0  0  0  0  0  0  0  0  0
   45.7282   32.7942   41.7607 H   0  0  0  0  0  0  0  0  0  0  0  0
   43.8439   33.1582   43.4345 H   0  0  0  0  0  0  0  0  0  0  0  0
   40.4839   32.1515   42.5825 H   0  0  0  0  0  0  0  0  0  0  0  0
   39.0685   32.6412   41.5580 H   0  0  0  0  0  0  0  0  0  0  0  0
   38.7130   27.7737   43.6022 H   0  0  0  0  0  0  0  0  0  0  0  0
   35.8022   32.2853   39.9569 H   0  0  0  0  0  0  0  0  0  0  0  0
   36.2568   32.2908   41.6820 H   0  0  0  0  0  0  0  0  0  0  0  0
   35.5654   28.2082   42.2844 H   0  0  0  0  0  0  0  0  0  0  0  0
   39.2906   32.0718   38.9870 H   0  0  0  0  0  0  0  0  0  0  0  0
   41.0272   32.7005   38.6943 H   0  0  0  0  0  0  0  0  0  0  0  0
   37.7365   34.2099   40.3187 H   0  0  0  0  0  0  0  0  0  0  0  0
   40.8746   36.9987   39.7544 H   0  0  0  0  0  0  0  0  0  0  0  0
  1  6  1  0
  1  8  1  0
  2  3  2  0
  3  4  1  0
  5  4  2  0
  6  5  1  0
  7  2  1  0
  7  6  2  0
  8  9  1  0
  9 10  1  0
 10 11  2  0
 12 11  1  0
 13 12  2  0
 13  9  1  0
 14 16  1  0
 14 13  1  0
 15 14  2  0
 17 12  1  0
 18 17  2  0
 19 20  1  0
 19  1  1  0
 20 21  1  0
 21 22  2  0
 23 22  1  0
 24 20  1  0
 24 23  2  0
  1 25  1  6
  2 26  1  0
  3 27  1  0
  4 28  1  0
  8 29  1  0
  8 30  1  0
 11 31  1  0
 16 32  1  0
 16 33  1  0
 17 34  1  0
 19 35  1  0
 19 36  1  0
 21 37  1  0
 23 38  1  0
M  ISO  8  25   8  26  14  27  14  28  14  29   8  30   8  31  14  34   6
M  ISO  4  35   8  36   8  37  14  38  14
M  END
>  <minimizedAffinity>  (1) 
-4.78998089

>  <minimizedRMSD>  (1) 
6.86263418

$$$$
