
     RDKit          3D

 33 34  0  0  1  0  0  0  0  0999 V2000
   37.1170   29.3700   39.0100 C   0  0  0  0  0  0  0  0  0  0  0  0
   38.4730   29.8750   39.1740 N   0  0  0  0  0  0  0  0  0  0  0  0
   39.6120   29.2270   39.2330 N   0  0  0  0  0  0  0  0  0  0  0  0
   40.6770   30.0290   39.3870 C   0  0  0  0  0  0  0  0  0  0  0  0
   40.2080   31.2960   39.4310 C   0  0  0  0  0  0  0  0  0  0  0  0
   38.8210   31.1510   39.2940 C   0  0  0  0  0  0  0  0  0  0  0  0
   37.9630   32.2940   39.2950 C   0  0  0  0  0  0  0  0  0  0  0  0
   37.5700   32.9180   40.3100 O   0  0  0  0  0  0  0  0  0  0  0  0
   37.4090   32.9170   38.1240 N   0  0  0  0  0  0  0  0  0  0  0  0
   40.9700   32.5280   39.5860 C   0  0  0  0  0  0  0  0  0  0  0  0
   41.1260   32.9940   40.7490 O   0  0  0  0  0  0  0  0  0  0  0  0
   36.2550   29.5850   40.2600 C   0  0  2  0  0  0  0  0  0  0  0  0
   37.9630   28.9610   43.4600 C   0  0  0  0  0  0  0  0  0  0  0  0
   37.7990   27.5270   43.5890 C   0  0  0  0  0  0  0  0  0  0  0  0
   37.1170   26.8490   42.5880 C   0  0  0  0  0  0  0  0  0  0  0  0
   36.6460   27.5910   41.5430 N   0  0  0  0  0  0  0  0  0  0  0  0
   36.8300   28.9460   41.4720 C   0  0  0  0  0  0  0  0  0  0  0  0
   37.4720   29.6290   42.4010 N   0  0  0  0  0  0  0  0  0  0  0  0
   34.8700   29.2070   40.0710 C   0  0  0  0  0  0  0  0  0  0  0  0
   34.5280   28.7470   38.3670 S   0  0  0  0  0  0  0  0  0  0  0  0
   36.6465   29.8911   38.1632 H   0  0  0  0  0  0  0  0  0  0  0  0
   37.1831   28.2865   38.8319 H   0  0  0  0  0  0  0  0  0  0  0  0
   41.7287   29.7157   39.4628 H   0  0  0  0  0  0  0  0  0  0  0  0
   36.7978   33.7405   38.2191 H   0  0  0  0  0  0  0  0  0  0  0  0
   37.6233   32.5399   37.1898 H   0  0  0  0  0  0  0  0  0  0  0  0
   41.3987   33.0395   38.7116 H   0  0  0  0  0  0  0  0  0  0  0  0
   36.2647   30.6718   40.4299 H   0  0  0  0  0  0  0  0  0  0  0  0
   38.5001   29.5145   44.2443 H   0  0  0  0  0  0  0  0  0  0  0  0
   38.2048   26.9892   44.4585 H   0  0  0  0  0  0  0  0  0  0  0  0
   36.9626   25.7609   42.6346 H   0  0  0  0  0  0  0  0  0  0  0  0
   34.6428   28.3508   40.7231 H   0  0  0  0  0  0  0  0  0  0  0  0
   34.2422   30.0744   40.3228 H   0  0  0  0  0  0  0  0  0  0  0  0
   33.7107   27.6477   38.3460 H   0  0  0  0  0  0  0  0  0  0  0  0
  1  2  1  0
  1 12  1  0
  2  3  1  0
  2  6  1  0
  3  4  2  0
  4  5  1  0
  5 10  1  0
  6  7  1  0
  6  5  2  0
  7  8  2  0
  9  7  1  0
 10 11  2  0
 12 17  1  0
 13 14  2  0
 15 14  1  0
 16 15  2  0
 17 16  1  0
 17 18  2  0
 18 13  1  0
 19 12  1  0
 20 19  1  0
  1 21  1  0
  1 22  1  0
  4 23  1  0
  9 24  1  0
  9 25  1  0
 10 26  1  0
 12 27  1  1
 13 28  1  0
 14 29  1  0
 15 30  1  0
 19 31  1  0
 19 32  1  0
 20 33  1  0
M  ISO  8  21   8  22   8  23  14  26   6  27   8  28  14  29  14  30  14
M  ISO  3  31   8  32   8  33  11
M  END
>  <minimizedAffinity>  (1) 
-4.26372576

>  <minimizedRMSD>  (1) 
0.423342705

$$$$
