
     RDKit          3D

 38 41  0  0  1  0  0  0  0  0999 V2000
   38.3160   30.6550   39.5220 C   0  0  1  0  0  0  0  0  0  0  0  0
   37.7240   30.8130   38.0950 C   0  0  0  0  0  0  0  0  0  0  0  0
   36.3160   30.2660   38.3190 C   0  0  0  0  0  0  0  0  0  0  0  0
   36.3720   29.4030   39.5510 C   0  0  0  0  0  0  0  0  0  0  0  0
   37.8500   29.2910   39.8620 C   0  0  2  0  0  0  0  0  0  0  0  0
   40.8400   35.4770   39.7160 C   0  0  0  0  0  0  0  0  0  0  0  0
   39.5550   35.9320   40.0700 C   0  0  0  0  0  0  0  0  0  0  0  0
   38.5730   34.9830   40.2860 C   0  0  0  0  0  0  0  0  0  0  0  0
   38.9100   33.6760   40.1410 N   0  0  0  0  0  0  0  0  0  0  0  0
   40.1100   33.2470   39.8100 C   0  0  0  0  0  0  0  0  0  0  0  0
   41.0970   34.1590   39.5930 N   0  0  0  0  0  0  0  0  0  0  0  0
   40.5050   31.8940   39.6320 N   0  0  0  0  0  0  0  0  0  0  0  0
   41.8080   31.6510   39.5760 N   0  0  0  0  0  0  0  0  0  0  0  0
   41.9770   30.2990   39.3840 C   0  0  0  0  0  0  0  0  0  0  0  0
   40.6870   29.7550   39.3300 C   0  0  0  0  0  0  0  0  0  0  0  0
   39.7640   30.7970   39.4920 C   0  0  0  0  0  0  0  0  0  0  0  0
   37.9720   28.9440   41.2560 N   0  0  0  0  0  0  0  0  0  0  0  0
   37.6210   29.6250   42.3140 N   0  0  0  0  0  0  0  0  0  0  0  0
   37.8990   28.9630   43.4550 C   0  0  0  0  0  0  0  0  0  0  0  0
   38.4730   27.7660   43.0550 C   0  0  0  0  0  0  0  0  0  0  0  0
   38.5110   27.7710   41.6880 C   0  0  0  0  0  0  0  0  0  0  0  0
   39.1610   26.4480   40.6880 S   0  0  0  0  0  0  0  0  0  0  0  0
   38.0043   31.4070   40.2618 H   0  0  0  0  0  0  0  0  0  0  0  0
   38.2792   30.2165   37.3561 H   0  0  0  0  0  0  0  0  0  0  0  0
   37.7609   31.8362   37.6929 H   0  0  0  0  0  0  0  0  0  0  0  0
   35.6081   31.0944   38.4695 H   0  0  0  0  0  0  0  0  0  0  0  0
   35.9760   29.6866   37.4480 H   0  0  0  0  0  0  0  0  0  0  0  0
   35.8333   29.8778   40.3843 H   0  0  0  0  0  0  0  0  0  0  0  0
   35.8988   28.4217   39.3988 H   0  0  0  0  0  0  0  0  0  0  0  0
   38.4328   28.5286   39.3243 H   0  0  0  0  0  0  0  0  0  0  0  0
   41.6442   36.2060   39.5376 H   0  0  0  0  0  0  0  0  0  0  0  0
   39.3399   37.0060   40.1712 H   0  0  0  0  0  0  0  0  0  0  0  0
   37.5510   35.2777   40.5665 H   0  0  0  0  0  0  0  0  0  0  0  0
   42.9295   29.7566   39.2918 H   0  0  0  0  0  0  0  0  0  0  0  0
   40.4410   28.6927   39.1853 H   0  0  0  0  0  0  0  0  0  0  0  0
   37.7105   29.3008   44.4847 H   0  0  0  0  0  0  0  0  0  0  0  0
   38.8312   26.9618   43.7146 H   0  0  0  0  0  0  0  0  0  0  0  0
   39.6474   25.4580   41.5005 H   0  0  0  0  0  0  0  0  0  0  0  0
  1  5  1  0
  2  3  1  0
  2  1  1  0
  3  4  1  0
  4  5  1  0
  5 17  1  0
  6  7  2  0
  7  8  1  0
  9  8  2  0
 10  9  1  0
 11  6  1  0
 11 10  2  0
 12 10  1  0
 13 12  1  0
 14 13  2  0
 15 14  1  0
 15 16  2  0
 16  1  1  0
 16 12  1  0
 17 21  1  0
 17 18  1  0
 18 19  2  0
 20 19  1  0
 21 20  2  0
 22 21  1  0
  1 23  1  1
  2 24  1  0
  2 25  1  0
  3 26  1  0
  3 27  1  0
  4 28  1  0
  4 29  1  0
  5 30  1  6
  6 31  1  0
  7 32  1  0
  8 33  1  0
 14 34  1  0
 15 35  1  0
 19 36  1  0
 20 37  1  0
 22 38  1  0
M  ISO  8  23  13  24  13  25  13  26  13  27  13  28  13  29  13  30  13
M  ISO  8  31  14  32  14  33  14  34  14  35  14  36  14  37  14  38  11
M  END
>  <minimizedAffinity>  (1) 
-5.58245468

>  <minimizedRMSD>  (1) 
0.011248298

$$$$
