
     RDKit          3D

 46 49  0  0  1  0  0  0  0  0999 V2000
   38.0150   30.1400   41.3500 C   0  0  1  0  0  0  0  0  0  0  0  0
   36.6580   27.3430   43.3050 C   0  0  0  0  0  0  0  0  0  0  0  0
   37.1370   26.2110   42.5540 C   0  0  0  0  0  0  0  0  0  0  0  0
   37.8970   26.4490   41.4200 C   0  0  0  0  0  0  0  0  0  0  0  0
   38.1340   27.7590   41.1040 N   0  0  0  0  0  0  0  0  0  0  0  0
   37.6580   28.7910   41.8460 C   0  0  0  0  0  0  0  0  0  0  0  0
   36.9320   28.6070   42.9300 N   0  0  0  0  0  0  0  0  0  0  0  0
   39.1900   30.0890   40.3410 C   0  0  0  0  0  0  0  0  0  0  0  0
   39.9350   31.3250   40.2980 N   0  0  0  0  0  0  0  0  0  0  0  0
   40.4300   32.0480   41.2800 N   0  0  0  0  0  0  0  0  0  0  0  0
   41.0700   33.1460   40.8770 C   0  0  0  0  0  0  0  0  0  0  0  0
   41.0010   33.1640   39.5220 C   0  0  0  0  0  0  0  0  0  0  0  0
   40.2840   32.0080   39.2130 C   0  0  0  0  0  0  0  0  0  0  0  0
   40.0040   31.6790   37.8470 C   0  0  0  0  0  0  0  0  0  0  0  0
   38.9680   31.9620   37.1890 O   0  0  0  0  0  0  0  0  0  0  0  0
   40.9160   30.9390   36.9900 N   0  0  0  0  0  0  0  0  0  0  0  0
   41.5510   34.1620   38.6130 C   0  0  0  0  0  0  0  0  0  0  0  0
   41.4640   35.3890   38.9370 O   0  0  0  0  0  0  0  0  0  0  0  0
   36.8610   30.8420   40.7850 C   0  0  0  0  0  0  0  0  0  0  0  0
   36.1330   30.1170   39.7150 C   0  0  0  0  0  0  0  0  0  0  0  0
   34.9550   29.4140   39.6370 C   0  0  0  0  0  0  0  0  0  0  0  0
   34.7370   28.9300   38.3760 C   0  0  0  0  0  0  0  0  0  0  0  0
   35.8040   29.3470   37.6740 N   0  0  0  0  0  0  0  0  0  0  0  0
   36.6210   30.0370   38.4420 N   0  0  0  0  0  0  0  0  0  0  0  0
   36.7880   29.1490   34.2410 N   0  0  0  0  0  0  0  0  0  0  0  0
   36.8950   29.6710   35.4740 N   0  0  0  0  0  0  0  0  0  0  0  0
   35.9920   29.0590   36.2820 C   0  0  0  0  0  0  0  0  0  0  0  0
   35.2660   28.1060   35.5660 C   0  0  0  0  0  0  0  0  0  0  0  0
   35.8170   28.2190   34.3070 C   0  0  0  0  0  0  0  0  0  0  0  0
   38.3521   30.7176   42.2234 H   0  0  0  0  0  0  0  0  0  0  0  0
   36.0532   27.1706   44.2075 H   0  0  0  0  0  0  0  0  0  0  0  0
   36.9054   25.1839   42.8725 H   0  0  0  0  0  0  0  0  0  0  0  0
   38.2900   25.6261   40.8048 H   0  0  0  0  0  0  0  0  0  0  0  0
   39.8712   29.2763   40.6334 H   0  0  0  0  0  0  0  0  0  0  0  0
   38.7649   29.9197   39.3407 H   0  0  0  0  0  0  0  0  0  0  0  0
   41.5595   33.8931   41.5191 H   0  0  0  0  0  0  0  0  0  0  0  0
   40.6547   30.7343   36.0150 H   0  0  0  0  0  0  0  0  0  0  0  0
   41.8234   30.6194   37.3579 H   0  0  0  0  0  0  0  0  0  0  0  0
   42.0298   33.8613   37.6694 H   0  0  0  0  0  0  0  0  0  0  0  0
   36.1521   31.0410   41.6022 H   0  0  0  0  0  0  0  0  0  0  0  0
   37.2620   31.7517   40.3142 H   0  0  0  0  0  0  0  0  0  0  0  0
   34.2710   29.2593   40.4845 H   0  0  0  0  0  0  0  0  0  0  0  0
   33.8833   28.3354   38.0186 H   0  0  0  0  0  0  0  0  0  0  0  0
   37.3391   29.4086   33.4105 H   0  0  0  0  0  0  0  0  0  0  0  0
   34.4639   27.4390   35.9149 H   0  0  0  0  0  0  0  0  0  0  0  0
   35.4967   27.6128   33.4468 H   0  0  0  0  0  0  0  0  0  0  0  0
  1  6  1  0
  3  2  2  0
  4  3  1  0
  5  4  2  0
  5  6  1  0
  6  7  2  0
  7  2  1  0
  8  1  1  0
  9  8  1  0
  9 10  1  0
 11 10  2  0
 12 11  1  0
 13 12  2  0
 13  9  1  0
 14 13  1  0
 15 14  2  0
 16 14  1  0
 17 18  2  0
 17 12  1  0
 19  1  1  0
 20 19  1  0
 21 20  1  0
 22 21  2  0
 23 22  1  0
 23 24  1  0
 24 20  2  0
 25 29  1  0
 25 26  1  0
 26 27  2  0
 27 23  1  0
 28 27  1  0
 29 28  2  0
  1 30  1  1
  2 31  1  0
  3 32  1  0
  4 33  1  0
  8 34  1  0
  8 35  1  0
 11 36  1  0
 16 37  1  0
 16 38  1  0
 17 39  1  0
 19 40  1  0
 19 41  1  0
 21 42  1  0
 22 43  1  0
 25 44  1  0
 28 45  1  0
 29 46  1  0
M  ISO  8  30   8  31  14  32  14  33  14  34   8  35   8  36  14  39   6
M  ISO  7  40   8  41   8  42  14  43  14  44   9  45  14  46  14
M  END
>  <minimizedAffinity>  (1) 
-5.57482004

>  <minimizedRMSD>  (1) 
5.72343922

$$$$
