
     RDKit          3D

 48 50  0  0  1  0  0  0  0  0999 V2000
   39.0880   30.3920   38.7700 C   0  0  1  0  0  0  0  0  0  0  0  0
   42.0820   28.2700   38.8820 C   0  0  0  0  0  0  0  0  0  0  0  0
   41.9910   27.5780   37.6250 C   0  0  0  0  0  0  0  0  0  0  0  0
   40.9080   27.8660   36.7890 C   0  0  0  0  0  0  0  0  0  0  0  0
   40.0180   28.7940   37.2480 N   0  0  0  0  0  0  0  0  0  0  0  0
   40.1540   29.4170   38.4470 C   0  0  0  0  0  0  0  0  0  0  0  0
   41.1620   29.1730   39.2640 N   0  0  0  0  0  0  0  0  0  0  0  0
   39.1080   31.6100   37.8130 C   0  0  0  0  0  0  0  0  0  0  0  0
   40.1100   32.5830   38.1820 N   0  0  0  0  0  0  0  0  0  0  0  0
   41.2810   32.8370   37.6410 N   0  0  0  0  0  0  0  0  0  0  0  0
   41.9580   33.8180   38.2450 C   0  0  0  0  0  0  0  0  0  0  0  0
   41.1810   34.2580   39.2710 C   0  0  0  0  0  0  0  0  0  0  0  0
   40.0440   33.4540   39.1840 C   0  0  0  0  0  0  0  0  0  0  0  0
   38.9690   33.6260   40.1240 C   0  0  0  0  0  0  0  0  0  0  0  0
   38.8530   33.0750   41.2500 O   0  0  0  0  0  0  0  0  0  0  0  0
   37.8260   34.4880   39.9000 N   0  0  0  0  0  0  0  0  0  0  0  0
   41.4720   35.3170   40.2310 C   0  0  0  0  0  0  0  0  0  0  0  0
   42.2530   35.0540   41.2010 O   0  0  0  0  0  0  0  0  0  0  0  0
   37.7630   29.7700   38.8060 C   0  0  0  0  0  0  0  0  0  0  0  0
   37.4990   28.8990   39.9790 C   0  0  0  0  0  0  0  0  0  0  0  0
   36.7710   27.7520   40.1860 C   0  0  0  0  0  0  0  0  0  0  0  0
   36.8570   27.3290   41.5020 C   0  0  0  0  0  0  0  0  0  0  0  0
   37.6520   28.2490   42.0750 N   0  0  0  0  0  0  0  0  0  0  0  0
   38.0260   29.1580   41.2000 N   0  0  0  0  0  0  0  0  0  0  0  0
   38.0640   28.2660   43.4780 C   0  0  0  0  0  0  0  0  0  0  0  0
   36.8550   28.0340   44.3790 C   0  0  0  0  0  0  0  0  0  0  0  0
   39.0270   27.1140   43.7130 C   0  0  0  0  0  0  0  0  0  0  0  0
   39.3026   30.7631   39.7830 H   0  0  0  0  0  0  0  0  0  0  0  0
   42.9286   28.0545   39.5504 H   0  0  0  0  0  0  0  0  0  0  0  0
   42.7529   26.8418   37.3290 H   0  0  0  0  0  0  0  0  0  0  0  0
   40.7800   27.3719   35.8146 H   0  0  0  0  0  0  0  0  0  0  0  0
   38.1203   32.0937   37.8360 H   0  0  0  0  0  0  0  0  0  0  0  0
   39.3527   31.2416   36.8058 H   0  0  0  0  0  0  0  0  0  0  0  0
   42.9523   34.1968   37.9661 H   0  0  0  0  0  0  0  0  0  0  0  0
   37.0905   34.5647   40.6169 H   0  0  0  0  0  0  0  0  0  0  0  0
   37.7491   35.0240   39.0238 H   0  0  0  0  0  0  0  0  0  0  0  0
   41.0279   36.3172   40.1195 H   0  0  0  0  0  0  0  0  0  0  0  0
   37.0112   30.5730   38.8037 H   0  0  0  0  0  0  0  0  0  0  0  0
   37.7126   29.1140   37.9245 H   0  0  0  0  0  0  0  0  0  0  0  0
   36.1932   27.2353   39.4055 H   0  0  0  0  0  0  0  0  0  0  0  0
   36.3869   26.4500   41.9672 H   0  0  0  0  0  0  0  0  0  0  0  0
   38.5283   29.2373   43.7037 H   0  0  0  0  0  0  0  0  0  0  0  0
   37.1660   28.0937   45.4324 H   0  0  0  0  0  0  0  0  0  0  0  0
   36.0944   28.8026   44.1771 H   0  0  0  0  0  0  0  0  0  0  0  0
   36.4329   27.0385   44.1771 H   0  0  0  0  0  0  0  0  0  0  0  0
   39.1565   26.9591   44.7943 H   0  0  0  0  0  0  0  0  0  0  0  0
   38.6217   26.1985   43.2574 H   0  0  0  0  0  0  0  0  0  0  0  0
   39.9999   27.3506   43.2574 H   0  0  0  0  0  0  0  0  0  0  0  0
  1 19  1  0
  2  7  2  0
  3  2  1  0
  4  5  1  0
  4  3  2  0
  5  6  2  0
  6  1  1  0
  6  7  1  0
  8  9  1  0
  8  1  1  0
  9 13  1  0
 10  9  1  0
 10 11  2  0
 11 12  1  0
 12 17  1  0
 13 12  2  0
 13 14  1  0
 14 15  2  0
 16 14  1  0
 17 18  2  0
 19 20  1  0
 20 21  1  0
 20 24  2  0
 21 22  2  0
 22 23  1  0
 23 25  1  0
 24 23  1  0
 25 27  1  0
 25 26  1  0
  1 28  1  1
  2 29  1  0
  3 30  1  0
  4 31  1  0
  8 32  1  0
  8 33  1  0
 11 34  1  0
 16 35  1  0
 16 36  1  0
 17 37  1  0
 19 38  1  0
 19 39  1  0
 21 40  1  0
 22 41  1  0
 25 42  1  0
 26 43  1  0
 26 44  1  0
 26 45  1  0
 27 46  1  0
 27 47  1  0
 27 48  1  0
M  ISO  8  28   8  29  14  30  14  31  14  32   8  33   8  34  14  37   6
M  ISO  8  38   8  39   8  40  14  41  14  42   8  43   8  44   8  45   8
M  ISO  3  46   8  47   8  48   8
M  END
>  <minimizedAffinity>  (1) 
-5.05578279

>  <minimizedRMSD>  (1) 
1.67591596

$$$$
