
     RDKit          3D

 47 50  0  0  1  0  0  0  0  0999 V2000
   37.6460   30.6000   39.1930 C   0  0  1  0  0  0  0  0  0  0  0  0
   40.1600   32.9400   40.4850 C   0  0  0  0  0  0  0  0  0  0  0  0
   39.4190   34.1800   40.4870 C   0  0  0  0  0  0  0  0  0  0  0  0
   38.0990   34.1600   40.0480 C   0  0  0  0  0  0  0  0  0  0  0  0
   37.6100   32.9490   39.6480 N   0  0  0  0  0  0  0  0  0  0  0  0
   38.3530   31.8120   39.6660 C   0  0  0  0  0  0  0  0  0  0  0  0
   39.6060   31.7890   40.0740 N   0  0  0  0  0  0  0  0  0  0  0  0
   36.5750   30.1210   40.2060 C   0  0  0  0  0  0  0  0  0  0  0  0
   37.1500   29.3690   41.3000 N   0  0  0  0  0  0  0  0  0  0  0  0
   37.3630   29.7250   42.5450 N   0  0  0  0  0  0  0  0  0  0  0  0
   37.9160   28.7700   43.2970 C   0  0  0  0  0  0  0  0  0  0  0  0
   38.0870   27.6840   42.4870 C   0  0  0  0  0  0  0  0  0  0  0  0
   37.5930   28.1180   41.2610 C   0  0  0  0  0  0  0  0  0  0  0  0
   37.6050   27.2310   40.1340 C   0  0  0  0  0  0  0  0  0  0  0  0
   38.6040   26.8830   39.4500 O   0  0  0  0  0  0  0  0  0  0  0  0
   36.4210   26.5800   39.6000 N   0  0  0  0  0  0  0  0  0  0  0  0
   38.6530   26.3930   42.8410 C   0  0  0  0  0  0  0  0  0  0  0  0
   39.9050   26.2240   42.7140 O   0  0  0  0  0  0  0  0  0  0  0  0
   37.0730   30.7820   37.8590 C   0  0  0  0  0  0  0  0  0  0  0  0
   36.4310   29.5820   37.2670 C   0  0  0  0  0  0  0  0  0  0  0  0
   35.1350   29.2030   37.0030 C   0  0  0  0  0  0  0  0  0  0  0  0
   35.0800   27.9550   36.4290 C   0  0  0  0  0  0  0  0  0  0  0  0
   36.3690   27.5840   36.3520 N   0  0  0  0  0  0  0  0  0  0  0  0
   37.1580   28.5180   36.8330 N   0  0  0  0  0  0  0  0  0  0  0  0
   36.8740   26.3590   35.8280 C   0  0  0  0  0  0  0  0  0  0  0  0
   36.1780   25.6510   34.8600 C   0  0  0  0  0  0  0  0  0  0  0  0
   36.6880   24.4520   34.3590 C   0  0  0  0  0  0  0  0  0  0  0  0
   37.8690   23.9540   34.8050 N   0  0  0  0  0  0  0  0  0  0  0  0
   38.5030   24.6840   35.7490 C   0  0  0  0  0  0  0  0  0  0  0  0
   38.0600   25.8610   36.2800 N   0  0  0  0  0  0  0  0  0  0  0  0
   38.4037   29.8063   39.1163 H   0  0  0  0  0  0  0  0  0  0  0  0
   41.2048   32.9393   40.8291 H   0  0  0  0  0  0  0  0  0  0  0  0
   39.8864   35.1160   40.8269 H   0  0  0  0  0  0  0  0  0  0  0  0
   37.4823   35.0705   40.0243 H   0  0  0  0  0  0  0  0  0  0  0  0
   36.0571   31.0008   40.6155 H   0  0  0  0  0  0  0  0  0  0  0  0
   35.8795   29.4576   39.6711 H   0  0  0  0  0  0  0  0  0  0  0  0
   38.1820   28.8438   44.3618 H   0  0  0  0  0  0  0  0  0  0  0  0
   36.5005   25.9534   38.7864 H   0  0  0  0  0  0  0  0  0  0  0  0
   35.5021   26.7451   40.0350 H   0  0  0  0  0  0  0  0  0  0  0  0
   38.0108   25.5801   43.2109 H   0  0  0  0  0  0  0  0  0  0  0  0
   36.3137   31.5754   37.9223 H   0  0  0  0  0  0  0  0  0  0  0  0
   37.9186   31.0268   37.1994 H   0  0  0  0  0  0  0  0  0  0  0  0
   34.2526   29.8216   37.2237 H   0  0  0  0  0  0  0  0  0  0  0  0
   34.1905   27.3928   36.1084 H   0  0  0  0  0  0  0  0  0  0  0  0
   35.2185   26.0364   34.4847 H   0  0  0  0  0  0  0  0  0  0  0  0
   36.1240   23.9025   33.5910 H   0  0  0  0  0  0  0  0  0  0  0  0
   39.4616   24.2951   36.1229 H   0  0  0  0  0  0  0  0  0  0  0  0
  1  6  1  0
  1  8  1  0
  2  3  2  0
  4  3  1  0
  5  6  1  0
  5  4  2  0
  6  7  2  0
  7  2  1  0
  8  9  1  0
  9 10  1  0
 10 11  2  0
 12 17  1  0
 12 11  1  0
 13  9  1  0
 13 12  2  0
 14 13  1  0
 15 14  2  0
 16 14  1  0
 18 17  2  0
 19  1  1  0
 20 19  1  0
 21 20  1  0
 22 21  2  0
 23 22  1  0
 23 24  1  0
 24 20  2  0
 25 30  1  0
 25 23  1  0
 26 25  2  0
 27 28  2  0
 27 26  1  0
 28 29  1  0
 29 30  2  0
  1 31  1  6
  2 32  1  0
  3 33  1  0
  4 34  1  0
  8 35  1  0
  8 36  1  0
 11 37  1  0
 16 38  1  0
 16 39  1  0
 17 40  1  0
 19 41  1  0
 19 42  1  0
 21 43  1  0
 22 44  1  0
 26 45  1  0
 27 46  1  0
 29 47  1  0
M  ISO  8  31   8  32  14  33  14  34  14  35   8  36   8  37  14  40   6
M  ISO  7  41   8  42   8  43  14  44  14  45  14  46  14  47  14
M  END
>  <minimizedAffinity>  (1) 
-4.65257263

>  <minimizedRMSD>  (1) 
7.73950434

$$$$
