
     RDKit          3D

 46 49  0  0  1  0  0  0  0  0999 V2000
   39.3120   29.2350   38.3240 C   0  0  1  0  0  0  0  0  0  0  0  0
   37.9150   27.7940   41.3990 C   0  0  0  0  0  0  0  0  0  0  0  0
   37.0480   26.7750   40.8720 C   0  0  0  0  0  0  0  0  0  0  0  0
   36.9770   26.6240   39.4880 C   0  0  0  0  0  0  0  0  0  0  0  0
   37.7500   27.4700   38.7400 N   0  0  0  0  0  0  0  0  0  0  0  0
   38.5510   28.4130   39.2950 C   0  0  0  0  0  0  0  0  0  0  0  0
   38.6460   28.5880   40.5990 N   0  0  0  0  0  0  0  0  0  0  0  0
   40.0520   28.3580   37.2830 C   0  0  0  0  0  0  0  0  0  0  0  0
   41.4030   28.0460   37.6920 N   0  0  0  0  0  0  0  0  0  0  0  0
   41.8400   27.1260   38.5280 N   0  0  0  0  0  0  0  0  0  0  0  0
   43.1660   27.1140   38.6780 C   0  0  0  0  0  0  0  0  0  0  0  0
   43.6610   28.1030   37.8820 C   0  0  0  0  0  0  0  0  0  0  0  0
   42.5200   28.6510   37.2920 C   0  0  0  0  0  0  0  0  0  0  0  0
   42.6400   29.7400   36.3700 C   0  0  0  0  0  0  0  0  0  0  0  0
   42.2640   30.9330   36.5570 O   0  0  0  0  0  0  0  0  0  0  0  0
   43.2290   29.6220   35.0540 N   0  0  0  0  0  0  0  0  0  0  0  0
   45.0510   28.4870   37.6990 C   0  0  0  0  0  0  0  0  0  0  0  0
   45.5110   29.4420   38.4030 O   0  0  0  0  0  0  0  0  0  0  0  0
   38.4690   30.2380   37.6710 C   0  0  0  0  0  0  0  0  0  0  0  0
   38.2290   31.4740   38.4540 C   0  0  0  0  0  0  0  0  0  0  0  0
   37.1100   32.0890   38.9850 C   0  0  0  0  0  0  0  0  0  0  0  0
   37.4310   33.2460   39.6410 C   0  0  0  0  0  0  0  0  0  0  0  0
   38.7640   33.3290   39.5030 N   0  0  0  0  0  0  0  0  0  0  0  0
   39.2340   32.3100   38.8190 N   0  0  0  0  0  0  0  0  0  0  0  0
   39.5790   34.3820   40.0260 C   0  0  0  0  0  0  0  0  0  0  0  0
   40.9360   34.5610   39.8710 C   0  0  0  0  0  0  0  0  0  0  0  0
   41.3350   35.7170   40.5450 C   0  0  0  0  0  0  0  0  0  0  0  0
   40.1380   36.1850   41.0890 C   0  0  0  0  0  0  0  0  0  0  0  0
   39.1440   35.3920   40.7720 O   0  0  0  0  0  0  0  0  0  0  0  0
   40.0747   29.7780   38.9014 H   0  0  0  0  0  0  0  0  0  0  0  0
   37.9816   27.9272   42.4889 H   0  0  0  0  0  0  0  0  0  0  0  0
   36.4575   26.1328   41.5420 H   0  0  0  0  0  0  0  0  0  0  0  0
   36.3329   25.8641   39.0213 H   0  0  0  0  0  0  0  0  0  0  0  0
   40.0878   28.8989   36.3259 H   0  0  0  0  0  0  0  0  0  0  0  0
   39.5012   27.4106   37.1877 H   0  0  0  0  0  0  0  0  0  0  0  0
   43.7474   26.4363   39.3204 H   0  0  0  0  0  0  0  0  0  0  0  0
   43.5918   28.7135   34.7317 H   0  0  0  0  0  0  0  0  0  0  0  0
   43.2855   30.4465   34.4393 H   0  0  0  0  0  0  0  0  0  0  0  0
   45.6890   27.9653   36.9705 H   0  0  0  0  0  0  0  0  0  0  0  0
   38.9524   30.5239   36.7252 H   0  0  0  0  0  0  0  0  0  0  0  0
   37.4839   29.7666   37.5390 H   0  0  0  0  0  0  0  0  0  0  0  0
   36.0869   31.6960   38.8914 H   0  0  0  0  0  0  0  0  0  0  0  0
   36.7564   33.9435   40.1591 H   0  0  0  0  0  0  0  0  0  0  0  0
   41.6030   33.8954   39.3034 H   0  0  0  0  0  0  0  0  0  0  0  0
   42.3425   36.1510   40.6268 H   0  0  0  0  0  0  0  0  0  0  0  0
   40.0421   37.0947   41.7000 H   0  0  0  0  0  0  0  0  0  0  0  0
  1  6  1  0
  3  2  2  0
  4  3  1  0
  5  6  1  0
  5  4  2  0
  6  7  2  0
  7  2  1  0
  8  9  1  0
  8  1  1  0
  9 10  1  0
 10 11  2  0
 12 11  1  0
 13  9  1  0
 13 12  2  0
 14 15  2  0
 14 13  1  0
 16 14  1  0
 17 12  1  0
 17 18  2  0
 19  1  1  0
 19 20  1  0
 20 24  2  0
 20 21  1  0
 21 22  2  0
 23 22  1  0
 23 25  1  0
 24 23  1  0
 25 29  1  0
 26 25  2  0
 26 27  1  0
 27 28  2  0
 29 28  1  0
  1 30  1  1
  2 31  1  0
  3 32  1  0
  4 33  1  0
  8 34  1  0
  8 35  1  0
 11 36  1  0
 16 37  1  0
 16 38  1  0
 17 39  1  0
 19 40  1  0
 19 41  1  0
 21 42  1  0
 22 43  1  0
 26 44  1  0
 27 45  1  0
 28 46  1  0
M  ISO  8  30   8  31  14  32  14  33  14  34   8  35   8  36  14  39   6
M  ISO  7  40   8  41   8  42  14  43  14  44  14  45  14  46  14
M  END
>  <minimizedAffinity>  (1) 
-4.61388683

>  <minimizedRMSD>  (1) 
5.89868259

$$$$
