
     RDKit          3D

 20 20  0  0  0  0  0  0  0  0999 V2000
   39.8830   30.8060   41.5240 C   0  0  0  0  0  0  0  0  0  0  0  0
   39.0530   30.0810   42.3920 C   0  0  0  0  0  0  0  0  0  0  0  0
   37.6990   29.9710   42.1160 C   0  0  0  0  0  0  0  0  0  0  0  0
   37.2560   30.5910   40.9960 N   0  0  0  0  0  0  0  0  0  0  0  0
   38.0350   31.2860   40.1600 C   0  0  0  0  0  0  0  0  0  0  0  0
   39.3410   31.3890   40.4290 N   0  0  0  0  0  0  0  0  0  0  0  0
   36.8030   29.2560   42.9570 N   0  0  0  0  0  0  0  0  0  0  0  0
   37.2300   28.3500   43.9750 C   0  0  0  0  0  0  0  0  0  0  0  0
   38.3230   27.6970   43.7050 N   0  0  0  0  0  0  0  0  0  0  0  0
   36.4240   28.2740   45.1360 N   0  0  0  0  0  0  0  0  0  0  0  0
   38.6390   27.0470   44.4600 H   0  0  0  0  0  0  0  0  0  0  0  0
   37.4490   31.9310   38.9550 C   0  0  0  0  0  0  0  0  0  0  0  0
   36.8460   33.1390   39.2520 F   0  0  0  0  0  0  0  0  0  0  0  0
   38.3780   32.1730   37.9620 F   0  0  0  0  0  0  0  0  0  0  0  0
   36.4500   31.1500   38.3960 F   0  0  0  0  0  0  0  0  0  0  0  0
   40.9594   30.8995   41.7303 H   0  0  0  0  0  0  0  0  0  0  0  0
   39.4748   29.6018   43.2878 H   0  0  0  0  0  0  0  0  0  0  0  0
   35.7916   29.3991   42.8250 H   0  0  0  0  0  0  0  0  0  0  0  0
   36.6840   27.6372   45.9027 H   0  0  0  0  0  0  0  0  0  0  0  0
   35.5774   28.8555   45.2142 H   0  0  0  0  0  0  0  0  0  0  0  0
  1  2  2  0
  3  2  1  0
  3  7  1  0
  4  3  2  0
  5  6  2  0
  5  4  1  0
  6  1  1  0
  7  8  1  0
  8 10  1  0
  9  8  2  0
  9 11  1  0
 12 13  1  0
 12  5  1  0
 14 12  1  0
 15 12  1  0
  1 16  1  0
  2 17  1  0
  7 18  1  0
 10 19  1  0
 10 20  1  0
M  ISO  2  16  14  17  14
M  END
>  <minimizedAffinity>  (1) 
-5.08334398

>  <minimizedRMSD>  (1) 
1.42974925

$$$$
