
     RDKit          3D

 39 42  0  0  1  0  0  0  0  0999 V2000
   38.2930   30.6320   39.5260 C   0  0  1  0  0  0  0  0  0  0  0  0
   37.6990   30.7730   38.0980 C   0  0  0  0  0  0  0  0  0  0  0  0
   36.2910   30.2350   38.3240 C   0  0  0  0  0  0  0  0  0  0  0  0
   36.3420   29.3880   39.5750 C   0  0  0  0  0  0  0  0  0  0  0  0
   37.8200   29.2730   39.8840 C   0  0  2  0  0  0  0  0  0  0  0  0
   40.8330   35.4450   39.7100 C   0  0  0  0  0  0  0  0  0  0  0  0
   39.5560   35.9110   40.0670 C   0  0  0  0  0  0  0  0  0  0  0  0
   38.5700   34.9630   40.2820 C   0  0  0  0  0  0  0  0  0  0  0  0
   38.8990   33.6520   40.1340 N   0  0  0  0  0  0  0  0  0  0  0  0
   40.0970   33.2160   39.7990 C   0  0  0  0  0  0  0  0  0  0  0  0
   41.0780   34.1300   39.5850 N   0  0  0  0  0  0  0  0  0  0  0  0
   40.4860   31.8640   39.6240 N   0  0  0  0  0  0  0  0  0  0  0  0
   41.7870   31.6110   39.5660 N   0  0  0  0  0  0  0  0  0  0  0  0
   41.9520   30.2580   39.3800 C   0  0  0  0  0  0  0  0  0  0  0  0
   40.6590   29.7240   39.3320 C   0  0  0  0  0  0  0  0  0  0  0  0
   39.7400   30.7700   39.4910 C   0  0  0  0  0  0  0  0  0  0  0  0
   37.9480   28.9320   41.2760 N   0  0  0  0  0  0  0  0  0  0  0  0
   37.5840   29.6210   42.3310 N   0  0  0  0  0  0  0  0  0  0  0  0
   37.8700   28.9700   43.4780 C   0  0  0  0  0  0  0  0  0  0  0  0
   38.4600   27.7810   43.0890 C   0  0  0  0  0  0  0  0  0  0  0  0
   38.4990   27.7780   41.7220 C   0  0  0  0  0  0  0  0  0  0  0  0
   39.0610   26.6650   41.0020 C   0  0  0  0  0  0  0  0  0  0  0  0
   38.4610   25.5780   40.7070 O   0  0  0  0  0  0  0  0  0  0  0  0
   37.9868   31.3939   40.2580 H   0  0  0  0  0  0  0  0  0  0  0  0
   38.2526   30.1656   37.3668 H   0  0  0  0  0  0  0  0  0  0  0  0
   37.7379   31.7920   37.6856 H   0  0  0  0  0  0  0  0  0  0  0  0
   35.5848   31.0675   38.4590 H   0  0  0  0  0  0  0  0  0  0  0  0
   35.9514   29.6437   37.4609 H   0  0  0  0  0  0  0  0  0  0  0  0
   35.8075   29.8795   40.4013 H   0  0  0  0  0  0  0  0  0  0  0  0
   35.8615   28.4076   39.4406 H   0  0  0  0  0  0  0  0  0  0  0  0
   38.3987   28.5034   39.3523 H   0  0  0  0  0  0  0  0  0  0  0  0
   41.6432   36.1671   39.5304 H   0  0  0  0  0  0  0  0  0  0  0  0
   39.3481   36.9861   40.1714 H   0  0  0  0  0  0  0  0  0  0  0  0
   37.5498   35.2619   40.5644 H   0  0  0  0  0  0  0  0  0  0  0  0
   42.9015   29.7103   39.2882 H   0  0  0  0  0  0  0  0  0  0  0  0
   40.4068   28.6624   39.1929 H   0  0  0  0  0  0  0  0  0  0  0  0
   37.6751   29.3125   44.5050 H   0  0  0  0  0  0  0  0  0  0  0  0
   38.8288   26.9866   43.7545 H   0  0  0  0  0  0  0  0  0  0  0  0
   40.1069   26.7607   40.6751 H   0  0  0  0  0  0  0  0  0  0  0  0
  1  5  1  0
  2  3  1  0
  2  1  1  0
  3  4  1  0
  4  5  1  0
  5 17  1  0
  6  7  2  0
  7  8  1  0
  9  8  2  0
 10  9  1  0
 11  6  1  0
 11 10  2  0
 12 10  1  0
 13 12  1  0
 14 13  2  0
 15 14  1  0
 15 16  2  0
 16  1  1  0
 16 12  1  0
 17 21  1  0
 17 18  1  0
 18 19  2  0
 20 19  1  0
 21 20  2  0
 22 21  1  0
 23 22  2  0
  1 24  1  1
  2 25  1  0
  2 26  1  0
  3 27  1  0
  3 28  1  0
  4 29  1  0
  4 30  1  0
  5 31  1  6
  6 32  1  0
  7 33  1  0
  8 34  1  0
 14 35  1  0
 15 36  1  0
 19 37  1  0
 20 38  1  0
 22 39  1  0
M  ISO  8  24  13  25  13  26  13  27  13  28  13  29  13  30  13  31  13
M  ISO  8  32  14  33  14  34  14  35  14  36  14  37  14  38  14  39   6
M  END
>  <minimizedAffinity>  (1) 
-5.48386765

>  <minimizedRMSD>  (1) 
0.0463910289

$$$$
