
     RDKit          3D

 24 25  0  0  0  0  0  0  0  0999 V2000
   39.1600   30.6320   39.5470 C   0  0  0  0  0  0  0  0  0  0  0  0
   38.3830   29.8420   40.3980 C   0  0  0  0  0  0  0  0  0  0  0  0
   37.4020   30.4060   41.1860 C   0  0  0  0  0  0  0  0  0  0  0  0
   37.2370   31.7380   41.0910 N   0  0  0  0  0  0  0  0  0  0  0  0
   37.9520   32.5300   40.2970 C   0  0  0  0  0  0  0  0  0  0  0  0
   38.9190   31.9690   39.5220 N   0  0  0  0  0  0  0  0  0  0  0  0
   36.5680   29.6640   42.0770 N   0  0  0  0  0  0  0  0  0  0  0  0
   36.4460   28.2420   41.9980 C   0  0  0  0  0  0  0  0  0  0  0  0
   36.5400   27.7330   40.8270 N   0  0  0  0  0  0  0  0  0  0  0  0
   36.2380   27.5270   43.2090 N   0  0  0  0  0  0  0  0  0  0  0  0
   36.4930   26.6860   40.7450 H   0  0  0  0  0  0  0  0  0  0  0  0
   38.0940   33.8680   39.9160 C   0  0  0  0  0  0  0  0  0  0  0  0
   39.1950   34.2010   40.8660 C   0  0  0  0  0  0  0  0  0  0  0  0
   39.7090   35.4670   40.8790 N   0  0  0  0  0  0  0  0  0  0  0  0
   38.9920   36.1270   39.9200 C   0  0  0  0  0  0  0  0  0  0  0  0
   38.2250   35.1030   39.5660 N   0  0  0  0  0  0  0  0  0  0  0  0
   39.9429   30.1853   38.9165 H   0  0  0  0  0  0  0  0  0  0  0  0
   38.5560   28.7565   40.4399 H   0  0  0  0  0  0  0  0  0  0  0  0
   36.0371   30.1701   42.8001 H   0  0  0  0  0  0  0  0  0  0  0  0
   36.1453   26.5013   43.1921 H   0  0  0  0  0  0  0  0  0  0  0  0
   36.1800   28.0346   44.1033 H   0  0  0  0  0  0  0  0  0  0  0  0
   39.5893   33.4346   41.5495 H   0  0  0  0  0  0  0  0  0  0  0  0
   39.0362   37.1655   39.5600 H   0  0  0  0  0  0  0  0  0  0  0  0
   37.5640   35.3608   38.8194 H   0  0  0  0  0  0  0  0  0  0  0  0
  1  2  2  0
  2  3  1  0
  3  7  1  0
  4  3  2  0
  5  4  1  0
  6  1  1  0
  6  5  2  0
  8  7  1  0
  8 10  1  0
  9  8  2  0
 11  9  1  0
 12  5  1  0
 12 13  2  0
 13 14  1  0
 15 14  2  0
 16 12  1  0
 16 15  1  0
  1 17  1  0
  2 18  1  0
  7 19  1  0
 10 20  1  0
 10 21  1  0
 13 22  1  0
 15 23  1  0
 16 24  1  0
M  ISO  5  17  14  18  14  22  14  23  14  24   9
M  END
>  <minimizedAffinity>  (1) 
-4.88435078

>  <minimizedRMSD>  (1) 
2.4059844

$$$$
