
     RDKit          3D

 19 19  0  0  0  0  0  0  0  0999 V2000
   39.8650   30.6240   41.3420 C   0  0  0  0  0  0  0  0  0  0  0  0
   39.0640   29.9760   42.3030 C   0  0  0  0  0  0  0  0  0  0  0  0
   37.6990   29.8960   42.0600 C   0  0  0  0  0  0  0  0  0  0  0  0
   37.2140   30.4550   40.8940 N   0  0  0  0  0  0  0  0  0  0  0  0
   38.0100   31.0640   40.0010 C   0  0  0  0  0  0  0  0  0  0  0  0
   39.3270   31.1440   40.2310 N   0  0  0  0  0  0  0  0  0  0  0  0
   36.7960   29.2710   42.9660 N   0  0  0  0  0  0  0  0  0  0  0  0
   37.2060   28.3500   43.9630 C   0  0  0  0  0  0  0  0  0  0  0  0
   38.2440   27.6550   43.6800 N   0  0  0  0  0  0  0  0  0  0  0  0
   36.4550   28.2740   45.1610 N   0  0  0  0  0  0  0  0  0  0  0  0
   38.5910   27.0030   44.4260 H   0  0  0  0  0  0  0  0  0  0  0  0
   37.3220   31.5760   38.8650 N   0  0  0  0  0  0  0  0  0  0  0  0
   40.9496   30.7042   41.5067 H   0  0  0  0  0  0  0  0  0  0  0  0
   39.5050   29.5478   43.2152 H   0  0  0  0  0  0  0  0  0  0  0  0
   35.7943   29.4994   42.8935 H   0  0  0  0  0  0  0  0  0  0  0  0
   36.7316   27.6133   45.9012 H   0  0  0  0  0  0  0  0  0  0  0  0
   35.6321   28.8794   45.2923 H   0  0  0  0  0  0  0  0  0  0  0  0
   36.3016   31.4602   38.7855 H   0  0  0  0  0  0  0  0  0  0  0  0
   37.8445   32.0623   38.1224 H   0  0  0  0  0  0  0  0  0  0  0  0
  1  2  2  0
  3  2  1  0
  3  7  1  0
  4  3  2  0
  5  6  2  0
  5  4  1  0
  6  1  1  0
  7  8  1  0
  8 10  1  0
  9  8  2  0
  9 11  1  0
 12  5  1  0
  1 13  1  0
  2 14  1  0
  7 15  1  0
 10 16  1  0
 10 17  1  0
 12 18  1  0
 12 19  1  0
M  ISO  2  13  14  14  14
M  END
>  <minimizedAffinity>  (1) 
-4.20927143

>  <minimizedRMSD>  (1) 
1.36686563

$$$$
