
     RDKit          3D

 20 20  0  0  0  0  0  0  0  0999 V2000
   37.4310   33.5230   39.7470 C   0  0  0  0  0  0  0  0  0  0  0  0
   37.2870   32.5510   38.7400 C   0  0  0  0  0  0  0  0  0  0  0  0
   38.4250   31.9490   38.2250 C   0  0  0  0  0  0  0  0  0  0  0  0
   39.6290   32.3420   38.7350 N   0  0  0  0  0  0  0  0  0  0  0  0
   39.7650   33.2670   39.6940 C   0  0  0  0  0  0  0  0  0  0  0  0
   38.6540   33.8480   40.1900 N   0  0  0  0  0  0  0  0  0  0  0  0
   38.3750   30.9580   37.1960 N   0  0  0  0  0  0  0  0  0  0  0  0
   37.2000   30.2600   36.8540 C   0  0  0  0  0  0  0  0  0  0  0  0
   36.3770   30.0300   37.8270 N   0  0  0  0  0  0  0  0  0  0  0  0
   37.0360   29.8830   35.4890 N   0  0  0  0  0  0  0  0  0  0  0  0
   35.4850   29.5510   37.5590 H   0  0  0  0  0  0  0  0  0  0  0  0
   41.1300   33.6250   40.1810 C   0  0  0  0  0  0  0  0  0  0  0  0
   36.5426   34.0150   40.1697 H   0  0  0  0  0  0  0  0  0  0  0  0
   36.2897   32.2737   38.3680 H   0  0  0  0  0  0  0  0  0  0  0  0
   39.2400   30.7439   36.6795 H   0  0  0  0  0  0  0  0  0  0  0  0
   36.1923   29.3713   35.1939 H   0  0  0  0  0  0  0  0  0  0  0  0
   37.7613   30.1224   34.7979 H   0  0  0  0  0  0  0  0  0  0  0  0
   41.1380   33.6271   41.2810 H   0  0  0  0  0  0  0  0  0  0  0  0
   41.8567   32.8871   39.8104 H   0  0  0  0  0  0  0  0  0  0  0  0
   41.4010   34.6246   39.8104 H   0  0  0  0  0  0  0  0  0  0  0  0
  1  6  2  0
  2  1  1  0
  3  4  1  0
  3  2  2  0
  4  5  2  0
  5 12  1  0
  5  6  1  0
  7  3  1  0
  8  7  1  0
  8  9  2  0
 10  8  1  0
 11  9  1  0
  1 13  1  0
  2 14  1  0
  7 15  1  0
 10 16  1  0
 10 17  1  0
 12 18  1  0
 12 19  1  0
 12 20  1  0
M  ISO  5  13  14  14  14  18   8  19   8  20   8
M  END
>  <minimizedAffinity>  (1) 
-3.54046345

>  <minimizedRMSD>  (1) 
4.90829515

$$$$
