
     RDKit          3D

 39 41  0  0  0  0  0  0  0  0999 V2000
   40.3330   30.7180   40.1830 C   0  0  0  0  0  0  0  0  0  0  0  0
   40.9540   31.6840   39.3470 C   0  0  0  0  0  0  0  0  0  0  0  0
   40.3080   32.0820   38.1950 C   0  0  0  0  0  0  0  0  0  0  0  0
   39.0940   31.5190   37.9230 N   0  0  0  0  0  0  0  0  0  0  0  0
   38.5050   30.6090   38.7080 C   0  0  0  0  0  0  0  0  0  0  0  0
   39.1420   30.2130   39.8470 N   0  0  0  0  0  0  0  0  0  0  0  0
   40.8780   33.0410   37.3200 N   0  0  0  0  0  0  0  0  0  0  0  0
   41.8900   33.9530   37.7000 C   0  0  0  0  0  0  0  0  0  0  0  0
   41.9010   34.3240   38.9310 N   0  0  0  0  0  0  0  0  0  0  0  0
   42.7900   34.3660   36.6860 N   0  0  0  0  0  0  0  0  0  0  0  0
   42.6840   34.9470   39.2360 H   0  0  0  0  0  0  0  0  0  0  0  0
   37.1820   30.0030   38.3990 C   0  0  0  0  0  0  0  0  0  0  0  0
   36.7080   29.3310   39.6680 C   0  0  0  0  0  0  0  0  0  0  0  0
   36.5240   27.9060   39.3930 C   0  0  0  0  0  0  0  0  0  0  0  0
   36.1430   27.5530   38.0950 C   0  0  0  0  0  0  0  0  0  0  0  0
   35.9430   26.2600   37.6620 C   0  0  0  0  0  0  0  0  0  0  0  0
   36.1270   25.2260   38.5560 C   0  0  0  0  0  0  0  0  0  0  0  0
   36.5040   25.5360   39.8490 C   0  0  0  0  0  0  0  0  0  0  0  0
   36.6950   24.5370   40.7760 C   0  0  0  0  0  0  0  0  0  0  0  0
   37.0670   24.8460   42.0720 C   0  0  0  0  0  0  0  0  0  0  0  0
   37.2570   26.1710   42.4650 C   0  0  0  0  0  0  0  0  0  0  0  0
   37.0680   27.1750   41.5400 C   0  0  0  0  0  0  0  0  0  0  0  0
   36.6970   26.8470   40.2520 C   0  0  0  0  0  0  0  0  0  0  0  0
   40.8316   30.3860   41.1056 H   0  0  0  0  0  0  0  0  0  0  0  0
   41.9335   32.1075   39.6137 H   0  0  0  0  0  0  0  0  0  0  0  0
   40.5345   33.0756   36.3496 H   0  0  0  0  0  0  0  0  0  0  0  0
   43.5463   35.0292   36.9076 H   0  0  0  0  0  0  0  0  0  0  0  0
   42.6878   34.0030   35.7275 H   0  0  0  0  0  0  0  0  0  0  0  0
   36.4692   30.7831   38.0935 H   0  0  0  0  0  0  0  0  0  0  0  0
   37.2595   29.2810   37.5727 H   0  0  0  0  0  0  0  0  0  0  0  0
   37.4587   29.4627   40.4612 H   0  0  0  0  0  0  0  0  0  0  0  0
   35.7598   29.7778   40.0016 H   0  0  0  0  0  0  0  0  0  0  0  0
   35.9922   28.3646   37.3680 H   0  0  0  0  0  0  0  0  0  0  0  0
   35.6425   26.0566   36.6236 H   0  0  0  0  0  0  0  0  0  0  0  0
   35.9774   24.1808   38.2476 H   0  0  0  0  0  0  0  0  0  0  0  0
   36.5509   23.4861   40.4846 H   0  0  0  0  0  0  0  0  0  0  0  0
   37.2149   24.0366   42.8021 H   0  0  0  0  0  0  0  0  0  0  0  0
   37.5530   26.4106   43.4970 H   0  0  0  0  0  0  0  0  0  0  0  0
   37.2115   28.2275   41.8256 H   0  0  0  0  0  0  0  0  0  0  0  0
  2  1  2  0
  3  2  1  0
  4  3  2  0
  4  5  1  0
  5  6  2  0
  6  1  1  0
  7  8  1  0
  7  3  1  0
  8  9  2  0
  9 11  1  0
 10  8  1  0
 12  5  1  0
 12 13  1  0
 14 13  1  0
 14 23  1  0
 15 14  2  0
 16 15  1  0
 16 17  2  0
 17 18  1  0
 18 23  2  0
 18 19  1  0
 19 20  2  0
 20 21  1  0
 22 21  2  0
 23 22  1  0
  1 24  1  0
  2 25  1  0
  7 26  1  0
 10 27  1  0
 10 28  1  0
 12 29  1  0
 12 30  1  0
 13 31  1  0
 13 32  1  0
 15 33  1  0
 16 34  1  0
 17 35  1  0
 19 36  1  0
 20 37  1  0
 21 38  1  0
 22 39  1  0
M  ISO  8  24  14  25  14  29   8  30   8  31   8  32   8  33  14  34  14
M  ISO  5  35  14  36  14  37  14  38  14  39  14
M  END
>  <minimizedAffinity>  (1) 
-6.3444953

>  <minimizedRMSD>  (1) 
8.38510895

$$$$
