
     RDKit          3D

 36 37  0  0  0  0  0  0  0  0999 V2000
   39.0960   28.4910   40.0860 C   0  0  0  0  0  0  0  0  0  0  0  0
   38.4310   28.3800   41.3380 C   0  0  0  0  0  0  0  0  0  0  0  0
   37.5040   29.3420   41.6820 C   0  0  0  0  0  0  0  0  0  0  0  0
   37.2990   30.3290   40.7890 N   0  0  0  0  0  0  0  0  0  0  0  0
   37.9020   30.4630   39.6120 C   0  0  0  0  0  0  0  0  0  0  0  0
   38.8190   29.5100   39.2740 N   0  0  0  0  0  0  0  0  0  0  0  0
   36.8040   29.2950   42.9130 N   0  0  0  0  0  0  0  0  0  0  0  0
   36.6770   28.1280   43.7030 C   0  0  0  0  0  0  0  0  0  0  0  0
   36.6650   27.0120   43.0830 N   0  0  0  0  0  0  0  0  0  0  0  0
   36.5760   28.3240   45.1070 N   0  0  0  0  0  0  0  0  0  0  0  0
   36.6690   26.1340   43.6670 H   0  0  0  0  0  0  0  0  0  0  0  0
   37.6520   31.5680   38.6550 C   0  0  0  0  0  0  0  0  0  0  0  0
   37.3830   32.8020   39.5030 C   0  0  0  0  0  0  0  0  0  0  0  0
   40.8100   34.9340   40.7740 C   0  0  0  0  0  0  0  0  0  0  0  0
   39.5930   35.5850   40.6530 C   0  0  0  0  0  0  0  0  0  0  0  0
   38.5310   34.8130   40.2320 C   0  0  0  0  0  0  0  0  0  0  0  0
   38.6320   33.4690   39.9390 C   0  0  0  0  0  0  0  0  0  0  0  0
   39.8790   32.8470   40.0740 C   0  0  0  0  0  0  0  0  0  0  0  0
   40.9750   33.5910   40.4960 C   0  0  0  0  0  0  0  0  0  0  0  0
   42.1870   35.8730   41.3040 S   0  0  0  0  0  0  0  0  0  0  0  0
   41.8100   36.8510   42.3890 O   0  0  0  0  0  0  0  0  0  0  0  0
   43.2670   34.9570   41.8430 O   0  0  0  0  0  0  0  0  0  0  0  0
   39.8385   27.7360   39.7883 H   0  0  0  0  0  0  0  0  0  0  0  0
   38.6512   27.5441   42.0183 H   0  0  0  0  0  0  0  0  0  0  0  0
   36.3617   30.1610   43.2527 H   0  0  0  0  0  0  0  0  0  0  0  0
   36.4815   27.5129   45.7347 H   0  0  0  0  0  0  0  0  0  0  0  0
   36.5973   29.2772   45.4968 H   0  0  0  0  0  0  0  0  0  0  0  0
   36.7795   31.3388   38.0255 H   0  0  0  0  0  0  0  0  0  0  0  0
   38.5082   31.7200   37.9814 H   0  0  0  0  0  0  0  0  0  0  0  0
   36.7894   33.5148   38.9117 H   0  0  0  0  0  0  0  0  0  0  0  0
   36.8422   32.4788   40.4047 H   0  0  0  0  0  0  0  0  0  0  0  0
   39.4806   36.6555   40.8796 H   0  0  0  0  0  0  0  0  0  0  0  0
   37.5486   35.2958   40.1238 H   0  0  0  0  0  0  0  0  0  0  0  0
   39.9909   31.7764   39.8476 H   0  0  0  0  0  0  0  0  0  0  0  0
   41.9610   33.1162   40.6071 H   0  0  0  0  0  0  0  0  0  0  0  0
   42.6445   36.5682   40.2158 H   0  0  0  0  0  0  0  0  0  0  0  0
  1  2  2  0
  2  3  1  0
  3  7  1  0
  4  3  2  0
  5  4  1  0
  6  5  2  0
  6  1  1  0
  7  8  1  0
  8 10  1  0
  9 11  1  0
  9  8  2  0
 12 13  1  0
 12  5  1  0
 13 17  1  0
 14 20  1  0
 15 14  2  0
 16 15  1  0
 17 18  1  0
 17 16  2  0
 18 19  2  0
 19 14  1  0
 20 22  2  0
 20 21  2  0
  1 23  1  0
  2 24  1  0
  7 25  1  0
 10 26  1  0
 10 27  1  0
 12 28  1  0
 12 29  1  0
 13 30  1  0
 13 31  1  0
 15 32  1  0
 16 33  1  0
 18 34  1  0
 19 35  1  0
 20 36  1  0
M  ISO  8  23  14  24  14  28   8  29   8  30   8  31   8  32  14  33  14
M  ISO  3  34  14  35  14  36  11
M  END
>  <minimizedAffinity>  (1) 
-5.93893623

>  <minimizedRMSD>  (1) 
1.33381391

$$$$
