
     RDKit          3D

 30 31  0  0  0  0  0  0  0  0999 V2000
   40.4950   30.0120   41.7350 C   0  0  0  0  0  0  0  0  0  0  0  0
   39.4850   29.4960   42.5830 C   0  0  0  0  0  0  0  0  0  0  0  0
   38.1740   29.8590   42.3500 C   0  0  0  0  0  0  0  0  0  0  0  0
   37.9680   30.6900   41.3130 N   0  0  0  0  0  0  0  0  0  0  0  0
   38.8930   31.1910   40.4990 C   0  0  0  0  0  0  0  0  0  0  0  0
   40.1700   30.8360   40.7290 N   0  0  0  0  0  0  0  0  0  0  0  0
   37.1110   29.3840   43.1600 N   0  0  0  0  0  0  0  0  0  0  0  0
   37.1990   28.2520   43.9910 C   0  0  0  0  0  0  0  0  0  0  0  0
   37.9860   27.3180   43.6000 N   0  0  0  0  0  0  0  0  0  0  0  0
   36.4080   28.2580   45.1700 N   0  0  0  0  0  0  0  0  0  0  0  0
   38.1210   26.5020   44.2520 H   0  0  0  0  0  0  0  0  0  0  0  0
   38.5740   32.1160   39.3670 C   0  0  0  0  0  0  0  0  0  0  0  0
   38.1920   33.4430   40.0100 C   0  0  0  0  0  0  0  0  0  0  0  0
   39.2390   34.4160   39.8920 N   0  0  0  0  0  0  0  0  0  0  0  0
   40.5070   34.2770   39.5370 N   0  0  0  0  0  0  0  0  0  0  0  0
   41.1040   35.4800   39.5730 C   0  0  0  0  0  0  0  0  0  0  0  0
   40.1880   36.4580   39.9710 C   0  0  0  0  0  0  0  0  0  0  0  0
   39.0160   35.7350   40.1610 C   0  0  0  0  0  0  0  0  0  0  0  0
   41.5468   29.7364   41.9020 H   0  0  0  0  0  0  0  0  0  0  0  0
   39.7404   28.8189   43.4114 H   0  0  0  0  0  0  0  0  0  0  0  0
   36.2196   29.8996   43.1386 H   0  0  0  0  0  0  0  0  0  0  0  0
   36.4356   27.4537   45.8128 H   0  0  0  0  0  0  0  0  0  0  0  0
   35.8066   29.0667   45.3826 H   0  0  0  0  0  0  0  0  0  0  0  0
   37.7349   31.7217   38.7750 H   0  0  0  0  0  0  0  0  0  0  0  0
   39.4283   32.2286   38.6833 H   0  0  0  0  0  0  0  0  0  0  0  0
   37.2890   33.8307   39.5157 H   0  0  0  0  0  0  0  0  0  0  0  0
   38.0125   33.2638   41.0804 H   0  0  0  0  0  0  0  0  0  0  0  0
   42.1592   35.6679   39.3255 H   0  0  0  0  0  0  0  0  0  0  0  0
   40.3542   37.5375   40.1020 H   0  0  0  0  0  0  0  0  0  0  0  0
   38.0538   36.1619   40.4801 H   0  0  0  0  0  0  0  0  0  0  0  0
  1  2  2  0
  3  2  1  0
  3  7  1  0
  4  3  2  0
  5  6  2  0
  5  4  1  0
  6  1  1  0
  7  8  1  0
  8 10  1  0
  9  8  2  0
  9 11  1  0
 12 13  1  0
 12  5  1  0
 14 13  1  0
 14 18  1  0
 15 16  2  0
 15 14  1  0
 16 17  1  0
 17 18  2  0
  1 19  1  0
  2 20  1  0
  7 21  1  0
 10 22  1  0
 10 23  1  0
 12 24  1  0
 12 25  1  0
 13 26  1  0
 13 27  1  0
 16 28  1  0
 17 29  1  0
 18 30  1  0
M  ISO  8  19  14  20  14  24   8  25   8  26   8  27   8  28  14  29  14
M  ISO  1  30  14
M  END
>  <minimizedAffinity>  (1) 
-5.55771255

>  <minimizedRMSD>  (1) 
1.02672243

$$$$
