
     RDKit          3D

 36 37  0  0  0  0  0  0  0  0999 V2000
   40.2910   27.5710   42.0550 C   0  0  0  0  0  0  0  0  0  0  0  0
   39.1720   27.7230   42.9210 C   0  0  0  0  0  0  0  0  0  0  0  0
   38.6250   28.9780   43.0930 C   0  0  0  0  0  0  0  0  0  0  0  0
   39.2180   29.9730   42.4060 N   0  0  0  0  0  0  0  0  0  0  0  0
   40.2620   29.8630   41.5910 C   0  0  0  0  0  0  0  0  0  0  0  0
   40.7970   28.6270   41.4250 N   0  0  0  0  0  0  0  0  0  0  0  0
   37.5100   29.1800   43.9450 N   0  0  0  0  0  0  0  0  0  0  0  0
   36.6230   28.1700   44.3510 C   0  0  0  0  0  0  0  0  0  0  0  0
   36.4590   27.1860   43.5390 N   0  0  0  0  0  0  0  0  0  0  0  0
   36.0030   28.3370   45.6030 N   0  0  0  0  0  0  0  0  0  0  0  0
   35.8340   26.4000   43.8470 H   0  0  0  0  0  0  0  0  0  0  0  0
   40.8440   31.0450   40.8750 C   0  0  0  0  0  0  0  0  0  0  0  0
   39.6810   32.0080   40.6800 C   0  0  0  0  0  0  0  0  0  0  0  0
   38.9270   31.6770   39.4790 N   0  0  0  0  0  0  0  0  0  0  0  0
   37.8090   30.9290   39.4500 C   0  0  0  0  0  0  0  0  0  0  0  0
   37.1820   30.6850   38.2460 C   0  0  0  0  0  0  0  0  0  0  0  0
   35.9590   29.8620   38.2460 C   0  0  0  0  0  0  0  0  0  0  0  0
   37.6640   31.1870   37.0480 C   0  0  0  0  0  0  0  0  0  0  0  0
   37.1130   30.9810   35.9360 O   0  0  0  0  0  0  0  0  0  0  0  0
   38.7950   31.9370   37.1290 N   0  0  0  0  0  0  0  0  0  0  0  0
   39.4180   32.1820   38.3110 C   0  0  0  0  0  0  0  0  0  0  0  0
   40.4760   32.8940   38.3130 O   0  0  0  0  0  0  0  0  0  0  0  0
   40.7386   26.5772   41.9064 H   0  0  0  0  0  0  0  0  0  0  0  0
   38.7495   26.8532   43.4453 H   0  0  0  0  0  0  0  0  0  0  0  0
   37.3385   30.1350   44.2906 H   0  0  0  0  0  0  0  0  0  0  0  0
   35.3432   27.6262   45.9499 H   0  0  0  0  0  0  0  0  0  0  0  0
   36.2089   29.1701   46.1726 H   0  0  0  0  0  0  0  0  0  0  0  0
   41.6339   31.5123   41.4813 H   0  0  0  0  0  0  0  0  0  0  0  0
   41.3050   30.7591   39.9181 H   0  0  0  0  0  0  0  0  0  0  0  0
   39.0135   31.9476   41.5522 H   0  0  0  0  0  0  0  0  0  0  0  0
   40.0826   33.0264   40.5728 H   0  0  0  0  0  0  0  0  0  0  0  0
   37.3971   30.5142   40.3818 H   0  0  0  0  0  0  0  0  0  0  0  0
   35.6548   29.6573   39.2831 H   0  0  0  0  0  0  0  0  0  0  0  0
   35.1534   30.4024   37.7275 H   0  0  0  0  0  0  0  0  0  0  0  0
   36.1562   28.9122   37.7275 H   0  0  0  0  0  0  0  0  0  0  0  0
   39.1928   32.3327   36.2652 H   0  0  0  0  0  0  0  0  0  0  0  0
  1  2  2  0
  2  3  1  0
  3  7  1  0
  4  3  2  0
  5  4  1  0
  6  5  2  0
  6  1  1  0
  7  8  1  0
  8 10  1  0
  9 11  1  0
  9  8  2  0
 12  5  1  0
 13 12  1  0
 14 13  1  0
 15 14  1  0
 16 15  2  0
 17 16  1  0
 18 20  1  0
 18 16  1  0
 19 18  2  0
 20 21  1  0
 21 22  2  0
 21 14  1  0
  1 23  1  0
  2 24  1  0
  7 25  1  0
 10 26  1  0
 10 27  1  0
 12 28  1  0
 12 29  1  0
 13 30  1  0
 13 31  1  0
 15 32  1  0
 17 33  1  0
 17 34  1  0
 17 35  1  0
 20 36  1  0
M  ISO  8  23  14  24  14  28   8  29   8  30   8  31   8  32  14  33   8
M  ISO  3  34   8  35   8  36   9
M  END
>  <minimizedAffinity>  (1) 
-5.53312016

>  <minimizedRMSD>  (1) 
3.92319679

$$$$
