
     RDKit          3D

 28 29  0  0  0  0  0  0  0  0999 V2000
   40.3750   30.4730   41.8700 C   0  0  0  0  0  0  0  0  0  0  0  0
   39.3860   29.8090   42.6460 C   0  0  0  0  0  0  0  0  0  0  0  0
   38.0600   29.9820   42.3080 C   0  0  0  0  0  0  0  0  0  0  0  0
   37.8040   30.7790   41.2540 N   0  0  0  0  0  0  0  0  0  0  0  0
   38.7330   31.4150   40.5090 C   0  0  0  0  0  0  0  0  0  0  0  0
   40.0160   31.2370   40.8500 N   0  0  0  0  0  0  0  0  0  0  0  0
   37.0190   29.3520   43.0410 N   0  0  0  0  0  0  0  0  0  0  0  0
   37.2090   28.2240   43.8670 C   0  0  0  0  0  0  0  0  0  0  0  0
   38.1530   27.4350   43.5760 N   0  0  0  0  0  0  0  0  0  0  0  0
   36.3420   28.0560   44.9510 N   0  0  0  0  0  0  0  0  0  0  0  0
   38.3770   26.6280   44.2130 H   0  0  0  0  0  0  0  0  0  0  0  0
   38.3510   32.2820   39.3740 C   0  0  0  0  0  0  0  0  0  0  0  0
   37.8830   33.5850   39.9450 C   0  0  0  0  0  0  0  0  0  0  0  0
   39.0010   34.5530   39.9480 C   0  0  0  0  0  0  0  0  0  0  0  0
   38.5590   35.8460   39.9310 N   0  0  0  0  0  0  0  0  0  0  0  0
   39.5730   36.6520   39.9250 O   0  0  0  0  0  0  0  0  0  0  0  0
   40.6930   36.0100   39.9360 C   0  0  0  0  0  0  0  0  0  0  0  0
   40.3320   34.7230   39.9500 N   0  0  0  0  0  0  0  0  0  0  0  0
   41.4400   30.3518   42.1174 H   0  0  0  0  0  0  0  0  0  0  0  0
   39.6716   29.1721   43.4962 H   0  0  0  0  0  0  0  0  0  0  0  0
   36.0687   29.7419   42.9650 H   0  0  0  0  0  0  0  0  0  0  0  0
   36.4501   27.2444   45.5760 H   0  0  0  0  0  0  0  0  0  0  0  0
   35.5952   28.7438   45.1246 H   0  0  0  0  0  0  0  0  0  0  0  0
   37.5411   31.8115   38.7972 H   0  0  0  0  0  0  0  0  0  0  0  0
   39.2054   32.4378   38.6989 H   0  0  0  0  0  0  0  0  0  0  0  0
   37.0589   33.9788   39.3320 H   0  0  0  0  0  0  0  0  0  0  0  0
   37.5316   33.4281   40.9755 H   0  0  0  0  0  0  0  0  0  0  0  0
   41.7111   36.4266   39.9343 H   0  0  0  0  0  0  0  0  0  0  0  0
  1  2  2  0
  3  2  1  0
  3  7  1  0
  4  3  2  0
  5  6  2  0
  5  4  1  0
  6  1  1  0
  7  8  1  0
  8 10  1  0
  9  8  2  0
  9 11  1  0
 12 13  1  0
 12  5  1  0
 13 14  1  0
 14 18  1  0
 15 14  2  0
 16 15  1  0
 16 17  1  0
 17 18  2  0
  1 19  1  0
  2 20  1  0
  7 21  1  0
 10 22  1  0
 10 23  1  0
 12 24  1  0
 12 25  1  0
 13 26  1  0
 13 27  1  0
 17 28  1  0
M  ISO  7  19  14  20  14  24   8  25   8  26   8  27   8  28  14
M  END
>  <minimizedAffinity>  (1) 
-5.51862431

>  <minimizedRMSD>  (1) 
0.641896605

$$$$
