
     RDKit          3D

 31 32  0  0  0  0  0  0  0  0999 V2000
   40.9140   29.0820   41.9660 C   0  0  0  0  0  0  0  0  0  0  0  0
   39.7550   28.8190   42.7390 C   0  0  0  0  0  0  0  0  0  0  0  0
   38.6810   29.6780   42.6340 C   0  0  0  0  0  0  0  0  0  0  0  0
   38.8280   30.7230   41.7820 N   0  0  0  0  0  0  0  0  0  0  0  0
   39.9070   30.9850   41.0500 C   0  0  0  0  0  0  0  0  0  0  0  0
   40.9550   30.1470   41.1520 N   0  0  0  0  0  0  0  0  0  0  0  0
   37.4930   29.4750   43.3840 N   0  0  0  0  0  0  0  0  0  0  0  0
   37.1320   28.2430   43.9640 C   0  0  0  0  0  0  0  0  0  0  0  0
   37.5270   27.1970   43.3640 N   0  0  0  0  0  0  0  0  0  0  0  0
   36.3700   28.2860   45.1530 N   0  0  0  0  0  0  0  0  0  0  0  0
   37.2770   26.2640   43.7620 H   0  0  0  0  0  0  0  0  0  0  0  0
   39.9930   32.1640   40.1340 C   0  0  0  0  0  0  0  0  0  0  0  0
   41.1410   33.0190   40.6560 C   0  0  0  0  0  0  0  0  0  0  0  0
   40.6700   34.4400   40.4990 C   0  0  0  0  0  0  0  0  0  0  0  0
   39.3400   34.5890   40.1330 C   0  0  0  0  0  0  0  0  0  0  0  0
   38.8540   35.8730   39.9760 C   0  0  0  0  0  0  0  0  0  0  0  0
   39.6270   36.9730   40.1660 N   0  0  0  0  0  0  0  0  0  0  0  0
   40.9050   36.7610   40.5190 C   0  0  0  0  0  0  0  0  0  0  0  0
   41.4260   35.5420   40.6840 N   0  0  0  0  0  0  0  0  0  0  0  0
   41.7824   28.4103   42.0341 H   0  0  0  0  0  0  0  0  0  0  0  0
   39.7131   27.9475   43.4089 H   0  0  0  0  0  0  0  0  0  0  0  0
   36.8576   30.2755   43.5116 H   0  0  0  0  0  0  0  0  0  0  0  0
   36.0830   27.4101   45.6127 H   0  0  0  0  0  0  0  0  0  0  0  0
   36.1015   29.1932   45.5601 H   0  0  0  0  0  0  0  0  0  0  0  0
   39.0522   32.7335   40.1549 H   0  0  0  0  0  0  0  0  0  0  0  0
   40.1634   31.8534   39.0926 H   0  0  0  0  0  0  0  0  0  0  0  0
   41.3419   32.7928   41.7136 H   0  0  0  0  0  0  0  0  0  0  0  0
   42.0777   32.8312   40.1107 H   0  0  0  0  0  0  0  0  0  0  0  0
   38.6935   33.7135   39.9730 H   0  0  0  0  0  0  0  0  0  0  0  0
   37.8016   36.0090   39.6863 H   0  0  0  0  0  0  0  0  0  0  0  0
   41.5548   37.6338   40.6802 H   0  0  0  0  0  0  0  0  0  0  0  0
  1  2  2  0
  3  2  1  0
  3  7  1  0
  4  3  2  0
  5  6  2  0
  5  4  1  0
  6  1  1  0
  7  8  1  0
  8 10  1  0
  9 11  1  0
  9  8  2  0
 12 13  1  0
 12  5  1  0
 14 13  1  0
 14 19  1  0
 15 14  2  0
 16 15  1  0
 16 17  2  0
 17 18  1  0
 18 19  2  0
  1 20  1  0
  2 21  1  0
  7 22  1  0
 10 23  1  0
 10 24  1  0
 12 25  1  0
 12 26  1  0
 13 27  1  0
 13 28  1  0
 15 29  1  0
 16 30  1  0
 18 31  1  0
M  ISO  8  20  14  21  14  25   8  26   8  27   8  28   8  29  14  30  14
M  ISO  1  31  14
M  END
>  <minimizedAffinity>  (1) 
-5.51306725

>  <minimizedRMSD>  (1) 
3.46779466

$$$$
