
     RDKit          3D

 30 31  0  0  0  0  0  0  0  0999 V2000
   40.5400   29.7710   41.7910 C   0  0  0  0  0  0  0  0  0  0  0  0
   39.4940   29.3280   42.6460 C   0  0  0  0  0  0  0  0  0  0  0  0
   38.2070   29.7660   42.4080 C   0  0  0  0  0  0  0  0  0  0  0  0
   38.0230   30.5960   41.3650 N   0  0  0  0  0  0  0  0  0  0  0  0
   38.9910   31.0270   40.5460 C   0  0  0  0  0  0  0  0  0  0  0  0
   40.2530   30.6040   40.7720 N   0  0  0  0  0  0  0  0  0  0  0  0
   37.1310   29.3550   43.2320 N   0  0  0  0  0  0  0  0  0  0  0  0
   37.1550   28.2110   44.0620 C   0  0  0  0  0  0  0  0  0  0  0  0
   37.8980   27.2330   43.6780 N   0  0  0  0  0  0  0  0  0  0  0  0
   36.3550   28.2620   45.2340 N   0  0  0  0  0  0  0  0  0  0  0  0
   37.9780   26.4160   44.3280 H   0  0  0  0  0  0  0  0  0  0  0  0
   38.7610   31.9460   39.4030 C   0  0  0  0  0  0  0  0  0  0  0  0
   38.0780   33.1720   39.9500 C   0  0  0  0  0  0  0  0  0  0  0  0
   38.9820   34.2990   39.9230 C   0  0  0  0  0  0  0  0  0  0  0  0
   38.7740   35.6310   40.1570 C   0  0  0  0  0  0  0  0  0  0  0  0
   39.8180   36.5090   40.0620 C   0  0  0  0  0  0  0  0  0  0  0  0
   41.0840   35.9590   39.7140 C   0  0  0  0  0  0  0  0  0  0  0  0
   40.7440   34.1310   39.5240 S   0  0  0  0  0  0  0  0  0  0  0  0
   41.5742   29.4366   41.9600 H   0  0  0  0  0  0  0  0  0  0  0  0
   39.7070   28.6473   43.4835 H   0  0  0  0  0  0  0  0  0  0  0  0
   36.2746   29.9273   43.2261 H   0  0  0  0  0  0  0  0  0  0  0  0
   36.3322   27.4580   45.8774 H   0  0  0  0  0  0  0  0  0  0  0  0
   35.7975   29.1030   45.4408 H   0  0  0  0  0  0  0  0  0  0  0  0
   38.1204   31.4608   38.6519 H   0  0  0  0  0  0  0  0  0  0  0  0
   39.7115   32.2116   38.9172 H   0  0  0  0  0  0  0  0  0  0  0  0
   37.1941   33.4001   39.3363 H   0  0  0  0  0  0  0  0  0  0  0  0
   37.7733   32.9803   40.9894 H   0  0  0  0  0  0  0  0  0  0  0  0
   37.7699   35.9945   40.4208 H   0  0  0  0  0  0  0  0  0  0  0  0
   39.6862   37.5856   40.2452 H   0  0  0  0  0  0  0  0  0  0  0  0
   42.0404   36.4872   39.5865 H   0  0  0  0  0  0  0  0  0  0  0  0
  1  2  2  0
  3  2  1  0
  3  7  1  0
  4  3  2  0
  5  6  2  0
  5  4  1  0
  6  1  1  0
  7  8  1  0
  8 10  1  0
  9  8  2  0
  9 11  1  0
 12 13  1  0
 12  5  1  0
 14 13  1  0
 14 15  2  0
 16 15  1  0
 17 16  2  0
 18 17  1  0
 18 14  1  0
  1 19  1  0
  2 20  1  0
  7 21  1  0
 10 22  1  0
 10 23  1  0
 12 24  1  0
 12 25  1  0
 13 26  1  0
 13 27  1  0
 15 28  1  0
 16 29  1  0
 17 30  1  0
M  ISO  8  19  14  20  14  24   8  25   8  26   8  27   8  28  14  29  14
M  ISO  1  30  14
M  END
>  <minimizedAffinity>  (1) 
-5.51022768

>  <minimizedRMSD>  (1) 
0.975984931

$$$$
