
     RDKit          3D

 16 17  0  0  0  0  0  0  0  0999 V2000
   37.2580   31.3860   40.1370 C   0  0  0  0  0  0  0  0  0  0  0  0
   36.2540   30.8960   41.0000 C   0  0  0  0  0  0  0  0  0  0  0  0
   35.9070   29.5440   40.8870 C   0  0  0  0  0  0  0  0  0  0  0  0
   36.5530   28.7890   39.9590 N   0  0  0  0  0  0  0  0  0  0  0  0
   37.5060   29.2880   39.1510 C   0  0  0  0  0  0  0  0  0  0  0  0
   37.8610   30.5800   39.2360 N   0  0  0  0  0  0  0  0  0  0  0  0
   37.7180   32.7370   40.1330 N   0  0  0  0  0  0  0  0  0  0  0  0
   37.3880   33.9120   39.5670 C   0  0  0  0  0  0  0  0  0  0  0  0
   38.2750   34.8470   40.0030 N   0  0  0  0  0  0  0  0  0  0  0  0
   39.1470   34.2220   40.8410 C   0  0  0  0  0  0  0  0  0  0  0  0
   38.7790   32.9230   40.9020 N   0  0  0  0  0  0  0  0  0  0  0  0
   35.7626   31.5517   41.7338 H   0  0  0  0  0  0  0  0  0  0  0  0
   35.1321   29.1044   41.5321 H   0  0  0  0  0  0  0  0  0  0  0  0
   37.9974   28.6334   38.4162 H   0  0  0  0  0  0  0  0  0  0  0  0
   36.5506   34.0858   38.8752 H   0  0  0  0  0  0  0  0  0  0  0  0
   39.9924   34.6870   41.3693 H   0  0  0  0  0  0  0  0  0  0  0  0
  1  2  2  0
  3  2  1  0
  4  3  2  0
  5  6  2  0
  5  4  1  0
  6  1  1  0
  7  1  1  0
  7 11  1  0
  8  9  2  0
  8  7  1  0
  9 10  1  0
 10 11  2  0
  2 12  1  0
  3 13  1  0
  5 14  1  0
  8 15  1  0
 10 16  1  0
M  ISO  5  12  14  13  14  14  14  15  14  16  14
M  END
>  <minimizedAffinity>  (1) 
-3.21439385

>  <minimizedRMSD>  (1) 
4.7972579

$$$$
