
     RDKit          3D

 30 33  0  0  0  0  0  0  0  0999 V2000
   39.4660   34.2290   40.1440 N   0  0  0  0  0  0  0  0  0  0  0  0
   39.2240   35.5020   40.4700 C   0  0  0  0  0  0  0  0  0  0  0  0
   40.3780   36.0550   40.8930 N   0  0  0  0  0  0  0  0  0  0  0  0
   41.3430   35.1140   40.8280 C   0  0  0  0  0  0  0  0  0  0  0  0
   40.7290   34.0170   40.3630 N   0  0  0  0  0  0  0  0  0  0  0  0
   42.7900   35.0460   41.1310 C   0  0  0  0  0  0  0  0  0  0  0  0
   43.6520   34.2580   40.4220 N   0  0  0  0  0  0  0  0  0  0  0  0
   44.9490   34.1870   40.6820 C   0  0  0  0  0  0  0  0  0  0  0  0
   45.5240   34.8840   41.6660 N   0  0  0  0  0  0  0  0  0  0  0  0
   44.7510   35.6780   42.4070 C   0  0  0  0  0  0  0  0  0  0  0  0
   45.3290   36.4030   43.4260 C   0  0  0  0  0  0  0  0  0  0  0  0
   44.5870   37.2400   44.2260 C   0  0  0  0  0  0  0  0  0  0  0  0
   43.2220   37.3120   43.9490 C   0  0  0  0  0  0  0  0  0  0  0  0
   42.6780   36.5790   42.9290 C   0  0  0  0  0  0  0  0  0  0  0  0
   43.4040   35.7510   42.1360 C   0  0  0  0  0  0  0  0  0  0  0  0
   38.7530   33.0900   39.6480 C   0  0  0  0  0  0  0  0  0  0  0  0
   37.4650   32.7360   40.0790 C   0  0  0  0  0  0  0  0  0  0  0  0
   36.9060   31.5840   39.4940 C   0  0  0  0  0  0  0  0  0  0  0  0
   37.6280   30.9070   38.5770 N   0  0  0  0  0  0  0  0  0  0  0  0
   38.8650   31.2830   38.1920 C   0  0  0  0  0  0  0  0  0  0  0  0
   39.4220   32.3750   38.7300 N   0  0  0  0  0  0  0  0  0  0  0  0
   38.2509   36.0108   40.4045 H   0  0  0  0  0  0  0  0  0  0  0  0
   45.5769   33.5286   40.0637 H   0  0  0  0  0  0  0  0  0  0  0  0
   46.4105   36.3101   43.6040 H   0  0  0  0  0  0  0  0  0  0  0  0
   45.0451   37.8210   45.0400 H   0  0  0  0  0  0  0  0  0  0  0  0
   42.5765   37.9639   44.5559 H   0  0  0  0  0  0  0  0  0  0  0  0
   41.5974   36.6655   42.7426 H   0  0  0  0  0  0  0  0  0  0  0  0
   36.9224   33.3261   40.8322 H   0  0  0  0  0  0  0  0  0  0  0  0
   35.9000   31.2424   39.7790 H   0  0  0  0  0  0  0  0  0  0  0  0
   39.4128   30.6957   37.4403 H   0  0  0  0  0  0  0  0  0  0  0  0
  1  5  1  0
  1  2  1  0
  2  3  2  0
  4  3  1  0
  4  6  1  0
  5  4  2  0
  6 15  2  0
  7  8  2  0
  7  6  1  0
  8  9  1  0
  9 10  2  0
 10 11  1  0
 11 12  2  0
 13 12  1  0
 14 13  2  0
 15 10  1  0
 15 14  1  0
 16 17  2  0
 16  1  1  0
 18 17  1  0
 19 18  2  0
 20 19  1  0
 20 21  2  0
 21 16  1  0
  2 22  1  0
  8 23  1  0
 11 24  1  0
 12 25  1  0
 13 26  1  0
 14 27  1  0
 17 28  1  0
 18 29  1  0
 20 30  1  0
M  ISO  8  22  14  23  14  24  14  25  14  26  14  27  14  28  14  29  14
M  ISO  1  30  14
M  END
>  <minimizedAffinity>  (1) 
-6.4364357

>  <minimizedRMSD>  (1) 
2.91935968

$$$$
