
     RDKit          3D

 23 25  0  0  0  0  0  0  0  0999 V2000
   41.6720   31.7740   39.7310 C   0  0  0  0  0  0  0  0  0  0  0  0
   40.6980   31.1840   40.5640 C   0  0  0  0  0  0  0  0  0  0  0  0
   39.4030   31.0300   40.0620 C   0  0  0  0  0  0  0  0  0  0  0  0
   39.1310   31.4560   38.7900 N   0  0  0  0  0  0  0  0  0  0  0  0
   40.0960   32.0170   38.0240 C   0  0  0  0  0  0  0  0  0  0  0  0
   41.3500   32.1740   38.4870 N   0  0  0  0  0  0  0  0  0  0  0  0
   39.7310   32.4370   36.7010 N   0  0  0  0  0  0  0  0  0  0  0  0
   38.4460   30.4420   40.9000 N   0  0  0  0  0  0  0  0  0  0  0  0
   37.1320   30.7510   40.9340 C   0  0  0  0  0  0  0  0  0  0  0  0
   36.4950   29.9930   41.8580 N   0  0  0  0  0  0  0  0  0  0  0  0
   37.3850   29.1730   42.4470 C   0  0  0  0  0  0  0  0  0  0  0  0
   37.3730   28.1970   43.4280 C   0  0  0  0  0  0  0  0  0  0  0  0
   38.4920   27.5400   43.7920 N   0  0  0  0  0  0  0  0  0  0  0  0
   39.6730   27.8390   43.1850 C   0  0  0  0  0  0  0  0  0  0  0  0
   39.6890   28.7910   42.2280 N   0  0  0  0  0  0  0  0  0  0  0  0
   38.5930   29.4660   41.8380 C   0  0  0  0  0  0  0  0  0  0  0  0
   42.6996   31.9077   40.1001 H   0  0  0  0  0  0  0  0  0  0  0  0
   40.9514   30.8538   41.5822 H   0  0  0  0  0  0  0  0  0  0  0  0
   38.7652   32.3070   36.3675 H   0  0  0  0  0  0  0  0  0  0  0  0
   40.4349   32.8684   36.0851 H   0  0  0  0  0  0  0  0  0  0  0  0
   36.6481   31.5099   40.3016 H   0  0  0  0  0  0  0  0  0  0  0  0
   36.4231   27.9504   43.9248 H   0  0  0  0  0  0  0  0  0  0  0  0
   40.5973   27.3146   43.4690 H   0  0  0  0  0  0  0  0  0  0  0  0
  1  2  2  0
  3  2  1  0
  3  8  1  0
  4  3  2  0
  5  6  2  0
  5  4  1  0
  6  1  1  0
  7  5  1  0
  8  9  1  0
  8 16  1  0
  9 10  2  0
 10 11  1  0
 11 12  2  0
 12 13  1  0
 14 13  2  0
 15 14  1  0
 16 15  2  0
 16 11  1  0
  1 17  1  0
  2 18  1  0
  7 19  1  0
  7 20  1  0
  9 21  1  0
 12 22  1  0
 14 23  1  0
M  ISO  5  17  14  18  14  21  14  22  14  23  14
M  END
>  <minimizedAffinity>  (1) 
-4.75121117

>  <minimizedRMSD>  (1) 
5.38248062

$$$$
