
     RDKit          3D

 29 31  0  0  0  0  0  0  0  0999 V2000
   39.4090   34.1510   40.3330 N   0  0  0  0  0  0  0  0  0  0  0  0
   39.2880   35.4610   40.0780 C   0  0  0  0  0  0  0  0  0  0  0  0
   40.4480   36.0630   40.4590 N   0  0  0  0  0  0  0  0  0  0  0  0
   41.2740   35.0980   40.9500 C   0  0  0  0  0  0  0  0  0  0  0  0
   40.6020   33.9230   40.8600 N   0  0  0  0  0  0  0  0  0  0  0  0
   42.6100   35.2750   41.4720 N   0  0  0  0  0  0  0  0  0  0  0  0
   43.6140   34.5310   40.9680 C   0  0  0  0  0  0  0  0  0  0  0  0
   44.8940   34.7250   41.4920 C   0  0  0  0  0  0  0  0  0  0  0  0
   45.9930   33.8990   40.9300 C   0  0  0  0  0  0  0  0  0  0  0  0
   45.1040   35.6570   42.4970 C   0  0  0  0  0  0  0  0  0  0  0  0
   46.2630   35.8280   42.9660 O   0  0  0  0  0  0  0  0  0  0  0  0
   44.0400   36.3670   42.9490 N   0  0  0  0  0  0  0  0  0  0  0  0
   42.7840   36.1870   42.4460 C   0  0  0  0  0  0  0  0  0  0  0  0
   41.8760   36.8980   42.9400 O   0  0  0  0  0  0  0  0  0  0  0  0
   38.6200   32.9630   40.1960 C   0  0  0  0  0  0  0  0  0  0  0  0
   38.7100   31.8540   41.0700 C   0  0  0  0  0  0  0  0  0  0  0  0
   37.8690   30.7660   40.8010 C   0  0  0  0  0  0  0  0  0  0  0  0
   37.0360   30.8390   39.7390 N   0  0  0  0  0  0  0  0  0  0  0  0
   36.9770   31.9040   38.9310 C   0  0  0  0  0  0  0  0  0  0  0  0
   37.7660   32.9720   39.1520 N   0  0  0  0  0  0  0  0  0  0  0  0
   38.4105   35.9594   39.6402 H   0  0  0  0  0  0  0  0  0  0  0  0
   43.4316   33.7955   40.1706 H   0  0  0  0  0  0  0  0  0  0  0  0
   46.5780   33.4593   41.7512 H   0  0  0  0  0  0  0  0  0  0  0  0
   45.5678   33.0950   40.3113 H   0  0  0  0  0  0  0  0  0  0  0  0
   46.6471   34.5309   40.3113 H   0  0  0  0  0  0  0  0  0  0  0  0
   44.1844   37.0630   43.6944 H   0  0  0  0  0  0  0  0  0  0  0  0
   39.4074   31.8463   41.9207 H   0  0  0  0  0  0  0  0  0  0  0  0
   37.8863   29.8713   41.4406 H   0  0  0  0  0  0  0  0  0  0  0  0
   36.2792   31.9068   38.0807 H   0  0  0  0  0  0  0  0  0  0  0  0
  1  5  1  0
  2  1  1  0
  2  3  2  0
  3  4  1  0
  4  6  1  0
  5  4  2  0
  6 13  1  0
  7  6  1  0
  7  8  2  0
  8 10  1  0
  9  8  1  0
 10 12  1  0
 10 11  2  0
 13 14  2  0
 13 12  1  0
 15  1  1  0
 15 16  2  0
 17 16  1  0
 18 17  2  0
 19 20  2  0
 19 18  1  0
 20 15  1  0
  2 21  1  0
  7 22  1  0
  9 23  1  0
  9 24  1  0
  9 25  1  0
 12 26  1  0
 16 27  1  0
 17 28  1  0
 19 29  1  0
M  ISO  8  21  14  22  14  23   8  24   8  25   8  26   9  27  14  28  14
M  ISO  1  29  14
M  END
>  <minimizedAffinity>  (1) 
-5.71595287

>  <minimizedRMSD>  (1) 
2.52761173

$$$$
