
     RDKit          3D

 27 29  0  0  0  0  0  0  0  0999 V2000
   39.3370   34.1610   40.3000 N   0  0  0  0  0  0  0  0  0  0  0  0
   39.1890   35.4730   40.0630 C   0  0  0  0  0  0  0  0  0  0  0  0
   40.3160   36.0980   40.4950 N   0  0  0  0  0  0  0  0  0  0  0  0
   41.1500   35.1400   40.9980 C   0  0  0  0  0  0  0  0  0  0  0  0
   40.5100   33.9610   40.8590 N   0  0  0  0  0  0  0  0  0  0  0  0
   42.4570   35.3790   41.5610 N   0  0  0  0  0  0  0  0  0  0  0  0
   43.3770   34.5450   41.0040 C   0  0  0  0  0  0  0  0  0  0  0  0
   44.6940   34.5890   41.3840 C   0  0  0  0  0  0  0  0  0  0  0  0
   45.0410   35.5240   42.3630 C   0  0  0  0  0  0  0  0  0  0  0  0
   46.4030   35.5850   42.7710 N   0  0  0  0  0  0  0  0  0  0  0  0
   44.1050   36.3120   42.8720 N   0  0  0  0  0  0  0  0  0  0  0  0
   42.8190   36.2530   42.4870 C   0  0  0  0  0  0  0  0  0  0  0  0
   41.8790   36.9610   42.9180 O   0  0  0  0  0  0  0  0  0  0  0  0
   38.5940   32.9530   40.1190 C   0  0  0  0  0  0  0  0  0  0  0  0
   38.6420   31.8560   40.9920 C   0  0  0  0  0  0  0  0  0  0  0  0
   37.8540   30.7400   40.6800 C   0  0  0  0  0  0  0  0  0  0  0  0
   37.0890   30.7870   39.5470 N   0  0  0  0  0  0  0  0  0  0  0  0
   37.0710   31.8580   38.7340 C   0  0  0  0  0  0  0  0  0  0  0  0
   37.8130   32.9390   39.0090 N   0  0  0  0  0  0  0  0  0  0  0  0
   38.3143   35.9555   39.6026 H   0  0  0  0  0  0  0  0  0  0  0  0
   43.0591   33.8239   40.2366 H   0  0  0  0  0  0  0  0  0  0  0  0
   45.4435   33.9185   40.9383 H   0  0  0  0  0  0  0  0  0  0  0  0
   46.6953   36.2618   43.4903 H   0  0  0  0  0  0  0  0  0  0  0  0
   47.0964   34.9523   42.3470 H   0  0  0  0  0  0  0  0  0  0  0  0
   39.2764   31.8713   41.8905 H   0  0  0  0  0  0  0  0  0  0  0  0
   37.8507   29.8511   41.3280 H   0  0  0  0  0  0  0  0  0  0  0  0
   36.4400   31.8463   37.8331 H   0  0  0  0  0  0  0  0  0  0  0  0
  1  5  1  0
  2  1  1  0
  2  3  2  0
  3  4  1  0
  4  6  1  0
  5  4  2  0
  6 12  1  0
  7  8  2  0
  7  6  1  0
  8  9  1  0
  9 10  1  0
  9 11  2  0
 12 11  1  0
 12 13  2  0
 14  1  1  0
 14 15  2  0
 16 15  1  0
 17 16  2  0
 18 19  2  0
 18 17  1  0
 19 14  1  0
  2 20  1  0
  7 21  1  0
  8 22  1  0
 10 23  1  0
 10 24  1  0
 15 25  1  0
 16 26  1  0
 18 27  1  0
M  ISO  6  20  14  21  14  22  14  25  14  26  14  27  14
M  END
>  <minimizedAffinity>  (1) 
-5.69907284

>  <minimizedRMSD>  (1) 
2.38292813

$$$$
