
     RDKit          3D

 26 28  0  0  0  0  0  0  0  0999 V2000
   39.8350   34.2130   40.2020 N   0  0  0  0  0  0  0  0  0  0  0  0
   39.8180   35.5220   39.8670 C   0  0  0  0  0  0  0  0  0  0  0  0
   40.9760   36.0790   40.3120 N   0  0  0  0  0  0  0  0  0  0  0  0
   41.6930   35.0880   40.9220 C   0  0  0  0  0  0  0  0  0  0  0  0
   40.9650   33.9480   40.8400 N   0  0  0  0  0  0  0  0  0  0  0  0
   42.9660   35.3430   41.5020 N   0  0  0  0  0  0  0  0  0  0  0  0
   44.0790   34.7450   41.0380 C   0  0  0  0  0  0  0  0  0  0  0  0
   45.3280   34.9990   41.6140 C   0  0  0  0  0  0  0  0  0  0  0  0
   45.2990   35.8930   42.6650 C   0  0  0  0  0  0  0  0  0  0  0  0
   46.4060   36.1560   43.2180 O   0  0  0  0  0  0  0  0  0  0  0  0
   44.2130   36.5130   43.1590 N   0  0  0  0  0  0  0  0  0  0  0  0
   43.0390   36.2140   42.5500 C   0  0  0  0  0  0  0  0  0  0  0  0
   41.9640   36.7470   42.9450 O   0  0  0  0  0  0  0  0  0  0  0  0
   39.0000   33.0740   40.0650 C   0  0  0  0  0  0  0  0  0  0  0  0
   37.5970   33.1400   39.8710 C   0  0  0  0  0  0  0  0  0  0  0  0
   36.9020   31.9270   39.7520 C   0  0  0  0  0  0  0  0  0  0  0  0
   37.6090   30.7790   39.8290 N   0  0  0  0  0  0  0  0  0  0  0  0
   38.9320   30.7450   40.0130 C   0  0  0  0  0  0  0  0  0  0  0  0
   39.6290   31.8900   40.1310 N   0  0  0  0  0  0  0  0  0  0  0  0
   39.0118   36.0436   39.3304 H   0  0  0  0  0  0  0  0  0  0  0  0
   44.0051   34.0454   40.1924 H   0  0  0  0  0  0  0  0  0  0  0  0
   46.2555   34.5259   41.2591 H   0  0  0  0  0  0  0  0  0  0  0  0
   44.2692   37.1721   43.9485 H   0  0  0  0  0  0  0  0  0  0  0  0
   37.0732   34.1057   39.8159 H   0  0  0  0  0  0  0  0  0  0  0  0
   35.8126   31.9116   39.6004 H   0  0  0  0  0  0  0  0  0  0  0  0
   39.4531   29.7778   40.0682 H   0  0  0  0  0  0  0  0  0  0  0  0
  1  5  1  0
  2  1  1  0
  2  3  2  0
  3  4  1  0
  4  6  1  0
  5  4  2  0
  6 12  1  0
  7  6  1  0
  7  8  2  0
  8  9  1  0
  9 11  1  0
  9 10  2  0
 12 13  2  0
 12 11  1  0
 14 19  1  0
 14  1  1  0
 15 14  2  0
 16 17  2  0
 16 15  1  0
 17 18  1  0
 18 19  2  0
  2 20  1  0
  7 21  1  0
  8 22  1  0
 11 23  1  0
 15 24  1  0
 16 25  1  0
 18 26  1  0
M  ISO  7  20  14  21  14  22  14  23   9  24  14  25  14  26  14
M  END
>  <minimizedAffinity>  (1) 
-5.56243181

>  <minimizedRMSD>  (1) 
2.83866191

$$$$
