
     RDKit          3D

 30 32  0  0  0  0  0  0  0  0999 V2000
   37.6730   31.2770   40.9460 N   0  0  0  0  0  0  0  0  0  0  0  0
   36.9790   31.9610   40.0150 C   0  0  0  0  0  0  0  0  0  0  0  0
   37.6910   33.0900   39.7370 N   0  0  0  0  0  0  0  0  0  0  0  0
   38.8070   33.0770   40.5010 C   0  0  0  0  0  0  0  0  0  0  0  0
   38.7740   31.9530   41.2360 N   0  0  0  0  0  0  0  0  0  0  0  0
   39.7730   34.1210   40.4510 N   0  0  0  0  0  0  0  0  0  0  0  0
   41.0200   33.8690   39.7640 C   0  0  0  0  0  0  0  0  0  0  0  0
   41.5110   35.0580   38.9860 C   0  0  0  0  0  0  0  0  0  0  0  0
   41.1380   36.3290   39.5280 N   0  0  0  0  0  0  0  0  0  0  0  0
   39.7590   36.4290   39.9240 C   0  0  0  0  0  0  0  0  0  0  0  0
   39.5480   35.4190   41.0600 C   0  0  0  0  0  0  0  0  0  0  0  0
   37.5550   30.0610   41.6850 C   0  0  0  0  0  0  0  0  0  0  0  0
   38.4180   29.6870   42.7240 C   0  0  0  0  0  0  0  0  0  0  0  0
   38.1780   28.4610   43.3590 C   0  0  0  0  0  0  0  0  0  0  0  0
   37.1170   27.7140   42.9200 N   0  0  0  0  0  0  0  0  0  0  0  0
   36.3100   28.0990   41.9250 C   0  0  0  0  0  0  0  0  0  0  0  0
   36.5360   29.2720   41.3140 N   0  0  0  0  0  0  0  0  0  0  0  0
   36.0201   31.6646   39.5648 H   0  0  0  0  0  0  0  0  0  0  0  0
   41.7825   33.5981   40.5091 H   0  0  0  0  0  0  0  0  0  0  0  0
   40.8420   33.0554   39.0454 H   0  0  0  0  0  0  0  0  0  0  0  0
   41.1059   34.9896   37.9656 H   0  0  0  0  0  0  0  0  0  0  0  0
   42.6097   35.0178   39.0221 H   0  0  0  0  0  0  0  0  0  0  0  0
   41.7239   36.5099   40.3556 H   0  0  0  0  0  0  0  0  0  0  0  0
   39.5397   37.4473   40.2774 H   0  0  0  0  0  0  0  0  0  0  0  0
   39.0895   36.2158   39.0777 H   0  0  0  0  0  0  0  0  0  0  0  0
   38.5238   35.4890   41.4550 H   0  0  0  0  0  0  0  0  0  0  0  0
   40.2243   35.6018   41.9080 H   0  0  0  0  0  0  0  0  0  0  0  0
   39.2541   30.3329   43.0302 H   0  0  0  0  0  0  0  0  0  0  0  0
   38.8192   28.1107   44.1813 H   0  0  0  0  0  0  0  0  0  0  0  0
   35.4706   27.4611   41.6113 H   0  0  0  0  0  0  0  0  0  0  0  0
  1  5  1  0
  1 12  1  0
  2  1  1  0
  3  2  2  0
  3  4  1  0
  4  5  2  0
  6  4  1  0
  6 11  1  0
  7  6  1  0
  8  9  1  0
  8  7  1  0
  9 10  1  0
 10 11  1  0
 12 13  2  0
 13 14  1  0
 15 14  2  0
 16 15  1  0
 17 12  1  0
 17 16  2  0
  2 18  1  0
  7 19  1  0
  7 20  1  0
  8 21  1  0
  8 22  1  0
  9 23  1  0
 10 24  1  0
 10 25  1  0
 11 26  1  0
 11 27  1  0
 13 28  1  0
 14 29  1  0
 16 30  1  0
M  ISO  8  18  14  19  13  20  13  21  13  22  13  23   5  24  13  25  13
M  ISO  5  26  13  27  13  28  14  29  14  30  14
M  END
>  <minimizedAffinity>  (1) 
-5.4574604

>  <minimizedRMSD>  (1) 
2.34874749

$$$$
