
     RDKit          3D

 26 28  0  0  0  0  0  0  0  0999 V2000
   39.4790   30.4400   41.4720 C   0  0  0  0  0  0  0  0  0  0  0  0
   39.0140   29.1800   40.9770 C   0  0  0  0  0  0  0  0  0  0  0  0
   37.8090   29.1290   40.2980 C   0  0  0  0  0  0  0  0  0  0  0  0
   37.1100   30.3100   40.1310 N   0  0  0  0  0  0  0  0  0  0  0  0
   37.5770   31.4670   40.6080 C   0  0  0  0  0  0  0  0  0  0  0  0
   38.7560   31.5510   41.2790 N   0  0  0  0  0  0  0  0  0  0  0  0
   36.7790   32.6350   40.3840 N   0  0  0  0  0  0  0  0  0  0  0  0
   37.2910   27.8700   39.7720 C   0  0  0  0  0  0  0  0  0  0  0  0
   36.9010   27.6720   38.4630 C   0  0  0  0  0  0  0  0  0  0  0  0
   36.4980   26.3870   38.4210 N   0  0  0  0  0  0  0  0  0  0  0  0
   36.6210   25.7930   39.6300 C   0  0  0  0  0  0  0  0  0  0  0  0
   36.3160   24.4950   39.9990 C   0  0  0  0  0  0  0  0  0  0  0  0
   36.5600   24.2010   41.3260 C   0  0  0  0  0  0  0  0  0  0  0  0
   37.0630   25.0710   42.2690 C   0  0  0  0  0  0  0  0  0  0  0  0
   37.3490   26.3570   41.8390 C   0  0  0  0  0  0  0  0  0  0  0  0
   37.1320   26.7270   40.5300 C   0  0  0  0  0  0  0  0  0  0  0  0
   40.4348   30.4962   42.0136 H   0  0  0  0  0  0  0  0  0  0  0  0
   39.6055   28.2659   41.1339 H   0  0  0  0  0  0  0  0  0  0  0  0
   37.0969   33.5506   40.7327 H   0  0  0  0  0  0  0  0  0  0  0  0
   35.8872   32.5594   39.8742 H   0  0  0  0  0  0  0  0  0  0  0  0
   36.9158   28.4002   37.6386 H   0  0  0  0  0  0  0  0  0  0  0  0
   36.1419   25.9172   37.5764 H   0  0  0  0  0  0  0  0  0  0  0  0
   35.9114   23.7561   39.2917 H   0  0  0  0  0  0  0  0  0  0  0  0
   36.3319   23.1784   41.6611 H   0  0  0  0  0  0  0  0  0  0  0  0
   37.2292   24.7602   43.3110 H   0  0  0  0  0  0  0  0  0  0  0  0
   37.7540   27.0909   42.5513 H   0  0  0  0  0  0  0  0  0  0  0  0
  2  1  2  0
  3  2  1  0
  4  3  2  0
  4  5  1  0
  5  6  2  0
  6  1  1  0
  7  5  1  0
  8  3  1  0
  8 16  1  0
  9  8  2  0
 10  9  1  0
 10 11  1  0
 11 12  2  0
 11 16  1  0
 12 13  1  0
 13 14  2  0
 15 14  1  0
 16 15  2  0
  1 17  1  0
  2 18  1  0
  7 19  1  0
  7 20  1  0
  9 21  1  0
 10 22  1  0
 12 23  1  0
 13 24  1  0
 14 25  1  0
 15 26  1  0
M  ISO  8  17  14  18  14  21  14  22   9  23  14  24  14  25  14  26  14
M  END
>  <minimizedAffinity>  (1) 
-4.62554836

>  <minimizedRMSD>  (1) 
3.63228798

$$$$
