
     RDKit          3D

 23 25  0  0  0  0  0  0  0  0999 V2000
   37.6120   30.5280   41.3910 N   0  0  0  0  0  0  0  0  0  0  0  0
   36.6040   31.0870   40.7150 C   0  0  0  0  0  0  0  0  0  0  0  0
   37.0010   32.2800   40.2420 N   0  0  0  0  0  0  0  0  0  0  0  0
   38.2960   32.4550   40.6440 C   0  0  0  0  0  0  0  0  0  0  0  0
   38.6450   31.3600   41.3500 N   0  0  0  0  0  0  0  0  0  0  0  0
   37.8910   29.3360   42.1210 C   0  0  0  0  0  0  0  0  0  0  0  0
   36.9210   28.3900   42.4930 C   0  0  0  0  0  0  0  0  0  0  0  0
   37.3490   27.2670   43.2110 C   0  0  0  0  0  0  0  0  0  0  0  0
   38.6850   27.1680   43.5010 N   0  0  0  0  0  0  0  0  0  0  0  0
   39.5810   28.0880   43.1300 C   0  0  0  0  0  0  0  0  0  0  0  0
   39.2020   29.1740   42.4420 N   0  0  0  0  0  0  0  0  0  0  0  0
   39.1260   33.6510   40.3340 C   0  0  0  0  0  0  0  0  0  0  0  0
   38.8330   34.9480   40.5030 C   0  0  0  0  0  0  0  0  0  0  0  0
   39.7380   35.9130   40.1530 C   0  0  0  0  0  0  0  0  0  0  0  0
   40.9760   35.3970   39.6120 C   0  0  0  0  0  0  0  0  0  0  0  0
   40.6780   33.5240   39.6740 S   0  0  0  0  0  0  0  0  0  0  0  0
   35.6088   30.6417   40.5692 H   0  0  0  0  0  0  0  0  0  0  0  0
   35.8619   28.5270   42.2292 H   0  0  0  0  0  0  0  0  0  0  0  0
   36.6380   26.4912   43.5312 H   0  0  0  0  0  0  0  0  0  0  0  0
   40.6407   27.9523   43.3921 H   0  0  0  0  0  0  0  0  0  0  0  0
   37.8597   35.2383   40.9254 H   0  0  0  0  0  0  0  0  0  0  0  0
   39.5408   36.9885   40.2728 H   0  0  0  0  0  0  0  0  0  0  0  0
   41.8600   35.9470   39.2571 H   0  0  0  0  0  0  0  0  0  0  0  0
  1  6  1  0
  2  1  1  0
  3  4  1  0
  3  2  2  0
  4  5  2  0
  5  1  1  0
  6 11  1  0
  6  7  2  0
  7  8  1  0
  8  9  2  0
 10  9  1  0
 11 10  2  0
 12 13  2  0
 12  4  1  0
 14 13  1  0
 15 16  1  0
 15 14  2  0
 16 12  1  0
  2 17  1  0
  7 18  1  0
  8 19  1  0
 10 20  1  0
 13 21  1  0
 14 22  1  0
 15 23  1  0
M  ISO  7  17  14  18  14  19  14  20  14  21  14  22  14  23  14
M  END
>  <minimizedAffinity>  (1) 
-5.02305794

>  <minimizedRMSD>  (1) 
3.12885332

$$$$
