
     RDKit          3D

 23 25  0  0  0  0  0  0  0  0999 V2000
   38.1140   31.5760   40.9700 N   0  0  0  0  0  0  0  0  0  0  0  0
   37.1440   32.1220   40.2280 C   0  0  0  0  0  0  0  0  0  0  0  0
   37.5770   33.3200   39.7790 N   0  0  0  0  0  0  0  0  0  0  0  0
   38.8340   33.5070   40.2580 C   0  0  0  0  0  0  0  0  0  0  0  0
   39.1450   32.4080   40.9960 N   0  0  0  0  0  0  0  0  0  0  0  0
   38.3530   30.3850   41.7240 C   0  0  0  0  0  0  0  0  0  0  0  0
   37.3230   29.5750   42.2390 C   0  0  0  0  0  0  0  0  0  0  0  0
   37.7110   28.4300   42.9640 C   0  0  0  0  0  0  0  0  0  0  0  0
   39.0310   28.1840   43.1180 N   0  0  0  0  0  0  0  0  0  0  0  0
   39.9820   28.9850   42.6090 C   0  0  0  0  0  0  0  0  0  0  0  0
   39.6500   30.0840   41.9130 N   0  0  0  0  0  0  0  0  0  0  0  0
   39.6790   34.6870   40.0110 C   0  0  0  0  0  0  0  0  0  0  0  0
   39.2180   35.9940   40.1790 C   0  0  0  0  0  0  0  0  0  0  0  0
   40.2910   36.7970   39.8520 C   0  0  0  0  0  0  0  0  0  0  0  0
   41.3450   36.0210   39.5070 N   0  0  0  0  0  0  0  0  0  0  0  0
   40.9590   34.7620   39.6070 N   0  0  0  0  0  0  0  0  0  0  0  0
   36.1620   31.6724   40.0193 H   0  0  0  0  0  0  0  0  0  0  0  0
   36.2631   29.8244   42.0827 H   0  0  0  0  0  0  0  0  0  0  0  0
   36.9578   27.7533   43.3939 H   0  0  0  0  0  0  0  0  0  0  0  0
   41.0427   28.7380   42.7640 H   0  0  0  0  0  0  0  0  0  0  0  0
   38.2164   36.3141   40.5020 H   0  0  0  0  0  0  0  0  0  0  0  0
   40.2902   37.8969   39.8690 H   0  0  0  0  0  0  0  0  0  0  0  0
   42.2771   36.3517   39.2193 H   0  0  0  0  0  0  0  0  0  0  0  0
  1  5  1  0
  1  6  1  0
  2  1  1  0
  3  2  2  0
  3  4  1  0
  4  5  2  0
  6 11  1  0
  6  7  2  0
  7  8  1  0
  8  9  2  0
 10  9  1  0
 11 10  2  0
 12 13  1  0
 12  4  1  0
 14 13  2  0
 15 16  1  0
 15 14  1  0
 16 12  2  0
  2 17  1  0
  7 18  1  0
  8 19  1  0
 10 20  1  0
 13 21  1  0
 14 22  1  0
 15 23  1  0
M  ISO  7  17  14  18  14  19  14  20  14  21  14  22  14  23   9
M  END
>  <minimizedAffinity>  (1) 
-5.00170755

>  <minimizedRMSD>  (1) 
2.59905434

$$$$
