
     RDKit          3D

 22 24  0  0  0  0  0  0  0  0999 V2000
   37.3800   30.4290   41.2680 N   0  0  0  0  0  0  0  0  0  0  0  0
   36.4430   31.0470   40.5370 C   0  0  0  0  0  0  0  0  0  0  0  0
   36.9260   32.2450   40.1490 N   0  0  0  0  0  0  0  0  0  0  0  0
   38.1950   32.3600   40.6590 C   0  0  0  0  0  0  0  0  0  0  0  0
   38.4430   31.2180   41.3450 N   0  0  0  0  0  0  0  0  0  0  0  0
   37.5550   29.1960   41.9680 C   0  0  0  0  0  0  0  0  0  0  0  0
   36.5880   28.1700   42.0190 C   0  0  0  0  0  0  0  0  0  0  0  0
   36.9230   27.0220   42.7520 C   0  0  0  0  0  0  0  0  0  0  0  0
   38.1330   26.9600   43.3600 N   0  0  0  0  0  0  0  0  0  0  0  0
   39.0260   27.9620   43.2860 C   0  0  0  0  0  0  0  0  0  0  0  0
   38.7510   29.0840   42.5940 N   0  0  0  0  0  0  0  0  0  0  0  0
   39.1130   33.5080   40.4900 C   0  0  0  0  0  0  0  0  0  0  0  0
   40.4940   33.4080   40.4940 C   0  0  0  0  0  0  0  0  0  0  0  0
   41.0120   35.1730   40.2430 S   0  0  0  0  0  0  0  0  0  0  0  0
   39.1890   35.7060   40.1820 C   0  0  0  0  0  0  0  0  0  0  0  0
   38.6470   34.7300   40.3220 N   0  0  0  0  0  0  0  0  0  0  0  0
   35.4481   30.6454   40.2943 H   0  0  0  0  0  0  0  0  0  0  0  0
   35.6183   28.2657   41.5086 H   0  0  0  0  0  0  0  0  0  0  0  0
   36.2144   26.1845   42.8323 H   0  0  0  0  0  0  0  0  0  0  0  0
   39.9948   27.8641   43.7978 H   0  0  0  0  0  0  0  0  0  0  0  0
   41.1223   32.5132   40.6148 H   0  0  0  0  0  0  0  0  0  0  0  0
   38.7698   36.7137   40.0446 H   0  0  0  0  0  0  0  0  0  0  0  0
  1  5  1  0
  1  6  1  0
  2  1  1  0
  3  2  2  0
  3  4  1  0
  4  5  2  0
  6  7  2  0
  6 11  1  0
  7  8  1  0
  8  9  2  0
 10  9  1  0
 11 10  2  0
 12 13  2  0
 12  4  1  0
 14 13  1  0
 15 14  1  0
 15 16  2  0
 16 12  1  0
  2 17  1  0
  7 18  1  0
  8 19  1  0
 10 20  1  0
 13 21  1  0
 15 22  1  0
M  ISO  6  17  14  18  14  19  14  20  14  21  14  22  14
M  END
>  <minimizedAffinity>  (1) 
-4.92551947

>  <minimizedRMSD>  (1) 
3.08982611

$$$$
