
     RDKit          3D

 19 20  0  0  0  0  0  0  0  0999 V2000
   37.8540   32.0440   40.7110 N   0  0  0  0  0  0  0  0  0  0  0  0
   37.1070   32.5900   39.7310 C   0  0  0  0  0  0  0  0  0  0  0  0
   37.5590   33.8710   39.5560 N   0  0  0  0  0  0  0  0  0  0  0  0
   38.5680   34.0760   40.4330 C   0  0  0  0  0  0  0  0  0  0  0  0
   38.7230   32.9350   41.1250 N   0  0  0  0  0  0  0  0  0  0  0  0
   37.9510   30.7970   41.3990 C   0  0  0  0  0  0  0  0  0  0  0  0
   36.9060   29.8720   41.5240 C   0  0  0  0  0  0  0  0  0  0  0  0
   37.1550   28.6960   42.2270 C   0  0  0  0  0  0  0  0  0  0  0  0
   38.3980   28.5130   42.7520 N   0  0  0  0  0  0  0  0  0  0  0  0
   39.3770   29.4120   42.6170 C   0  0  0  0  0  0  0  0  0  0  0  0
   39.1720   30.5540   41.9470 N   0  0  0  0  0  0  0  0  0  0  0  0
   39.2850   35.3430   40.5210 C   0  0  0  0  0  0  0  0  0  0  0  0
   38.8330   36.3070   39.8550 O   0  0  0  0  0  0  0  0  0  0  0  0
   40.4190   35.4960   41.3040 O   0  0  0  0  0  0  0  0  0  0  0  0
   36.2914   32.1010   39.1782 H   0  0  0  0  0  0  0  0  0  0  0  0
   35.9189   30.0688   41.0803 H   0  0  0  0  0  0  0  0  0  0  0  0
   36.3697   27.9363   42.3546 H   0  0  0  0  0  0  0  0  0  0  0  0
   40.3633   29.2122   43.0613 H   0  0  0  0  0  0  0  0  0  0  0  0
   40.8811   36.3708   41.3404 H   0  0  0  0  0  0  0  0  0  0  0  0
  1  5  1  0
  1  6  1  0
  2  1  1  0
  3  2  2  0
  3  4  1  0
  4 12  1  0
  4  5  2  0
  6  7  2  0
  6 11  1  0
  7  8  1  0
  8  9  2  0
 10  9  1  0
 11 10  2  0
 12 14  1  0
 13 12  2  0
  2 15  1  0
  7 16  1  0
  8 17  1  0
 10 18  1  0
 14 19  1  0
M  ISO  5  15  14  16  14  17  14  18  14  19   3
M  END
>  <minimizedAffinity>  (1) 
-4.35945272

>  <minimizedRMSD>  (1) 
2.06416559

$$$$
