
     RDKit          3D

 23 25  0  0  0  0  0  0  0  0999 V2000
   37.6400   31.5600   40.8350 C   0  0  0  0  0  0  0  0  0  0  0  0
   36.4300   30.8480   40.7500 C   0  0  0  0  0  0  0  0  0  0  0  0
   36.4120   29.5390   41.2290 C   0  0  0  0  0  0  0  0  0  0  0  0
   37.5580   29.0300   41.7470 N   0  0  0  0  0  0  0  0  0  0  0  0
   38.6940   29.7360   41.8130 C   0  0  0  0  0  0  0  0  0  0  0  0
   38.7370   30.9940   41.3590 N   0  0  0  0  0  0  0  0  0  0  0  0
   37.8050   32.8990   40.3850 N   0  0  0  0  0  0  0  0  0  0  0  0
   37.2210   33.7580   39.5390 C   0  0  0  0  0  0  0  0  0  0  0  0
   37.9130   34.9310   39.5900 N   0  0  0  0  0  0  0  0  0  0  0  0
   38.9260   34.7690   40.4820 C   0  0  0  0  0  0  0  0  0  0  0  0
   38.8330   33.5130   40.9520 N   0  0  0  0  0  0  0  0  0  0  0  0
   39.9260   35.8300   40.8320 C   0  0  0  0  0  0  0  0  0  0  0  0
   40.7850   36.3140   39.6700 C   0  0  0  0  0  0  0  0  0  0  0  0
   41.3650   35.5460   40.8370 C   0  0  0  0  0  0  0  0  0  0  0  0
   35.5283   31.3085   40.3201 H   0  0  0  0  0  0  0  0  0  0  0  0
   35.4935   28.9351   41.1881 H   0  0  0  0  0  0  0  0  0  0  0  0
   39.5974   29.2789   42.2431 H   0  0  0  0  0  0  0  0  0  0  0  0
   36.3393   33.5529   38.9140 H   0  0  0  0  0  0  0  0  0  0  0  0
   39.2591   36.2734   41.5861 H   0  0  0  0  0  0  0  0  0  0  0  0
   40.6995   35.8411   38.6805 H   0  0  0  0  0  0  0  0  0  0  0  0
   40.9835   37.2796   39.1819 H   0  0  0  0  0  0  0  0  0  0  0  0
   42.0201   36.0590   41.5565 H   0  0  0  0  0  0  0  0  0  0  0  0
   41.9677   34.6307   40.9317 H   0  0  0  0  0  0  0  0  0  0  0  0
  1  6  1  0
  2  1  2  0
  2  3  1  0
  3  4  2  0
  4  5  1  0
  6  5  2  0
  7  1  1  0
  7 11  1  0
  8  9  2  0
  8  7  1  0
  9 10  1  0
 10 12  1  0
 10 11  2  0
 12 14  1  0
 13 12  1  0
 13 14  1  0
  2 15  1  0
  3 16  1  0
  5 17  1  0
  8 18  1  0
 12 19  1  0
 13 20  1  0
 13 21  1  0
 14 22  1  0
 14 23  1  0
M  ISO  8  15  14  16  14  17  14  18  14  19  13  20  13  21  13  22  13
M  ISO  1  23  13
M  END
>  <minimizedAffinity>  (1) 
-4.1970768

>  <minimizedRMSD>  (1) 
1.35138917

$$$$
