
     RDKit          3D

 28 29  0  0  0  0  0  0  0  0999 V2000
   37.9430   33.2730   39.8330 N   0  0  0  0  0  0  0  0  0  0  0  0
   37.6710   34.5840   39.8640 C   0  0  0  0  0  0  0  0  0  0  0  0
   38.8410   35.2490   39.9970 N   0  0  0  0  0  0  0  0  0  0  0  0
   39.8340   34.3250   40.0490 C   0  0  0  0  0  0  0  0  0  0  0  0
   39.2510   33.0990   39.9450 N   0  0  0  0  0  0  0  0  0  0  0  0
   37.2380   32.0340   39.7180 C   0  0  0  0  0  0  0  0  0  0  0  0
   36.6280   31.3640   40.7880 C   0  0  0  0  0  0  0  0  0  0  0  0
   35.9750   30.1620   40.5190 C   0  0  0  0  0  0  0  0  0  0  0  0
   35.9670   29.7070   39.2310 N   0  0  0  0  0  0  0  0  0  0  0  0
   36.5630   30.3750   38.2210 C   0  0  0  0  0  0  0  0  0  0  0  0
   37.1910   31.5280   38.4680 N   0  0  0  0  0  0  0  0  0  0  0  0
   41.3000   34.6270   40.1940 C   0  0  0  0  0  0  0  0  0  0  0  0
   41.8440   34.8290   38.8060 C   0  0  0  0  0  0  0  0  0  0  0  0
   41.4260   35.8700   41.0420 C   0  0  0  0  0  0  0  0  0  0  0  0
   42.0310   33.5010   40.8630 C   0  0  0  0  0  0  0  0  0  0  0  0
   36.6722   35.0395   39.7937 H   0  0  0  0  0  0  0  0  0  0  0  0
   36.6636   31.7741   41.8081 H   0  0  0  0  0  0  0  0  0  0  0  0
   35.4799   29.5957   41.3216 H   0  0  0  0  0  0  0  0  0  0  0  0
   36.5318   29.9715   37.1981 H   0  0  0  0  0  0  0  0  0  0  0  0
   42.8736   35.2113   38.8677 H   0  0  0  0  0  0  0  0  0  0  0  0
   41.8407   33.8697   38.2677 H   0  0  0  0  0  0  0  0  0  0  0  0
   41.2154   35.5537   38.2677 H   0  0  0  0  0  0  0  0  0  0  0  0
   41.3979   35.5924   42.1060 H   0  0  0  0  0  0  0  0  0  0  0  0
   42.3795   36.3710   40.8189 H   0  0  0  0  0  0  0  0  0  0  0  0
   40.5924   36.5521   40.8189 H   0  0  0  0  0  0  0  0  0  0  0  0
   41.9578   33.6137   41.9548 H   0  0  0  0  0  0  0  0  0  0  0  0
   41.5823   32.5427   40.5624 H   0  0  0  0  0  0  0  0  0  0  0  0
   43.0890   33.5208   40.5624 H   0  0  0  0  0  0  0  0  0  0  0  0
  1  2  1  0
  1  5  1  0
  2  3  2  0
  3  4  1  0
  4 12  1  0
  5  4  2  0
  6  1  1  0
  6  7  2  0
  8  7  1  0
  9  8  2  0
 10 11  2  0
 10  9  1  0
 11  6  1  0
 12 15  1  0
 12 14  1  0
 13 12  1  0
  2 16  1  0
  7 17  1  0
  8 18  1  0
 10 19  1  0
 13 20  1  0
 13 21  1  0
 13 22  1  0
 14 23  1  0
 14 24  1  0
 14 25  1  0
 15 26  1  0
 15 27  1  0
 15 28  1  0
M  ISO  8  16  14  17  14  18  14  19  14  20   8  21   8  22   8  23   8
M  ISO  5  24   8  25   8  26   8  27   8  28   8
M  END
>  <minimizedAffinity>  (1) 
-4.0743556

>  <minimizedRMSD>  (1) 
1.33011484

$$$$
