
     RDKit          3D

 22 23  0  0  0  0  0  0  0  0999 V2000
   37.4980   31.5360   40.7930 C   0  0  0  0  0  0  0  0  0  0  0  0
   36.2810   30.8790   40.5530 C   0  0  0  0  0  0  0  0  0  0  0  0
   36.1630   29.5600   41.0270 C   0  0  0  0  0  0  0  0  0  0  0  0
   37.2120   29.0060   41.6770 N   0  0  0  0  0  0  0  0  0  0  0  0
   38.3600   29.6570   41.8920 C   0  0  0  0  0  0  0  0  0  0  0  0
   38.5130   30.9160   41.4560 N   0  0  0  0  0  0  0  0  0  0  0  0
   37.7920   32.8770   40.3830 N   0  0  0  0  0  0  0  0  0  0  0  0
   37.2740   33.7920   39.5450 C   0  0  0  0  0  0  0  0  0  0  0  0
   38.0600   34.9000   39.6290 N   0  0  0  0  0  0  0  0  0  0  0  0
   39.0550   34.6300   40.5320 C   0  0  0  0  0  0  0  0  0  0  0  0
   38.8530   33.3700   40.9750 N   0  0  0  0  0  0  0  0  0  0  0  0
   40.1050   35.6320   40.8730 C   0  0  0  0  0  0  0  0  0  0  0  0
   39.8030   36.8890   40.0660 C   0  0  0  0  0  0  0  0  0  0  0  0
   35.4566   31.3735   40.0183 H   0  0  0  0  0  0  0  0  0  0  0  0
   35.2352   28.9897   40.8721 H   0  0  0  0  0  0  0  0  0  0  0  0
   39.1812   29.1585   42.4279 H   0  0  0  0  0  0  0  0  0  0  0  0
   36.3834   33.6685   38.9113 H   0  0  0  0  0  0  0  0  0  0  0  0
   40.0756   35.8582   41.9491 H   0  0  0  0  0  0  0  0  0  0  0  0
   41.1072   35.2455   40.6357 H   0  0  0  0  0  0  0  0  0  0  0  0
   39.6020   37.7254   40.7516 H   0  0  0  0  0  0  0  0  0  0  0  0
   40.6678   37.1343   39.4320 H   0  0  0  0  0  0  0  0  0  0  0  0
   38.9212   36.7146   39.4320 H   0  0  0  0  0  0  0  0  0  0  0  0
  1  6  1  0
  2  1  2  0
  2  3  1  0
  3  4  2  0
  4  5  1  0
  6  5  2  0
  7  1  1  0
  7 11  1  0
  8  9  2  0
  8  7  1  0
  9 10  1  0
 10 12  1  0
 10 11  2  0
 13 12  1  0
  2 14  1  0
  3 15  1  0
  5 16  1  0
  8 17  1  0
 12 18  1  0
 12 19  1  0
 13 20  1  0
 13 21  1  0
 13 22  1  0
M  ISO  8  14  14  15  14  16  14  17  14  18   8  19   8  20   8  21   8
M  ISO  1  22   8
M  END
>  <minimizedAffinity>  (1) 
-3.98099995

>  <minimizedRMSD>  (1) 
1.31922448

$$$$
