
     RDKit          3D

 18 19  0  0  0  0  0  0  0  0999 V2000
   37.4690   31.4620   40.8290 C   0  0  0  0  0  0  0  0  0  0  0  0
   36.2480   30.8520   40.4960 C   0  0  0  0  0  0  0  0  0  0  0  0
   36.0460   29.5380   40.9330 C   0  0  0  0  0  0  0  0  0  0  0  0
   37.0330   28.9330   41.6470 N   0  0  0  0  0  0  0  0  0  0  0  0
   38.1870   29.5490   41.9460 C   0  0  0  0  0  0  0  0  0  0  0  0
   38.4170   30.8130   41.5420 N   0  0  0  0  0  0  0  0  0  0  0  0
   37.8220   32.7920   40.4590 N   0  0  0  0  0  0  0  0  0  0  0  0
   37.3960   33.7570   39.6250 C   0  0  0  0  0  0  0  0  0  0  0  0
   38.2100   34.8270   39.7650 N   0  0  0  0  0  0  0  0  0  0  0  0
   39.1530   34.5080   40.7040 C   0  0  0  0  0  0  0  0  0  0  0  0
   38.8850   33.2390   41.1140 N   0  0  0  0  0  0  0  0  0  0  0  0
   40.2220   35.3590   41.1640 N   0  0  0  0  0  0  0  0  0  0  0  0
   35.4815   31.3859   39.9151 H   0  0  0  0  0  0  0  0  0  0  0  0
   35.1104   29.0066   40.7043 H   0  0  0  0  0  0  0  0  0  0  0  0
   38.9535   29.0158   42.5274 H   0  0  0  0  0  0  0  0  0  0  0  0
   36.5336   33.6876   38.9458 H   0  0  0  0  0  0  0  0  0  0  0  0
   40.8805   35.0179   41.8787 H   0  0  0  0  0  0  0  0  0  0  0  0
   40.3272   36.3081   40.7779 H   0  0  0  0  0  0  0  0  0  0  0  0
  1  6  1  0
  2  1  2  0
  2  3  1  0
  3  4  2  0
  4  5  1  0
  6  5  2  0
  7  1  1  0
  7 11  1  0
  8  9  2  0
  8  7  1  0
  9 10  1  0
 10 11  2  0
 10 12  1  0
  2 13  1  0
  3 14  1  0
  5 15  1  0
  8 16  1  0
 12 17  1  0
 12 18  1  0
M  ISO  4  13  14  14  14  15  14  16  14
M  END
>  <minimizedAffinity>  (1) 
-3.88241887

>  <minimizedRMSD>  (1) 
1.25138688

$$$$
