
     RDKit          3D

 19 20  0  0  0  0  0  0  0  0999 V2000
   38.0990   32.0980   40.8380 C   0  0  0  0  0  0  0  0  0  0  0  0
   36.7740   31.8110   40.4360 C   0  0  0  0  0  0  0  0  0  0  0  0
   36.2590   30.5670   40.8090 C   0  0  0  0  0  0  0  0  0  0  0  0
   37.0410   29.7240   41.5200 N   0  0  0  0  0  0  0  0  0  0  0  0
   38.2950   30.0320   41.8820 C   0  0  0  0  0  0  0  0  0  0  0  0
   38.8380   31.2200   41.5470 N   0  0  0  0  0  0  0  0  0  0  0  0
   38.7660   33.3250   40.5350 N   0  0  0  0  0  0  0  0  0  0  0  0
   38.4590   34.5690   40.1510 C   0  0  0  0  0  0  0  0  0  0  0  0
   39.6010   35.2770   40.0350 N   0  0  0  0  0  0  0  0  0  0  0  0
   40.6330   34.4440   40.3550 C   0  0  0  0  0  0  0  0  0  0  0  0
   40.0820   33.2470   40.6590 N   0  0  0  0  0  0  0  0  0  0  0  0
   42.1020   34.7860   40.3710 C   0  0  0  0  0  0  0  0  0  0  0  0
   36.1777   32.5322   39.8577 H   0  0  0  0  0  0  0  0  0  0  0  0
   35.2351   30.2785   40.5291 H   0  0  0  0  0  0  0  0  0  0  0  0
   38.8877   29.3069   42.4591 H   0  0  0  0  0  0  0  0  0  0  0  0
   37.4449   34.9507   39.9615 H   0  0  0  0  0  0  0  0  0  0  0  0
   42.4484   34.8666   41.4119 H   0  0  0  0  0  0  0  0  0  0  0  0
   42.6681   33.9956   39.8564 H   0  0  0  0  0  0  0  0  0  0  0  0
   42.2608   35.7451   39.8564 H   0  0  0  0  0  0  0  0  0  0  0  0
  1  6  2  0
  2  3  2  0
  2  1  1  0
  3  4  1  0
  4  5  2  0
  6  5  1  0
  7 11  1  0
  7  1  1  0
  8  7  1  0
  9  8  2  0
  9 10  1  0
 10 12  1  0
 10 11  2  0
  2 13  1  0
  3 14  1  0
  5 15  1  0
  8 16  1  0
 12 17  1  0
 12 18  1  0
 12 19  1  0
M  ISO  7  13  14  14  14  15  14  16  14  17   8  18   8  19   8
M  END
>  <minimizedAffinity>  (1) 
-3.68439269

>  <minimizedRMSD>  (1) 
1.77245116

$$$$
