
     RDKit          3D

 17 18  0  0  0  0  0  0  0  0999 V2000
   37.3130   31.4050   40.1470 C   0  0  0  0  0  0  0  0  0  0  0  0
   36.3160   30.9020   41.0010 C   0  0  0  0  0  0  0  0  0  0  0  0
   36.0720   29.5260   40.9530 C   0  0  0  0  0  0  0  0  0  0  0  0
   36.8080   28.7690   40.0920 N   0  0  0  0  0  0  0  0  0  0  0  0
   37.7500   29.2880   39.2950 C   0  0  0  0  0  0  0  0  0  0  0  0
   38.0150   30.6080   39.3110 N   0  0  0  0  0  0  0  0  0  0  0  0
   37.6740   32.7860   40.0840 N   0  0  0  0  0  0  0  0  0  0  0  0
   37.2760   33.9130   39.4820 C   0  0  0  0  0  0  0  0  0  0  0  0
   38.0910   34.9150   39.8740 N   0  0  0  0  0  0  0  0  0  0  0  0
   39.0030   34.3950   40.7300 C   0  0  0  0  0  0  0  0  0  0  0  0
   38.7210   33.0850   40.8400 N   0  0  0  0  0  0  0  0  0  0  0  0
   40.0370   35.1010   41.3710 O   0  0  0  0  0  0  0  0  0  0  0  0
   35.7526   31.5618   41.6772 H   0  0  0  0  0  0  0  0  0  0  0  0
   35.3053   29.0664   41.5941 H   0  0  0  0  0  0  0  0  0  0  0  0
   38.3141   28.6284   38.6192 H   0  0  0  0  0  0  0  0  0  0  0  0
   36.4291   34.0068   38.7863 H   0  0  0  0  0  0  0  0  0  0  0  0
   40.6551   34.6271   41.9821 H   0  0  0  0  0  0  0  0  0  0  0  0
  1  2  2  0
  3  2  1  0
  4  3  2  0
  5  6  2  0
  5  4  1  0
  6  1  1  0
  7  1  1  0
  7 11  1  0
  8  9  2  0
  8  7  1  0
  9 10  1  0
 10 11  2  0
 10 12  1  0
  2 13  1  0
  3 14  1  0
  5 15  1  0
  8 16  1  0
 12 17  1  0
M  ISO  5  13  14  14  14  15  14  16  14  17   3
M  END
>  <minimizedAffinity>  (1) 
-3.65579081

>  <minimizedRMSD>  (1) 
0.212411135

$$$$
