
     RDKit          3D

 17 18  0  0  0  0  0  0  0  0999 V2000
   37.6500   31.4560   40.2560 C   0  0  0  0  0  0  0  0  0  0  0  0
   36.4180   31.1550   40.8570 C   0  0  0  0  0  0  0  0  0  0  0  0
   35.9820   29.8280   40.8210 C   0  0  0  0  0  0  0  0  0  0  0  0
   36.7600   28.9070   40.2150 N   0  0  0  0  0  0  0  0  0  0  0  0
   37.9400   29.2180   39.6460 C   0  0  0  0  0  0  0  0  0  0  0  0
   38.3850   30.4800   39.6640 N   0  0  0  0  0  0  0  0  0  0  0  0
   38.2280   32.7490   40.2080 N   0  0  0  0  0  0  0  0  0  0  0  0
   37.8380   34.0220   39.9900 C   0  0  0  0  0  0  0  0  0  0  0  0
   38.9260   34.8160   40.0910 N   0  0  0  0  0  0  0  0  0  0  0  0
   39.9990   34.0120   40.3790 C   0  0  0  0  0  0  0  0  0  0  0  0
   39.5280   32.7410   40.4440 N   0  0  0  0  0  0  0  0  0  0  0  0
   41.6570   34.6420   40.6040 S   0  0  0  0  0  0  0  0  0  0  0  0
   35.8154   31.9380   41.3405 H   0  0  0  0  0  0  0  0  0  0  0  0
   35.0236   29.5398   41.2776 H   0  0  0  0  0  0  0  0  0  0  0  0
   38.5404   28.4320   39.1646 H   0  0  0  0  0  0  0  0  0  0  0  0
   36.8132   34.3550   39.7687 H   0  0  0  0  0  0  0  0  0  0  0  0
   41.9285   34.7452   41.9429 H   0  0  0  0  0  0  0  0  0  0  0  0
  1  2  2  0
  3  2  1  0
  4  3  2  0
  5  6  2  0
  5  4  1  0
  6  1  1  0
  7  1  1  0
  7 11  1  0
  8  9  2  0
  8  7  1  0
  9 10  1  0
 10 11  2  0
 10 12  1  0
  2 13  1  0
  3 14  1  0
  5 15  1  0
  8 16  1  0
 12 17  1  0
M  ISO  5  13  14  14  14  15  14  16  14  17  11
M  END
>  <minimizedAffinity>  (1) 
-3.34444809

>  <minimizedRMSD>  (1) 
0.753937662

$$$$
