
     RDKit          3D

 24 26  0  0  0  0  0  0  0  0999 V2000
   37.8340   33.4690   39.7980 N   0  0  0  0  0  0  0  0  0  0  0  0
   37.5630   34.7640   39.5260 C   0  0  0  0  0  0  0  0  0  0  0  0
   38.6170   35.5050   39.9340 N   0  0  0  0  0  0  0  0  0  0  0  0
   39.5380   34.6570   40.4580 C   0  0  0  0  0  0  0  0  0  0  0  0
   39.0320   33.4000   40.3650 N   0  0  0  0  0  0  0  0  0  0  0  0
   37.2150   32.1930   39.6540 C   0  0  0  0  0  0  0  0  0  0  0  0
   36.6190   31.4880   40.7130 C   0  0  0  0  0  0  0  0  0  0  0  0
   36.0490   30.2460   40.4270 C   0  0  0  0  0  0  0  0  0  0  0  0
   36.1050   29.7960   39.1390 N   0  0  0  0  0  0  0  0  0  0  0  0
   36.6790   30.4940   38.1550 C   0  0  0  0  0  0  0  0  0  0  0  0
   37.2410   31.6940   38.3890 N   0  0  0  0  0  0  0  0  0  0  0  0
   40.8480   35.0440   41.0250 C   0  0  0  0  0  0  0  0  0  0  0  0
   41.9970   34.2900   40.9860 C   0  0  0  0  0  0  0  0  0  0  0  0
   43.1360   34.8050   41.5660 C   0  0  0  0  0  0  0  0  0  0  0  0
   43.1480   36.0110   42.1610 N   0  0  0  0  0  0  0  0  0  0  0  0
   42.0190   36.7490   42.1980 C   0  0  0  0  0  0  0  0  0  0  0  0
   40.8760   36.2670   41.6320 N   0  0  0  0  0  0  0  0  0  0  0  0
   36.6459   35.1479   39.0553 H   0  0  0  0  0  0  0  0  0  0  0  0
   36.6020   31.9004   41.7326 H   0  0  0  0  0  0  0  0  0  0  0  0
   35.5692   29.6479   41.2156 H   0  0  0  0  0  0  0  0  0  0  0  0
   36.6924   30.0805   37.1358 H   0  0  0  0  0  0  0  0  0  0  0  0
   42.0068   33.3012   40.5042 H   0  0  0  0  0  0  0  0  0  0  0  0
   44.0624   34.2124   41.5416 H   0  0  0  0  0  0  0  0  0  0  0  0
   42.0207   37.7362   42.6832 H   0  0  0  0  0  0  0  0  0  0  0  0
  1  5  1  0
  2  1  1  0
  2  3  2  0
  3  4  1  0
  4 12  1  0
  5  4  2  0
  6  1  1  0
  6  7  2  0
  8  7  1  0
  9  8  2  0
 10 11  2  0
 10  9  1  0
 11  6  1  0
 12 17  1  0
 13 12  2  0
 13 14  1  0
 14 15  2  0
 15 16  1  0
 17 16  2  0
  2 18  1  0
  7 19  1  0
  8 20  1  0
 10 21  1  0
 13 22  1  0
 14 23  1  0
 16 24  1  0
M  ISO  7  18  14  19  14  20  14  21  14  22  14  23  14  24  14
M  END
>  <minimizedAffinity>  (1) 
-4.46996641

>  <minimizedRMSD>  (1) 
1.13883555

$$$$
