
     RDKit          3D

 37 40  0  0  0  0  0  0  0  0999 V2000
   40.7610   33.5970   39.6510 C   0  0  0  0  0  0  0  0  0  0  0  0
   41.6510   33.2160   38.6600 C   0  0  0  0  0  0  0  0  0  0  0  0
   42.9820   33.5470   38.8240 C   0  0  0  0  0  0  0  0  0  0  0  0
   43.4160   34.2160   39.9040 N   0  0  0  0  0  0  0  0  0  0  0  0
   42.5460   34.5790   40.8560 C   0  0  0  0  0  0  0  0  0  0  0  0
   41.2290   34.2820   40.7470 N   0  0  0  0  0  0  0  0  0  0  0  0
   43.0220   35.2890   41.9960 N   0  0  0  0  0  0  0  0  0  0  0  0
   44.0180   34.6550   42.6740 C   0  0  0  0  0  0  0  0  0  0  0  0
   44.5530   35.2710   43.8070 C   0  0  0  0  0  0  0  0  0  0  0  0
   45.6530   34.5740   44.5590 C   0  0  0  0  0  0  0  0  0  0  0  0
   44.1070   36.5060   44.2670 C   0  0  0  0  0  0  0  0  0  0  0  0
   44.5860   37.0550   45.2800 O   0  0  0  0  0  0  0  0  0  0  0  0
   43.1370   37.0310   43.5310 N   0  0  0  0  0  0  0  0  0  0  0  0
   42.5750   36.5010   42.4350 C   0  0  0  0  0  0  0  0  0  0  0  0
   41.6650   37.0180   41.7650 O   0  0  0  0  0  0  0  0  0  0  0  0
   37.4010   32.2770   39.6410 N   0  0  0  0  0  0  0  0  0  0  0  0
   37.1520   33.5960   39.6970 C   0  0  0  0  0  0  0  0  0  0  0  0
   38.3300   34.2520   39.7050 N   0  0  0  0  0  0  0  0  0  0  0  0
   39.3100   33.3290   39.6570 C   0  0  0  0  0  0  0  0  0  0  0  0
   38.7150   32.1020   39.6170 N   0  0  0  0  0  0  0  0  0  0  0  0
   36.6740   31.0500   39.6050 C   0  0  0  0  0  0  0  0  0  0  0  0
   36.1160   30.4420   40.7560 C   0  0  0  0  0  0  0  0  0  0  0  0
   35.4290   29.2440   40.5880 C   0  0  0  0  0  0  0  0  0  0  0  0
   35.3440   28.7390   39.3140 N   0  0  0  0  0  0  0  0  0  0  0  0
   35.8830   29.3390   38.2530 C   0  0  0  0  0  0  0  0  0  0  0  0
   36.5590   30.5070   38.3740 N   0  0  0  0  0  0  0  0  0  0  0  0
   41.3084   32.6671   37.7704 H   0  0  0  0  0  0  0  0  0  0  0  0
   43.7057   33.2546   38.0489 H   0  0  0  0  0  0  0  0  0  0  0  0
   44.3934   33.6778   42.3362 H   0  0  0  0  0  0  0  0  0  0  0  0
   45.4831   34.6816   45.6405 H   0  0  0  0  0  0  0  0  0  0  0  0
   45.6595   33.5066   44.2933 H   0  0  0  0  0  0  0  0  0  0  0  0
   46.6210   35.0239   44.2933 H   0  0  0  0  0  0  0  0  0  0  0  0
   42.7755   37.9465   43.8345 H   0  0  0  0  0  0  0  0  0  0  0  0
   36.1561   34.0618   39.7306 H   0  0  0  0  0  0  0  0  0  0  0  0
   36.2223   30.9017   41.7497 H   0  0  0  0  0  0  0  0  0  0  0  0
   34.9721   28.7221   41.4418 H   0  0  0  0  0  0  0  0  0  0  0  0
   35.7771   28.8772   37.2603 H   0  0  0  0  0  0  0  0  0  0  0  0
  1 19  1  0
  1  6  2  0
  2  3  2  0
  2  1  1  0
  3  4  1  0
  4  5  2  0
  5  7  1  0
  6  5  1  0
  7 14  1  0
  7  8  1  0
  8  9  2  0
  9 11  1  0
  9 10  1  0
 11 12  2  0
 13 11  1  0
 14 13  1  0
 15 14  2  0
 16 17  1  0
 17 18  2  0
 19 18  1  0
 20 16  1  0
 20 19  2  0
 21 16  1  0
 21 22  2  0
 23 22  1  0
 24 23  2  0
 25 26  2  0
 25 24  1  0
 26 21  1  0
  2 27  1  0
  3 28  1  0
  8 29  1  0
 10 30  1  0
 10 31  1  0
 10 32  1  0
 13 33  1  0
 17 34  1  0
 22 35  1  0
 23 36  1  0
 25 37  1  0
M  ISO  8  27  14  28  14  29  14  30   8  31   8  32   8  33   9  34  14
M  ISO  3  35  14  36  14  37  14
M  END
>  <minimizedAffinity>  (1) 
-7.16695404

>  <minimizedRMSD>  (1) 
2.8097477

$$$$
