
     RDKit          3D

 37 40  0  0  0  0  0  0  0  0999 V2000
   42.1190   35.3120   41.2430 C   0  0  0  0  0  0  0  0  0  0  0  0
   41.5840   36.5650   41.3400 C   0  0  0  0  0  0  0  0  0  0  0  0
   40.3050   36.7840   40.8920 C   0  0  0  0  0  0  0  0  0  0  0  0
   39.5650   35.7830   40.3580 N   0  0  0  0  0  0  0  0  0  0  0  0
   40.0840   34.5520   40.2610 C   0  0  0  0  0  0  0  0  0  0  0  0
   41.3530   34.3280   40.7030 N   0  0  0  0  0  0  0  0  0  0  0  0
   45.1630   34.3500   42.9200 N   0  0  0  0  0  0  0  0  0  0  0  0
   45.5530   34.2560   41.6380 C   0  0  0  0  0  0  0  0  0  0  0  0
   44.5050   34.5910   40.8570 N   0  0  0  0  0  0  0  0  0  0  0  0
   43.4660   34.8930   41.6690 C   0  0  0  0  0  0  0  0  0  0  0  0
   43.8930   34.7370   42.9520 N   0  0  0  0  0  0  0  0  0  0  0  0
   45.7180   34.1560   44.2160 C   0  0  0  0  0  0  0  0  0  0  0  0
   46.8710   33.3830   44.4620 C   0  0  0  0  0  0  0  0  0  0  0  0
   47.3190   33.2670   45.7790 C   0  0  0  0  0  0  0  0  0  0  0  0
   46.6090   33.9110   46.7380 N   0  0  0  0  0  0  0  0  0  0  0  0
   45.5240   34.6340   46.4790 C   0  0  0  0  0  0  0  0  0  0  0  0
   45.0590   34.7720   45.2230 N   0  0  0  0  0  0  0  0  0  0  0  0
   37.7120   31.5070   38.6740 C   0  0  0  0  0  0  0  0  0  0  0  0
   39.0820   31.4730   38.4510 C   0  0  0  0  0  0  0  0  0  0  0  0
   39.9180   32.4680   38.9620 C   0  0  0  0  0  0  0  0  0  0  0  0
   39.2940   33.4680   39.6880 C   0  0  0  0  0  0  0  0  0  0  0  0
   37.9320   33.4920   39.9030 C   0  0  0  0  0  0  0  0  0  0  0  0
   37.1210   32.5000   39.3910 C   0  0  0  0  0  0  0  0  0  0  0  0
   36.7320   30.2160   37.9960 S   0  0  0  0  0  0  0  0  0  0  0  0
   37.1650   28.8740   38.5400 O   0  0  0  0  0  0  0  0  0  0  0  0
   36.9250   30.2260   36.5100 O   0  0  0  0  0  0  0  0  0  0  0  0
   42.1711   37.3889   41.7720 H   0  0  0  0  0  0  0  0  0  0  0  0
   39.8725   37.7925   40.9682 H   0  0  0  0  0  0  0  0  0  0  0  0
   46.5518   33.9581   41.2865 H   0  0  0  0  0  0  0  0  0  0  0  0
   47.4033   32.8847   43.6384 H   0  0  0  0  0  0  0  0  0  0  0  0
   48.2127   32.6764   46.0289 H   0  0  0  0  0  0  0  0  0  0  0  0
   44.9957   35.1292   47.3070 H   0  0  0  0  0  0  0  0  0  0  0  0
   39.5152   30.6503   37.8632 H   0  0  0  0  0  0  0  0  0  0  0  0
   41.0056   32.4578   38.7977 H   0  0  0  0  0  0  0  0  0  0  0  0
   37.4876   34.3103   40.4886 H   0  0  0  0  0  0  0  0  0  0  0  0
   36.0337   32.5120   39.5571 H   0  0  0  0  0  0  0  0  0  0  0  0
   35.4176   30.4138   38.3280 H   0  0  0  0  0  0  0  0  0  0  0  0
  1  2  2  0
  1 10  1  0
  3  2  1  0
  4  3  2  0
  5  4  1  0
  5  6  2  0
  6  1  1  0
  7 11  1  0
  7 12  1  0
  8  7  1  0
  9  8  2  0
  9 10  1  0
 10 11  2  0
 12 13  2  0
 12 17  1  0
 13 14  1  0
 14 15  2  0
 16 15  1  0
 17 16  2  0
 18 23  2  0
 19 18  1  0
 19 20  2  0
 20 21  1  0
 21 22  2  0
 21  5  1  0
 23 22  1  0
 24 25  2  0
 24 18  1  0
 26 24  2  0
  2 27  1  0
  3 28  1  0
  8 29  1  0
 13 30  1  0
 14 31  1  0
 16 32  1  0
 19 33  1  0
 20 34  1  0
 22 35  1  0
 23 36  1  0
 24 37  1  0
M  ISO  8  27  14  28  14  29  14  30  14  31  14  32  14  33  14  34  14
M  ISO  3  35  14  36  14  37  11
M  END
>  <minimizedAffinity>  (1) 
-6.35110092

>  <minimizedRMSD>  (1) 
9.49909306

$$$$
