
     RDKit          3D

 36 38  0  0  0  0  0  0  0  0999 V2000
   39.0230   33.7130   40.0920 N   0  0  0  0  0  0  0  0  0  0  0  0
   38.9440   35.0100   40.4330 C   0  0  0  0  0  0  0  0  0  0  0  0
   40.1880   35.4620   40.6830 N   0  0  0  0  0  0  0  0  0  0  0  0
   41.0420   34.4360   40.4970 C   0  0  0  0  0  0  0  0  0  0  0  0
   40.3030   33.3520   40.1290 N   0  0  0  0  0  0  0  0  0  0  0  0
   38.1570   32.6500   39.7160 C   0  0  0  0  0  0  0  0  0  0  0  0
   37.2600   32.0160   40.5930 C   0  0  0  0  0  0  0  0  0  0  0  0
   36.4810   30.9920   40.0690 C   0  0  0  0  0  0  0  0  0  0  0  0
   36.6240   30.6610   38.7540 N   0  0  0  0  0  0  0  0  0  0  0  0
   37.4820   31.2810   37.9480 C   0  0  0  0  0  0  0  0  0  0  0  0
   38.2560   32.2810   38.4200 N   0  0  0  0  0  0  0  0  0  0  0  0
   42.5050   34.4840   40.6620 C   0  0  0  0  0  0  0  0  0  0  0  0
   43.4300   33.9260   39.7950 C   0  0  0  0  0  0  0  0  0  0  0  0
   44.7740   34.0630   40.1030 C   0  0  0  0  0  0  0  0  0  0  0  0
   45.1850   34.7160   41.2070 N   0  0  0  0  0  0  0  0  0  0  0  0
   44.2750   35.2490   42.0340 C   0  0  0  0  0  0  0  0  0  0  0  0
   42.9440   35.1460   41.7850 N   0  0  0  0  0  0  0  0  0  0  0  0
   44.7410   35.9700   43.2550 C   0  0  0  0  0  0  0  0  0  0  0  0
   45.8980   36.8940   42.9610 C   0  0  0  0  0  0  0  0  0  0  0  0
   45.0960   35.0160   44.3750 C   0  0  0  0  0  0  0  0  0  0  0  0
   43.5810   36.8280   43.7730 C   0  0  0  0  0  0  0  0  0  0  0  0
   38.0196   35.6027   40.4972 H   0  0  0  0  0  0  0  0  0  0  0  0
   37.1784   32.3174   41.6478 H   0  0  0  0  0  0  0  0  0  0  0  0
   35.7604   30.4568   40.7048 H   0  0  0  0  0  0  0  0  0  0  0  0
   37.5608   30.9777   36.8936 H   0  0  0  0  0  0  0  0  0  0  0  0
   43.1075   33.3906   38.8898 H   0  0  0  0  0  0  0  0  0  0  0  0
   45.5252   33.6269   39.4280 H   0  0  0  0  0  0  0  0  0  0  0  0
   46.3368   37.2445   43.9068 H   0  0  0  0  0  0  0  0  0  0  0  0
   46.6606   36.3536   42.3810 H   0  0  0  0  0  0  0  0  0  0  0  0
   45.5396   37.7572   42.3810 H   0  0  0  0  0  0  0  0  0  0  0  0
   44.9143   35.5042   45.3439 H   0  0  0  0  0  0  0  0  0  0  0  0
   44.4741   34.1120   44.2976 H   0  0  0  0  0  0  0  0  0  0  0  0
   46.1576   34.7385   44.2976 H   0  0  0  0  0  0  0  0  0  0  0  0
   43.5853   36.8248   44.8730 H   0  0  0  0  0  0  0  0  0  0  0  0
   43.6968   37.8595   43.4089 H   0  0  0  0  0  0  0  0  0  0  0  0
   42.6286   36.4153   43.4089 H   0  0  0  0  0  0  0  0  0  0  0  0
  1  5  1  0
  1  2  1  0
  2  3  2  0
  4 12  1  0
  4  3  1  0
  5  4  2  0
  6  1  1  0
  6  7  2  0
  8  7  1  0
  9  8  2  0
 10 11  2  0
 10  9  1  0
 11  6  1  0
 12 17  2  0
 13 14  2  0
 13 12  1  0
 14 15  1  0
 15 16  2  0
 16 18  1  0
 17 16  1  0
 18 21  1  0
 18 20  1  0
 19 18  1  0
  2 22  1  0
  7 23  1  0
  8 24  1  0
 10 25  1  0
 13 26  1  0
 14 27  1  0
 19 28  1  0
 19 29  1  0
 19 30  1  0
 20 31  1  0
 20 32  1  0
 20 33  1  0
 21 34  1  0
 21 35  1  0
 21 36  1  0
M  ISO  8  22  14  23  14  24  14  25  14  26  14  27  14  28   8  29   8
M  ISO  7  30   8  31   8  32   8  33   8  34   8  35   8  36   8
M  END
>  <minimizedAffinity>  (1) 
-6.00386953

>  <minimizedRMSD>  (1) 
2.28878546

$$$$
