
     RDKit          3D

 37 40  0  0  0  0  0  0  0  0999 V2000
   39.0440   33.0900   40.6500 N   0  0  0  0  0  0  0  0  0  0  0  0
   38.8920   34.3700   40.2730 C   0  0  0  0  0  0  0  0  0  0  0  0
   40.1050   34.9450   40.1780 N   0  0  0  0  0  0  0  0  0  0  0  0
   41.0260   33.9900   40.5070 C   0  0  0  0  0  0  0  0  0  0  0  0
   40.3400   32.8550   40.7930 N   0  0  0  0  0  0  0  0  0  0  0  0
   38.2350   31.9580   40.9270 C   0  0  0  0  0  0  0  0  0  0  0  0
   36.9070   31.8290   40.4720 C   0  0  0  0  0  0  0  0  0  0  0  0
   36.2240   30.6610   40.8160 C   0  0  0  0  0  0  0  0  0  0  0  0
   36.8830   29.7210   41.5710 N   0  0  0  0  0  0  0  0  0  0  0  0
   38.1400   29.8890   41.9780 C   0  0  0  0  0  0  0  0  0  0  0  0
   38.8480   30.9950   41.6750 N   0  0  0  0  0  0  0  0  0  0  0  0
   42.4860   34.1780   40.5390 C   0  0  0  0  0  0  0  0  0  0  0  0
   43.3920   33.5790   39.6830 C   0  0  0  0  0  0  0  0  0  0  0  0
   44.7330   33.8770   39.8650 C   0  0  0  0  0  0  0  0  0  0  0  0
   45.1560   34.7100   40.8280 N   0  0  0  0  0  0  0  0  0  0  0  0
   44.2690   35.2830   41.6510 C   0  0  0  0  0  0  0  0  0  0  0  0
   42.9440   35.0250   41.5150 N   0  0  0  0  0  0  0  0  0  0  0  0
   44.6480   36.2210   42.7480 C   0  0  0  0  0  0  0  0  0  0  0  0
   44.2030   35.6560   44.0550 C   0  0  0  0  0  0  0  0  0  0  0  0
   45.2740   34.6770   44.4370 C   0  0  0  0  0  0  0  0  0  0  0  0
   46.4580   34.9380   43.5480 C   0  0  0  0  0  0  0  0  0  0  0  0
   46.1650   36.2240   42.8130 C   0  0  0  0  0  0  0  0  0  0  0  0
   37.9315   34.8678   40.0741 H   0  0  0  0  0  0  0  0  0  0  0  0
   36.4286   32.6162   39.8707 H   0  0  0  0  0  0  0  0  0  0  0  0
   35.1858   30.4976   40.4912 H   0  0  0  0  0  0  0  0  0  0  0  0
   38.6151   29.1005   42.5802 H   0  0  0  0  0  0  0  0  0  0  0  0
   43.0613   32.8932   38.8891 H   0  0  0  0  0  0  0  0  0  0  0  0
   45.4755   33.4152   39.1976 H   0  0  0  0  0  0  0  0  0  0  0  0
   44.2074   37.2125   42.5667 H   0  0  0  0  0  0  0  0  0  0  0  0
   44.1173   36.4504   44.8110 H   0  0  0  0  0  0  0  0  0  0  0  0
   43.2133   35.1809   43.9854 H   0  0  0  0  0  0  0  0  0  0  0  0
   45.5559   34.8200   45.4906 H   0  0  0  0  0  0  0  0  0  0  0  0
   44.9172   33.6435   44.3160 H   0  0  0  0  0  0  0  0  0  0  0  0
   47.3710   35.0448   44.1522 H   0  0  0  0  0  0  0  0  0  0  0  0
   46.6206   34.1064   42.8466 H   0  0  0  0  0  0  0  0  0  0  0  0
   46.6069   36.2167   41.8057 H   0  0  0  0  0  0  0  0  0  0  0  0
   46.5832   37.1161   43.3022 H   0  0  0  0  0  0  0  0  0  0  0  0
  1  5  1  0
  1  6  1  0
  2  1  1  0
  3  2  2  0
  3  4  1  0
  4 12  1  0
  4  5  2  0
  6 11  2  0
  7  8  2  0
  7  6  1  0
  8  9  1  0
  9 10  2  0
 11 10  1  0
 12 17  2  0
 13 14  2  0
 13 12  1  0
 14 15  1  0
 15 16  2  0
 16 18  1  0
 17 16  1  0
 18 22  1  0
 18 19  1  0
 19 20  1  0
 21 20  1  0
 22 21  1  0
  2 23  1  0
  7 24  1  0
  8 25  1  0
 10 26  1  0
 13 27  1  0
 14 28  1  0
 18 29  1  0
 19 30  1  0
 19 31  1  0
 20 32  1  0
 20 33  1  0
 21 34  1  0
 21 35  1  0
 22 36  1  0
 22 37  1  0
M  ISO  8  23  14  24  14  25  14  26  14  27  14  28  14  29  13  30  13
M  ISO  7  31  13  32  13  33  13  34  13  35  13  36  13  37  13
M  END
>  <minimizedAffinity>  (1) 
-5.745821

>  <minimizedRMSD>  (1) 
3.50379133

$$$$
