
     RDKit          3D

 31 34  0  0  0  0  0  0  0  0999 V2000
   38.5880   33.2680   39.9570 N   0  0  0  0  0  0  0  0  0  0  0  0
   38.5230   34.5840   40.2150 C   0  0  0  0  0  0  0  0  0  0  0  0
   39.7740   35.0640   40.3000 N   0  0  0  0  0  0  0  0  0  0  0  0
   40.6220   34.0250   40.0920 C   0  0  0  0  0  0  0  0  0  0  0  0
   39.8690   32.9240   39.8820 N   0  0  0  0  0  0  0  0  0  0  0  0
   42.1040   34.1050   40.0980 C   0  0  0  0  0  0  0  0  0  0  0  0
   42.9140   33.9080   39.0100 C   0  0  0  0  0  0  0  0  0  0  0  0
   44.2770   34.0200   39.1890 C   0  0  0  0  0  0  0  0  0  0  0  0
   44.8150   34.3110   40.3810 N   0  0  0  0  0  0  0  0  0  0  0  0
   44.0110   34.5040   41.4490 C   0  0  0  0  0  0  0  0  0  0  0  0
   42.6640   34.4010   41.3090 N   0  0  0  0  0  0  0  0  0  0  0  0
   44.4550   34.8210   42.7790 N   0  0  0  0  0  0  0  0  0  0  0  0
   44.9290   34.1300   43.8300 C   0  0  0  0  0  0  0  0  0  0  0  0
   45.1770   35.0450   44.8400 C   0  0  0  0  0  0  0  0  0  0  0  0
   44.8520   36.2730   44.3860 N   0  0  0  0  0  0  0  0  0  0  0  0
   44.4060   36.1250   43.1120 C   0  0  0  0  0  0  0  0  0  0  0  0
   37.7020   32.1750   39.7490 C   0  0  0  0  0  0  0  0  0  0  0  0
   36.9400   31.5870   40.7780 C   0  0  0  0  0  0  0  0  0  0  0  0
   36.1070   30.5140   40.4310 C   0  0  0  0  0  0  0  0  0  0  0  0
   36.0870   30.1080   39.1280 N   0  0  0  0  0  0  0  0  0  0  0  0
   36.8310   30.6980   38.1830 C   0  0  0  0  0  0  0  0  0  0  0  0
   37.6410   31.7240   38.4580 N   0  0  0  0  0  0  0  0  0  0  0  0
   37.6002   35.1702   40.3363 H   0  0  0  0  0  0  0  0  0  0  0  0
   42.4899   33.6678   38.0239 H   0  0  0  0  0  0  0  0  0  0  0  0
   44.9425   33.8657   38.3269 H   0  0  0  0  0  0  0  0  0  0  0  0
   45.0897   33.0429   43.8788 H   0  0  0  0  0  0  0  0  0  0  0  0
   45.5710   34.8106   45.8399 H   0  0  0  0  0  0  0  0  0  0  0  0
   44.0605   36.9388   42.4576 H   0  0  0  0  0  0  0  0  0  0  0  0
   36.9964   31.9553   41.8130 H   0  0  0  0  0  0  0  0  0  0  0  0
   35.4863   30.0129   41.1884 H   0  0  0  0  0  0  0  0  0  0  0  0
   36.7731   30.3263   37.1493 H   0  0  0  0  0  0  0  0  0  0  0  0
  1  2  1  0
  2  3  2  0
  4  6  1  0
  4  3  1  0
  5  1  1  0
  5  4  2  0
  6 11  2  0
  7  8  2  0
  7  6  1  0
  8  9  1  0
  9 10  2  0
 10 12  1  0
 11 10  1  0
 12 16  1  0
 12 13  1  0
 13 14  2  0
 15 14  1  0
 16 15  2  0
 17  1  1  0
 17 18  2  0
 19 18  1  0
 20 19  2  0
 21 22  2  0
 21 20  1  0
 22 17  1  0
  2 23  1  0
  7 24  1  0
  8 25  1  0
 13 26  1  0
 14 27  1  0
 16 28  1  0
 18 29  1  0
 19 30  1  0
 21 31  1  0
M  ISO  8  23  14  24  14  25  14  26  14  27  14  28  14  29  14  30  14
M  ISO  1  31  14
M  END
>  <minimizedAffinity>  (1) 
-5.71261597

>  <minimizedRMSD>  (1) 
2.82136917

$$$$
