
     RDKit          3D

 31 34  0  0  0  0  0  0  0  0999 V2000
   38.7630   33.5240   39.9510 N   0  0  0  0  0  0  0  0  0  0  0  0
   38.6560   34.8460   40.2120 C   0  0  0  0  0  0  0  0  0  0  0  0
   39.8910   35.3180   40.4660 N   0  0  0  0  0  0  0  0  0  0  0  0
   40.7680   34.2770   40.3590 C   0  0  0  0  0  0  0  0  0  0  0  0
   40.0370   33.1820   40.0400 N   0  0  0  0  0  0  0  0  0  0  0  0
   37.9130   32.4340   39.6170 C   0  0  0  0  0  0  0  0  0  0  0  0
   37.0640   31.7970   40.5490 C   0  0  0  0  0  0  0  0  0  0  0  0
   36.2870   30.7450   40.0860 C   0  0  0  0  0  0  0  0  0  0  0  0
   36.3870   30.3910   38.7810 N   0  0  0  0  0  0  0  0  0  0  0  0
   37.2000   31.0140   37.9260 C   0  0  0  0  0  0  0  0  0  0  0  0
   37.9770   32.0430   38.3190 N   0  0  0  0  0  0  0  0  0  0  0  0
   42.2200   34.3670   40.5600 C   0  0  0  0  0  0  0  0  0  0  0  0
   43.1720   33.7650   39.7640 C   0  0  0  0  0  0  0  0  0  0  0  0
   44.5000   33.9430   40.0820 C   0  0  0  0  0  0  0  0  0  0  0  0
   44.8800   34.6810   41.1380 N   0  0  0  0  0  0  0  0  0  0  0  0
   43.9440   35.2720   41.9190 C   0  0  0  0  0  0  0  0  0  0  0  0
   42.6300   35.1130   41.6280 N   0  0  0  0  0  0  0  0  0  0  0  0
   44.2970   36.0900   43.0840 C   0  0  0  0  0  0  0  0  0  0  0  0
   45.3080   35.6260   44.0690 C   0  0  0  0  0  0  0  0  0  0  0  0
   45.7520   36.5920   43.0320 C   0  0  0  0  0  0  0  0  0  0  0  0
   37.7251   35.4321   40.2161 H   0  0  0  0  0  0  0  0  0  0  0  0
   37.0207   32.1218   41.5991 H   0  0  0  0  0  0  0  0  0  0  0  0
   35.6047   30.2098   40.7628 H   0  0  0  0  0  0  0  0  0  0  0  0
   37.2370   30.6809   36.8783 H   0  0  0  0  0  0  0  0  0  0  0  0
   42.8775   33.1572   38.8958 H   0  0  0  0  0  0  0  0  0  0  0  0
   45.2694   33.4686   39.4551 H   0  0  0  0  0  0  0  0  0  0  0  0
   43.2795   36.4899   43.2054 H   0  0  0  0  0  0  0  0  0  0  0  0
   45.2337   35.9506   45.1174 H   0  0  0  0  0  0  0  0  0  0  0  0
   45.6617   34.6352   44.3905 H   0  0  0  0  0  0  0  0  0  0  0  0
   46.4213   36.2658   42.2223 H   0  0  0  0  0  0  0  0  0  0  0  0
   46.2432   37.5762   43.0352 H   0  0  0  0  0  0  0  0  0  0  0  0
  1  5  1  0
  1  2  1  0
  2  3  2  0
  4  3  1  0
  4 12  1  0
  5  4  2  0
  6  1  1  0
  6  7  2  0
  8  7  1  0
  9  8  2  0
 10 11  2  0
 10  9  1  0
 11  6  1  0
 12 17  2  0
 13 14  2  0
 13 12  1  0
 14 15  1  0
 15 16  2  0
 16 18  1  0
 17 16  1  0
 18 19  1  0
 20 18  1  0
 20 19  1  0
  2 21  1  0
  7 22  1  0
  8 23  1  0
 10 24  1  0
 13 25  1  0
 14 26  1  0
 18 27  1  0
 19 28  1  0
 19 29  1  0
 20 30  1  0
 20 31  1  0
M  ISO  8  21  14  22  14  23  14  24  14  25  14  26  14  27  13  28  13
M  ISO  3  29  13  30  13  31  13
M  END
>  <minimizedAffinity>  (1) 
-5.50281286

>  <minimizedRMSD>  (1) 
1.8916657

$$$$
