
     RDKit          3D

 37 40  0  0  0  0  0  0  0  0999 V2000
   44.2100   28.4000   45.0900 N   0  0  0  0  0  0  0  0  0  0  0  0
   44.1380   27.9770   43.8150 C   0  0  0  0  0  0  0  0  0  0  0  0
   44.0970   29.0470   43.0030 N   0  0  0  0  0  0  0  0  0  0  0  0
   44.1450   30.1520   43.7930 C   0  0  0  0  0  0  0  0  0  0  0  0
   44.2140   29.7300   45.0820 N   0  0  0  0  0  0  0  0  0  0  0  0
   44.1250   31.5560   43.3390 C   0  0  0  0  0  0  0  0  0  0  0  0
   44.8380   32.6000   43.8830 C   0  0  0  0  0  0  0  0  0  0  0  0
   44.6860   33.8510   43.3150 C   0  0  0  0  0  0  0  0  0  0  0  0
   43.8750   34.0700   42.2660 N   0  0  0  0  0  0  0  0  0  0  0  0
   43.1850   33.0460   41.7440 C   0  0  0  0  0  0  0  0  0  0  0  0
   43.3070   31.8050   42.2720 N   0  0  0  0  0  0  0  0  0  0  0  0
   42.3380   33.2910   40.6420 N   0  0  0  0  0  0  0  0  0  0  0  0
   41.0740   33.9660   40.8650 C   0  0  0  0  0  0  0  0  0  0  0  0
   40.7390   34.7710   39.6390 C   0  0  0  0  0  0  0  0  0  0  0  0
   41.8700   35.1750   38.9420 O   0  0  0  0  0  0  0  0  0  0  0  0
   42.5770   34.1090   38.4080 C   0  0  0  0  0  0  0  0  0  0  0  0
   42.6630   32.9060   39.2860 C   0  0  0  0  0  0  0  0  0  0  0  0
   44.2800   27.8450   46.3980 C   0  0  0  0  0  0  0  0  0  0  0  0
   43.3870   28.1750   47.4310 C   0  0  0  0  0  0  0  0  0  0  0  0
   43.5830   27.5490   48.6610 C   0  0  0  0  0  0  0  0  0  0  0  0
   44.6200   26.6580   48.7910 N   0  0  0  0  0  0  0  0  0  0  0  0
   45.4380   26.3790   47.7820 C   0  0  0  0  0  0  0  0  0  0  0  0
   45.2850   26.9610   46.5820 N   0  0  0  0  0  0  0  0  0  0  0  0
   44.1162   26.9263   43.4900 H   0  0  0  0  0  0  0  0  0  0  0  0
   45.5072   32.4439   44.7420 H   0  0  0  0  0  0  0  0  0  0  0  0
   45.2487   34.6970   43.7364 H   0  0  0  0  0  0  0  0  0  0  0  0
   40.2839   33.2229   41.0481 H   0  0  0  0  0  0  0  0  0  0  0  0
   41.1497   34.6274   41.7407 H   0  0  0  0  0  0  0  0  0  0  0  0
   40.1152   34.1565   38.9732 H   0  0  0  0  0  0  0  0  0  0  0  0
   40.2087   35.6766   39.9687 H   0  0  0  0  0  0  0  0  0  0  0  0
   42.0879   33.8116   37.4687 H   0  0  0  0  0  0  0  0  0  0  0  0
   43.6093   34.4632   38.2701 H   0  0  0  0  0  0  0  0  0  0  0  0
   41.9508   32.1433   38.9380 H   0  0  0  0  0  0  0  0  0  0  0  0
   43.6810   32.4908   39.2504 H   0  0  0  0  0  0  0  0  0  0  0  0
   42.5699   28.8950   47.2762 H   0  0  0  0  0  0  0  0  0  0  0  0
   42.9195   27.7646   49.5115 H   0  0  0  0  0  0  0  0  0  0  0  0
   46.2552   25.6582   47.9326 H   0  0  0  0  0  0  0  0  0  0  0  0
  1 18  1  0
  2  1  1  0
  3  4  1  0
  3  2  2  0
  4  5  2  0
  5  1  1  0
  6  4  1  0
  6  7  2  0
  8  7  1  0
  9  8  2  0
 10  9  1  0
 10 11  2  0
 11  6  1  0
 12 13  1  0
 12 10  1  0
 14 13  1  0
 15 14  1  0
 16 15  1  0
 16 17  1  0
 17 12  1  0
 18 23  1  0
 18 19  2  0
 19 20  1  0
 20 21  2  0
 22 21  1  0
 23 22  2  0
  2 24  1  0
  7 25  1  0
  8 26  1  0
 13 27  1  0
 13 28  1  0
 14 29  1  0
 14 30  1  0
 16 31  1  0
 16 32  1  0
 17 33  1  0
 17 34  1  0
 19 35  1  0
 20 36  1  0
 22 37  1  0
M  ISO  8  24  14  25  14  26  14  27  13  28  13  29  13  30  13  31  13
M  ISO  6  32  13  33  13  34  13  35  14  36  14  37  14
M  END
>  <minimizedAffinity>  (1) 
-4.49058151

>  <minimizedRMSD>  (1) 
8.38489723

$$$$
