
     RDKit          3D

 39 42  0  0  0  0  0  0  0  0999 V2000
   36.8080   31.4380   39.7580 C   0  0  0  0  0  0  0  0  0  0  0  0
   36.3600   30.7680   40.8980 C   0  0  0  0  0  0  0  0  0  0  0  0
   35.7590   29.5290   40.7680 C   0  0  0  0  0  0  0  0  0  0  0  0
   35.6390   29.0350   39.5150 N   0  0  0  0  0  0  0  0  0  0  0  0
   36.0710   29.6840   38.4350 C   0  0  0  0  0  0  0  0  0  0  0  0
   36.6650   30.8990   38.5230 N   0  0  0  0  0  0  0  0  0  0  0  0
   35.8680   29.0230   37.1900 N   0  0  0  0  0  0  0  0  0  0  0  0
   36.2180   29.8020   36.1240 C   0  0  0  0  0  0  0  0  0  0  0  0
   36.1030   29.3580   34.8260 C   0  0  0  0  0  0  0  0  0  0  0  0
   36.4880   30.2190   33.6630 C   0  0  0  0  0  0  0  0  0  0  0  0
   35.6170   28.0870   34.6170 C   0  0  0  0  0  0  0  0  0  0  0  0
   35.4890   27.6270   33.4660 O   0  0  0  0  0  0  0  0  0  0  0  0
   35.2820   27.3430   35.6940 N   0  0  0  0  0  0  0  0  0  0  0  0
   35.4030   27.7980   36.9560 C   0  0  0  0  0  0  0  0  0  0  0  0
   35.1070   27.1540   37.9770 O   0  0  0  0  0  0  0  0  0  0  0  0
   37.4390   32.7130   39.7830 N   0  0  0  0  0  0  0  0  0  0  0  0
   37.1650   33.9780   39.4600 C   0  0  0  0  0  0  0  0  0  0  0  0
   38.2270   34.7430   39.7390 N   0  0  0  0  0  0  0  0  0  0  0  0
   39.1950   33.9230   40.2540 C   0  0  0  0  0  0  0  0  0  0  0  0
   38.6750   32.6780   40.2660 N   0  0  0  0  0  0  0  0  0  0  0  0
   40.5330   34.3480   40.6990 C   0  0  0  0  0  0  0  0  0  0  0  0
   41.6690   33.5720   40.6240 C   0  0  0  0  0  0  0  0  0  0  0  0
   42.8450   34.1300   41.0880 C   0  0  0  0  0  0  0  0  0  0  0  0
   42.8990   35.3760   41.5940 N   0  0  0  0  0  0  0  0  0  0  0  0
   41.7830   36.1170   41.6580 C   0  0  0  0  0  0  0  0  0  0  0  0
   40.6000   35.6190   41.2170 N   0  0  0  0  0  0  0  0  0  0  0  0
   41.7500   37.4290   42.1730 N   0  0  0  0  0  0  0  0  0  0  0  0
   36.4841   31.2221   41.8922 H   0  0  0  0  0  0  0  0  0  0  0  0
   35.3954   28.9712   41.6436 H   0  0  0  0  0  0  0  0  0  0  0  0
   36.6037   30.8155   36.3084 H   0  0  0  0  0  0  0  0  0  0  0  0
   36.9111   31.1652   34.0315 H   0  0  0  0  0  0  0  0  0  0  0  0
   37.2378   29.6955   33.0516 H   0  0  0  0  0  0  0  0  0  0  0  0
   35.5980   30.4288   33.0516 H   0  0  0  0  0  0  0  0  0  0  0  0
   34.9199   26.3905   35.5441 H   0  0  0  0  0  0  0  0  0  0  0  0
   36.2167   34.3355   39.0323 H   0  0  0  0  0  0  0  0  0  0  0  0
   41.6411   32.5522   40.2125 H   0  0  0  0  0  0  0  0  0  0  0  0
   43.7691   33.5351   41.0422 H   0  0  0  0  0  0  0  0  0  0  0  0
   40.8622   37.9507   42.1969 H   0  0  0  0  0  0  0  0  0  0  0  0
   42.6137   37.8658   42.5253 H   0  0  0  0  0  0  0  0  0  0  0  0
  1 16  1  0
  1  2  2  0
  3  2  1  0
  4  3  2  0
  5  6  2  0
  5  4  1  0
  6  1  1  0
  7  5  1  0
  8  7  1  0
  9  8  2  0
 10  9  1  0
 11  9  1  0
 11 13  1  0
 12 11  2  0
 13 14  1  0
 14  7  1  0
 14 15  2  0
 16 20  1  0
 17 18  2  0
 17 16  1  0
 18 19  1  0
 19 20  2  0
 19 21  1  0
 21 26  1  0
 22 21  2  0
 22 23  1  0
 23 24  2  0
 24 25  1  0
 25 27  1  0
 26 25  2  0
  2 28  1  0
  3 29  1  0
  8 30  1  0
 10 31  1  0
 10 32  1  0
 10 33  1  0
 13 34  1  0
 17 35  1  0
 22 36  1  0
 23 37  1  0
 27 38  1  0
 27 39  1  0
M  ISO  8  28  14  29  14  30  14  31   8  32   8  33   8  34   9  35  14
M  ISO  2  36  14  37  14
M  END
>  <minimizedAffinity>  (1) 
-6.33344603

>  <minimizedRMSD>  (1) 
1.0190053

$$$$
