
     RDKit          3D

 40 44  0  0  0  0  0  0  0  0999 V2000
   36.7590   31.2460   39.2870 C   0  0  0  0  0  0  0  0  0  0  0  0
   36.1440   30.5030   40.2930 C   0  0  0  0  0  0  0  0  0  0  0  0
   35.6140   29.2590   39.9900 C   0  0  0  0  0  0  0  0  0  0  0  0
   35.7330   28.8400   38.7040 N   0  0  0  0  0  0  0  0  0  0  0  0
   36.3220   29.5590   37.7560 C   0  0  0  0  0  0  0  0  0  0  0  0
   36.8470   30.7750   38.0260 N   0  0  0  0  0  0  0  0  0  0  0  0
   36.4290   29.0670   36.3850 C   0  0  0  0  0  0  0  0  0  0  0  0
   36.4940   27.7460   35.9940 C   0  0  0  0  0  0  0  0  0  0  0  0
   36.5840   27.7600   34.6350 N   0  0  0  0  0  0  0  0  0  0  0  0
   36.5760   29.0230   34.1780 C   0  0  0  0  0  0  0  0  0  0  0  0
   36.6500   29.4480   32.8670 C   0  0  0  0  0  0  0  0  0  0  0  0
   36.6210   30.8350   32.6810 C   0  0  0  0  0  0  0  0  0  0  0  0
   36.5250   31.7500   33.7220 C   0  0  0  0  0  0  0  0  0  0  0  0
   36.4560   31.2260   35.0030 C   0  0  0  0  0  0  0  0  0  0  0  0
   36.4790   29.8810   35.2540 C   0  0  0  0  0  0  0  0  0  0  0  0
   37.3370   32.5360   39.4920 N   0  0  0  0  0  0  0  0  0  0  0  0
   36.9990   33.8210   39.3750 C   0  0  0  0  0  0  0  0  0  0  0  0
   38.0430   34.5770   39.7440 N   0  0  0  0  0  0  0  0  0  0  0  0
   39.0520   33.7360   40.0990 C   0  0  0  0  0  0  0  0  0  0  0  0
   38.5920   32.4740   39.9350 N   0  0  0  0  0  0  0  0  0  0  0  0
   40.3870   34.1510   40.5700 C   0  0  0  0  0  0  0  0  0  0  0  0
   41.4800   33.3000   40.6920 C   0  0  0  0  0  0  0  0  0  0  0  0
   42.6570   33.8530   41.1490 C   0  0  0  0  0  0  0  0  0  0  0  0
   42.7600   35.1550   41.4660 N   0  0  0  0  0  0  0  0  0  0  0  0
   41.6900   35.9610   41.3410 C   0  0  0  0  0  0  0  0  0  0  0  0
   40.5100   35.4700   40.8970 N   0  0  0  0  0  0  0  0  0  0  0  0
   41.7130   37.3400   41.6530 N   0  0  0  0  0  0  0  0  0  0  0  0
   36.0800   30.8999   41.3169 H   0  0  0  0  0  0  0  0  0  0  0  0
   35.1207   28.6408   40.7545 H   0  0  0  0  0  0  0  0  0  0  0  0
   36.4767   26.8610   36.6470 H   0  0  0  0  0  0  0  0  0  0  0  0
   36.6490   26.9206   34.0416 H   0  0  0  0  0  0  0  0  0  0  0  0
   36.7266   28.7442   32.0251 H   0  0  0  0  0  0  0  0  0  0  0  0
   36.6774   31.2222   31.6530 H   0  0  0  0  0  0  0  0  0  0  0  0
   36.5048   32.8345   33.5388 H   0  0  0  0  0  0  0  0  0  0  0  0
   36.3796   31.9198   35.8531 H   0  0  0  0  0  0  0  0  0  0  0  0
   36.0243   34.1983   39.0322 H   0  0  0  0  0  0  0  0  0  0  0  0
   41.4085   32.2328   40.4352 H   0  0  0  0  0  0  0  0  0  0  0  0
   43.5410   33.2075   41.2578 H   0  0  0  0  0  0  0  0  0  0  0  0
   40.8619   37.9084   41.5375 H   0  0  0  0  0  0  0  0  0  0  0  0
   42.5809   37.7761   41.9958 H   0  0  0  0  0  0  0  0  0  0  0  0
  1 16  1  0
  1  2  2  0
  3  2  1  0
  4  3  2  0
  5  6  2  0
  5  4  1  0
  6  1  1  0
  7  5  1  0
  8  7  2  0
  9  8  1  0
 10  9  1  0
 10 15  2  0
 11 10  1  0
 12 11  2  0
 12 13  1  0
 13 14  2  0
 14 15  1  0
 15  7  1  0
 16 20  1  0
 17 16  1  0
 17 18  2  0
 18 19  1  0
 19 21  1  0
 20 19  2  0
 21 22  2  0
 21 26  1  0
 22 23  1  0
 23 24  2  0
 25 24  1  0
 25 27  1  0
 26 25  2  0
  2 28  1  0
  3 29  1  0
  8 30  1  0
  9 31  1  0
 11 32  1  0
 12 33  1  0
 13 34  1  0
 14 35  1  0
 17 36  1  0
 22 37  1  0
 23 38  1  0
 27 39  1  0
 27 40  1  0
M  ISO  8  28  14  29  14  30  14  31   9  32  14  33  14  34  14  35  14
M  ISO  3  36  14  37  14  38  14
M  END
>  <minimizedAffinity>  (1) 
-6.25795507

>  <minimizedRMSD>  (1) 
1.18065858

$$$$
