
     RDKit          3D

 40 43  0  0  0  0  0  0  0  0999 V2000
   37.4820   32.6770   39.8670 N   0  0  0  0  0  0  0  0  0  0  0  0
   37.1910   33.9320   39.5160 C   0  0  0  0  0  0  0  0  0  0  0  0
   38.2610   34.6980   39.7860 N   0  0  0  0  0  0  0  0  0  0  0  0
   39.2250   33.8950   40.3120 C   0  0  0  0  0  0  0  0  0  0  0  0
   38.7060   32.6420   40.3480 N   0  0  0  0  0  0  0  0  0  0  0  0
   36.8470   31.3930   39.8640 C   0  0  0  0  0  0  0  0  0  0  0  0
   36.2550   30.8240   40.9970 C   0  0  0  0  0  0  0  0  0  0  0  0
   35.6700   29.5660   40.8590 C   0  0  0  0  0  0  0  0  0  0  0  0
   35.7130   28.9720   39.6230 N   0  0  0  0  0  0  0  0  0  0  0  0
   36.2850   29.5410   38.5660 C   0  0  0  0  0  0  0  0  0  0  0  0
   36.8610   30.7570   38.6580 N   0  0  0  0  0  0  0  0  0  0  0  0
   36.3060   28.8930   37.3140 N   0  0  0  0  0  0  0  0  0  0  0  0
   35.4630   29.2670   36.2060 C   0  0  0  0  0  0  0  0  0  0  0  0
   36.4020   29.6660   35.0700 C   0  0  0  0  0  0  0  0  0  0  0  0
   37.2540   28.5480   34.7040 N   0  0  0  0  0  0  0  0  0  0  0  0
   38.0680   28.2140   35.8570 C   0  0  0  0  0  0  0  0  0  0  0  0
   37.1680   27.7910   36.9980 C   0  0  0  0  0  0  0  0  0  0  0  0
   40.5670   34.3320   40.7480 C   0  0  0  0  0  0  0  0  0  0  0  0
   41.7050   33.5600   40.6810 C   0  0  0  0  0  0  0  0  0  0  0  0
   42.8760   34.1380   41.1370 C   0  0  0  0  0  0  0  0  0  0  0  0
   42.9220   35.3840   41.6240 N   0  0  0  0  0  0  0  0  0  0  0  0
   41.8070   36.1230   41.6830 C   0  0  0  0  0  0  0  0  0  0  0  0
   40.6240   35.6070   41.2480 N   0  0  0  0  0  0  0  0  0  0  0  0
   41.7570   37.4380   42.1770 N   0  0  0  0  0  0  0  0  0  0  0  0
   36.2414   34.2780   39.0818 H   0  0  0  0  0  0  0  0  0  0  0  0
   36.2513   31.3507   41.9627 H   0  0  0  0  0  0  0  0  0  0  0  0
   35.1897   29.0661   41.7131 H   0  0  0  0  0  0  0  0  0  0  0  0
   34.8354   28.4168   35.9008 H   0  0  0  0  0  0  0  0  0  0  0  0
   34.7890   30.0930   36.4769 H   0  0  0  0  0  0  0  0  0  0  0  0
   35.8063   29.9695   34.1965 H   0  0  0  0  0  0  0  0  0  0  0  0
   37.0333   30.5024   35.4046 H   0  0  0  0  0  0  0  0  0  0  0  0
   36.6750   27.7388   34.4378 H   0  0  0  0  0  0  0  0  0  0  0  0
   38.7483   27.3887   35.6000 H   0  0  0  0  0  0  0  0  0  0  0  0
   38.6581   29.0919   36.1587 H   0  0  0  0  0  0  0  0  0  0  0  0
   36.5664   26.9210   36.6962 H   0  0  0  0  0  0  0  0  0  0  0  0
   37.7692   27.5119   37.8759 H   0  0  0  0  0  0  0  0  0  0  0  0
   41.6840   32.5342   40.2844 H   0  0  0  0  0  0  0  0  0  0  0  0
   43.8055   33.5510   41.0979 H   0  0  0  0  0  0  0  0  0  0  0  0
   40.8626   37.9485   42.1928 H   0  0  0  0  0  0  0  0  0  0  0  0
   42.6148   37.8911   42.5232 H   0  0  0  0  0  0  0  0  0  0  0  0
  1  5  1  0
  2  3  2  0
  2  1  1  0
  3  4  1  0
  4  5  2  0
  4 18  1  0
  6  1  1  0
  6  7  2  0
  8  7  1  0
  9  8  2  0
 10 11  2  0
 10  9  1  0
 11  6  1  0
 12 10  1  0
 13 12  1  0
 14 13  1  0
 15 14  1  0
 15 16  1  0
 16 17  1  0
 17 12  1  0
 18 23  1  0
 19 18  2  0
 19 20  1  0
 20 21  2  0
 21 22  1  0
 22 24  1  0
 23 22  2  0
  2 25  1  0
  7 26  1  0
  8 27  1  0
 13 28  1  0
 13 29  1  0
 14 30  1  0
 14 31  1  0
 15 32  1  0
 16 33  1  0
 16 34  1  0
 17 35  1  0
 17 36  1  0
 19 37  1  0
 20 38  1  0
 24 39  1  0
 24 40  1  0
M  ISO  8  25  14  26  14  27  14  28  13  29  13  30  13  31  13  32   5
M  ISO  6  33  13  34  13  35  13  36  13  37  14  38  14
M  END
>  <minimizedAffinity>  (1) 
-6.19628382

>  <minimizedRMSD>  (1) 
0.982429564

$$$$
