
     RDKit          3D

 33 35  0  0  0  0  0  0  0  0999 V2000
   37.3950   32.6730   39.7590 N   0  0  0  0  0  0  0  0  0  0  0  0
   37.1150   33.9470   39.4490 C   0  0  0  0  0  0  0  0  0  0  0  0
   38.1830   34.7080   39.7470 N   0  0  0  0  0  0  0  0  0  0  0  0
   39.1410   33.8910   40.2500 C   0  0  0  0  0  0  0  0  0  0  0  0
   38.6300   32.6260   40.2490 N   0  0  0  0  0  0  0  0  0  0  0  0
   36.7670   31.3950   39.7170 C   0  0  0  0  0  0  0  0  0  0  0  0
   36.2130   30.7570   40.8160 C   0  0  0  0  0  0  0  0  0  0  0  0
   35.6320   29.5050   40.6250 C   0  0  0  0  0  0  0  0  0  0  0  0
   35.6430   28.9850   39.3770 N   0  0  0  0  0  0  0  0  0  0  0  0
   36.1820   29.6140   38.3190 C   0  0  0  0  0  0  0  0  0  0  0  0
   36.7410   30.8170   38.5010 N   0  0  0  0  0  0  0  0  0  0  0  0
   36.1310   28.9550   37.0600 N   0  0  0  0  0  0  0  0  0  0  0  0
   36.9400   29.3980   35.9810 C   0  0  0  0  0  0  0  0  0  0  0  0
   37.0970   30.6610   35.7810 N   0  0  0  0  0  0  0  0  0  0  0  0
   37.5750   28.4660   35.1130 N   0  0  0  0  0  0  0  0  0  0  0  0
   36.6660   31.3980   36.3650 H   0  0  0  0  0  0  0  0  0  0  0  0
   40.4830   34.2990   40.7110 C   0  0  0  0  0  0  0  0  0  0  0  0
   41.6040   33.5060   40.6950 C   0  0  0  0  0  0  0  0  0  0  0  0
   42.7750   34.0690   41.1710 C   0  0  0  0  0  0  0  0  0  0  0  0
   42.8320   35.3340   41.6310 N   0  0  0  0  0  0  0  0  0  0  0  0
   41.7260   36.0880   41.6370 C   0  0  0  0  0  0  0  0  0  0  0  0
   40.5580   35.5890   41.1840 N   0  0  0  0  0  0  0  0  0  0  0  0
   41.7030   37.4230   42.1030 N   0  0  0  0  0  0  0  0  0  0  0  0
   36.1685   34.3097   39.0217 H   0  0  0  0  0  0  0  0  0  0  0  0
   36.2315   31.2259   41.8109 H   0  0  0  0  0  0  0  0  0  0  0  0
   35.1784   28.9566   41.4637 H   0  0  0  0  0  0  0  0  0  0  0  0
   35.5020   28.1498   36.9299 H   0  0  0  0  0  0  0  0  0  0  0  0
   38.1591   28.8028   34.3343 H   0  0  0  0  0  0  0  0  0  0  0  0
   37.4505   27.4547   35.2635 H   0  0  0  0  0  0  0  0  0  0  0  0
   41.5726   32.4719   40.3214 H   0  0  0  0  0  0  0  0  0  0  0  0
   43.6923   33.4619   41.1739 H   0  0  0  0  0  0  0  0  0  0  0  0
   40.8239   37.9595   42.0856 H   0  0  0  0  0  0  0  0  0  0  0  0
   42.5653   37.8588   42.4598 H   0  0  0  0  0  0  0  0  0  0  0  0
  1  5  1  0
  2  3  2  0
  2  1  1  0
  3  4  1  0
  4 17  1  0
  5  4  2  0
  6  1  1  0
  6  7  2  0
  8  7  1  0
  9  8  2  0
 10 11  2  0
 10  9  1  0
 11  6  1  0
 12 10  1  0
 13 12  1  0
 14 13  2  0
 14 16  1  0
 15 13  1  0
 17 22  1  0
 18 17  2  0
 18 19  1  0
 19 20  2  0
 20 21  1  0
 21 23  1  0
 22 21  2  0
  2 24  1  0
  7 25  1  0
  8 26  1  0
 12 27  1  0
 15 28  1  0
 15 29  1  0
 18 30  1  0
 19 31  1  0
 23 32  1  0
 23 33  1  0
M  ISO  5  24  14  25  14  26  14  30  14  31  14
M  END
>  <minimizedAffinity>  (1) 
-6.14544725

>  <minimizedRMSD>  (1) 
0.910314739

$$$$
