
     RDKit          3D

 36 39  0  0  0  0  0  0  0  0999 V2000
   37.5780   32.9090   39.8600 N   0  0  0  0  0  0  0  0  0  0  0  0
   37.3170   34.1770   39.5420 C   0  0  0  0  0  0  0  0  0  0  0  0
   38.3970   34.9240   39.8370 N   0  0  0  0  0  0  0  0  0  0  0  0
   39.3410   34.0910   40.3450 C   0  0  0  0  0  0  0  0  0  0  0  0
   38.8040   32.8340   40.3500 N   0  0  0  0  0  0  0  0  0  0  0  0
   40.6850   34.4900   40.8000 C   0  0  0  0  0  0  0  0  0  0  0  0
   41.8240   33.7120   40.6770 C   0  0  0  0  0  0  0  0  0  0  0  0
   43.0000   34.2560   41.1640 C   0  0  0  0  0  0  0  0  0  0  0  0
   43.0610   35.4630   41.7260 N   0  0  0  0  0  0  0  0  0  0  0  0
   41.9460   36.2040   41.8370 C   0  0  0  0  0  0  0  0  0  0  0  0
   40.7550   35.7250   41.3760 N   0  0  0  0  0  0  0  0  0  0  0  0
   41.9150   37.4910   42.4180 N   0  0  0  0  0  0  0  0  0  0  0  0
   36.9220   31.6420   39.8210 C   0  0  0  0  0  0  0  0  0  0  0  0
   36.4960   30.9560   40.9730 C   0  0  0  0  0  0  0  0  0  0  0  0
   35.8700   29.7310   40.8160 C   0  0  0  0  0  0  0  0  0  0  0  0
   35.7060   29.2670   39.5350 N   0  0  0  0  0  0  0  0  0  0  0  0
   36.1190   29.9400   38.4680 C   0  0  0  0  0  0  0  0  0  0  0  0
   36.7350   31.1400   38.5830 N   0  0  0  0  0  0  0  0  0  0  0  0
   35.9130   29.3900   37.1300 C   0  0  0  0  0  0  0  0  0  0  0  0
   34.6790   28.9470   36.7090 C   0  0  0  0  0  0  0  0  0  0  0  0
   34.5550   28.4380   35.4270 C   0  0  0  0  0  0  0  0  0  0  0  0
   35.6200   28.3490   34.5330 C   0  0  0  0  0  0  0  0  0  0  0  0
   36.8530   28.7940   34.9590 C   0  0  0  0  0  0  0  0  0  0  0  0
   36.9790   29.3080   36.2540 C   0  0  0  0  0  0  0  0  0  0  0  0
   36.3764   34.5503   39.1107 H   0  0  0  0  0  0  0  0  0  0  0  0
   41.7957   32.7136   40.2162 H   0  0  0  0  0  0  0  0  0  0  0  0
   43.9250   33.6661   41.0836 H   0  0  0  0  0  0  0  0  0  0  0  0
   41.0268   38.0096   42.4737 H   0  0  0  0  0  0  0  0  0  0  0  0
   42.7805   37.9109   42.7860 H   0  0  0  0  0  0  0  0  0  0  0  0
   36.6563   31.3825   41.9742 H   0  0  0  0  0  0  0  0  0  0  0  0
   35.5183   29.1530   41.6833 H   0  0  0  0  0  0  0  0  0  0  0  0
   33.8077   28.9965   37.3787 H   0  0  0  0  0  0  0  0  0  0  0  0
   33.5660   28.0863   35.0980 H   0  0  0  0  0  0  0  0  0  0  0  0
   35.4816   27.9378   33.5222 H   0  0  0  0  0  0  0  0  0  0  0  0
   37.7252   28.7457   34.2905 H   0  0  0  0  0  0  0  0  0  0  0  0
   37.9657   29.6609   36.5884 H   0  0  0  0  0  0  0  0  0  0  0  0
  1  5  1  0
  2  3  2  0
  2  1  1  0
  3  4  1  0
  4  5  2  0
  4  6  1  0
  6 11  1  0
  7  6  2  0
  7  8  1  0
  8  9  2  0
  9 10  1  0
 10 12  1  0
 11 10  2  0
 13  1  1  0
 13 14  2  0
 15 14  1  0
 16 15  2  0
 17 18  2  0
 17 16  1  0
 18 13  1  0
 19 17  1  0
 20 19  2  0
 21 20  1  0
 22 23  1  0
 22 21  2  0
 23 24  2  0
 24 19  1  0
  2 25  1  0
  7 26  1  0
  8 27  1  0
 12 28  1  0
 12 29  1  0
 14 30  1  0
 15 31  1  0
 20 32  1  0
 21 33  1  0
 22 34  1  0
 23 35  1  0
 24 36  1  0
M  ISO  8  25  14  26  14  27  14  30  14  31  14  32  14  33  14  34  14
M  ISO  2  35  14  36  14
M  END
>  <minimizedAffinity>  (1) 
-5.84920406

>  <minimizedRMSD>  (1) 
0.800892115

$$$$
