
     RDKit          3D

 42 45  0  0  0  0  0  0  0  0999 V2000
   37.3260   32.5520   39.7830 N   0  0  0  0  0  0  0  0  0  0  0  0
   37.0210   33.8070   39.4520 C   0  0  0  0  0  0  0  0  0  0  0  0
   38.0780   34.5910   39.7170 N   0  0  0  0  0  0  0  0  0  0  0  0
   39.0580   33.7940   40.2240 C   0  0  0  0  0  0  0  0  0  0  0  0
   38.5690   32.5300   40.2570 N   0  0  0  0  0  0  0  0  0  0  0  0
   40.4010   34.2430   40.6540 C   0  0  0  0  0  0  0  0  0  0  0  0
   41.5110   33.4360   40.7480 C   0  0  0  0  0  0  0  0  0  0  0  0
   42.6900   34.0270   41.1690 C   0  0  0  0  0  0  0  0  0  0  0  0
   42.7610   35.3350   41.4780 N   0  0  0  0  0  0  0  0  0  0  0  0
   41.6700   36.1070   41.3810 C   0  0  0  0  0  0  0  0  0  0  0  0
   40.4970   35.5690   40.9730 N   0  0  0  0  0  0  0  0  0  0  0  0
   41.6580   37.4870   41.6860 N   0  0  0  0  0  0  0  0  0  0  0  0
   36.7210   31.2590   39.7780 C   0  0  0  0  0  0  0  0  0  0  0  0
   36.1630   30.6430   40.8910 C   0  0  0  0  0  0  0  0  0  0  0  0
   35.6030   29.3840   40.7640 C   0  0  0  0  0  0  0  0  0  0  0  0
   35.6350   28.8190   39.5340 N   0  0  0  0  0  0  0  0  0  0  0  0
   36.1720   29.4200   38.4790 C   0  0  0  0  0  0  0  0  0  0  0  0
   36.7260   30.6410   38.5570 N   0  0  0  0  0  0  0  0  0  0  0  0
   36.1790   28.7470   37.1480 C   0  0  0  0  0  0  0  0  0  0  0  0
   34.8090   28.3290   36.6900 C   0  0  0  0  0  0  0  0  0  0  0  0
   34.3660   29.0710   35.4280 C   0  0  0  0  0  0  0  0  0  0  0  0
   35.2970   28.6300   34.3130 C   0  0  0  0  0  0  0  0  0  0  0  0
   36.7130   28.7710   34.7890 C   0  0  0  0  0  0  0  0  0  0  0  0
   36.8020   29.6140   36.0680 C   0  0  0  0  0  0  0  0  0  0  0  0
   36.0621   34.1442   39.0314 H   0  0  0  0  0  0  0  0  0  0  0  0
   41.4638   32.3656   40.4990 H   0  0  0  0  0  0  0  0  0  0  0  0
   43.5960   33.4090   41.2535 H   0  0  0  0  0  0  0  0  0  0  0  0
   40.7865   38.0277   41.5916 H   0  0  0  0  0  0  0  0  0  0  0  0
   42.5208   37.9520   42.0027 H   0  0  0  0  0  0  0  0  0  0  0  0
   36.1663   31.1522   41.8660 H   0  0  0  0  0  0  0  0  0  0  0  0
   35.1523   28.8658   41.6233 H   0  0  0  0  0  0  0  0  0  0  0  0
   36.7913   27.8455   37.2974 H   0  0  0  0  0  0  0  0  0  0  0  0
   34.8207   27.2494   36.4796 H   0  0  0  0  0  0  0  0  0  0  0  0
   34.0971   28.5750   37.4917 H   0  0  0  0  0  0  0  0  0  0  0  0
   33.3267   28.8096   35.1797 H   0  0  0  0  0  0  0  0  0  0  0  0
   34.4110   30.1604   35.5733 H   0  0  0  0  0  0  0  0  0  0  0  0
   35.1392   29.2619   33.4266 H   0  0  0  0  0  0  0  0  0  0  0  0
   35.0929   27.5830   34.0445 H   0  0  0  0  0  0  0  0  0  0  0  0
   37.1216   27.7703   34.9928 H   0  0  0  0  0  0  0  0  0  0  0  0
   37.2894   29.2803   34.0026 H   0  0  0  0  0  0  0  0  0  0  0  0
   37.8507   29.8410   36.3103 H   0  0  0  0  0  0  0  0  0  0  0  0
   36.2886   30.5813   35.9644 H   0  0  0  0  0  0  0  0  0  0  0  0
  1  5  1  0
  2  3  2  0
  2  1  1  0
  3  4  1  0
  4  5  2  0
  4  6  1  0
  6  7  2  0
  6 11  1  0
  7  8  1  0
  8  9  2  0
 10  9  1  0
 10 12  1  0
 11 10  2  0
 13  1  1  0
 13 14  2  0
 15 14  1  0
 16 15  2  0
 17 18  2  0
 17 16  1  0
 18 13  1  0
 19 17  1  0
 20 19  1  0
 21 20  1  0
 22 23  1  0
 22 21  1  0
 23 24  1  0
 24 19  1  0
  2 25  1  0
  7 26  1  0
  8 27  1  0
 12 28  1  0
 12 29  1  0
 14 30  1  0
 15 31  1  0
 19 32  1  0
 20 33  1  0
 20 34  1  0
 21 35  1  0
 21 36  1  0
 22 37  1  0
 22 38  1  0
 23 39  1  0
 23 40  1  0
 24 41  1  0
 24 42  1  0
M  ISO  8  25  14  26  14  27  14  30  14  31  14  32  13  33  13  34  13
M  ISO  8  35  13  36  13  37  13  38  13  39  13  40  13  41  13  42  13
M  END
>  <minimizedAffinity>  (1) 
-5.83707952

>  <minimizedRMSD>  (1) 
1.06856608

$$$$
