
     RDKit          3D

 19 20  0  0  0  0  0  0  0  0999 V2000
   38.8610   29.9460   42.2410 C   0  0  0  0  0  0  0  0  0  0  0  0
   39.5630   31.0900   41.8070 C   0  0  0  0  0  0  0  0  0  0  0  0
   38.8640   32.0700   41.1030 C   0  0  0  0  0  0  0  0  0  0  0  0
   37.5310   31.8750   40.8640 N   0  0  0  0  0  0  0  0  0  0  0  0
   36.8990   30.7700   41.2940 C   0  0  0  0  0  0  0  0  0  0  0  0
   37.5420   29.8010   41.9780 N   0  0  0  0  0  0  0  0  0  0  0  0
   35.5030   30.6410   41.0040 N   0  0  0  0  0  0  0  0  0  0  0  0
   39.4650   33.2610   40.6190 N   0  0  0  0  0  0  0  0  0  0  0  0
   40.7710   33.2930   40.7190 N   0  0  0  0  0  0  0  0  0  0  0  0
   41.2510   34.4580   40.2350 C   0  0  0  0  0  0  0  0  0  0  0  0
   40.1390   35.1820   39.8140 C   0  0  0  0  0  0  0  0  0  0  0  0
   39.0290   34.4070   40.0660 C   0  0  0  0  0  0  0  0  0  0  0  0
   39.3927   29.1621   42.8002 H   0  0  0  0  0  0  0  0  0  0  0  0
   40.6361   31.2063   42.0188 H   0  0  0  0  0  0  0  0  0  0  0  0
   34.9866   29.8071   41.3184 H   0  0  0  0  0  0  0  0  0  0  0  0
   35.0150   31.3821   40.4810 H   0  0  0  0  0  0  0  0  0  0  0  0
   42.3043   34.7710   40.1838 H   0  0  0  0  0  0  0  0  0  0  0  0
   40.1458   36.1857   39.3641 H   0  0  0  0  0  0  0  0  0  0  0  0
   37.9831   34.6746   39.8549 H   0  0  0  0  0  0  0  0  0  0  0  0
  2  1  2  0
  3  2  1  0
  4  3  2  0
  4  5  1  0
  5  6  2  0
  6  1  1  0
  7  5  1  0
  8  9  1  0
  8  3  1  0
 10  9  2  0
 11 12  2  0
 11 10  1  0
 12  8  1  0
  1 13  1  0
  2 14  1  0
  7 15  1  0
  7 16  1  0
 10 17  1  0
 11 18  1  0
 12 19  1  0
M  ISO  5  13  14  14  14  17  14  18  14  19  14
M  END
>  <minimizedAffinity>  (1) 
-4.34058285

>  <minimizedRMSD>  (1) 
7.26484156

$$$$
