
     RDKit          3D

 33 36  0  0  0  0  0  0  0  0999 V2000
   37.6140   33.0010   39.8110 N   0  0  0  0  0  0  0  0  0  0  0  0
   37.3530   34.2820   39.5480 C   0  0  0  0  0  0  0  0  0  0  0  0
   38.4360   35.0200   39.8680 N   0  0  0  0  0  0  0  0  0  0  0  0
   39.3860   34.1600   40.3410 C   0  0  0  0  0  0  0  0  0  0  0  0
   38.8510   32.9140   40.2970 N   0  0  0  0  0  0  0  0  0  0  0  0
   36.9600   31.7410   39.7210 C   0  0  0  0  0  0  0  0  0  0  0  0
   36.4370   31.0720   40.8430 C   0  0  0  0  0  0  0  0  0  0  0  0
   35.8160   29.8400   40.6320 C   0  0  0  0  0  0  0  0  0  0  0  0
   35.7580   29.3650   39.3500 N   0  0  0  0  0  0  0  0  0  0  0  0
   36.2680   30.0340   38.3140 C   0  0  0  0  0  0  0  0  0  0  0  0
   36.8760   31.2270   38.4720 N   0  0  0  0  0  0  0  0  0  0  0  0
   36.1240   29.4020   37.0470 N   0  0  0  0  0  0  0  0  0  0  0  0
   37.0450   29.0780   36.1270 C   0  0  0  0  0  0  0  0  0  0  0  0
   36.5040   28.4750   35.0300 C   0  0  0  0  0  0  0  0  0  0  0  0
   35.1750   28.4200   35.2790 N   0  0  0  0  0  0  0  0  0  0  0  0
   34.9720   28.9700   36.4710 C   0  0  0  0  0  0  0  0  0  0  0  0
   40.7310   34.5450   40.8090 C   0  0  0  0  0  0  0  0  0  0  0  0
   41.8620   33.7600   40.6790 C   0  0  0  0  0  0  0  0  0  0  0  0
   43.0400   34.2800   41.1750 C   0  0  0  0  0  0  0  0  0  0  0  0
   43.1020   35.4910   41.7590 N   0  0  0  0  0  0  0  0  0  0  0  0
   41.9960   36.2340   41.8750 C   0  0  0  0  0  0  0  0  0  0  0  0
   40.8160   35.7680   41.4050 N   0  0  0  0  0  0  0  0  0  0  0  0
   41.9710   37.5120   42.4740 N   0  0  0  0  0  0  0  0  0  0  0  0
   36.4100   34.6726   39.1377 H   0  0  0  0  0  0  0  0  0  0  0  0
   36.5149   31.5049   41.8512 H   0  0  0  0  0  0  0  0  0  0  0  0
   35.3872   29.2694   41.4690 H   0  0  0  0  0  0  0  0  0  0  0  0
   38.1204   29.2772   36.2448 H   0  0  0  0  0  0  0  0  0  0  0  0
   37.0331   28.1120   34.1365 H   0  0  0  0  0  0  0  0  0  0  0  0
   33.9813   29.0651   36.9395 H   0  0  0  0  0  0  0  0  0  0  0  0
   41.8244   32.7689   40.2032 H   0  0  0  0  0  0  0  0  0  0  0  0
   43.9606   33.6839   41.0901 H   0  0  0  0  0  0  0  0  0  0  0  0
   41.0861   38.0357   42.5334 H   0  0  0  0  0  0  0  0  0  0  0  0
   42.8377   37.9208   42.8517 H   0  0  0  0  0  0  0  0  0  0  0  0
  1  5  1  0
  2  1  1  0
  2  3  2  0
  3  4  1  0
  4 17  1  0
  5  4  2  0
  6  1  1  0
  6  7  2  0
  8  7  1  0
  9  8  2  0
 10 11  2  0
 10  9  1  0
 11  6  1  0
 12 10  1  0
 13 12  1  0
 14 15  1  0
 14 13  2  0
 15 16  2  0
 16 12  1  0
 17 22  1  0
 18 17  2  0
 18 19  1  0
 19 20  2  0
 20 21  1  0
 21 23  1  0
 22 21  2  0
  2 24  1  0
  7 25  1  0
  8 26  1  0
 13 27  1  0
 14 28  1  0
 16 29  1  0
 18 30  1  0
 19 31  1  0
 23 32  1  0
 23 33  1  0
M  ISO  8  24  14  25  14  26  14  27  14  28  14  29  14  30  14  31  14
M  END
>  <minimizedAffinity>  (1) 
-5.66844702

>  <minimizedRMSD>  (1) 
0.548311949

$$$$
