
     RDKit          3D

 38 40  0  0  0  0  0  0  0  0999 V2000
   37.3170   32.5420   39.7760 N   0  0  0  0  0  0  0  0  0  0  0  0
   37.0330   33.8030   39.4470 C   0  0  0  0  0  0  0  0  0  0  0  0
   38.1080   34.5730   39.7110 N   0  0  0  0  0  0  0  0  0  0  0  0
   39.0710   33.7660   40.2140 C   0  0  0  0  0  0  0  0  0  0  0  0
   38.5590   32.5010   40.2470 N   0  0  0  0  0  0  0  0  0  0  0  0
   40.4240   34.1830   40.6460 C   0  0  0  0  0  0  0  0  0  0  0  0
   41.5170   33.3520   40.7400 C   0  0  0  0  0  0  0  0  0  0  0  0
   42.6980   33.9330   41.1650 C   0  0  0  0  0  0  0  0  0  0  0  0
   42.8050   35.2300   41.4760 N   0  0  0  0  0  0  0  0  0  0  0  0
   41.7160   36.0360   41.3780 C   0  0  0  0  0  0  0  0  0  0  0  0
   40.5250   35.5140   40.9630 N   0  0  0  0  0  0  0  0  0  0  0  0
   41.7240   37.4070   41.6840 N   0  0  0  0  0  0  0  0  0  0  0  0
   36.6870   31.2630   39.7660 C   0  0  0  0  0  0  0  0  0  0  0  0
   36.2420   30.6020   40.9240 C   0  0  0  0  0  0  0  0  0  0  0  0
   35.6400   29.3570   40.7920 C   0  0  0  0  0  0  0  0  0  0  0  0
   35.5220   28.8500   39.5230 N   0  0  0  0  0  0  0  0  0  0  0  0
   35.9560   29.5040   38.4430 C   0  0  0  0  0  0  0  0  0  0  0  0
   36.5460   30.7210   38.5330 N   0  0  0  0  0  0  0  0  0  0  0  0
   35.8000   28.9050   37.0900 C   0  0  0  0  0  0  0  0  0  0  0  0
   36.5500   29.7490   36.0840 C   0  0  0  0  0  0  0  0  0  0  0  0
   34.3400   28.9430   36.6760 C   0  0  0  0  0  0  0  0  0  0  0  0
   36.2740   27.4810   37.1140 C   0  0  0  0  0  0  0  0  0  0  0  0
   36.0789   34.1566   39.0291 H   0  0  0  0  0  0  0  0  0  0  0  0
   41.4546   32.2825   40.4904 H   0  0  0  0  0  0  0  0  0  0  0  0
   43.5923   33.2983   41.2515 H   0  0  0  0  0  0  0  0  0  0  0  0
   40.8612   37.9612   41.5876 H   0  0  0  0  0  0  0  0  0  0  0  0
   42.5927   37.8580   42.0047 H   0  0  0  0  0  0  0  0  0  0  0  0
   36.3680   31.0616   41.9154 H   0  0  0  0  0  0  0  0  0  0  0  0
   35.2736   28.8015   41.6678 H   0  0  0  0  0  0  0  0  0  0  0  0
   37.1901   30.4694   36.6144 H   0  0  0  0  0  0  0  0  0  0  0  0
   37.1741   29.0992   35.4529 H   0  0  0  0  0  0  0  0  0  0  0  0
   35.8313   30.2924   35.4529 H   0  0  0  0  0  0  0  0  0  0  0  0
   33.7046   28.9595   37.5738 H   0  0  0  0  0  0  0  0  0  0  0  0
   34.1521   29.8463   36.0771 H   0  0  0  0  0  0  0  0  0  0  0  0
   34.1054   28.0507   36.0771 H   0  0  0  0  0  0  0  0  0  0  0  0
   36.3846   27.1489   38.1568 H   0  0  0  0  0  0  0  0  0  0  0  0
   35.5402   26.8416   36.6014 H   0  0  0  0  0  0  0  0  0  0  0  0
   37.2446   27.4089   36.6014 H   0  0  0  0  0  0  0  0  0  0  0  0
  1  5  1  0
  2  3  2  0
  2  1  1  0
  3  4  1  0
  4  5  2  0
  4  6  1  0
  6  7  2  0
  6 11  1  0
  7  8  1  0
  8  9  2  0
 10  9  1  0
 10 12  1  0
 11 10  2  0
 13  1  1  0
 13 14  2  0
 15 14  1  0
 16 15  2  0
 17 18  2  0
 17 16  1  0
 18 13  1  0
 19 22  1  0
 19 17  1  0
 20 19  1  0
 21 19  1  0
  2 23  1  0
  7 24  1  0
  8 25  1  0
 12 26  1  0
 12 27  1  0
 14 28  1  0
 15 29  1  0
 20 30  1  0
 20 31  1  0
 20 32  1  0
 21 33  1  0
 21 34  1  0
 21 35  1  0
 22 36  1  0
 22 37  1  0
 22 38  1  0
M  ISO  8  23  14  24  14  25  14  28  14  29  14  30   8  31   8  32   8
M  ISO  6  33   8  34   8  35   8  36   8  37   8  38   8
M  END
>  <minimizedAffinity>  (1) 
-5.50511026

>  <minimizedRMSD>  (1) 
1.23733079

$$$$
