
     RDKit          3D

 31 34  0  0  0  0  0  0  0  0999 V2000
   37.5950   32.9700   39.8380 N   0  0  0  0  0  0  0  0  0  0  0  0
   37.3340   34.2440   39.5450 C   0  0  0  0  0  0  0  0  0  0  0  0
   38.4210   34.9840   39.8490 N   0  0  0  0  0  0  0  0  0  0  0  0
   39.3670   34.1480   40.3360 C   0  0  0  0  0  0  0  0  0  0  0  0
   38.8260   32.8930   40.3200 N   0  0  0  0  0  0  0  0  0  0  0  0
   40.7220   34.5200   40.7970 C   0  0  0  0  0  0  0  0  0  0  0  0
   41.8460   33.7370   40.6700 C   0  0  0  0  0  0  0  0  0  0  0  0
   43.0260   34.2730   41.1710 C   0  0  0  0  0  0  0  0  0  0  0  0
   43.0880   35.4670   41.7450 N   0  0  0  0  0  0  0  0  0  0  0  0
   41.9790   36.2120   41.8590 C   0  0  0  0  0  0  0  0  0  0  0  0
   40.7950   35.7580   41.3950 N   0  0  0  0  0  0  0  0  0  0  0  0
   41.9530   37.5090   42.4560 N   0  0  0  0  0  0  0  0  0  0  0  0
   36.9370   31.6990   39.7800 C   0  0  0  0  0  0  0  0  0  0  0  0
   36.4420   31.0400   40.9040 C   0  0  0  0  0  0  0  0  0  0  0  0
   35.8240   29.8100   40.7200 C   0  0  0  0  0  0  0  0  0  0  0  0
   35.7390   29.3210   39.4470 N   0  0  0  0  0  0  0  0  0  0  0  0
   36.2290   29.9880   38.3860 C   0  0  0  0  0  0  0  0  0  0  0  0
   36.8330   31.1790   38.5270 N   0  0  0  0  0  0  0  0  0  0  0  0
   36.1180   29.4320   37.0420 C   0  0  0  0  0  0  0  0  0  0  0  0
   35.1170   29.0800   36.2130 N   0  0  0  0  0  0  0  0  0  0  0  0
   35.6300   28.6280   35.1090 O   0  0  0  0  0  0  0  0  0  0  0  0
   36.9390   28.6470   35.1300 C   0  0  0  0  0  0  0  0  0  0  0  0
   37.2420   29.1570   36.3570 N   0  0  0  0  0  0  0  0  0  0  0  0
   36.3919   34.6274   39.1262 H   0  0  0  0  0  0  0  0  0  0  0  0
   41.8125   32.7436   40.1989 H   0  0  0  0  0  0  0  0  0  0  0  0
   43.9494   33.6810   41.0879 H   0  0  0  0  0  0  0  0  0  0  0  0
   41.0674   38.0318   42.5135 H   0  0  0  0  0  0  0  0  0  0  0  0
   42.8198   37.9217   42.8291 H   0  0  0  0  0  0  0  0  0  0  0  0
   36.5380   31.4811   41.9071 H   0  0  0  0  0  0  0  0  0  0  0  0
   35.4158   29.2471   41.5723 H   0  0  0  0  0  0  0  0  0  0  0  0
   37.6336   28.3256   34.3399 H   0  0  0  0  0  0  0  0  0  0  0  0
  1  5  1  0
  2  1  1  0
  2  3  2  0
  3  4  1  0
  4  6  1  0
  5  4  2  0
  6 11  1  0
  7  6  2  0
  7  8  1  0
  8  9  2  0
  9 10  1  0
 10 12  1  0
 11 10  2  0
 13  1  1  0
 13 14  2  0
 15 14  1  0
 16 15  2  0
 17 18  2  0
 17 16  1  0
 18 13  1  0
 19 17  1  0
 20 19  2  0
 21 22  1  0
 21 20  1  0
 22 23  2  0
 23 19  1  0
  2 24  1  0
  7 25  1  0
  8 26  1  0
 12 27  1  0
 12 28  1  0
 14 29  1  0
 15 30  1  0
 22 31  1  0
M  ISO  6  24  14  25  14  26  14  29  14  30  14  31  14
M  END
>  <minimizedAffinity>  (1) 
-5.43894863

>  <minimizedRMSD>  (1) 
0.617515862

$$$$
