
     RDKit          3D

 29 31  0  0  0  0  0  0  0  0999 V2000
   37.4480   32.4440   39.2500 N   0  0  0  0  0  0  0  0  0  0  0  0
   37.0000   33.7010   39.3690 C   0  0  0  0  0  0  0  0  0  0  0  0
   38.0020   34.4720   39.8410 N   0  0  0  0  0  0  0  0  0  0  0  0
   39.0810   33.6640   40.0120 C   0  0  0  0  0  0  0  0  0  0  0  0
   38.7200   32.4000   39.6380 N   0  0  0  0  0  0  0  0  0  0  0  0
   40.4130   34.0820   40.5150 C   0  0  0  0  0  0  0  0  0  0  0  0
   41.5040   33.2500   40.6770 C   0  0  0  0  0  0  0  0  0  0  0  0
   42.6570   33.8420   41.1620 C   0  0  0  0  0  0  0  0  0  0  0  0
   42.7430   35.1350   41.4640 N   0  0  0  0  0  0  0  0  0  0  0  0
   41.6700   35.9280   41.3000 C   0  0  0  0  0  0  0  0  0  0  0  0
   40.5000   35.4200   40.8280 N   0  0  0  0  0  0  0  0  0  0  0  0
   41.6650   37.3170   41.5950 N   0  0  0  0  0  0  0  0  0  0  0  0
   36.9570   31.1720   38.8340 C   0  0  0  0  0  0  0  0  0  0  0  0
   36.3600   30.2470   39.7060 C   0  0  0  0  0  0  0  0  0  0  0  0
   35.9210   29.0380   39.1770 C   0  0  0  0  0  0  0  0  0  0  0  0
   36.0980   28.8300   37.8470 N   0  0  0  0  0  0  0  0  0  0  0  0
   36.6670   29.7240   37.0480 C   0  0  0  0  0  0  0  0  0  0  0  0
   37.1130   30.9150   37.5050 N   0  0  0  0  0  0  0  0  0  0  0  0
   36.8070   29.3940   35.6340 C   0  0  0  0  0  0  0  0  0  0  0  0
   35.9780   29.9100   34.8190 O   0  0  0  0  0  0  0  0  0  0  0  0
   37.7790   28.5570   35.1140 O   0  0  0  0  0  0  0  0  0  0  0  0
   35.9851   34.0468   39.1231 H   0  0  0  0  0  0  0  0  0  0  0  0
   41.4587   32.1781   40.4343 H   0  0  0  0  0  0  0  0  0  0  0  0
   43.5472   33.2119   41.3051 H   0  0  0  0  0  0  0  0  0  0  0  0
   40.8097   37.8717   41.4477 H   0  0  0  0  0  0  0  0  0  0  0  0
   42.5167   37.7698   41.9562 H   0  0  0  0  0  0  0  0  0  0  0  0
   36.2430   30.4722   40.7763 H   0  0  0  0  0  0  0  0  0  0  0  0
   35.4469   28.2768   39.8140 H   0  0  0  0  0  0  0  0  0  0  0  0
   37.8107   28.3801   34.1405 H   0  0  0  0  0  0  0  0  0  0  0  0
  1  2  1  0
  1  5  1  0
  2  3  2  0
  3  4  1  0
  4  6  1  0
  5  4  2  0
  6  7  2  0
  6 11  1  0
  7  8  1  0
  8  9  2  0
 10  9  1  0
 10 12  1  0
 11 10  2  0
 13  1  1  0
 13 14  2  0
 15 14  1  0
 16 15  2  0
 17 18  2  0
 17 16  1  0
 18 13  1  0
 19 17  1  0
 20 19  2  0
 21 19  1  0
  2 22  1  0
  7 23  1  0
  8 24  1  0
 12 25  1  0
 12 26  1  0
 14 27  1  0
 15 28  1  0
 21 29  1  0
M  ISO  6  22  14  23  14  24  14  27  14  28  14  29   3
M  END
>  <minimizedAffinity>  (1) 
-5.40691566

>  <minimizedRMSD>  (1) 
1.2649492

$$$$
