
     RDKit          3D

 27 29  0  0  0  0  0  0  0  0999 V2000
   37.9490   33.4080   39.8120 N   0  0  0  0  0  0  0  0  0  0  0  0
   37.7110   34.7090   39.6390 C   0  0  0  0  0  0  0  0  0  0  0  0
   38.8090   35.3970   40.0150 N   0  0  0  0  0  0  0  0  0  0  0  0
   39.7370   34.5020   40.4250 C   0  0  0  0  0  0  0  0  0  0  0  0
   39.1830   33.2640   40.2910 N   0  0  0  0  0  0  0  0  0  0  0  0
   41.0820   34.8150   40.9200 C   0  0  0  0  0  0  0  0  0  0  0  0
   42.2210   34.0600   40.6660 C   0  0  0  0  0  0  0  0  0  0  0  0
   43.4150   34.5130   41.2200 C   0  0  0  0  0  0  0  0  0  0  0  0
   43.4790   35.6130   41.9590 N   0  0  0  0  0  0  0  0  0  0  0  0
   42.3650   36.3380   42.1990 C   0  0  0  0  0  0  0  0  0  0  0  0
   41.1730   35.9490   41.6870 N   0  0  0  0  0  0  0  0  0  0  0  0
   42.3440   37.5280   42.9790 N   0  0  0  0  0  0  0  0  0  0  0  0
   37.2730   32.1620   39.6320 C   0  0  0  0  0  0  0  0  0  0  0  0
   36.6340   31.4770   40.6680 C   0  0  0  0  0  0  0  0  0  0  0  0
   36.0110   30.2720   40.3710 C   0  0  0  0  0  0  0  0  0  0  0  0
   36.0590   29.8230   39.0750 N   0  0  0  0  0  0  0  0  0  0  0  0
   36.6880   30.5170   38.1060 C   0  0  0  0  0  0  0  0  0  0  0  0
   37.3020   31.6860   38.3540 N   0  0  0  0  0  0  0  0  0  0  0  0
   36.7180   30.0360   36.8030 O   0  0  0  0  0  0  0  0  0  0  0  0
   36.7778   35.1467   39.2549 H   0  0  0  0  0  0  0  0  0  0  0  0
   42.1807   33.1462   40.0550 H   0  0  0  0  0  0  0  0  0  0  0  0
   44.3362   33.9398   41.0390 H   0  0  0  0  0  0  0  0  0  0  0  0
   41.4583   38.0337   43.1232 H   0  0  0  0  0  0  0  0  0  0  0  0
   43.2145   37.8837   43.3994 H   0  0  0  0  0  0  0  0  0  0  0  0
   36.6245   31.8810   41.6911 H   0  0  0  0  0  0  0  0  0  0  0  0
   35.4942   29.6943   41.1515 H   0  0  0  0  0  0  0  0  0  0  0  0
   36.2765   29.1779   36.5818 H   0  0  0  0  0  0  0  0  0  0  0  0
  1  5  1  0
  2  1  1  0
  2  3  2  0
  3  4  1  0
  4  6  1  0
  5  4  2  0
  6 11  1  0
  7  6  2  0
  7  8  1  0
  8  9  2  0
  9 10  1  0
 10 12  1  0
 11 10  2  0
 13  1  1  0
 13 14  2  0
 15 14  1  0
 16 15  2  0
 17 18  2  0
 17 16  1  0
 18 13  1  0
 19 17  1  0
  2 20  1  0
  7 21  1  0
  8 22  1  0
 12 23  1  0
 12 24  1  0
 14 25  1  0
 15 26  1  0
 19 27  1  0
M  ISO  6  20  14  21  14  22  14  25  14  26  14  27   3
M  END
>  <minimizedAffinity>  (1) 
-4.96165466

>  <minimizedRMSD>  (1) 
0.0660738647

$$$$
