
     RDKit          3D

 26 27  0  0  0  0  0  0  0  0999 V2000
   40.0940   31.2290   42.3450 C   0  0  0  0  0  0  0  0  0  0  0  0
   39.3050   30.1110   42.6900 C   0  0  0  0  0  0  0  0  0  0  0  0
   38.0920   29.9350   42.0200 C   0  0  0  0  0  0  0  0  0  0  0  0
   37.7260   30.8470   41.0690 N   0  0  0  0  0  0  0  0  0  0  0  0
   38.5190   31.9040   40.7750 C   0  0  0  0  0  0  0  0  0  0  0  0
   39.6920   32.0950   41.4080 N   0  0  0  0  0  0  0  0  0  0  0  0
   37.2460   28.7730   42.3600 C   0  0  0  0  0  0  0  0  0  0  0  0
   37.7570   27.4600   41.8210 C   0  0  0  0  0  0  0  0  0  0  0  0
   36.8830   26.4720   42.5700 C   0  0  0  0  0  0  0  0  0  0  0  0
   36.4160   27.1950   43.8330 C   0  0  0  0  0  0  0  0  0  0  0  0
   37.2650   28.4720   43.8530 C   0  0  0  0  0  0  0  0  0  0  0  0
   37.9030   32.7520   39.7070 C   0  0  0  0  0  0  0  0  0  0  0  0
   38.6790   32.7520   38.5710 F   0  0  0  0  0  0  0  0  0  0  0  0
   37.7660   34.0470   40.1650 F   0  0  0  0  0  0  0  0  0  0  0  0
   36.6160   32.3080   39.4260 F   0  0  0  0  0  0  0  0  0  0  0  0
   41.0552   31.3910   42.8548 H   0  0  0  0  0  0  0  0  0  0  0  0
   39.6348   29.4005   43.4622 H   0  0  0  0  0  0  0  0  0  0  0  0
   36.2712   29.0698   41.9457 H   0  0  0  0  0  0  0  0  0  0  0  0
   37.6083   27.3857   40.7336 H   0  0  0  0  0  0  0  0  0  0  0  0
   38.8367   27.3042   41.9623 H   0  0  0  0  0  0  0  0  0  0  0  0
   36.0190   26.1825   41.9538 H   0  0  0  0  0  0  0  0  0  0  0  0
   37.4335   25.5512   42.8133 H   0  0  0  0  0  0  0  0  0  0  0  0
   35.3445   27.4367   43.7736 H   0  0  0  0  0  0  0  0  0  0  0  0
   36.5365   26.5876   44.7422 H   0  0  0  0  0  0  0  0  0  0  0  0
   38.2831   28.2880   44.2266 H   0  0  0  0  0  0  0  0  0  0  0  0
   36.9040   29.2776   44.5093 H   0  0  0  0  0  0  0  0  0  0  0  0
  1  2  2  0
  3  7  1  0
  3  2  1  0
  4  3  2  0
  5  4  1  0
  5  6  2  0
  6  1  1  0
  7 11  1  0
  8  7  1  0
  8  9  1  0
  9 10  1  0
 10 11  1  0
 12 14  1  0
 12  5  1  0
 13 12  1  0
 15 12  1  0
  1 16  1  0
  2 17  1  0
  7 18  1  0
  8 19  1  0
  8 20  1  0
  9 21  1  0
  9 22  1  0
 10 23  1  0
 10 24  1  0
 11 25  1  0
 11 26  1  0
M  ISO  8  16  14  17  14  18  13  19  13  20  13  21  13  22  13  23  13
M  ISO  3  24  13  25  13  26  13
M  END
>  <minimizedAffinity>  (1) 
-4.76350355

>  <minimizedRMSD>  (1) 
3.33930755

$$$$
