
     RDKit          3D

 25 25  0  0  0  0  0  0  0  0999 V2000
   40.1440   30.3300   42.1340 C   0  0  0  0  0  0  0  0  0  0  0  0
   39.6860   29.2010   42.8170 C   0  0  0  0  0  0  0  0  0  0  0  0
   38.3340   28.8590   42.6810 C   0  0  0  0  0  0  0  0  0  0  0  0
   37.5340   29.6390   41.8950 N   0  0  0  0  0  0  0  0  0  0  0  0
   38.0180   30.7170   41.2550 C   0  0  0  0  0  0  0  0  0  0  0  0
   39.3220   31.0720   41.3670 N   0  0  0  0  0  0  0  0  0  0  0  0
   36.9540   31.4000   40.4630 C   0  0  0  0  0  0  0  0  0  0  0  0
   36.9660   30.9820   39.1500 F   0  0  0  0  0  0  0  0  0  0  0  0
   37.1520   32.7730   40.5220 F   0  0  0  0  0  0  0  0  0  0  0  0
   35.7140   31.1800   41.0500 F   0  0  0  0  0  0  0  0  0  0  0  0
   37.8250   27.6610   43.3990 C   0  0  0  0  0  0  0  0  0  0  0  0
   37.0200   26.8570   42.3860 C   0  0  0  0  0  0  0  0  0  0  0  0
   36.9370   28.0960   44.5450 C   0  0  0  0  0  0  0  0  0  0  0  0
   39.0370   26.8850   43.8870 C   0  0  0  0  0  0  0  0  0  0  0  0
   41.2012   30.6201   42.2246 H   0  0  0  0  0  0  0  0  0  0  0  0
   40.3641   28.6003   43.4409 H   0  0  0  0  0  0  0  0  0  0  0  0
   36.3383   26.1761   42.9167 H   0  0  0  0  0  0  0  0  0  0  0  0
   36.4355   27.5426   41.7549 H   0  0  0  0  0  0  0  0  0  0  0  0
   37.7049   26.2717   41.7549 H   0  0  0  0  0  0  0  0  0  0  0  0
   37.4270   27.8560   45.5001 H   0  0  0  0  0  0  0  0  0  0  0  0
   36.7644   29.1807   44.4839 H   0  0  0  0  0  0  0  0  0  0  0  0
   35.9742   27.5675   44.4839 H   0  0  0  0  0  0  0  0  0  0  0  0
   39.0490   26.8773   44.9869 H   0  0  0  0  0  0  0  0  0  0  0  0
   38.9854   25.8516   43.5137 H   0  0  0  0  0  0  0  0  0  0  0  0
   39.9540   27.3644   43.5137 H   0  0  0  0  0  0  0  0  0  0  0  0
  1  2  2  0
  3  2  1  0
  3 11  1  0
  4  3  2  0
  5  6  2  0
  5  4  1  0
  6  1  1  0
  7  9  1  0
  7 10  1  0
  7  5  1  0
  8  7  1  0
 11 14  1  0
 11 13  1  0
 12 11  1  0
  1 15  1  0
  2 16  1  0
 12 17  1  0
 12 18  1  0
 12 19  1  0
 13 20  1  0
 13 21  1  0
 13 22  1  0
 14 23  1  0
 14 24  1  0
 14 25  1  0
M  ISO  8  15  14  16  14  17   8  18   8  19   8  20   8  21   8  22   8
M  ISO  3  23   8  24   8  25   8
M  END
>  <minimizedAffinity>  (1) 
-4.67681313

>  <minimizedRMSD>  (1) 
2.23268604

$$$$
