
     RDKit          3D

 22 22  0  0  0  0  0  0  0  0999 V2000
   38.7770   30.4550   41.9290 C   0  0  0  0  0  0  0  0  0  0  0  0
   38.0160   30.2980   40.7710 C   0  0  0  0  0  0  0  0  0  0  0  0
   36.9970   29.3380   40.7920 C   0  0  0  0  0  0  0  0  0  0  0  0
   36.8000   28.6170   41.9200 N   0  0  0  0  0  0  0  0  0  0  0  0
   37.5620   28.8010   43.0260 C   0  0  0  0  0  0  0  0  0  0  0  0
   38.5480   29.7190   43.0300 N   0  0  0  0  0  0  0  0  0  0  0  0
   37.1470   27.8910   44.1260 C   0  0  0  0  0  0  0  0  0  0  0  0
   36.7040   28.5980   45.2210 F   0  0  0  0  0  0  0  0  0  0  0  0
   38.2310   27.1120   44.5030 F   0  0  0  0  0  0  0  0  0  0  0  0
   36.1710   27.0080   43.6830 F   0  0  0  0  0  0  0  0  0  0  0  0
   36.1600   29.1380   39.5710 C   0  0  0  0  0  0  0  0  0  0  0  0
   36.3590   30.1980   38.5340 C   0  0  0  0  0  0  0  0  0  0  0  0
   34.7150   29.2150   40.0740 C   0  0  0  0  0  0  0  0  0  0  0  0
   39.5857   31.2006   41.9416 H   0  0  0  0  0  0  0  0  0  0  0  0
   38.2091   30.9056   39.8746 H   0  0  0  0  0  0  0  0  0  0  0  0
   36.4265   28.1861   39.0883 H   0  0  0  0  0  0  0  0  0  0  0  0
   36.5404   31.1642   39.0274 H   0  0  0  0  0  0  0  0  0  0  0  0
   37.2242   29.9388   37.9061 H   0  0  0  0  0  0  0  0  0  0  0  0
   35.4587   30.2703   37.9061 H   0  0  0  0  0  0  0  0  0  0  0  0
   34.7092   29.2153   41.1740 H   0  0  0  0  0  0  0  0  0  0  0  0
   34.2469   30.1394   39.7046 H   0  0  0  0  0  0  0  0  0  0  0  0
   34.1513   28.3456   39.7046 H   0  0  0  0  0  0  0  0  0  0  0  0
  1  6  2  0
  2  3  2  0
  2  1  1  0
  3  4  1  0
  4  5  2  0
  5  6  1  0
  5  7  1  0
  7  9  1  0
  7  8  1  0
 10  7  1  0
 11 13  1  0
 11  3  1  0
 12 11  1  0
  1 14  1  0
  2 15  1  0
 11 16  1  0
 12 17  1  0
 12 18  1  0
 12 19  1  0
 13 20  1  0
 13 21  1  0
 13 22  1  0
M  ISO  8  14  14  15  14  16   8  17   8  18   8  19   8  20   8  21   8
M  ISO  1  22   8
M  END
>  <minimizedAffinity>  (1) 
-4.59141397

>  <minimizedRMSD>  (1) 
4.46306849

$$$$
