
     RDKit          3D

 21 22  0  0  0  0  0  0  0  0999 V2000
   40.5060   32.5430   41.0060 C   0  0  0  0  0  0  0  0  0  0  0  0
   40.3340   31.3940   41.7800 C   0  0  0  0  0  0  0  0  0  0  0  0
   39.1530   30.6910   41.6230 C   0  0  0  0  0  0  0  0  0  0  0  0
   38.2250   31.1330   40.7420 N   0  0  0  0  0  0  0  0  0  0  0  0
   38.4270   32.2460   40.0130 C   0  0  0  0  0  0  0  0  0  0  0  0
   39.5650   32.9600   40.1360 N   0  0  0  0  0  0  0  0  0  0  0  0
   38.9490   29.4860   42.4220 C   0  0  0  0  0  0  0  0  0  0  0  0
   37.7110   29.1650   42.9370 C   0  0  0  0  0  0  0  0  0  0  0  0
   37.6800   27.9970   43.6700 C   0  0  0  0  0  0  0  0  0  0  0  0
   38.7280   27.1850   43.9040 N   0  0  0  0  0  0  0  0  0  0  0  0
   39.9100   27.5510   43.3760 C   0  0  0  0  0  0  0  0  0  0  0  0
   40.0160   28.6970   42.6390 N   0  0  0  0  0  0  0  0  0  0  0  0
   37.2790   32.5380   39.1170 C   0  0  0  0  0  0  0  0  0  0  0  0
   37.6100   32.3470   37.7940 F   0  0  0  0  0  0  0  0  0  0  0  0
   36.8580   33.8500   39.3040 F   0  0  0  0  0  0  0  0  0  0  0  0
   36.1920   31.7350   39.4550 F   0  0  0  0  0  0  0  0  0  0  0  0
   41.4346   33.1236   41.1090 H   0  0  0  0  0  0  0  0  0  0  0  0
   41.1076   31.0606   42.4873 H   0  0  0  0  0  0  0  0  0  0  0  0
   36.8201   29.7898   42.7763 H   0  0  0  0  0  0  0  0  0  0  0  0
   36.7122   27.7026   44.1021 H   0  0  0  0  0  0  0  0  0  0  0  0
   40.7982   26.9229   43.5388 H   0  0  0  0  0  0  0  0  0  0  0  0
  1  2  2  0
  3  2  1  0
  3  7  1  0
  4  3  2  0
  5  6  2  0
  5  4  1  0
  6  1  1  0
  7 12  1  0
  7  8  2  0
  8  9  1  0
  9 10  2  0
 11 10  1  0
 12 11  2  0
 13 15  1  0
 13 16  1  0
 13  5  1  0
 14 13  1  0
  1 17  1  0
  2 18  1  0
  8 19  1  0
  9 20  1  0
 11 21  1  0
M  ISO  5  17  14  18  14  19  14  20  14  21  14
M  END
>  <minimizedAffinity>  (1) 
-4.47695351

>  <minimizedRMSD>  (1) 
4.32554007

$$$$
