
     RDKit          3D

 19 20  0  0  0  0  0  0  0  0999 V2000
   38.1080   28.4400   43.5880 C   0  0  0  0  0  0  0  0  0  0  0  0
   38.3400   27.1310   43.1630 C   0  0  0  0  0  0  0  0  0  0  0  0
   37.7770   26.7360   41.9540 C   0  0  0  0  0  0  0  0  0  0  0  0
   37.0310   27.6240   41.2410 N   0  0  0  0  0  0  0  0  0  0  0  0
   36.8330   28.8790   41.6910 C   0  0  0  0  0  0  0  0  0  0  0  0
   37.3630   29.2960   42.8560 N   0  0  0  0  0  0  0  0  0  0  0  0
   37.9870   25.4100   41.4800 N   0  0  0  0  0  0  0  0  0  0  0  0
   36.9970   24.5190   41.6660 C   0  0  0  0  0  0  0  0  0  0  0  0
   37.4130   23.3310   41.1380 N   0  0  0  0  0  0  0  0  0  0  0  0
   38.6520   23.5030   40.6340 C   0  0  0  0  0  0  0  0  0  0  0  0
   38.9780   24.7920   40.8590 N   0  0  0  0  0  0  0  0  0  0  0  0
   35.9860   29.6780   40.7500 C   0  0  0  0  0  0  0  0  0  0  0  0
   36.5470   29.6980   39.4890 F   0  0  0  0  0  0  0  0  0  0  0  0
   35.8390   30.9610   41.2180 F   0  0  0  0  0  0  0  0  0  0  0  0
   34.7060   29.1290   40.6840 F   0  0  0  0  0  0  0  0  0  0  0  0
   38.5413   28.7817   44.5396 H   0  0  0  0  0  0  0  0  0  0  0  0
   38.9465   26.4364   43.7628 H   0  0  0  0  0  0  0  0  0  0  0  0
   36.0301   24.7120   42.1538 H   0  0  0  0  0  0  0  0  0  0  0  0
   39.2733   22.7428   40.1379 H   0  0  0  0  0  0  0  0  0  0  0  0
  2  1  2  0
  3  2  1  0
  4  5  1  0
  4  3  2  0
  5  6  2  0
  6  1  1  0
  7  8  1  0
  7  3  1  0
  9  8  2  0
 10 11  2  0
 10  9  1  0
 11  7  1  0
 12 14  1  0
 12  5  1  0
 13 12  1  0
 15 12  1  0
  1 16  1  0
  2 17  1  0
  8 18  1  0
 10 19  1  0
M  ISO  4  16  14  17  14  18  14  19  14
M  END
>  <minimizedAffinity>  (1) 
-4.46694183

>  <minimizedRMSD>  (1) 
2.16960406

$$$$
