
     RDKit          3D

 20 21  0  0  0  0  0  0  0  0999 V2000
   40.1210   31.4890   42.0810 C   0  0  0  0  0  0  0  0  0  0  0  0
   39.5340   30.3320   42.6110 C   0  0  0  0  0  0  0  0  0  0  0  0
   38.3110   29.9460   42.0920 C   0  0  0  0  0  0  0  0  0  0  0  0
   37.7290   30.6760   41.1120 N   0  0  0  0  0  0  0  0  0  0  0  0
   38.3220   31.7850   40.6250 C   0  0  0  0  0  0  0  0  0  0  0  0
   39.5190   32.1980   41.1050 N   0  0  0  0  0  0  0  0  0  0  0  0
   37.6740   28.7430   42.6230 C   0  0  0  0  0  0  0  0  0  0  0  0
   37.2380   28.5380   43.9160 C   0  0  0  0  0  0  0  0  0  0  0  0
   36.7250   27.2550   43.8700 C   0  0  0  0  0  0  0  0  0  0  0  0
   36.8660   26.7430   42.5760 C   0  0  0  0  0  0  0  0  0  0  0  0
   37.4440   27.6920   41.8840 O   0  0  0  0  0  0  0  0  0  0  0  0
   37.5150   32.4330   39.5580 C   0  0  0  0  0  0  0  0  0  0  0  0
   38.2120   32.4710   38.3650 F   0  0  0  0  0  0  0  0  0  0  0  0
   37.1580   33.7060   39.9290 F   0  0  0  0  0  0  0  0  0  0  0  0
   36.3280   31.7280   39.3820 F   0  0  0  0  0  0  0  0  0  0  0  0
   41.0934   31.8258   42.4695 H   0  0  0  0  0  0  0  0  0  0  0  0
   40.0258   29.7542   43.4074 H   0  0  0  0  0  0  0  0  0  0  0  0
   37.2866   29.2262   44.7727 H   0  0  0  0  0  0  0  0  0  0  0  0
   36.2756   26.7198   44.7194 H   0  0  0  0  0  0  0  0  0  0  0  0
   36.5562   25.7510   42.2155 H   0  0  0  0  0  0  0  0  0  0  0  0
  1  2  2  0
  3  2  1  0
  3  7  1  0
  4  3  2  0
  5  6  2  0
  5  4  1  0
  6  1  1  0
  7  8  2  0
  9  8  1  0
 10  9  2  0
 11 10  1  0
 11  7  1  0
 12 14  1  0
 12  5  1  0
 13 12  1  0
 15 12  1  0
  1 16  1  0
  2 17  1  0
  8 18  1  0
  9 19  1  0
 10 20  1  0
M  ISO  5  16  14  17  14  18  14  19  14  20  14
M  END
>  <minimizedAffinity>  (1) 
-4.45866823

>  <minimizedRMSD>  (1) 
3.24258471

$$$$
