
     RDKit          3D

 20 21  0  0  0  0  0  0  0  0999 V2000
   38.0860   28.4000   43.5830 C   0  0  0  0  0  0  0  0  0  0  0  0
   38.3480   27.1120   43.0960 C   0  0  0  0  0  0  0  0  0  0  0  0
   37.8150   26.7830   41.8570 C   0  0  0  0  0  0  0  0  0  0  0  0
   37.0760   27.7070   41.1790 N   0  0  0  0  0  0  0  0  0  0  0  0
   36.8520   28.9330   41.6900 C   0  0  0  0  0  0  0  0  0  0  0  0
   37.3560   29.2830   42.8890 N   0  0  0  0  0  0  0  0  0  0  0  0
   38.0720   25.4780   41.3500 N   0  0  0  0  0  0  0  0  0  0  0  0
   39.0110   24.8580   40.6120 C   0  0  0  0  0  0  0  0  0  0  0  0
   38.6200   23.5390   40.4960 C   0  0  0  0  0  0  0  0  0  0  0  0
   37.4550   23.3480   41.1540 N   0  0  0  0  0  0  0  0  0  0  0  0
   37.1310   24.5510   41.6750 C   0  0  0  0  0  0  0  0  0  0  0  0
   36.0240   29.7510   40.7670 C   0  0  0  0  0  0  0  0  0  0  0  0
   36.6370   29.8360   39.5150 F   0  0  0  0  0  0  0  0  0  0  0  0
   35.9010   31.0330   41.2650 F   0  0  0  0  0  0  0  0  0  0  0  0
   34.7590   29.2290   40.6470 F   0  0  0  0  0  0  0  0  0  0  0  0
   38.4912   28.6939   44.5625 H   0  0  0  0  0  0  0  0  0  0  0  0
   38.9500   26.3928   43.6708 H   0  0  0  0  0  0  0  0  0  0  0  0
   39.9157   25.3142   40.1837 H   0  0  0  0  0  0  0  0  0  0  0  0
   39.1734   22.7607   39.9502 H   0  0  0  0  0  0  0  0  0  0  0  0
   36.2329   24.7528   42.2772 H   0  0  0  0  0  0  0  0  0  0  0  0
  2  1  2  0
  3  2  1  0
  4  5  1  0
  4  3  2  0
  5  6  2  0
  6  1  1  0
  7 11  1  0
  7  3  1  0
  8  7  1  0
  9  8  2  0
  9 10  1  0
 10 11  2  0
 12 14  1  0
 12  5  1  0
 13 12  1  0
 15 12  1  0
  1 16  1  0
  2 17  1  0
  8 18  1  0
  9 19  1  0
 11 20  1  0
M  ISO  5  16  14  17  14  18  14  19  14  20  14
M  END
>  <minimizedAffinity>  (1) 
-4.41625357

>  <minimizedRMSD>  (1) 
2.2907486

$$$$
