
     RDKit          3D

 26 27  0  0  0  0  0  0  0  0999 V2000
   37.9590   28.2110   43.5200 C   0  0  0  0  0  0  0  0  0  0  0  0
   38.2100   26.9780   42.9220 C   0  0  0  0  0  0  0  0  0  0  0  0
   37.7100   26.7580   41.6310 C   0  0  0  0  0  0  0  0  0  0  0  0
   37.0090   27.7470   41.0280 N   0  0  0  0  0  0  0  0  0  0  0  0
   36.7860   28.9270   41.6380 C   0  0  0  0  0  0  0  0  0  0  0  0
   37.2590   29.1530   42.8730 N   0  0  0  0  0  0  0  0  0  0  0  0
   37.9310   25.5060   40.9500 N   0  0  0  0  0  0  0  0  0  0  0  0
   37.0070   24.3960   41.0670 C   0  0  0  0  0  0  0  0  0  0  0  0
   37.7110   23.0720   40.9340 C   0  0  0  0  0  0  0  0  0  0  0  0
   38.6910   23.0320   39.9810 O   0  0  0  0  0  0  0  0  0  0  0  0
   38.8800   24.1750   39.2480 C   0  0  0  0  0  0  0  0  0  0  0  0
   39.1130   25.3870   40.1360 C   0  0  0  0  0  0  0  0  0  0  0  0
   35.9980   29.8590   40.7920 C   0  0  0  0  0  0  0  0  0  0  0  0
   35.8960   31.1120   41.3780 F   0  0  0  0  0  0  0  0  0  0  0  0
   34.7400   29.3640   40.5620 F   0  0  0  0  0  0  0  0  0  0  0  0
   36.5990   29.9850   39.5400 F   0  0  0  0  0  0  0  0  0  0  0  0
   38.3388   28.4132   44.5324 H   0  0  0  0  0  0  0  0  0  0  0  0
   38.7835   26.2001   43.4473 H   0  0  0  0  0  0  0  0  0  0  0  0
   36.5164   24.4422   42.0505 H   0  0  0  0  0  0  0  0  0  0  0  0
   36.2688   24.4760   40.2554 H   0  0  0  0  0  0  0  0  0  0  0  0
   38.1686   22.8298   41.9045 H   0  0  0  0  0  0  0  0  0  0  0  0
   36.9459   22.3471   40.6190 H   0  0  0  0  0  0  0  0  0  0  0  0
   39.7554   24.0385   38.5960 H   0  0  0  0  0  0  0  0  0  0  0  0
   37.9695   24.3554   38.6576 H   0  0  0  0  0  0  0  0  0  0  0  0
   40.0003   25.2346   40.7680 H   0  0  0  0  0  0  0  0  0  0  0  0
   39.2914   26.2964   39.5435 H   0  0  0  0  0  0  0  0  0  0  0  0
  2  1  2  0
  3  2  1  0
  4  3  2  0
  4  5  1  0
  5  6  2  0
  6  1  1  0
  7  8  1  0
  7  3  1  0
  9  8  1  0
 10  9  1  0
 11 10  1  0
 11 12  1  0
 12  7  1  0
 13 14  1  0
 13  5  1  0
 15 13  1  0
 16 13  1  0
  1 17  1  0
  2 18  1  0
  8 19  1  0
  8 20  1  0
  9 21  1  0
  9 22  1  0
 11 23  1  0
 11 24  1  0
 12 25  1  0
 12 26  1  0
M  ISO  8  17  14  18  14  19  13  20  13  21  13  22  13  23  13  24  13
M  ISO  2  25  13  26  13
M  END
>  <minimizedAffinity>  (1) 
-4.40271044

>  <minimizedRMSD>  (1) 
2.9120245

$$$$
