
     RDKit          3D

 20 20  0  0  0  0  0  0  0  0999 V2000
   39.8070   29.9300   42.3000 C   0  0  0  0  0  0  0  0  0  0  0  0
   39.0880   28.9500   43.0120 C   0  0  0  0  0  0  0  0  0  0  0  0
   37.7110   28.8330   42.7770 C   0  0  0  0  0  0  0  0  0  0  0  0
   37.1400   29.6610   41.8820 N   0  0  0  0  0  0  0  0  0  0  0  0
   37.8590   30.5960   41.2100 C   0  0  0  0  0  0  0  0  0  0  0  0
   39.1890   30.7350   41.4160 N   0  0  0  0  0  0  0  0  0  0  0  0
   37.0000   31.3830   40.2830 C   0  0  0  0  0  0  0  0  0  0  0  0
   37.3840   31.1420   38.9570 F   0  0  0  0  0  0  0  0  0  0  0  0
   37.1110   32.7190   40.5470 F   0  0  0  0  0  0  0  0  0  0  0  0
   35.6760   31.0670   40.4690 F   0  0  0  0  0  0  0  0  0  0  0  0
   36.9740   27.8080   43.5260 C   0  0  0  0  0  0  0  0  0  0  0  0
   36.8980   28.1120   45.0140 C   0  0  0  0  0  0  0  0  0  0  0  0
   35.5430   28.0910   45.3500 O   0  0  0  0  0  0  0  0  0  0  0  0
   40.8885   30.0388   42.4688 H   0  0  0  0  0  0  0  0  0  0  0  0
   39.5944   28.2929   43.7344 H   0  0  0  0  0  0  0  0  0  0  0  0
   35.9510   27.7470   43.1263 H   0  0  0  0  0  0  0  0  0  0  0  0
   37.5135   26.8567   43.4076 H   0  0  0  0  0  0  0  0  0  0  0  0
   37.4443   27.3484   45.5871 H   0  0  0  0  0  0  0  0  0  0  0  0
   37.3523   29.0865   45.2465 H   0  0  0  0  0  0  0  0  0  0  0  0
   35.4473   28.0895   46.3354 H   0  0  0  0  0  0  0  0  0  0  0  0
  1  2  2  0
  3  2  1  0
  3 11  1  0
  4  3  2  0
  5  6  2  0
  5  4  1  0
  6  1  1  0
  7 10  1  0
  7  9  1  0
  7  5  1  0
  8  7  1  0
 11 12  1  0
 12 13  1  0
  1 14  1  0
  2 15  1  0
 11 16  1  0
 11 17  1  0
 12 18  1  0
 12 19  1  0
 13 20  1  0
M  ISO  7  14  14  15  14  16   8  17   8  18   8  19   8  20   3
M  END
>  <minimizedAffinity>  (1) 
-3.98240209

>  <minimizedRMSD>  (1) 
0.401311338

$$$$
