
     RDKit          3D

 17 18  0  0  0  0  0  0  0  0999 V2000
   40.0090   32.1200   41.1050 C   0  0  0  0  0  0  0  0  0  0  0  0
   39.5450   30.9230   41.7020 C   0  0  0  0  0  0  0  0  0  0  0  0
   38.1910   30.6390   41.6250 C   0  0  0  0  0  0  0  0  0  0  0  0
   37.3690   31.5210   40.9780 N   0  0  0  0  0  0  0  0  0  0  0  0
   37.8320   32.6420   40.4230 C   0  0  0  0  0  0  0  0  0  0  0  0
   39.1520   32.9600   40.4760 N   0  0  0  0  0  0  0  0  0  0  0  0
   36.9140   33.5180   39.7630 N   0  0  0  0  0  0  0  0  0  0  0  0
   37.5530   29.4520   42.1860 C   0  0  0  0  0  0  0  0  0  0  0  0
   36.5860   28.6360   41.7530 N   0  0  0  0  0  0  0  0  0  0  0  0
   36.3630   27.6940   42.6390 O   0  0  0  0  0  0  0  0  0  0  0  0
   37.1830   27.8900   43.6560 C   0  0  0  0  0  0  0  0  0  0  0  0
   37.9440   28.9860   43.4030 N   0  0  0  0  0  0  0  0  0  0  0  0
   41.0789   32.3712   41.1524 H   0  0  0  0  0  0  0  0  0  0  0  0
   40.2390   30.2386   42.2119 H   0  0  0  0  0  0  0  0  0  0  0  0
   35.9130   33.2788   39.7217 H   0  0  0  0  0  0  0  0  0  0  0  0
   37.2539   34.3881   39.3290 H   0  0  0  0  0  0  0  0  0  0  0  0
   37.2401   27.2668   44.5606 H   0  0  0  0  0  0  0  0  0  0  0  0
  1  2  2  0
  3  2  1  0
  3  8  1  0
  4  3  2  0
  5  6  2  0
  5  4  1  0
  6  1  1  0
  7  5  1  0
  8 12  1  0
  9  8  2  0
  9 10  1  0
 10 11  1  0
 12 11  2  0
  1 13  1  0
  2 14  1  0
  7 15  1  0
  7 16  1  0
 11 17  1  0
M  ISO  3  13  14  14  14  17  14
M  END
>  <minimizedAffinity>  (1) 
-4.09128857

>  <minimizedRMSD>  (1) 
3.80118489

$$$$
