
     RDKit          3D

 24 24  0  0  0  0  0  0  0  0999 V2000
   40.6320   31.2990   41.2010 C   0  0  0  0  0  0  0  0  0  0  0  0
   39.4940   30.4910   41.3870 C   0  0  0  0  0  0  0  0  0  0  0  0
   38.2700   31.0720   41.2010 C   0  0  0  0  0  0  0  0  0  0  0  0
   38.1810   32.3740   40.8510 N   0  0  0  0  0  0  0  0  0  0  0  0
   39.2770   33.1310   40.6780 C   0  0  0  0  0  0  0  0  0  0  0  0
   40.5170   32.5970   40.8520 N   0  0  0  0  0  0  0  0  0  0  0  0
   38.9580   34.5250   40.3000 C   0  0  0  0  0  0  0  0  0  0  0  0
   39.9400   35.0420   39.4610 F   0  0  0  0  0  0  0  0  0  0  0  0
   38.8730   35.3100   41.4430 F   0  0  0  0  0  0  0  0  0  0  0  0
   37.7220   34.5930   39.7150 F   0  0  0  0  0  0  0  0  0  0  0  0
   37.0380   30.2610   41.3870 C   0  0  0  0  0  0  0  0  0  0  0  0
   37.2540   29.0250   42.1840 C   0  0  0  0  0  0  0  0  0  0  0  0
   36.9630   29.1880   43.5780 N   0  0  0  0  0  0  0  0  0  0  0  0
   36.8350   28.0060   44.3650 C   0  0  0  0  0  0  0  0  0  0  0  0
   36.4980   28.3400   45.6630 F   0  0  0  0  0  0  0  0  0  0  0  0
   35.9790   27.1090   43.7860 F   0  0  0  0  0  0  0  0  0  0  0  0
   38.1000   27.3910   44.3520 F   0  0  0  0  0  0  0  0  0  0  0  0
   41.6324   30.8642   41.3428 H   0  0  0  0  0  0  0  0  0  0  0  0
   39.5860   29.4323   41.6712 H   0  0  0  0  0  0  0  0  0  0  0  0
   36.2885   30.8801   41.9017 H   0  0  0  0  0  0  0  0  0  0  0  0
   36.7051   29.9460   40.3870 H   0  0  0  0  0  0  0  0  0  0  0  0
   36.6043   28.2333   41.7825 H   0  0  0  0  0  0  0  0  0  0  0  0
   38.3207   28.7688   42.1029 H   0  0  0  0  0  0  0  0  0  0  0  0
   37.7216   29.7513   43.9880 H   0  0  0  0  0  0  0  0  0  0  0  0
  1  2  2  0
  3  2  1  0
  3 11  1  0
  4  3  2  0
  5  4  1  0
  5  6  2  0
  6  1  1  0
  7  5  1  0
  7  9  1  0
  8  7  1  0
 10  7  1  0
 11 12  1  0
 12 13  1  0
 13 14  1  0
 14 15  1  0
 16 14  1  0
 17 14  1  0
  1 18  1  0
  2 19  1  0
 11 20  1  0
 11 21  1  0
 12 22  1  0
 12 23  1  0
 13 24  1  0
M  ISO  7  18  14  19  14  20   8  21   8  22   8  23   8  24   5
M  END
>  <minimizedAffinity>  (1) 
-5.54742002

>  <minimizedRMSD>  (1) 
2.27749586

$$$$
