
     RDKit          3D

 35 37  0  0  0  0  0  0  0  0999 V2000
   37.0600   26.9120   42.2840 C   0  0  0  0  0  0  0  0  0  0  0  0
   36.9550   25.5100   38.8330 C   0  0  0  0  0  0  0  0  0  0  0  0
   36.7970   25.6410   40.2100 C   0  0  0  0  0  0  0  0  0  0  0  0
   37.2310   26.8010   40.8330 C   0  0  0  0  0  0  0  0  0  0  0  0
   37.7950   27.7700   40.0720 N   0  0  0  0  0  0  0  0  0  0  0  0
   37.9400   27.6260   38.7400 C   0  0  0  0  0  0  0  0  0  0  0  0
   37.5260   26.5010   38.1030 N   0  0  0  0  0  0  0  0  0  0  0  0
   38.5840   28.8300   38.1310 C   0  0  0  0  0  0  0  0  0  0  0  0
   39.1350   28.4910   36.8890 F   0  0  0  0  0  0  0  0  0  0  0  0
   39.5780   29.3030   38.9410 F   0  0  0  0  0  0  0  0  0  0  0  0
   37.6710   29.8410   37.9680 F   0  0  0  0  0  0  0  0  0  0  0  0
   37.7340   28.0520   42.9320 C   0  0  0  0  0  0  0  0  0  0  0  0
   37.0310   29.3230   42.7740 N   0  0  0  0  0  0  0  0  0  0  0  0
   37.2460   30.3660   41.8320 C   0  0  0  0  0  0  0  0  0  0  0  0
   36.1790   30.8430   41.0970 C   0  0  0  0  0  0  0  0  0  0  0  0
   36.6120   31.8280   40.2730 N   0  0  0  0  0  0  0  0  0  0  0  0
   37.9340   31.9800   40.4770 C   0  0  0  0  0  0  0  0  0  0  0  0
   38.9400   32.8040   39.9580 C   0  0  0  0  0  0  0  0  0  0  0  0
   40.2400   32.6940   40.4050 C   0  0  0  0  0  0  0  0  0  0  0  0
   40.6090   31.7800   41.3730 C   0  0  0  0  0  0  0  0  0  0  0  0
   39.6460   30.9380   41.9200 C   0  0  0  0  0  0  0  0  0  0  0  0
   38.3660   31.1030   41.4270 C   0  0  0  0  0  0  0  0  0  0  0  0
   37.4482   25.9891   42.7396 H   0  0  0  0  0  0  0  0  0  0  0  0
   35.9840   27.0764   42.4426 H   0  0  0  0  0  0  0  0  0  0  0  0
   36.6131   24.5928   38.3312 H   0  0  0  0  0  0  0  0  0  0  0  0
   36.3335   24.8340   40.7965 H   0  0  0  0  0  0  0  0  0  0  0  0
   37.8226   27.8365   44.0070 H   0  0  0  0  0  0  0  0  0  0  0  0
   38.7123   28.1651   42.4420 H   0  0  0  0  0  0  0  0  0  0  0  0
   36.2665   29.4878   43.4443 H   0  0  0  0  0  0  0  0  0  0  0  0
   35.1427   30.4812   41.1688 H   0  0  0  0  0  0  0  0  0  0  0  0
   36.0338   32.3638   39.6101 H   0  0  0  0  0  0  0  0  0  0  0  0
   38.6909   33.5467   39.1858 H   0  0  0  0  0  0  0  0  0  0  0  0
   41.0078   33.3553   39.9770 H   0  0  0  0  0  0  0  0  0  0  0  0
   41.6549   31.7185   41.7083 H   0  0  0  0  0  0  0  0  0  0  0  0
   39.8871   30.1923   42.6918 H   0  0  0  0  0  0  0  0  0  0  0  0
  1 12  1  0
  2  3  2  0
  3  4  1  0
  4  1  1  0
  5  4  2  0
  6  5  1  0
  7  6  2  0
  7  2  1  0
  8  6  1  0
  8 10  1  0
  9  8  1  0
 11  8  1  0
 13 12  1  0
 14 13  1  0
 15 14  2  0
 16 17  1  0
 16 15  1  0
 17 22  2  0
 18 19  2  0
 18 17  1  0
 19 20  1  0
 20 21  2  0
 22 14  1  0
 22 21  1  0
  1 23  1  0
  1 24  1  0
  2 25  1  0
  3 26  1  0
 12 27  1  0
 12 28  1  0
 13 29  1  0
 15 30  1  0
 16 31  1  0
 18 32  1  0
 19 33  1  0
 20 34  1  0
 21 35  1  0
M  ISO  8  23   8  24   8  25  14  26  14  27   8  28   8  30  14  31   9
M  ISO  4  32  14  33  14  34  14  35  14
M  END
>  <minimizedAffinity>  (1) 
-4.6683135

>  <minimizedRMSD>  (1) 
5.90723658

$$$$
