
     RDKit          3D

 27 27  0  0  0  0  0  0  0  0999 V2000
   39.7990   29.3190   42.6070 C   0  0  0  0  0  0  0  0  0  0  0  0
   40.7290   28.3940   43.0860 C   0  0  0  0  0  0  0  0  0  0  0  0
   40.2670   27.1730   43.5790 C   0  0  0  0  0  0  0  0  0  0  0  0
   38.9360   26.9410   43.5710 N   0  0  0  0  0  0  0  0  0  0  0  0
   38.0510   27.8430   43.1050 C   0  0  0  0  0  0  0  0  0  0  0  0
   38.4690   29.0490   42.6160 N   0  0  0  0  0  0  0  0  0  0  0  0
   36.6480   27.3530   43.1990 C   0  0  0  0  0  0  0  0  0  0  0  0
   35.8390   28.0450   42.2850 F   0  0  0  0  0  0  0  0  0  0  0  0
   36.1600   27.5410   44.4640 F   0  0  0  0  0  0  0  0  0  0  0  0
   36.5940   25.9960   42.9360 F   0  0  0  0  0  0  0  0  0  0  0  0
   41.2530   26.2090   44.0710 C   0  0  0  0  0  0  0  0  0  0  0  0
   42.5000   26.7840   44.6090 C   0  0  0  0  0  0  0  0  0  0  0  0
   42.4600   27.0550   46.0480 N   0  0  0  0  0  0  0  0  0  0  0  0
   43.4640   27.9950   46.4470 C   0  0  0  0  0  0  0  0  0  0  0  0
   43.7660   28.9110   45.2480 C   0  0  0  0  0  0  0  0  0  0  0  0
   40.1510   30.2846   42.2150 H   0  0  0  0  0  0  0  0  0  0  0  0
   41.8048   28.6233   43.0749 H   0  0  0  0  0  0  0  0  0  0  0  0
   40.7798   25.6209   44.8712 H   0  0  0  0  0  0  0  0  0  0  0  0
   41.5519   25.6141   43.1953 H   0  0  0  0  0  0  0  0  0  0  0  0
   43.3195   26.0768   44.4130 H   0  0  0  0  0  0  0  0  0  0  0  0
   42.6460   27.7520   44.1073 H   0  0  0  0  0  0  0  0  0  0  0  0
   41.5338   27.4360   46.2886 H   0  0  0  0  0  0  0  0  0  0  0  0
   43.0971   28.5960   47.2921 H   0  0  0  0  0  0  0  0  0  0  0  0
   44.3762   27.4671   46.7620 H   0  0  0  0  0  0  0  0  0  0  0  0
   44.0910   29.8967   45.6123 H   0  0  0  0  0  0  0  0  0  0  0  0
   44.5644   28.4643   44.6373 H   0  0  0  0  0  0  0  0  0  0  0  0
   42.8585   29.0268   44.6373 H   0  0  0  0  0  0  0  0  0  0  0  0
  1  6  2  0
  1  2  1  0
  2  3  2  0
  3 11  1  0
  4  3  1  0
  5  7  1  0
  5  4  2  0
  6  5  1  0
  7  9  1  0
  8  7  1  0
 10  7  1  0
 11 12  1  0
 12 13  1  0
 13 14  1  0
 15 14  1  0
  1 16  1  0
  2 17  1  0
 11 18  1  0
 11 19  1  0
 12 20  1  0
 12 21  1  0
 13 22  1  0
 14 23  1  0
 14 24  1  0
 15 25  1  0
 15 26  1  0
 15 27  1  0
M  ISO  8  16  14  17  14  18   8  19   8  20   8  21   8  22   5  23   8
M  ISO  4  24   8  25   8  26   8  27   8
M  END
>  <minimizedAffinity>  (1) 
-4.41339207

>  <minimizedRMSD>  (1) 
5.81393909

$$$$
