
     RDKit          3D

 24 24  0  0  0  0  0  0  0  0999 V2000
   39.7920   31.6830   41.8100 C   0  0  0  0  0  0  0  0  0  0  0  0
   39.3960   30.4260   42.2430 C   0  0  0  0  0  0  0  0  0  0  0  0
   38.3610   29.7760   41.5790 C   0  0  0  0  0  0  0  0  0  0  0  0
   37.7730   30.4030   40.5220 N   0  0  0  0  0  0  0  0  0  0  0  0
   38.1760   31.6260   40.1190 C   0  0  0  0  0  0  0  0  0  0  0  0
   39.1890   32.2840   40.7540 N   0  0  0  0  0  0  0  0  0  0  0  0
   37.3900   32.0960   38.9390 C   0  0  0  0  0  0  0  0  0  0  0  0
   38.2460   32.1990   37.8310 F   0  0  0  0  0  0  0  0  0  0  0  0
   36.8530   33.3250   39.1830 F   0  0  0  0  0  0  0  0  0  0  0  0
   36.3650   31.2340   38.6700 F   0  0  0  0  0  0  0  0  0  0  0  0
   37.9570   28.4480   42.0500 C   0  0  0  0  0  0  0  0  0  0  0  0
   37.9760   28.2520   43.5110 C   0  0  0  0  0  0  0  0  0  0  0  0
   36.8810   28.9240   44.2100 N   0  0  0  0  0  0  0  0  0  0  0  0
   36.3520   28.0960   45.2840 C   0  0  0  0  0  0  0  0  0  0  0  0
   40.6095   32.2016   42.3323 H   0  0  0  0  0  0  0  0  0  0  0  0
   39.8940   29.9495   43.1003 H   0  0  0  0  0  0  0  0  0  0  0  0
   36.9315   28.2627   41.6980 H   0  0  0  0  0  0  0  0  0  0  0  0
   38.7026   27.7479   41.6450 H   0  0  0  0  0  0  0  0  0  0  0  0
   37.9094   27.1736   43.7173 H   0  0  0  0  0  0  0  0  0  0  0  0
   38.9125   28.6940   43.8819 H   0  0  0  0  0  0  0  0  0  0  0  0
   37.2294   29.8077   44.6082 H   0  0  0  0  0  0  0  0  0  0  0  0
   36.6307   28.5323   46.2546 H   0  0  0  0  0  0  0  0  0  0  0  0
   35.2559   28.0486   45.2045 H   0  0  0  0  0  0  0  0  0  0  0  0
   36.7696   27.0815   45.2045 H   0  0  0  0  0  0  0  0  0  0  0  0
  1  2  2  0
  3 11  1  0
  3  2  1  0
  4  3  2  0
  5  4  1  0
  5  6  2  0
  6  1  1  0
  7  9  1  0
  7  5  1  0
  8  7  1  0
 10  7  1  0
 11 12  1  0
 12 13  1  0
 13 14  1  0
  1 15  1  0
  2 16  1  0
 11 17  1  0
 11 18  1  0
 12 19  1  0
 12 20  1  0
 13 21  1  0
 14 22  1  0
 14 23  1  0
 14 24  1  0
M  ISO  8  15  14  16  14  17   8  18   8  19   8  20   8  21   5  22   8
M  ISO  2  23   8  24   8
M  END
>  <minimizedAffinity>  (1) 
-3.88218713

>  <minimizedRMSD>  (1) 
0.899965286

$$$$
