
     RDKit          3D

 40 42  0  0  0  0  0  0  0  0999 V2000
   36.1590   30.4740   41.5010 N   0  0  0  0  0  0  0  0  0  0  0  0
   36.7470   30.9040   40.2010 C   0  0  0  0  0  0  0  0  0  0  0  0
   36.9030   32.3690   40.1330 C   0  0  0  0  0  0  0  0  0  0  0  0
   40.6040   32.4730   40.5540 C   0  0  0  0  0  0  0  0  0  0  0  0
   39.2840   31.9950   40.4520 C   0  0  0  0  0  0  0  0  0  0  0  0
   38.2530   32.8790   40.2420 C   0  0  0  0  0  0  0  0  0  0  0  0
   38.5300   34.1940   40.1380 N   0  0  0  0  0  0  0  0  0  0  0  0
   39.7970   34.6510   40.2350 C   0  0  0  0  0  0  0  0  0  0  0  0
   40.8490   33.8070   40.4430 N   0  0  0  0  0  0  0  0  0  0  0  0
   39.8590   36.1300   40.1010 C   0  0  0  0  0  0  0  0  0  0  0  0
   40.8140   36.5080   39.1940 F   0  0  0  0  0  0  0  0  0  0  0  0
   40.1690   36.6970   41.3420 F   0  0  0  0  0  0  0  0  0  0  0  0
   38.6130   36.6430   39.8020 F   0  0  0  0  0  0  0  0  0  0  0  0
   37.1910   29.1290   42.0420 S   0  0  0  0  0  0  0  0  0  0  0  0
   38.0210   29.5070   43.1640 O   0  0  0  0  0  0  0  0  0  0  0  0
   36.2050   28.0320   42.4950 O   0  0  0  0  0  0  0  0  0  0  0  0
   38.0440   28.4520   40.6710 C   0  0  0  0  0  0  0  0  0  0  0  0
   39.2630   27.7840   41.2380 N   0  0  0  0  0  0  0  0  0  0  0  0
   40.5120   28.2740   41.3320 C   0  0  0  0  0  0  0  0  0  0  0  0
   41.3070   27.3520   41.9020 N   0  0  0  0  0  0  0  0  0  0  0  0
   40.5620   26.2690   42.1730 C   0  0  0  0  0  0  0  0  0  0  0  0
   40.9290   25.0760   42.7550 C   0  0  0  0  0  0  0  0  0  0  0  0
   39.9510   24.1680   42.8980 N   0  0  0  0  0  0  0  0  0  0  0  0
   38.6750   24.3800   42.5060 C   0  0  0  0  0  0  0  0  0  0  0  0
   38.3640   25.5770   41.9380 N   0  0  0  0  0  0  0  0  0  0  0  0
   39.2860   26.5320   41.7610 C   0  0  0  0  0  0  0  0  0  0  0  0
   42.2750   24.8700   43.1590 N   0  0  0  0  0  0  0  0  0  0  0  0
   35.1873   30.1573   41.3729 H   0  0  0  0  0  0  0  0  0  0  0  0
   37.7346   30.4341   40.0832 H   0  0  0  0  0  0  0  0  0  0  0  0
   36.0651   30.5932   39.3957 H   0  0  0  0  0  0  0  0  0  0  0  0
   36.4957   32.7043   39.1678 H   0  0  0  0  0  0  0  0  0  0  0  0
   36.3714   32.7602   41.0130 H   0  0  0  0  0  0  0  0  0  0  0  0
   41.4340   31.7712   40.7227 H   0  0  0  0  0  0  0  0  0  0  0  0
   39.0785   30.9180   40.5400 H   0  0  0  0  0  0  0  0  0  0  0  0
   38.3345   29.2478   39.9694 H   0  0  0  0  0  0  0  0  0  0  0  0
   37.4156   27.7422   40.1130 H   0  0  0  0  0  0  0  0  0  0  0  0
   40.8322   29.2712   40.9957 H   0  0  0  0  0  0  0  0  0  0  0  0
   37.9070   23.6044   42.6427 H   0  0  0  0  0  0  0  0  0  0  0  0
   42.5513   23.9784   43.5944 H   0  0  0  0  0  0  0  0  0  0  0  0
   42.9748   25.6122   43.0165 H   0  0  0  0  0  0  0  0  0  0  0  0
  1 14  1  0
  2  1  1  0
  3  2  1  0
  3  6  1  0
  5  4  2  0
  6  5  1  0
  7  8  1  0
  7  6  2  0
  8  9  2  0
  9  4  1  0
 10  8  1  0
 10 12  1  0
 11 10  1  0
 13 10  1  0
 14 16  2  0
 14 15  2  0
 17 18  1  0
 17 14  1  0
 18 19  1  0
 18 26  1  0
 19 20  2  0
 20 21  1  0
 21 22  2  0
 22 23  1  0
 22 27  1  0
 24 23  2  0
 25 24  1  0
 26 25  2  0
 26 21  1  0
  1 28  1  0
  2 29  1  0
  2 30  1  0
  3 31  1  0
  3 32  1  0
  4 33  1  0
  5 34  1  0
 17 35  1  0
 17 36  1  0
 19 37  1  0
 24 38  1  0
 27 39  1  0
 27 40  1  0
M  ISO  8  28   5  29   8  30   8  31   8  32   8  33  14  34  14  35   8
M  ISO  3  36   8  37  14  38  14
M  END
>  <minimizedAffinity>  (1) 
-6.41954327

>  <minimizedRMSD>  (1) 
1.39588368

$$$$
