
     RDKit          3D

 41 43  0  0  0  0  0  0  0  0999 V2000
   36.3620   30.1500   41.7190 N   0  0  0  0  0  0  0  0  0  0  0  0
   37.0670   30.6140   40.4580 C   0  0  0  0  0  0  0  0  0  0  0  0
   37.1600   32.0760   40.4070 C   0  0  0  0  0  0  0  0  0  0  0  0
   40.8330   32.4900   40.8390 C   0  0  0  0  0  0  0  0  0  0  0  0
   39.5440   31.9140   40.7670 C   0  0  0  0  0  0  0  0  0  0  0  0
   38.4580   32.7020   40.4880 C   0  0  0  0  0  0  0  0  0  0  0  0
   38.6660   34.0180   40.2920 N   0  0  0  0  0  0  0  0  0  0  0  0
   39.8810   34.5730   40.3590 C   0  0  0  0  0  0  0  0  0  0  0  0
   40.9840   33.8260   40.6310 N   0  0  0  0  0  0  0  0  0  0  0  0
   39.8460   36.0390   40.1160 C   0  0  0  0  0  0  0  0  0  0  0  0
   40.7700   36.4170   39.1790 F   0  0  0  0  0  0  0  0  0  0  0  0
   40.1000   36.7170   41.3150 F   0  0  0  0  0  0  0  0  0  0  0  0
   38.5620   36.4460   39.7800 F   0  0  0  0  0  0  0  0  0  0  0  0
   37.3930   28.9240   42.3500 S   0  0  0  0  0  0  0  0  0  0  0  0
   38.3710   29.5770   43.2940 O   0  0  0  0  0  0  0  0  0  0  0  0
   36.5600   27.9440   43.1570 O   0  0  0  0  0  0  0  0  0  0  0  0
   38.3000   28.0030   41.1620 C   0  0  0  0  0  0  0  0  0  0  0  0
   38.0950   26.5250   41.3370 C   0  0  0  0  0  0  0  0  0  0  0  0
   38.6700   25.8370   42.3150 N   0  0  0  0  0  0  0  0  0  0  0  0
   38.4450   24.5150   42.3980 C   0  0  0  0  0  0  0  0  0  0  0  0
   37.6560   23.8020   41.5430 N   0  0  0  0  0  0  0  0  0  0  0  0
   37.0530   24.4780   40.5320 C   0  0  0  0  0  0  0  0  0  0  0  0
   36.2570   23.7590   39.6670 C   0  0  0  0  0  0  0  0  0  0  0  0
   35.6450   24.4280   38.6420 C   0  0  0  0  0  0  0  0  0  0  0  0
   35.8310   25.7850   38.4950 C   0  0  0  0  0  0  0  0  0  0  0  0
   36.6410   26.4480   39.3960 C   0  0  0  0  0  0  0  0  0  0  0  0
   37.2900   25.8450   40.4510 C   0  0  0  0  0  0  0  0  0  0  0  0
   35.4317   29.7673   41.4979 H   0  0  0  0  0  0  0  0  0  0  0  0
   38.0816   30.1895   40.4379 H   0  0  0  0  0  0  0  0  0  0  0  0
   36.4850   30.2726   39.5892 H   0  0  0  0  0  0  0  0  0  0  0  0
   36.7087   32.3938   39.4555 H   0  0  0  0  0  0  0  0  0  0  0  0
   36.6540   32.4027   41.3274 H   0  0  0  0  0  0  0  0  0  0  0  0
   41.7083   31.8621   41.0618 H   0  0  0  0  0  0  0  0  0  0  0  0
   39.4129   30.8348   40.9347 H   0  0  0  0  0  0  0  0  0  0  0  0
   39.3702   28.2311   41.2742 H   0  0  0  0  0  0  0  0  0  0  0  0
   37.9422   28.2847   40.1607 H   0  0  0  0  0  0  0  0  0  0  0  0
   38.9335   23.9662   43.2167 H   0  0  0  0  0  0  0  0  0  0  0  0
   36.1172   22.6757   39.7970 H   0  0  0  0  0  0  0  0  0  0  0  0
   35.0038   23.8816   37.9347 H   0  0  0  0  0  0  0  0  0  0  0  0
   35.3429   26.3310   37.6743 H   0  0  0  0  0  0  0  0  0  0  0  0
   36.7772   27.5313   39.2621 H   0  0  0  0  0  0  0  0  0  0  0  0
  1 14  1  0
  2  1  1  0
  3  2  1  0
  3  6  1  0
  5  4  2  0
  6  5  1  0
  7  8  1  0
  7  6  2  0
  8  9  2  0
  9  4  1  0
 10  8  1  0
 10 12  1  0
 11 10  1  0
 13 10  1  0
 14 16  2  0
 14 15  2  0
 17 18  1  0
 17 14  1  0
 18 19  2  0
 19 20  1  0
 21 20  2  0
 22 21  1  0
 23 22  2  0
 24 23  1  0
 25 24  2  0
 25 26  1  0
 26 27  2  0
 27 22  1  0
 27 18  1  0
  1 28  1  0
  2 29  1  0
  2 30  1  0
  3 31  1  0
  3 32  1  0
  4 33  1  0
  5 34  1  0
 17 35  1  0
 17 36  1  0
 20 37  1  0
 23 38  1  0
 24 39  1  0
 25 40  1  0
 26 41  1  0
M  ISO  8  28   5  29   8  30   8  31   8  32   8  33  14  34  14  35   8
M  ISO  6  36   8  37  14  38  14  39  14  40  14  41  14
M  END
>  <minimizedAffinity>  (1) 
-6.28063774

>  <minimizedRMSD>  (1) 
2.38712049

$$$$
