
     RDKit          3D

 40 41  0  0  0  0  0  0  0  0999 V2000
   36.9960   30.3220   40.6350 C   0  0  0  0  0  0  0  0  0  0  0  0
   37.0830   31.7950   40.5770 C   0  0  0  0  0  0  0  0  0  0  0  0
   40.7730   32.2000   40.8400 C   0  0  0  0  0  0  0  0  0  0  0  0
   39.4840   31.6200   40.8300 C   0  0  0  0  0  0  0  0  0  0  0  0
   38.3900   32.4090   40.5950 C   0  0  0  0  0  0  0  0  0  0  0  0
   38.5760   33.7310   40.3820 N   0  0  0  0  0  0  0  0  0  0  0  0
   39.8040   34.2790   40.3950 C   0  0  0  0  0  0  0  0  0  0  0  0
   40.9180   33.5340   40.6200 N   0  0  0  0  0  0  0  0  0  0  0  0
   39.7600   35.7440   40.1550 C   0  0  0  0  0  0  0  0  0  0  0  0
   40.7050   36.1360   39.2440 F   0  0  0  0  0  0  0  0  0  0  0  0
   39.9740   36.4170   41.3660 F   0  0  0  0  0  0  0  0  0  0  0  0
   38.4820   36.1370   39.7870 F   0  0  0  0  0  0  0  0  0  0  0  0
   36.3020   29.8600   41.8960 N   0  0  0  0  0  0  0  0  0  0  0  0
   37.4350   28.7800   42.6100 S   0  0  0  0  0  0  0  0  0  0  0  0
   38.4300   29.5990   43.3980 O   0  0  0  0  0  0  0  0  0  0  0  0
   36.7170   27.8910   43.6140 O   0  0  0  0  0  0  0  0  0  0  0  0
   38.3100   27.7330   41.5260 C   0  0  0  0  0  0  0  0  0  0  0  0
   36.1380   24.4070   39.8070 C   0  0  0  0  0  0  0  0  0  0  0  0
   36.6550   24.2530   41.0730 C   0  0  0  0  0  0  0  0  0  0  0  0
   37.3330   25.2800   41.6450 C   0  0  0  0  0  0  0  0  0  0  0  0
   37.5810   26.5140   41.0870 C   0  0  0  0  0  0  0  0  0  0  0  0
   37.0270   26.5860   39.8150 C   0  0  0  0  0  0  0  0  0  0  0  0
   36.3200   25.6000   39.1480 C   0  0  0  0  0  0  0  0  0  0  0  0
   35.2740   23.0510   39.1230 S   0  0  0  0  0  0  0  0  0  0  0  0
   33.9750   22.8040   39.8320 O   0  0  0  0  0  0  0  0  0  0  0  0
   36.1870   21.8440   39.2440 O   0  0  0  0  0  0  0  0  0  0  0  0
   38.0125   29.9022   40.6115 H   0  0  0  0  0  0  0  0  0  0  0  0
   36.4106   29.9753   39.7706 H   0  0  0  0  0  0  0  0  0  0  0  0
   36.5279   32.1874   41.4418 H   0  0  0  0  0  0  0  0  0  0  0  0
   36.6792   32.0499   39.5861 H   0  0  0  0  0  0  0  0  0  0  0  0
   41.6576   31.5731   41.0255 H   0  0  0  0  0  0  0  0  0  0  0  0
   39.3606   30.5418   41.0098 H   0  0  0  0  0  0  0  0  0  0  0  0
   36.1078   30.6552   42.5212 H   0  0  0  0  0  0  0  0  0  0  0  0
   38.5695   28.3143   40.6289 H   0  0  0  0  0  0  0  0  0  0  0  0
   39.1839   27.3757   42.0905 H   0  0  0  0  0  0  0  0  0  0  0  0
   36.5199   23.3061   41.6163 H   0  0  0  0  0  0  0  0  0  0  0  0
   37.7247   25.1090   42.6586 H   0  0  0  0  0  0  0  0  0  0  0  0
   37.1659   27.5349   39.2762 H   0  0  0  0  0  0  0  0  0  0  0  0
   35.9216   25.7637   38.1358 H   0  0  0  0  0  0  0  0  0  0  0  0
   34.9552   23.3054   37.8151 H   0  0  0  0  0  0  0  0  0  0  0  0
  1 13  1  0
  2  5  1  0
  2  1  1  0
  4  3  2  0
  5  4  1  0
  6  7  1  0
  6  5  2  0
  7  8  2  0
  8  3  1  0
  9  7  1  0
  9 11  1  0
 10  9  1  0
 12  9  1  0
 13 14  1  0
 14 15  2  0
 14 16  2  0
 17 14  1  0
 18 19  2  0
 19 20  1  0
 21 17  1  0
 21 20  2  0
 22 21  1  0
 23 18  1  0
 23 22  2  0
 24 26  2  0
 24 18  1  0
 24 25  2  0
  1 27  1  0
  1 28  1  0
  2 29  1  0
  2 30  1  0
  3 31  1  0
  4 32  1  0
 13 33  1  0
 17 34  1  0
 17 35  1  0
 19 36  1  0
 20 37  1  0
 22 38  1  0
 23 39  1  0
 24 40  1  0
M  ISO  8  27   8  28   8  29   8  30   8  31  14  32  14  33   5  34   8
M  ISO  6  35   8  36  14  37  14  38  14  39  14  40  11
M  END
>  <minimizedAffinity>  (1) 
-5.86440897

>  <minimizedRMSD>  (1) 
1.91464543

$$$$
