
     RDKit          3D

 36 37  0  0  0  0  0  0  0  0999 V2000
   36.9730   30.4360   40.5230 C   0  0  0  0  0  0  0  0  0  0  0  0
   37.0420   31.9050   40.5160 C   0  0  0  0  0  0  0  0  0  0  0  0
   40.7280   32.2450   40.9210 C   0  0  0  0  0  0  0  0  0  0  0  0
   39.4330   31.6930   40.8640 C   0  0  0  0  0  0  0  0  0  0  0  0
   38.3600   32.4980   40.5730 C   0  0  0  0  0  0  0  0  0  0  0  0
   38.5660   33.8130   40.3480 N   0  0  0  0  0  0  0  0  0  0  0  0
   39.8080   34.3420   40.4040 C   0  0  0  0  0  0  0  0  0  0  0  0
   40.9010   33.5770   40.6870 N   0  0  0  0  0  0  0  0  0  0  0  0
   39.7880   35.8040   40.1360 C   0  0  0  0  0  0  0  0  0  0  0  0
   40.7470   36.1560   39.2220 F   0  0  0  0  0  0  0  0  0  0  0  0
   40.0310   36.4960   41.3280 F   0  0  0  0  0  0  0  0  0  0  0  0
   38.5250   36.2170   39.7660 F   0  0  0  0  0  0  0  0  0  0  0  0
   36.2200   29.9210   41.7020 N   0  0  0  0  0  0  0  0  0  0  0  0
   37.3320   28.7850   42.4890 S   0  0  0  0  0  0  0  0  0  0  0  0
   38.0290   29.3920   43.6030 O   0  0  0  0  0  0  0  0  0  0  0  0
   36.4420   27.6450   43.0240 O   0  0  0  0  0  0  0  0  0  0  0  0
   38.3620   28.0350   41.2860 C   0  0  0  0  0  0  0  0  0  0  0  0
   38.8470   26.7510   41.9730 C   0  0  0  0  0  0  0  0  0  0  0  0
   39.7520   26.8260   43.0070 C   0  0  0  0  0  0  0  0  0  0  0  0
   40.1480   25.6360   43.5810 C   0  0  0  0  0  0  0  0  0  0  0  0
   39.6920   24.3970   43.1800 C   0  0  0  0  0  0  0  0  0  0  0  0
   38.7730   24.4010   42.1230 C   0  0  0  0  0  0  0  0  0  0  0  0
   38.3830   25.5570   41.5590 N   0  0  0  0  0  0  0  0  0  0  0  0
   37.9958   30.0320   40.5500 H   0  0  0  0  0  0  0  0  0  0  0  0
   36.4439   30.1150   39.6136 H   0  0  0  0  0  0  0  0  0  0  0  0
   36.5592   32.2561   39.5920 H   0  0  0  0  0  0  0  0  0  0  0  0
   36.5451   32.2201   41.4454 H   0  0  0  0  0  0  0  0  0  0  0  0
   41.5930   31.6061   41.1526 H   0  0  0  0  0  0  0  0  0  0  0  0
   39.2822   30.6198   41.0522 H   0  0  0  0  0  0  0  0  0  0  0  0
   35.9756   30.6910   42.3410 H   0  0  0  0  0  0  0  0  0  0  0  0
   39.2096   28.6887   41.0326 H   0  0  0  0  0  0  0  0  0  0  0  0
   37.8389   27.8402   40.3381 H   0  0  0  0  0  0  0  0  0  0  0  0
   40.1422   27.7920   43.3600 H   0  0  0  0  0  0  0  0  0  0  0  0
   40.8713   25.6772   44.4087 H   0  0  0  0  0  0  0  0  0  0  0  0
   40.0286   23.4660   43.6596 H   0  0  0  0  0  0  0  0  0  0  0  0
   38.3666   23.4490   41.7509 H   0  0  0  0  0  0  0  0  0  0  0  0
  1 13  1  0
  2  1  1  0
  2  5  1  0
  4  3  2  0
  5  4  1  0
  6  7  1  0
  6  5  2  0
  7  8  2  0
  8  3  1  0
  9  7  1  0
  9 11  1  0
 10  9  1  0
 12  9  1  0
 13 14  1  0
 14 16  2  0
 14 15  2  0
 17 18  1  0
 17 14  1  0
 18 19  2  0
 19 20  1  0
 21 20  2  0
 22 21  1  0
 23 18  1  0
 23 22  2  0
  1 24  1  0
  1 25  1  0
  2 26  1  0
  2 27  1  0
  3 28  1  0
  4 29  1  0
 13 30  1  0
 17 31  1  0
 17 32  1  0
 19 33  1  0
 20 34  1  0
 21 35  1  0
 22 36  1  0
M  ISO  8  24   8  25   8  26   8  27   8  28  14  29  14  30   5  31   8
M  ISO  5  32   8  33  14  34  14  35  14  36  14
M  END
>  <minimizedAffinity>  (1) 
-5.77266884

>  <minimizedRMSD>  (1) 
0.452252626

$$$$
