
     RDKit          3D

 35 36  0  0  0  0  0  0  0  0999 V2000
   36.9660   30.4360   40.5320 C   0  0  0  0  0  0  0  0  0  0  0  0
   37.0310   31.9070   40.5180 C   0  0  0  0  0  0  0  0  0  0  0  0
   40.7210   32.2470   40.9050 C   0  0  0  0  0  0  0  0  0  0  0  0
   39.4300   31.6900   40.8590 C   0  0  0  0  0  0  0  0  0  0  0  0
   38.3520   32.4950   40.5780 C   0  0  0  0  0  0  0  0  0  0  0  0
   38.5560   33.8150   40.3530 N   0  0  0  0  0  0  0  0  0  0  0  0
   39.7980   34.3400   40.4020 C   0  0  0  0  0  0  0  0  0  0  0  0
   40.8940   33.5750   40.6760 N   0  0  0  0  0  0  0  0  0  0  0  0
   39.7810   35.8020   40.1370 C   0  0  0  0  0  0  0  0  0  0  0  0
   40.7380   36.1570   39.2240 F   0  0  0  0  0  0  0  0  0  0  0  0
   40.0260   36.4940   41.3300 F   0  0  0  0  0  0  0  0  0  0  0  0
   38.5180   36.2140   39.7660 F   0  0  0  0  0  0  0  0  0  0  0  0
   36.2480   29.9240   41.7360 N   0  0  0  0  0  0  0  0  0  0  0  0
   37.4100   28.8170   42.5110 S   0  0  0  0  0  0  0  0  0  0  0  0
   38.2320   29.5040   43.4810 O   0  0  0  0  0  0  0  0  0  0  0  0
   36.5380   27.7740   43.2430 O   0  0  0  0  0  0  0  0  0  0  0  0
   38.2760   27.9170   41.2850 C   0  0  0  0  0  0  0  0  0  0  0  0
   38.7980   26.6640   42.0020 C   0  0  0  0  0  0  0  0  0  0  0  0
   39.8380   26.7200   42.9260 C   0  0  0  0  0  0  0  0  0  0  0  0
   40.2290   25.5230   43.5150 C   0  0  0  0  0  0  0  0  0  0  0  0
   39.6440   24.3480   43.2190 N   0  0  0  0  0  0  0  0  0  0  0  0
   38.6410   24.3290   42.3210 C   0  0  0  0  0  0  0  0  0  0  0  0
   38.2380   25.4700   41.7330 N   0  0  0  0  0  0  0  0  0  0  0  0
   37.9901   30.0344   40.5307 H   0  0  0  0  0  0  0  0  0  0  0  0
   36.4120   30.1099   39.6394 H   0  0  0  0  0  0  0  0  0  0  0  0
   36.5524   32.2540   39.5903 H   0  0  0  0  0  0  0  0  0  0  0  0
   36.5262   32.2298   41.4405 H   0  0  0  0  0  0  0  0  0  0  0  0
   41.5890   31.6084   41.1260 H   0  0  0  0  0  0  0  0  0  0  0  0
   39.2841   30.6160   41.0469 H   0  0  0  0  0  0  0  0  0  0  0  0
   36.0034   30.6977   42.3705 H   0  0  0  0  0  0  0  0  0  0  0  0
   39.1122   28.5114   40.8882 H   0  0  0  0  0  0  0  0  0  0  0  0
   37.6335   27.6641   40.4287 H   0  0  0  0  0  0  0  0  0  0  0  0
   40.3294   27.6710   43.1792 H   0  0  0  0  0  0  0  0  0  0  0  0
   41.0470   25.5370   44.2503 H   0  0  0  0  0  0  0  0  0  0  0  0
   38.1497   23.3780   42.0674 H   0  0  0  0  0  0  0  0  0  0  0  0
  1 13  1  0
  2  1  1  0
  2  5  1  0
  4  3  2  0
  5  4  1  0
  6  7  1  0
  6  5  2  0
  7  8  2  0
  8  3  1  0
  9  7  1  0
  9 11  1  0
 10  9  1  0
 12  9  1  0
 13 14  1  0
 14 16  2  0
 14 15  2  0
 17 18  1  0
 17 14  1  0
 18 19  2  0
 19 20  1  0
 21 20  2  0
 22 21  1  0
 23 18  1  0
 23 22  2  0
  1 24  1  0
  1 25  1  0
  2 26  1  0
  2 27  1  0
  3 28  1  0
  4 29  1  0
 13 30  1  0
 17 31  1  0
 17 32  1  0
 19 33  1  0
 20 34  1  0
 22 35  1  0
M  ISO  8  24   8  25   8  26   8  27   8  28  14  29  14  30   5  31   8
M  ISO  4  32   8  33  14  34  14  35  14
M  END
>  <minimizedAffinity>  (1) 
-5.65262318

>  <minimizedRMSD>  (1) 
0.574225366

$$$$
