
     RDKit          3D

 40 41  0  0  0  0  0  0  0  0999 V2000
   37.1890   30.5010   40.5800 C   0  0  0  0  0  0  0  0  0  0  0  0
   37.2250   31.9600   40.4670 C   0  0  0  0  0  0  0  0  0  0  0  0
   40.7760   32.4230   39.4520 C   0  0  0  0  0  0  0  0  0  0  0  0
   39.5350   31.8290   39.7750 C   0  0  0  0  0  0  0  0  0  0  0  0
   38.4760   32.6110   40.1550 C   0  0  0  0  0  0  0  0  0  0  0  0
   38.6630   33.9440   40.2090 N   0  0  0  0  0  0  0  0  0  0  0  0
   39.8340   34.5200   39.9060 C   0  0  0  0  0  0  0  0  0  0  0  0
   40.9030   33.7820   39.5260 N   0  0  0  0  0  0  0  0  0  0  0  0
   39.7910   35.9960   40.0570 C   0  0  0  0  0  0  0  0  0  0  0  0
   40.7360   36.6100   39.2810 F   0  0  0  0  0  0  0  0  0  0  0  0
   40.0140   36.3330   41.3990 F   0  0  0  0  0  0  0  0  0  0  0  0
   38.5130   36.4750   39.8040 F   0  0  0  0  0  0  0  0  0  0  0  0
   36.5280   30.0720   41.8770 N   0  0  0  0  0  0  0  0  0  0  0  0
   37.7540   29.1200   42.6640 S   0  0  0  0  0  0  0  0  0  0  0  0
   38.9510   30.0230   42.8380 O   0  0  0  0  0  0  0  0  0  0  0  0
   37.2640   28.7310   44.0420 O   0  0  0  0  0  0  0  0  0  0  0  0
   38.2240   27.6560   41.8440 C   0  0  0  0  0  0  0  0  0  0  0  0
   38.0860   26.4760   42.8290 C   0  0  0  0  0  0  0  0  0  0  0  0
   37.1870   25.4140   42.1740 C   0  0  0  0  0  0  0  0  0  0  0  0
   38.1090   24.8280   41.1250 C   0  0  0  0  0  0  0  0  0  0  0  0
   39.5220   25.0400   41.6260 C   0  0  0  0  0  0  0  0  0  0  0  0
   39.3390   25.6730   42.9920 C   0  0  0  0  0  0  0  0  0  0  0  0
   38.2179   30.1128   40.5551 H   0  0  0  0  0  0  0  0  0  0  0  0
   36.6048   30.0987   39.7392 H   0  0  0  0  0  0  0  0  0  0  0  0
   36.5116   32.2391   39.6776 H   0  0  0  0  0  0  0  0  0  0  0  0
   36.9956   32.3074   41.4852 H   0  0  0  0  0  0  0  0  0  0  0  0
   41.6288   31.7997   39.1450 H   0  0  0  0  0  0  0  0  0  0  0  0
   39.4190   30.7365   39.7212 H   0  0  0  0  0  0  0  0  0  0  0  0
   36.2740   30.8902   42.4487 H   0  0  0  0  0  0  0  0  0  0  0  0
   37.5705   27.4917   40.9746 H   0  0  0  0  0  0  0  0  0  0  0  0
   39.2645   27.7366   41.4964 H   0  0  0  0  0  0  0  0  0  0  0  0
   37.7488   26.9321   43.7715 H   0  0  0  0  0  0  0  0  0  0  0  0
   36.8732   24.6513   42.9019 H   0  0  0  0  0  0  0  0  0  0  0  0
   36.2484   25.8168   41.7657 H   0  0  0  0  0  0  0  0  0  0  0  0
   37.9658   25.3425   40.1634 H   0  0  0  0  0  0  0  0  0  0  0  0
   37.9004   23.7599   40.9647 H   0  0  0  0  0  0  0  0  0  0  0  0
   40.0552   24.0814   41.7081 H   0  0  0  0  0  0  0  0  0  0  0  0
   40.1211   25.6653   40.9477 H   0  0  0  0  0  0  0  0  0  0  0  0
   40.1922   26.3195   43.2451 H   0  0  0  0  0  0  0  0  0  0  0  0
   39.2770   24.9353   43.8056 H   0  0  0  0  0  0  0  0  0  0  0  0
  1 13  1  0
  2  1  1  0
  3  8  2  0
  3  4  1  0
  4  5  2  0
  5  6  1  0
  5  2  1  0
  7  9  1  0
  7  6  2  0
  8  7  1  0
  9 11  1  0
 10  9  1  0
 12  9  1  0
 13 14  1  0
 14 15  2  0
 14 16  2  0
 17 14  1  0
 17 18  1  0
 18 22  1  0
 19 18  1  0
 20 21  1  0
 20 19  1  0
 21 22  1  0
  1 23  1  0
  1 24  1  0
  2 25  1  0
  2 26  1  0
  3 27  1  0
  4 28  1  0
 13 29  1  0
 17 30  1  0
 17 31  1  0
 18 32  1  0
 19 33  1  0
 19 34  1  0
 20 35  1  0
 20 36  1  0
 21 37  1  0
 21 38  1  0
 22 39  1  0
 22 40  1  0
M  ISO  8  23   8  24   8  25   8  26   8  27  14  28  14  29   5  30   8
M  ISO  8  31   8  32  13  33  13  34  13  35  13  36  13  37  13  38  13
M  ISO  2  39  13  40  13
M  END
>  <minimizedAffinity>  (1) 
-5.60608101

>  <minimizedRMSD>  (1) 
1.16317356

$$$$
