
     RDKit          3D

 34 35  0  0  0  0  0  0  0  0999 V2000
   37.2420   30.6780   40.5170 C   0  0  0  0  0  0  0  0  0  0  0  0
   37.3380   32.1440   40.4270 C   0  0  0  0  0  0  0  0  0  0  0  0
   41.0070   32.6080   40.7300 C   0  0  0  0  0  0  0  0  0  0  0  0
   39.7390   32.0130   40.6790 C   0  0  0  0  0  0  0  0  0  0  0  0
   38.6300   32.7840   40.4580 C   0  0  0  0  0  0  0  0  0  0  0  0
   38.7870   34.1130   40.2920 N   0  0  0  0  0  0  0  0  0  0  0  0
   39.9960   34.6930   40.3390 C   0  0  0  0  0  0  0  0  0  0  0  0
   41.1140   33.9600   40.5560 N   0  0  0  0  0  0  0  0  0  0  0  0
   39.9200   36.1650   40.1270 C   0  0  0  0  0  0  0  0  0  0  0  0
   40.8270   36.5690   39.1660 F   0  0  0  0  0  0  0  0  0  0  0  0
   40.1940   36.8180   41.3110 F   0  0  0  0  0  0  0  0  0  0  0  0
   38.6330   36.5330   39.7820 F   0  0  0  0  0  0  0  0  0  0  0  0
   36.5280   30.2510   41.7580 N   0  0  0  0  0  0  0  0  0  0  0  0
   37.3130   28.8140   42.2590 S   0  0  0  0  0  0  0  0  0  0  0  0
   37.5660   29.0060   43.7450 O   0  0  0  0  0  0  0  0  0  0  0  0
   36.3180   27.6670   42.1770 O   0  0  0  0  0  0  0  0  0  0  0  0
   38.7440   28.3590   41.4820 C   0  0  0  0  0  0  0  0  0  0  0  0
   39.4460   27.4930   42.4670 N   0  0  0  0  0  0  0  0  0  0  0  0
   39.0980   26.2130   42.6930 N   0  0  0  0  0  0  0  0  0  0  0  0
   39.9000   25.6760   43.6280 C   0  0  0  0  0  0  0  0  0  0  0  0
   40.7900   26.6450   44.0110 C   0  0  0  0  0  0  0  0  0  0  0  0
   40.4870   27.7700   43.2730 C   0  0  0  0  0  0  0  0  0  0  0  0
   38.2566   30.2532   40.5243 H   0  0  0  0  0  0  0  0  0  0  0  0
   36.6719   30.3156   39.6489 H   0  0  0  0  0  0  0  0  0  0  0  0
   36.7606   32.5526   41.2694 H   0  0  0  0  0  0  0  0  0  0  0  0
   36.9723   32.3601   39.4123 H   0  0  0  0  0  0  0  0  0  0  0  0
   41.9035   31.9959   40.9075 H   0  0  0  0  0  0  0  0  0  0  0  0
   39.6352   30.9266   40.8166 H   0  0  0  0  0  0  0  0  0  0  0  0
   36.6040   30.9761   42.4856 H   0  0  0  0  0  0  0  0  0  0  0  0
   38.5248   27.8002   40.5602 H   0  0  0  0  0  0  0  0  0  0  0  0
   39.3502   29.2265   41.1822 H   0  0  0  0  0  0  0  0  0  0  0  0
   39.8510   24.6474   44.0149 H   0  0  0  0  0  0  0  0  0  0  0  0
   41.5893   26.5452   44.7601 H   0  0  0  0  0  0  0  0  0  0  0  0
   41.0106   28.7355   43.3335 H   0  0  0  0  0  0  0  0  0  0  0  0
  1 13  1  0
  2  5  1  0
  2  1  1  0
  4  3  2  0
  5  4  1  0
  6  7  1  0
  6  5  2  0
  7  8  2  0
  8  3  1  0
  9  7  1  0
  9 11  1  0
 10  9  1  0
 12  9  1  0
 13 14  1  0
 14 15  2  0
 16 14  2  0
 17 14  1  0
 17 18  1  0
 18 19  1  0
 18 22  1  0
 19 20  2  0
 20 21  1  0
 22 21  2  0
  1 23  1  0
  1 24  1  0
  2 25  1  0
  2 26  1  0
  3 27  1  0
  4 28  1  0
 13 29  1  0
 17 30  1  0
 17 31  1  0
 20 32  1  0
 21 33  1  0
 22 34  1  0
M  ISO  8  23   8  24   8  25   8  26   8  27  14  28  14  29   5  30   8
M  ISO  4  31   8  32  14  33  14  34  14
M  END
>  <minimizedAffinity>  (1) 
-5.46389818

>  <minimizedRMSD>  (1) 
0.785237968

$$$$
