
     RDKit          3D

 33 34  0  0  0  0  0  0  0  0999 V2000
   37.0880   30.5600   40.6870 C   0  0  0  0  0  0  0  0  0  0  0  0
   37.1760   32.0080   40.5040 C   0  0  0  0  0  0  0  0  0  0  0  0
   40.8740   32.4030   40.3670 C   0  0  0  0  0  0  0  0  0  0  0  0
   39.5860   31.8290   40.4570 C   0  0  0  0  0  0  0  0  0  0  0  0
   38.4770   32.6330   40.4220 C   0  0  0  0  0  0  0  0  0  0  0  0
   38.6640   33.9610   40.3010 N   0  0  0  0  0  0  0  0  0  0  0  0
   39.8770   34.5140   40.2170 C   0  0  0  0  0  0  0  0  0  0  0  0
   41.0000   33.7560   40.2470 N   0  0  0  0  0  0  0  0  0  0  0  0
   39.8150   35.9950   40.1070 C   0  0  0  0  0  0  0  0  0  0  0  0
   40.7450   36.4740   39.2220 F   0  0  0  0  0  0  0  0  0  0  0  0
   40.0370   36.5660   41.3680 F   0  0  0  0  0  0  0  0  0  0  0  0
   38.5290   36.4060   39.7850 F   0  0  0  0  0  0  0  0  0  0  0  0
   36.5420   30.1930   42.0480 N   0  0  0  0  0  0  0  0  0  0  0  0
   37.7530   29.1490   42.7060 S   0  0  0  0  0  0  0  0  0  0  0  0
   38.8610   30.0330   43.2400 O   0  0  0  0  0  0  0  0  0  0  0  0
   37.1810   28.3750   43.8790 O   0  0  0  0  0  0  0  0  0  0  0  0
   38.4380   27.9750   41.6090 C   0  0  0  0  0  0  0  0  0  0  0  0
   39.1670   27.0070   42.4860 N   0  0  0  0  0  0  0  0  0  0  0  0
   38.8840   25.7180   42.7330 C   0  0  0  0  0  0  0  0  0  0  0  0
   39.8080   25.2330   43.5810 N   0  0  0  0  0  0  0  0  0  0  0  0
   40.6690   26.2200   43.8630 C   0  0  0  0  0  0  0  0  0  0  0  0
   40.2720   27.2910   43.1930 N   0  0  0  0  0  0  0  0  0  0  0  0
   38.0933   30.1267   40.5791 H   0  0  0  0  0  0  0  0  0  0  0  0
   36.3996   30.1628   39.9265 H   0  0  0  0  0  0  0  0  0  0  0  0
   36.6461   32.2462   39.5699 H   0  0  0  0  0  0  0  0  0  0  0  0
   36.7499   32.4144   41.4331 H   0  0  0  0  0  0  0  0  0  0  0  0
   41.7686   31.7635   40.3935 H   0  0  0  0  0  0  0  0  0  0  0  0
   39.4738   30.7391   40.5549 H   0  0  0  0  0  0  0  0  0  0  0  0
   36.4218   31.0315   42.6340 H   0  0  0  0  0  0  0  0  0  0  0  0
   39.1325   28.4602   40.9074 H   0  0  0  0  0  0  0  0  0  0  0  0
   37.6681   27.4811   40.9981 H   0  0  0  0  0  0  0  0  0  0  0  0
   38.0386   25.1537   42.3125 H   0  0  0  0  0  0  0  0  0  0  0  0
   41.5431   26.1531   44.5275 H   0  0  0  0  0  0  0  0  0  0  0  0
  1 13  1  0
  2  1  1  0
  3  4  2  0
  5  4  1  0
  5  2  1  0
  6  5  2  0
  7  8  2  0
  7  6  1  0
  8  3  1  0
  9  7  1  0
  9 11  1  0
 10  9  1  0
 12  9  1  0
 13 14  1  0
 14 15  2  0
 14 16  2  0
 17 18  1  0
 17 14  1  0
 18 19  1  0
 18 22  1  0
 19 20  2  0
 20 21  1  0
 22 21  2  0
  1 23  1  0
  1 24  1  0
  2 25  1  0
  2 26  1  0
  3 27  1  0
  4 28  1  0
 13 29  1  0
 17 30  1  0
 17 31  1  0
 19 32  1  0
 21 33  1  0
M  ISO  8  23   8  24   8  25   8  26   8  27  14  28  14  29   5  30   8
M  ISO  3  31   8  32  14  33  14
M  END
>  <minimizedAffinity>  (1) 
-5.39394569

>  <minimizedRMSD>  (1) 
0.8322106

$$$$
