
     RDKit          3D

 37 40  0  0  1  0  0  0  0  0999 V2000
   37.5900   25.7400   40.8630 C   0  0  1  0  0  0  0  0  0  0  0  0
   36.8640   24.6040   41.6060 C   0  0  0  0  0  0  0  0  0  0  0  0
   36.1890   23.8570   40.4930 C   0  0  0  0  0  0  0  0  0  0  0  0
   36.3830   24.6670   39.2200 C   0  0  0  0  0  0  0  0  0  0  0  0
   36.5750   26.0660   39.8270 C   0  0  2  0  0  0  0  0  0  0  0  0
   36.9460   27.0270   38.8470 N   0  0  0  0  0  0  0  0  0  0  0  0
   37.4840   26.8850   37.6320 C   0  0  0  0  0  0  0  0  0  0  0  0
   37.6560   28.1070   37.0750 N   0  0  0  0  0  0  0  0  0  0  0  0
   37.2200   29.0260   37.9490 C   0  0  0  0  0  0  0  0  0  0  0  0
   37.1280   30.4240   37.9690 C   0  0  0  0  0  0  0  0  0  0  0  0
   37.5290   31.0680   36.9660 O   0  0  0  0  0  0  0  0  0  0  0  0
   36.6240   31.0860   39.0360 N   0  0  0  0  0  0  0  0  0  0  0  0
   36.1980   30.4120   40.1000 C   0  0  0  0  0  0  0  0  0  0  0  0
   35.6470   30.9620   41.2880 N   0  0  0  0  0  0  0  0  0  0  0  0
   36.2820   29.0840   40.0890 N   0  0  0  0  0  0  0  0  0  0  0  0
   36.7770   28.3670   39.0520 C   0  0  0  0  0  0  0  0  0  0  0  0
   37.8910   26.8090   41.8030 C   0  0  0  0  0  0  0  0  0  0  0  0
   36.9610   27.0720   42.8280 C   0  0  0  0  0  0  0  0  0  0  0  0
   37.2070   28.0930   43.7630 C   0  0  0  0  0  0  0  0  0  0  0  0
   38.3860   28.7870   43.6020 N   0  0  0  0  0  0  0  0  0  0  0  0
   39.2530   28.5060   42.6060 C   0  0  0  0  0  0  0  0  0  0  0  0
   39.0070   27.5200   41.7090 N   0  0  0  0  0  0  0  0  0  0  0  0
   38.5701   25.5165   40.4164 H   0  0  0  0  0  0  0  0  0  0  0  0
   37.5782   23.9597   42.1396 H   0  0  0  0  0  0  0  0  0  0  0  0
   36.1652   24.9638   42.3756 H   0  0  0  0  0  0  0  0  0  0  0  0
   36.6430   22.8616   40.3784 H   0  0  0  0  0  0  0  0  0  0  0  0
   35.1189   23.7216   40.7085 H   0  0  0  0  0  0  0  0  0  0  0  0
   35.4985   24.6220   38.5677 H   0  0  0  0  0  0  0  0  0  0  0  0
   37.2027   24.3248   38.5711 H   0  0  0  0  0  0  0  0  0  0  0  0
   35.6859   26.5585   40.2475 H   0  0  0  0  0  0  0  0  0  0  0  0
   37.7457   25.9269   37.1592 H   0  0  0  0  0  0  0  0  0  0  0  0
   36.5702   32.1145   39.0240 H   0  0  0  0  0  0  0  0  0  0  0  0
   35.3486   30.3404   42.0531 H   0  0  0  0  0  0  0  0  0  0  0  0
   35.5458   31.9825   41.3844 H   0  0  0  0  0  0  0  0  0  0  0  0
   36.0388   26.4763   42.8972 H   0  0  0  0  0  0  0  0  0  0  0  0
   36.5006   28.3236   44.5741 H   0  0  0  0  0  0  0  0  0  0  0  0
   40.1807   29.0909   42.5204 H   0  0  0  0  0  0  0  0  0  0  0  0
  1  2  1  0
  1 17  1  0
  3  2  1  0
  4  5  1  0
  4  3  1  0
  5  1  1  0
  6 16  1  0
  6  5  1  0
  7  6  1  0
  8  7  2  0
  8  9  1  0
  9 10  1  0
  9 16  2  0
 10 12  1  0
 11 10  2  0
 12 13  1  0
 13 14  1  0
 15 13  2  0
 16 15  1  0
 17 18  2  0
 18 19  1  0
 20 19  2  0
 21 20  1  0
 22 17  1  0
 22 21  2  0
  1 23  1  6
  2 24  1  0
  2 25  1  0
  3 26  1  0
  3 27  1  0
  4 28  1  0
  4 29  1  0
  5 30  1  1
  7 31  1  0
 12 32  1  0
 14 33  1  0
 14 34  1  0
 18 35  1  0
 19 36  1  0
 21 37  1  0
M  ISO  8  23  13  24  13  25  13  26  13  27  13  28  13  29  13  30  13
M  ISO  5  31  14  32   9  35  14  36  14  37  14
M  END
>  <minimizedAffinity>  (1) 
-6.03493071

>  <minimizedRMSD>  (1) 
2.38057518

$$$$
