
     RDKit          3D

 36 38  0  0  1  0  0  0  0  0999 V2000
   38.2340   28.0430   42.3320 C   0  0  1  0  0  0  0  0  0  0  0  0
   37.9120   28.9970   43.4940 C   0  0  0  0  0  0  0  0  0  0  0  0
   36.9320   28.2250   44.3160 C   0  0  0  0  0  0  0  0  0  0  0  0
   36.5480   26.9950   43.5330 C   0  0  0  0  0  0  0  0  0  0  0  0
   36.9270   27.3930   42.0990 C   0  0  2  0  0  0  0  0  0  0  0  0
   38.7780   28.8100   41.2220 C   0  0  0  0  0  0  0  0  0  0  0  0
   37.8940   29.6970   40.5500 C   0  0  0  0  0  0  0  0  0  0  0  0
   38.3950   30.4580   39.4790 C   0  0  0  0  0  0  0  0  0  0  0  0
   39.7230   30.2870   39.1530 N   0  0  0  0  0  0  0  0  0  0  0  0
   40.5210   29.4290   39.8250 C   0  0  0  0  0  0  0  0  0  0  0  0
   40.0480   28.6900   40.8600 N   0  0  0  0  0  0  0  0  0  0  0  0
   37.1960   23.6280   40.1200 C   0  0  0  0  0  0  0  0  0  0  0  0
   37.4970   23.7400   41.4570 C   0  0  0  0  0  0  0  0  0  0  0  0
   37.4010   24.9720   42.0660 C   0  0  0  0  0  0  0  0  0  0  0  0
   37.0080   26.0850   41.3650 C   0  0  0  0  0  0  0  0  0  0  0  0
   36.6910   26.0430   40.0250 C   0  0  0  0  0  0  0  0  0  0  0  0
   36.8060   24.7740   39.4590 C   0  0  0  0  0  0  0  0  0  0  0  0
   37.3020   22.1030   39.3100 S   0  0  0  0  0  0  0  0  0  0  0  0
   38.0900   22.1690   38.0330 O   0  0  0  0  0  0  0  0  0  0  0  0
   37.9850   21.1150   40.2150 O   0  0  0  0  0  0  0  0  0  0  0  0
   39.0079   27.2817   42.5093 H   0  0  0  0  0  0  0  0  0  0  0  0
   38.8168   29.2286   44.0752 H   0  0  0  0  0  0  0  0  0  0  0  0
   37.5184   29.9670   43.1561 H   0  0  0  0  0  0  0  0  0  0  0  0
   37.3920   27.9328   45.2715 H   0  0  0  0  0  0  0  0  0  0  0  0
   36.0441   28.8368   44.5336 H   0  0  0  0  0  0  0  0  0  0  0  0
   37.1180   26.1154   43.8668 H   0  0  0  0  0  0  0  0  0  0  0  0
   35.4918   26.7098   43.6480 H   0  0  0  0  0  0  0  0  0  0  0  0
   36.2645   28.0544   41.5214 H   0  0  0  0  0  0  0  0  0  0  0  0
   36.8425   29.7861   40.8604 H   0  0  0  0  0  0  0  0  0  0  0  0
   37.7543   31.1598   38.9250 H   0  0  0  0  0  0  0  0  0  0  0  0
   41.5751   29.3274   39.5273 H   0  0  0  0  0  0  0  0  0  0  0  0
   37.8105   22.8569   42.0331 H   0  0  0  0  0  0  0  0  0  0  0  0
   37.6440   25.0657   43.1347 H   0  0  0  0  0  0  0  0  0  0  0  0
   36.3762   26.9290   39.4542 H   0  0  0  0  0  0  0  0  0  0  0  0
   36.5642   24.6783   38.3902 H   0  0  0  0  0  0  0  0  0  0  0  0
   36.0206   21.7280   39.0030 H   0  0  0  0  0  0  0  0  0  0  0  0
  1  2  1  0
  2  3  1  0
  4  3  1  0
  5  1  1  0
  5  4  1  0
  6  1  1  0
  7  6  2  0
  8  7  1  0
  9  8  2  0
  9 10  1  0
 10 11  2  0
 11  6  1  0
 12 13  2  0
 13 14  1  0
 15 14  2  0
 15  5  1  0
 16 15  1  0
 17 16  2  0
 17 12  1  0
 18 12  1  0
 18 20  2  0
 19 18  2  0
  1 21  1  1
  2 22  1  0
  2 23  1  0
  3 24  1  0
  3 25  1  0
  4 26  1  0
  4 27  1  0
  5 28  1  6
  7 29  1  0
  8 30  1  0
 10 31  1  0
 13 32  1  0
 14 33  1  0
 16 34  1  0
 17 35  1  0
 18 36  1  0
M  ISO  8  21  13  22  13  23  13  24  13  25  13  26  13  27  13  28  13
M  ISO  8  29  14  30  14  31  14  32  14  33  14  34  14  35  14  36  11
M  END
>  <minimizedAffinity>  (1) 
-5.01707363

>  <minimizedRMSD>  (1) 
3.90612674

$$$$
