
     RDKit          3D

 39 42  0  0  1  0  0  0  0  0999 V2000
   37.7440   27.4440   40.9520 C   0  0  1  0  0  0  0  0  0  0  0  0
   37.3840   26.9520   42.3650 C   0  0  0  0  0  0  0  0  0  0  0  0
   36.9500   25.5310   42.1370 C   0  0  0  0  0  0  0  0  0  0  0  0
   36.9790   25.2890   40.6310 C   0  0  0  0  0  0  0  0  0  0  0  0
   36.7270   26.7230   40.1320 C   0  0  2  0  0  0  0  0  0  0  0  0
   36.9510   26.8350   38.6870 C   0  0  0  0  0  0  0  0  0  0  0  0
   38.0780   26.2360   38.1220 C   0  0  0  0  0  0  0  0  0  0  0  0
   38.3310   26.3210   36.7500 C   0  0  0  0  0  0  0  0  0  0  0  0
   37.4770   27.0000   35.9050 C   0  0  0  0  0  0  0  0  0  0  0  0
   36.3690   27.5930   36.4390 C   0  0  0  0  0  0  0  0  0  0  0  0
   35.4780   28.2900   35.6170 C   0  0  0  0  0  0  0  0  0  0  0  0
   34.3610   28.8930   36.1210 C   0  0  0  0  0  0  0  0  0  0  0  0
   34.1100   28.8070   37.4910 C   0  0  0  0  0  0  0  0  0  0  0  0
   35.0180   28.1060   38.2730 C   0  0  0  0  0  0  0  0  0  0  0  0
   36.1390   27.4940   37.8050 C   0  0  0  0  0  0  0  0  0  0  0  0
   37.6570   28.8980   40.9080 C   0  0  0  0  0  0  0  0  0  0  0  0
   36.4070   29.4950   41.1700 C   0  0  0  0  0  0  0  0  0  0  0  0
   36.2850   30.8920   41.1440 C   0  0  0  0  0  0  0  0  0  0  0  0
   37.4340   31.6070   40.8550 N   0  0  0  0  0  0  0  0  0  0  0  0
   38.6100   30.9940   40.6100 C   0  0  0  0  0  0  0  0  0  0  0  0
   38.7210   29.6440   40.6380 N   0  0  0  0  0  0  0  0  0  0  0  0
   38.7652   27.2400   40.5976 H   0  0  0  0  0  0  0  0  0  0  0  0
   38.2580   26.9948   43.0316 H   0  0  0  0  0  0  0  0  0  0  0  0
   36.6105   27.5655   42.8501 H   0  0  0  0  0  0  0  0  0  0  0  0
   37.6398   24.8399   42.6435 H   0  0  0  0  0  0  0  0  0  0  0  0
   35.9415   25.3601   42.5416 H   0  0  0  0  0  0  0  0  0  0  0  0
   37.9540   24.9047   40.2969 H   0  0  0  0  0  0  0  0  0  0  0  0
   36.2644   24.5365   40.2662 H   0  0  0  0  0  0  0  0  0  0  0  0
   35.7019   27.1052   40.2466 H   0  0  0  0  0  0  0  0  0  0  0  0
   38.7794   25.6874   38.7678 H   0  0  0  0  0  0  0  0  0  0  0  0
   39.2280   25.8374   36.3359 H   0  0  0  0  0  0  0  0  0  0  0  0
   37.6840   27.0621   34.8264 H   0  0  0  0  0  0  0  0  0  0  0  0
   35.6817   28.3542   34.5379 H   0  0  0  0  0  0  0  0  0  0  0  0
   33.6714   29.4369   35.4587 H   0  0  0  0  0  0  0  0  0  0  0  0
   33.2220   29.2791   37.9366 H   0  0  0  0  0  0  0  0  0  0  0  0
   34.8157   28.0406   39.3523 H   0  0  0  0  0  0  0  0  0  0  0  0
   35.5313   28.8680   41.3938 H   0  0  0  0  0  0  0  0  0  0  0  0
   35.3262   31.3931   41.3429 H   0  0  0  0  0  0  0  0  0  0  0  0
   39.4976   31.6027   40.3827 H   0  0  0  0  0  0  0  0  0  0  0  0
  1  2  1  0
  3  2  1  0
  4  3  1  0
  5  4  1  0
  5  1  1  0
  6  5  1  0
  7  6  2  0
  8  7  1  0
  9 10  1  0
  9  8  2  0
 10 15  2  0
 11 12  2  0
 11 10  1  0
 12 13  1  0
 13 14  2  0
 15 14  1  0
 15  6  1  0
 16  1  1  0
 16 17  2  0
 18 17  1  0
 19 18  2  0
 20 21  2  0
 20 19  1  0
 21 16  1  0
  1 22  1  6
  2 23  1  0
  2 24  1  0
  3 25  1  0
  3 26  1  0
  4 27  1  0
  4 28  1  0
  5 29  1  6
  7 30  1  0
  8 31  1  0
  9 32  1  0
 11 33  1  0
 12 34  1  0
 13 35  1  0
 14 36  1  0
 17 37  1  0
 18 38  1  0
 20 39  1  0
M  ISO  8  22  13  23  13  24  13  25  13  26  13  27  13  28  13  29  13
M  ISO  8  30  14  31  14  32  14  33  14  34  14  35  14  36  14  37  14
M  ISO  2  38  14  39  14
M  END
>  <minimizedAffinity>  (1) 
-4.88979053

>  <minimizedRMSD>  (1) 
2.08087277

$$$$
