
     RDKit          3D

 34 36  0  0  1  0  0  0  0  0999 V2000
   38.0190   28.3310   41.7910 C   0  0  1  0  0  0  0  0  0  0  0  0
   37.6330   29.2240   42.9800 C   0  0  0  0  0  0  0  0  0  0  0  0
   37.1680   28.2540   44.0060 C   0  0  0  0  0  0  0  0  0  0  0  0
   37.0980   26.8830   43.3420 C   0  0  0  0  0  0  0  0  0  0  0  0
   36.9820   27.2760   41.8580 C   0  0  2  0  0  0  0  0  0  0  0  0
   37.3540   26.0590   41.1350 N   0  0  0  0  0  0  0  0  0  0  0  0
   38.1940   25.1440   41.6600 C   0  0  0  0  0  0  0  0  0  0  0  0
   38.5350   24.0010   40.9630 C   0  0  0  0  0  0  0  0  0  0  0  0
   37.9880   23.8220   39.7080 C   0  0  0  0  0  0  0  0  0  0  0  0
   38.3180   22.6650   38.9730 N   0  0  0  0  0  0  0  0  0  0  0  0
   37.1580   24.7450   39.2120 N   0  0  0  0  0  0  0  0  0  0  0  0
   36.8280   25.8720   39.9100 C   0  0  0  0  0  0  0  0  0  0  0  0
   36.0370   26.6630   39.3330 O   0  0  0  0  0  0  0  0  0  0  0  0
   38.0180   29.1290   40.5780 C   0  0  0  0  0  0  0  0  0  0  0  0
   36.9500   30.0560   40.3900 C   0  0  0  0  0  0  0  0  0  0  0  0
   36.9470   30.8330   39.2220 C   0  0  0  0  0  0  0  0  0  0  0  0
   37.9890   30.6440   38.3280 N   0  0  0  0  0  0  0  0  0  0  0  0
   38.9720   29.7640   38.5420 C   0  0  0  0  0  0  0  0  0  0  0  0
   38.9740   29.0190   39.6630 N   0  0  0  0  0  0  0  0  0  0  0  0
   39.0259   27.8885   41.8082 H   0  0  0  0  0  0  0  0  0  0  0  0
   38.5016   29.7934   43.3423 H   0  0  0  0  0  0  0  0  0  0  0  0
   36.8705   29.9740   42.7228 H   0  0  0  0  0  0  0  0  0  0  0  0
   37.8766   28.2283   44.8470 H   0  0  0  0  0  0  0  0  0  0  0  0
   36.1821   28.5461   44.3967 H   0  0  0  0  0  0  0  0  0  0  0  0
   38.0079   26.2952   43.5336 H   0  0  0  0  0  0  0  0  0  0  0  0
   36.2784   26.2460   43.7061 H   0  0  0  0  0  0  0  0  0  0  0  0
   36.0181   27.6264   41.4605 H   0  0  0  0  0  0  0  0  0  0  0  0
   38.6157   25.3109   42.6622 H   0  0  0  0  0  0  0  0  0  0  0  0
   39.2208   23.2569   41.3943 H   0  0  0  0  0  0  0  0  0  0  0  0
   37.9172   22.5187   38.0355 H   0  0  0  0  0  0  0  0  0  0  0  0
   38.9599   21.9661   39.3735 H   0  0  0  0  0  0  0  0  0  0  0  0
   36.1515   30.1586   41.1396 H   0  0  0  0  0  0  0  0  0  0  0  0
   36.1490   31.5636   39.0235 H   0  0  0  0  0  0  0  0  0  0  0  0
   39.7784   29.6488   37.8028 H   0  0  0  0  0  0  0  0  0  0  0  0
  1  5  1  0
  1  2  1  0
  2  3  1  0
  4  3  1  0
  5  4  1  0
  6  7  1  0
  6  5  1  0
  8  7  2  0
  9  8  1  0
 10  9  1  0
 11  9  2  0
 11 12  1  0
 12  6  1  0
 13 12  2  0
 14  1  1  0
 15 14  2  0
 16 15  1  0
 17 18  1  0
 17 16  2  0
 18 19  2  0
 19 14  1  0
  1 20  1  1
  2 21  1  0
  2 22  1  0
  3 23  1  0
  3 24  1  0
  4 25  1  0
  4 26  1  0
  5 27  1  6
  7 28  1  0
  8 29  1  0
 10 30  1  0
 10 31  1  0
 15 32  1  0
 16 33  1  0
 18 34  1  0
M  ISO  8  20  13  21  13  22  13  23  13  24  13  25  13  26  13  27  13
M  ISO  5  28  14  29  14  32  14  33  14  34  14
M  END
>  <minimizedAffinity>  (1) 
-4.36791372

>  <minimizedRMSD>  (1) 
3.11533046

$$$$
