
     RDKit          3D

 34 37  0  0  1  0  0  0  0  0999 V2000
   37.7040   27.0690   41.0750 C   0  0  1  0  0  0  0  0  0  0  0  0
   37.2310   26.5880   42.4580 C   0  0  0  0  0  0  0  0  0  0  0  0
   36.8550   25.1500   42.2140 C   0  0  0  0  0  0  0  0  0  0  0  0
   37.0160   24.9040   40.7150 C   0  0  0  0  0  0  0  0  0  0  0  0
   36.7460   26.3330   40.2080 C   0  0  2  0  0  0  0  0  0  0  0  0
   36.9110   26.4760   38.8090 N   0  0  0  0  0  0  0  0  0  0  0  0
   37.8600   25.8130   38.0850 C   0  0  0  0  0  0  0  0  0  0  0  0
   37.7630   26.1580   36.8030 N   0  0  0  0  0  0  0  0  0  0  0  0
   36.7640   27.0420   36.6650 C   0  0  0  0  0  0  0  0  0  0  0  0
   36.2640   27.6960   35.5600 C   0  0  0  0  0  0  0  0  0  0  0  0
   35.2290   28.5410   35.7540 N   0  0  0  0  0  0  0  0  0  0  0  0
   34.7070   28.7350   36.9880 C   0  0  0  0  0  0  0  0  0  0  0  0
   35.2060   28.0860   38.0780 N   0  0  0  0  0  0  0  0  0  0  0  0
   36.2330   27.2340   37.9380 C   0  0  0  0  0  0  0  0  0  0  0  0
   37.6160   28.5180   41.0170 C   0  0  0  0  0  0  0  0  0  0  0  0
   36.3610   29.1140   41.2730 C   0  0  0  0  0  0  0  0  0  0  0  0
   36.2210   30.5120   41.2350 C   0  0  0  0  0  0  0  0  0  0  0  0
   37.3690   31.2260   40.9390 N   0  0  0  0  0  0  0  0  0  0  0  0
   38.5490   30.6200   40.7000 C   0  0  0  0  0  0  0  0  0  0  0  0
   38.6700   29.2730   40.7400 N   0  0  0  0  0  0  0  0  0  0  0  0
   38.7484   26.8732   40.7904 H   0  0  0  0  0  0  0  0  0  0  0  0
   38.0400   26.6635   43.1995 H   0  0  0  0  0  0  0  0  0  0  0  0
   36.4019   27.1874   42.8622 H   0  0  0  0  0  0  0  0  0  0  0  0
   37.5200   24.4825   42.7816 H   0  0  0  0  0  0  0  0  0  0  0  0
   35.8238   24.9493   42.5400 H   0  0  0  0  0  0  0  0  0  0  0  0
   38.0291   24.5600   40.4596 H   0  0  0  0  0  0  0  0  0  0  0  0
   36.3700   24.1210   40.2913 H   0  0  0  0  0  0  0  0  0  0  0  0
   35.7122   26.6995   40.2917 H   0  0  0  0  0  0  0  0  0  0  0  0
   38.5920   25.1031   38.4976 H   0  0  0  0  0  0  0  0  0  0  0  0
   36.6913   27.5359   34.5591 H   0  0  0  0  0  0  0  0  0  0  0  0
   33.8636   29.4300   37.1135 H   0  0  0  0  0  0  0  0  0  0  0  0
   35.4906   28.4819   41.5028 H   0  0  0  0  0  0  0  0  0  0  0  0
   35.2584   31.0080   41.4286 H   0  0  0  0  0  0  0  0  0  0  0  0
   39.4321   31.2334   40.4676 H   0  0  0  0  0  0  0  0  0  0  0  0
  1  2  1  0
  3  2  1  0
  4  3  1  0
  5  4  1  0
  5  1  1  0
  6  5  1  0
  7  6  1  0
  8  7  2  0
  9  8  1  0
  9 14  2  0
 10 11  2  0
 10  9  1  0
 11 12  1  0
 12 13  2  0
 14 13  1  0
 14  6  1  0
 15  1  1  0
 15 16  2  0
 17 16  1  0
 18 17  2  0
 19 20  2  0
 19 18  1  0
 20 15  1  0
  1 21  1  6
  2 22  1  0
  2 23  1  0
  3 24  1  0
  3 25  1  0
  4 26  1  0
  4 27  1  0
  5 28  1  1
  7 29  1  0
 10 30  1  0
 12 31  1  0
 16 32  1  0
 17 33  1  0
 19 34  1  0
M  ISO  8  21  13  22  13  23  13  24  13  25  13  26  13  27  13  28  13
M  ISO  6  29  14  30  14  31  14  32  14  33  14  34  14
M  END
>  <minimizedAffinity>  (1) 
-4.19162273

>  <minimizedRMSD>  (1) 
0.949820936

$$$$
