
     RDKit          3D

 31 33  0  0  1  0  0  0  0  0999 V2000
   37.5690   26.7860   41.1610 C   0  0  1  0  0  0  0  0  0  0  0  0
   37.0260   26.1780   42.4660 C   0  0  0  0  0  0  0  0  0  0  0  0
   36.9470   24.7070   42.1670 C   0  0  0  0  0  0  0  0  0  0  0  0
   37.3260   24.5370   40.7120 C   0  0  0  0  0  0  0  0  0  0  0  0
   36.9160   25.9180   40.1510 C   0  0  2  0  0  0  0  0  0  0  0  0
   37.2000   28.1930   41.0980 C   0  0  0  0  0  0  0  0  0  0  0  0
   35.8910   28.5250   40.6650 C   0  0  0  0  0  0  0  0  0  0  0  0
   35.5360   29.8890   40.6170 C   0  0  0  0  0  0  0  0  0  0  0  0
   36.4980   30.8090   41.0000 N   0  0  0  0  0  0  0  0  0  0  0  0
   37.7280   30.4390   41.4030 C   0  0  0  0  0  0  0  0  0  0  0  0
   38.0780   29.1440   41.4530 N   0  0  0  0  0  0  0  0  0  0  0  0
   37.4690   26.0160   38.7810 C   0  0  0  0  0  0  0  0  0  0  0  0
   36.7720   26.3430   37.6440 C   0  0  0  0  0  0  0  0  0  0  0  0
   37.4120   26.4020   36.4120 C   0  0  0  0  0  0  0  0  0  0  0  0
   38.7420   26.1380   36.2930 N   0  0  0  0  0  0  0  0  0  0  0  0
   39.3970   25.8170   37.4430 C   0  0  0  0  0  0  0  0  0  0  0  0
   38.7810   25.7600   38.6340 N   0  0  0  0  0  0  0  0  0  0  0  0
   38.6613   26.8006   41.0317 H   0  0  0  0  0  0  0  0  0  0  0  0
   37.7115   26.3718   43.3042 H   0  0  0  0  0  0  0  0  0  0  0  0
   36.0574   26.6052   42.7650 H   0  0  0  0  0  0  0  0  0  0  0  0
   37.6473   24.1518   42.8083 H   0  0  0  0  0  0  0  0  0  0  0  0
   35.9363   24.3181   42.3602 H   0  0  0  0  0  0  0  0  0  0  0  0
   38.4039   24.3536   40.5919 H   0  0  0  0  0  0  0  0  0  0  0  0
   36.8516   23.6798   40.2118 H   0  0  0  0  0  0  0  0  0  0  0  0
   35.8488   26.1573   40.0337 H   0  0  0  0  0  0  0  0  0  0  0  0
   35.1743   27.7424   40.3754 H   0  0  0  0  0  0  0  0  0  0  0  0
   34.5361   30.2092   40.2888 H   0  0  0  0  0  0  0  0  0  0  0  0
   38.4569   31.2091   41.6956 H   0  0  0  0  0  0  0  0  0  0  0  0
   35.6957   26.5605   37.7091 H   0  0  0  0  0  0  0  0  0  0  0  0
   36.8325   26.6672   35.5154 H   0  0  0  0  0  0  0  0  0  0  0  0
   40.4734   25.5957   37.3938 H   0  0  0  0  0  0  0  0  0  0  0  0
  1  2  1  0
  3  2  1  0
  4  3  1  0
  5  4  1  0
  5  1  1  0
  6  1  1  0
  6 11  1  0
  7  6  2  0
  8  7  1  0
  8  9  2  0
  9 10  1  0
 10 11  2  0
 12  5  1  0
 13 12  2  0
 14 13  1  0
 15 14  2  0
 15 16  1  0
 16 17  2  0
 17 12  1  0
  1 18  1  1
  2 19  1  0
  2 20  1  0
  3 21  1  0
  3 22  1  0
  4 23  1  0
  4 24  1  0
  5 25  1  6
  7 26  1  0
  8 27  1  0
 10 28  1  0
 13 29  1  0
 14 30  1  0
 16 31  1  0
M  ISO  8  18  13  19  13  20  13  21  13  22  13  23  13  24  13  25  13
M  ISO  6  26  14  27  14  28  14  29  14  30  14  31  14
M  END
>  <minimizedAffinity>  (1) 
-4.01615524

>  <minimizedRMSD>  (1) 
0.203873709

$$$$
