
     RDKit          3D

 31 33  0  0  1  0  0  0  0  0999 V2000
   37.5650   26.7950   41.1370 C   0  0  1  0  0  0  0  0  0  0  0  0
   37.0780   26.2430   42.4870 C   0  0  0  0  0  0  0  0  0  0  0  0
   36.8330   24.7820   42.1960 C   0  0  0  0  0  0  0  0  0  0  0  0
   37.0430   24.5810   40.7110 C   0  0  0  0  0  0  0  0  0  0  0  0
   36.7700   25.9910   40.1800 C   0  0  2  0  0  0  0  0  0  0  0  0
   37.3460   28.2330   41.0930 C   0  0  0  0  0  0  0  0  0  0  0  0
   36.0080   28.6810   40.9160 C   0  0  0  0  0  0  0  0  0  0  0  0
   35.7600   30.0640   40.8810 C   0  0  0  0  0  0  0  0  0  0  0  0
   36.8480   30.8980   41.0230 N   0  0  0  0  0  0  0  0  0  0  0  0
   38.1020   30.4220   41.1900 C   0  0  0  0  0  0  0  0  0  0  0  0
   38.3400   29.0960   41.2230 N   0  0  0  0  0  0  0  0  0  0  0  0
   37.1650   26.1310   38.7650 C   0  0  0  0  0  0  0  0  0  0  0  0
   36.1790   26.3790   37.8130 C   0  0  0  0  0  0  0  0  0  0  0  0
   36.4820   26.5200   36.4770 C   0  0  0  0  0  0  0  0  0  0  0  0
   37.7440   26.4170   36.0790 N   0  0  0  0  0  0  0  0  0  0  0  0
   38.7130   26.1780   36.9900 C   0  0  0  0  0  0  0  0  0  0  0  0
   38.4290   26.0350   38.3200 N   0  0  0  0  0  0  0  0  0  0  0  0
   38.6396   26.7025   40.9211 H   0  0  0  0  0  0  0  0  0  0  0  0
   37.8469   26.3666   43.2639 H   0  0  0  0  0  0  0  0  0  0  0  0
   36.1860   26.7618   42.8680 H   0  0  0  0  0  0  0  0  0  0  0  0
   37.5406   24.1605   42.7644 H   0  0  0  0  0  0  0  0  0  0  0  0
   35.8137   24.4906   42.4895 H   0  0  0  0  0  0  0  0  0  0  0  0
   38.0709   24.2584   40.4890 H   0  0  0  0  0  0  0  0  0  0  0  0
   36.4088   23.7999   40.2664 H   0  0  0  0  0  0  0  0  0  0  0  0
   35.7136   26.2955   40.1434 H   0  0  0  0  0  0  0  0  0  0  0  0
   35.1842   27.9600   40.8087 H   0  0  0  0  0  0  0  0  0  0  0  0
   34.7437   30.4627   40.7464 H   0  0  0  0  0  0  0  0  0  0  0  0
   38.9395   31.1265   41.3005 H   0  0  0  0  0  0  0  0  0  0  0  0
   35.1312   26.4644   38.1366 H   0  0  0  0  0  0  0  0  0  0  0  0
   35.6844   26.7164   35.7454 H   0  0  0  0  0  0  0  0  0  0  0  0
   39.7570   26.0964   36.6531 H   0  0  0  0  0  0  0  0  0  0  0  0
  1  2  1  0
  3  2  1  0
  4  3  1  0
  5  4  1  0
  5  1  1  0
  6  1  1  0
  6 11  1  0
  7  6  2  0
  8  7  1  0
  8  9  2  0
  9 10  1  0
 10 11  2  0
 12  5  1  0
 13 12  2  0
 14 13  1  0
 15 14  2  0
 15 16  1  0
 16 17  2  0
 17 12  1  0
  1 18  1  6
  2 19  1  0
  2 20  1  0
  3 21  1  0
  3 22  1  0
  4 23  1  0
  4 24  1  0
  5 25  1  6
  7 26  1  0
  8 27  1  0
 10 28  1  0
 13 29  1  0
 14 30  1  0
 16 31  1  0
M  ISO  8  18  13  19  13  20  13  21  13  22  13  23  13  24  13  25  13
M  ISO  6  26  14  27  14  28  14  29  14  30  14  31  14
M  END
>  <minimizedAffinity>  (1) 
-3.99669313

>  <minimizedRMSD>  (1) 
0.317486554

$$$$
