
     RDKit          3D

 38 40  0  0  1  0  0  0  0  0999 V2000
   37.5770   26.7750   41.1650 C   0  0  1  0  0  0  0  0  0  0  0  0
   37.0210   26.1780   42.4680 C   0  0  0  0  0  0  0  0  0  0  0  0
   36.8840   24.7180   42.1730 C   0  0  0  0  0  0  0  0  0  0  0  0
   37.3260   24.5200   40.7270 C   0  0  0  0  0  0  0  0  0  0  0  0
   36.9710   25.9010   40.1480 C   0  0  2  0  0  0  0  0  0  0  0  0
   37.2200   28.1840   41.1070 C   0  0  0  0  0  0  0  0  0  0  0  0
   35.9260   28.5160   40.6740 C   0  0  0  0  0  0  0  0  0  0  0  0
   35.5370   29.8660   40.6140 C   0  0  0  0  0  0  0  0  0  0  0  0
   36.4750   30.7980   40.9960 N   0  0  0  0  0  0  0  0  0  0  0  0
   37.7160   30.4270   41.4080 C   0  0  0  0  0  0  0  0  0  0  0  0
   38.0860   29.1430   41.4650 N   0  0  0  0  0  0  0  0  0  0  0  0
   37.4320   26.0240   38.8150 N   0  0  0  0  0  0  0  0  0  0  0  0
   36.3190   26.0060   37.9210 C   0  0  0  0  0  0  0  0  0  0  0  0
   36.7000   26.2460   36.4800 C   0  0  0  0  0  0  0  0  0  0  0  0
   38.1700   26.6450   36.4890 C   0  0  0  0  0  0  0  0  0  0  0  0
   38.9260   25.4270   37.0290 C   0  0  0  0  0  0  0  0  0  0  0  0
   38.5300   25.1910   38.4520 C   0  0  0  0  0  0  0  0  0  0  0  0
   38.6698   26.7897   41.0400 H   0  0  0  0  0  0  0  0  0  0  0  0
   37.7188   26.3438   43.3021 H   0  0  0  0  0  0  0  0  0  0  0  0
   36.0686   26.6382   42.7698 H   0  0  0  0  0  0  0  0  0  0  0  0
   37.5249   24.1329   42.8489 H   0  0  0  0  0  0  0  0  0  0  0  0
   35.8475   24.3801   42.3198 H   0  0  0  0  0  0  0  0  0  0  0  0
   38.4036   24.3116   40.6544 H   0  0  0  0  0  0  0  0  0  0  0  0
   36.8588   23.6676   40.2121 H   0  0  0  0  0  0  0  0  0  0  0  0
   35.9061   26.1392   40.0096 H   0  0  0  0  0  0  0  0  0  0  0  0
   35.2202   27.7240   40.3832 H   0  0  0  0  0  0  0  0  0  0  0  0
   34.5324   30.1626   40.2782 H   0  0  0  0  0  0  0  0  0  0  0  0
   38.4361   31.2045   41.7028 H   0  0  0  0  0  0  0  0  0  0  0  0
   35.8305   25.0230   37.9929 H   0  0  0  0  0  0  0  0  0  0  0  0
   35.6506   26.8269   38.2199 H   0  0  0  0  0  0  0  0  0  0  0  0
   36.0882   27.0546   36.0536 H   0  0  0  0  0  0  0  0  0  0  0  0
   36.5324   25.3484   35.8666 H   0  0  0  0  0  0  0  0  0  0  0  0
   38.5084   26.8860   35.4705 H   0  0  0  0  0  0  0  0  0  0  0  0
   38.3448   27.5383   37.1066 H   0  0  0  0  0  0  0  0  0  0  0  0
   38.6753   24.5418   36.4261 H   0  0  0  0  0  0  0  0  0  0  0  0
   40.0091   25.6109   36.9733 H   0  0  0  0  0  0  0  0  0  0  0  0
   38.2400   24.1372   38.5759 H   0  0  0  0  0  0  0  0  0  0  0  0
   39.3851   25.4308   39.1011 H   0  0  0  0  0  0  0  0  0  0  0  0
  1  2  1  0
  3  2  1  0
  4  3  1  0
  5  4  1  0
  5  1  1  0
  6  1  1  0
  6 11  1  0
  7  6  2  0
  8  7  1  0
  8  9  2  0
  9 10  1  0
 10 11  2  0
 12  5  1  0
 13 12  1  0
 14 15  1  0
 14 13  1  0
 15 16  1  0
 16 17  1  0
 17 12  1  0
  1 18  1  1
  2 19  1  0
  2 20  1  0
  3 21  1  0
  3 22  1  0
  4 23  1  0
  4 24  1  0
  5 25  1  6
  7 26  1  0
  8 27  1  0
 10 28  1  0
 13 29  1  0
 13 30  1  0
 14 31  1  0
 14 32  1  0
 15 33  1  0
 15 34  1  0
 16 35  1  0
 16 36  1  0
 17 37  1  0
 17 38  1  0
M  ISO  8  18  13  19  13  20  13  21  13  22  13  23  13  24  13  25  13
M  ISO  8  26  14  27  14  28  14  29  13  30  13  31  13  32  13  33  13
M  ISO  5  34  13  35  13  36  13  37  13  38  13
M  END
>  <minimizedAffinity>  (1) 
-3.97469115

>  <minimizedRMSD>  (1) 
0.46495384

$$$$
