
     RDKit          3D

 35 36  0  0  1  0  0  0  0  0999 V2000
   37.5810   26.8010   41.1740 C   0  0  1  0  0  0  0  0  0  0  0  0
   37.1030   26.2600   42.5300 C   0  0  0  0  0  0  0  0  0  0  0  0
   36.7990   24.8080   42.2350 C   0  0  0  0  0  0  0  0  0  0  0  0
   37.1540   24.5960   40.7770 C   0  0  0  0  0  0  0  0  0  0  0  0
   36.7990   25.9890   40.2290 C   0  0  2  0  0  0  0  0  0  0  0  0
   37.3640   28.2360   41.1250 C   0  0  0  0  0  0  0  0  0  0  0  0
   36.0530   28.6830   40.9570 C   0  0  0  0  0  0  0  0  0  0  0  0
   35.7310   30.0490   40.8860 C   0  0  0  0  0  0  0  0  0  0  0  0
   36.8120   30.9040   40.9950 N   0  0  0  0  0  0  0  0  0  0  0  0
   38.0700   30.4400   41.1570 C   0  0  0  0  0  0  0  0  0  0  0  0
   38.3520   29.1100   41.2230 N   0  0  0  0  0  0  0  0  0  0  0  0
   37.2120   25.9750   38.8040 C   0  0  0  0  0  0  0  0  0  0  0  0
   36.0970   26.6530   38.0110 C   0  0  0  0  0  0  0  0  0  0  0  0
   38.4760   26.7290   38.4820 C   0  0  0  0  0  0  0  0  0  0  0  0
   37.4190   24.6200   38.1910 C   0  0  0  0  0  0  0  0  0  0  0  0
   38.6542   26.7101   40.9506 H   0  0  0  0  0  0  0  0  0  0  0  0
   37.8918   26.3511   43.2913 H   0  0  0  0  0  0  0  0  0  0  0  0
   36.2388   26.8085   42.9329 H   0  0  0  0  0  0  0  0  0  0  0  0
   37.4067   24.1522   42.8758 H   0  0  0  0  0  0  0  0  0  0  0  0
   35.7436   24.5687   42.4321 H   0  0  0  0  0  0  0  0  0  0  0  0
   38.2203   24.3612   40.6435 H   0  0  0  0  0  0  0  0  0  0  0  0
   36.6435   23.7540   40.2867 H   0  0  0  0  0  0  0  0  0  0  0  0
   35.7610   26.3510   40.1909 H   0  0  0  0  0  0  0  0  0  0  0  0
   35.2445   27.9414   40.8775 H   0  0  0  0  0  0  0  0  0  0  0  0
   34.7002   30.4096   40.7541 H   0  0  0  0  0  0  0  0  0  0  0  0
   38.8957   31.1622   41.2385 H   0  0  0  0  0  0  0  0  0  0  0  0
   35.3691   27.0956   38.7069 H   0  0  0  0  0  0  0  0  0  0  0  0
   36.5260   27.4433   37.3774 H   0  0  0  0  0  0  0  0  0  0  0  0
   35.5927   25.9085   37.3774 H   0  0  0  0  0  0  0  0  0  0  0  0
   38.9740   27.0261   39.4168 H   0  0  0  0  0  0  0  0  0  0  0  0
   39.1486   26.0844   37.8971 H   0  0  0  0  0  0  0  0  0  0  0  0
   38.2283   27.6271   37.8971 H   0  0  0  0  0  0  0  0  0  0  0  0
   37.5335   23.8706   38.9880 H   0  0  0  0  0  0  0  0  0  0  0  0
   36.5497   24.3627   37.5679 H   0  0  0  0  0  0  0  0  0  0  0  0
   38.3254   24.6340   37.5679 H   0  0  0  0  0  0  0  0  0  0  0  0
  1  2  1  0
  3  2  1  0
  4  3  1  0
  5  4  1  0
  5  1  1  0
  6  1  1  0
  6 11  1  0
  7  6  2  0
  8  7  1  0
  8  9  2  0
  9 10  1  0
 10 11  2  0
 12  5  1  0
 13 12  1  0
 14 12  1  0
 15 12  1  0
  1 16  1  6
  2 17  1  0
  2 18  1  0
  3 19  1  0
  3 20  1  0
  4 21  1  0
  4 22  1  0
  5 23  1  6
  7 24  1  0
  8 25  1  0
 10 26  1  0
 13 27  1  0
 13 28  1  0
 13 29  1  0
 14 30  1  0
 14 31  1  0
 14 32  1  0
 15 33  1  0
 15 34  1  0
 15 35  1  0
M  ISO  8  16  13  17  13  18  13  19  13  20  13  21  13  22  13  23  13
M  ISO  8  24  14  25  14  26  14  27   8  28   8  29   8  30   8  31   8
M  ISO  4  32   8  33   8  34   8  35   8
M  END
>  <minimizedAffinity>  (1) 
-3.86345267

>  <minimizedRMSD>  (1) 
0.504371524

$$$$
