
     RDKit          3D

 28 30  0  0  1  0  0  0  0  0999 V2000
   37.5370   26.8120   41.1810 C   0  0  1  0  0  0  0  0  0  0  0  0
   37.0460   26.2530   42.5290 C   0  0  0  0  0  0  0  0  0  0  0  0
   36.9610   24.7760   42.2720 C   0  0  0  0  0  0  0  0  0  0  0  0
   37.2060   24.5610   40.7820 C   0  0  0  0  0  0  0  0  0  0  0  0
   36.7870   25.9370   40.2390 C   0  0  2  0  0  0  0  0  0  0  0  0
   37.2280   28.2320   41.1080 C   0  0  0  0  0  0  0  0  0  0  0  0
   35.9090   28.5940   40.7650 C   0  0  0  0  0  0  0  0  0  0  0  0
   35.5660   29.9570   40.6930 C   0  0  0  0  0  0  0  0  0  0  0  0
   36.5700   30.8630   40.9700 N   0  0  0  0  0  0  0  0  0  0  0  0
   37.8230   30.4620   41.2960 C   0  0  0  0  0  0  0  0  0  0  0  0
   38.1420   29.1580   41.3610 N   0  0  0  0  0  0  0  0  0  0  0  0
   37.1490   26.0740   38.8210 C   0  0  0  0  0  0  0  0  0  0  0  0
   38.3490   26.2990   38.2550 N   0  0  0  0  0  0  0  0  0  0  0  0
   38.1760   26.3430   36.9680 O   0  0  0  0  0  0  0  0  0  0  0  0
   36.9350   26.1600   36.6460 C   0  0  0  0  0  0  0  0  0  0  0  0
   36.2720   25.9900   37.7850 N   0  0  0  0  0  0  0  0  0  0  0  0
   38.6182   26.7859   40.9800 H   0  0  0  0  0  0  0  0  0  0  0  0
   37.7633   26.4736   43.3332 H   0  0  0  0  0  0  0  0  0  0  0  0
   36.0922   26.6911   42.8581 H   0  0  0  0  0  0  0  0  0  0  0  0
   37.7257   24.2469   42.8596 H   0  0  0  0  0  0  0  0  0  0  0  0
   35.9754   24.3854   42.5653 H   0  0  0  0  0  0  0  0  0  0  0  0
   38.2632   24.3434   40.5697 H   0  0  0  0  0  0  0  0  0  0  0  0
   36.6684   23.7074   40.3433 H   0  0  0  0  0  0  0  0  0  0  0  0
   35.7105   26.1622   40.2165 H   0  0  0  0  0  0  0  0  0  0  0  0
   35.1564   27.8195   40.5560 H   0  0  0  0  0  0  0  0  0  0  0  0
   34.5493   30.2839   40.4293 H   0  0  0  0  0  0  0  0  0  0  0  0
   38.5929   31.2176   41.5113 H   0  0  0  0  0  0  0  0  0  0  0  0
   36.5131   26.1477   35.6302 H   0  0  0  0  0  0  0  0  0  0  0  0
  1  2  1  0
  3  2  1  0
  4  3  1  0
  5  4  1  0
  5  1  1  0
  6  1  1  0
  6 11  1  0
  7  6  2  0
  8  7  1  0
  8  9  2  0
  9 10  1  0
 10 11  2  0
 12  5  1  0
 13 12  2  0
 14 13  1  0
 15 14  1  0
 15 16  2  0
 16 12  1  0
  1 17  1  1
  2 18  1  0
  2 19  1  0
  3 20  1  0
  3 21  1  0
  4 22  1  0
  4 23  1  0
  5 24  1  6
  7 25  1  0
  8 26  1  0
 10 27  1  0
 15 28  1  0
M  ISO  8  17  13  18  13  19  13  20  13  21  13  22  13  23  13  24  13
M  ISO  4  25  14  26  14  27  14  28  14
M  END
>  <minimizedAffinity>  (1) 
-3.82768297

>  <minimizedRMSD>  (1) 
0.119249418

$$$$
