
     RDKit          3D

 30 32  0  0  1  0  0  0  0  0999 V2000
   37.5490   26.8040   41.1270 C   0  0  1  0  0  0  0  0  0  0  0  0
   37.0590   26.2220   42.4640 C   0  0  0  0  0  0  0  0  0  0  0  0
   36.9380   24.7520   42.1700 C   0  0  0  0  0  0  0  0  0  0  0  0
   37.2390   24.5700   40.6840 C   0  0  0  0  0  0  0  0  0  0  0  0
   36.7980   25.9470   40.1640 C   0  0  2  0  0  0  0  0  0  0  0  0
   37.2260   28.2230   41.0830 C   0  0  0  0  0  0  0  0  0  0  0  0
   35.9170   28.5980   40.7370 C   0  0  0  0  0  0  0  0  0  0  0  0
   35.5330   29.9450   40.6790 C   0  0  0  0  0  0  0  0  0  0  0  0
   36.5270   30.8560   40.9850 N   0  0  0  0  0  0  0  0  0  0  0  0
   37.7780   30.4620   41.3150 C   0  0  0  0  0  0  0  0  0  0  0  0
   38.1130   29.1700   41.3600 N   0  0  0  0  0  0  0  0  0  0  0  0
   37.1410   26.1480   38.7820 N   0  0  0  0  0  0  0  0  0  0  0  0
   36.2590   26.4050   37.8050 N   0  0  0  0  0  0  0  0  0  0  0  0
   36.8500   26.5430   36.6320 C   0  0  0  0  0  0  0  0  0  0  0  0
   38.2040   26.3690   36.8320 C   0  0  0  0  0  0  0  0  0  0  0  0
   38.3240   26.1260   38.1910 C   0  0  0  0  0  0  0  0  0  0  0  0
   38.6304   26.7814   40.9266 H   0  0  0  0  0  0  0  0  0  0  0  0
   37.7888   26.4058   43.2662 H   0  0  0  0  0  0  0  0  0  0  0  0
   36.1185   26.6726   42.8138 H   0  0  0  0  0  0  0  0  0  0  0  0
   37.6610   24.1847   42.7745 H   0  0  0  0  0  0  0  0  0  0  0  0
   35.9312   24.3832   42.4156 H   0  0  0  0  0  0  0  0  0  0  0  0
   38.3080   24.3859   40.5016 H   0  0  0  0  0  0  0  0  0  0  0  0
   36.7444   23.7102   40.2085 H   0  0  0  0  0  0  0  0  0  0  0  0
   35.7151   26.1385   40.1399 H   0  0  0  0  0  0  0  0  0  0  0  0
   35.1771   27.8174   40.5065 H   0  0  0  0  0  0  0  0  0  0  0  0
   34.5128   30.2553   40.4091 H   0  0  0  0  0  0  0  0  0  0  0  0
   38.5365   31.2227   41.5516 H   0  0  0  0  0  0  0  0  0  0  0  0
   36.3546   26.7570   35.6734 H   0  0  0  0  0  0  0  0  0  0  0  0
   39.0072   26.4132   36.0818 H   0  0  0  0  0  0  0  0  0  0  0  0
   39.2762   25.9396   38.7092 H   0  0  0  0  0  0  0  0  0  0  0  0
  1  2  1  0
  3  2  1  0
  4  3  1  0
  5  4  1  0
  5  1  1  0
  6  1  1  0
  6 11  1  0
  7  6  2  0
  8  7  1  0
  8  9  2  0
  9 10  1  0
 10 11  2  0
 12  5  1  0
 13 12  1  0
 14 15  1  0
 14 13  2  0
 15 16  2  0
 16 12  1  0
  1 17  1  6
  2 18  1  0
  2 19  1  0
  3 20  1  0
  3 21  1  0
  4 22  1  0
  4 23  1  0
  5 24  1  6
  7 25  1  0
  8 26  1  0
 10 27  1  0
 14 28  1  0
 15 29  1  0
 16 30  1  0
M  ISO  8  17  13  18  13  19  13  20  13  21  13  22  13  23  13  24  13
M  ISO  6  25  14  26  14  27  14  28  14  29  14  30  14
M  END
>  <minimizedAffinity>  (1) 
-3.80376673

>  <minimizedRMSD>  (1) 
0.196284488

$$$$
