
     RDKit          3D

 30 32  0  0  1  0  0  0  0  0999 V2000
   37.5380   26.8100   41.1640 C   0  0  1  0  0  0  0  0  0  0  0  0
   37.1110   26.2930   42.5420 C   0  0  0  0  0  0  0  0  0  0  0  0
   36.8800   24.8290   42.3270 C   0  0  0  0  0  0  0  0  0  0  0  0
   37.1400   24.5660   40.8550 C   0  0  0  0  0  0  0  0  0  0  0  0
   36.7310   25.9330   40.2760 C   0  0  2  0  0  0  0  0  0  0  0  0
   37.2420   28.2310   41.0620 C   0  0  0  0  0  0  0  0  0  0  0  0
   35.8920   28.6130   40.8080 C   0  0  0  0  0  0  0  0  0  0  0  0
   35.6020   29.9800   40.7130 C   0  0  0  0  0  0  0  0  0  0  0  0
   36.6240   30.8730   40.8680 N   0  0  0  0  0  0  0  0  0  0  0  0
   37.8860   30.4660   41.1060 C   0  0  0  0  0  0  0  0  0  0  0  0
   38.1920   29.1490   41.2030 N   0  0  0  0  0  0  0  0  0  0  0  0
   37.0920   26.0750   38.8460 C   0  0  0  0  0  0  0  0  0  0  0  0
   36.1220   26.0010   37.7480 C   0  0  0  0  0  0  0  0  0  0  0  0
   37.1810   24.9380   37.8930 C   0  0  0  0  0  0  0  0  0  0  0  0
   38.6098   26.7586   40.9218 H   0  0  0  0  0  0  0  0  0  0  0  0
   37.9056   26.4581   43.2845 H   0  0  0  0  0  0  0  0  0  0  0  0
   36.2198   26.8088   42.9290 H   0  0  0  0  0  0  0  0  0  0  0  0
   37.5717   24.2396   42.9468 H   0  0  0  0  0  0  0  0  0  0  0  0
   35.8565   24.5411   42.6089 H   0  0  0  0  0  0  0  0  0  0  0  0
   38.1982   24.3377   40.6597 H   0  0  0  0  0  0  0  0  0  0  0  0
   36.6077   23.7008   40.4330 H   0  0  0  0  0  0  0  0  0  0  0  0
   35.6507   26.1402   40.2674 H   0  0  0  0  0  0  0  0  0  0  0  0
   35.1019   27.8568   40.6902 H   0  0  0  0  0  0  0  0  0  0  0  0
   34.5762   30.3261   40.5183 H   0  0  0  0  0  0  0  0  0  0  0  0
   38.6823   31.2157   41.2237 H   0  0  0  0  0  0  0  0  0  0  0  0
   37.7998   26.8383   39.2016 H   0  0  0  0  0  0  0  0  0  0  0  0
   36.1749   26.7206   36.9177 H   0  0  0  0  0  0  0  0  0  0  0  0
   35.0242   26.0014   37.6781 H   0  0  0  0  0  0  0  0  0  0  0  0
   36.9060   23.9228   38.2151 H   0  0  0  0  0  0  0  0  0  0  0  0
   37.9633   24.5151   37.2456 H   0  0  0  0  0  0  0  0  0  0  0  0
  1  2  1  0
  3  2  1  0
  4  3  1  0
  5  4  1  0
  5  1  1  0
  6  1  1  0
  6 11  1  0
  7  6  2  0
  8  7  1  0
  8  9  2  0
  9 10  1  0
 10 11  2  0
 12  5  1  0
 13 14  1  0
 13 12  1  0
 14 12  1  0
  1 15  1  6
  2 16  1  0
  2 17  1  0
  3 18  1  0
  3 19  1  0
  4 20  1  0
  4 21  1  0
  5 22  1  6
  7 23  1  0
  8 24  1  0
 10 25  1  0
 12 26  1  0
 13 27  1  0
 13 28  1  0
 14 29  1  0
 14 30  1  0
M  ISO  8  15  13  16  13  17  13  18  13  19  13  20  13  21  13  22  13
M  ISO  8  23  14  24  14  25  14  26  13  27  13  28  13  29  13  30  13
M  END
>  <minimizedAffinity>  (1) 
-3.77566886

>  <minimizedRMSD>  (1) 
0.235594511

$$$$
