
     RDKit          3D

 32 33  0  0  1  0  0  0  0  0999 V2000
   37.6350   26.7760   41.1640 C   0  0  1  0  0  0  0  0  0  0  0  0
   37.0760   26.3000   42.5130 C   0  0  0  0  0  0  0  0  0  0  0  0
   36.8530   24.8330   42.2540 C   0  0  0  0  0  0  0  0  0  0  0  0
   36.9990   24.6030   40.7570 C   0  0  0  0  0  0  0  0  0  0  0  0
   36.7280   26.0190   40.2480 C   0  0  2  0  0  0  0  0  0  0  0  0
   37.5180   28.2210   41.0810 C   0  0  0  0  0  0  0  0  0  0  0  0
   36.2370   28.7920   41.1090 C   0  0  0  0  0  0  0  0  0  0  0  0
   36.0420   30.1770   41.0350 C   0  0  0  0  0  0  0  0  0  0  0  0
   37.2060   30.9200   40.9350 N   0  0  0  0  0  0  0  0  0  0  0  0
   38.4230   30.3470   40.9100 C   0  0  0  0  0  0  0  0  0  0  0  0
   38.5850   29.0030   40.9830 N   0  0  0  0  0  0  0  0  0  0  0  0
   37.0280   26.1870   38.7970 C   0  0  0  0  0  0  0  0  0  0  0  0
   35.7290   26.5120   38.0850 C   0  0  0  0  0  0  0  0  0  0  0  0
   37.6670   25.0110   38.1520 C   0  0  0  0  0  0  0  0  0  0  0  0
   38.6993   26.5950   40.9530 H   0  0  0  0  0  0  0  0  0  0  0  0
   37.8011   26.4576   43.3250 H   0  0  0  0  0  0  0  0  0  0  0  0
   36.1722   26.8378   42.8353 H   0  0  0  0  0  0  0  0  0  0  0  0
   37.6001   24.2379   42.7996 H   0  0  0  0  0  0  0  0  0  0  0  0
   35.8531   24.5278   42.5961 H   0  0  0  0  0  0  0  0  0  0  0  0
   38.0101   24.2599   40.4926 H   0  0  0  0  0  0  0  0  0  0  0  0
   36.3425   23.8252   40.3398 H   0  0  0  0  0  0  0  0  0  0  0  0
   35.6782   26.3462   40.2772 H   0  0  0  0  0  0  0  0  0  0  0  0
   35.3602   28.1329   41.1915 H   0  0  0  0  0  0  0  0  0  0  0  0
   35.0434   30.6378   41.0548 H   0  0  0  0  0  0  0  0  0  0  0  0
   39.3131   30.9881   40.8279 H   0  0  0  0  0  0  0  0  0  0  0  0
   37.7662   26.9984   38.7153 H   0  0  0  0  0  0  0  0  0  0  0  0
   34.9426   26.7088   38.8286 H   0  0  0  0  0  0  0  0  0  0  0  0
   35.8691   27.4028   37.4550 H   0  0  0  0  0  0  0  0  0  0  0  0
   35.4331   25.6602   37.4550 H   0  0  0  0  0  0  0  0  0  0  0  0
   38.0397   24.3252   38.9271 H   0  0  0  0  0  0  0  0  0  0  0  0
   36.9281   24.4898   37.5257 H   0  0  0  0  0  0  0  0  0  0  0  0
   38.5064   25.3474   37.5257 H   0  0  0  0  0  0  0  0  0  0  0  0
  1  2  1  0
  3  2  1  0
  4  3  1  0
  5  4  1  0
  5  1  1  0
  6  7  2  0
  6  1  1  0
  8  7  1  0
  9  8  2  0
 10  9  1  0
 10 11  2  0
 11  6  1  0
 12  5  1  0
 13 12  1  0
 14 12  1  0
  1 15  1  6
  2 16  1  0
  2 17  1  0
  3 18  1  0
  3 19  1  0
  4 20  1  0
  4 21  1  0
  5 22  1  6
  7 23  1  0
  8 24  1  0
 10 25  1  0
 12 26  1  0
 13 27  1  0
 13 28  1  0
 13 29  1  0
 14 30  1  0
 14 31  1  0
 14 32  1  0
M  ISO  8  15  13  16  13  17  13  18  13  19  13  20  13  21  13  22  13
M  ISO  8  23  14  24  14  25  14  26   8  27   8  28   8  29   8  30   8
M  ISO  2  31   8  32   8
M  END
>  <minimizedAffinity>  (1) 
-3.76752329

>  <minimizedRMSD>  (1) 
0.521435797

$$$$
