
     RDKit          3D

 29 30  0  0  1  0  0  0  0  0999 V2000
   37.4850   26.7860   41.1600 C   0  0  1  0  0  0  0  0  0  0  0  0
   37.0510   26.2200   42.5140 C   0  0  0  0  0  0  0  0  0  0  0  0
   36.9000   24.7510   42.2530 C   0  0  0  0  0  0  0  0  0  0  0  0
   37.0660   24.5360   40.7700 C   0  0  0  0  0  0  0  0  0  0  0  0
   36.7590   25.9240   40.2050 C   0  0  2  0  0  0  0  0  0  0  0  0
   37.1860   28.2090   41.0930 C   0  0  0  0  0  0  0  0  0  0  0  0
   35.8910   28.5830   40.7030 C   0  0  0  0  0  0  0  0  0  0  0  0
   35.5530   29.9450   40.6330 C   0  0  0  0  0  0  0  0  0  0  0  0
   36.5510   30.8380   40.9640 N   0  0  0  0  0  0  0  0  0  0  0  0
   37.7820   30.4340   41.3340 C   0  0  0  0  0  0  0  0  0  0  0  0
   38.1020   29.1180   41.3990 N   0  0  0  0  0  0  0  0  0  0  0  0
   37.5060   26.0030   38.8790 C   0  0  0  0  0  0  0  0  0  0  0  0
   36.5440   26.2540   37.7460 C   0  0  0  0  0  0  0  0  0  0  0  0
   38.5641   26.7593   40.9484 H   0  0  0  0  0  0  0  0  0  0  0  0
   37.8177   26.4055   43.2807 H   0  0  0  0  0  0  0  0  0  0  0  0
   36.1280   26.6827   42.8935 H   0  0  0  0  0  0  0  0  0  0  0  0
   37.6706   24.1905   42.8025 H   0  0  0  0  0  0  0  0  0  0  0  0
   35.9141   24.3968   42.5884 H   0  0  0  0  0  0  0  0  0  0  0  0
   38.0918   24.2237   40.5248 H   0  0  0  0  0  0  0  0  0  0  0  0
   36.4216   23.7421   40.3644 H   0  0  0  0  0  0  0  0  0  0  0  0
   35.6947   26.1688   40.0738 H   0  0  0  0  0  0  0  0  0  0  0  0
   35.1447   27.8143   40.4535 H   0  0  0  0  0  0  0  0  0  0  0  0
   34.5496   30.2802   40.3314 H   0  0  0  0  0  0  0  0  0  0  0  0
   38.5426   31.1869   41.5884 H   0  0  0  0  0  0  0  0  0  0  0  0
   38.2360   26.8247   38.9230 H   0  0  0  0  0  0  0  0  0  0  0  0
   38.0215   25.0473   38.7033 H   0  0  0  0  0  0  0  0  0  0  0  0
   35.5557   26.5119   38.1544 H   0  0  0  0  0  0  0  0  0  0  0  0
   36.9139   27.0857   37.1284 H   0  0  0  0  0  0  0  0  0  0  0  0
   36.4604   25.3476   37.1284 H   0  0  0  0  0  0  0  0  0  0  0  0
  1  2  1  0
  3  2  1  0
  4  3  1  0
  5  4  1  0
  5  1  1  0
  6  1  1  0
  6 11  1  0
  7  6  2  0
  8  7  1  0
  8  9  2  0
  9 10  1  0
 10 11  2  0
 12  5  1  0
 13 12  1  0
  1 14  1  6
  2 15  1  0
  2 16  1  0
  3 17  1  0
  3 18  1  0
  4 19  1  0
  4 20  1  0
  5 21  1  6
  7 22  1  0
  8 23  1  0
 10 24  1  0
 12 25  1  0
 12 26  1  0
 13 27  1  0
 13 28  1  0
 13 29  1  0
M  ISO  8  14  13  15  13  16  13  17  13  18  13  19  13  20  13  21  13
M  ISO  8  22  14  23  14  24  14  25   8  26   8  27   8  28   8  29   8
M  END
>  <minimizedAffinity>  (1) 
-3.67472339

>  <minimizedRMSD>  (1) 
0.342259198

$$$$
