
     RDKit          3D

 26 27  0  0  1  0  0  0  0  0999 V2000
   37.5810   26.8190   41.2360 C   0  0  1  0  0  0  0  0  0  0  0  0
   36.9800   26.2350   42.5200 C   0  0  0  0  0  0  0  0  0  0  0  0
   36.8930   24.7600   42.2290 C   0  0  0  0  0  0  0  0  0  0  0  0
   37.3270   24.5630   40.7840 C   0  0  0  0  0  0  0  0  0  0  0  0
   36.9600   25.9420   40.2010 C   0  0  2  0  0  0  0  0  0  0  0  0
   37.2460   28.2310   41.1390 C   0  0  0  0  0  0  0  0  0  0  0  0
   35.9120   28.5680   40.7710 C   0  0  0  0  0  0  0  0  0  0  0  0
   35.5670   29.9290   40.6730 C   0  0  0  0  0  0  0  0  0  0  0  0
   36.5580   30.8510   40.9440 N   0  0  0  0  0  0  0  0  0  0  0  0
   37.8120   30.4690   41.2900 C   0  0  0  0  0  0  0  0  0  0  0  0
   38.1690   29.1630   41.3910 N   0  0  0  0  0  0  0  0  0  0  0  0
   37.5340   26.1100   38.8480 C   0  0  0  0  0  0  0  0  0  0  0  0
   36.7520   26.4990   37.9160 O   0  0  0  0  0  0  0  0  0  0  0  0
   38.8580   25.8630   38.5720 O   0  0  0  0  0  0  0  0  0  0  0  0
   38.6780   26.8168   41.1546 H   0  0  0  0  0  0  0  0  0  0  0  0
   37.6342   26.4274   43.3831 H   0  0  0  0  0  0  0  0  0  0  0  0
   36.0070   26.6787   42.7777 H   0  0  0  0  0  0  0  0  0  0  0  0
   37.5602   24.2024   42.9028 H   0  0  0  0  0  0  0  0  0  0  0  0
   35.8688   24.3899   42.3842 H   0  0  0  0  0  0  0  0  0  0  0  0
   38.4055   24.3612   40.7060 H   0  0  0  0  0  0  0  0  0  0  0  0
   36.8613   23.7067   40.2741 H   0  0  0  0  0  0  0  0  0  0  0  0
   35.8901   26.1403   40.0396 H   0  0  0  0  0  0  0  0  0  0  0  0
   35.1687   27.7829   40.5681 H   0  0  0  0  0  0  0  0  0  0  0  0
   34.5512   30.2445   40.3925 H   0  0  0  0  0  0  0  0  0  0  0  0
   38.5656   31.2434   41.4958 H   0  0  0  0  0  0  0  0  0  0  0  0
   39.2036   25.9875   37.6527 H   0  0  0  0  0  0  0  0  0  0  0  0
  1  2  1  0
  3  2  1  0
  4  3  1  0
  5  4  1  0
  5  1  1  0
  6  1  1  0
  6 11  1  0
  7  6  2  0
  8  7  1  0
  8  9  2  0
  9 10  1  0
 10 11  2  0
 12  5  1  0
 13 12  2  0
 14 12  1  0
  1 15  1  1
  2 16  1  0
  2 17  1  0
  3 18  1  0
  3 19  1  0
  4 20  1  0
  4 21  1  0
  5 22  1  6
  7 23  1  0
  8 24  1  0
 10 25  1  0
 14 26  1  0
M  ISO  8  15  13  16  13  17  13  18  13  19  13  20  13  21  13  22  13
M  ISO  4  23  14  24  14  25  14  26   3
M  END
>  <minimizedAffinity>  (1) 
-3.66041374

>  <minimizedRMSD>  (1) 
0.225862265

$$$$
