
     RDKit          3D

 41 44  0  0  1  0  0  0  0  0999 V2000
   37.7560   27.5830   41.0370 C   0  0  1  0  0  0  0  0  0  0  0  0
   37.6800   27.0670   42.4620 C   0  0  0  0  0  0  0  0  0  0  0  0
   37.3360   25.6270   42.2930 C   0  0  0  0  0  0  0  0  0  0  0  0
   36.9360   25.4310   40.8540 C   0  0  0  0  0  0  0  0  0  0  0  0
   36.6030   26.8650   40.3980 C   0  0  2  0  0  0  0  0  0  0  0  0
   37.6800   29.0250   41.0110 C   0  0  0  0  0  0  0  0  0  0  0  0
   36.3980   29.6160   41.0190 C   0  0  0  0  0  0  0  0  0  0  0  0
   36.2770   31.0120   41.0050 C   0  0  0  0  0  0  0  0  0  0  0  0
   37.4450   31.7320   40.9840 N   0  0  0  0  0  0  0  0  0  0  0  0
   38.6470   31.1270   40.9770 C   0  0  0  0  0  0  0  0  0  0  0  0
   38.7520   29.7850   40.9900 N   0  0  0  0  0  0  0  0  0  0  0  0
   36.6120   26.8430   38.9820 N   0  0  0  0  0  0  0  0  0  0  0  0
   36.6910   27.4270   37.7010 C   0  0  0  0  0  0  0  0  0  0  0  0
   37.9000   27.4400   36.9880 C   0  0  0  0  0  0  0  0  0  0  0  0
   37.9890   28.0030   35.7450 C   0  0  0  0  0  0  0  0  0  0  0  0
   36.8360   28.5480   35.2430 C   0  0  0  0  0  0  0  0  0  0  0  0
   35.6050   28.5890   35.8550 C   0  0  0  0  0  0  0  0  0  0  0  0
   34.5330   29.1800   35.2240 C   0  0  0  0  0  0  0  0  0  0  0  0
   33.3300   29.2000   35.8770 C   0  0  0  0  0  0  0  0  0  0  0  0
   33.2270   28.6350   37.1350 C   0  0  0  0  0  0  0  0  0  0  0  0
   34.3490   28.0660   37.6920 C   0  0  0  0  0  0  0  0  0  0  0  0
   35.5870   28.0020   37.1090 C   0  0  0  0  0  0  0  0  0  0  0  0
   38.6970   27.3884   40.5017 H   0  0  0  0  0  0  0  0  0  0  0  0
   38.6466   27.1828   42.9741 H   0  0  0  0  0  0  0  0  0  0  0  0
   36.9490   27.6127   43.0767 H   0  0  0  0  0  0  0  0  0  0  0  0
   38.2085   25.0006   42.5304 H   0  0  0  0  0  0  0  0  0  0  0  0
   36.5172   25.3390   42.9688 H   0  0  0  0  0  0  0  0  0  0  0  0
   37.7645   25.0098   40.2656 H   0  0  0  0  0  0  0  0  0  0  0  0
   36.1013   24.7263   40.7245 H   0  0  0  0  0  0  0  0  0  0  0  0
   35.6389   27.3202   40.6689 H   0  0  0  0  0  0  0  0  0  0  0  0
   35.4981   28.9836   41.0361 H   0  0  0  0  0  0  0  0  0  0  0  0
   35.2943   31.5063   41.0106 H   0  0  0  0  0  0  0  0  0  0  0  0
   39.5602   31.7401   40.9604 H   0  0  0  0  0  0  0  0  0  0  0  0
   36.4963   25.8419   38.7691 H   0  0  0  0  0  0  0  0  0  0  0  0
   38.7954   26.9874   37.4390 H   0  0  0  0  0  0  0  0  0  0  0  0
   38.9327   28.0176   35.1799 H   0  0  0  0  0  0  0  0  0  0  0  0
   36.9023   29.0014   34.2430 H   0  0  0  0  0  0  0  0  0  0  0  0
   34.6404   29.6236   34.2232 H   0  0  0  0  0  0  0  0  0  0  0  0
   32.4510   29.6625   35.4042 H   0  0  0  0  0  0  0  0  0  0  0  0
   32.2702   28.6404   37.6777 H   0  0  0  0  0  0  0  0  0  0  0  0
   34.2426   27.6236   38.6935 H   0  0  0  0  0  0  0  0  0  0  0  0
  1  2  1  0
  3  2  1  0
  4  3  1  0
  5  4  1  0
  5  1  1  0
  6  7  2  0
  6  1  1  0
  8  7  1  0
  9  8  2  0
 10  9  1  0
 10 11  2  0
 11  6  1  0
 12  5  1  0
 13 12  1  0
 14 13  2  0
 15 14  1  0
 16 15  2  0
 16 17  1  0
 17 22  2  0
 18 17  1  0
 18 19  2  0
 19 20  1  0
 20 21  2  0
 22 21  1  0
 22 13  1  0
  1 23  1  6
  2 24  1  0
  2 25  1  0
  3 26  1  0
  3 27  1  0
  4 28  1  0
  4 29  1  0
  5 30  1  6
  7 31  1  0
  8 32  1  0
 10 33  1  0
 12 34  1  0
 14 35  1  0
 15 36  1  0
 16 37  1  0
 18 38  1  0
 19 39  1  0
 20 40  1  0
 21 41  1  0
M  ISO  8  23  13  24  13  25  13  26  13  27  13  28  13  29  13  30  13
M  ISO  8  31  14  32  14  33  14  35  14  36  14  37  14  38  14  39  14
M  ISO  2  40  14  41  14
M  END
>  <minimizedAffinity>  (1) 
-4.89159584

>  <minimizedRMSD>  (1) 
3.62651539

$$$$
