
     RDKit          3D

 40 42  0  0  1  0  0  0  0  0999 V2000
   37.3470   26.5310   40.5470 C   0  0  1  0  0  0  0  0  0  0  0  0
   36.9060   25.1320   41.0510 C   0  0  0  0  0  0  0  0  0  0  0  0
   36.4320   24.4750   39.7920 C   0  0  0  0  0  0  0  0  0  0  0  0
   36.3500   25.5240   38.7190 C   0  0  0  0  0  0  0  0  0  0  0  0
   36.3230   26.8340   39.5350 C   0  0  2  0  0  0  0  0  0  0  0  0
   37.4570   27.4330   41.6730 C   0  0  0  0  0  0  0  0  0  0  0  0
   36.9020   26.9790   42.9030 C   0  0  0  0  0  0  0  0  0  0  0  0
   36.9780   27.8020   44.0380 C   0  0  0  0  0  0  0  0  0  0  0  0
   37.5950   29.0150   43.8830 N   0  0  0  0  0  0  0  0  0  0  0  0
   38.1080   29.4000   42.6820 C   0  0  0  0  0  0  0  0  0  0  0  0
   38.0420   28.6070   41.5700 N   0  0  0  0  0  0  0  0  0  0  0  0
   36.6810   27.8930   38.6410 N   0  0  0  0  0  0  0  0  0  0  0  0
   36.8960   29.3810   36.2820 N   0  0  0  0  0  0  0  0  0  0  0  0
   35.4750   29.1980   36.1910 C   0  0  0  0  0  0  0  0  0  0  0  0
   34.8340   28.9400   37.5350 C   0  0  0  0  0  0  0  0  0  0  0  0
   35.8480   29.0480   38.6610 C   0  0  0  0  0  0  0  0  0  0  0  0
   36.5800   30.3610   38.4980 C   0  0  0  0  0  0  0  0  0  0  0  0
   37.2590   30.4740   37.1640 C   0  0  0  0  0  0  0  0  0  0  0  0
   38.3440   26.6111   40.0892 H   0  0  0  0  0  0  0  0  0  0  0  0
   37.7506   24.5833   41.4932 H   0  0  0  0  0  0  0  0  0  0  0  0
   36.1434   25.1690   41.8429 H   0  0  0  0  0  0  0  0  0  0  0  0
   37.1411   23.6895   39.4918 H   0  0  0  0  0  0  0  0  0  0  0  0
   35.4455   24.0150   39.9508 H   0  0  0  0  0  0  0  0  0  0  0  0
   35.4344   25.4096   38.1202 H   0  0  0  0  0  0  0  0  0  0  0  0
   37.1758   25.4756   37.9940 H   0  0  0  0  0  0  0  0  0  0  0  0
   35.3727   27.1444   39.9939 H   0  0  0  0  0  0  0  0  0  0  0  0
   36.4183   25.9929   42.9635 H   0  0  0  0  0  0  0  0  0  0  0  0
   36.5616   27.4874   45.0063 H   0  0  0  0  0  0  0  0  0  0  0  0
   38.5929   30.3842   42.6034 H   0  0  0  0  0  0  0  0  0  0  0  0
   36.6669   27.5131   37.6837 H   0  0  0  0  0  0  0  0  0  0  0  0
   37.2646   29.5794   35.3409 H   0  0  0  0  0  0  0  0  0  0  0  0
   35.0302   30.1057   35.7572 H   0  0  0  0  0  0  0  0  0  0  0  0
   35.2929   28.3151   35.5606 H   0  0  0  0  0  0  0  0  0  0  0  0
   34.0363   29.6794   37.6992 H   0  0  0  0  0  0  0  0  0  0  0  0
   34.4246   27.9190   37.5337 H   0  0  0  0  0  0  0  0  0  0  0  0
   35.3841   29.0639   39.6583 H   0  0  0  0  0  0  0  0  0  0  0  0
   35.8567   31.1838   38.5974 H   0  0  0  0  0  0  0  0  0  0  0  0
   37.3563   30.4118   39.2757 H   0  0  0  0  0  0  0  0  0  0  0  0
   38.3483   30.4621   37.3165 H   0  0  0  0  0  0  0  0  0  0  0  0
   36.9366   31.4149   36.6941 H   0  0  0  0  0  0  0  0  0  0  0  0
  1  2  1  0
  1  6  1  0
  3  2  1  0
  4  5  1  0
  4  3  1  0
  5  1  1  0
  6  7  2  0
  7  8  1  0
  9  8  2  0
 10  9  1  0
 11  6  1  0
 11 10  2  0
 12 16  1  0
 12  5  1  0
 13 18  1  0
 14 13  1  0
 14 15  1  0
 15 16  1  0
 17 16  1  0
 18 17  1  0
  1 19  1  6
  2 20  1  0
  2 21  1  0
  3 22  1  0
  3 23  1  0
  4 24  1  0
  4 25  1  0
  5 26  1  1
  7 27  1  0
  8 28  1  0
 10 29  1  0
 12 30  1  0
 13 31  1  0
 14 32  1  0
 14 33  1  0
 15 34  1  0
 15 35  1  0
 16 36  1  0
 17 37  1  0
 17 38  1  0
 18 39  1  0
 18 40  1  0
M  ISO  8  19  13  20  13  21  13  22  13  23  13  24  13  25  13  26  13
M  ISO  8  27  14  28  14  29  14  30   5  31   5  32  13  33  13  34  13
M  ISO  6  35  13  36  13  37  13  38  13  39  13  40  13
M  END
>  <minimizedAffinity>  (1) 
-4.45913363

>  <minimizedRMSD>  (1) 
3.6620729

$$$$
