
     RDKit          3D

 38 40  0  0  1  0  0  0  0  0999 V2000
   37.4970   26.7690   41.2660 C   0  0  1  0  0  0  0  0  0  0  0  0
   36.9250   26.2050   42.5930 C   0  0  0  0  0  0  0  0  0  0  0  0
   36.9430   24.7190   42.3410 C   0  0  0  0  0  0  0  0  0  0  0  0
   37.2870   24.4950   40.9020 C   0  0  0  0  0  0  0  0  0  0  0  0
   36.9360   25.8530   40.2640 C   0  0  2  0  0  0  0  0  0  0  0  0
   37.1520   28.1670   41.1470 C   0  0  0  0  0  0  0  0  0  0  0  0
   35.8730   28.4630   40.6190 C   0  0  0  0  0  0  0  0  0  0  0  0
   35.4620   29.7970   40.4780 C   0  0  0  0  0  0  0  0  0  0  0  0
   36.3650   30.7510   40.8790 N   0  0  0  0  0  0  0  0  0  0  0  0
   37.5860   30.4250   41.3830 C   0  0  0  0  0  0  0  0  0  0  0  0
   37.9730   29.1280   41.5130 N   0  0  0  0  0  0  0  0  0  0  0  0
   37.6160   25.8970   39.0020 N   0  0  0  0  0  0  0  0  0  0  0  0
   36.6110   25.5550   37.6490 S   0  0  0  0  0  0  0  0  0  0  0  0
   37.1590   24.4780   36.7910 O   0  0  0  0  0  0  0  0  0  0  0  0
   35.2510   25.1360   38.1270 O   0  0  0  0  0  0  0  0  0  0  0  0
   36.3760   27.0550   36.7650 C   0  0  0  0  0  0  0  0  0  0  0  0
   35.2730   27.8660   37.0530 C   0  0  0  0  0  0  0  0  0  0  0  0
   34.9770   29.0660   36.4310 C   0  0  0  0  0  0  0  0  0  0  0  0
   35.8440   29.4930   35.4460 C   0  0  0  0  0  0  0  0  0  0  0  0
   36.9370   28.7240   35.1360 C   0  0  0  0  0  0  0  0  0  0  0  0
   37.2000   27.5340   35.7780 C   0  0  0  0  0  0  0  0  0  0  0  0
   38.5922   26.7907   41.1653 H   0  0  0  0  0  0  0  0  0  0  0  0
   37.5633   26.4723   43.4480 H   0  0  0  0  0  0  0  0  0  0  0  0
   35.9295   26.5979   42.8472 H   0  0  0  0  0  0  0  0  0  0  0  0
   37.6974   24.2411   42.9833 H   0  0  0  0  0  0  0  0  0  0  0  0
   35.9599   24.2820   42.5700 H   0  0  0  0  0  0  0  0  0  0  0  0
   38.3550   24.2617   40.7796 H   0  0  0  0  0  0  0  0  0  0  0  0
   36.7546   23.6455   40.4494 H   0  0  0  0  0  0  0  0  0  0  0  0
   35.8793   26.0744   40.0532 H   0  0  0  0  0  0  0  0  0  0  0  0
   35.2002   27.6462   40.3187 H   0  0  0  0  0  0  0  0  0  0  0  0
   34.4754   30.0630   40.0706 H   0  0  0  0  0  0  0  0  0  0  0  0
   38.2736   31.2264   41.6913 H   0  0  0  0  0  0  0  0  0  0  0  0
   38.0115   26.8403   38.8806 H   0  0  0  0  0  0  0  0  0  0  0  0
   34.5844   27.5213   37.8385 H   0  0  0  0  0  0  0  0  0  0  0  0
   34.0898   29.6536   36.7094 H   0  0  0  0  0  0  0  0  0  0  0  0
   35.6609   30.4391   34.9155 H   0  0  0  0  0  0  0  0  0  0  0  0
   37.6251   29.0686   34.3500 H   0  0  0  0  0  0  0  0  0  0  0  0
   38.0906   26.9547   35.4930 H   0  0  0  0  0  0  0  0  0  0  0  0
  1  2  1  0
  3  2  1  0
  4  3  1  0
  5  4  1  0
  5  1  1  0
  6  1  1  0
  6 11  1  0
  7  6  2  0
  8  7  1  0
  8  9  2  0
  9 10  1  0
 10 11  2  0
 12  5  1  0
 13 15  2  0
 13 12  1  0
 14 13  2  0
 16 17  2  0
 16 13  1  0
 18 17  1  0
 19 18  2  0
 20 19  1  0
 20 21  2  0
 21 16  1  0
  1 22  1  1
  2 23  1  0
  2 24  1  0
  3 25  1  0
  3 26  1  0
  4 27  1  0
  4 28  1  0
  5 29  1  6
  7 30  1  0
  8 31  1  0
 10 32  1  0
 12 33  1  0
 17 34  1  0
 18 35  1  0
 19 36  1  0
 20 37  1  0
 21 38  1  0
M  ISO  8  22  13  23  13  24  13  25  13  26  13  27  13  28  13  29  13
M  ISO  8  30  14  31  14  32  14  33   5  34  14  35  14  36  14  37  14
M  ISO  1  38  14
M  END
>  <minimizedAffinity>  (1) 
-4.41010284

>  <minimizedRMSD>  (1) 
0.93106091

$$$$
