
     RDKit          3D

 35 37  0  0  1  0  0  0  0  0999 V2000
   37.6220   26.8830   41.0950 C   0  0  1  0  0  0  0  0  0  0  0  0
   37.1530   26.3730   42.4810 C   0  0  0  0  0  0  0  0  0  0  0  0
   36.8250   24.9460   42.2040 C   0  0  0  0  0  0  0  0  0  0  0  0
   36.8910   24.7340   40.7010 C   0  0  0  0  0  0  0  0  0  0  0  0
   36.7080   26.1770   40.1760 C   0  0  2  0  0  0  0  0  0  0  0  0
   37.5910   28.3300   41.0740 C   0  0  0  0  0  0  0  0  0  0  0  0
   36.2950   28.9310   41.1580 C   0  0  0  0  0  0  0  0  0  0  0  0
   36.1780   30.3280   41.1520 C   0  0  0  0  0  0  0  0  0  0  0  0
   37.3580   31.0360   41.0630 N   0  0  0  0  0  0  0  0  0  0  0  0
   38.5640   30.4140   40.9870 C   0  0  0  0  0  0  0  0  0  0  0  0
   38.6810   29.0610   40.9930 N   0  0  0  0  0  0  0  0  0  0  0  0
   37.1910   26.1520   38.8220 N   0  0  0  0  0  0  0  0  0  0  0  0
   36.9560   27.1040   37.8210 C   0  0  0  0  0  0  0  0  0  0  0  0
   35.8230   27.8630   37.7300 C   0  0  0  0  0  0  0  0  0  0  0  0
   35.5730   28.8030   36.7470 C   0  0  0  0  0  0  0  0  0  0  0  0
   36.5350   29.0100   35.7670 C   0  0  0  0  0  0  0  0  0  0  0  0
   37.6910   28.2620   35.8290 C   0  0  0  0  0  0  0  0  0  0  0  0
   37.8680   27.3540   36.8250 C   0  0  0  0  0  0  0  0  0  0  0  0
   38.6633   26.6708   40.8110 H   0  0  0  0  0  0  0  0  0  0  0  0
   37.9552   26.4588   43.2287 H   0  0  0  0  0  0  0  0  0  0  0  0
   36.3101   26.9445   42.8969 H   0  0  0  0  0  0  0  0  0  0  0  0
   37.5525   24.2912   42.7059 H   0  0  0  0  0  0  0  0  0  0  0  0
   35.8203   24.7040   42.5810 H   0  0  0  0  0  0  0  0  0  0  0  0
   37.8620   24.3161   40.3967 H   0  0  0  0  0  0  0  0  0  0  0  0
   36.1479   24.0199   40.3164 H   0  0  0  0  0  0  0  0  0  0  0  0
   35.7012   26.6198   40.1568 H   0  0  0  0  0  0  0  0  0  0  0  0
   35.3961   28.3007   41.2269 H   0  0  0  0  0  0  0  0  0  0  0  0
   35.2014   30.8303   41.2147 H   0  0  0  0  0  0  0  0  0  0  0  0
   39.4751   31.0265   40.9184 H   0  0  0  0  0  0  0  0  0  0  0  0
   37.7743   25.3450   38.5587 H   0  0  0  0  0  0  0  0  0  0  0  0
   35.0499   27.7146   38.4984 H   0  0  0  0  0  0  0  0  0  0  0  0
   34.6329   29.3741   36.7414 H   0  0  0  0  0  0  0  0  0  0  0  0
   36.3792   29.7479   34.9663 H   0  0  0  0  0  0  0  0  0  0  0  0
   38.4740   28.4004   35.0689 H   0  0  0  0  0  0  0  0  0  0  0  0
   38.8063   26.7799   36.8339 H   0  0  0  0  0  0  0  0  0  0  0  0
  1  2  1  0
  3  2  1  0
  4  3  1  0
  5  4  1  0
  5  1  1  0
  6  1  1  0
  6  7  2  0
  8  7  1  0
  9  8  2  0
 10 11  2  0
 10  9  1  0
 11  6  1  0
 12  5  1  0
 13 12  1  0
 14 13  2  0
 15 14  1  0
 16 17  1  0
 16 15  2  0
 17 18  2  0
 18 13  1  0
  1 19  1  6
  2 20  1  0
  2 21  1  0
  3 22  1  0
  3 23  1  0
  4 24  1  0
  4 25  1  0
  5 26  1  6
  7 27  1  0
  8 28  1  0
 10 29  1  0
 12 30  1  0
 14 31  1  0
 15 32  1  0
 16 33  1  0
 17 34  1  0
 18 35  1  0
M  ISO  8  19  13  20  13  21  13  22  13  23  13  24  13  25  13  26  13
M  ISO  8  27  14  28  14  29  14  31  14  32  14  33  14  34  14  35  14
M  END
>  <minimizedAffinity>  (1) 
-4.17979002

>  <minimizedRMSD>  (1) 
2.18914652

$$$$
