
     RDKit          3D

 32 34  0  0  1  0  0  0  0  0999 V2000
   37.6270   26.7880   41.2180 C   0  0  1  0  0  0  0  0  0  0  0  0
   36.8790   26.1300   42.4100 C   0  0  0  0  0  0  0  0  0  0  0  0
   36.9820   24.6740   42.0870 C   0  0  0  0  0  0  0  0  0  0  0  0
   37.5550   24.5460   40.6890 C   0  0  0  0  0  0  0  0  0  0  0  0
   37.2170   25.9350   40.0890 C   0  0  2  0  0  0  0  0  0  0  0  0
   37.2690   28.1880   41.1520 C   0  0  0  0  0  0  0  0  0  0  0  0
   35.9620   28.4890   40.6590 C   0  0  0  0  0  0  0  0  0  0  0  0
   35.5570   29.8320   40.5780 C   0  0  0  0  0  0  0  0  0  0  0  0
   36.4640   30.7780   40.9860 N   0  0  0  0  0  0  0  0  0  0  0  0
   37.6830   30.4400   41.4430 C   0  0  0  0  0  0  0  0  0  0  0  0
   38.0920   29.1430   41.5280 N   0  0  0  0  0  0  0  0  0  0  0  0
   38.0600   26.0860   38.9340 N   0  0  0  0  0  0  0  0  0  0  0  0
   37.6960   27.4640   35.6710 N   0  0  0  0  0  0  0  0  0  0  0  0
   38.4210   27.0330   36.6730 N   0  0  0  0  0  0  0  0  0  0  0  0
   37.6460   26.6150   37.6860 C   0  0  0  0  0  0  0  0  0  0  0  0
   36.3620   26.8210   37.2290 C   0  0  0  0  0  0  0  0  0  0  0  0
   36.3960   27.3500   35.9750 C   0  0  0  0  0  0  0  0  0  0  0  0
   38.7253   26.8259   41.2667 H   0  0  0  0  0  0  0  0  0  0  0  0
   37.3715   26.3617   43.3659 H   0  0  0  0  0  0  0  0  0  0  0  0
   35.8438   26.4824   42.5286 H   0  0  0  0  0  0  0  0  0  0  0  0
   37.6456   24.1769   42.8098 H   0  0  0  0  0  0  0  0  0  0  0  0
   35.9914   24.1988   42.1400 H   0  0  0  0  0  0  0  0  0  0  0  0
   38.6409   24.3724   40.7140 H   0  0  0  0  0  0  0  0  0  0  0  0
   37.1520   23.6989   40.1146 H   0  0  0  0  0  0  0  0  0  0  0  0
   36.1881   26.1364   39.7563 H   0  0  0  0  0  0  0  0  0  0  0  0
   35.2831   27.6814   40.3476 H   0  0  0  0  0  0  0  0  0  0  0  0
   34.5606   30.1119   40.2054 H   0  0  0  0  0  0  0  0  0  0  0  0
   38.3725   31.2369   41.7585 H   0  0  0  0  0  0  0  0  0  0  0  0
   39.0416   25.7862   39.0204 H   0  0  0  0  0  0  0  0  0  0  0  0
   38.0683   27.8340   34.7848 H   0  0  0  0  0  0  0  0  0  0  0  0
   35.4461   26.5920   37.7935 H   0  0  0  0  0  0  0  0  0  0  0  0
   35.5377   27.6256   35.3446 H   0  0  0  0  0  0  0  0  0  0  0  0
  1  2  1  0
  3  2  1  0
  4  3  1  0
  5  4  1  0
  5  1  1  0
  6  1  1  0
  6 11  1  0
  7  6  2  0
  8  7  1  0
  8  9  2  0
  9 10  1  0
 10 11  2  0
 12  5  1  0
 13 17  1  0
 13 14  1  0
 14 15  2  0
 15 12  1  0
 16 15  1  0
 17 16  2  0
  1 18  1  1
  2 19  1  0
  2 20  1  0
  3 21  1  0
  3 22  1  0
  4 23  1  0
  4 24  1  0
  5 25  1  6
  7 26  1  0
  8 27  1  0
 10 28  1  0
 12 29  1  0
 13 30  1  0
 16 31  1  0
 17 32  1  0
M  ISO  8  18  13  19  13  20  13  21  13  22  13  23  13  24  13  25  13
M  ISO  6  26  14  27  14  28  14  30   9  31  14  32  14
M  END
>  <minimizedAffinity>  (1) 
-4.09449339

>  <minimizedRMSD>  (1) 
1.37513542

$$$$
