
     RDKit          3D

 33 35  0  0  1  0  0  0  0  0999 V2000
   37.5990   26.7600   41.2250 C   0  0  1  0  0  0  0  0  0  0  0  0
   37.0040   26.1820   42.5320 C   0  0  0  0  0  0  0  0  0  0  0  0
   36.8660   24.7330   42.2100 C   0  0  0  0  0  0  0  0  0  0  0  0
   37.1670   24.5500   40.7300 C   0  0  0  0  0  0  0  0  0  0  0  0
   36.9100   25.9750   40.1870 C   0  0  2  0  0  0  0  0  0  0  0  0
   37.3650   28.2000   41.1950 C   0  0  0  0  0  0  0  0  0  0  0  0
   36.0390   28.6360   40.8780 C   0  0  0  0  0  0  0  0  0  0  0  0
   35.7690   30.0120   40.8450 C   0  0  0  0  0  0  0  0  0  0  0  0
   36.8270   30.8610   41.1260 N   0  0  0  0  0  0  0  0  0  0  0  0
   38.0580   30.3910   41.4190 C   0  0  0  0  0  0  0  0  0  0  0  0
   38.3460   29.0550   41.4580 N   0  0  0  0  0  0  0  0  0  0  0  0
   37.5670   26.0440   38.9120 N   0  0  0  0  0  0  0  0  0  0  0  0
   37.2050   26.8330   37.8160 C   0  0  0  0  0  0  0  0  0  0  0  0
   38.0910   27.3290   36.8850 C   0  0  0  0  0  0  0  0  0  0  0  0
   37.7220   28.1210   35.7950 C   0  0  0  0  0  0  0  0  0  0  0  0
   36.4100   28.4300   35.6290 N   0  0  0  0  0  0  0  0  0  0  0  0
   35.5450   27.9460   36.5390 C   0  0  0  0  0  0  0  0  0  0  0  0
   35.9280   27.1850   37.5790 N   0  0  0  0  0  0  0  0  0  0  0  0
   38.6881   26.6736   41.0972 H   0  0  0  0  0  0  0  0  0  0  0  0
   37.6851   26.3374   43.3817 H   0  0  0  0  0  0  0  0  0  0  0  0
   36.0579   26.6570   42.8309 H   0  0  0  0  0  0  0  0  0  0  0  0
   37.5775   24.1476   42.8109 H   0  0  0  0  0  0  0  0  0  0  0  0
   35.8476   24.3858   42.4388 H   0  0  0  0  0  0  0  0  0  0  0  0
   38.2096   24.2394   40.5670 H   0  0  0  0  0  0  0  0  0  0  0  0
   36.5660   23.7682   40.2425 H   0  0  0  0  0  0  0  0  0  0  0  0
   35.8710   26.2989   40.0270 H   0  0  0  0  0  0  0  0  0  0  0  0
   35.2456   27.9047   40.6640 H   0  0  0  0  0  0  0  0  0  0  0  0
   34.7666   30.3979   40.6077 H   0  0  0  0  0  0  0  0  0  0  0  0
   38.8610   31.1112   41.6349 H   0  0  0  0  0  0  0  0  0  0  0  0
   38.3969   25.4460   38.7915 H   0  0  0  0  0  0  0  0  0  0  0  0
   39.1568   27.0860   37.0077 H   0  0  0  0  0  0  0  0  0  0  0  0
   38.4788   28.4869   35.0855 H   0  0  0  0  0  0  0  0  0  0  0  0
   34.4768   28.1836   36.4270 H   0  0  0  0  0  0  0  0  0  0  0  0
  1  2  1  0
  3  2  1  0
  4  3  1  0
  5  4  1  0
  5  1  1  0
  6  1  1  0
  6 11  1  0
  7  6  2  0
  8  7  1  0
  8  9  2  0
  9 10  1  0
 10 11  2  0
 12  5  1  0
 13 12  1  0
 14 13  2  0
 15 14  1  0
 16 15  2  0
 16 17  1  0
 17 18  2  0
 18 13  1  0
  1 19  1  1
  2 20  1  0
  2 21  1  0
  3 22  1  0
  3 23  1  0
  4 24  1  0
  4 25  1  0
  5 26  1  6
  7 27  1  0
  8 28  1  0
 10 29  1  0
 12 30  1  0
 14 31  1  0
 15 32  1  0
 17 33  1  0
M  ISO  8  19  13  20  13  21  13  22  13  23  13  24  13  25  13  26  13
M  ISO  6  27  14  28  14  29  14  31  14  32  14  33  14
M  END
>  <minimizedAffinity>  (1) 
-4.0384922

>  <minimizedRMSD>  (1) 
1.84730029

$$$$
