
     RDKit          3D

 38 40  0  0  1  0  0  0  0  0999 V2000
   37.6690   26.8890   41.1280 C   0  0  1  0  0  0  0  0  0  0  0  0
   37.1100   26.3740   42.4690 C   0  0  0  0  0  0  0  0  0  0  0  0
   36.7990   24.9500   42.1760 C   0  0  0  0  0  0  0  0  0  0  0  0
   36.9520   24.7500   40.6770 C   0  0  0  0  0  0  0  0  0  0  0  0
   36.7850   26.1920   40.1410 C   0  0  2  0  0  0  0  0  0  0  0  0
   37.6040   28.3400   41.1180 C   0  0  0  0  0  0  0  0  0  0  0  0
   36.3090   28.9410   41.1650 C   0  0  0  0  0  0  0  0  0  0  0  0
   36.1910   30.3370   41.1660 C   0  0  0  0  0  0  0  0  0  0  0  0
   37.3680   31.0500   41.1200 N   0  0  0  0  0  0  0  0  0  0  0  0
   38.5690   30.4430   41.0770 C   0  0  0  0  0  0  0  0  0  0  0  0
   38.6780   29.0960   41.0760 N   0  0  0  0  0  0  0  0  0  0  0  0
   37.3250   26.1980   38.8310 N   0  0  0  0  0  0  0  0  0  0  0  0
   36.7150   26.9470   37.8130 C   0  0  0  0  0  0  0  0  0  0  0  0
   37.2880   28.3110   37.5840 C   0  0  0  0  0  0  0  0  0  0  0  0
   36.1370   29.0560   36.9000 C   0  0  0  0  0  0  0  0  0  0  0  0
   34.9660   28.6290   37.7540 C   0  0  0  0  0  0  0  0  0  0  0  0
   35.2310   27.1720   38.0670 C   0  0  0  0  0  0  0  0  0  0  0  0
   38.7267   26.6777   40.9119 H   0  0  0  0  0  0  0  0  0  0  0  0
   37.8604   26.4584   43.2688 H   0  0  0  0  0  0  0  0  0  0  0  0
   36.2387   26.9443   42.8234 H   0  0  0  0  0  0  0  0  0  0  0  0
   37.4975   24.2939   42.7160 H   0  0  0  0  0  0  0  0  0  0  0  0
   35.7771   24.7015   42.4985 H   0  0  0  0  0  0  0  0  0  0  0  0
   37.9430   24.3431   40.4272 H   0  0  0  0  0  0  0  0  0  0  0  0
   36.2358   24.0325   40.2500 H   0  0  0  0  0  0  0  0  0  0  0  0
   35.7762   26.6238   40.0652 H   0  0  0  0  0  0  0  0  0  0  0  0
   35.4083   28.3105   41.2003 H   0  0  0  0  0  0  0  0  0  0  0  0
   35.2115   30.8362   41.2016 H   0  0  0  0  0  0  0  0  0  0  0  0
   39.4812   31.0567   41.0419 H   0  0  0  0  0  0  0  0  0  0  0  0
   38.2922   26.5428   38.9120 H   0  0  0  0  0  0  0  0  0  0  0  0
   36.9031   26.3193   36.9295 H   0  0  0  0  0  0  0  0  0  0  0  0
   37.5597   28.7909   38.5358 H   0  0  0  0  0  0  0  0  0  0  0  0
   38.2125   28.2991   36.9880 H   0  0  0  0  0  0  0  0  0  0  0  0
   36.2850   30.1455   36.9337 H   0  0  0  0  0  0  0  0  0  0  0  0
   36.0233   28.8285   35.8298 H   0  0  0  0  0  0  0  0  0  0  0  0
   34.9231   29.2230   38.6788 H   0  0  0  0  0  0  0  0  0  0  0  0
   34.0027   28.7770   37.2440 H   0  0  0  0  0  0  0  0  0  0  0  0
   34.6294   26.5254   37.4112 H   0  0  0  0  0  0  0  0  0  0  0  0
   34.9603   26.9290   39.1051 H   0  0  0  0  0  0  0  0  0  0  0  0
  1  2  1  0
  3  2  1  0
  4  3  1  0
  5  4  1  0
  5  1  1  0
  6  1  1  0
  6  7  2  0
  7  8  1  0
  9  8  2  0
 10  9  1  0
 11 10  2  0
 11  6  1  0
 12  5  1  0
 13 17  1  0
 13 12  1  0
 14 13  1  0
 15 14  1  0
 15 16  1  0
 16 17  1  0
  1 18  1  6
  2 19  1  0
  2 20  1  0
  3 21  1  0
  3 22  1  0
  4 23  1  0
  4 24  1  0
  5 25  1  6
  7 26  1  0
  8 27  1  0
 10 28  1  0
 12 29  1  0
 13 30  1  0
 14 31  1  0
 14 32  1  0
 15 33  1  0
 15 34  1  0
 16 35  1  0
 16 36  1  0
 17 37  1  0
 17 38  1  0
M  ISO  8  18  13  19  13  20  13  21  13  22  13  23  13  24  13  25  13
M  ISO  8  26  14  27  14  28  14  29   5  30  13  31  13  32  13  33  13
M  ISO  5  34  13  35  13  36  13  37  13  38  13
M  END
>  <minimizedAffinity>  (1) 
-4.01829147

>  <minimizedRMSD>  (1) 
1.65980589

$$$$
