
     RDKit          3D

 32 34  0  0  1  0  0  0  0  0999 V2000
   37.5040   26.7840   41.1140 C   0  0  1  0  0  0  0  0  0  0  0  0
   37.0350   26.1870   42.4650 C   0  0  0  0  0  0  0  0  0  0  0  0
   36.9650   24.7290   42.1620 C   0  0  0  0  0  0  0  0  0  0  0  0
   37.1760   24.5430   40.7000 C   0  0  0  0  0  0  0  0  0  0  0  0
   36.8030   25.9450   40.1290 C   0  0  2  0  0  0  0  0  0  0  0  0
   37.1910   28.2040   41.0940 C   0  0  0  0  0  0  0  0  0  0  0  0
   35.8790   28.5660   40.6450 C   0  0  0  0  0  0  0  0  0  0  0  0
   35.5510   29.9340   40.6150 C   0  0  0  0  0  0  0  0  0  0  0  0
   36.5140   30.8300   41.0200 N   0  0  0  0  0  0  0  0  0  0  0  0
   37.7440   30.4220   41.4360 C   0  0  0  0  0  0  0  0  0  0  0  0
   38.0660   29.1150   41.4680 N   0  0  0  0  0  0  0  0  0  0  0  0
   37.3080   26.0170   38.8130 N   0  0  0  0  0  0  0  0  0  0  0  0
   37.5930   26.8390   37.7050 C   0  0  0  0  0  0  0  0  0  0  0  0
   38.8660   27.1450   37.2790 C   0  0  0  0  0  0  0  0  0  0  0  0
   38.8020   27.9420   36.2040 N   0  0  0  0  0  0  0  0  0  0  0  0
   37.4780   28.1300   35.9640 C   0  0  0  0  0  0  0  0  0  0  0  0
   36.7540   27.4680   36.8640 N   0  0  0  0  0  0  0  0  0  0  0  0
   38.5845   26.7611   40.9090 H   0  0  0  0  0  0  0  0  0  0  0  0
   37.7614   26.3930   43.2650 H   0  0  0  0  0  0  0  0  0  0  0  0
   36.0848   26.6076   42.8258 H   0  0  0  0  0  0  0  0  0  0  0  0
   37.7475   24.1952   42.7213 H   0  0  0  0  0  0  0  0  0  0  0  0
   35.9839   24.3281   42.4566 H   0  0  0  0  0  0  0  0  0  0  0  0
   38.2228   24.2881   40.4779 H   0  0  0  0  0  0  0  0  0  0  0  0
   36.5842   23.7211   40.2708 H   0  0  0  0  0  0  0  0  0  0  0  0
   35.7427   26.2197   40.0271 H   0  0  0  0  0  0  0  0  0  0  0  0
   35.1529   27.8003   40.3343 H   0  0  0  0  0  0  0  0  0  0  0  0
   34.5604   30.2751   40.2799 H   0  0  0  0  0  0  0  0  0  0  0  0
   38.4858   31.1709   41.7506 H   0  0  0  0  0  0  0  0  0  0  0  0
   37.5872   25.0608   38.5510 H   0  0  0  0  0  0  0  0  0  0  0  0
   39.7944   26.7892   37.7497 H   0  0  0  0  0  0  0  0  0  0  0  0
   37.0651   28.7394   35.1466 H   0  0  0  0  0  0  0  0  0  0  0  0
   35.7253   27.4422   36.9084 H   0  0  0  0  0  0  0  0  0  0  0  0
  1  2  1  0
  3  2  1  0
  4  3  1  0
  5  4  1  0
  5  1  1  0
  6  1  1  0
  6 11  1  0
  7  6  2  0
  8  7  1  0
  8  9  2  0
  9 10  1  0
 10 11  2  0
 12  5  1  0
 13 12  1  0
 14 13  2  0
 15 14  1  0
 16 15  2  0
 16 17  1  0
 17 13  1  0
  1 18  1  6
  2 19  1  0
  2 20  1  0
  3 21  1  0
  3 22  1  0
  4 23  1  0
  4 24  1  0
  5 25  1  6
  7 26  1  0
  8 27  1  0
 10 28  1  0
 12 29  1  0
 14 30  1  0
 16 31  1  0
 17 32  1  0
M  ISO  8  18  13  19  13  20  13  21  13  22  13  23  13  24  13  25  13
M  ISO  6  26  14  27  14  28  14  30  14  31  14  32   9
M  END
>  <minimizedAffinity>  (1) 
-3.93789339

>  <minimizedRMSD>  (1) 
0.455421627

$$$$
