
     RDKit          3D

 37 39  0  0  1  0  0  0  0  0999 V2000
   37.6180   26.7630   41.1710 C   0  0  1  0  0  0  0  0  0  0  0  0
   37.0670   26.2460   42.5170 C   0  0  0  0  0  0  0  0  0  0  0  0
   36.8230   24.8050   42.2490 C   0  0  0  0  0  0  0  0  0  0  0  0
   36.9740   24.5790   40.7490 C   0  0  0  0  0  0  0  0  0  0  0  0
   36.7910   25.9990   40.1910 C   0  0  2  0  0  0  0  0  0  0  0  0
   37.4810   28.2110   41.1380 C   0  0  0  0  0  0  0  0  0  0  0  0
   36.1570   28.7390   40.9940 C   0  0  0  0  0  0  0  0  0  0  0  0
   35.9640   30.1270   40.9610 C   0  0  0  0  0  0  0  0  0  0  0  0
   37.0840   30.9030   41.0740 N   0  0  0  0  0  0  0  0  0  0  0  0
   38.3120   30.3660   41.2080 C   0  0  0  0  0  0  0  0  0  0  0  0
   38.5140   29.0180   41.2400 N   0  0  0  0  0  0  0  0  0  0  0  0
   37.3160   26.0260   38.8890 N   0  0  0  0  0  0  0  0  0  0  0  0
   36.1170   24.8310   37.2300 N   0  0  0  0  0  0  0  0  0  0  0  0
   34.6820   24.7750   37.4320 C   0  0  0  0  0  0  0  0  0  0  0  0
   34.2970   26.1960   37.0790 C   0  0  0  0  0  0  0  0  0  0  0  0
   35.3180   26.9690   37.9440 C   0  0  0  0  0  0  0  0  0  0  0  0
   36.5410   26.1230   37.7550 C   0  0  1  0  0  0  0  0  0  0  0  0
   38.6871   26.6050   40.9660 H   0  0  0  0  0  0  0  0  0  0  0  0
   37.8040   26.3787   43.3227 H   0  0  0  0  0  0  0  0  0  0  0  0
   36.1667   26.7826   42.8508 H   0  0  0  0  0  0  0  0  0  0  0  0
   37.5559   24.1932   42.7954 H   0  0  0  0  0  0  0  0  0  0  0  0
   35.8148   24.5172   42.5818 H   0  0  0  0  0  0  0  0  0  0  0  0
   37.9686   24.1784   40.5035 H   0  0  0  0  0  0  0  0  0  0  0  0
   36.2642   23.8463   40.3376 H   0  0  0  0  0  0  0  0  0  0  0  0
   35.7647   26.3843   40.1004 H   0  0  0  0  0  0  0  0  0  0  0  0
   35.2966   28.0589   40.9098 H   0  0  0  0  0  0  0  0  0  0  0  0
   34.9629   30.5692   40.8499 H   0  0  0  0  0  0  0  0  0  0  0  0
   39.1797   31.0365   41.2944 H   0  0  0  0  0  0  0  0  0  0  0  0
   37.9562   26.8324   38.8612 H   0  0  0  0  0  0  0  0  0  0  0  0
   36.5813   24.0664   37.7405 H   0  0  0  0  0  0  0  0  0  0  0  0
   34.2055   24.0464   36.7596 H   0  0  0  0  0  0  0  0  0  0  0  0
   34.3732   24.4532   38.4375 H   0  0  0  0  0  0  0  0  0  0  0  0
   34.4309   26.4016   36.0067 H   0  0  0  0  0  0  0  0  0  0  0  0
   33.2432   26.4517   37.2639 H   0  0  0  0  0  0  0  0  0  0  0  0
   35.4719   27.9925   37.5715 H   0  0  0  0  0  0  0  0  0  0  0  0
   35.0159   27.1063   38.9928 H   0  0  0  0  0  0  0  0  0  0  0  0
   37.2110   26.6065   37.0288 H   0  0  0  0  0  0  0  0  0  0  0  0
  1  2  1  0
  3  2  1  0
  4  3  1  0
  5  4  1  0
  5  1  1  0
  6  1  1  0
  6 11  1  0
  7  6  2  0
  8  7  1  0
  8  9  2  0
  9 10  1  0
 10 11  2  0
 12  5  1  0
 13 14  1  0
 13 17  1  0
 15 14  1  0
 15 16  1  0
 17 16  1  0
 17 12  1  0
  1 18  1  6
  2 19  1  0
  2 20  1  0
  3 21  1  0
  3 22  1  0
  4 23  1  0
  4 24  1  0
  5 25  1  6
  7 26  1  0
  8 27  1  0
 10 28  1  0
 12 29  1  0
 13 30  1  0
 14 31  1  0
 14 32  1  0
 15 33  1  0
 15 34  1  0
 16 35  1  0
 16 36  1  0
 17 37  1  6
M  ISO  8  18  13  19  13  20  13  21  13  22  13  23  13  24  13  25  13
M  ISO  8  26  14  27  14  28  14  29   5  30   5  31  13  32  13  33  13
M  ISO  4  34  13  35  13  36  13  37  13
M  END
>  <minimizedAffinity>  (1) 
-3.88981795

>  <minimizedRMSD>  (1) 
0.955999017

$$$$
