
     RDKit          3D

 23 24  0  0  0  0  0  0  0  0999 V2000
   38.4610   29.0000   43.1300 C   0  0  0  0  0  0  0  0  0  0  0  0
   37.5840   27.8810   43.0780 C   0  0  0  0  0  0  0  0  0  0  0  0
   36.5150   27.9390   42.1860 C   0  0  0  0  0  0  0  0  0  0  0  0
   36.3620   29.0460   41.4200 N   0  0  0  0  0  0  0  0  0  0  0  0
   37.2180   30.1020   41.4910 C   0  0  0  0  0  0  0  0  0  0  0  0
   38.2510   30.0660   42.3410 N   0  0  0  0  0  0  0  0  0  0  0  0
   37.0370   31.3040   40.6470 C   0  0  0  0  0  0  0  0  0  0  0  0
   38.1700   32.2950   40.8280 C   0  0  0  0  0  0  0  0  0  0  0  0
   37.7600   33.3300   39.7720 C   0  0  0  0  0  0  0  0  0  0  0  0
   37.1770   32.4840   38.6410 C   0  0  0  0  0  0  0  0  0  0  0  0
   37.0660   31.0700   39.1790 C   0  0  0  0  0  0  0  0  0  0  0  0
   39.3167   28.9919   43.8211 H   0  0  0  0  0  0  0  0  0  0  0  0
   37.7440   27.0015   43.7190 H   0  0  0  0  0  0  0  0  0  0  0  0
   35.8076   27.1005   42.1052 H   0  0  0  0  0  0  0  0  0  0  0  0
   36.0485   31.6553   40.9779 H   0  0  0  0  0  0  0  0  0  0  0  0
   38.1843   32.7236   41.8409 H   0  0  0  0  0  0  0  0  0  0  0  0
   39.1823   31.8800   40.7135 H   0  0  0  0  0  0  0  0  0  0  0  0
   37.0048   34.0217   40.1735 H   0  0  0  0  0  0  0  0  0  0  0  0
   38.6005   33.9590   39.4435 H   0  0  0  0  0  0  0  0  0  0  0  0
   37.8432   32.5072   37.7660 H   0  0  0  0  0  0  0  0  0  0  0  0
   36.1971   32.8672   38.3200 H   0  0  0  0  0  0  0  0  0  0  0  0
   36.1432   30.5812   38.8331 H   0  0  0  0  0  0  0  0  0  0  0  0
   37.8771   30.4036   38.8503 H   0  0  0  0  0  0  0  0  0  0  0  0
  2  1  2  0
  3  2  1  0
  4  5  1  0
  4  3  2  0
  5  6  2  0
  6  1  1  0
  7  8  1  0
  7  5  1  0
  9  8  1  0
 10 11  1  0
 10  9  1  0
 11  7  1  0
  1 12  1  0
  2 13  1  0
  3 14  1  0
  7 15  1  0
  8 16  1  0
  8 17  1  0
  9 18  1  0
  9 19  1  0
 10 20  1  0
 10 21  1  0
 11 22  1  0
 11 23  1  0
M  ISO  8  12  14  13  14  14  14  15  13  16  13  17  13  18  13  19  13
M  ISO  4  20  13  21  13  22  13  23  13
M  END
>  <minimizedAffinity>  (1) 
-3.84750009

>  <minimizedRMSD>  (1) 
1.89284408

$$$$
