
     RDKit          3D

 31 33  0  0  1  0  0  0  0  0999 V2000
   37.6380   26.7820   41.2340 C   0  0  1  0  0  0  0  0  0  0  0  0
   36.9770   26.1600   42.4880 C   0  0  0  0  0  0  0  0  0  0  0  0
   36.9310   24.7080   42.1530 C   0  0  0  0  0  0  0  0  0  0  0  0
   37.2830   24.5560   40.7040 C   0  0  0  0  0  0  0  0  0  0  0  0
   37.0500   25.9770   40.1510 C   0  0  2  0  0  0  0  0  0  0  0  0
   37.3860   28.2020   41.2040 C   0  0  0  0  0  0  0  0  0  0  0  0
   36.0760   28.6160   40.8670 C   0  0  0  0  0  0  0  0  0  0  0  0
   35.7690   29.9860   40.8290 C   0  0  0  0  0  0  0  0  0  0  0  0
   36.7870   30.8510   41.1300 N   0  0  0  0  0  0  0  0  0  0  0  0
   38.0300   30.4050   41.4490 C   0  0  0  0  0  0  0  0  0  0  0  0
   38.3320   29.0800   41.4860 N   0  0  0  0  0  0  0  0  0  0  0  0
   37.7720   26.0570   38.9110 N   0  0  0  0  0  0  0  0  0  0  0  0
   37.3340   26.8050   37.7620 C   0  0  0  0  0  0  0  0  0  0  0  0
   35.9700   27.0050   37.4890 C   0  0  0  0  0  0  0  0  0  0  0  0
   36.0120   28.0000   35.9490 S   0  0  0  0  0  0  0  0  0  0  0  0
   37.9110   27.9690   35.9450 C   0  0  0  0  0  0  0  0  0  0  0  0
   38.1460   27.3600   36.8820 N   0  0  0  0  0  0  0  0  0  0  0  0
   38.7357   26.7429   41.1753 H   0  0  0  0  0  0  0  0  0  0  0  0
   37.5852   26.3400   43.3867 H   0  0  0  0  0  0  0  0  0  0  0  0
   35.9883   26.5856   42.7149 H   0  0  0  0  0  0  0  0  0  0  0  0
   37.6550   24.1587   42.7727 H   0  0  0  0  0  0  0  0  0  0  0  0
   35.9271   24.3025   42.3471 H   0  0  0  0  0  0  0  0  0  0  0  0
   38.3319   24.2486   40.5802 H   0  0  0  0  0  0  0  0  0  0  0  0
   36.6931   23.7836   40.1889 H   0  0  0  0  0  0  0  0  0  0  0  0
   36.0197   26.2888   39.9246 H   0  0  0  0  0  0  0  0  0  0  0  0
   35.3021   27.8692   40.6360 H   0  0  0  0  0  0  0  0  0  0  0  0
   34.7621   30.3458   40.5706 H   0  0  0  0  0  0  0  0  0  0  0  0
   38.8157   31.1380   41.6844 H   0  0  0  0  0  0  0  0  0  0  0  0
   38.6627   25.5447   38.8398 H   0  0  0  0  0  0  0  0  0  0  0  0
   35.0961   26.6529   38.0568 H   0  0  0  0  0  0  0  0  0  0  0  0
   38.6071   28.4222   35.2239 H   0  0  0  0  0  0  0  0  0  0  0  0
  1  2  1  0
  3  2  1  0
  4  3  1  0
  5  4  1  0
  5  1  1  0
  6  1  1  0
  6 11  1  0
  7  6  2  0
  8  7  1  0
  8  9  2  0
  9 10  1  0
 10 11  2  0
 12  5  1  0
 13 12  1  0
 14 13  2  0
 15 14  1  0
 16 15  1  0
 16 17  2  0
 17 13  1  0
  1 18  1  1
  2 19  1  0
  2 20  1  0
  3 21  1  0
  3 22  1  0
  4 23  1  0
  4 24  1  0
  5 25  1  6
  7 26  1  0
  8 27  1  0
 10 28  1  0
 12 29  1  0
 14 30  1  0
 16 31  1  0
M  ISO  8  18  13  19  13  20  13  21  13  22  13  23  13  24  13  25  13
M  ISO  5  26  14  27  14  28  14  30  14  31  14
M  END
>  <minimizedAffinity>  (1) 
-3.8667469

>  <minimizedRMSD>  (1) 
1.60073662

$$$$
