
     RDKit          3D

 28 29  0  0  1  0  0  0  0  0999 V2000
   37.4790   26.7700   41.1140 C   0  0  1  0  0  0  0  0  0  0  0  0
   37.0770   26.2050   42.4920 C   0  0  0  0  0  0  0  0  0  0  0  0
   36.9420   24.7320   42.2420 C   0  0  0  0  0  0  0  0  0  0  0  0
   37.0750   24.5240   40.7540 C   0  0  0  0  0  0  0  0  0  0  0  0
   36.7200   25.9150   40.2000 C   0  0  2  0  0  0  0  0  0  0  0  0
   37.1720   28.1880   41.0760 C   0  0  0  0  0  0  0  0  0  0  0  0
   35.8630   28.5700   40.6430 C   0  0  0  0  0  0  0  0  0  0  0  0
   35.5500   29.9420   40.6150 C   0  0  0  0  0  0  0  0  0  0  0  0
   36.5380   30.8250   41.0100 N   0  0  0  0  0  0  0  0  0  0  0  0
   37.7560   30.4030   41.4090 C   0  0  0  0  0  0  0  0  0  0  0  0
   38.0590   29.0910   41.4370 N   0  0  0  0  0  0  0  0  0  0  0  0
   37.1930   25.9610   38.8470 N   0  0  0  0  0  0  0  0  0  0  0  0
   36.2860   25.9250   37.7680 C   0  0  0  0  0  0  0  0  0  0  0  0
   36.5390   25.1770   36.8000 O   0  0  0  0  0  0  0  0  0  0  0  0
   35.1270   26.6650   37.7000 O   0  0  0  0  0  0  0  0  0  0  0  0
   38.5470   26.7413   40.8524 H   0  0  0  0  0  0  0  0  0  0  0  0
   37.8562   26.4065   43.2419 H   0  0  0  0  0  0  0  0  0  0  0  0
   36.1562   26.6580   42.8882 H   0  0  0  0  0  0  0  0  0  0  0  0
   37.7349   24.1844   42.7725 H   0  0  0  0  0  0  0  0  0  0  0  0
   35.9732   24.3589   42.6058 H   0  0  0  0  0  0  0  0  0  0  0  0
   38.1010   24.2358   40.4814 H   0  0  0  0  0  0  0  0  0  0  0  0
   36.4394   23.7164   40.3618 H   0  0  0  0  0  0  0  0  0  0  0  0
   35.6579   26.1982   40.1597 H   0  0  0  0  0  0  0  0  0  0  0  0
   35.1232   27.8140   40.3410 H   0  0  0  0  0  0  0  0  0  0  0  0
   34.5602   30.2971   40.2922 H   0  0  0  0  0  0  0  0  0  0  0  0
   38.5120   31.1409   41.7157 H   0  0  0  0  0  0  0  0  0  0  0  0
   38.2044   26.0209   38.6617 H   0  0  0  0  0  0  0  0  0  0  0  0
   34.5365   26.5885   36.9090 H   0  0  0  0  0  0  0  0  0  0  0  0
  1  2  1  0
  3  2  1  0
  4  3  1  0
  5  4  1  0
  5  1  1  0
  6  1  1  0
  6 11  1  0
  7  6  2  0
  8  7  1  0
  8  9  2  0
  9 10  1  0
 10 11  2  0
 12  5  1  0
 13 12  1  0
 14 13  2  0
 15 13  1  0
  1 16  1  6
  2 17  1  0
  2 18  1  0
  3 19  1  0
  3 20  1  0
  4 21  1  0
  4 22  1  0
  5 23  1  6
  7 24  1  0
  8 25  1  0
 10 26  1  0
 12 27  1  0
 15 28  1  0
M  ISO  8  16  13  17  13  18  13  19  13  20  13  21  13  22  13  23  13
M  ISO  4  24  14  25  14  26  14  28   3
M  END
>  <minimizedAffinity>  (1) 
-3.79878163

>  <minimizedRMSD>  (1) 
0.375874162

$$$$
