
     RDKit          3D

 28 29  0  0  1  0  0  0  0  0999 V2000
   37.5370   26.7760   41.1700 C   0  0  1  0  0  0  0  0  0  0  0  0
   36.9970   26.1800   42.4970 C   0  0  0  0  0  0  0  0  0  0  0  0
   36.9930   24.7160   42.2090 C   0  0  0  0  0  0  0  0  0  0  0  0
   37.2650   24.5310   40.7280 C   0  0  0  0  0  0  0  0  0  0  0  0
   36.8690   25.9150   40.1860 C   0  0  2  0  0  0  0  0  0  0  0  0
   37.2160   28.1920   41.1220 C   0  0  0  0  0  0  0  0  0  0  0  0
   35.9110   28.5530   40.6750 C   0  0  0  0  0  0  0  0  0  0  0  0
   35.5460   29.9060   40.6110 C   0  0  0  0  0  0  0  0  0  0  0  0
   36.5030   30.8150   40.9950 N   0  0  0  0  0  0  0  0  0  0  0  0
   37.7260   30.4240   41.4120 C   0  0  0  0  0  0  0  0  0  0  0  0
   38.0930   29.1080   41.4780 N   0  0  0  0  0  0  0  0  0  0  0  0
   37.4430   26.0070   38.8540 N   0  0  0  0  0  0  0  0  0  0  0  0
   37.4590   24.6650   38.3070 C   0  0  0  0  0  0  0  0  0  0  0  0
   38.6251   26.7715   41.0085 H   0  0  0  0  0  0  0  0  0  0  0  0
   37.6617   26.4184   43.3404 H   0  0  0  0  0  0  0  0  0  0  0  0
   36.0125   26.5744   42.7888 H   0  0  0  0  0  0  0  0  0  0  0  0
   37.7767   24.2171   42.7980 H   0  0  0  0  0  0  0  0  0  0  0  0
   36.0217   24.2754   42.4780 H   0  0  0  0  0  0  0  0  0  0  0  0
   38.3252   24.3094   40.5359 H   0  0  0  0  0  0  0  0  0  0  0  0
   36.7249   23.6905   40.2677 H   0  0  0  0  0  0  0  0  0  0  0  0
   35.8007   26.1562   40.0837 H   0  0  0  0  0  0  0  0  0  0  0  0
   35.1929   27.7732   40.3813 H   0  0  0  0  0  0  0  0  0  0  0  0
   34.5485   30.2223   40.2720 H   0  0  0  0  0  0  0  0  0  0  0  0
   38.4546   31.1924   41.7098 H   0  0  0  0  0  0  0  0  0  0  0  0
   36.8676   26.6234   38.2625 H   0  0  0  0  0  0  0  0  0  0  0  0
   37.4677   23.9341   39.1290 H   0  0  0  0  0  0  0  0  0  0  0  0
   36.5626   24.5105   37.6884 H   0  0  0  0  0  0  0  0  0  0  0  0
   38.3588   24.5319   37.6884 H   0  0  0  0  0  0  0  0  0  0  0  0
  1  2  1  0
  3  2  1  0
  4  3  1  0
  5  4  1  0
  5  1  1  0
  6  1  1  0
  6 11  1  0
  7  6  2  0
  8  7  1  0
  8  9  2  0
  9 10  1  0
 10 11  2  0
 12  5  1  0
 13 12  1  0
  1 14  1  1
  2 15  1  0
  2 16  1  0
  3 17  1  0
  3 18  1  0
  4 19  1  0
  4 20  1  0
  5 21  1  6
  7 22  1  0
  8 23  1  0
 10 24  1  0
 12 25  1  0
 13 26  1  0
 13 27  1  0
 13 28  1  0
M  ISO  8  14  13  15  13  16  13  17  13  18  13  19  13  20  13  21  13
M  ISO  7  22  14  23  14  24  14  25   5  26   8  27   8  28   8
M  END
>  <minimizedAffinity>  (1) 
-3.55963874

>  <minimizedRMSD>  (1) 
0.219663292

$$$$
