
     RDKit          3D

 47 50  0  0  1  0  0  0  0  0999 V2000
   38.1090   28.6480   42.2690 C   0  0  1  0  0  0  0  0  0  0  0  0
   36.9320   28.6030   43.2960 C   0  0  0  0  0  0  0  0  0  0  0  0
   36.6550   27.1280   43.3710 C   0  0  0  0  0  0  0  0  0  0  0  0
   37.4900   26.4320   42.3240 C   0  0  0  0  0  0  0  0  0  0  0  0
   37.7490   27.6090   41.3160 C   0  0  2  0  0  0  0  0  0  0  0  0
   38.2680   29.9880   41.7740 C   0  0  0  0  0  0  0  0  0  0  0  0
   37.1060   30.5510   41.1520 C   0  0  0  0  0  0  0  0  0  0  0  0
   37.1710   31.8580   40.6440 C   0  0  0  0  0  0  0  0  0  0  0  0
   38.3890   32.5200   40.7900 N   0  0  0  0  0  0  0  0  0  0  0  0
   39.4380   31.9400   41.3810 C   0  0  0  0  0  0  0  0  0  0  0  0
   39.3960   30.6620   41.8840 N   0  0  0  0  0  0  0  0  0  0  0  0
   38.7970   27.1440   40.4880 N   0  0  0  0  0  0  0  0  0  0  0  0
   38.4390   27.1100   38.8210 S   0  0  0  0  0  0  0  0  0  0  0  0
   37.2430   26.2250   38.5500 O   0  0  0  0  0  0  0  0  0  0  0  0
   39.5710   26.6070   37.9950 O   0  0  0  0  0  0  0  0  0  0  0  0
   37.9550   28.7350   38.3040 C   0  0  0  0  0  0  0  0  0  0  0  0
   36.9580   28.7490   37.2120 C   0  0  0  0  0  0  0  0  0  0  0  0
   37.4660   28.6520   35.9090 C   0  0  0  0  0  0  0  0  0  0  0  0
   36.7170   28.6850   34.7500 C   0  0  0  0  0  0  0  0  0  0  0  0
   35.3510   28.8230   34.8780 C   0  0  0  0  0  0  0  0  0  0  0  0
   34.8180   28.9200   36.1400 C   0  0  0  0  0  0  0  0  0  0  0  0
   33.4520   29.0500   36.3570 C   0  0  0  0  0  0  0  0  0  0  0  0
   32.9190   29.1360   37.6330 C   0  0  0  0  0  0  0  0  0  0  0  0
   33.7260   29.0950   38.7460 C   0  0  0  0  0  0  0  0  0  0  0  0
   35.0890   28.9660   38.5700 C   0  0  0  0  0  0  0  0  0  0  0  0
   35.5880   28.8850   37.2930 C   0  0  0  0  0  0  0  0  0  0  0  0
   39.1161   28.4336   42.6562 H   0  0  0  0  0  0  0  0  0  0  0  0
   37.2364   29.0048   44.2737 H   0  0  0  0  0  0  0  0  0  0  0  0
   36.0607   29.2085   43.0059 H   0  0  0  0  0  0  0  0  0  0  0  0
   36.9209   26.7505   44.3694 H   0  0  0  0  0  0  0  0  0  0  0  0
   35.5870   26.9347   43.1922 H   0  0  0  0  0  0  0  0  0  0  0  0
   38.4301   26.0479   42.7467 H   0  0  0  0  0  0  0  0  0  0  0  0
   37.0116   25.5485   41.8762 H   0  0  0  0  0  0  0  0  0  0  0  0
   36.9594   27.9579   40.6343 H   0  0  0  0  0  0  0  0  0  0  0  0
   36.1768   29.9675   41.0738 H   0  0  0  0  0  0  0  0  0  0  0  0
   36.3073   32.3342   40.1569 H   0  0  0  0  0  0  0  0  0  0  0  0
   40.3748   32.5099   41.4685 H   0  0  0  0  0  0  0  0  0  0  0  0
   39.6111   27.7595   40.6273 H   0  0  0  0  0  0  0  0  0  0  0  0
   37.5259   29.2597   39.1703 H   0  0  0  0  0  0  0  0  0  0  0  0
   38.8588   29.2265   37.9147 H   0  0  0  0  0  0  0  0  0  0  0  0
   38.5549   28.5400   35.8009 H   0  0  0  0  0  0  0  0  0  0  0  0
   37.1921   28.6042   33.7612 H   0  0  0  0  0  0  0  0  0  0  0  0
   34.7030   28.8547   33.9897 H   0  0  0  0  0  0  0  0  0  0  0  0
   32.7744   29.0857   35.4912 H   0  0  0  0  0  0  0  0  0  0  0  0
   31.8310   29.2389   37.7581 H   0  0  0  0  0  0  0  0  0  0  0  0
   33.2942   29.1636   39.7554 H   0  0  0  0  0  0  0  0  0  0  0  0
   35.7640   28.9287   39.4377 H   0  0  0  0  0  0  0  0  0  0  0  0
  1  2  1  0
  2  3  1  0
  4  3  1  0
  5  1  1  0
  5  4  1  0
  6 11  1  0
  6  1  1  0
  7  6  2  0
  8  9  2  0
  8  7  1  0
  9 10  1  0
 10 11  2  0
 12  5  1  0
 13 12  1  0
 14 13  2  0
 15 13  2  0
 16 13  1  0
 17 26  1  0
 17 16  1  0
 18 17  2  0
 19 20  2  0
 19 18  1  0
 20 21  1  0
 21 22  1  0
 21 26  2  0
 22 23  2  0
 23 24  1  0
 25 24  2  0
 26 25  1  0
  1 27  1  1
  2 28  1  0
  2 29  1  0
  3 30  1  0
  3 31  1  0
  4 32  1  0
  4 33  1  0
  5 34  1  6
  7 35  1  0
  8 36  1  0
 10 37  1  0
 12 38  1  0
 16 39  1  0
 16 40  1  0
 18 41  1  0
 19 42  1  0
 20 43  1  0
 22 44  1  0
 23 45  1  0
 24 46  1  0
 25 47  1  0
M  ISO  8  27  13  28  13  29  13  30  13  31  13  32  13  33  13  34  13
M  ISO  8  35  14  36  14  37  14  38   5  39   8  40   8  41  14  42  14
M  ISO  5  43  14  44  14  45  14  46  14  47  14
M  END
>  <minimizedAffinity>  (1) 
-5.36143637

>  <minimizedRMSD>  (1) 
3.51027727

$$$$
