
     RDKit          3D

 45 48  0  0  1  0  0  0  0  0999 V2000
   37.8700   26.5720   41.4680 C   0  0  1  0  0  0  0  0  0  0  0  0
   37.0320   25.6830   42.4330 C   0  0  0  0  0  0  0  0  0  0  0  0
   37.5950   24.3160   42.1590 C   0  0  0  0  0  0  0  0  0  0  0  0
   38.5650   24.4240   41.0150 C   0  0  0  0  0  0  0  0  0  0  0  0
   38.0480   25.7200   40.3030 C   0  0  2  0  0  0  0  0  0  0  0  0
   37.2160   27.8380   41.2820 C   0  0  0  0  0  0  0  0  0  0  0  0
   36.2120   27.8660   40.2540 C   0  0  0  0  0  0  0  0  0  0  0  0
   35.5250   29.0680   40.0160 C   0  0  0  0  0  0  0  0  0  0  0  0
   35.8800   30.1580   40.8150 N   0  0  0  0  0  0  0  0  0  0  0  0
   36.8240   30.0680   41.7570 C   0  0  0  0  0  0  0  0  0  0  0  0
   37.5120   28.9040   42.0090 N   0  0  0  0  0  0  0  0  0  0  0  0
   39.0850   26.0930   39.4180 N   0  0  0  0  0  0  0  0  0  0  0  0
   38.8070   25.6710   37.7870 S   0  0  0  0  0  0  0  0  0  0  0  0
   37.3520   25.5870   37.4770 O   0  0  0  0  0  0  0  0  0  0  0  0
   39.4740   24.3940   37.4040 O   0  0  0  0  0  0  0  0  0  0  0  0
   39.4610   27.0060   36.7790 C   0  0  0  0  0  0  0  0  0  0  0  0
   38.4610   28.0410   36.4920 C   0  0  0  0  0  0  0  0  0  0  0  0
   37.5260   27.9920   35.5050 N   0  0  0  0  0  0  0  0  0  0  0  0
   36.6480   28.9690   35.2730 C   0  0  0  0  0  0  0  0  0  0  0  0
   36.5940   30.1200   36.0000 N   0  0  0  0  0  0  0  0  0  0  0  0
   37.5060   30.2320   37.0090 C   0  0  0  0  0  0  0  0  0  0  0  0
   37.4700   31.3830   37.7630 C   0  0  0  0  0  0  0  0  0  0  0  0
   38.3550   31.5610   38.7990 C   0  0  0  0  0  0  0  0  0  0  0  0
   39.2660   30.5760   39.0600 C   0  0  0  0  0  0  0  0  0  0  0  0
   39.2620   29.4410   38.2750 C   0  0  0  0  0  0  0  0  0  0  0  0
   38.3980   29.2090   37.2230 C   0  0  0  0  0  0  0  0  0  0  0  0
   38.8628   26.8865   41.8222 H   0  0  0  0  0  0  0  0  0  0  0  0
   37.1850   25.9762   43.4821 H   0  0  0  0  0  0  0  0  0  0  0  0
   35.9457   25.7569   42.2764 H   0  0  0  0  0  0  0  0  0  0  0  0
   38.1151   23.9421   43.0533 H   0  0  0  0  0  0  0  0  0  0  0  0
   36.7848   23.6173   41.9035 H   0  0  0  0  0  0  0  0  0  0  0  0
   39.5984   24.5446   41.3721 H   0  0  0  0  0  0  0  0  0  0  0  0
   38.6016   23.5357   40.3673 H   0  0  0  0  0  0  0  0  0  0  0  0
   37.1338   25.6982   39.6917 H   0  0  0  0  0  0  0  0  0  0  0  0
   35.9861   26.9645   39.6655 H   0  0  0  0  0  0  0  0  0  0  0  0
   34.7482   29.1470   39.2412 H   0  0  0  0  0  0  0  0  0  0  0  0
   37.0601   30.9607   42.3547 H   0  0  0  0  0  0  0  0  0  0  0  0
   39.2015   27.1150   39.4709 H   0  0  0  0  0  0  0  0  0  0  0  0
   40.3040   27.4694   37.3126 H   0  0  0  0  0  0  0  0  0  0  0  0
   39.7764   26.5731   35.8182 H   0  0  0  0  0  0  0  0  0  0  0  0
   35.9291   28.8384   34.4507 H   0  0  0  0  0  0  0  0  0  0  0  0
   36.7295   32.1638   37.5352 H   0  0  0  0  0  0  0  0  0  0  0  0
   38.3308   32.4779   39.4062 H   0  0  0  0  0  0  0  0  0  0  0  0
   39.9895   30.6860   39.8812 H   0  0  0  0  0  0  0  0  0  0  0  0
   40.0036   28.6617   38.5048 H   0  0  0  0  0  0  0  0  0  0  0  0
  1  2  1  0
  3  2  1  0
  4  3  1  0
  5  4  1  0
  5  1  1  0
  6  1  1  0
  6 11  1  0
  7  6  2  0
  8  7  1  0
  8  9  2  0
  9 10  1  0
 10 11  2  0
 12  5  1  0
 13 12  1  0
 14 13  2  0
 15 13  2  0
 16 13  1  0
 17 16  1  0
 17 26  1  0
 18 17  2  0
 19 18  1  0
 19 20  2  0
 20 21  1  0
 21 26  2  0
 21 22  1  0
 22 23  2  0
 23 24  1  0
 25 24  2  0
 26 25  1  0
  1 27  1  1
  2 28  1  0
  2 29  1  0
  3 30  1  0
  3 31  1  0
  4 32  1  0
  4 33  1  0
  5 34  1  6
  7 35  1  0
  8 36  1  0
 10 37  1  0
 12 38  1  0
 16 39  1  0
 16 40  1  0
 19 41  1  0
 22 42  1  0
 23 43  1  0
 24 44  1  0
 25 45  1  0
M  ISO  8  27  13  28  13  29  13  30  13  31  13  32  13  33  13  34  13
M  ISO  8  35  14  36  14  37  14  38   5  39   8  40   8  41  14  42  14
M  ISO  3  43  14  44  14  45  14
M  END
>  <minimizedAffinity>  (1) 
-4.84555769

>  <minimizedRMSD>  (1) 
3.2945683

$$$$
