
     RDKit          3D

 44 46  0  0  1  0  0  0  0  0999 V2000
   37.5960   26.8240   41.0720 C   0  0  1  0  0  0  0  0  0  0  0  0
   37.0730   26.2300   42.4130 C   0  0  0  0  0  0  0  0  0  0  0  0
   36.8070   24.7970   42.0340 C   0  0  0  0  0  0  0  0  0  0  0  0
   37.0360   24.6550   40.5470 C   0  0  0  0  0  0  0  0  0  0  0  0
   36.7980   26.1320   40.0710 C   0  0  2  0  0  0  0  0  0  0  0  0
   37.5250   28.2580   41.1180 C   0  0  0  0  0  0  0  0  0  0  0  0
   36.2090   28.8090   40.9660 C   0  0  0  0  0  0  0  0  0  0  0  0
   36.0440   30.2030   41.0010 C   0  0  0  0  0  0  0  0  0  0  0  0
   37.2000   30.9570   41.1850 N   0  0  0  0  0  0  0  0  0  0  0  0
   38.4120   30.3830   41.3240 C   0  0  0  0  0  0  0  0  0  0  0  0
   38.5840   29.0230   41.2910 N   0  0  0  0  0  0  0  0  0  0  0  0
   37.3080   26.1680   38.7490 N   0  0  0  0  0  0  0  0  0  0  0  0
   36.1390   26.4790   37.5480 S   0  0  0  0  0  0  0  0  0  0  0  0
   35.0050   27.2880   38.0820 O   0  0  0  0  0  0  0  0  0  0  0  0
   35.5770   25.2180   36.9640 O   0  0  0  0  0  0  0  0  0  0  0  0
   36.8960   27.4190   36.2510 C   0  0  0  0  0  0  0  0  0  0  0  0
   37.7160   28.4970   36.7540 N   0  0  0  0  0  0  0  0  0  0  0  0
   37.1560   29.6740   37.0940 C   0  0  0  0  0  0  0  0  0  0  0  0
   38.0230   30.6430   37.5640 C   0  0  0  0  0  0  0  0  0  0  0  0
   37.4090   31.9460   37.9410 C   0  0  0  0  0  0  0  0  0  0  0  0
   39.3890   30.4880   37.7050 C   0  0  0  0  0  0  0  0  0  0  0  0
   40.1070   31.4250   38.1430 O   0  0  0  0  0  0  0  0  0  0  0  0
   39.8480   29.2710   37.3370 N   0  0  0  0  0  0  0  0  0  0  0  0
   39.0410   28.3000   36.8740 C   0  0  0  0  0  0  0  0  0  0  0  0
   39.5130   27.1810   36.5430 O   0  0  0  0  0  0  0  0  0  0  0  0
   38.6588   26.6632   40.8382 H   0  0  0  0  0  0  0  0  0  0  0  0
   37.8330   26.3001   43.2052 H   0  0  0  0  0  0  0  0  0  0  0  0
   36.1946   26.7532   42.8188 H   0  0  0  0  0  0  0  0  0  0  0  0
   37.4918   24.1330   42.5819 H   0  0  0  0  0  0  0  0  0  0  0  0
   35.7732   24.5208   42.2887 H   0  0  0  0  0  0  0  0  0  0  0  0
   38.0594   24.3180   40.3253 H   0  0  0  0  0  0  0  0  0  0  0  0
   36.3937   23.9090   40.0562 H   0  0  0  0  0  0  0  0  0  0  0  0
   35.7833   26.5531   40.0151 H   0  0  0  0  0  0  0  0  0  0  0  0
   35.3410   28.1483   40.8240 H   0  0  0  0  0  0  0  0  0  0  0  0
   35.0560   30.6734   40.8892 H   0  0  0  0  0  0  0  0  0  0  0  0
   39.2920   31.0270   41.4687 H   0  0  0  0  0  0  0  0  0  0  0  0
   38.0236   26.9072   38.7004 H   0  0  0  0  0  0  0  0  0  0  0  0
   36.1049   27.8444   35.6160 H   0  0  0  0  0  0  0  0  0  0  0  0
   37.5490   26.7395   35.6836 H   0  0  0  0  0  0  0  0  0  0  0  0
   36.0745   29.8533   37.0032 H   0  0  0  0  0  0  0  0  0  0  0  0
   37.3697   32.0293   39.0371 H   0  0  0  0  0  0  0  0  0  0  0  0
   38.0143   32.7685   37.5322 H   0  0  0  0  0  0  0  0  0  0  0  0
   36.3894   32.0028   37.5322 H   0  0  0  0  0  0  0  0  0  0  0  0
   40.8571   29.0796   37.4144 H   0  0  0  0  0  0  0  0  0  0  0  0
  1  6  1  0
  1  2  1  0
  3  2  1  0
  4  3  1  0
  5  4  1  0
  5  1  1  0
  6 11  2  0
  7  8  2  0
  7  6  1  0
  8  9  1  0
  9 10  2  0
 11 10  1  0
 12  5  1  0
 13 14  2  0
 13 12  1  0
 15 13  2  0
 16 17  1  0
 16 13  1  0
 17 24  1  0
 17 18  1  0
 18 19  2  0
 19 21  1  0
 19 20  1  0
 21 22  2  0
 23 21  1  0
 24 23  1  0
 25 24  2  0
  1 26  1  6
  2 27  1  0
  2 28  1  0
  3 29  1  0
  3 30  1  0
  4 31  1  0
  4 32  1  0
  5 33  1  6
  7 34  1  0
  8 35  1  0
 10 36  1  0
 12 37  1  0
 16 38  1  0
 16 39  1  0
 18 40  1  0
 20 41  1  0
 20 42  1  0
 20 43  1  0
 23 44  1  0
M  ISO  8  26  13  27  13  28  13  29  13  30  13  31  13  32  13  33  13
M  ISO  8  34  14  35  14  36  14  37   5  38   8  39   8  40  14  41   8
M  ISO  3  42   8  43   8  44   9
M  END
>  <minimizedAffinity>  (1) 
-4.81131077

>  <minimizedRMSD>  (1) 
0.872505307

$$$$
