
     RDKit          3D

 41 43  0  0  1  0  0  0  0  0999 V2000
   37.5400   26.8810   41.0690 C   0  0  1  0  0  0  0  0  0  0  0  0
   37.0090   26.2640   42.4040 C   0  0  0  0  0  0  0  0  0  0  0  0
   37.0390   24.7900   42.0840 C   0  0  0  0  0  0  0  0  0  0  0  0
   37.3470   24.6320   40.6180 C   0  0  0  0  0  0  0  0  0  0  0  0
   36.9360   26.0340   40.0560 C   0  0  2  0  0  0  0  0  0  0  0  0
   37.2460   28.2880   41.0360 C   0  0  0  0  0  0  0  0  0  0  0  0
   35.8940   28.6210   40.6960 C   0  0  0  0  0  0  0  0  0  0  0  0
   35.5200   29.9740   40.6450 C   0  0  0  0  0  0  0  0  0  0  0  0
   36.5140   30.9070   40.9350 N   0  0  0  0  0  0  0  0  0  0  0  0
   37.7670   30.5270   41.2490 C   0  0  0  0  0  0  0  0  0  0  0  0
   38.1460   29.2120   41.3040 N   0  0  0  0  0  0  0  0  0  0  0  0
   37.5000   26.0920   38.7670 N   0  0  0  0  0  0  0  0  0  0  0  0
   36.3830   26.0260   37.4840 S   0  0  0  0  0  0  0  0  0  0  0  0
   35.0370   26.5350   37.8980 O   0  0  0  0  0  0  0  0  0  0  0  0
   36.2170   24.6380   36.9470 O   0  0  0  0  0  0  0  0  0  0  0  0
   36.9630   27.0830   36.1800 C   0  0  0  0  0  0  0  0  0  0  0  0
   37.4540   28.3580   36.6800 N   0  0  0  0  0  0  0  0  0  0  0  0
   36.6530   29.4270   36.9650 C   0  0  0  0  0  0  0  0  0  0  0  0
   37.2260   30.5800   37.4310 C   0  0  0  0  0  0  0  0  0  0  0  0
   38.5790   30.7450   37.6380 C   0  0  0  0  0  0  0  0  0  0  0  0
   39.0560   31.8220   38.0670 O   0  0  0  0  0  0  0  0  0  0  0  0
   39.3400   29.6550   37.3410 N   0  0  0  0  0  0  0  0  0  0  0  0
   38.7780   28.5150   36.8810 C   0  0  0  0  0  0  0  0  0  0  0  0
   39.5910   27.5840   36.6470 O   0  0  0  0  0  0  0  0  0  0  0  0
   38.6296   26.8802   40.9178 H   0  0  0  0  0  0  0  0  0  0  0  0
   37.6698   26.5056   43.2496 H   0  0  0  0  0  0  0  0  0  0  0  0
   36.0206   26.6375   42.7099 H   0  0  0  0  0  0  0  0  0  0  0  0
   37.8172   24.2948   42.6833 H   0  0  0  0  0  0  0  0  0  0  0  0
   36.0677   24.3306   42.3195 H   0  0  0  0  0  0  0  0  0  0  0  0
   38.4156   24.4307   40.4520 H   0  0  0  0  0  0  0  0  0  0  0  0
   36.8267   23.7888   40.1402 H   0  0  0  0  0  0  0  0  0  0  0  0
   35.8777   26.2999   39.9174 H   0  0  0  0  0  0  0  0  0  0  0  0
   35.1612   27.8299   40.4786 H   0  0  0  0  0  0  0  0  0  0  0  0
   34.4952   30.2814   40.3893 H   0  0  0  0  0  0  0  0  0  0  0  0
   38.5151   31.3026   41.4699 H   0  0  0  0  0  0  0  0  0  0  0  0
   38.0244   26.9750   38.6880 H   0  0  0  0  0  0  0  0  0  0  0  0
   36.1336   27.2722   35.4827 H   0  0  0  0  0  0  0  0  0  0  0  0
   37.7996   26.5728   35.6802 H   0  0  0  0  0  0  0  0  0  0  0  0
   35.5642   29.3626   36.8223 H   0  0  0  0  0  0  0  0  0  0  0  0
   36.5640   31.4295   37.6547 H   0  0  0  0  0  0  0  0  0  0  0  0
   40.3610   29.7002   37.4691 H   0  0  0  0  0  0  0  0  0  0  0  0
  1  2  1  0
  3  2  1  0
  4  3  1  0
  5  4  1  0
  5  1  1  0
  6  1  1  0
  6 11  1  0
  7  6  2  0
  8  7  1  0
  8  9  2  0
  9 10  1  0
 10 11  2  0
 12  5  1  0
 13 14  2  0
 13 12  1  0
 15 13  2  0
 16 17  1  0
 16 13  1  0
 17 23  1  0
 17 18  1  0
 18 19  2  0
 19 20  1  0
 20 21  2  0
 22 20  1  0
 23 22  1  0
 24 23  2  0
  1 25  1  1
  2 26  1  0
  2 27  1  0
  3 28  1  0
  3 29  1  0
  4 30  1  0
  4 31  1  0
  5 32  1  6
  7 33  1  0
  8 34  1  0
 10 35  1  0
 12 36  1  0
 16 37  1  0
 16 38  1  0
 18 39  1  0
 19 40  1  0
 22 41  1  0
M  ISO  8  25  13  26  13  27  13  28  13  29  13  30  13  31  13  32  13
M  ISO  8  33  14  34  14  35  14  36   5  37   8  38   8  39  14  40  14
M  ISO  1  41   9
M  END
>  <minimizedAffinity>  (1) 
-4.70219088

>  <minimizedRMSD>  (1) 
3.3706677

$$$$
