
     RDKit          3D

 44 46  0  0  1  0  0  0  0  0999 V2000
   37.8680   27.1250   41.3300 C   0  0  1  0  0  0  0  0  0  0  0  0
   37.0200   26.6270   42.5380 C   0  0  0  0  0  0  0  0  0  0  0  0
   36.9230   25.1480   42.2640 C   0  0  0  0  0  0  0  0  0  0  0  0
   37.5630   24.8810   40.9230 C   0  0  0  0  0  0  0  0  0  0  0  0
   37.4140   26.2810   40.2350 C   0  0  2  0  0  0  0  0  0  0  0  0
   37.7240   28.5490   41.1900 C   0  0  0  0  0  0  0  0  0  0  0  0
   36.3720   29.0320   41.2150 C   0  0  0  0  0  0  0  0  0  0  0  0
   36.1390   30.4100   41.0880 C   0  0  0  0  0  0  0  0  0  0  0  0
   37.2650   31.2200   40.9460 N   0  0  0  0  0  0  0  0  0  0  0  0
   38.5130   30.7060   40.9300 C   0  0  0  0  0  0  0  0  0  0  0  0
   38.7480   29.3630   41.0530 N   0  0  0  0  0  0  0  0  0  0  0  0
   38.2520   26.2280   39.1030 N   0  0  0  0  0  0  0  0  0  0  0  0
   37.5060   26.6680   37.6370 S   0  0  0  0  0  0  0  0  0  0  0  0
   36.1510   26.0510   37.5000 O   0  0  0  0  0  0  0  0  0  0  0  0
   38.3260   26.2870   36.4450 O   0  0  0  0  0  0  0  0  0  0  0  0
   37.2840   28.4290   37.6300 C   0  0  0  0  0  0  0  0  0  0  0  0
   36.1260   28.8890   36.9690 N   0  0  0  0  0  0  0  0  0  0  0  0
   35.0000   29.2530   37.7180 C   0  0  0  0  0  0  0  0  0  0  0  0
   33.7870   28.5120   37.1370 C   0  0  0  0  0  0  0  0  0  0  0  0
   33.6100   29.0990   35.7640 C   0  0  0  0  0  0  0  0  0  0  0  0
   34.7970   28.8390   34.8850 C   0  0  0  0  0  0  0  0  0  0  0  0
   36.1150   28.9020   35.5720 C   0  0  0  0  0  0  0  0  0  0  0  0
   38.9598   27.0217   41.4149 H   0  0  0  0  0  0  0  0  0  0  0  0
   37.5299   26.8241   43.4926 H   0  0  0  0  0  0  0  0  0  0  0  0
   36.0440   27.1259   42.6306 H   0  0  0  0  0  0  0  0  0  0  0  0
   37.4518   24.5871   43.0487 H   0  0  0  0  0  0  0  0  0  0  0  0
   35.8706   24.8281   42.2565 H   0  0  0  0  0  0  0  0  0  0  0  0
   38.6195   24.5940   41.0298 H   0  0  0  0  0  0  0  0  0  0  0  0
   37.1099   24.0502   40.3622 H   0  0  0  0  0  0  0  0  0  0  0  0
   36.4391   26.6226   39.8570 H   0  0  0  0  0  0  0  0  0  0  0  0
   35.5314   28.3322   41.3320 H   0  0  0  0  0  0  0  0  0  0  0  0
   35.1220   30.8289   41.0998 H   0  0  0  0  0  0  0  0  0  0  0  0
   39.3684   31.3879   40.8145 H   0  0  0  0  0  0  0  0  0  0  0  0
   39.0453   26.8654   39.2621 H   0  0  0  0  0  0  0  0  0  0  0  0
   37.2365   28.7695   38.6749 H   0  0  0  0  0  0  0  0  0  0  0  0
   38.1368   28.8403   37.0701 H   0  0  0  0  0  0  0  0  0  0  0  0
   35.1432   28.9678   38.7707 H   0  0  0  0  0  0  0  0  0  0  0  0
   34.8434   30.3408   37.6704 H   0  0  0  0  0  0  0  0  0  0  0  0
   33.9841   27.4316   37.0756 H   0  0  0  0  0  0  0  0  0  0  0  0
   32.8881   28.6274   37.7605 H   0  0  0  0  0  0  0  0  0  0  0  0
   32.7189   28.6523   35.2989 H   0  0  0  0  0  0  0  0  0  0  0  0
   33.4987   30.1881   35.8716 H   0  0  0  0  0  0  0  0  0  0  0  0
   34.7002   28.6181   33.8118 H   0  0  0  0  0  0  0  0  0  0  0  0
   37.0517   28.9571   34.9980 H   0  0  0  0  0  0  0  0  0  0  0  0
  1  2  1  0
  3  2  1  0
  4  3  1  0
  5  4  1  0
  5  1  1  0
  6  7  2  0
  6  1  1  0
  8  7  1  0
  9  8  2  0
 10  9  1  0
 10 11  2  0
 11  6  1  0
 12  5  1  0
 13 12  1  0
 14 13  2  0
 15 13  2  0
 16 13  1  0
 17 16  1  0
 17 18  1  0
 19 18  1  0
 20 19  1  0
 21 22  2  0
 21 20  1  0
 22 17  1  0
  1 23  1  1
  2 24  1  0
  2 25  1  0
  3 26  1  0
  3 27  1  0
  4 28  1  0
  4 29  1  0
  5 30  1  6
  7 31  1  0
  8 32  1  0
 10 33  1  0
 12 34  1  0
 16 35  1  0
 16 36  1  0
 18 37  1  0
 18 38  1  0
 19 39  1  0
 19 40  1  0
 20 41  1  0
 20 42  1  0
 21 43  1  0
 22 44  1  0
M  ISO  8  23  13  24  13  25  13  26  13  27  13  28  13  29  13  30  13
M  ISO  8  31  14  32  14  33  14  34   5  35   8  36   8  37  13  38  13
M  ISO  6  39  13  40  13  41  13  42  13  43  13  44  13
M  END
>  <minimizedAffinity>  (1) 
-4.21097946

>  <minimizedRMSD>  (1) 
2.19225717

$$$$
