
     RDKit          3D

 44 46  0  0  1  0  0  0  0  0999 V2000
   37.5430   26.7980   41.1960 C   0  0  1  0  0  0  0  0  0  0  0  0
   36.9490   26.1840   42.5040 C   0  0  0  0  0  0  0  0  0  0  0  0
   36.9950   24.7080   42.1890 C   0  0  0  0  0  0  0  0  0  0  0  0
   37.3930   24.5450   40.7440 C   0  0  0  0  0  0  0  0  0  0  0  0
   36.9870   25.9380   40.1590 C   0  0  2  0  0  0  0  0  0  0  0  0
   37.2280   28.2050   41.1420 C   0  0  0  0  0  0  0  0  0  0  0  0
   35.9080   28.5230   40.6730 C   0  0  0  0  0  0  0  0  0  0  0  0
   35.5410   29.8780   40.5970 C   0  0  0  0  0  0  0  0  0  0  0  0
   36.4930   30.8160   40.9880 N   0  0  0  0  0  0  0  0  0  0  0  0
   37.7030   30.4410   41.4150 C   0  0  0  0  0  0  0  0  0  0  0  0
   38.1050   29.1300   41.5040 N   0  0  0  0  0  0  0  0  0  0  0  0
   37.6340   26.0110   38.9000 N   0  0  0  0  0  0  0  0  0  0  0  0
   36.6220   25.6980   37.5610 S   0  0  0  0  0  0  0  0  0  0  0  0
   35.1870   25.6820   37.9570 O   0  0  0  0  0  0  0  0  0  0  0  0
   36.9620   24.4100   36.8830 O   0  0  0  0  0  0  0  0  0  0  0  0
   36.8370   27.0330   36.4040 C   0  0  0  0  0  0  0  0  0  0  0  0
   35.6420   27.7530   36.1090 N   0  0  0  0  0  0  0  0  0  0  0  0
   35.7930   28.2650   34.7370 C   0  0  0  0  0  0  0  0  0  0  0  0
   35.9390   29.7500   34.7200 C   0  0  0  0  0  0  0  0  0  0  0  0
   36.8170   30.2520   35.6680 O   0  0  0  0  0  0  0  0  0  0  0  0
   36.5970   29.8270   36.9530 C   0  0  0  0  0  0  0  0  0  0  0  0
   35.4020   28.8880   36.9590 C   0  0  0  0  0  0  0  0  0  0  0  0
   38.6385   26.8069   41.0973 H   0  0  0  0  0  0  0  0  0  0  0  0
   37.5681   26.4278   43.3800 H   0  0  0  0  0  0  0  0  0  0  0  0
   35.9468   26.5576   42.7609 H   0  0  0  0  0  0  0  0  0  0  0  0
   37.7333   24.2122   42.8364 H   0  0  0  0  0  0  0  0  0  0  0  0
   36.0095   24.2519   42.3647 H   0  0  0  0  0  0  0  0  0  0  0  0
   38.4731   24.3637   40.6412 H   0  0  0  0  0  0  0  0  0  0  0  0
   36.9221   23.6884   40.2395 H   0  0  0  0  0  0  0  0  0  0  0  0
   35.9303   26.1776   39.9691 H   0  0  0  0  0  0  0  0  0  0  0  0
   35.2045   27.7291   40.3817 H   0  0  0  0  0  0  0  0  0  0  0  0
   34.5451   30.1839   40.2440 H   0  0  0  0  0  0  0  0  0  0  0  0
   38.4158   31.2247   41.7113 H   0  0  0  0  0  0  0  0  0  0  0  0
   38.0236   26.9585   38.7936 H   0  0  0  0  0  0  0  0  0  0  0  0
   37.5691   27.7383   36.8242 H   0  0  0  0  0  0  0  0  0  0  0  0
   37.1726   26.5799   35.4595 H   0  0  0  0  0  0  0  0  0  0  0  0
   36.6872   27.8128   34.2832 H   0  0  0  0  0  0  0  0  0  0  0  0
   34.8890   28.0007   34.1687 H   0  0  0  0  0  0  0  0  0  0  0  0
   36.3004   30.0484   33.7248 H   0  0  0  0  0  0  0  0  0  0  0  0
   34.9488   30.1646   34.9600 H   0  0  0  0  0  0  0  0  0  0  0  0
   37.4862   29.2966   37.3246 H   0  0  0  0  0  0  0  0  0  0  0  0
   36.3975   30.6909   37.6040 H   0  0  0  0  0  0  0  0  0  0  0  0
   34.5157   29.4294   36.5965 H   0  0  0  0  0  0  0  0  0  0  0  0
   35.2381   28.5314   37.9866 H   0  0  0  0  0  0  0  0  0  0  0  0
  1  2  1  0
  3  2  1  0
  4  3  1  0
  5  4  1  0
  5  1  1  0
  6  1  1  0
  6 11  1  0
  7  6  2  0
  8  7  1  0
  8  9  2  0
  9 10  1  0
 10 11  2  0
 12  5  1  0
 13 14  2  0
 13 12  1  0
 15 13  2  0
 16 13  1  0
 17 16  1  0
 17 22  1  0
 18 17  1  0
 19 18  1  0
 19 20  1  0
 20 21  1  0
 21 22  1  0
  1 23  1  1
  2 24  1  0
  2 25  1  0
  3 26  1  0
  3 27  1  0
  4 28  1  0
  4 29  1  0
  5 30  1  6
  7 31  1  0
  8 32  1  0
 10 33  1  0
 12 34  1  0
 16 35  1  0
 16 36  1  0
 18 37  1  0
 18 38  1  0
 19 39  1  0
 19 40  1  0
 21 41  1  0
 21 42  1  0
 22 43  1  0
 22 44  1  0
M  ISO  8  23  13  24  13  25  13  26  13  27  13  28  13  29  13  30  13
M  ISO  8  31  14  32  14  33  14  34   5  35   8  36   8  37  13  38  13
M  ISO  6  39  13  40  13  41  13  42  13  43  13  44  13
M  END
>  <minimizedAffinity>  (1) 
-4.18704367

>  <minimizedRMSD>  (1) 
1.20084441

$$$$
