
     RDKit          3D

 43 45  0  0  1  0  0  0  0  0999 V2000
   37.5350   26.7890   41.2660 C   0  0  1  0  0  0  0  0  0  0  0  0
   36.9160   26.1920   42.5720 C   0  0  0  0  0  0  0  0  0  0  0  0
   36.9380   24.7200   42.2800 C   0  0  0  0  0  0  0  0  0  0  0  0
   37.4050   24.5250   40.8570 C   0  0  0  0  0  0  0  0  0  0  0  0
   37.0100   25.9030   40.2330 C   0  0  2  0  0  0  0  0  0  0  0  0
   37.2160   28.1890   41.1790 C   0  0  0  0  0  0  0  0  0  0  0  0
   35.9090   28.5000   40.6830 C   0  0  0  0  0  0  0  0  0  0  0  0
   35.5330   29.8470   40.5750 C   0  0  0  0  0  0  0  0  0  0  0  0
   36.4810   30.7930   40.9660 N   0  0  0  0  0  0  0  0  0  0  0  0
   37.6970   30.4350   41.4250 C   0  0  0  0  0  0  0  0  0  0  0  0
   38.0890   29.1210   41.5400 N   0  0  0  0  0  0  0  0  0  0  0  0
   37.6790   25.9540   38.9860 N   0  0  0  0  0  0  0  0  0  0  0  0
   36.6490   26.0020   37.6260 S   0  0  0  0  0  0  0  0  0  0  0  0
   35.2650   25.5550   37.9720 O   0  0  0  0  0  0  0  0  0  0  0  0
   37.1640   25.1770   36.4940 O   0  0  0  0  0  0  0  0  0  0  0  0
   36.5290   27.6960   37.0990 C   0  0  0  0  0  0  0  0  0  0  0  0
   36.1220   27.8550   35.7410 N   0  0  0  0  0  0  0  0  0  0  0  0
   34.7330   28.0580   35.5140 C   0  0  0  0  0  0  0  0  0  0  0  0
   34.5520   29.3860   34.8410 C   0  0  0  0  0  0  0  0  0  0  0  0
   35.9220   29.7500   34.3310 C   0  0  0  0  0  0  0  0  0  0  0  0
   36.8860   28.7970   34.9940 C   0  0  0  0  0  0  0  0  0  0  0  0
   38.6323   26.8069   41.1913 H   0  0  0  0  0  0  0  0  0  0  0  0
   37.5291   26.4345   43.4525 H   0  0  0  0  0  0  0  0  0  0  0  0
   35.9156   26.5833   42.8090 H   0  0  0  0  0  0  0  0  0  0  0  0
   37.6288   24.2142   42.9706 H   0  0  0  0  0  0  0  0  0  0  0  0
   35.9327   24.2930   42.4105 H   0  0  0  0  0  0  0  0  0  0  0  0
   38.4903   24.3529   40.8062 H   0  0  0  0  0  0  0  0  0  0  0  0
   36.9706   23.6515   40.3488 H   0  0  0  0  0  0  0  0  0  0  0  0
   35.9572   26.1339   40.0131 H   0  0  0  0  0  0  0  0  0  0  0  0
   35.2138   27.6985   40.3925 H   0  0  0  0  0  0  0  0  0  0  0  0
   34.5415   30.1424   40.2012 H   0  0  0  0  0  0  0  0  0  0  0  0
   38.4039   31.2247   41.7193 H   0  0  0  0  0  0  0  0  0  0  0  0
   38.2682   26.7987   38.9723 H   0  0  0  0  0  0  0  0  0  0  0  0
   35.7966   28.2068   37.7414 H   0  0  0  0  0  0  0  0  0  0  0  0
   37.5380   28.1264   37.1807 H   0  0  0  0  0  0  0  0  0  0  0  0
   34.3413   27.2580   34.8685 H   0  0  0  0  0  0  0  0  0  0  0  0
   34.1877   28.0411   36.4692 H   0  0  0  0  0  0  0  0  0  0  0  0
   33.8379   29.3041   34.0083 H   0  0  0  0  0  0  0  0  0  0  0  0
   34.1487   30.1465   35.5258 H   0  0  0  0  0  0  0  0  0  0  0  0
   35.9645   29.6359   33.2378 H   0  0  0  0  0  0  0  0  0  0  0  0
   36.1705   30.7963   34.5623 H   0  0  0  0  0  0  0  0  0  0  0  0
   37.4809   28.2748   34.2302 H   0  0  0  0  0  0  0  0  0  0  0  0
   37.5742   29.3443   35.6550 H   0  0  0  0  0  0  0  0  0  0  0  0
  1  2  1  0
  3  2  1  0
  4  3  1  0
  5  4  1  0
  5  1  1  0
  6  1  1  0
  6 11  1  0
  7  6  2  0
  8  7  1  0
  8  9  2  0
  9 10  1  0
 10 11  2  0
 12  5  1  0
 13 14  2  0
 13 12  1  0
 15 13  2  0
 16 13  1  0
 17 16  1  0
 18 17  1  0
 19 18  1  0
 20 19  1  0
 20 21  1  0
 21 17  1  0
  1 22  1  1
  2 23  1  0
  2 24  1  0
  3 25  1  0
  3 26  1  0
  4 27  1  0
  4 28  1  0
  5 29  1  6
  7 30  1  0
  8 31  1  0
 10 32  1  0
 12 33  1  0
 16 34  1  0
 16 35  1  0
 18 36  1  0
 18 37  1  0
 19 38  1  0
 19 39  1  0
 20 40  1  0
 20 41  1  0
 21 42  1  0
 21 43  1  0
M  ISO  8  22  13  23  13  24  13  25  13  26  13  27  13  28  13  29  13
M  ISO  8  30  14  31  14  32  14  33   5  34   8  35   8  36  13  37  13
M  ISO  6  38  13  39  13  40  13  41  13  42  13  43  13
M  END
>  <minimizedAffinity>  (1) 
-4.0994854

>  <minimizedRMSD>  (1) 
1.02013791

$$$$
