
     RDKit          3D

 44 46  0  0  1  0  0  0  0  0999 V2000
   37.5150   26.7980   41.3070 C   0  0  1  0  0  0  0  0  0  0  0  0
   36.9010   26.2250   42.6250 C   0  0  0  0  0  0  0  0  0  0  0  0
   36.9320   24.7380   42.3570 C   0  0  0  0  0  0  0  0  0  0  0  0
   37.3660   24.5280   40.9320 C   0  0  0  0  0  0  0  0  0  0  0  0
   36.9790   25.9010   40.2910 C   0  0  2  0  0  0  0  0  0  0  0  0
   37.2130   28.1980   41.2020 C   0  0  0  0  0  0  0  0  0  0  0  0
   35.9120   28.5100   40.6860 C   0  0  0  0  0  0  0  0  0  0  0  0
   35.5370   29.8560   40.5550 C   0  0  0  0  0  0  0  0  0  0  0  0
   36.4800   30.8040   40.9470 N   0  0  0  0  0  0  0  0  0  0  0  0
   37.6900   30.4490   41.4260 C   0  0  0  0  0  0  0  0  0  0  0  0
   38.0700   29.1350   41.5580 N   0  0  0  0  0  0  0  0  0  0  0  0
   37.6320   25.9270   39.0370 N   0  0  0  0  0  0  0  0  0  0  0  0
   36.6550   25.4880   37.7110 S   0  0  0  0  0  0  0  0  0  0  0  0
   35.2810   26.0650   37.8240 O   0  0  0  0  0  0  0  0  0  0  0  0
   36.5460   24.0060   37.5460 O   0  0  0  0  0  0  0  0  0  0  0  0
   37.3890   26.1710   36.2420 C   0  0  0  0  0  0  0  0  0  0  0  0
   34.7690   25.7270   32.8650 C   0  0  0  0  0  0  0  0  0  0  0  0
   34.8510   26.9210   33.5520 C   0  0  0  0  0  0  0  0  0  0  0  0
   35.7130   26.9890   34.6260 C   0  0  0  0  0  0  0  0  0  0  0  0
   36.5030   25.9480   35.0640 C   0  0  0  0  0  0  0  0  0  0  0  0
   36.3990   24.7600   34.3530 C   0  0  0  0  0  0  0  0  0  0  0  0
   35.5520   24.6480   33.2760 C   0  0  0  0  0  0  0  0  0  0  0  0
   33.6700   25.6550   31.5040 S   0  0  0  0  0  0  0  0  0  0  0  0
   32.3720   26.3190   31.8790 O   0  0  0  0  0  0  0  0  0  0  0  0
   34.3060   26.3570   30.3400 O   0  0  0  0  0  0  0  0  0  0  0  0
   38.6119   26.8061   41.2244 H   0  0  0  0  0  0  0  0  0  0  0  0
   37.5138   26.4875   43.5000 H   0  0  0  0  0  0  0  0  0  0  0  0
   35.8994   26.6158   42.8575 H   0  0  0  0  0  0  0  0  0  0  0  0
   37.6445   24.2511   43.0392 H   0  0  0  0  0  0  0  0  0  0  0  0
   35.9358   24.3009   42.5199 H   0  0  0  0  0  0  0  0  0  0  0  0
   38.4480   24.3418   40.8634 H   0  0  0  0  0  0  0  0  0  0  0  0
   36.9059   23.6562   40.4438 H   0  0  0  0  0  0  0  0  0  0  0  0
   35.9269   26.1394   40.0759 H   0  0  0  0  0  0  0  0  0  0  0  0
   35.2184   27.7065   40.3972 H   0  0  0  0  0  0  0  0  0  0  0  0
   34.5511   30.1472   40.1637 H   0  0  0  0  0  0  0  0  0  0  0  0
   38.3969   31.2385   41.7211 H   0  0  0  0  0  0  0  0  0  0  0  0
   37.9787   26.8835   38.8764 H   0  0  0  0  0  0  0  0  0  0  0  0
   37.5405   27.2515   36.3817 H   0  0  0  0  0  0  0  0  0  0  0  0
   38.3532   25.6733   36.0614 H   0  0  0  0  0  0  0  0  0  0  0  0
   34.2479   27.7908   33.2524 H   0  0  0  0  0  0  0  0  0  0  0  0
   35.7746   27.9419   35.1721 H   0  0  0  0  0  0  0  0  0  0  0  0
   37.0048   23.8935   34.6567 H   0  0  0  0  0  0  0  0  0  0  0  0
   35.4908   23.6946   32.7308 H   0  0  0  0  0  0  0  0  0  0  0  0
   33.4108   24.3543   31.1606 H   0  0  0  0  0  0  0  0  0  0  0  0
  1  2  1  0
  3  2  1  0
  4  3  1  0
  5  4  1  0
  5  1  1  0
  6  1  1  0
  6 11  1  0
  7  6  2  0
  8  7  1  0
  8  9  2  0
  9 10  1  0
 10 11  2  0
 12  5  1  0
 13 14  2  0
 13 12  1  0
 15 13  2  0
 16 13  1  0
 17 22  2  0
 17 18  1  0
 18 19  2  0
 19 20  1  0
 20 16  1  0
 21 20  2  0
 22 21  1  0
 23 24  2  0
 23 17  1  0
 25 23  2  0
  1 26  1  1
  2 27  1  0
  2 28  1  0
  3 29  1  0
  3 30  1  0
  4 31  1  0
  4 32  1  0
  5 33  1  6
  7 34  1  0
  8 35  1  0
 10 36  1  0
 12 37  1  0
 16 38  1  0
 16 39  1  0
 18 40  1  0
 19 41  1  0
 21 42  1  0
 22 43  1  0
 23 44  1  0
M  ISO  8  26  13  27  13  28  13  29  13  30  13  31  13  32  13  33  13
M  ISO  8  34  14  35  14  36  14  37   5  38   8  39   8  40  14  41  14
M  ISO  3  42  14  43  14  44  11
M  END
>  <minimizedAffinity>  (1) 
-3.81998086

>  <minimizedRMSD>  (1) 
0.608564913

$$$$
