
     RDKit          3D

 32 33  0  0  1  0  0  0  0  0999 V2000
   37.5820   26.8110   41.2220 C   0  0  1  0  0  0  0  0  0  0  0  0
   36.9270   26.1740   42.4890 C   0  0  0  0  0  0  0  0  0  0  0  0
   36.9990   24.6990   42.1620 C   0  0  0  0  0  0  0  0  0  0  0  0
   37.4900   24.5590   40.7480 C   0  0  0  0  0  0  0  0  0  0  0  0
   37.1100   25.9480   40.1490 C   0  0  2  0  0  0  0  0  0  0  0  0
   37.2480   28.2120   41.1630 C   0  0  0  0  0  0  0  0  0  0  0  0
   35.9390   28.5190   40.6830 C   0  0  0  0  0  0  0  0  0  0  0  0
   35.5440   29.8630   40.6000 C   0  0  0  0  0  0  0  0  0  0  0  0
   36.4710   30.8010   40.9980 N   0  0  0  0  0  0  0  0  0  0  0  0
   37.7050   30.4580   41.4480 C   0  0  0  0  0  0  0  0  0  0  0  0
   38.0950   29.1510   41.5300 N   0  0  0  0  0  0  0  0  0  0  0  0
   37.8140   26.0420   38.9300 N   0  0  0  0  0  0  0  0  0  0  0  0
   36.8570   25.9040   37.5270 S   0  0  0  0  0  0  0  0  0  0  0  0
   35.5980   26.7120   37.6490 O   0  0  0  0  0  0  0  0  0  0  0  0
   36.4900   24.4920   37.2120 O   0  0  0  0  0  0  0  0  0  0  0  0
   37.7780   26.5980   36.1720 C   0  0  0  0  0  0  0  0  0  0  0  0
   36.9860   26.4410   35.0270 O   0  0  0  0  0  0  0  0  0  0  0  0
   38.6809   26.8434   41.1848 H   0  0  0  0  0  0  0  0  0  0  0  0
   37.4985   26.4116   43.3984 H   0  0  0  0  0  0  0  0  0  0  0  0
   35.9093   26.5366   42.6960 H   0  0  0  0  0  0  0  0  0  0  0  0
   37.6956   24.1978   42.8502 H   0  0  0  0  0  0  0  0  0  0  0  0
   36.0073   24.2354   42.2693 H   0  0  0  0  0  0  0  0  0  0  0  0
   38.5765   24.3905   40.7146 H   0  0  0  0  0  0  0  0  0  0  0  0
   37.0600   23.7037   40.2062 H   0  0  0  0  0  0  0  0  0  0  0  0
   36.0636   26.1747   39.8968 H   0  0  0  0  0  0  0  0  0  0  0  0
   35.2510   27.7148   40.3830 H   0  0  0  0  0  0  0  0  0  0  0  0
   34.5469   30.1522   40.2364 H   0  0  0  0  0  0  0  0  0  0  0  0
   38.4058   31.2490   41.7531 H   0  0  0  0  0  0  0  0  0  0  0  0
   38.2865   26.9569   38.9047 H   0  0  0  0  0  0  0  0  0  0  0  0
   37.9748   27.6649   36.3539 H   0  0  0  0  0  0  0  0  0  0  0  0
   38.7493   26.0954   36.0542 H   0  0  0  0  0  0  0  0  0  0  0  0
   36.0512   26.2557   35.2952 H   0  0  0  0  0  0  0  0  0  0  0  0
  1  2  1  0
  3  2  1  0
  4  3  1  0
  5  4  1  0
  5  1  1  0
  6  1  1  0
  6 11  1  0
  7  6  2  0
  8  7  1  0
  8  9  2  0
  9 10  1  0
 10 11  2  0
 12  5  1  0
 13 14  2  0
 13 12  1  0
 15 13  2  0
 16 13  1  0
 17 16  1  0
  1 18  1  1
  2 19  1  0
  2 20  1  0
  3 21  1  0
  3 22  1  0
  4 23  1  0
  4 24  1  0
  5 25  1  6
  7 26  1  0
  8 27  1  0
 10 28  1  0
 12 29  1  0
 16 30  1  0
 16 31  1  0
 17 32  1  0
M  ISO  8  18  13  19  13  20  13  21  13  22  13  23  13  24  13  25  13
M  ISO  7  26  14  27  14  28  14  29   5  30   8  31   8  32   3
M  END
>  <minimizedAffinity>  (1) 
-3.76370001

>  <minimizedRMSD>  (1) 
0.243093297

$$$$
