
     RDKit          3D

 39 42  0  0  1  0  0  0  0  0999 V2000
   38.7900   33.2120   40.7280 C   0  0  0  0  0  0  0  0  0  0  0  0
   38.8490   31.9680   41.3550 C   0  0  0  0  0  0  0  0  0  0  0  0
   37.9920   30.9500   40.9420 C   0  0  0  0  0  0  0  0  0  0  0  0
   37.1460   31.2550   39.9380 N   0  0  0  0  0  0  0  0  0  0  0  0
   37.0900   32.4600   39.3330 C   0  0  0  0  0  0  0  0  0  0  0  0
   37.9180   33.4260   39.7400 N   0  0  0  0  0  0  0  0  0  0  0  0
   38.0130   29.6610   41.5480 N   0  0  0  0  0  0  0  0  0  0  0  0
   38.4350   29.5150   42.9160 C   0  0  0  0  0  0  0  0  0  0  0  0
   38.7410   28.1310   43.3180 C   0  0  0  0  0  0  0  0  0  0  0  0
   38.7160   27.2200   42.2760 O   0  0  0  0  0  0  0  0  0  0  0  0
   37.5930   27.3030   41.5090 C   0  0  0  0  0  0  0  0  0  0  0  0
   37.6100   28.5650   40.7350 C   0  0  1  0  0  0  0  0  0  0  0  0
   36.5030   28.7590   39.8070 C   0  0  0  0  0  0  0  0  0  0  0  0
   35.1790   28.9920   40.2160 C   0  0  0  0  0  0  0  0  0  0  0  0
   34.1010   29.1670   39.4130 C   0  0  0  0  0  0  0  0  0  0  0  0
   34.2740   29.1200   38.0660 C   0  0  0  0  0  0  0  0  0  0  0  0
   35.5240   28.8990   37.5540 C   0  0  0  0  0  0  0  0  0  0  0  0
   35.6990   28.8570   36.1870 C   0  0  0  0  0  0  0  0  0  0  0  0
   36.9550   28.6420   35.6370 C   0  0  0  0  0  0  0  0  0  0  0  0
   38.0550   28.4650   36.4840 C   0  0  0  0  0  0  0  0  0  0  0  0
   37.8100   28.5170   37.8380 C   0  0  0  0  0  0  0  0  0  0  0  0
   36.5890   28.7270   38.4140 C   0  0  0  0  0  0  0  0  0  0  0  0
   39.4643   34.0199   41.0485 H   0  0  0  0  0  0  0  0  0  0  0  0
   39.5668   31.7916   42.1696 H   0  0  0  0  0  0  0  0  0  0  0  0
   36.3743   32.6437   38.5181 H   0  0  0  0  0  0  0  0  0  0  0  0
   39.3397   30.1232   43.0629 H   0  0  0  0  0  0  0  0  0  0  0  0
   37.5901   29.8418   43.5400 H   0  0  0  0  0  0  0  0  0  0  0  0
   39.7456   28.1157   43.7659 H   0  0  0  0  0  0  0  0  0  0  0  0
   37.9554   27.8255   44.0247 H   0  0  0  0  0  0  0  0  0  0  0  0
   37.5595   26.4494   40.8160 H   0  0  0  0  0  0  0  0  0  0  0  0
   36.7057   27.2860   42.1589 H   0  0  0  0  0  0  0  0  0  0  0  0
   38.4100   28.4814   39.9847 H   0  0  0  0  0  0  0  0  0  0  0  0
   34.9986   29.0371   41.3002 H   0  0  0  0  0  0  0  0  0  0  0  0
   33.1045   29.3438   39.8439 H   0  0  0  0  0  0  0  0  0  0  0  0
   33.4158   29.2585   37.3920 H   0  0  0  0  0  0  0  0  0  0  0  0
   34.8323   28.9956   35.5240 H   0  0  0  0  0  0  0  0  0  0  0  0
   37.0847   28.6110   34.5451 H   0  0  0  0  0  0  0  0  0  0  0  0
   39.0664   28.2927   36.0872 H   0  0  0  0  0  0  0  0  0  0  0  0
   38.6684   28.3780   38.5117 H   0  0  0  0  0  0  0  0  0  0  0  0
  1  2  2  0
  3  2  1  0
  3  7  1  0
  4  3  2  0
  5  6  2  0
  5  4  1  0
  6  1  1  0
  7  8  1  0
  8  9  1  0
 10  9  1  0
 11 10  1  0
 12 11  1  0
 12  7  1  0
 13 14  2  0
 13 12  1  0
 15 14  1  0
 16 15  2  0
 17 16  1  0
 17 22  2  0
 18 17  1  0
 19 18  2  0
 19 20  1  0
 20 21  2  0
 21 22  1  0
 22 13  1  0
  1 23  1  0
  2 24  1  0
  5 25  1  0
  8 26  1  0
  8 27  1  0
  9 28  1  0
  9 29  1  0
 11 30  1  0
 11 31  1  0
 12 32  1  6
 14 33  1  0
 15 34  1  0
 16 35  1  0
 18 36  1  0
 19 37  1  0
 20 38  1  0
 21 39  1  0
M  ISO  8  23  14  24  14  25  14  26  13  27  13  28  13  29  13  30  13
M  ISO  8  31  13  32  13  33  14  34  14  35  14  36  14  37  14  38  14
M  ISO  1  39  14
M  END
>  <minimizedAffinity>  (1) 
-5.79749775

>  <minimizedRMSD>  (1) 
4.2809248

$$$$
