
     RDKit          3D

 30 32  0  0  1  0  0  0  0  0999 V2000
   36.7360   27.4610   43.3870 C   0  0  0  0  0  0  0  0  0  0  0  0
   36.2080   27.8070   42.1230 C   0  0  0  0  0  0  0  0  0  0  0  0
   36.7660   28.8970   41.4550 C   0  0  0  0  0  0  0  0  0  0  0  0
   37.7930   29.5610   42.0670 N   0  0  0  0  0  0  0  0  0  0  0  0
   38.2870   29.2210   43.2700 C   0  0  0  0  0  0  0  0  0  0  0  0
   37.7540   28.1720   43.9200 N   0  0  0  0  0  0  0  0  0  0  0  0
   36.2960   29.3190   40.1770 N   0  0  0  0  0  0  0  0  0  0  0  0
   34.9210   29.1330   39.8160 C   0  0  0  0  0  0  0  0  0  0  0  0
   34.7170   29.0010   38.3260 C   0  0  0  0  0  0  0  0  0  0  0  0
   35.7770   29.4060   37.5780 O   0  0  0  0  0  0  0  0  0  0  0  0
   36.5320   30.4440   38.0900 C   0  0  0  0  0  0  0  0  0  0  0  0
   37.2510   29.9290   39.2820 C   0  0  1  0  0  0  0  0  0  0  0  0
   38.1290   30.8610   39.9270 N   0  0  0  0  0  0  0  0  0  0  0  0
   37.8020   32.0450   40.5210 C   0  0  0  0  0  0  0  0  0  0  0  0
   38.9440   32.6340   41.0200 C   0  0  0  0  0  0  0  0  0  0  0  0
   39.9540   31.8020   40.7240 N   0  0  0  0  0  0  0  0  0  0  0  0
   39.4630   30.7280   40.0610 C   0  0  0  0  0  0  0  0  0  0  0  0
   36.3160   26.6081   43.9403 H   0  0  0  0  0  0  0  0  0  0  0  0
   35.3811   27.2336   41.6787 H   0  0  0  0  0  0  0  0  0  0  0  0
   39.1146   29.7923   43.7157 H   0  0  0  0  0  0  0  0  0  0  0  0
   34.5509   28.2189   40.3032 H   0  0  0  0  0  0  0  0  0  0  0  0
   34.3695   30.0254   40.1467 H   0  0  0  0  0  0  0  0  0  0  0  0
   34.5185   27.9434   38.0979 H   0  0  0  0  0  0  0  0  0  0  0  0
   33.8764   29.6602   38.0637 H   0  0  0  0  0  0  0  0  0  0  0  0
   37.2546   30.7898   37.3362 H   0  0  0  0  0  0  0  0  0  0  0  0
   35.8878   31.2926   38.3636 H   0  0  0  0  0  0  0  0  0  0  0  0
   37.9595   29.1657   38.9279 H   0  0  0  0  0  0  0  0  0  0  0  0
   36.7871   32.4635   40.5907 H   0  0  0  0  0  0  0  0  0  0  0  0
   39.0133   33.5934   41.5537 H   0  0  0  0  0  0  0  0  0  0  0  0
   40.0591   29.8810   39.6905 H   0  0  0  0  0  0  0  0  0  0  0  0
  1  6  2  0
  2  1  1  0
  3  4  1  0
  3  2  2  0
  4  5  2  0
  5  6  1  0
  7  3  1  0
  8  7  1  0
  9  8  1  0
 10 11  1  0
 10  9  1  0
 11 12  1  0
 12 13  1  0
 12  7  1  0
 13 17  1  0
 13 14  1  0
 14 15  2  0
 16 15  1  0
 17 16  2  0
  1 18  1  0
  2 19  1  0
  5 20  1  0
  8 21  1  0
  8 22  1  0
  9 23  1  0
  9 24  1  0
 11 25  1  0
 11 26  1  0
 12 27  1  6
 14 28  1  0
 15 29  1  0
 17 30  1  0
M  ISO  8  18  14  19  14  20  14  21  13  22  13  23  13  24  13  25  13
M  ISO  5  26  13  27  13  28  14  29  14  30  14
M  END
>  <minimizedAffinity>  (1) 
-4.54221725

>  <minimizedRMSD>  (1) 
4.90356541

$$$$
