
     RDKit          3D

 38 40  0  0  1  0  0  0  0  0999 V2000
   37.5450   27.9400   43.7840 C   0  0  0  0  0  0  0  0  0  0  0  0
   37.4890   26.8030   42.9800 C   0  0  0  0  0  0  0  0  0  0  0  0
   37.3960   26.9600   41.5980 C   0  0  0  0  0  0  0  0  0  0  0  0
   37.3670   28.2320   41.1510 N   0  0  0  0  0  0  0  0  0  0  0  0
   37.4210   29.3280   41.9260 C   0  0  0  0  0  0  0  0  0  0  0  0
   37.5100   29.1620   43.2500 N   0  0  0  0  0  0  0  0  0  0  0  0
   37.3300   25.8570   40.6940 N   0  0  0  0  0  0  0  0  0  0  0  0
   36.7450   24.6200   41.1110 C   0  0  0  0  0  0  0  0  0  0  0  0
   37.2670   23.4230   40.3580 C   0  0  0  0  0  0  0  0  0  0  0  0
   38.1130   23.7250   39.3170 O   0  0  0  0  0  0  0  0  0  0  0  0
   37.7630   24.8170   38.5820 C   0  0  0  0  0  0  0  0  0  0  0  0
   37.8660   26.0600   39.3800 C   0  0  1  0  0  0  0  0  0  0  0  0
   37.3670   27.2440   38.7210 N   0  0  0  0  0  0  0  0  0  0  0  0
   35.9390   27.2260   38.6650 C   0  0  0  0  0  0  0  0  0  0  0  0
   35.3920   28.4900   39.2890 C   0  0  0  0  0  0  0  0  0  0  0  0
   35.8850   29.6300   38.3880 C   0  0  0  0  0  0  0  0  0  0  0  0
   37.3770   29.6910   38.6240 C   0  0  0  0  0  0  0  0  0  0  0  0
   37.9020   28.4560   39.2980 C   0  0  0  0  0  0  0  0  0  0  0  0
   37.6192   27.8281   44.8758 H   0  0  0  0  0  0  0  0  0  0  0  0
   37.5177   25.7989   43.4283 H   0  0  0  0  0  0  0  0  0  0  0  0
   37.3928   30.3347   41.4835 H   0  0  0  0  0  0  0  0  0  0  0  0
   36.9573   24.4778   42.1809 H   0  0  0  0  0  0  0  0  0  0  0  0
   35.6666   24.6866   40.9045 H   0  0  0  0  0  0  0  0  0  0  0  0
   37.8113   22.7822   41.0674 H   0  0  0  0  0  0  0  0  0  0  0  0
   36.3908   22.9283   39.9136 H   0  0  0  0  0  0  0  0  0  0  0  0
   38.4327   24.8931   37.7127 H   0  0  0  0  0  0  0  0  0  0  0  0
   36.7180   24.6975   38.2599 H   0  0  0  0  0  0  0  0  0  0  0  0
   38.9386   26.2791   39.4870 H   0  0  0  0  0  0  0  0  0  0  0  0
   35.6143   27.1653   37.6158 H   0  0  0  0  0  0  0  0  0  0  0  0
   35.5623   26.3527   39.2176 H   0  0  0  0  0  0  0  0  0  0  0  0
   34.2925   28.4643   39.3117 H   0  0  0  0  0  0  0  0  0  0  0  0
   35.7281   28.6136   40.3291 H   0  0  0  0  0  0  0  0  0  0  0  0
   35.4088   30.5806   38.6703 H   0  0  0  0  0  0  0  0  0  0  0  0
   35.6386   29.4590   37.3297 H   0  0  0  0  0  0  0  0  0  0  0  0
   37.8834   29.8064   37.6543 H   0  0  0  0  0  0  0  0  0  0  0  0
   37.5765   30.5452   39.2877 H   0  0  0  0  0  0  0  0  0  0  0  0
   37.6282   28.4911   40.3628 H   0  0  0  0  0  0  0  0  0  0  0  0
   38.9935   28.4384   39.1629 H   0  0  0  0  0  0  0  0  0  0  0  0
  2  1  2  0
  3  2  1  0
  4  3  2  0
  4  5  1  0
  5  6  2  0
  6  1  1  0
  7  8  1  0
  7  3  1  0
  9  8  1  0
 10  9  1  0
 11 10  1  0
 11 12  1  0
 12  7  1  0
 13 18  1  0
 13 12  1  0
 14 13  1  0
 14 15  1  0
 16 17  1  0
 16 15  1  0
 17 18  1  0
  1 19  1  0
  2 20  1  0
  5 21  1  0
  8 22  1  0
  8 23  1  0
  9 24  1  0
  9 25  1  0
 11 26  1  0
 11 27  1  0
 12 28  1  1
 14 29  1  0
 14 30  1  0
 15 31  1  0
 15 32  1  0
 16 33  1  0
 16 34  1  0
 17 35  1  0
 17 36  1  0
 18 37  1  0
 18 38  1  0
M  ISO  8  19  14  20  14  21  14  22  13  23  13  24  13  25  13  26  13
M  ISO  8  27  13  28  13  29  13  30  13  31  13  32  13  33  13  34  13
M  ISO  4  35  13  36  13  37  13  38  13
M  END
>  <minimizedAffinity>  (1) 
-4.33987951

>  <minimizedRMSD>  (1) 
1.62462878

$$$$
