
     RDKit          3D

 39 41  0  0  1  0  0  0  0  0999 V2000
   38.8670   27.2570   42.8430 C   0  0  0  0  0  0  0  0  0  0  0  0
   38.2680   26.7180   41.7020 C   0  0  0  0  0  0  0  0  0  0  0  0
   37.2180   27.4260   41.1190 C   0  0  0  0  0  0  0  0  0  0  0  0
   36.8590   28.5870   41.7070 N   0  0  0  0  0  0  0  0  0  0  0  0
   37.4270   29.1130   42.8010 C   0  0  0  0  0  0  0  0  0  0  0  0
   38.4320   28.4320   43.3560 N   0  0  0  0  0  0  0  0  0  0  0  0
   36.5470   26.9490   39.9480 N   0  0  0  0  0  0  0  0  0  0  0  0
   36.4990   25.5350   39.6770 C   0  0  0  0  0  0  0  0  0  0  0  0
   36.1480   25.2160   38.2610 C   0  0  0  0  0  0  0  0  0  0  0  0
   36.0510   26.3050   37.4390 O   0  0  0  0  0  0  0  0  0  0  0  0
   35.2180   27.2640   37.9920 C   0  0  0  0  0  0  0  0  0  0  0  0
   35.9400   27.9470   39.0940 C   0  0  2  0  0  0  0  0  0  0  0  0
   36.9690   28.9390   38.6430 C   0  0  0  0  0  0  0  0  0  0  0  0
   38.1530   28.2810   37.9670 C   0  0  0  0  0  0  0  0  0  0  0  0
   39.2200   29.3450   37.8530 C   0  0  0  0  0  0  0  0  0  0  0  0
   38.7630   30.7120   38.2740 C   0  0  0  0  0  0  0  0  0  0  0  0
   37.4430   31.1340   37.7240 C   0  0  0  0  0  0  0  0  0  0  0  0
   36.4450   29.9780   37.7160 C   0  0  0  0  0  0  0  0  0  0  0  0
   39.6976   26.7233   43.3279 H   0  0  0  0  0  0  0  0  0  0  0  0
   38.6141   25.7644   41.2766 H   0  0  0  0  0  0  0  0  0  0  0  0
   37.0792   30.0669   43.2243 H   0  0  0  0  0  0  0  0  0  0  0  0
   37.4866   25.1036   39.8975 H   0  0  0  0  0  0  0  0  0  0  0  0
   35.7088   25.1084   40.3123 H   0  0  0  0  0  0  0  0  0  0  0  0
   36.9241   24.5493   37.8570 H   0  0  0  0  0  0  0  0  0  0  0  0
   35.1505   24.7530   38.2839 H   0  0  0  0  0  0  0  0  0  0  0  0
   34.9379   27.9985   37.2225 H   0  0  0  0  0  0  0  0  0  0  0  0
   34.3064   26.7873   38.3816 H   0  0  0  0  0  0  0  0  0  0  0  0
   35.1909   28.5372   39.6422 H   0  0  0  0  0  0  0  0  0  0  0  0
   37.2817   29.4240   39.5795 H   0  0  0  0  0  0  0  0  0  0  0  0
   38.5180   27.4386   38.5729 H   0  0  0  0  0  0  0  0  0  0  0  0
   37.8789   27.8815   36.9794 H   0  0  0  0  0  0  0  0  0  0  0  0
   40.0696   29.0530   38.4878 H   0  0  0  0  0  0  0  0  0  0  0  0
   39.4915   29.4125   36.7892 H   0  0  0  0  0  0  0  0  0  0  0  0
   38.6950   30.7257   39.3718 H   0  0  0  0  0  0  0  0  0  0  0  0
   39.5030   31.4199   37.8725 H   0  0  0  0  0  0  0  0  0  0  0  0
   37.0413   31.9488   38.3442 H   0  0  0  0  0  0  0  0  0  0  0  0
   37.5921   31.4686   36.6868 H   0  0  0  0  0  0  0  0  0  0  0  0
   35.4603   30.3277   38.0595 H   0  0  0  0  0  0  0  0  0  0  0  0
   36.3258   29.5717   36.7008 H   0  0  0  0  0  0  0  0  0  0  0  0
  1  6  2  0
  2  1  1  0
  3  2  2  0
  3  4  1  0
  4  5  2  0
  5  6  1  0
  7  3  1  0
  8  7  1  0
  9  8  1  0
 10 11  1  0
 10  9  1  0
 11 12  1  0
 12  7  1  0
 13 12  1  0
 14 13  1  0
 15 14  1  0
 15 16  1  0
 17 16  1  0
 18 17  1  0
 18 13  1  0
  1 19  1  0
  2 20  1  0
  5 21  1  0
  8 22  1  0
  8 23  1  0
  9 24  1  0
  9 25  1  0
 11 26  1  0
 11 27  1  0
 12 28  1  1
 13 29  1  0
 14 30  1  0
 14 31  1  0
 15 32  1  0
 15 33  1  0
 16 34  1  0
 16 35  1  0
 17 36  1  0
 17 37  1  0
 18 38  1  0
 18 39  1  0
M  ISO  8  19  14  20  14  21  14  22  13  23  13  24  13  25  13  26  13
M  ISO  8  27  13  28  13  29  13  30  13  31  13  32  13  33  13  34  13
M  ISO  5  35  13  36  13  37  13  38  13  39  13
M  END
>  <minimizedAffinity>  (1) 
-4.12194872

>  <minimizedRMSD>  (1) 
2.7595861

$$$$
