
     RDKit          3D

 35 36  0  0  1  0  0  0  0  0999 V2000
   38.9300   27.5490   43.0450 C   0  0  0  0  0  0  0  0  0  0  0  0
   38.4360   26.8020   41.9490 C   0  0  0  0  0  0  0  0  0  0  0  0
   37.3800   27.3590   41.2260 C   0  0  0  0  0  0  0  0  0  0  0  0
   36.9330   28.5460   41.6400 N   0  0  0  0  0  0  0  0  0  0  0  0
   37.3740   29.2730   42.6630 C   0  0  0  0  0  0  0  0  0  0  0  0
   38.3990   28.7430   43.3700 N   0  0  0  0  0  0  0  0  0  0  0  0
   36.7780   26.7500   40.0910 N   0  0  0  0  0  0  0  0  0  0  0  0
   36.6660   25.2590   40.1400 C   0  0  0  0  0  0  0  0  0  0  0  0
   36.7230   24.6430   38.7750 C   0  0  0  0  0  0  0  0  0  0  0  0
   36.5560   25.5410   37.7610 O   0  0  0  0  0  0  0  0  0  0  0  0
   35.6170   26.5280   38.0560 C   0  0  0  0  0  0  0  0  0  0  0  0
   36.3330   27.4830   39.0000 C   0  0  1  0  0  0  0  0  0  0  0  0
   35.6510   28.7640   38.9200 C   0  0  0  0  0  0  0  0  0  0  0  0
   34.7170   29.1760   40.0310 C   0  0  0  0  0  0  0  0  0  0  0  0
   34.9490   28.9710   37.5570 C   0  0  0  0  0  0  0  0  0  0  0  0
   36.7240   29.8800   38.8730 C   0  0  0  0  0  0  0  0  0  0  0  0
   39.7622   27.1472   43.6417 H   0  0  0  0  0  0  0  0  0  0  0  0
   38.8652   25.8259   41.6790 H   0  0  0  0  0  0  0  0  0  0  0  0
   36.9318   30.2471   42.9190 H   0  0  0  0  0  0  0  0  0  0  0  0
   37.4951   24.8609   40.7434 H   0  0  0  0  0  0  0  0  0  0  0  0
   35.6916   25.0075   40.5841 H   0  0  0  0  0  0  0  0  0  0  0  0
   37.7034   24.1594   38.6528 H   0  0  0  0  0  0  0  0  0  0  0  0
   35.8909   23.9264   38.7104 H   0  0  0  0  0  0  0  0  0  0  0  0
   35.3052   27.0511   37.1400 H   0  0  0  0  0  0  0  0  0  0  0  0
   34.7046   26.1092   38.5056 H   0  0  0  0  0  0  0  0  0  0  0  0
   37.3254   27.9229   38.8223 H   0  0  0  0  0  0  0  0  0  0  0  0
   35.1887   28.9679   41.0027 H   0  0  0  0  0  0  0  0  0  0  0  0
   34.5031   30.2520   39.9502 H   0  0  0  0  0  0  0  0  0  0  0  0
   33.7782   28.6085   39.9502 H   0  0  0  0  0  0  0  0  0  0  0  0
   33.9062   29.2785   37.7246 H   0  0  0  0  0  0  0  0  0  0  0  0
   35.4748   29.7523   36.9886 H   0  0  0  0  0  0  0  0  0  0  0  0
   34.9668   28.0294   36.9886 H   0  0  0  0  0  0  0  0  0  0  0  0
   36.9998   30.1669   39.8985 H   0  0  0  0  0  0  0  0  0  0  0  0
   37.6145   29.5104   38.3436 H   0  0  0  0  0  0  0  0  0  0  0  0
   36.3197   30.7553   38.3436 H   0  0  0  0  0  0  0  0  0  0  0  0
  1  6  2  0
  2  1  1  0
  3  4  1  0
  3  2  2  0
  4  5  2  0
  5  6  1  0
  7  8  1  0
  7  3  1  0
  9  8  1  0
 10 11  1  0
 10  9  1  0
 11 12  1  0
 12  7  1  0
 13 12  1  0
 13 14  1  0
 15 13  1  0
 16 13  1  0
  1 17  1  0
  2 18  1  0
  5 19  1  0
  8 20  1  0
  8 21  1  0
  9 22  1  0
  9 23  1  0
 11 24  1  0
 11 25  1  0
 12 26  1  6
 14 27  1  0
 14 28  1  0
 14 29  1  0
 15 30  1  0
 15 31  1  0
 15 32  1  0
 16 33  1  0
 16 34  1  0
 16 35  1  0
M  ISO  8  17  14  18  14  19  14  20  13  21  13  22  13  23  13  24  13
M  ISO  8  25  13  26  13  27   8  28   8  29   8  30   8  31   8  32   8
M  ISO  3  33   8  34   8  35   8
M  END
>  <minimizedAffinity>  (1) 
-4.1123333

>  <minimizedRMSD>  (1) 
2.05701017

$$$$
