
     RDKit          3D

 22 23  0  0  0  0  0  0  0  0999 V2000
   38.2410   29.0230   43.4350 C   0  0  0  0  0  0  0  0  0  0  0  0
   37.5190   27.8350   43.7310 C   0  0  0  0  0  0  0  0  0  0  0  0
   36.4970   27.4510   42.8500 C   0  0  0  0  0  0  0  0  0  0  0  0
   36.2590   28.2460   41.7600 N   0  0  0  0  0  0  0  0  0  0  0  0
   36.9640   29.3620   41.5160 C   0  0  0  0  0  0  0  0  0  0  0  0
   37.9570   29.7540   42.3530 N   0  0  0  0  0  0  0  0  0  0  0  0
   36.6360   30.1020   40.3690 N   0  0  0  0  0  0  0  0  0  0  0  0
   36.0970   29.5370   39.1480 C   0  0  0  0  0  0  0  0  0  0  0  0
   36.6200   30.4650   38.0770 C   0  0  0  0  0  0  0  0  0  0  0  0
   37.2170   31.6560   38.7790 C   0  0  0  0  0  0  0  0  0  0  0  0
   36.7800   31.5350   40.2170 C   0  0  0  0  0  0  0  0  0  0  0  0
   39.0481   29.3465   44.1087 H   0  0  0  0  0  0  0  0  0  0  0  0
   37.7542   27.2355   44.6228 H   0  0  0  0  0  0  0  0  0  0  0  0
   35.9057   26.5408   43.0287 H   0  0  0  0  0  0  0  0  0  0  0  0
   36.4623   28.5110   38.9935 H   0  0  0  0  0  0  0  0  0  0  0  0
   34.9996   29.4623   39.1553 H   0  0  0  0  0  0  0  0  0  0  0  0
   35.7975   30.7863   37.4211 H   0  0  0  0  0  0  0  0  0  0  0  0
   37.3719   29.9598   37.4530 H   0  0  0  0  0  0  0  0  0  0  0  0
   38.3145   31.6345   38.7073 H   0  0  0  0  0  0  0  0  0  0  0  0
   36.8856   32.6037   38.3295 H   0  0  0  0  0  0  0  0  0  0  0  0
   37.5428   31.9348   40.9014 H   0  0  0  0  0  0  0  0  0  0  0  0
   35.8656   32.0997   40.4514 H   0  0  0  0  0  0  0  0  0  0  0  0
  1  2  2  0
  3  2  1  0
  4  3  2  0
  5  4  1  0
  5  6  2  0
  6  1  1  0
  7  5  1  0
  8  7  1  0
  9 10  1  0
  9  8  1  0
 10 11  1  0
 11  7  1  0
  1 12  1  0
  2 13  1  0
  3 14  1  0
  8 15  1  0
  8 16  1  0
  9 17  1  0
  9 18  1  0
 10 19  1  0
 10 20  1  0
 11 21  1  0
 11 22  1  0
M  ISO  8  12  14  13  14  14  14  15  13  16  13  17  13  18  13  19  13
M  ISO  3  20  13  21  13  22  13
M  END
>  <minimizedAffinity>  (1) 
-3.82258654

>  <minimizedRMSD>  (1) 
0.287387222

$$$$
