
     RDKit          3D

 29 30  0  0  1  0  0  0  0  0999 V2000
   39.0110   28.3920   43.1070 C   0  0  0  0  0  0  0  0  0  0  0  0
   39.6720   29.4720   42.5020 C   0  0  0  0  0  0  0  0  0  0  0  0
   38.9480   30.3640   41.7130 C   0  0  0  0  0  0  0  0  0  0  0  0
   37.6280   30.1340   41.5740 N   0  0  0  0  0  0  0  0  0  0  0  0
   36.9840   29.1000   42.1510 C   0  0  0  0  0  0  0  0  0  0  0  0
   37.6850   28.2350   42.9160 N   0  0  0  0  0  0  0  0  0  0  0  0
   39.5570   31.4780   41.0700 N   0  0  0  0  0  0  0  0  0  0  0  0
   40.9370   31.3770   40.6120 C   0  0  0  0  0  0  0  0  0  0  0  0
   41.6560   32.6930   40.5790 C   0  0  0  0  0  0  0  0  0  0  0  0
   40.8280   33.7890   40.7360 O   0  0  0  0  0  0  0  0  0  0  0  0
   39.5980   33.6830   40.1610 C   0  0  0  0  0  0  0  0  0  0  0  0
   38.7920   32.6630   40.8930 C   0  0  1  0  0  0  0  0  0  0  0  0
   37.4670   32.5510   40.2390 C   0  0  0  0  0  0  0  0  0  0  0  0
   37.1200   33.6750   39.3110 C   0  0  0  0  0  0  0  0  0  0  0  0
   39.5696   27.6795   43.7317 H   0  0  0  0  0  0  0  0  0  0  0  0
   40.7529   29.6134   42.6493 H   0  0  0  0  0  0  0  0  0  0  0  0
   35.9030   28.9625   42.0011 H   0  0  0  0  0  0  0  0  0  0  0  0
   41.4797   30.7010   41.2892 H   0  0  0  0  0  0  0  0  0  0  0  0
   40.9076   30.9992   39.5793 H   0  0  0  0  0  0  0  0  0  0  0  0
   42.3993   32.7018   41.3898 H   0  0  0  0  0  0  0  0  0  0  0  0
   42.1153   32.7805   39.5833 H   0  0  0  0  0  0  0  0  0  0  0  0
   39.0869   34.6559   40.2070 H   0  0  0  0  0  0  0  0  0  0  0  0
   39.7100   33.3764   39.1105 H   0  0  0  0  0  0  0  0  0  0  0  0
   38.5559   32.9520   41.9278 H   0  0  0  0  0  0  0  0  0  0  0  0
   37.4498   31.6147   39.6618 H   0  0  0  0  0  0  0  0  0  0  0  0
   36.7223   32.5802   41.0480 H   0  0  0  0  0  0  0  0  0  0  0  0
   36.8456   34.5638   39.8981 H   0  0  0  0  0  0  0  0  0  0  0  0
   37.9880   33.9081   38.6768 H   0  0  0  0  0  0  0  0  0  0  0  0
   36.2716   33.3783   38.6768 H   0  0  0  0  0  0  0  0  0  0  0  0
  2  1  2  0
  3  2  1  0
  4  3  2  0
  4  5  1  0
  5  6  2  0
  6  1  1  0
  7  3  1  0
  8  7  1  0
  9  8  1  0
  9 10  1  0
 11 10  1  0
 11 12  1  0
 12  7  1  0
 13 12  1  0
 14 13  1  0
  1 15  1  0
  2 16  1  0
  5 17  1  0
  8 18  1  0
  8 19  1  0
  9 20  1  0
  9 21  1  0
 11 22  1  0
 11 23  1  0
 12 24  1  1
 13 25  1  0
 13 26  1  0
 14 27  1  0
 14 28  1  0
 14 29  1  0
M  ISO  8  15  14  16  14  17  14  18  13  19  13  20  13  21  13  22  13
M  ISO  7  23  13  24  13  25   8  26   8  27   8  28   8  29   8
M  END
>  <minimizedAffinity>  (1) 
-4.00784254

>  <minimizedRMSD>  (1) 
6.44177246

$$$$
