
     RDKit          3D

 26 27  0  0  1  0  0  0  0  0999 V2000
   38.0710   28.1450   43.6320 C   0  0  0  0  0  0  0  0  0  0  0  0
   38.0030   26.9220   42.9700 C   0  0  0  0  0  0  0  0  0  0  0  0
   37.3660   26.8310   41.7320 C   0  0  0  0  0  0  0  0  0  0  0  0
   36.8340   27.9840   41.2310 N   0  0  0  0  0  0  0  0  0  0  0  0
   36.9040   29.1640   41.8760 C   0  0  0  0  0  0  0  0  0  0  0  0
   37.5260   29.2270   43.0760 N   0  0  0  0  0  0  0  0  0  0  0  0
   37.2650   25.6060   41.0170 N   0  0  0  0  0  0  0  0  0  0  0  0
   37.1800   24.3610   41.7260 C   0  0  0  0  0  0  0  0  0  0  0  0
   37.5990   23.1780   40.8960 C   0  0  0  0  0  0  0  0  0  0  0  0
   37.8550   23.4550   39.5860 O   0  0  0  0  0  0  0  0  0  0  0  0
   37.0080   24.3480   39.0000 C   0  0  0  0  0  0  0  0  0  0  0  0
   37.2500   25.7010   39.5710 C   0  0  1  0  0  0  0  0  0  0  0  0
   36.2850   26.7110   39.0480 C   0  0  0  0  0  0  0  0  0  0  0  0
   38.5718   28.2180   44.6087 H   0  0  0  0  0  0  0  0  0  0  0  0
   38.4521   26.0262   43.4237 H   0  0  0  0  0  0  0  0  0  0  0  0
   36.4602   30.0672   41.4320 H   0  0  0  0  0  0  0  0  0  0  0  0
   37.8321   24.4166   42.6101 H   0  0  0  0  0  0  0  0  0  0  0  0
   36.1252   24.2116   42.0002 H   0  0  0  0  0  0  0  0  0  0  0  0
   38.5124   22.7558   41.3403 H   0  0  0  0  0  0  0  0  0  0  0  0
   36.7479   22.4812   40.9022 H   0  0  0  0  0  0  0  0  0  0  0  0
   35.9672   24.0484   39.1925 H   0  0  0  0  0  0  0  0  0  0  0  0
   37.1861   24.3682   37.9147 H   0  0  0  0  0  0  0  0  0  0  0  0
   38.2349   26.0676   39.2462 H   0  0  0  0  0  0  0  0  0  0  0  0
   35.7966   27.2222   39.8907 H   0  0  0  0  0  0  0  0  0  0  0  0
   36.8228   27.4483   38.4338 H   0  0  0  0  0  0  0  0  0  0  0  0
   35.5240   26.2074   38.4338 H   0  0  0  0  0  0  0  0  0  0  0  0
  2  1  2  0
  3  2  1  0
  4  3  2  0
  4  5  1  0
  5  6  2  0
  6  1  1  0
  7  8  1  0
  7  3  1  0
  9  8  1  0
 10  9  1  0
 11 12  1  0
 11 10  1  0
 12  7  1  0
 13 12  1  0
  1 14  1  0
  2 15  1  0
  5 16  1  0
  8 17  1  0
  8 18  1  0
  9 19  1  0
  9 20  1  0
 11 21  1  0
 11 22  1  0
 12 23  1  6
 13 24  1  0
 13 25  1  0
 13 26  1  0
M  ISO  8  14  14  15  14  16  14  17  13  18  13  19  13  20  13  21  13
M  ISO  5  22  13  23  13  24   8  25   8  26   8
M  END
>  <minimizedAffinity>  (1) 
-3.59553742

>  <minimizedRMSD>  (1) 
0.623834789

$$$$
