
     RDKit          3D

 24 25  0  0  1  0  0  0  0  0999 V2000
   37.8970   28.1460   43.6090 C   0  0  0  0  0  0  0  0  0  0  0  0
   37.8550   26.9270   42.9450 C   0  0  0  0  0  0  0  0  0  0  0  0
   37.3150   26.8320   41.6650 C   0  0  0  0  0  0  0  0  0  0  0  0
   36.8380   27.9890   41.1120 N   0  0  0  0  0  0  0  0  0  0  0  0
   36.8820   29.1790   41.7650 C   0  0  0  0  0  0  0  0  0  0  0  0
   37.4140   29.2330   43.0070 N   0  0  0  0  0  0  0  0  0  0  0  0
   37.2400   25.6070   40.9440 N   0  0  0  0  0  0  0  0  0  0  0  0
   37.1220   24.3730   41.6740 C   0  0  0  0  0  0  0  0  0  0  0  0
   37.5800   23.1750   40.8860 C   0  0  0  0  0  0  0  0  0  0  0  0
   37.8740   23.4400   39.5830 O   0  0  0  0  0  0  0  0  0  0  0  0
   37.0780   24.3270   38.9410 C   0  0  0  0  0  0  0  0  0  0  0  0
   37.2780   25.6970   39.5000 C   0  0  1  0  0  0  0  0  0  0  0  0
   36.1590   26.4520   39.1360 O   0  0  0  0  0  0  0  0  0  0  0  0
   38.3241   28.2139   44.6204 H   0  0  0  0  0  0  0  0  0  0  0  0
   38.2528   26.0264   43.4357 H   0  0  0  0  0  0  0  0  0  0  0  0
   36.4890   30.0893   41.2886 H   0  0  0  0  0  0  0  0  0  0  0  0
   37.7322   24.4462   42.5863 H   0  0  0  0  0  0  0  0  0  0  0  0
   36.0558   24.2275   41.9024 H   0  0  0  0  0  0  0  0  0  0  0  0
   38.4826   22.7706   41.3674 H   0  0  0  0  0  0  0  0  0  0  0  0
   36.7421   22.4623   40.8811 H   0  0  0  0  0  0  0  0  0  0  0  0
   36.0263   24.0316   39.0704 H   0  0  0  0  0  0  0  0  0  0  0  0
   37.3370   24.3339   37.8719 H   0  0  0  0  0  0  0  0  0  0  0  0
   38.2239   26.1300   39.1426 H   0  0  0  0  0  0  0  0  0  0  0  0
   35.6934   26.7661   39.9513 H   0  0  0  0  0  0  0  0  0  0  0  0
  2  1  2  0
  3  2  1  0
  4  3  2  0
  4  5  1  0
  5  6  2  0
  6  1  1  0
  7  3  1  0
  7  8  1  0
  9  8  1  0
 10  9  1  0
 11 12  1  0
 11 10  1  0
 12  7  1  0
 13 12  1  0
  1 14  1  0
  2 15  1  0
  5 16  1  0
  8 17  1  0
  8 18  1  0
  9 19  1  0
  9 20  1  0
 11 21  1  0
 11 22  1  0
 12 23  1  1
 13 24  1  0
M  ISO  8  14  14  15  14  16  14  17  13  18  13  19  13  20  13  21  13
M  ISO  3  22  13  23  13  24   3
M  END
>  <minimizedAffinity>  (1) 
-3.53015733

>  <minimizedRMSD>  (1) 
0.635209799

$$$$
