
     RDKit          3D

 39 41  0  0  1  0  0  0  0  0999 V2000
   40.0180   31.8280   40.3380 C   0  0  0  0  0  0  0  0  0  0  0  0
   39.6000   30.6410   41.0100 C   0  0  0  0  0  0  0  0  0  0  0  0
   38.2510   30.4920   41.2560 C   0  0  0  0  0  0  0  0  0  0  0  0
   37.3710   31.4670   40.8560 N   0  0  0  0  0  0  0  0  0  0  0  0
   37.8120   32.5800   40.2210 C   0  0  0  0  0  0  0  0  0  0  0  0
   39.1270   32.7700   39.9560 N   0  0  0  0  0  0  0  0  0  0  0  0
   36.8560   33.5610   39.8380 N   0  0  0  0  0  0  0  0  0  0  0  0
   37.7570   29.3450   41.9170 N   0  0  0  0  0  0  0  0  0  0  0  0
   38.1800   29.0190   43.2430 C   0  0  0  0  0  0  0  0  0  0  0  0
   37.1070   28.1150   43.8540 C   0  0  0  0  0  0  0  0  0  0  0  0
   36.8680   26.9330   43.0920 N   0  0  0  0  0  0  0  0  0  0  0  0
   37.0490   27.0460   41.6770 C   0  0  0  0  0  0  0  0  0  0  0  0
   36.8090   28.4790   41.2580 C   0  0  2  0  0  0  0  0  0  0  0  0
   36.7010   28.6580   39.8480 N   0  0  0  0  0  0  0  0  0  0  0  0
   37.6920   28.3760   38.9880 C   0  0  0  0  0  0  0  0  0  0  0  0
   37.5780   28.5530   37.6130 C   0  0  0  0  0  0  0  0  0  0  0  0
   38.6600   28.2500   36.6430 C   0  0  0  0  0  0  0  0  0  0  0  0
   36.3740   29.0440   37.1470 C   0  0  0  0  0  0  0  0  0  0  0  0
   36.1690   29.2410   35.9030 O   0  0  0  0  0  0  0  0  0  0  0  0
   35.3460   29.3440   37.9560 N   0  0  0  0  0  0  0  0  0  0  0  0
   35.5620   29.1350   39.2680 C   0  0  0  0  0  0  0  0  0  0  0  0
   34.6150   29.4050   40.0730 O   0  0  0  0  0  0  0  0  0  0  0  0
   41.0868   31.9797   40.1265 H   0  0  0  0  0  0  0  0  0  0  0  0
   40.3254   29.8743   41.3199 H   0  0  0  0  0  0  0  0  0  0  0  0
   37.1622   34.4171   39.3539 H   0  0  0  0  0  0  0  0  0  0  0  0
   35.8575   33.4154   40.0447 H   0  0  0  0  0  0  0  0  0  0  0  0
   39.1441   28.4903   43.2112 H   0  0  0  0  0  0  0  0  0  0  0  0
   38.3103   29.9303   43.8451 H   0  0  0  0  0  0  0  0  0  0  0  0
   37.4308   27.8209   44.8633 H   0  0  0  0  0  0  0  0  0  0  0  0
   36.1681   28.6879   43.8720 H   0  0  0  0  0  0  0  0  0  0  0  0
   37.5101   26.2037   43.4337 H   0  0  0  0  0  0  0  0  0  0  0  0
   38.0757   26.7524   41.4128 H   0  0  0  0  0  0  0  0  0  0  0  0
   36.3377   26.3855   41.1595 H   0  0  0  0  0  0  0  0  0  0  0  0
   35.8087   28.7792   41.6034 H   0  0  0  0  0  0  0  0  0  0  0  0
   38.6392   27.9865   39.3894 H   0  0  0  0  0  0  0  0  0  0  0  0
   39.5799   27.9924   37.1884 H   0  0  0  0  0  0  0  0  0  0  0  0
   38.3588   27.4017   36.0109 H   0  0  0  0  0  0  0  0  0  0  0  0
   38.8432   29.1314   36.0109 H   0  0  0  0  0  0  0  0  0  0  0  0
   34.4523   29.7094   37.5972 H   0  0  0  0  0  0  0  0  0  0  0  0
  1  2  2  0
  2  3  1  0
  3  8  1  0
  4  3  2  0
  5  4  1  0
  6  5  2  0
  6  1  1  0
  7  5  1  0
  8  9  1  0
  9 10  1  0
 11 10  1  0
 12 11  1  0
 13 12  1  0
 13  8  1  0
 14 13  1  0
 15 14  1  0
 16 15  2  0
 17 16  1  0
 18 16  1  0
 18 20  1  0
 19 18  2  0
 20 21  1  0
 21 14  1  0
 21 22  2  0
  1 23  1  0
  2 24  1  0
  7 25  1  0
  7 26  1  0
  9 27  1  0
  9 28  1  0
 10 29  1  0
 10 30  1  0
 11 31  1  0
 12 32  1  0
 12 33  1  0
 13 34  1  1
 15 35  1  0
 17 36  1  0
 17 37  1  0
 17 38  1  0
 20 39  1  0
M  ISO  8  23  14  24  14  27  13  28  13  29  13  30  13  31   5  32  13
M  ISO  7  33  13  34  13  35  14  36   8  37   8  38   8  39   9
M  END
>  <minimizedAffinity>  (1) 
-5.90846205

>  <minimizedRMSD>  (1) 
1.24196076

$$$$
