
     RDKit          3D

 50 54  0  0  1  0  0  0  0  0999 V2000
   36.4140   28.4040   39.1520 N   0  0  0  0  0  0  0  0  0  0  0  0
   34.9970   28.3820   39.2300 C   0  0  0  0  0  0  0  0  0  0  0  0
   34.2990   28.9800   38.0090 C   0  0  0  0  0  0  0  0  0  0  0  0
   35.1430   28.9350   36.8920 O   0  0  0  0  0  0  0  0  0  0  0  0
   36.1450   29.8720   37.1870 C   0  0  0  0  0  0  0  0  0  0  0  0
   36.9790   29.4360   38.3750 C   0  0  1  0  0  0  0  0  0  0  0  0
   38.4450   27.3110   43.6650 C   0  0  0  0  0  0  0  0  0  0  0  0
   38.1760   26.5300   42.5230 C   0  0  0  0  0  0  0  0  0  0  0  0
   37.4470   27.0910   41.4810 C   0  0  0  0  0  0  0  0  0  0  0  0
   37.0480   28.3570   41.6430 N   0  0  0  0  0  0  0  0  0  0  0  0
   37.3000   29.1170   42.7360 C   0  0  0  0  0  0  0  0  0  0  0  0
   37.9980   28.5750   43.7320 N   0  0  0  0  0  0  0  0  0  0  0  0
   37.1320   26.3820   40.3020 N   0  0  0  0  0  0  0  0  0  0  0  0
   36.8730   24.9640   40.3500 C   0  0  0  0  0  0  0  0  0  0  0  0
   37.1440   24.2540   39.0580 C   0  0  0  0  0  0  0  0  0  0  0  0
   37.4030   25.1020   37.9870 O   0  0  0  0  0  0  0  0  0  0  0  0
   36.6420   26.2340   37.9830 C   0  0  0  0  0  0  0  0  0  0  0  0
   37.0840   27.1280   39.0740 C   0  0  1  0  0  0  0  0  0  0  0  0
   37.3410   30.6550   39.0390 N   0  0  0  0  0  0  0  0  0  0  0  0
   36.7130   31.2830   40.0690 C   0  0  0  0  0  0  0  0  0  0  0  0
   37.3380   32.4150   40.4420 N   0  0  0  0  0  0  0  0  0  0  0  0
   38.4210   32.5380   39.6270 C   0  0  0  0  0  0  0  0  0  0  0  0
   39.4550   33.4700   39.4980 C   0  0  0  0  0  0  0  0  0  0  0  0
   39.4640   34.4710   40.2860 O   0  0  0  0  0  0  0  0  0  0  0  0
   40.4190   33.3140   38.5620 N   0  0  0  0  0  0  0  0  0  0  0  0
   40.3790   32.2420   37.7420 C   0  0  0  0  0  0  0  0  0  0  0  0
   41.3820   32.0340   36.7320 N   0  0  0  0  0  0  0  0  0  0  0  0
   39.3820   31.3280   37.8550 N   0  0  0  0  0  0  0  0  0  0  0  0
   38.4060   31.4690   38.7900 C   0  0  0  0  0  0  0  0  0  0  0  0
   34.6724   27.3364   39.3367 H   0  0  0  0  0  0  0  0  0  0  0  0
   34.7156   29.0024   40.0937 H   0  0  0  0  0  0  0  0  0  0  0  0
   33.3856   28.4052   37.7962 H   0  0  0  0  0  0  0  0  0  0  0  0
   34.0452   30.0289   38.2218 H   0  0  0  0  0  0  0  0  0  0  0  0
   36.8008   29.9822   36.3108 H   0  0  0  0  0  0  0  0  0  0  0  0
   35.6616   30.8281   37.4363 H   0  0  0  0  0  0  0  0  0  0  0  0
   37.8940   28.9050   38.0737 H   0  0  0  0  0  0  0  0  0  0  0  0
   39.0205   26.8853   44.5003 H   0  0  0  0  0  0  0  0  0  0  0  0
   38.5372   25.4931   42.4574 H   0  0  0  0  0  0  0  0  0  0  0  0
   36.9378   30.1537   42.7989 H   0  0  0  0  0  0  0  0  0  0  0  0
   37.5110   24.5214   41.1291 H   0  0  0  0  0  0  0  0  0  0  0  0
   35.8008   24.8419   40.5632 H   0  0  0  0  0  0  0  0  0  0  0  0
   38.0172   23.6002   39.1998 H   0  0  0  0  0  0  0  0  0  0  0  0
   36.2307   23.6950   38.8060 H   0  0  0  0  0  0  0  0  0  0  0  0
   36.7560   26.7491   37.0178 H   0  0  0  0  0  0  0  0  0  0  0  0
   35.5856   25.9665   38.1331 H   0  0  0  0  0  0  0  0  0  0  0  0
   38.1044   27.4630   38.8361 H   0  0  0  0  0  0  0  0  0  0  0  0
   35.7952   30.9071   40.5448 H   0  0  0  0  0  0  0  0  0  0  0  0
   41.1765   34.0065   38.4756 H   0  0  0  0  0  0  0  0  0  0  0  0
   42.1508   32.7107   36.6226 H   0  0  0  0  0  0  0  0  0  0  0  0
   41.3314   31.2084   36.1183 H   0  0  0  0  0  0  0  0  0  0  0  0
  1  2  1  0
  3  2  1  0
  4  5  1  0
  4  3  1  0
  5  6  1  0
  6 19  1  0
  6  1  1  0
  7 12  2  0
  8  7  1  0
  9 10  1  0
  9  8  2  0
 10 11  2  0
 11 12  1  0
 13 14  1  0
 13  9  1  0
 15 14  1  0
 16 15  1  0
 17 16  1  0
 17 18  1  0
 18  1  1  0
 18 13  1  0
 19 20  1  0
 20 21  2  0
 22 21  1  0
 23 22  1  0
 23 24  2  0
 25 23  1  0
 26 28  2  0
 26 25  1  0
 27 26  1  0
 28 29  1  0
 29 19  1  0
 29 22  2  0
  2 30  1  0
  2 31  1  0
  3 32  1  0
  3 33  1  0
  5 34  1  0
  5 35  1  0
  6 36  1  6
  7 37  1  0
  8 38  1  0
 11 39  1  0
 14 40  1  0
 14 41  1  0
 15 42  1  0
 15 43  1  0
 17 44  1  0
 17 45  1  0
 18 46  1  6
 20 47  1  0
 25 48  1  0
 27 49  1  0
 27 50  1  0
M  ISO  8  30  13  31  13  32  13  33  13  34  13  35  13  36  13  37  14
M  ISO  8  38  14  39  14  40  13  41  13  42  13  43  13  44  13  45  13
M  ISO  3  46  13  47  14  48   9
M  END
>  <minimizedAffinity>  (1) 
-6.54996681

>  <minimizedRMSD>  (1) 
0.560381293

$$$$
