
     RDKit          3D

 46 49  0  0  1  0  0  0  0  0999 V2000
   38.4030   27.4530   43.6910 C   0  0  0  0  0  0  0  0  0  0  0  0
   38.3000   26.7050   42.5100 C   0  0  0  0  0  0  0  0  0  0  0  0
   37.7050   27.2660   41.3830 C   0  0  0  0  0  0  0  0  0  0  0  0
   37.2640   28.5220   41.5290 N   0  0  0  0  0  0  0  0  0  0  0  0
   37.3490   29.2670   42.6520 C   0  0  0  0  0  0  0  0  0  0  0  0
   37.9220   28.7150   43.7210 N   0  0  0  0  0  0  0  0  0  0  0  0
   37.5640   26.5770   40.1600 N   0  0  0  0  0  0  0  0  0  0  0  0
   37.3440   25.1590   40.1550 C   0  0  0  0  0  0  0  0  0  0  0  0
   37.8180   24.4930   38.8820 C   0  0  0  0  0  0  0  0  0  0  0  0
   38.1760   25.3660   37.8810 O   0  0  0  0  0  0  0  0  0  0  0  0
   37.3700   26.4710   37.8050 C   0  0  0  0  0  0  0  0  0  0  0  0
   37.6530   27.3520   38.9610 C   0  0  1  0  0  0  0  0  0  0  0  0
   36.9590   28.6150   38.9720 N   0  0  0  0  0  0  0  0  0  0  0  0
   35.5420   28.5480   38.8920 C   0  0  0  0  0  0  0  0  0  0  0  0
   34.9730   29.1460   37.6060 C   0  0  0  0  0  0  0  0  0  0  0  0
   35.9360   29.1570   36.5960 O   0  0  0  0  0  0  0  0  0  0  0  0
   36.8640   30.1120   37.0200 C   0  0  0  0  0  0  0  0  0  0  0  0
   37.5890   29.6630   38.2700 C   0  0  1  0  0  0  0  0  0  0  0  0
   37.9270   30.8490   38.9840 N   0  0  0  0  0  0  0  0  0  0  0  0
   39.1570   31.4170   38.9720 C   0  0  0  0  0  0  0  0  0  0  0  0
   39.4670   32.5780   39.6760 C   0  0  0  0  0  0  0  0  0  0  0  0
   38.4740   33.1730   40.4210 C   0  0  0  0  0  0  0  0  0  0  0  0
   38.7580   34.2210   41.0570 O   0  0  0  0  0  0  0  0  0  0  0  0
   37.2540   32.6380   40.4540 N   0  0  0  0  0  0  0  0  0  0  0  0
   37.0310   31.5310   39.7570 C   0  0  0  0  0  0  0  0  0  0  0  0
   35.8620   31.0150   39.7850 O   0  0  0  0  0  0  0  0  0  0  0  0
   38.8713   27.0163   44.5854 H   0  0  0  0  0  0  0  0  0  0  0  0
   38.6886   25.6766   42.4736 H   0  0  0  0  0  0  0  0  0  0  0  0
   36.9584   30.2949   42.6833 H   0  0  0  0  0  0  0  0  0  0  0  0
   37.8852   24.7171   41.0046 H   0  0  0  0  0  0  0  0  0  0  0  0
   36.2591   24.9935   40.2293 H   0  0  0  0  0  0  0  0  0  0  0  0
   38.6923   23.8711   39.1245 H   0  0  0  0  0  0  0  0  0  0  0  0
   36.9680   23.9092   38.4990 H   0  0  0  0  0  0  0  0  0  0  0  0
   37.5734   27.0127   36.8695 H   0  0  0  0  0  0  0  0  0  0  0  0
   36.3139   26.1636   37.8207 H   0  0  0  0  0  0  0  0  0  0  0  0
   38.6862   27.7181   38.8694 H   0  0  0  0  0  0  0  0  0  0  0  0
   35.2401   27.4917   38.9476 H   0  0  0  0  0  0  0  0  0  0  0  0
   35.1433   29.1416   39.7278 H   0  0  0  0  0  0  0  0  0  0  0  0
   34.1131   28.5436   37.2778 H   0  0  0  0  0  0  0  0  0  0  0  0
   34.6608   30.1815   37.8067 H   0  0  0  0  0  0  0  0  0  0  0  0
   37.6000   30.2757   36.2191 H   0  0  0  0  0  0  0  0  0  0  0  0
   36.3226   31.0416   37.2497 H   0  0  0  0  0  0  0  0  0  0  0  0
   38.5265   29.1380   38.0347 H   0  0  0  0  0  0  0  0  0  0  0  0
   39.9490   30.9381   38.3775 H   0  0  0  0  0  0  0  0  0  0  0  0
   40.4787   33.0082   39.6378 H   0  0  0  0  0  0  0  0  0  0  0  0
   36.5021   33.0733   41.0072 H   0  0  0  0  0  0  0  0  0  0  0  0
  1  6  2  0
  2  1  1  0
  3  4  1  0
  3  2  2  0
  4  5  2  0
  5  6  1  0
  7  3  1  0
  8  7  1  0
  9  8  1  0
 10  9  1  0
 11 10  1  0
 11 12  1  0
 12 13  1  0
 12  7  1  0
 13 14  1  0
 15 14  1  0
 16 17  1  0
 16 15  1  0
 17 18  1  0
 18 13  1  0
 18 19  1  0
 19 25  1  0
 20 19  1  0
 20 21  2  0
 21 22  1  0
 22 24  1  0
 22 23  2  0
 25 26  2  0
 25 24  1  0
  1 27  1  0
  2 28  1  0
  5 29  1  0
  8 30  1  0
  8 31  1  0
  9 32  1  0
  9 33  1  0
 11 34  1  0
 11 35  1  0
 12 36  1  6
 14 37  1  0
 14 38  1  0
 15 39  1  0
 15 40  1  0
 17 41  1  0
 17 42  1  0
 18 43  1  6
 20 44  1  0
 21 45  1  0
 24 46  1  0
M  ISO  8  27  14  28  14  29  14  30  13  31  13  32  13  33  13  34  13
M  ISO  8  35  13  36  13  37  13  38  13  39  13  40  13  41  13  42  13
M  ISO  4  43  13  44  14  45  14  46   9
M  END
>  <minimizedAffinity>  (1) 
-5.81323481

>  <minimizedRMSD>  (1) 
0.505416512

$$$$
