
     RDKit          3D

 49 53  0  0  1  0  0  0  0  0999 V2000
   36.3690   29.1250   39.3260 N   0  0  0  0  0  0  0  0  0  0  0  0
   35.0080   29.2270   39.6600 C   0  0  0  0  0  0  0  0  0  0  0  0
   34.0590   28.8110   38.5380 C   0  0  0  0  0  0  0  0  0  0  0  0
   34.7060   28.0040   37.6190 O   0  0  0  0  0  0  0  0  0  0  0  0
   35.6200   28.8630   36.9860 C   0  0  0  0  0  0  0  0  0  0  0  0
   36.6630   29.3510   37.9580 C   0  0  2  0  0  0  0  0  0  0  0  0
   39.8500   31.5140   42.1540 C   0  0  0  0  0  0  0  0  0  0  0  0
   39.3500   30.1990   42.1340 C   0  0  0  0  0  0  0  0  0  0  0  0
   38.2560   29.8940   41.3390 C   0  0  0  0  0  0  0  0  0  0  0  0
   37.7270   30.9060   40.6140 N   0  0  0  0  0  0  0  0  0  0  0  0
   38.2000   32.1690   40.6270 C   0  0  0  0  0  0  0  0  0  0  0  0
   39.2570   32.4460   41.4010 N   0  0  0  0  0  0  0  0  0  0  0  0
   37.7070   28.5930   41.2800 N   0  0  0  0  0  0  0  0  0  0  0  0
   37.6960   27.7470   42.4380 C   0  0  0  0  0  0  0  0  0  0  0  0
   37.6280   26.2700   42.1120 C   0  0  0  0  0  0  0  0  0  0  0  0
   37.4300   25.9920   40.7810 O   0  0  0  0  0  0  0  0  0  0  0  0
   36.5270   26.8410   40.1840 C   0  0  0  0  0  0  0  0  0  0  0  0
   37.1670   28.1660   40.0130 C   0  0  1  0  0  0  0  0  0  0  0  0
   37.9220   28.7910   37.5030 N   0  0  0  0  0  0  0  0  0  0  0  0
   38.1200   27.5400   37.0080 C   0  0  0  0  0  0  0  0  0  0  0  0
   39.4360   27.3850   36.6900 N   0  0  0  0  0  0  0  0  0  0  0  0
   40.0230   28.5530   36.9980 C   0  0  0  0  0  0  0  0  0  0  0  0
   41.3400   28.9730   36.8900 C   0  0  0  0  0  0  0  0  0  0  0  0
   41.7590   30.2160   37.2590 N   0  0  0  0  0  0  0  0  0  0  0  0
   40.8160   31.0580   37.7540 C   0  0  0  0  0  0  0  0  0  0  0  0
   39.5350   30.6720   37.8680 N   0  0  0  0  0  0  0  0  0  0  0  0
   39.1100   29.4320   37.5010 C   0  0  0  0  0  0  0  0  0  0  0  0
   42.3770   28.1410   36.3800 N   0  0  0  0  0  0  0  0  0  0  0  0
   34.8166   28.5831   40.5311 H   0  0  0  0  0  0  0  0  0  0  0  0
   34.8101   30.2893   39.8660 H   0  0  0  0  0  0  0  0  0  0  0  0
   33.2115   28.2581   38.9694 H   0  0  0  0  0  0  0  0  0  0  0  0
   33.7045   29.7162   38.0233 H   0  0  0  0  0  0  0  0  0  0  0  0
   36.1163   28.3206   36.1678 H   0  0  0  0  0  0  0  0  0  0  0  0
   35.0713   29.7322   36.5944 H   0  0  0  0  0  0  0  0  0  0  0  0
   36.7034   30.4502   37.9497 H   0  0  0  0  0  0  0  0  0  0  0  0
   40.7167   31.7716   42.7805 H   0  0  0  0  0  0  0  0  0  0  0  0
   39.8244   29.4174   42.7456 H   0  0  0  0  0  0  0  0  0  0  0  0
   37.7286   32.9530   40.0162 H   0  0  0  0  0  0  0  0  0  0  0  0
   38.6148   27.9337   43.0133 H   0  0  0  0  0  0  0  0  0  0  0  0
   36.7873   27.9928   43.0071 H   0  0  0  0  0  0  0  0  0  0  0  0
   38.5748   25.8047   42.4237 H   0  0  0  0  0  0  0  0  0  0  0  0
   36.7563   25.8691   42.6500 H   0  0  0  0  0  0  0  0  0  0  0  0
   36.2352   26.4407   39.2018 H   0  0  0  0  0  0  0  0  0  0  0  0
   35.6282   26.9355   40.8111 H   0  0  0  0  0  0  0  0  0  0  0  0
   38.0105   28.0636   39.3144 H   0  0  0  0  0  0  0  0  0  0  0  0
   37.3406   26.7738   36.8838 H   0  0  0  0  0  0  0  0  0  0  0  0
   41.1059   32.0721   38.0665 H   0  0  0  0  0  0  0  0  0  0  0  0
   43.3411   28.4984   36.3192 H   0  0  0  0  0  0  0  0  0  0  0  0
   42.1630   27.1817   36.0719 H   0  0  0  0  0  0  0  0  0  0  0  0
  1  2  1  0
  1 18  1  0
  3  2  1  0
  4  3  1  0
  5  4  1  0
  5  6  1  0
  6  1  1  0
  8  7  2  0
  9  8  1  0
 10 11  1  0
 10  9  2  0
 11 12  2  0
 12  7  1  0
 13  9  1  0
 13 14  1  0
 15 14  1  0
 16 15  1  0
 17 16  1  0
 18 17  1  0
 18 13  1  0
 19  6  1  0
 20 19  1  0
 21 22  1  0
 21 20  2  0
 22 27  2  0
 23 22  1  0
 23 24  2  0
 24 25  1  0
 25 26  2  0
 27 19  1  0
 27 26  1  0
 28 23  1  0
  2 29  1  0
  2 30  1  0
  3 31  1  0
  3 32  1  0
  5 33  1  0
  5 34  1  0
  6 35  1  1
  7 36  1  0
  8 37  1  0
 11 38  1  0
 14 39  1  0
 14 40  1  0
 15 41  1  0
 15 42  1  0
 17 43  1  0
 17 44  1  0
 18 45  1  6
 20 46  1  0
 25 47  1  0
 28 48  1  0
 28 49  1  0
M  ISO  8  29  13  30  13  31  13  32  13  33  13  34  13  35  13  36  14
M  ISO  8  37  14  38  14  39  13  40  13  41  13  42  13  43  13  44  13
M  ISO  3  45  13  46  14  47  14
M  END
>  <minimizedAffinity>  (1) 
-5.20978022

>  <minimizedRMSD>  (1) 
2.42778087

$$$$
