
     RDKit          3D

 39 41  0  0  1  0  0  0  0  0999 V2000
   39.8430   32.0680   41.6980 C   0  0  0  0  0  0  0  0  0  0  0  0
   39.4370   30.7510   42.0510 C   0  0  0  0  0  0  0  0  0  0  0  0
   38.1840   30.3130   41.6330 C   0  0  0  0  0  0  0  0  0  0  0  0
   37.4230   31.1630   40.9160 N   0  0  0  0  0  0  0  0  0  0  0  0
   37.8300   32.4050   40.5940 C   0  0  0  0  0  0  0  0  0  0  0  0
   39.0410   32.8690   40.9800 N   0  0  0  0  0  0  0  0  0  0  0  0
   36.9400   33.2230   39.8280 N   0  0  0  0  0  0  0  0  0  0  0  0
   37.7430   29.0170   41.9550 N   0  0  0  0  0  0  0  0  0  0  0  0
   37.5840   28.6340   43.3240 C   0  0  0  0  0  0  0  0  0  0  0  0
   36.6680   27.4350   43.3790 C   0  0  0  0  0  0  0  0  0  0  0  0
   37.0120   26.3470   42.5230 N   0  0  0  0  0  0  0  0  0  0  0  0
   37.8410   26.6790   41.3970 C   0  0  0  0  0  0  0  0  0  0  0  0
   37.4620   28.0800   40.9280 C   0  0  1  0  0  0  0  0  0  0  0  0
   36.1090   27.9990   40.3580 C   0  0  0  0  0  0  0  0  0  0  0  0
   36.2970   28.1150   38.8380 C   0  0  0  0  0  0  0  0  0  0  0  0
   35.0050   28.6420   38.2760 C   0  0  0  0  0  0  0  0  0  0  0  0
   34.1790   29.1090   39.4470 C   0  0  0  0  0  0  0  0  0  0  0  0
   35.1830   29.1490   40.6090 C   0  0  0  0  0  0  0  0  0  0  0  0
   40.8292   32.4351   42.0185 H   0  0  0  0  0  0  0  0  0  0  0  0
   40.0965   30.0959   42.6391 H   0  0  0  0  0  0  0  0  0  0  0  0
   37.2181   34.1788   39.5634 H   0  0  0  0  0  0  0  0  0  0  0  0
   36.0213   32.8559   39.5413 H   0  0  0  0  0  0  0  0  0  0  0  0
   38.5628   28.3740   43.7533 H   0  0  0  0  0  0  0  0  0  0  0  0
   37.1542   29.4654   43.9020 H   0  0  0  0  0  0  0  0  0  0  0  0
   36.6641   27.0614   44.4136 H   0  0  0  0  0  0  0  0  0  0  0  0
   35.6892   27.7924   43.0265 H   0  0  0  0  0  0  0  0  0  0  0  0
   37.5114   25.6453   43.0879 H   0  0  0  0  0  0  0  0  0  0  0  0
   38.8998   26.6588   41.6944 H   0  0  0  0  0  0  0  0  0  0  0  0
   37.6918   25.9515   40.5855 H   0  0  0  0  0  0  0  0  0  0  0  0
   38.0688   28.4811   40.1028 H   0  0  0  0  0  0  0  0  0  0  0  0
   35.6786   27.0876   40.7986 H   0  0  0  0  0  0  0  0  0  0  0  0
   37.1193   28.8093   38.6106 H   0  0  0  0  0  0  0  0  0  0  0  0
   36.5487   27.1391   38.3972 H   0  0  0  0  0  0  0  0  0  0  0  0
   35.2034   29.4817   37.5937 H   0  0  0  0  0  0  0  0  0  0  0  0
   34.4764   27.8642   37.7054 H   0  0  0  0  0  0  0  0  0  0  0  0
   33.7590   30.1078   39.2571 H   0  0  0  0  0  0  0  0  0  0  0  0
   33.3188   28.4541   39.6497 H   0  0  0  0  0  0  0  0  0  0  0  0
   34.6656   29.0262   41.5719 H   0  0  0  0  0  0  0  0  0  0  0  0
   35.7187   30.1084   40.6605 H   0  0  0  0  0  0  0  0  0  0  0  0
  1  2  2  0
  3  8  1  0
  3  2  1  0
  4  3  2  0
  5  4  1  0
  5  6  2  0
  6  1  1  0
  7  5  1  0
  8  9  1  0
  9 10  1  0
 11 10  1  0
 12 11  1  0
 13 12  1  0
 13  8  1  0
 14 18  1  0
 14 13  1  0
 15 14  1  0
 16 15  1  0
 16 17  1  0
 17 18  1  0
  1 19  1  0
  2 20  1  0
  7 21  1  0
  7 22  1  0
  9 23  1  0
  9 24  1  0
 10 25  1  0
 10 26  1  0
 11 27  1  0
 12 28  1  0
 12 29  1  0
 13 30  1  6
 14 31  1  0
 15 32  1  0
 15 33  1  0
 16 34  1  0
 16 35  1  0
 17 36  1  0
 17 37  1  0
 18 38  1  0
 18 39  1  0
M  ISO  8  19  14  20  14  23  13  24  13  25  13  26  13  27   5  28  13
M  ISO  8  29  13  30  13  31  13  32  13  33  13  34  13  35  13  36  13
M  ISO  3  37  13  38  13  39  13
M  END
>  <minimizedAffinity>  (1) 
-5.77080107

>  <minimizedRMSD>  (1) 
0.462814689

$$$$
