
     RDKit          3D

 43 46  0  0  1  0  0  0  0  0999 V2000
   38.2430   27.4590   43.7370 C   0  0  0  0  0  0  0  0  0  0  0  0
   38.0680   26.6830   42.5900 C   0  0  0  0  0  0  0  0  0  0  0  0
   37.4060   27.1960   41.4880 C   0  0  0  0  0  0  0  0  0  0  0  0
   36.9650   28.4530   41.6140 N   0  0  0  0  0  0  0  0  0  0  0  0
   37.1160   29.2300   42.7010 C   0  0  0  0  0  0  0  0  0  0  0  0
   37.7550   28.7200   43.7510 N   0  0  0  0  0  0  0  0  0  0  0  0
   37.2000   26.4650   40.3030 N   0  0  0  0  0  0  0  0  0  0  0  0
   36.9750   25.0550   40.3470 C   0  0  0  0  0  0  0  0  0  0  0  0
   37.3880   24.3370   39.0770 C   0  0  0  0  0  0  0  0  0  0  0  0
   37.6690   25.1690   38.0230 O   0  0  0  0  0  0  0  0  0  0  0  0
   36.8770   26.2810   37.9580 C   0  0  0  0  0  0  0  0  0  0  0  0
   37.2300   27.1980   39.0610 C   0  0  1  0  0  0  0  0  0  0  0  0
   36.5530   28.4690   39.0710 N   0  0  0  0  0  0  0  0  0  0  0  0
   35.1620   28.4350   38.7680 C   0  0  0  0  0  0  0  0  0  0  0  0
   34.7950   29.1420   37.4690 C   0  0  0  0  0  0  0  0  0  0  0  0
   35.8970   29.2060   36.6160 O   0  0  0  0  0  0  0  0  0  0  0  0
   36.7610   30.1040   37.2450 C   0  0  0  0  0  0  0  0  0  0  0  0
   37.2850   29.5520   38.5530 C   0  0  1  0  0  0  0  0  0  0  0  0
   37.5310   30.7260   39.3800 C   0  0  0  0  0  0  0  0  0  0  0  0
   38.7450   31.1990   39.8960 C   0  0  0  0  0  0  0  0  0  0  0  0
   38.4720   32.3430   40.6190 C   0  0  0  0  0  0  0  0  0  0  0  0
   37.1520   32.5000   40.5110 N   0  0  0  0  0  0  0  0  0  0  0  0
   36.5600   31.5640   39.7870 N   0  0  0  0  0  0  0  0  0  0  0  0
   38.7684   27.0521   44.6136 H   0  0  0  0  0  0  0  0  0  0  0  0
   38.4594   25.6554   42.5617 H   0  0  0  0  0  0  0  0  0  0  0  0
   36.7228   30.2571   42.7217 H   0  0  0  0  0  0  0  0  0  0  0  0
   37.5500   24.6366   41.1863 H   0  0  0  0  0  0  0  0  0  0  0  0
   35.8921   24.9036   40.4669 H   0  0  0  0  0  0  0  0  0  0  0  0
   38.2869   23.7416   39.2948 H   0  0  0  0  0  0  0  0  0  0  0  0
   36.5300   23.7204   38.7710 H   0  0  0  0  0  0  0  0  0  0  0  0
   37.0340   26.7879   36.9945 H   0  0  0  0  0  0  0  0  0  0  0  0
   35.8210   25.9865   38.0478 H   0  0  0  0  0  0  0  0  0  0  0  0
   38.2596   27.5455   38.8899 H   0  0  0  0  0  0  0  0  0  0  0  0
   34.8503   27.3830   38.6896 H   0  0  0  0  0  0  0  0  0  0  0  0
   34.6457   28.9695   39.5790 H   0  0  0  0  0  0  0  0  0  0  0  0
   33.9851   28.5877   36.9722 H   0  0  0  0  0  0  0  0  0  0  0  0
   34.4679   30.1659   37.7029 H   0  0  0  0  0  0  0  0  0  0  0  0
   37.6114   30.3077   36.5776 H   0  0  0  0  0  0  0  0  0  0  0  0
   36.2006   31.0256   37.4611 H   0  0  0  0  0  0  0  0  0  0  0  0
   38.2354   29.0069   38.4554 H   0  0  0  0  0  0  0  0  0  0  0  0
   39.7351   30.7420   39.7513 H   0  0  0  0  0  0  0  0  0  0  0  0
   39.1837   32.9819   41.1624 H   0  0  0  0  0  0  0  0  0  0  0  0
   36.6404   33.2783   40.9508 H   0  0  0  0  0  0  0  0  0  0  0  0
  1  6  2  0
  2  1  1  0
  3  4  1  0
  3  2  2  0
  4  5  2  0
  5  6  1  0
  7  8  1  0
  7  3  1  0
  9  8  1  0
 10  9  1  0
 11 10  1  0
 11 12  1  0
 12 13  1  0
 12  7  1  0
 13 14  1  0
 15 14  1  0
 16 17  1  0
 16 15  1  0
 17 18  1  0
 18 13  1  0
 18 19  1  0
 19 23  2  0
 19 20  1  0
 20 21  2  0
 22 21  1  0
 23 22  1  0
  1 24  1  0
  2 25  1  0
  5 26  1  0
  8 27  1  0
  8 28  1  0
  9 29  1  0
  9 30  1  0
 11 31  1  0
 11 32  1  0
 12 33  1  6
 14 34  1  0
 14 35  1  0
 15 36  1  0
 15 37  1  0
 17 38  1  0
 17 39  1  0
 18 40  1  6
 20 41  1  0
 21 42  1  0
 22 43  1  0
M  ISO  8  24  14  25  14  26  14  27  13  28  13  29  13  30  13  31  13
M  ISO  8  32  13  33  13  34  13  35  13  36  13  37  13  38  13  39  13
M  ISO  4  40  13  41  14  42  14  43   9
M  END
>  <minimizedAffinity>  (1) 
-5.19000483

>  <minimizedRMSD>  (1) 
0.38386777

$$$$
