
     RDKit          3D

 43 46  0  0  1  0  0  0  0  0999 V2000
   38.2930   27.4630   43.6030 C   0  0  0  0  0  0  0  0  0  0  0  0
   38.0300   26.6320   42.4900 C   0  0  0  0  0  0  0  0  0  0  0  0
   37.3710   27.1860   41.3950 C   0  0  0  0  0  0  0  0  0  0  0  0
   37.0360   28.4760   41.4860 N   0  0  0  0  0  0  0  0  0  0  0  0
   37.2770   29.2880   42.5410 C   0  0  0  0  0  0  0  0  0  0  0  0
   37.9090   28.7590   43.5910 N   0  0  0  0  0  0  0  0  0  0  0  0
   37.0660   26.4350   40.2360 N   0  0  0  0  0  0  0  0  0  0  0  0
   36.7150   25.0490   40.3480 C   0  0  0  0  0  0  0  0  0  0  0  0
   37.0230   24.2560   39.0990 C   0  0  0  0  0  0  0  0  0  0  0  0
   37.3650   25.0250   38.0010 O   0  0  0  0  0  0  0  0  0  0  0  0
   36.6700   26.1960   37.9150 C   0  0  0  0  0  0  0  0  0  0  0  0
   37.1280   27.1200   38.9730 C   0  0  1  0  0  0  0  0  0  0  0  0
   36.5480   28.4420   38.9540 N   0  0  0  0  0  0  0  0  0  0  0  0
   35.1390   28.4990   38.7520 C   0  0  0  0  0  0  0  0  0  0  0  0
   34.7290   29.1530   37.4400 C   0  0  0  0  0  0  0  0  0  0  0  0
   35.7620   29.0870   36.5130 O   0  0  0  0  0  0  0  0  0  0  0  0
   36.7420   29.9460   37.0170 C   0  0  0  0  0  0  0  0  0  0  0  0
   37.3160   29.4380   38.3250 C   0  0  1  0  0  0  0  0  0  0  0  0
   37.6600   30.6500   39.0660 C   0  0  0  0  0  0  0  0  0  0  0  0
   38.9350   31.0030   39.4970 C   0  0  0  0  0  0  0  0  0  0  0  0
   38.9100   32.1940   40.1580 N   0  0  0  0  0  0  0  0  0  0  0  0
   37.6210   32.5810   40.1390 C   0  0  0  0  0  0  0  0  0  0  0  0
   36.8690   31.6720   39.4940 N   0  0  0  0  0  0  0  0  0  0  0  0
   38.8121   27.0534   44.4821 H   0  0  0  0  0  0  0  0  0  0  0  0
   38.3376   25.5759   42.4887 H   0  0  0  0  0  0  0  0  0  0  0  0
   36.9644   30.3426   42.5338 H   0  0  0  0  0  0  0  0  0  0  0  0
   37.2766   24.6125   41.1871 H   0  0  0  0  0  0  0  0  0  0  0  0
   35.6280   24.9982   40.5087 H   0  0  0  0  0  0  0  0  0  0  0  0
   37.8620   23.5797   39.3196 H   0  0  0  0  0  0  0  0  0  0  0  0
   36.0991   23.7222   38.8316 H   0  0  0  0  0  0  0  0  0  0  0  0
   36.8423   26.6530   36.9294 H   0  0  0  0  0  0  0  0  0  0  0  0
   35.5962   25.9951   38.0436 H   0  0  0  0  0  0  0  0  0  0  0  0
   38.1770   27.3785   38.7660 H   0  0  0  0  0  0  0  0  0  0  0  0
   34.7457   27.4718   38.7645 H   0  0  0  0  0  0  0  0  0  0  0  0
   34.7258   29.1199   39.5606 H   0  0  0  0  0  0  0  0  0  0  0  0
   33.8484   28.6317   37.0367 H   0  0  0  0  0  0  0  0  0  0  0  0
   34.4931   30.2103   37.6311 H   0  0  0  0  0  0  0  0  0  0  0  0
   37.5546   30.0306   36.2804 H   0  0  0  0  0  0  0  0  0  0  0  0
   36.2758   30.9245   37.2048 H   0  0  0  0  0  0  0  0  0  0  0  0
   38.2279   28.8348   38.2040 H   0  0  0  0  0  0  0  0  0  0  0  0
   39.8404   30.4019   39.3271 H   0  0  0  0  0  0  0  0  0  0  0  0
   37.2373   33.5092   40.5875 H   0  0  0  0  0  0  0  0  0  0  0  0
   35.8518   31.7386   39.3465 H   0  0  0  0  0  0  0  0  0  0  0  0
  2  1  2  0
  3  4  2  0
  3  2  1  0
  4  5  1  0
  5  6  2  0
  6  1  1  0
  7  8  1  0
  7  3  1  0
  9  8  1  0
 10  9  1  0
 11 10  1  0
 11 12  1  0
 12  7  1  0
 13 14  1  0
 13 12  1  0
 15 14  1  0
 16 17  1  0
 16 15  1  0
 17 18  1  0
 18 13  1  0
 18 19  1  0
 19 23  1  0
 19 20  2  0
 20 21  1  0
 22 21  2  0
 23 22  1  0
  1 24  1  0
  2 25  1  0
  5 26  1  0
  8 27  1  0
  8 28  1  0
  9 29  1  0
  9 30  1  0
 11 31  1  0
 11 32  1  0
 12 33  1  6
 14 34  1  0
 14 35  1  0
 15 36  1  0
 15 37  1  0
 17 38  1  0
 17 39  1  0
 18 40  1  6
 20 41  1  0
 22 42  1  0
 23 43  1  0
M  ISO  8  24  14  25  14  26  14  27  13  28  13  29  13  30  13  31  13
M  ISO  8  32  13  33  13  34  13  35  13  36  13  37  13  38  13  39  13
M  ISO  4  40  13  41  14  42  14  43   9
M  END
>  <minimizedAffinity>  (1) 
-4.91823149

>  <minimizedRMSD>  (1) 
0.161168709

$$$$
