
     RDKit          3D

 45 48  0  0  1  0  0  0  0  0999 V2000
   38.2880   27.4610   43.6040 C   0  0  0  0  0  0  0  0  0  0  0  0
   38.0060   26.6450   42.5060 C   0  0  0  0  0  0  0  0  0  0  0  0
   37.3390   27.1750   41.4030 C   0  0  0  0  0  0  0  0  0  0  0  0
   37.0070   28.4700   41.4740 N   0  0  0  0  0  0  0  0  0  0  0  0
   37.2740   29.2700   42.5290 C   0  0  0  0  0  0  0  0  0  0  0  0
   37.9190   28.7400   43.5860 N   0  0  0  0  0  0  0  0  0  0  0  0
   37.0250   26.4010   40.2650 N   0  0  0  0  0  0  0  0  0  0  0  0
   36.6920   25.0090   40.3950 C   0  0  0  0  0  0  0  0  0  0  0  0
   36.9460   24.2170   39.1340 C   0  0  0  0  0  0  0  0  0  0  0  0
   37.3150   24.9710   38.0390 O   0  0  0  0  0  0  0  0  0  0  0  0
   36.6030   26.1380   37.9350 C   0  0  0  0  0  0  0  0  0  0  0  0
   37.0720   27.0740   38.9830 C   0  0  1  0  0  0  0  0  0  0  0  0
   36.4910   28.3620   38.9330 N   0  0  0  0  0  0  0  0  0  0  0  0
   35.0850   28.4430   38.6930 C   0  0  0  0  0  0  0  0  0  0  0  0
   34.7240   29.1270   37.3820 C   0  0  0  0  0  0  0  0  0  0  0  0
   35.8170   29.0880   36.5030 O   0  0  0  0  0  0  0  0  0  0  0  0
   36.7460   29.9590   37.0820 C   0  0  0  0  0  0  0  0  0  0  0  0
   37.2380   29.4380   38.4260 C   0  0  2  0  0  0  0  0  0  0  0  0
   38.6900   29.2980   38.2890 C   0  0  0  0  0  0  0  0  0  0  0  0
   39.4050   28.8150   37.2070 C   0  0  0  0  0  0  0  0  0  0  0  0
   40.7680   28.6810   37.0880 C   0  0  0  0  0  0  0  0  0  0  0  0
   41.5250   29.0700   38.1710 C   0  0  0  0  0  0  0  0  0  0  0  0
   40.8500   29.5570   39.2660 C   0  0  0  0  0  0  0  0  0  0  0  0
   39.5120   29.6630   39.3190 N   0  0  0  0  0  0  0  0  0  0  0  0
   38.8122   27.0490   44.4789 H   0  0  0  0  0  0  0  0  0  0  0  0
   38.3093   25.5877   42.5118 H   0  0  0  0  0  0  0  0  0  0  0  0
   36.9723   30.3278   42.5251 H   0  0  0  0  0  0  0  0  0  0  0  0
   37.2976   24.5788   41.2062 H   0  0  0  0  0  0  0  0  0  0  0  0
   35.6145   24.9488   40.6079 H   0  0  0  0  0  0  0  0  0  0  0  0
   37.7511   23.4962   39.3395 H   0  0  0  0  0  0  0  0  0  0  0  0
   35.9904   23.7393   38.8719 H   0  0  0  0  0  0  0  0  0  0  0  0
   36.7641   26.5829   36.9420 H   0  0  0  0  0  0  0  0  0  0  0  0
   35.5297   25.9357   38.0655 H   0  0  0  0  0  0  0  0  0  0  0  0
   38.1234   27.3306   38.7864 H   0  0  0  0  0  0  0  0  0  0  0  0
   34.6768   27.4217   38.6752 H   0  0  0  0  0  0  0  0  0  0  0  0
   34.6566   29.0536   39.5015 H   0  0  0  0  0  0  0  0  0  0  0  0
   33.8693   28.6079   36.9237 H   0  0  0  0  0  0  0  0  0  0  0  0
   34.4597   30.1757   37.5829 H   0  0  0  0  0  0  0  0  0  0  0  0
   37.6056   30.0667   36.4041 H   0  0  0  0  0  0  0  0  0  0  0  0
   36.2534   30.9286   37.2473 H   0  0  0  0  0  0  0  0  0  0  0  0
   37.0546   30.1380   39.2545 H   0  0  0  0  0  0  0  0  0  0  0  0
   38.8106   28.5001   36.3366 H   0  0  0  0  0  0  0  0  0  0  0  0
   41.2312   28.2828   36.1732 H   0  0  0  0  0  0  0  0  0  0  0  0
   42.6224   28.9944   38.1606 H   0  0  0  0  0  0  0  0  0  0  0  0
   41.4348   29.8754   40.1416 H   0  0  0  0  0  0  0  0  0  0  0  0
  2  1  2  0
  3  4  2  0
  3  2  1  0
  4  5  1  0
  5  6  2  0
  6  1  1  0
  7  8  1  0
  7  3  1  0
  9  8  1  0
 10  9  1  0
 11 10  1  0
 11 12  1  0
 12  7  1  0
 13 14  1  0
 13 12  1  0
 15 14  1  0
 16 17  1  0
 16 15  1  0
 17 18  1  0
 18 13  1  0
 19 18  1  0
 19 24  1  0
 20 19  2  0
 21 20  1  0
 21 22  2  0
 22 23  1  0
 23 24  2  0
  1 25  1  0
  2 26  1  0
  5 27  1  0
  8 28  1  0
  8 29  1  0
  9 30  1  0
  9 31  1  0
 11 32  1  0
 11 33  1  0
 12 34  1  6
 14 35  1  0
 14 36  1  0
 15 37  1  0
 15 38  1  0
 17 39  1  0
 17 40  1  0
 18 41  1  1
 20 42  1  0
 21 43  1  0
 22 44  1  0
 23 45  1  0
M  ISO  8  25  14  26  14  27  14  28  13  29  13  30  13  31  13  32  13
M  ISO  8  33  13  34  13  35  13  36  13  37  13  38  13  39  13  40  13
M  ISO  5  41  13  42  14  43  14  44  14  45  14
M  END
>  <minimizedAffinity>  (1) 
-4.62548733

>  <minimizedRMSD>  (1) 
0.398243874

$$$$
