
     RDKit          3D

 45 47  0  0  1  0  0  0  0  0999 V2000
   38.2640   27.4910   43.6110 C   0  0  0  0  0  0  0  0  0  0  0  0
   37.9950   26.6670   42.5000 C   0  0  0  0  0  0  0  0  0  0  0  0
   37.3530   27.1960   41.3860 C   0  0  0  0  0  0  0  0  0  0  0  0
   37.0310   28.4930   41.4650 N   0  0  0  0  0  0  0  0  0  0  0  0
   37.2750   29.3080   42.5130 C   0  0  0  0  0  0  0  0  0  0  0  0
   37.8940   28.7880   43.5800 N   0  0  0  0  0  0  0  0  0  0  0  0
   37.0560   26.4340   40.2390 N   0  0  0  0  0  0  0  0  0  0  0  0
   36.7000   25.0580   40.3560 C   0  0  0  0  0  0  0  0  0  0  0  0
   37.0050   24.2560   39.1050 C   0  0  0  0  0  0  0  0  0  0  0  0
   37.3760   25.0150   38.0140 O   0  0  0  0  0  0  0  0  0  0  0  0
   36.6970   26.1960   37.9050 C   0  0  0  0  0  0  0  0  0  0  0  0
   37.1320   27.1170   38.9730 C   0  0  1  0  0  0  0  0  0  0  0  0
   36.5690   28.4450   38.9390 N   0  0  0  0  0  0  0  0  0  0  0  0
   35.1480   28.5050   38.8350 C   0  0  0  0  0  0  0  0  0  0  0  0
   34.6520   29.1130   37.5260 C   0  0  0  0  0  0  0  0  0  0  0  0
   35.6120   29.0020   36.5350 O   0  0  0  0  0  0  0  0  0  0  0  0
   36.6210   29.8810   36.9440 C   0  0  0  0  0  0  0  0  0  0  0  0
   37.3060   29.3890   38.2060 C   0  0  1  0  0  0  0  0  0  0  0  0
   37.8800   30.5870   38.8420 C   0  0  0  0  0  0  0  0  0  0  0  0
   36.8790   31.5340   39.4490 C   0  0  0  0  0  0  0  0  0  0  0  0
   38.6280   31.3540   37.7650 C   0  0  0  0  0  0  0  0  0  0  0  0
   38.7715   27.0801   44.4962 H   0  0  0  0  0  0  0  0  0  0  0  0
   38.2922   25.6080   42.5141 H   0  0  0  0  0  0  0  0  0  0  0  0
   36.9747   30.3660   42.4910 H   0  0  0  0  0  0  0  0  0  0  0  0
   37.2596   24.6218   41.1966 H   0  0  0  0  0  0  0  0  0  0  0  0
   35.6129   25.0130   40.5175 H   0  0  0  0  0  0  0  0  0  0  0  0
   37.8257   23.5605   39.3346 H   0  0  0  0  0  0  0  0  0  0  0  0
   36.0719   23.7442   38.8268 H   0  0  0  0  0  0  0  0  0  0  0  0
   36.9046   26.6486   36.9241 H   0  0  0  0  0  0  0  0  0  0  0  0
   35.6177   26.0074   38.0022 H   0  0  0  0  0  0  0  0  0  0  0  0
   38.1857   27.3709   38.7850 H   0  0  0  0  0  0  0  0  0  0  0  0
   34.7508   27.4823   38.9150 H   0  0  0  0  0  0  0  0  0  0  0  0
   34.7944   29.1583   39.6463 H   0  0  0  0  0  0  0  0  0  0  0  0
   33.7414   28.5854   37.2060 H   0  0  0  0  0  0  0  0  0  0  0  0
   34.4398   30.1795   37.6919 H   0  0  0  0  0  0  0  0  0  0  0  0
   37.3682   29.9665   36.1413 H   0  0  0  0  0  0  0  0  0  0  0  0
   36.1634   30.8583   37.1570 H   0  0  0  0  0  0  0  0  0  0  0  0
   38.1564   28.7143   38.0285 H   0  0  0  0  0  0  0  0  0  0  0  0
   38.5102   30.2278   39.6690 H   0  0  0  0  0  0  0  0  0  0  0  0
   36.9389   31.4773   40.5459 H   0  0  0  0  0  0  0  0  0  0  0  0
   37.1006   32.5607   39.1223 H   0  0  0  0  0  0  0  0  0  0  0  0
   35.8661   31.2558   39.1223 H   0  0  0  0  0  0  0  0  0  0  0  0
   39.3219   32.0655   38.2365 H   0  0  0  0  0  0  0  0  0  0  0  0
   39.1949   30.6489   37.1393 H   0  0  0  0  0  0  0  0  0  0  0  0
   37.9089   31.9030   37.1393 H   0  0  0  0  0  0  0  0  0  0  0  0
  2  1  2  0
  3  4  2  0
  3  2  1  0
  4  5  1  0
  5  6  2  0
  6  1  1  0
  7  8  1  0
  7  3  1  0
  9  8  1  0
 10  9  1  0
 11 10  1  0
 11 12  1  0
 12  7  1  0
 13 14  1  0
 13 12  1  0
 15 14  1  0
 16 17  1  0
 16 15  1  0
 17 18  1  0
 18 19  1  0
 18 13  1  0
 19 20  1  0
 21 19  1  0
  1 22  1  0
  2 23  1  0
  5 24  1  0
  8 25  1  0
  8 26  1  0
  9 27  1  0
  9 28  1  0
 11 29  1  0
 11 30  1  0
 12 31  1  6
 14 32  1  0
 14 33  1  0
 15 34  1  0
 15 35  1  0
 17 36  1  0
 17 37  1  0
 18 38  1  6
 19 39  1  0
 20 40  1  0
 20 41  1  0
 20 42  1  0
 21 43  1  0
 21 44  1  0
 21 45  1  0
M  ISO  8  22  14  23  14  24  14  25  13  26  13  27  13  28  13  29  13
M  ISO  8  30  13  31  13  32  13  33  13  34  13  35  13  36  13  37  13
M  ISO  8  38  13  39   8  40   8  41   8  42   8  43   8  44   8  45   8
M  END
>  <minimizedAffinity>  (1) 
-4.56516981

>  <minimizedRMSD>  (1) 
0.300169259

$$$$
