
     RDKit          3D

 43 46  0  0  1  0  0  0  0  0999 V2000
   38.3120   27.4410   43.5880 C   0  0  0  0  0  0  0  0  0  0  0  0
   38.0200   26.6210   42.4800 C   0  0  0  0  0  0  0  0  0  0  0  0
   37.3570   27.1650   41.3820 C   0  0  0  0  0  0  0  0  0  0  0  0
   37.0310   28.4830   41.4620 N   0  0  0  0  0  0  0  0  0  0  0  0
   37.3080   29.2670   42.5180 C   0  0  0  0  0  0  0  0  0  0  0  0
   37.9430   28.7410   43.5660 N   0  0  0  0  0  0  0  0  0  0  0  0
   37.0400   26.3980   40.2340 N   0  0  0  0  0  0  0  0  0  0  0  0
   36.6930   25.0160   40.3600 C   0  0  0  0  0  0  0  0  0  0  0  0
   36.9480   24.2240   39.0930 C   0  0  0  0  0  0  0  0  0  0  0  0
   37.3090   24.9920   38.0030 O   0  0  0  0  0  0  0  0  0  0  0  0
   36.6020   26.1620   37.9020 C   0  0  0  0  0  0  0  0  0  0  0  0
   37.0910   27.0830   38.9670 C   0  0  1  0  0  0  0  0  0  0  0  0
   36.5260   28.3920   38.9410 N   0  0  0  0  0  0  0  0  0  0  0  0
   35.1190   28.4820   38.7560 C   0  0  0  0  0  0  0  0  0  0  0  0
   34.7050   29.1490   37.4470 C   0  0  0  0  0  0  0  0  0  0  0  0
   35.7430   29.0620   36.5040 O   0  0  0  0  0  0  0  0  0  0  0  0
   36.7180   29.9440   37.0350 C   0  0  0  0  0  0  0  0  0  0  0  0
   37.2840   29.4170   38.3180 C   0  0  2  0  0  0  0  0  0  0  0  0
   38.7390   29.1900   38.2420 C   0  0  0  0  0  0  0  0  0  0  0  0
   39.4780   28.7510   37.2180 C   0  0  0  0  0  0  0  0  0  0  0  0
   40.8030   28.5990   37.2440 C   0  0  0  0  0  0  0  0  0  0  0  0
   41.3900   28.9320   38.4340 C   0  0  0  0  0  0  0  0  0  0  0  0
   39.9650   29.4660   39.4950 S   0  0  0  0  0  0  0  0  0  0  0  0
   38.8353   27.0271   44.4625 H   0  0  0  0  0  0  0  0  0  0  0  0
   38.3129   25.5607   42.4819 H   0  0  0  0  0  0  0  0  0  0  0  0
   37.0151   30.3273   42.5177 H   0  0  0  0  0  0  0  0  0  0  0  0
   37.2894   24.5775   41.1736 H   0  0  0  0  0  0  0  0  0  0  0  0
   35.6142   24.9651   40.5686 H   0  0  0  0  0  0  0  0  0  0  0  0
   37.7583   23.5073   39.2925 H   0  0  0  0  0  0  0  0  0  0  0  0
   35.9979   23.7351   38.8318 H   0  0  0  0  0  0  0  0  0  0  0  0
   36.7655   26.6138   36.9125 H   0  0  0  0  0  0  0  0  0  0  0  0
   35.5253   25.9720   38.0228 H   0  0  0  0  0  0  0  0  0  0  0  0
   38.1445   27.3260   38.7640 H   0  0  0  0  0  0  0  0  0  0  0  0
   34.7025   27.4640   38.7721 H   0  0  0  0  0  0  0  0  0  0  0  0
   34.7312   29.1120   39.5701 H   0  0  0  0  0  0  0  0  0  0  0  0
   33.8114   28.6451   37.0501 H   0  0  0  0  0  0  0  0  0  0  0  0
   34.4860   30.2095   37.6402 H   0  0  0  0  0  0  0  0  0  0  0  0
   37.5323   30.0603   36.3046 H   0  0  0  0  0  0  0  0  0  0  0  0
   36.2377   30.9125   37.2381 H   0  0  0  0  0  0  0  0  0  0  0  0
   37.1679   30.2325   39.0470 H   0  0  0  0  0  0  0  0  0  0  0  0
   38.9545   28.4962   36.2847 H   0  0  0  0  0  0  0  0  0  0  0  0
   41.3770   28.2355   36.3789 H   0  0  0  0  0  0  0  0  0  0  0  0
   42.4568   28.8924   38.6995 H   0  0  0  0  0  0  0  0  0  0  0  0
  2  1  2  0
  3  4  2  0
  3  2  1  0
  4  5  1  0
  5  6  2  0
  6  1  1  0
  7  8  1  0
  7  3  1  0
  9  8  1  0
 10  9  1  0
 11 10  1  0
 11 12  1  0
 12  7  1  0
 13 14  1  0
 13 12  1  0
 15 14  1  0
 16 17  1  0
 16 15  1  0
 17 18  1  0
 18 13  1  0
 19 18  1  0
 19 23  1  0
 20 21  1  0
 20 19  2  0
 21 22  2  0
 22 23  1  0
  1 24  1  0
  2 25  1  0
  5 26  1  0
  8 27  1  0
  8 28  1  0
  9 29  1  0
  9 30  1  0
 11 31  1  0
 11 32  1  0
 12 33  1  6
 14 34  1  0
 14 35  1  0
 15 36  1  0
 15 37  1  0
 17 38  1  0
 17 39  1  0
 18 40  1  1
 20 41  1  0
 21 42  1  0
 22 43  1  0
M  ISO  8  24  14  25  14  26  14  27  13  28  13  29  13  30  13  31  13
M  ISO  8  32  13  33  13  34  13  35  13  36  13  37  13  38  13  39  13
M  ISO  4  40  13  41  14  42  14  43  14
M  END
>  <minimizedAffinity>  (1) 
-4.48845053

>  <minimizedRMSD>  (1) 
0.247723714

$$$$
