
     RDKit          3D

 43 46  0  0  1  0  0  0  0  0999 V2000
   38.3050   27.4630   43.5710 C   0  0  0  0  0  0  0  0  0  0  0  0
   38.0230   26.6400   42.4690 C   0  0  0  0  0  0  0  0  0  0  0  0
   37.3450   27.1750   41.3760 C   0  0  0  0  0  0  0  0  0  0  0  0
   37.0000   28.4800   41.4600 N   0  0  0  0  0  0  0  0  0  0  0  0
   37.2660   29.2780   42.5150 C   0  0  0  0  0  0  0  0  0  0  0  0
   37.9190   28.7520   43.5610 N   0  0  0  0  0  0  0  0  0  0  0  0
   37.0310   26.4080   40.2260 N   0  0  0  0  0  0  0  0  0  0  0  0
   36.6980   25.0170   40.3570 C   0  0  0  0  0  0  0  0  0  0  0  0
   37.0010   24.2210   39.1040 C   0  0  0  0  0  0  0  0  0  0  0  0
   37.2900   24.9870   37.9910 O   0  0  0  0  0  0  0  0  0  0  0  0
   36.5570   26.1500   37.9060 C   0  0  0  0  0  0  0  0  0  0  0  0
   37.0670   27.0870   38.9540 C   0  0  1  0  0  0  0  0  0  0  0  0
   36.4730   28.3750   38.9280 N   0  0  0  0  0  0  0  0  0  0  0  0
   35.0640   28.4510   38.7040 C   0  0  0  0  0  0  0  0  0  0  0  0
   34.6820   29.1270   37.3900 C   0  0  0  0  0  0  0  0  0  0  0  0
   35.7440   29.0940   36.4950 O   0  0  0  0  0  0  0  0  0  0  0  0
   36.6960   29.9630   37.0620 C   0  0  0  0  0  0  0  0  0  0  0  0
   37.2030   29.4470   38.3850 C   0  0  2  0  0  0  0  0  0  0  0  0
   38.6630   29.3410   38.3270 C   0  0  0  0  0  0  0  0  0  0  0  0
   39.5640   28.9500   37.3360 C   0  0  0  0  0  0  0  0  0  0  0  0
   40.8690   29.0200   37.7630 C   0  0  0  0  0  0  0  0  0  0  0  0
   40.7200   29.4690   39.0490 C   0  0  0  0  0  0  0  0  0  0  0  0
   39.4610   29.6450   39.3510 O   0  0  0  0  0  0  0  0  0  0  0  0
   38.8405   27.0548   44.4409 H   0  0  0  0  0  0  0  0  0  0  0  0
   38.3339   25.5848   42.4687 H   0  0  0  0  0  0  0  0  0  0  0  0
   36.9550   30.3331   42.5168 H   0  0  0  0  0  0  0  0  0  0  0  0
   37.2771   24.5939   41.1910 H   0  0  0  0  0  0  0  0  0  0  0  0
   35.6150   24.9510   40.5379 H   0  0  0  0  0  0  0  0  0  0  0  0
   37.8668   23.5743   39.3095 H   0  0  0  0  0  0  0  0  0  0  0  0
   36.0875   23.6567   38.8650 H   0  0  0  0  0  0  0  0  0  0  0  0
   36.6812   26.5991   36.9096 H   0  0  0  0  0  0  0  0  0  0  0  0
   35.4878   25.9435   38.0614 H   0  0  0  0  0  0  0  0  0  0  0  0
   38.1152   27.3400   38.7366 H   0  0  0  0  0  0  0  0  0  0  0  0
   34.6587   27.4284   38.6980 H   0  0  0  0  0  0  0  0  0  0  0  0
   34.6449   29.0668   39.5134 H   0  0  0  0  0  0  0  0  0  0  0  0
   33.8220   28.6010   36.9498 H   0  0  0  0  0  0  0  0  0  0  0  0
   34.4232   30.1765   37.5939 H   0  0  0  0  0  0  0  0  0  0  0  0
   37.5447   30.0631   36.3694 H   0  0  0  0  0  0  0  0  0  0  0  0
   36.2124   30.9357   37.2355 H   0  0  0  0  0  0  0  0  0  0  0  0
   36.9925   30.1814   39.1764 H   0  0  0  0  0  0  0  0  0  0  0  0
   39.2647   28.6234   36.3291 H   0  0  0  0  0  0  0  0  0  0  0  0
   41.7919   28.7786   37.2152 H   0  0  0  0  0  0  0  0  0  0  0  0
   41.5549   29.6575   39.7399 H   0  0  0  0  0  0  0  0  0  0  0  0
  2  1  2  0
  3  4  2  0
  3  2  1  0
  4  5  1  0
  5  6  2  0
  6  1  1  0
  7  8  1  0
  7  3  1  0
  9  8  1  0
 10  9  1  0
 11 10  1  0
 11 12  1  0
 12  7  1  0
 13 14  1  0
 13 12  1  0
 15 14  1  0
 16 17  1  0
 16 15  1  0
 17 18  1  0
 18 13  1  0
 19 18  1  0
 19 23  1  0
 20 21  1  0
 20 19  2  0
 21 22  2  0
 22 23  1  0
  1 24  1  0
  2 25  1  0
  5 26  1  0
  8 27  1  0
  8 28  1  0
  9 29  1  0
  9 30  1  0
 11 31  1  0
 11 32  1  0
 12 33  1  6
 14 34  1  0
 14 35  1  0
 15 36  1  0
 15 37  1  0
 17 38  1  0
 17 39  1  0
 18 40  1  1
 20 41  1  0
 21 42  1  0
 22 43  1  0
M  ISO  8  24  14  25  14  26  14  27  13  28  13  29  13  30  13  31  13
M  ISO  8  32  13  33  13  34  13  35  13  36  13  37  13  38  13  39  13
M  ISO  4  40  13  41  14  42  14  43  14
M  END
>  <minimizedAffinity>  (1) 
-4.44843388

>  <minimizedRMSD>  (1) 
0.184523076

$$$$
