
     RDKit          3D

 41 44  0  0  1  0  0  0  0  0999 V2000
   38.2970   27.4440   43.6010 C   0  0  0  0  0  0  0  0  0  0  0  0
   38.0210   26.6230   42.4880 C   0  0  0  0  0  0  0  0  0  0  0  0
   37.3620   27.1750   41.3920 C   0  0  0  0  0  0  0  0  0  0  0  0
   37.0320   28.4830   41.4790 N   0  0  0  0  0  0  0  0  0  0  0  0
   37.2920   29.2760   42.5390 C   0  0  0  0  0  0  0  0  0  0  0  0
   37.9290   28.7340   43.5930 N   0  0  0  0  0  0  0  0  0  0  0  0
   37.0520   26.4120   40.2380 N   0  0  0  0  0  0  0  0  0  0  0  0
   36.7090   25.0270   40.3550 C   0  0  0  0  0  0  0  0  0  0  0  0
   36.9970   24.2410   39.0910 C   0  0  0  0  0  0  0  0  0  0  0  0
   37.3350   25.0120   38.0030 O   0  0  0  0  0  0  0  0  0  0  0  0
   36.6120   26.1820   37.9060 C   0  0  0  0  0  0  0  0  0  0  0  0
   37.1030   27.1060   38.9680 C   0  0  1  0  0  0  0  0  0  0  0  0
   36.5010   28.3900   38.9520 N   0  0  0  0  0  0  0  0  0  0  0  0
   35.0940   28.4680   38.7360 C   0  0  0  0  0  0  0  0  0  0  0  0
   34.7120   29.1600   37.4230 C   0  0  0  0  0  0  0  0  0  0  0  0
   35.7720   29.1150   36.5160 O   0  0  0  0  0  0  0  0  0  0  0  0
   36.7490   29.9770   37.0730 C   0  0  0  0  0  0  0  0  0  0  0  0
   37.2260   29.4680   38.4090 C   0  0  2  0  0  0  0  0  0  0  0  0
   38.6910   29.3570   38.3710 C   0  0  0  0  0  0  0  0  0  0  0  0
   39.6330   29.5530   39.3390 N   0  0  0  0  0  0  0  0  0  0  0  0
   40.8200   29.3410   38.8550 O   0  0  0  0  0  0  0  0  0  0  0  0
   40.7560   29.0090   37.6030 C   0  0  0  0  0  0  0  0  0  0  0  0
   39.4500   29.0140   37.2880 N   0  0  0  0  0  0  0  0  0  0  0  0
   38.8148   27.0260   44.4769 H   0  0  0  0  0  0  0  0  0  0  0  0
   38.3210   25.5647   42.4855 H   0  0  0  0  0  0  0  0  0  0  0  0
   36.9921   30.3343   42.5415 H   0  0  0  0  0  0  0  0  0  0  0  0
   37.2897   24.5898   41.1806 H   0  0  0  0  0  0  0  0  0  0  0  0
   35.6265   24.9688   40.5415 H   0  0  0  0  0  0  0  0  0  0  0  0
   37.8305   23.5533   39.2967 H   0  0  0  0  0  0  0  0  0  0  0  0
   36.0643   23.7208   38.8274 H   0  0  0  0  0  0  0  0  0  0  0  0
   36.7635   26.6353   36.9153 H   0  0  0  0  0  0  0  0  0  0  0  0
   35.5377   25.9834   38.0338 H   0  0  0  0  0  0  0  0  0  0  0  0
   38.1528   27.3636   38.7640 H   0  0  0  0  0  0  0  0  0  0  0  0
   34.6873   27.4461   38.7216 H   0  0  0  0  0  0  0  0  0  0  0  0
   34.6754   29.0736   39.5533 H   0  0  0  0  0  0  0  0  0  0  0  0
   33.8408   28.6501   36.9861 H   0  0  0  0  0  0  0  0  0  0  0  0
   34.4713   30.2123   37.6344 H   0  0  0  0  0  0  0  0  0  0  0  0
   37.6059   30.0397   36.3861 H   0  0  0  0  0  0  0  0  0  0  0  0
   36.2962   30.9687   37.2193 H   0  0  0  0  0  0  0  0  0  0  0  0
   36.9824   30.2092   39.1844 H   0  0  0  0  0  0  0  0  0  0  0  0
   41.5980   28.7720   36.9360 H   0  0  0  0  0  0  0  0  0  0  0  0
  2  1  2  0
  3  4  2  0
  3  2  1  0
  4  5  1  0
  5  6  2  0
  6  1  1  0
  7  8  1  0
  7  3  1  0
  9  8  1  0
 10  9  1  0
 11 10  1  0
 11 12  1  0
 12  7  1  0
 13 14  1  0
 13 12  1  0
 15 14  1  0
 16 17  1  0
 16 15  1  0
 17 18  1  0
 18 13  1  0
 19 18  1  0
 19 20  2  0
 21 20  1  0
 22 21  1  0
 23 22  2  0
 23 19  1  0
  1 24  1  0
  2 25  1  0
  5 26  1  0
  8 27  1  0
  8 28  1  0
  9 29  1  0
  9 30  1  0
 11 31  1  0
 11 32  1  0
 12 33  1  6
 14 34  1  0
 14 35  1  0
 15 36  1  0
 15 37  1  0
 17 38  1  0
 17 39  1  0
 18 40  1  1
 22 41  1  0
M  ISO  8  24  14  25  14  26  14  27  13  28  13  29  13  30  13  31  13
M  ISO  8  32  13  33  13  34  13  35  13  36  13  37  13  38  13  39  13
M  ISO  2  40  13  41  14
M  END
>  <minimizedAffinity>  (1) 
-4.40850639

>  <minimizedRMSD>  (1) 
0.109804809

$$$$
