
     RDKit          3D

 39 41  0  0  1  0  0  0  0  0999 V2000
   38.2920   27.4410   43.6020 C   0  0  0  0  0  0  0  0  0  0  0  0
   38.0090   26.6250   42.4930 C   0  0  0  0  0  0  0  0  0  0  0  0
   37.3650   27.1710   41.3900 C   0  0  0  0  0  0  0  0  0  0  0  0
   37.0500   28.4830   41.4720 N   0  0  0  0  0  0  0  0  0  0  0  0
   37.3210   29.2670   42.5390 C   0  0  0  0  0  0  0  0  0  0  0  0
   37.9390   28.7340   43.5910 N   0  0  0  0  0  0  0  0  0  0  0  0
   37.0520   26.4090   40.2450 N   0  0  0  0  0  0  0  0  0  0  0  0
   36.7120   25.0230   40.3520 C   0  0  0  0  0  0  0  0  0  0  0  0
   36.9430   24.2360   39.0920 C   0  0  0  0  0  0  0  0  0  0  0  0
   37.3080   25.0080   37.9990 O   0  0  0  0  0  0  0  0  0  0  0  0
   36.6130   26.1870   37.9130 C   0  0  0  0  0  0  0  0  0  0  0  0
   37.0960   27.1020   38.9760 C   0  0  1  0  0  0  0  0  0  0  0  0
   36.4850   28.3980   38.9620 N   0  0  0  0  0  0  0  0  0  0  0  0
   35.1040   28.4890   38.7100 C   0  0  0  0  0  0  0  0  0  0  0  0
   34.7490   29.1730   37.3940 C   0  0  0  0  0  0  0  0  0  0  0  0
   35.8300   29.1510   36.5210 O   0  0  0  0  0  0  0  0  0  0  0  0
   36.7840   30.0000   37.1010 C   0  0  0  0  0  0  0  0  0  0  0  0
   37.2520   29.4620   38.4340 C   0  0  2  0  0  0  0  0  0  0  0  0
   38.7190   29.2320   38.3270 C   0  0  0  0  0  0  0  0  0  0  0  0
   38.8034   27.0182   44.4793 H   0  0  0  0  0  0  0  0  0  0  0  0
   38.2951   25.5629   42.4986 H   0  0  0  0  0  0  0  0  0  0  0  0
   37.0353   30.3293   42.5383 H   0  0  0  0  0  0  0  0  0  0  0  0
   37.3206   24.5787   41.1534 H   0  0  0  0  0  0  0  0  0  0  0  0
   35.6333   24.9760   40.5625 H   0  0  0  0  0  0  0  0  0  0  0  0
   37.7443   23.5069   39.2825 H   0  0  0  0  0  0  0  0  0  0  0  0
   35.9852   23.7591   38.8368 H   0  0  0  0  0  0  0  0  0  0  0  0
   36.7804   26.6443   36.9267 H   0  0  0  0  0  0  0  0  0  0  0  0
   35.5369   25.9981   38.0413 H   0  0  0  0  0  0  0  0  0  0  0  0
   38.1462   27.3589   38.7735 H   0  0  0  0  0  0  0  0  0  0  0  0
   34.6895   27.4702   38.6913 H   0  0  0  0  0  0  0  0  0  0  0  0
   34.6781   29.1097   39.5121 H   0  0  0  0  0  0  0  0  0  0  0  0
   33.9007   28.6474   36.9314 H   0  0  0  0  0  0  0  0  0  0  0  0
   34.4829   30.2201   37.6006 H   0  0  0  0  0  0  0  0  0  0  0  0
   37.6474   30.0854   36.4248 H   0  0  0  0  0  0  0  0  0  0  0  0
   36.3221   30.9849   37.2643 H   0  0  0  0  0  0  0  0  0  0  0  0
   37.0712   30.2093   39.2207 H   0  0  0  0  0  0  0  0  0  0  0  0
   39.1539   29.1638   39.3351 H   0  0  0  0  0  0  0  0  0  0  0  0
   38.9044   28.2938   37.7834 H   0  0  0  0  0  0  0  0  0  0  0  0
   39.1826   30.0684   37.7834 H   0  0  0  0  0  0  0  0  0  0  0  0
  2  1  2  0
  3  4  2  0
  3  2  1  0
  4  5  1  0
  5  6  2  0
  6  1  1  0
  7  8  1  0
  7  3  1  0
  9  8  1  0
 10  9  1  0
 11 10  1  0
 11 12  1  0
 12  7  1  0
 13 14  1  0
 13 12  1  0
 15 14  1  0
 16 17  1  0
 16 15  1  0
 17 18  1  0
 18 13  1  0
 19 18  1  0
  1 20  1  0
  2 21  1  0
  5 22  1  0
  8 23  1  0
  8 24  1  0
  9 25  1  0
  9 26  1  0
 11 27  1  0
 11 28  1  0
 12 29  1  6
 14 30  1  0
 14 31  1  0
 15 32  1  0
 15 33  1  0
 17 34  1  0
 17 35  1  0
 18 36  1  1
 19 37  1  0
 19 38  1  0
 19 39  1  0
M  ISO  8  20  14  21  14  22  14  23  13  24  13  25  13  26  13  27  13
M  ISO  8  28  13  29  13  30  13  31  13  32  13  33  13  34  13  35  13
M  ISO  4  36  13  37   8  38   8  39   8
M  END
>  <minimizedAffinity>  (1) 
-4.13447857

>  <minimizedRMSD>  (1) 
0.0336657129

$$$$
