
     RDKit          3D

 42 45  0  0  1  0  0  0  0  0999 V2000
   37.7710   29.5560   42.1200 C   0  0  2  0  0  0  0  0  0  0  0  0
   38.0550   29.0710   43.4860 C   0  0  0  0  0  0  0  0  0  0  0  0
   37.1500   27.9540   43.9160 C   0  0  0  0  0  0  0  0  0  0  0  0
   36.7630   27.0170   42.8430 C   0  0  0  0  0  0  0  0  0  0  0  0
   37.6640   27.1060   41.6440 C   0  0  0  0  0  0  0  0  0  0  0  0
   37.7060   28.4960   41.0480 C   0  0  1  0  0  0  0  0  0  0  0  0
   36.5880   28.7070   40.1010 C   0  0  0  0  0  0  0  0  0  0  0  0
   35.2800   28.9190   40.4860 C   0  0  0  0  0  0  0  0  0  0  0  0
   34.2230   29.1200   39.6340 C   0  0  0  0  0  0  0  0  0  0  0  0
   34.4460   29.1170   38.2740 C   0  0  0  0  0  0  0  0  0  0  0  0
   35.7160   28.9130   37.8240 C   0  0  0  0  0  0  0  0  0  0  0  0
   35.9010   28.9130   36.4580 C   0  0  0  0  0  0  0  0  0  0  0  0
   37.1530   28.7090   35.9220 C   0  0  0  0  0  0  0  0  0  0  0  0
   38.1920   28.5100   36.8090 C   0  0  0  0  0  0  0  0  0  0  0  0
   37.9740   28.5160   38.1710 C   0  0  0  0  0  0  0  0  0  0  0  0
   36.7410   28.7170   38.7250 C   0  0  0  0  0  0  0  0  0  0  0  0
   38.7940   30.5710   41.7540 C   0  0  0  0  0  0  0  0  0  0  0  0
   40.0770   30.3280   42.2650 C   0  0  0  0  0  0  0  0  0  0  0  0
   41.1020   31.2380   41.9730 C   0  0  0  0  0  0  0  0  0  0  0  0
   40.7780   32.3130   41.2000 N   0  0  0  0  0  0  0  0  0  0  0  0
   39.5290   32.5230   40.7170 C   0  0  0  0  0  0  0  0  0  0  0  0
   38.5420   31.6470   40.9990 N   0  0  0  0  0  0  0  0  0  0  0  0
   36.7559   29.9781   42.1585 H   0  0  0  0  0  0  0  0  0  0  0  0
   39.0943   28.7122   43.5207 H   0  0  0  0  0  0  0  0  0  0  0  0
   37.8856   29.9126   44.1738 H   0  0  0  0  0  0  0  0  0  0  0  0
   37.6649   27.3804   44.7008 H   0  0  0  0  0  0  0  0  0  0  0  0
   36.2192   28.4278   44.2612 H   0  0  0  0  0  0  0  0  0  0  0  0
   36.8043   25.9916   43.2391 H   0  0  0  0  0  0  0  0  0  0  0  0
   35.7475   27.2859   42.5167 H   0  0  0  0  0  0  0  0  0  0  0  0
   38.6825   26.8220   41.9472 H   0  0  0  0  0  0  0  0  0  0  0  0
   37.2642   26.4270   40.8765 H   0  0  0  0  0  0  0  0  0  0  0  0
   38.6343   28.5885   40.4651 H   0  0  0  0  0  0  0  0  0  0  0  0
   35.0668   28.9276   41.5651 H   0  0  0  0  0  0  0  0  0  0  0  0
   33.2102   29.2815   40.0318 H   0  0  0  0  0  0  0  0  0  0  0  0
   33.6177   29.2757   37.5678 H   0  0  0  0  0  0  0  0  0  0  0  0
   35.0419   29.0772   35.7909 H   0  0  0  0  0  0  0  0  0  0  0  0
   37.3180   28.7048   34.8345 H   0  0  0  0  0  0  0  0  0  0  0  0
   39.2089   28.3442   36.4238 H   0  0  0  0  0  0  0  0  0  0  0  0
   38.8307   28.3517   38.8411 H   0  0  0  0  0  0  0  0  0  0  0  0
   40.2751   29.4400   42.8833 H   0  0  0  0  0  0  0  0  0  0  0  0
   42.1243   31.0911   42.3514 H   0  0  0  0  0  0  0  0  0  0  0  0
   39.3202   33.4065   40.0959 H   0  0  0  0  0  0  0  0  0  0  0  0
  1  2  1  0
  2  3  1  0
  4  3  1  0
  5  4  1  0
  6  5  1  0
  6  1  1  0
  7  8  2  0
  7  6  1  0
  9  8  1  0
 10  9  2  0
 11 10  1  0
 11 16  2  0
 12 11  1  0
 13 12  2  0
 13 14  1  0
 14 15  2  0
 15 16  1  0
 16  7  1  0
 17  1  1  0
 17 18  2  0
 19 18  1  0
 20 19  2  0
 21 22  2  0
 21 20  1  0
 22 17  1  0
  1 23  1  1
  2 24  1  0
  2 25  1  0
  3 26  1  0
  3 27  1  0
  4 28  1  0
  4 29  1  0
  5 30  1  0
  5 31  1  0
  6 32  1  6
  8 33  1  0
  9 34  1  0
 10 35  1  0
 12 36  1  0
 13 37  1  0
 14 38  1  0
 15 39  1  0
 18 40  1  0
 19 41  1  0
 21 42  1  0
M  ISO  8  23  13  24  13  25  13  26  13  27  13  28  13  29  13  30  13
M  ISO  8  31  13  32  13  33  14  34  14  35  14  36  14  37  14  38  14
M  ISO  4  39  14  40  14  41  14  42  14
M  END
>  <minimizedAffinity>  (1) 
-6.07450771

>  <minimizedRMSD>  (1) 
2.40406156

$$$$
