
     RDKit          3D

 40 43  0  0  1  0  0  0  0  0999 V2000
   37.3450   29.8230   41.7800 C   0  0  2  0  0  0  0  0  0  0  0  0
   37.9890   29.3510   43.0250 C   0  0  0  0  0  0  0  0  0  0  0  0
   37.4540   28.0390   43.5230 C   0  0  0  0  0  0  0  0  0  0  0  0
   36.9420   27.1210   42.4910 C   0  0  0  0  0  0  0  0  0  0  0  0
   37.5260   27.4170   41.1410 C   0  0  0  0  0  0  0  0  0  0  0  0
   37.2740   28.8100   40.6600 C   0  0  1  0  0  0  0  0  0  0  0  0
   36.0810   28.9200   39.8490 N   0  0  0  0  0  0  0  0  0  0  0  0
   34.8250   29.0960   40.2280 C   0  0  0  0  0  0  0  0  0  0  0  0
   34.0000   29.1470   39.1790 N   0  0  0  0  0  0  0  0  0  0  0  0
   34.7490   28.9990   38.0570 C   0  0  0  0  0  0  0  0  0  0  0  0
   34.5170   28.9610   36.6870 C   0  0  0  0  0  0  0  0  0  0  0  0
   33.3360   29.0890   36.2860 O   0  0  0  0  0  0  0  0  0  0  0  0
   35.5200   28.7920   35.8110 N   0  0  0  0  0  0  0  0  0  0  0  0
   36.7600   28.6600   36.2700 C   0  0  0  0  0  0  0  0  0  0  0  0
   37.9410   28.4730   35.4630 N   0  0  0  0  0  0  0  0  0  0  0  0
   37.0230   28.6920   37.5770 N   0  0  0  0  0  0  0  0  0  0  0  0
   36.0490   28.8580   38.4910 C   0  0  0  0  0  0  0  0  0  0  0  0
   38.0690   31.0220   41.2970 C   0  0  0  0  0  0  0  0  0  0  0  0
   39.4490   31.0280   41.5600 C   0  0  0  0  0  0  0  0  0  0  0  0
   40.2210   32.1170   41.1400 C   0  0  0  0  0  0  0  0  0  0  0  0
   39.5620   33.1260   40.4850 N   0  0  0  0  0  0  0  0  0  0  0  0
   38.2370   33.0960   40.2440 C   0  0  0  0  0  0  0  0  0  0  0  0
   37.4960   32.0450   40.6500 N   0  0  0  0  0  0  0  0  0  0  0  0
   36.2999   30.0373   42.0482 H   0  0  0  0  0  0  0  0  0  0  0  0
   39.0668   29.2373   42.8367 H   0  0  0  0  0  0  0  0  0  0  0  0
   37.7747   30.1004   43.8012 H   0  0  0  0  0  0  0  0  0  0  0  0
   38.2658   27.5252   44.0587 H   0  0  0  0  0  0  0  0  0  0  0  0
   36.5890   28.2900   44.1545 H   0  0  0  0  0  0  0  0  0  0  0  0
   37.2007   26.0895   42.7722 H   0  0  0  0  0  0  0  0  0  0  0  0
   35.8517   27.2525   42.4276 H   0  0  0  0  0  0  0  0  0  0  0  0
   38.6136   27.2608   41.1931 H   0  0  0  0  0  0  0  0  0  0  0  0
   37.0339   26.7405   40.4268 H   0  0  0  0  0  0  0  0  0  0  0  0
   38.1003   29.0618   39.9790 H   0  0  0  0  0  0  0  0  0  0  0  0
   34.5014   29.1886   41.2753 H   0  0  0  0  0  0  0  0  0  0  0  0
   35.3314   28.7651   34.7988 H   0  0  0  0  0  0  0  0  0  0  0  0
   38.8629   28.3802   35.9130 H   0  0  0  0  0  0  0  0  0  0  0  0
   37.8624   28.4323   34.4368 H   0  0  0  0  0  0  0  0  0  0  0  0
   39.9176   30.1859   42.0903 H   0  0  0  0  0  0  0  0  0  0  0  0
   41.3042   32.1617   41.3262 H   0  0  0  0  0  0  0  0  0  0  0  0
   37.7576   33.9321   39.7139 H   0  0  0  0  0  0  0  0  0  0  0  0
  1  2  1  0
  2  3  1  0
  4  3  1  0
  5  4  1  0
  6  5  1  0
  6  1  1  0
  7  8  1  0
  7  6  1  0
  9  8  2  0
 10 17  2  0
 10  9  1  0
 11 10  1  0
 12 11  2  0
 13 14  1  0
 13 11  1  0
 14 16  2  0
 15 14  1  0
 16 17  1  0
 17  7  1  0
 18 19  2  0
 18  1  1  0
 20 19  1  0
 21 20  2  0
 22 21  1  0
 22 23  2  0
 23 18  1  0
  1 24  1  1
  2 25  1  0
  2 26  1  0
  3 27  1  0
  3 28  1  0
  4 29  1  0
  4 30  1  0
  5 31  1  0
  5 32  1  0
  6 33  1  6
  8 34  1  0
 13 35  1  0
 15 36  1  0
 15 37  1  0
 19 38  1  0
 20 39  1  0
 22 40  1  0
M  ISO  8  24  13  25  13  26  13  27  13  28  13  29  13  30  13  31  13
M  ISO  7  32  13  33  13  34  14  35   9  38  14  39  14  40  14
M  END
>  <minimizedAffinity>  (1) 
-5.90666151

>  <minimizedRMSD>  (1) 
1.67549288

$$$$
