
     RDKit          3D

 35 37  0  0  1  0  0  0  0  0999 V2000
   37.2170   30.2560   39.3260 C   0  0  2  0  0  0  0  0  0  0  0  0
   36.6910   30.2720   37.9470 C   0  0  0  0  0  0  0  0  0  0  0  0
   35.7550   29.1550   37.6020 C   0  0  0  0  0  0  0  0  0  0  0  0
   35.0420   28.5470   38.7410 C   0  0  0  0  0  0  0  0  0  0  0  0
   34.9210   29.4860   39.9020 C   0  0  0  0  0  0  0  0  0  0  0  0
   36.2150   30.0010   40.4210 C   0  0  1  0  0  0  0  0  0  0  0  0
   37.9230   31.5330   39.5850 C   0  0  0  0  0  0  0  0  0  0  0  0
   37.1070   32.6750   39.5390 C   0  0  0  0  0  0  0  0  0  0  0  0
   37.6710   33.9360   39.7610 C   0  0  0  0  0  0  0  0  0  0  0  0
   39.0200   33.9650   40.0150 N   0  0  0  0  0  0  0  0  0  0  0  0
   39.7820   32.8560   40.0560 C   0  0  0  0  0  0  0  0  0  0  0  0
   39.2350   31.6310   39.8400 N   0  0  0  0  0  0  0  0  0  0  0  0
   36.7340   29.2160   41.5570 C   0  0  0  0  0  0  0  0  0  0  0  0
   36.2890   27.9550   41.9050 C   0  0  0  0  0  0  0  0  0  0  0  0
   36.7730   27.2240   42.9700 C   0  0  0  0  0  0  0  0  0  0  0  0
   37.7570   27.7360   43.7630 C   0  0  0  0  0  0  0  0  0  0  0  0
   38.2000   28.9870   43.4190 C   0  0  0  0  0  0  0  0  0  0  0  0
   37.7190   29.6730   42.3890 N   0  0  0  0  0  0  0  0  0  0  0  0
   37.8906   29.3873   39.3661 H   0  0  0  0  0  0  0  0  0  0  0  0
   36.1551   31.2212   37.7995 H   0  0  0  0  0  0  0  0  0  0  0  0
   37.5639   30.1493   37.2889 H   0  0  0  0  0  0  0  0  0  0  0  0
   35.0026   29.5477   36.9023 H   0  0  0  0  0  0  0  0  0  0  0  0
   36.3820   28.3566   37.1784 H   0  0  0  0  0  0  0  0  0  0  0  0
   34.0326   28.2579   38.4130 H   0  0  0  0  0  0  0  0  0  0  0  0
   35.6217   27.6733   39.0735 H   0  0  0  0  0  0  0  0  0  0  0  0
   34.3121   30.3457   39.5855 H   0  0  0  0  0  0  0  0  0  0  0  0
   34.4644   28.9107   40.7209 H   0  0  0  0  0  0  0  0  0  0  0  0
   36.0100   30.9932   40.8493 H   0  0  0  0  0  0  0  0  0  0  0  0
   36.0314   32.5787   39.3298 H   0  0  0  0  0  0  0  0  0  0  0  0
   37.0664   34.8545   39.7335 H   0  0  0  0  0  0  0  0  0  0  0  0
   40.8582   32.9423   40.2665 H   0  0  0  0  0  0  0  0  0  0  0  0
   35.4954   27.5037   41.2915 H   0  0  0  0  0  0  0  0  0  0  0  0
   36.3638   26.2248   43.1802 H   0  0  0  0  0  0  0  0  0  0  0  0
   38.1675   27.1828   44.6206 H   0  0  0  0  0  0  0  0  0  0  0  0
   38.9939   29.4455   44.0269 H   0  0  0  0  0  0  0  0  0  0  0  0
  1  7  1  0
  1  6  1  0
  2  1  1  0
  3  2  1  0
  3  4  1  0
  4  5  1  0
  5  6  1  0
  6 13  1  0
  7 12  1  0
  8  7  2  0
  8  9  1  0
  9 10  2  0
 10 11  1  0
 12 11  2  0
 13 14  2  0
 13 18  1  0
 14 15  1  0
 15 16  2  0
 17 16  1  0
 18 17  2  0
  1 19  1  6
  2 20  1  0
  2 21  1  0
  3 22  1  0
  3 23  1  0
  4 24  1  0
  4 25  1  0
  5 26  1  0
  5 27  1  0
  6 28  1  1
  8 29  1  0
  9 30  1  0
 11 31  1  0
 14 32  1  0
 15 33  1  0
 16 34  1  0
 17 35  1  0
M  ISO  8  19  13  20  13  21  13  22  13  23  13  24  13  25  13  26  13
M  ISO  8  27  13  28  13  29  14  30  14  31  14  32  14  33  14  34  14
M  ISO  1  35  14
M  END
>  <minimizedAffinity>  (1) 
-5.78278255

>  <minimizedRMSD>  (1) 
3.94727802

$$$$
