
     RDKit          3D

 42 44  0  0  1  0  0  0  0  0999 V2000
   37.4700   30.4460   39.4960 C   0  0  2  0  0  0  0  0  0  0  0  0
   36.7260   30.6900   38.2400 C   0  0  0  0  0  0  0  0  0  0  0  0
   35.8270   29.5470   37.8590 C   0  0  0  0  0  0  0  0  0  0  0  0
   35.1630   28.8640   38.9830 C   0  0  0  0  0  0  0  0  0  0  0  0
   35.2550   29.6110   40.2690 C   0  0  0  0  0  0  0  0  0  0  0  0
   36.6350   30.0180   40.6690 C   0  0  1  0  0  0  0  0  0  0  0  0
   38.2350   31.6650   39.8400 C   0  0  0  0  0  0  0  0  0  0  0  0
   37.5010   32.8620   39.7670 C   0  0  0  0  0  0  0  0  0  0  0  0
   38.1150   34.0810   40.0670 C   0  0  0  0  0  0  0  0  0  0  0  0
   39.4400   34.0220   40.4260 N   0  0  0  0  0  0  0  0  0  0  0  0
   40.1230   32.8630   40.4910 C   0  0  0  0  0  0  0  0  0  0  0  0
   39.5250   31.6740   40.1980 N   0  0  0  0  0  0  0  0  0  0  0  0
   37.2610   29.0040   41.5630 C   0  0  0  0  0  0  0  0  0  0  0  0
   38.0450   29.4870   42.7220 C   0  0  0  0  0  0  0  0  0  0  0  0
   38.2400   28.2990   43.6670 C   0  0  0  0  0  0  0  0  0  0  0  0
   38.3630   27.0020   42.9340 C   0  0  0  0  0  0  0  0  0  0  0  0
   37.0750   26.6380   42.2310 C   0  0  0  0  0  0  0  0  0  0  0  0
   36.2910   27.9400   42.0300 C   0  0  0  0  0  0  0  0  0  0  0  0
   38.1296   29.5889   39.2953 H   0  0  0  0  0  0  0  0  0  0  0  0
   36.1106   31.5929   38.3667 H   0  0  0  0  0  0  0  0  0  0  0  0
   37.4672   30.8081   37.4359 H   0  0  0  0  0  0  0  0  0  0  0  0
   35.0460   29.9378   37.1901 H   0  0  0  0  0  0  0  0  0  0  0  0
   36.4763   28.7945   37.3878 H   0  0  0  0  0  0  0  0  0  0  0  0
   34.1002   28.7324   38.7318 H   0  0  0  0  0  0  0  0  0  0  0  0
   35.6787   27.9034   39.1287 H   0  0  0  0  0  0  0  0  0  0  0  0
   34.6442   30.5214   40.1785 H   0  0  0  0  0  0  0  0  0  0  0  0
   34.9012   28.9212   41.0494 H   0  0  0  0  0  0  0  0  0  0  0  0
   36.5641   30.9294   41.2809 H   0  0  0  0  0  0  0  0  0  0  0  0
   36.4412   32.8389   39.4731 H   0  0  0  0  0  0  0  0  0  0  0  0
   37.5682   35.0343   40.0185 H   0  0  0  0  0  0  0  0  0  0  0  0
   41.1826   32.8764   40.7859 H   0  0  0  0  0  0  0  0  0  0  0  0
   38.0056   28.5780   40.8745 H   0  0  0  0  0  0  0  0  0  0  0  0
   39.0218   29.8640   42.3848 H   0  0  0  0  0  0  0  0  0  0  0  0
   37.5200   30.3081   43.2321 H   0  0  0  0  0  0  0  0  0  0  0  0
   39.1560   28.4612   44.2541 H   0  0  0  0  0  0  0  0  0  0  0  0
   37.3526   28.2358   44.3139 H   0  0  0  0  0  0  0  0  0  0  0  0
   39.1658   27.0885   42.1869 H   0  0  0  0  0  0  0  0  0  0  0  0
   38.5917   26.2128   43.6654 H   0  0  0  0  0  0  0  0  0  0  0  0
   37.2937   26.1746   41.2577 H   0  0  0  0  0  0  0  0  0  0  0  0
   36.4937   25.9173   42.8248 H   0  0  0  0  0  0  0  0  0  0  0  0
   35.8287   28.2475   42.9796 H   0  0  0  0  0  0  0  0  0  0  0  0
   35.4953   27.7952   41.2844 H   0  0  0  0  0  0  0  0  0  0  0  0
  1  7  1  0
  1  6  1  0
  2  1  1  0
  3  2  1  0
  3  4  1  0
  4  5  1  0
  5  6  1  0
  6 13  1  0
  7 12  1  0
  8  7  2  0
  8  9  1  0
  9 10  2  0
 10 11  1  0
 12 11  2  0
 13 18  1  0
 13 14  1  0
 14 15  1  0
 16 15  1  0
 17 16  1  0
 18 17  1  0
  1 19  1  6
  2 20  1  0
  2 21  1  0
  3 22  1  0
  3 23  1  0
  4 24  1  0
  4 25  1  0
  5 26  1  0
  5 27  1  0
  6 28  1  1
  8 29  1  0
  9 30  1  0
 11 31  1  0
 13 32  1  0
 14 33  1  0
 14 34  1  0
 15 35  1  0
 15 36  1  0
 16 37  1  0
 16 38  1  0
 17 39  1  0
 17 40  1  0
 18 41  1  0
 18 42  1  0
M  ISO  8  19  13  20  13  21  13  22  13  23  13  24  13  25  13  26  13
M  ISO  8  27  13  28  13  29  14  30  14  31  14  32  13  33  13  34  13
M  ISO  8  35  13  36  13  37  13  38  13  39  13  40  13  41  13  42  13
M  END
>  <minimizedAffinity>  (1) 
-5.6675787

>  <minimizedRMSD>  (1) 
4.0237484

$$$$
