
     RDKit          3D

 40 43  0  0  1  0  0  0  0  0999 V2000
   37.2080   28.9850   38.9710 C   0  0  2  0  0  0  0  0  0  0  0  0
   36.2800   29.1930   37.8410 C   0  0  0  0  0  0  0  0  0  0  0  0
   34.8270   29.0150   38.1760 C   0  0  0  0  0  0  0  0  0  0  0  0
   34.4930   29.1550   39.6200 C   0  0  0  0  0  0  0  0  0  0  0  0
   35.4260   30.1510   40.2520 C   0  0  0  0  0  0  0  0  0  0  0  0
   36.8430   29.6660   40.2690 C   0  0  1  0  0  0  0  0  0  0  0  0
   37.0720   28.7250   41.3830 C   0  0  0  0  0  0  0  0  0  0  0  0
   37.3590   29.2860   42.5920 N   0  0  0  0  0  0  0  0  0  0  0  0
   37.5730   28.4830   43.6480 C   0  0  0  0  0  0  0  0  0  0  0  0
   37.5230   27.1350   43.5960 N   0  0  0  0  0  0  0  0  0  0  0  0
   37.2440   26.5530   42.4250 C   0  0  0  0  0  0  0  0  0  0  0  0
   37.1640   25.1840   42.2380 C   0  0  0  0  0  0  0  0  0  0  0  0
   36.8760   24.6020   41.0200 C   0  0  0  0  0  0  0  0  0  0  0  0
   36.6540   25.4390   39.9260 C   0  0  0  0  0  0  0  0  0  0  0  0
   36.7350   26.8060   40.1190 C   0  0  0  0  0  0  0  0  0  0  0  0
   37.0220   27.3570   41.3340 C   0  0  0  0  0  0  0  0  0  0  0  0
   38.5680   29.4050   38.5600 C   0  0  0  0  0  0  0  0  0  0  0  0
   38.6740   30.7520   38.1780 C   0  0  0  0  0  0  0  0  0  0  0  0
   39.9250   31.2450   37.7670 C   0  0  0  0  0  0  0  0  0  0  0  0
   40.9660   30.3610   37.7720 N   0  0  0  0  0  0  0  0  0  0  0  0
   40.8350   29.0770   38.1430 C   0  0  0  0  0  0  0  0  0  0  0  0
   39.6310   28.5850   38.5420 N   0  0  0  0  0  0  0  0  0  0  0  0
   37.1490   27.9099   39.1961 H   0  0  0  0  0  0  0  0  0  0  0  0
   36.5388   28.4744   37.0494 H   0  0  0  0  0  0  0  0  0  0  0  0
   36.3995   30.2420   37.5323 H   0  0  0  0  0  0  0  0  0  0  0  0
   34.2532   29.7697   37.6182 H   0  0  0  0  0  0  0  0  0  0  0  0
   34.5721   27.9811   37.9001 H   0  0  0  0  0  0  0  0  0  0  0  0
   33.4556   29.5055   39.7248 H   0  0  0  0  0  0  0  0  0  0  0  0
   34.6011   28.1808   40.1192 H   0  0  0  0  0  0  0  0  0  0  0  0
   35.3799   31.0908   39.6823 H   0  0  0  0  0  0  0  0  0  0  0  0
   35.1069   30.2991   41.2942 H   0  0  0  0  0  0  0  0  0  0  0  0
   37.4800   30.5526   40.4035 H   0  0  0  0  0  0  0  0  0  0  0  0
   37.8033   28.9535   44.6153 H   0  0  0  0  0  0  0  0  0  0  0  0
   37.3386   24.5272   43.1029 H   0  0  0  0  0  0  0  0  0  0  0  0
   36.8230   23.5083   40.9147 H   0  0  0  0  0  0  0  0  0  0  0  0
   36.4205   25.0222   38.9352 H   0  0  0  0  0  0  0  0  0  0  0  0
   36.5618   27.4734   39.2620 H   0  0  0  0  0  0  0  0  0  0  0  0
   37.7931   31.4105   38.1999 H   0  0  0  0  0  0  0  0  0  0  0  0
   40.0587   32.2918   37.4565 H   0  0  0  0  0  0  0  0  0  0  0  0
   41.7128   28.4143   38.1240 H   0  0  0  0  0  0  0  0  0  0  0  0
  1  6  1  0
  2  3  1  0
  2  1  1  0
  3  4  1  0
  4  5  1  0
  5  6  1  0
  6  7  1  0
  7  8  2  0
  8  9  1  0
 10  9  2  0
 11 10  1  0
 12 11  2  0
 13 12  1  0
 14 15  1  0
 14 13  2  0
 15 16  2  0
 16  7  1  0
 16 11  1  0
 17  1  1  0
 18 17  2  0
 19 20  2  0
 19 18  1  0
 20 21  1  0
 21 22  2  0
 22 17  1  0
  1 23  1  1
  2 24  1  0
  2 25  1  0
  3 26  1  0
  3 27  1  0
  4 28  1  0
  4 29  1  0
  5 30  1  0
  5 31  1  0
  6 32  1  1
  9 33  1  0
 12 34  1  0
 13 35  1  0
 14 36  1  0
 15 37  1  0
 18 38  1  0
 19 39  1  0
 21 40  1  0
M  ISO  8  23  13  24  13  25  13  26  13  27  13  28  13  29  13  30  13
M  ISO  8  31  13  32  13  33  14  34  14  35  14  36  14  37  14  38  14
M  ISO  2  39  14  40  14
M  END
>  <minimizedAffinity>  (1) 
-5.60857153

>  <minimizedRMSD>  (1) 
4.66809845

$$$$
