
     RDKit          3D

 36 38  0  0  1  0  0  0  0  0999 V2000
   37.3290   29.4250   42.2400 C   0  0  2  0  0  0  0  0  0  0  0  0
   37.7410   29.0650   43.6110 C   0  0  0  0  0  0  0  0  0  0  0  0
   37.0740   27.8480   44.1760 C   0  0  0  0  0  0  0  0  0  0  0  0
   36.5930   26.8590   43.1930 C   0  0  0  0  0  0  0  0  0  0  0  0
   37.3460   26.9540   41.8990 C   0  0  0  0  0  0  0  0  0  0  0  0
   37.2760   28.2930   41.2460 C   0  0  1  0  0  0  0  0  0  0  0  0
   38.2200   30.4910   41.7320 C   0  0  0  0  0  0  0  0  0  0  0  0
   39.5490   30.4140   42.1810 C   0  0  0  0  0  0  0  0  0  0  0  0
   40.4830   31.3690   41.7730 C   0  0  0  0  0  0  0  0  0  0  0  0
   40.0230   32.3500   40.9300 N   0  0  0  0  0  0  0  0  0  0  0  0
   38.7420   32.4040   40.5100 C   0  0  0  0  0  0  0  0  0  0  0  0
   37.8320   31.4730   40.9100 N   0  0  0  0  0  0  0  0  0  0  0  0
   36.2340   28.4160   40.2210 C   0  0  0  0  0  0  0  0  0  0  0  0
   36.4040   27.8270   38.9600 C   0  0  0  0  0  0  0  0  0  0  0  0
   35.4560   27.9060   37.9420 C   0  0  0  0  0  0  0  0  0  0  0  0
   34.2810   28.5950   38.1620 C   0  0  0  0  0  0  0  0  0  0  0  0
   34.0760   29.1920   39.3960 C   0  0  0  0  0  0  0  0  0  0  0  0
   35.0530   29.0770   40.3630 C   0  0  0  0  0  0  0  0  0  0  0  0
   36.2862   29.7629   42.3312 H   0  0  0  0  0  0  0  0  0  0  0  0
   38.8265   28.8869   43.6050 H   0  0  0  0  0  0  0  0  0  0  0  0
   37.4387   29.9058   44.2526 H   0  0  0  0  0  0  0  0  0  0  0  0
   37.7962   27.3438   44.8349 H   0  0  0  0  0  0  0  0  0  0  0  0
   36.1744   28.2153   44.6915 H   0  0  0  0  0  0  0  0  0  0  0  0
   36.7246   25.8493   43.6091 H   0  0  0  0  0  0  0  0  0  0  0  0
   35.5319   27.0652   42.9891 H   0  0  0  0  0  0  0  0  0  0  0  0
   38.4028   26.7221   42.0974 H   0  0  0  0  0  0  0  0  0  0  0  0
   36.8749   26.2406   41.2069 H   0  0  0  0  0  0  0  0  0  0  0  0
   38.2016   28.3858   40.6590 H   0  0  0  0  0  0  0  0  0  0  0  0
   39.8545   29.6002   42.8551 H   0  0  0  0  0  0  0  0  0  0  0  0
   41.5300   31.3368   42.1088 H   0  0  0  0  0  0  0  0  0  0  0  0
   38.4276   33.2127   39.8339 H   0  0  0  0  0  0  0  0  0  0  0  0
   37.3343   27.2737   38.7642 H   0  0  0  0  0  0  0  0  0  0  0  0
   35.6427   27.4233   36.9714 H   0  0  0  0  0  0  0  0  0  0  0  0
   33.5198   28.6693   37.3714 H   0  0  0  0  0  0  0  0  0  0  0  0
   33.1494   29.7484   39.6008 H   0  0  0  0  0  0  0  0  0  0  0  0
   34.8610   29.5611   41.3319 H   0  0  0  0  0  0  0  0  0  0  0  0
  1  2  1  0
  2  3  1  0
  4  3  1  0
  5  4  1  0
  6  5  1  0
  6  1  1  0
  7  8  2  0
  7  1  1  0
  9  8  1  0
 10  9  2  0
 11 12  2  0
 11 10  1  0
 12  7  1  0
 13 18  1  0
 13  6  1  0
 14 13  2  0
 15 16  2  0
 15 14  1  0
 16 17  1  0
 17 18  2  0
  1 19  1  1
  2 20  1  0
  2 21  1  0
  3 22  1  0
  3 23  1  0
  4 24  1  0
  4 25  1  0
  5 26  1  0
  5 27  1  0
  6 28  1  6
  8 29  1  0
  9 30  1  0
 11 31  1  0
 14 32  1  0
 15 33  1  0
 16 34  1  0
 17 35  1  0
 18 36  1  0
M  ISO  8  19  13  20  13  21  13  22  13  23  13  24  13  25  13  26  13
M  ISO  8  27  13  28  13  29  14  30  14  31  14  32  14  33  14  34  14
M  ISO  2  35  14  36  14
M  END
>  <minimizedAffinity>  (1) 
-5.53185844

>  <minimizedRMSD>  (1) 
1.57345521

$$$$
