
     RDKit          3D

 39 42  0  0  1  0  0  0  0  0999 V2000
   37.3420   29.8250   41.7980 C   0  0  2  0  0  0  0  0  0  0  0  0
   37.9660   29.3620   43.0560 C   0  0  0  0  0  0  0  0  0  0  0  0
   37.3510   28.0940   43.5830 C   0  0  0  0  0  0  0  0  0  0  0  0
   36.9290   27.1350   42.5460 C   0  0  0  0  0  0  0  0  0  0  0  0
   37.5530   27.4110   41.1920 C   0  0  0  0  0  0  0  0  0  0  0  0
   37.2910   28.7940   40.6950 C   0  0  1  0  0  0  0  0  0  0  0  0
   38.0660   31.0170   41.3120 C   0  0  0  0  0  0  0  0  0  0  0  0
   39.4440   31.0200   41.5800 C   0  0  0  0  0  0  0  0  0  0  0  0
   40.2370   32.0970   41.1750 C   0  0  0  0  0  0  0  0  0  0  0  0
   39.5920   33.1160   40.5170 N   0  0  0  0  0  0  0  0  0  0  0  0
   38.2700   33.0930   40.2710 C   0  0  0  0  0  0  0  0  0  0  0  0
   37.4950   32.0420   40.6670 N   0  0  0  0  0  0  0  0  0  0  0  0
   36.1190   28.8980   39.8540 N   0  0  0  0  0  0  0  0  0  0  0  0
   34.8240   28.9880   40.1210 C   0  0  0  0  0  0  0  0  0  0  0  0
   34.1380   29.0640   38.9640 N   0  0  0  0  0  0  0  0  0  0  0  0
   35.0450   29.0200   37.9450 C   0  0  0  0  0  0  0  0  0  0  0  0
   34.7410   29.0710   36.6000 C   0  0  0  0  0  0  0  0  0  0  0  0
   35.7990   29.0110   35.7700 N   0  0  0  0  0  0  0  0  0  0  0  0
   37.0450   28.9080   36.2760 C   0  0  0  0  0  0  0  0  0  0  0  0
   37.2610   28.8630   37.6010 N   0  0  0  0  0  0  0  0  0  0  0  0
   36.2870   28.9150   38.5140 C   0  0  0  0  0  0  0  0  0  0  0  0
   33.4300   29.1790   36.1000 N   0  0  0  0  0  0  0  0  0  0  0  0
   36.2943   30.0498   42.0466 H   0  0  0  0  0  0  0  0  0  0  0  0
   39.0357   29.1831   42.8720 H   0  0  0  0  0  0  0  0  0  0  0  0
   37.8057   30.1452   43.8115 H   0  0  0  0  0  0  0  0  0  0  0  0
   38.0906   27.5972   44.2281 H   0  0  0  0  0  0  0  0  0  0  0  0
   36.4382   28.3919   44.1196 H   0  0  0  0  0  0  0  0  0  0  0  0
   37.2193   26.1233   42.8657 H   0  0  0  0  0  0  0  0  0  0  0  0
   35.8394   27.2337   42.4315 H   0  0  0  0  0  0  0  0  0  0  0  0
   38.6408   27.2687   41.2727 H   0  0  0  0  0  0  0  0  0  0  0  0
   37.0974   26.7136   40.4737 H   0  0  0  0  0  0  0  0  0  0  0  0
   38.1288   29.0339   40.0238 H   0  0  0  0  0  0  0  0  0  0  0  0
   39.9011   30.1717   42.1106 H   0  0  0  0  0  0  0  0  0  0  0  0
   41.3187   32.1272   41.3723 H   0  0  0  0  0  0  0  0  0  0  0  0
   37.8048   33.9371   39.7407 H   0  0  0  0  0  0  0  0  0  0  0  0
   34.3799   28.9989   41.1273 H   0  0  0  0  0  0  0  0  0  0  0  0
   37.9027   28.8598   35.5889 H   0  0  0  0  0  0  0  0  0  0  0  0
   33.2677   29.2125   35.0834 H   0  0  0  0  0  0  0  0  0  0  0  0
   32.6328   29.2245   36.7506 H   0  0  0  0  0  0  0  0  0  0  0  0
  1  2  1  0
  2  3  1  0
  4  3  1  0
  5  4  1  0
  6  5  1  0
  6  1  1  0
  7  8  2  0
  7  1  1  0
  9  8  1  0
 10  9  2  0
 11 10  1  0
 11 12  2  0
 12  7  1  0
 13 14  1  0
 13  6  1  0
 15 14  2  0
 16 21  2  0
 16 15  1  0
 17 16  1  0
 18 19  1  0
 18 17  2  0
 19 20  2  0
 20 21  1  0
 21 13  1  0
 22 17  1  0
  1 23  1  1
  2 24  1  0
  2 25  1  0
  3 26  1  0
  3 27  1  0
  4 28  1  0
  4 29  1  0
  5 30  1  0
  5 31  1  0
  6 32  1  6
  8 33  1  0
  9 34  1  0
 11 35  1  0
 14 36  1  0
 19 37  1  0
 22 38  1  0
 22 39  1  0
M  ISO  8  23  13  24  13  25  13  26  13  27  13  28  13  29  13  30  13
M  ISO  7  31  13  32  13  33  14  34  14  35  14  36  14  37  14
M  END
>  <minimizedAffinity>  (1) 
-5.39061308

>  <minimizedRMSD>  (1) 
1.65180981

$$$$
