
     RDKit          3D

 36 38  0  0  1  0  0  0  0  0999 V2000
   37.3620   29.5270   42.2130 C   0  0  2  0  0  0  0  0  0  0  0  0
   37.7820   29.1310   43.5700 C   0  0  0  0  0  0  0  0  0  0  0  0
   37.0860   27.9250   44.1220 C   0  0  0  0  0  0  0  0  0  0  0  0
   36.6700   26.9180   43.1220 C   0  0  0  0  0  0  0  0  0  0  0  0
   37.3310   27.0690   41.8020 C   0  0  0  0  0  0  0  0  0  0  0  0
   37.3340   28.4130   41.1950 C   0  0  1  0  0  0  0  0  0  0  0  0
   38.2690   30.5930   41.7280 C   0  0  0  0  0  0  0  0  0  0  0  0
   39.5870   30.5160   42.2070 C   0  0  0  0  0  0  0  0  0  0  0  0
   40.5190   31.4800   41.7980 C   0  0  0  0  0  0  0  0  0  0  0  0
   40.0690   32.4510   40.9400 N   0  0  0  0  0  0  0  0  0  0  0  0
   38.7990   32.5010   40.4960 C   0  0  0  0  0  0  0  0  0  0  0  0
   37.8970   31.5720   40.8900 N   0  0  0  0  0  0  0  0  0  0  0  0
   36.4030   28.6230   40.1110 N   0  0  0  0  0  0  0  0  0  0  0  0
   35.0810   28.9390   40.2750 C   0  0  0  0  0  0  0  0  0  0  0  0
   34.1870   29.1400   39.2750 C   0  0  0  0  0  0  0  0  0  0  0  0
   34.6000   29.0270   37.9840 C   0  0  0  0  0  0  0  0  0  0  0  0
   33.8040   29.2070   37.0340 O   0  0  0  0  0  0  0  0  0  0  0  0
   35.8840   28.7200   37.7820 N   0  0  0  0  0  0  0  0  0  0  0  0
   36.7330   28.5300   38.8090 C   0  0  0  0  0  0  0  0  0  0  0  0
   37.9030   28.2480   38.4850 O   0  0  0  0  0  0  0  0  0  0  0  0
   36.3204   29.8672   42.3098 H   0  0  0  0  0  0  0  0  0  0  0  0
   38.8614   28.9204   43.5452 H   0  0  0  0  0  0  0  0  0  0  0  0
   37.5153   29.9689   44.2309 H   0  0  0  0  0  0  0  0  0  0  0  0
   37.7681   27.4355   44.8327 H   0  0  0  0  0  0  0  0  0  0  0  0
   36.1582   28.2954   44.5823 H   0  0  0  0  0  0  0  0  0  0  0  0
   36.9094   25.9195   43.5165 H   0  0  0  0  0  0  0  0  0  0  0  0
   35.5920   27.0608   42.9562 H   0  0  0  0  0  0  0  0  0  0  0  0
   38.3794   26.7579   41.9204 H   0  0  0  0  0  0  0  0  0  0  0  0
   36.7334   26.4513   41.1155 H   0  0  0  0  0  0  0  0  0  0  0  0
   38.3035   28.4560   40.6771 H   0  0  0  0  0  0  0  0  0  0  0  0
   39.8840   29.7099   42.8940 H   0  0  0  0  0  0  0  0  0  0  0  0
   41.5615   31.4588   42.1484 H   0  0  0  0  0  0  0  0  0  0  0  0
   38.4922   33.3026   39.8081 H   0  0  0  0  0  0  0  0  0  0  0  0
   34.7121   29.0384   41.3065 H   0  0  0  0  0  0  0  0  0  0  0  0
   33.1411   29.3912   39.5052 H   0  0  0  0  0  0  0  0  0  0  0  0
   36.2328   28.6264   36.8174 H   0  0  0  0  0  0  0  0  0  0  0  0
  1  2  1  0
  2  3  1  0
  4  3  1  0
  5  4  1  0
  6  5  1  0
  6  1  1  0
  7  8  2  0
  7  1  1  0
  9  8  1  0
 10  9  2  0
 11 12  2  0
 11 10  1  0
 12  7  1  0
 13 14  1  0
 13  6  1  0
 15 14  2  0
 16 15  1  0
 17 16  2  0
 18 16  1  0
 18 19  1  0
 19 13  1  0
 20 19  2  0
  1 21  1  1
  2 22  1  0
  2 23  1  0
  3 24  1  0
  3 25  1  0
  4 26  1  0
  4 27  1  0
  5 28  1  0
  5 29  1  0
  6 30  1  6
  8 31  1  0
  9 32  1  0
 11 33  1  0
 14 34  1  0
 15 35  1  0
 18 36  1  0
M  ISO  8  21  13  22  13  23  13  24  13  25  13  26  13  27  13  28  13
M  ISO  8  29  13  30  13  31  14  32  14  33  14  34  14  35  14  36   9
M  END
>  <minimizedAffinity>  (1) 
-5.2983346

>  <minimizedRMSD>  (1) 
1.71528518

$$$$
