
     RDKit          3D

 29 30  0  0  1  0  0  0  0  0999 V2000
   37.8510   29.7230   42.4300 C   0  0  2  0  0  0  0  0  0  0  0  0
   38.3470   28.8380   43.5060 C   0  0  0  0  0  0  0  0  0  0  0  0
   37.3230   27.8300   43.9490 C   0  0  0  0  0  0  0  0  0  0  0  0
   36.4630   27.2890   42.8800 C   0  0  0  0  0  0  0  0  0  0  0  0
   36.9810   27.5770   41.5050 C   0  0  0  0  0  0  0  0  0  0  0  0
   37.2180   29.0280   41.2520 C   0  0  1  0  0  0  0  0  0  0  0  0
   38.9610   30.5850   41.9680 C   0  0  0  0  0  0  0  0  0  0  0  0
   40.2370   30.2020   42.4130 C   0  0  0  0  0  0  0  0  0  0  0  0
   41.3530   30.9520   42.0320 C   0  0  0  0  0  0  0  0  0  0  0  0
   41.1190   32.0370   41.2280 N   0  0  0  0  0  0  0  0  0  0  0  0
   39.8830   32.3840   40.8130 C   0  0  0  0  0  0  0  0  0  0  0  0
   38.8150   31.6580   41.1840 N   0  0  0  0  0  0  0  0  0  0  0  0
   35.9100   29.6730   40.9790 C   0  0  0  0  0  0  0  0  0  0  0  0
   34.9130   29.1260   40.4040 O   0  0  0  0  0  0  0  0  0  0  0  0
   35.5310   30.9540   41.2880 O   0  0  0  0  0  0  0  0  0  0  0  0
   37.0347   30.3078   42.8792 H   0  0  0  0  0  0  0  0  0  0  0  0
   39.2334   28.3003   43.1384 H   0  0  0  0  0  0  0  0  0  0  0  0
   38.5850   29.4717   44.3731 H   0  0  0  0  0  0  0  0  0  0  0  0
   37.8556   26.9877   44.4148 H   0  0  0  0  0  0  0  0  0  0  0  0
   36.6510   28.3636   44.6372 H   0  0  0  0  0  0  0  0  0  0  0  0
   36.3926   26.1985   43.0060 H   0  0  0  0  0  0  0  0  0  0  0  0
   35.4822   27.7790   42.9695 H   0  0  0  0  0  0  0  0  0  0  0  0
   37.9317   27.0401   41.3712 H   0  0  0  0  0  0  0  0  0  0  0  0
   36.2115   27.2450   40.7924 H   0  0  0  0  0  0  0  0  0  0  0  0
   37.9076   29.1133   40.3993 H   0  0  0  0  0  0  0  0  0  0  0  0
   40.3570   29.3181   43.0567 H   0  0  0  0  0  0  0  0  0  0  0  0
   42.3681   30.6849   42.3609 H   0  0  0  0  0  0  0  0  0  0  0  0
   39.7491   33.2650   40.1682 H   0  0  0  0  0  0  0  0  0  0  0  0
   34.6235   31.2721   41.0527 H   0  0  0  0  0  0  0  0  0  0  0  0
  1  2  1  0
  2  3  1  0
  4  3  1  0
  5  4  1  0
  6  5  1  0
  6  1  1  0
  7  8  2  0
  7  1  1  0
  9  8  1  0
 10  9  2  0
 11 12  2  0
 11 10  1  0
 12  7  1  0
 13  6  1  0
 13 15  1  0
 14 13  2  0
  1 16  1  1
  2 17  1  0
  2 18  1  0
  3 19  1  0
  3 20  1  0
  4 21  1  0
  4 22  1  0
  5 23  1  0
  5 24  1  0
  6 25  1  6
  8 26  1  0
  9 27  1  0
 11 28  1  0
 15 29  1  0
M  ISO  8  16  13  17  13  18  13  19  13  20  13  21  13  22  13  23  13
M  ISO  6  24  13  25  13  26  14  27  14  28  14  29   3
M  END
>  <minimizedAffinity>  (1) 
-5.13479853

>  <minimizedRMSD>  (1) 
1.73156309

$$$$
