
     RDKit          3D

 33 35  0  0  1  0  0  0  0  0999 V2000
   38.2920   31.4800   39.3850 C   0  0  2  0  0  0  0  0  0  0  0  0
   37.6750   31.4620   38.0460 C   0  0  0  0  0  0  0  0  0  0  0  0
   36.6880   30.3550   37.8010 C   0  0  0  0  0  0  0  0  0  0  0  0
   36.1380   29.7090   39.0210 C   0  0  0  0  0  0  0  0  0  0  0  0
   36.0350   30.7190   40.1280 C   0  0  0  0  0  0  0  0  0  0  0  0
   37.3690   31.2320   40.5510 C   0  0  1  0  0  0  0  0  0  0  0  0
   38.9950   32.7670   39.5760 C   0  0  0  0  0  0  0  0  0  0  0  0
   38.2050   33.8050   40.0930 C   0  0  0  0  0  0  0  0  0  0  0  0
   38.7640   35.0690   40.3010 C   0  0  0  0  0  0  0  0  0  0  0  0
   40.0920   35.2160   39.9780 N   0  0  0  0  0  0  0  0  0  0  0  0
   40.8300   34.2010   39.4820 C   0  0  0  0  0  0  0  0  0  0  0  0
   40.2880   32.9670   39.2770 N   0  0  0  0  0  0  0  0  0  0  0  0
   37.9650   30.3330   41.5730 C   0  0  0  0  0  0  0  0  0  0  0  0
   39.3310   30.0720   41.7240 C   0  0  0  0  0  0  0  0  0  0  0  0
   39.3490   29.1840   42.8030 C   0  0  0  0  0  0  0  0  0  0  0  0
   38.0540   28.9650   43.2290 C   0  0  0  0  0  0  0  0  0  0  0  0
   37.2770   29.6670   42.4690 O   0  0  0  0  0  0  0  0  0  0  0  0
   38.9795   30.6213   39.3919 H   0  0  0  0  0  0  0  0  0  0  0  0
   37.1529   32.4193   37.9010 H   0  0  0  0  0  0  0  0  0  0  0  0
   38.4989   31.2932   37.3370 H   0  0  0  0  0  0  0  0  0  0  0  0
   35.8460   30.7717   37.2289 H   0  0  0  0  0  0  0  0  0  0  0  0
   37.2410   29.5693   37.2655 H   0  0  0  0  0  0  0  0  0  0  0  0
   35.1389   29.3045   38.8014 H   0  0  0  0  0  0  0  0  0  0  0  0
   36.8070   28.8937   39.3337 H   0  0  0  0  0  0  0  0  0  0  0  0
   35.4248   31.5652   39.7793 H   0  0  0  0  0  0  0  0  0  0  0  0
   35.5748   30.2225   40.9950 H   0  0  0  0  0  0  0  0  0  0  0  0
   37.2203   32.2181   41.0152 H   0  0  0  0  0  0  0  0  0  0  0  0
   37.1471   33.6242   40.3343 H   0  0  0  0  0  0  0  0  0  0  0  0
   38.1712   35.9039   40.7029 H   0  0  0  0  0  0  0  0  0  0  0  0
   41.8889   34.3725   39.2385 H   0  0  0  0  0  0  0  0  0  0  0  0
   40.1767   30.4659   41.1412 H   0  0  0  0  0  0  0  0  0  0  0  0
   40.2504   28.7320   43.2425 H   0  0  0  0  0  0  0  0  0  0  0  0
   37.7413   28.3150   44.0595 H   0  0  0  0  0  0  0  0  0  0  0  0
  1  7  1  0
  1  6  1  0
  2  1  1  0
  3  2  1  0
  3  4  1  0
  4  5  1  0
  5  6  1  0
  6 13  1  0
  7  8  2  0
  8  9  1  0
 10  9  2  0
 11 10  1  0
 12 11  2  0
 12  7  1  0
 13 14  2  0
 13 17  1  0
 14 15  1  0
 15 16  2  0
 17 16  1  0
  1 18  1  6
  2 19  1  0
  2 20  1  0
  3 21  1  0
  3 22  1  0
  4 23  1  0
  4 24  1  0
  5 25  1  0
  5 26  1  0
  6 27  1  1
  8 28  1  0
  9 29  1  0
 11 30  1  0
 14 31  1  0
 15 32  1  0
 16 33  1  0
M  ISO  8  18  13  19  13  20  13  21  13  22  13  23  13  24  13  25  13
M  ISO  8  26  13  27  13  28  14  29  14  30  14  31  14  32  14  33  14
M  END
>  <minimizedAffinity>  (1) 
-5.12064981

>  <minimizedRMSD>  (1) 
4.35993671

$$$$
