
     RDKit          3D

 34 36  0  0  1  0  0  0  0  0999 V2000
   37.3920   29.3700   42.1510 C   0  0  2  0  0  0  0  0  0  0  0  0
   37.7040   29.0200   43.5510 C   0  0  0  0  0  0  0  0  0  0  0  0
   36.9780   27.7980   44.0430 C   0  0  0  0  0  0  0  0  0  0  0  0
   36.6990   26.7660   43.0280 C   0  0  0  0  0  0  0  0  0  0  0  0
   37.5600   26.9040   41.8070 C   0  0  0  0  0  0  0  0  0  0  0  0
   37.4710   28.2400   41.1540 C   0  0  1  0  0  0  0  0  0  0  0  0
   38.2810   30.4780   41.7200 C   0  0  0  0  0  0  0  0  0  0  0  0
   39.6040   30.3770   42.1830 C   0  0  0  0  0  0  0  0  0  0  0  0
   40.5240   31.3750   41.8320 C   0  0  0  0  0  0  0  0  0  0  0  0
   40.0530   32.3980   41.0460 N   0  0  0  0  0  0  0  0  0  0  0  0
   38.7830   32.4690   40.6180 C   0  0  0  0  0  0  0  0  0  0  0  0
   37.8900   31.5020   40.9560 N   0  0  0  0  0  0  0  0  0  0  0  0
   36.3910   28.3490   40.1490 C   0  0  0  0  0  0  0  0  0  0  0  0
   35.2160   29.0210   40.4190 C   0  0  0  0  0  0  0  0  0  0  0  0
   34.1710   29.1600   39.5260 C   0  0  0  0  0  0  0  0  0  0  0  0
   34.3550   28.5840   38.3160 N   0  0  0  0  0  0  0  0  0  0  0  0
   35.4910   27.9240   38.0290 C   0  0  0  0  0  0  0  0  0  0  0  0
   36.4700   27.8150   38.9170 N   0  0  0  0  0  0  0  0  0  0  0  0
   36.3321   29.6643   42.1544 H   0  0  0  0  0  0  0  0  0  0  0  0
   38.7858   28.8373   43.6309 H   0  0  0  0  0  0  0  0  0  0  0  0
   37.3746   29.8637   44.1752 H   0  0  0  0  0  0  0  0  0  0  0  0
   37.5891   27.3377   44.8334 H   0  0  0  0  0  0  0  0  0  0  0  0
   35.9951   28.1524   44.3870 H   0  0  0  0  0  0  0  0  0  0  0  0
   36.8779   25.7766   43.4743 H   0  0  0  0  0  0  0  0  0  0  0  0
   35.6527   26.8874   42.7110 H   0  0  0  0  0  0  0  0  0  0  0  0
   38.6061   26.7303   42.0994 H   0  0  0  0  0  0  0  0  0  0  0  0
   37.1980   26.1662   41.0758 H   0  0  0  0  0  0  0  0  0  0  0  0
   38.4185   28.3374   40.6038 H   0  0  0  0  0  0  0  0  0  0  0  0
   39.9129   29.5283   42.8109 H   0  0  0  0  0  0  0  0  0  0  0  0
   41.5705   31.3404   42.1692 H   0  0  0  0  0  0  0  0  0  0  0  0
   38.4633   33.3140   39.9905 H   0  0  0  0  0  0  0  0  0  0  0  0
   35.1039   29.4773   41.4136 H   0  0  0  0  0  0  0  0  0  0  0  0
   33.2496   29.7035   39.7822 H   0  0  0  0  0  0  0  0  0  0  0  0
   35.6108   27.4648   37.0366 H   0  0  0  0  0  0  0  0  0  0  0  0
  1  2  1  0
  2  3  1  0
  4  3  1  0
  5  4  1  0
  6  5  1  0
  6  1  1  0
  7  1  1  0
  7  8  2  0
  9  8  1  0
 10  9  2  0
 11 12  2  0
 11 10  1  0
 12  7  1  0
 13 14  2  0
 13  6  1  0
 15 14  1  0
 16 15  2  0
 17 16  1  0
 17 18  2  0
 18 13  1  0
  1 19  1  1
  2 20  1  0
  2 21  1  0
  3 22  1  0
  3 23  1  0
  4 24  1  0
  4 25  1  0
  5 26  1  0
  5 27  1  0
  6 28  1  6
  8 29  1  0
  9 30  1  0
 11 31  1  0
 14 32  1  0
 15 33  1  0
 17 34  1  0
M  ISO  8  19  13  20  13  21  13  22  13  23  13  24  13  25  13  26  13
M  ISO  8  27  13  28  13  29  14  30  14  31  14  32  14  33  14  34  14
M  END
>  <minimizedAffinity>  (1) 
-5.05405998

>  <minimizedRMSD>  (1) 
1.82871032

$$$$
