
     RDKit          3D

 33 35  0  0  1  0  0  0  0  0999 V2000
   37.4320   29.4760   42.1650 C   0  0  2  0  0  0  0  0  0  0  0  0
   37.9430   29.0030   43.4670 C   0  0  0  0  0  0  0  0  0  0  0  0
   37.2390   27.7840   43.9900 C   0  0  0  0  0  0  0  0  0  0  0  0
   36.7280   26.8550   42.9640 C   0  0  0  0  0  0  0  0  0  0  0  0
   37.4240   27.0370   41.6460 C   0  0  0  0  0  0  0  0  0  0  0  0
   37.2910   28.4230   41.0940 C   0  0  1  0  0  0  0  0  0  0  0  0
   38.2950   30.5790   41.6760 C   0  0  0  0  0  0  0  0  0  0  0  0
   39.6370   30.4930   42.0810 C   0  0  0  0  0  0  0  0  0  0  0  0
   40.5340   31.4870   41.6690 C   0  0  0  0  0  0  0  0  0  0  0  0
   40.0310   32.4950   40.8830 N   0  0  0  0  0  0  0  0  0  0  0  0
   38.7370   32.5470   40.5120 C   0  0  0  0  0  0  0  0  0  0  0  0
   37.8700   31.5880   40.9090 N   0  0  0  0  0  0  0  0  0  0  0  0
   36.0780   28.6340   40.2670 C   0  0  0  0  0  0  0  0  0  0  0  0
   35.9370   28.2040   38.9420 C   0  0  0  0  0  0  0  0  0  0  0  0
   34.6650   28.5950   38.5330 C   0  0  0  0  0  0  0  0  0  0  0  0
   34.0870   29.2260   39.5800 N   0  0  0  0  0  0  0  0  0  0  0  0
   34.9390   29.2440   40.6080 N   0  0  0  0  0  0  0  0  0  0  0  0
   36.4037   29.8147   42.3595 H   0  0  0  0  0  0  0  0  0  0  0  0
   39.0109   28.7646   43.3541 H   0  0  0  0  0  0  0  0  0  0  0  0
   37.7652   29.8105   44.1925 H   0  0  0  0  0  0  0  0  0  0  0  0
   37.9463   27.2310   44.6255 H   0  0  0  0  0  0  0  0  0  0  0  0
   36.3543   28.1546   44.5285 H   0  0  0  0  0  0  0  0  0  0  0  0
   36.8852   25.8225   43.3094 H   0  0  0  0  0  0  0  0  0  0  0  0
   35.6585   27.0657   42.8162 H   0  0  0  0  0  0  0  0  0  0  0  0
   38.4930   26.8161   41.7819 H   0  0  0  0  0  0  0  0  0  0  0  0
   36.9481   26.3526   40.9282 H   0  0  0  0  0  0  0  0  0  0  0  0
   38.1372   28.5363   40.4004 H   0  0  0  0  0  0  0  0  0  0  0  0
   39.9782   29.6587   42.7115 H   0  0  0  0  0  0  0  0  0  0  0  0
   41.5940   31.4615   41.9619 H   0  0  0  0  0  0  0  0  0  0  0  0
   38.3829   33.3758   39.8814 H   0  0  0  0  0  0  0  0  0  0  0  0
   36.6842   27.6636   38.3423 H   0  0  0  0  0  0  0  0  0  0  0  0
   34.2148   28.4230   37.5442 H   0  0  0  0  0  0  0  0  0  0  0  0
   33.1392   29.6291   39.5839 H   0  0  0  0  0  0  0  0  0  0  0  0
  1  2  1  0
  2  3  1  0
  4  3  1  0
  5  4  1  0
  6  5  1  0
  6  1  1  0
  7  8  2  0
  7  1  1  0
  9  8  1  0
 10  9  2  0
 11 10  1  0
 11 12  2  0
 12  7  1  0
 13 17  2  0
 13  6  1  0
 14 13  1  0
 15 14  2  0
 15 16  1  0
 16 17  1  0
  1 18  1  1
  2 19  1  0
  2 20  1  0
  3 21  1  0
  3 22  1  0
  4 23  1  0
  4 24  1  0
  5 25  1  0
  5 26  1  0
  6 27  1  6
  8 28  1  0
  9 29  1  0
 11 30  1  0
 14 31  1  0
 15 32  1  0
 16 33  1  0
M  ISO  8  18  13  19  13  20  13  21  13  22  13  23  13  24  13  25  13
M  ISO  8  26  13  27  13  28  14  29  14  30  14  31  14  32  14  33   9
M  END
>  <minimizedAffinity>  (1) 
-4.99821043

>  <minimizedRMSD>  (1) 
1.37034881

$$$$
