
     RDKit          3D

 33 35  0  0  1  0  0  0  0  0999 V2000
   37.4840   29.3870   42.3010 C   0  0  2  0  0  0  0  0  0  0  0  0
   37.8200   28.9840   43.6820 C   0  0  0  0  0  0  0  0  0  0  0  0
   36.9890   27.8520   44.2090 C   0  0  0  0  0  0  0  0  0  0  0  0
   36.5300   26.8700   43.2080 C   0  0  0  0  0  0  0  0  0  0  0  0
   37.3280   26.9180   41.9400 C   0  0  0  0  0  0  0  0  0  0  0  0
   37.3670   28.2620   41.3000 C   0  0  1  0  0  0  0  0  0  0  0  0
   38.4810   30.3740   41.8290 C   0  0  0  0  0  0  0  0  0  0  0  0
   39.7040   30.3590   42.5200 C   0  0  0  0  0  0  0  0  0  0  0  0
   40.7090   31.2550   42.1380 C   0  0  0  0  0  0  0  0  0  0  0  0
   40.4270   32.1030   41.0950 N   0  0  0  0  0  0  0  0  0  0  0  0
   39.2420   32.0930   40.4520 C   0  0  0  0  0  0  0  0  0  0  0  0
   38.2800   31.2300   40.8210 N   0  0  0  0  0  0  0  0  0  0  0  0
   36.2720   28.4750   40.3750 N   0  0  0  0  0  0  0  0  0  0  0  0
   35.1560   29.1540   40.5990 N   0  0  0  0  0  0  0  0  0  0  0  0
   34.3790   29.1390   39.5250 C   0  0  0  0  0  0  0  0  0  0  0  0
   35.0810   28.3930   38.5730 C   0  0  0  0  0  0  0  0  0  0  0  0
   36.2940   27.9720   39.1310 C   0  0  0  0  0  0  0  0  0  0  0  0
   36.4734   29.8175   42.3584 H   0  0  0  0  0  0  0  0  0  0  0  0
   38.8761   28.6772   43.7050 H   0  0  0  0  0  0  0  0  0  0  0  0
   37.6160   29.8532   44.3246 H   0  0  0  0  0  0  0  0  0  0  0  0
   37.5882   27.3144   44.9586 H   0  0  0  0  0  0  0  0  0  0  0  0
   36.0764   28.3150   44.6125 H   0  0  0  0  0  0  0  0  0  0  0  0
   36.6158   25.8618   43.6395 H   0  0  0  0  0  0  0  0  0  0  0  0
   35.4887   27.1175   42.9540 H   0  0  0  0  0  0  0  0  0  0  0  0
   38.3600   26.6137   42.1689 H   0  0  0  0  0  0  0  0  0  0  0  0
   36.8350   26.2402   41.2276 H   0  0  0  0  0  0  0  0  0  0  0  0
   38.2914   28.2761   40.7039 H   0  0  0  0  0  0  0  0  0  0  0  0
   39.8691   29.6542   43.3482 H   0  0  0  0  0  0  0  0  0  0  0  0
   41.6820   31.2790   42.6506 H   0  0  0  0  0  0  0  0  0  0  0  0
   39.0620   32.7932   39.6230 H   0  0  0  0  0  0  0  0  0  0  0  0
   33.3929   29.6122   39.4077 H   0  0  0  0  0  0  0  0  0  0  0  0
   34.7362   28.1728   37.5519 H   0  0  0  0  0  0  0  0  0  0  0  0
   37.0830   27.3683   38.6588 H   0  0  0  0  0  0  0  0  0  0  0  0
  1  2  1  0
  2  3  1  0
  4  3  1  0
  5  4  1  0
  6  5  1  0
  6  1  1  0
  7  1  1  0
  7  8  2  0
  9  8  1  0
 10  9  2  0
 11 12  2  0
 11 10  1  0
 12  7  1  0
 13 14  1  0
 13  6  1  0
 15 14  2  0
 16 17  2  0
 16 15  1  0
 17 13  1  0
  1 18  1  1
  2 19  1  0
  2 20  1  0
  3 21  1  0
  3 22  1  0
  4 23  1  0
  4 24  1  0
  5 25  1  0
  5 26  1  0
  6 27  1  6
  8 28  1  0
  9 29  1  0
 11 30  1  0
 15 31  1  0
 16 32  1  0
 17 33  1  0
M  ISO  8  18  13  19  13  20  13  21  13  22  13  23  13  24  13  25  13
M  ISO  8  26  13  27  13  28  14  29  14  30  14  31  14  32  14  33  14
M  END
>  <minimizedAffinity>  (1) 
-4.91363955

>  <minimizedRMSD>  (1) 
1.86172998

$$$$
