
     RDKit          3D

 38 39  0  0  1  0  0  0  0  0999 V2000
   37.3360   29.5750   41.7560 C   0  0  2  0  0  0  0  0  0  0  0  0
   37.7280   29.1840   43.1260 C   0  0  0  0  0  0  0  0  0  0  0  0
   37.1150   27.8860   43.5630 C   0  0  0  0  0  0  0  0  0  0  0  0
   37.0160   26.8490   42.5220 C   0  0  0  0  0  0  0  0  0  0  0  0
   37.7710   27.1600   41.2800 C   0  0  0  0  0  0  0  0  0  0  0  0
   37.5090   28.5170   40.6990 C   0  0  1  0  0  0  0  0  0  0  0  0
   38.0900   30.7950   41.3860 C   0  0  0  0  0  0  0  0  0  0  0  0
   39.4660   30.7560   41.6700 C   0  0  0  0  0  0  0  0  0  0  0  0
   40.2550   31.8660   41.3390 C   0  0  0  0  0  0  0  0  0  0  0  0
   39.6240   32.9340   40.7520 N   0  0  0  0  0  0  0  0  0  0  0  0
   38.2980   32.9360   40.4930 C   0  0  0  0  0  0  0  0  0  0  0  0
   37.5450   31.8700   40.8120 N   0  0  0  0  0  0  0  0  0  0  0  0
   36.3880   28.4920   39.6740 C   0  0  0  0  0  0  0  0  0  0  0  0
   36.6040   29.3960   38.5170 C   0  0  0  0  0  0  0  0  0  0  0  0
   36.0400   27.0860   39.2380 C   0  0  0  0  0  0  0  0  0  0  0  0
   35.1270   28.9990   40.3860 C   0  0  0  0  0  0  0  0  0  0  0  0
   36.2505   29.7504   41.7862 H   0  0  0  0  0  0  0  0  0  0  0  0
   38.8229   29.0845   43.1624 H   0  0  0  0  0  0  0  0  0  0  0  0
   37.3640   29.9662   43.8084 H   0  0  0  0  0  0  0  0  0  0  0  0
   37.7245   27.4834   44.3855 H   0  0  0  0  0  0  0  0  0  0  0  0
   36.0805   28.1230   43.8523 H   0  0  0  0  0  0  0  0  0  0  0  0
   37.4047   25.9067   42.9354 H   0  0  0  0  0  0  0  0  0  0  0  0
   35.9548   26.7842   42.2396 H   0  0  0  0  0  0  0  0  0  0  0  0
   38.8449   27.0882   41.5071 H   0  0  0  0  0  0  0  0  0  0  0  0
   37.4329   26.4337   40.5262 H   0  0  0  0  0  0  0  0  0  0  0  0
   38.4136   28.8090   40.1454 H   0  0  0  0  0  0  0  0  0  0  0  0
   39.9153   29.8705   42.1434 H   0  0  0  0  0  0  0  0  0  0  0  0
   41.3361   31.8806   41.5415 H   0  0  0  0  0  0  0  0  0  0  0  0
   37.8333   33.8134   40.0194 H   0  0  0  0  0  0  0  0  0  0  0  0
   36.8453   30.4057   38.8807 H   0  0  0  0  0  0  0  0  0  0  0  0
   37.4370   29.0174   37.9064 H   0  0  0  0  0  0  0  0  0  0  0  0
   35.6899   29.4349   37.9064 H   0  0  0  0  0  0  0  0  0  0  0  0
   35.8838   26.4550   40.1254 H   0  0  0  0  0  0  0  0  0  0  0  0
   35.1197   27.1061   38.6358 H   0  0  0  0  0  0  0  0  0  0  0  0
   36.8634   26.6745   38.6358 H   0  0  0  0  0  0  0  0  0  0  0  0
   35.2722   28.9406   41.4748 H   0  0  0  0  0  0  0  0  0  0  0  0
   34.9374   30.0432   40.0968 H   0  0  0  0  0  0  0  0  0  0  0  0
   34.2673   28.3766   40.0968 H   0  0  0  0  0  0  0  0  0  0  0  0
  1  2  1  0
  2  3  1  0
  4  3  1  0
  5  4  1  0
  6  5  1  0
  6  1  1  0
  7  8  2  0
  7  1  1  0
  9  8  1  0
 10  9  2  0
 11 10  1  0
 11 12  2  0
 12  7  1  0
 13 16  1  0
 13  6  1  0
 14 13  1  0
 15 13  1  0
  1 17  1  1
  2 18  1  0
  2 19  1  0
  3 20  1  0
  3 21  1  0
  4 22  1  0
  4 23  1  0
  5 24  1  0
  5 25  1  0
  6 26  1  6
  8 27  1  0
  9 28  1  0
 11 29  1  0
 14 30  1  0
 14 31  1  0
 14 32  1  0
 15 33  1  0
 15 34  1  0
 15 35  1  0
 16 36  1  0
 16 37  1  0
 16 38  1  0
M  ISO  8  17  13  18  13  19  13  20  13  21  13  22  13  23  13  24  13
M  ISO  8  25  13  26  13  27  14  28  14  29  14  30   8  31   8  32   8
M  ISO  6  33   8  34   8  35   8  36   8  37   8  38   8
M  END
>  <minimizedAffinity>  (1) 
-4.6940546

>  <minimizedRMSD>  (1) 
1.43535924

$$$$
