
     RDKit          3D

 28 29  0  0  1  0  0  0  0  0999 V2000
   37.0400   29.9280   41.8900 C   0  0  2  0  0  0  0  0  0  0  0  0
   38.0910   29.4510   42.8120 C   0  0  0  0  0  0  0  0  0  0  0  0
   37.6470   28.3040   43.6740 C   0  0  0  0  0  0  0  0  0  0  0  0
   36.7190   27.3510   43.0420 C   0  0  0  0  0  0  0  0  0  0  0  0
   36.6730   27.4820   41.5490 C   0  0  0  0  0  0  0  0  0  0  0  0
   36.3750   28.8570   41.0600 C   0  0  1  0  0  0  0  0  0  0  0  0
   37.6100   30.9590   40.9950 C   0  0  0  0  0  0  0  0  0  0  0  0
   39.0130   31.0220   40.9910 C   0  0  0  0  0  0  0  0  0  0  0  0
   39.6630   31.9650   40.1880 C   0  0  0  0  0  0  0  0  0  0  0  0
   38.8590   32.7850   39.4380 N   0  0  0  0  0  0  0  0  0  0  0  0
   37.5150   32.7050   39.4570 C   0  0  0  0  0  0  0  0  0  0  0  0
   36.8840   31.7900   40.2380 N   0  0  0  0  0  0  0  0  0  0  0  0
   34.9780   29.1640   40.9040 N   0  0  0  0  0  0  0  0  0  0  0  0
   36.2453   30.3345   42.5328 H   0  0  0  0  0  0  0  0  0  0  0  0
   38.9569   29.1259   42.2166 H   0  0  0  0  0  0  0  0  0  0  0  0
   38.3404   30.2862   43.4829 H   0  0  0  0  0  0  0  0  0  0  0  0
   38.5438   27.7473   43.9838 H   0  0  0  0  0  0  0  0  0  0  0  0
   37.0906   28.7548   44.5090 H   0  0  0  0  0  0  0  0  0  0  0  0
   37.0394   26.3295   43.2947 H   0  0  0  0  0  0  0  0  0  0  0  0
   35.7108   27.5708   43.4232 H   0  0  0  0  0  0  0  0  0  0  0  0
   37.6508   27.1784   41.1469 H   0  0  0  0  0  0  0  0  0  0  0  0
   35.8488   26.8408   41.2033 H   0  0  0  0  0  0  0  0  0  0  0  0
   36.8087   28.8573   40.0491 H   0  0  0  0  0  0  0  0  0  0  0  0
   39.5984   30.3324   41.6169 H   0  0  0  0  0  0  0  0  0  0  0  0
   40.7597   32.0447   40.1595 H   0  0  0  0  0  0  0  0  0  0  0  0
   36.9210   33.3887   38.8327 H   0  0  0  0  0  0  0  0  0  0  0  0
   34.5418   29.2599   41.8321 H   0  0  0  0  0  0  0  0  0  0  0  0
   34.8766   30.0473   40.3841 H   0  0  0  0  0  0  0  0  0  0  0  0
  1  2  1  0
  2  3  1  0
  4  3  1  0
  5  4  1  0
  6  5  1  0
  6  1  1  0
  7  1  1  0
  8  7  2  0
  9  8  1  0
 10 11  1  0
 10  9  2  0
 11 12  2  0
 12  7  1  0
 13  6  1  0
  1 14  1  1
  2 15  1  0
  2 16  1  0
  3 17  1  0
  3 18  1  0
  4 19  1  0
  4 20  1  0
  5 21  1  0
  5 22  1  0
  6 23  1  6
  8 24  1  0
  9 25  1  0
 11 26  1  0
 13 27  1  0
 13 28  1  0
M  ISO  8  14  13  15  13  16  13  17  13  18  13  19  13  20  13  21  13
M  ISO  7  22  13  23  13  24  14  25  14  26  14  27   5  28   5
M  END
>  <minimizedAffinity>  (1) 
-4.61752987

>  <minimizedRMSD>  (1) 
0.293145508

$$$$
