
     RDKit          3D

 29 30  0  0  1  0  0  0  0  0999 V2000
   36.9540   29.8230   41.9260 C   0  0  2  0  0  0  0  0  0  0  0  0
   38.0380   29.4190   42.8470 C   0  0  0  0  0  0  0  0  0  0  0  0
   37.6310   28.3120   43.7800 C   0  0  0  0  0  0  0  0  0  0  0  0
   36.7340   27.2930   43.2010 C   0  0  0  0  0  0  0  0  0  0  0  0
   36.6630   27.3530   41.7070 C   0  0  0  0  0  0  0  0  0  0  0  0
   36.2760   28.6970   41.1850 C   0  0  2  0  0  0  0  0  0  0  0  0
   37.4830   30.8160   40.9630 C   0  0  0  0  0  0  0  0  0  0  0  0
   38.8600   30.7210   40.7080 C   0  0  0  0  0  0  0  0  0  0  0  0
   39.4560   31.6140   39.8160 C   0  0  0  0  0  0  0  0  0  0  0  0
   38.6360   32.5460   39.2350 N   0  0  0  0  0  0  0  0  0  0  0  0
   37.3140   32.6150   39.4960 C   0  0  0  0  0  0  0  0  0  0  0  0
   36.7470   31.7520   40.3580 N   0  0  0  0  0  0  0  0  0  0  0  0
   36.5040   28.7800   39.6980 C   0  0  0  0  0  0  0  0  0  0  0  0
   36.1665   30.2518   42.5631 H   0  0  0  0  0  0  0  0  0  0  0  0
   38.8965   29.0772   42.2502 H   0  0  0  0  0  0  0  0  0  0  0  0
   38.2906   30.2942   43.4636 H   0  0  0  0  0  0  0  0  0  0  0  0
   38.5446   27.8043   44.1229 H   0  0  0  0  0  0  0  0  0  0  0  0
   37.0614   28.7922   44.5893 H   0  0  0  0  0  0  0  0  0  0  0  0
   37.0994   26.2978   43.4943 H   0  0  0  0  0  0  0  0  0  0  0  0
   35.7224   27.4904   43.5853 H   0  0  0  0  0  0  0  0  0  0  0  0
   37.6513   27.0924   41.3003 H   0  0  0  0  0  0  0  0  0  0  0  0
   35.8830   26.6449   41.3904 H   0  0  0  0  0  0  0  0  0  0  0  0
   35.1985   28.8210   41.3682 H   0  0  0  0  0  0  0  0  0  0  0  0
   39.4644   29.9492   41.2070 H   0  0  0  0  0  0  0  0  0  0  0  0
   40.5318   31.5718   39.5903 H   0  0  0  0  0  0  0  0  0  0  0  0
   36.6974   33.3802   39.0018 H   0  0  0  0  0  0  0  0  0  0  0  0
   37.5213   29.1503   39.5031 H   0  0  0  0  0  0  0  0  0  0  0  0
   36.3858   27.7812   39.2526 H   0  0  0  0  0  0  0  0  0  0  0  0
   35.7714   29.4691   39.2526 H   0  0  0  0  0  0  0  0  0  0  0  0
  1  2  1  0
  2  3  1  0
  4  3  1  0
  5  4  1  0
  6  5  1  0
  6  1  1  0
  7  1  1  0
  8  7  2  0
  9  8  1  0
 10 11  1  0
 10  9  2  0
 11 12  2  0
 12  7  1  0
 13  6  1  0
  1 14  1  1
  2 15  1  0
  2 16  1  0
  3 17  1  0
  3 18  1  0
  4 19  1  0
  4 20  1  0
  5 21  1  0
  5 22  1  0
  6 23  1  6
  8 24  1  0
  9 25  1  0
 11 26  1  0
 13 27  1  0
 13 28  1  0
 13 29  1  0
M  ISO  8  14  13  15  13  16  13  17  13  18  13  19  13  20  13  21  13
M  ISO  8  22  13  23  13  24  14  25  14  26  14  27   8  28   8  29   8
M  END
>  <minimizedAffinity>  (1) 
-4.38519621

>  <minimizedRMSD>  (1) 
0.2203058

$$$$
