
     RDKit          3D

 27 28  0  0  1  0  0  0  0  0999 V2000
   37.0020   29.8160   41.9170 C   0  0  2  0  0  0  0  0  0  0  0  0
   38.0450   29.4120   42.8800 C   0  0  0  0  0  0  0  0  0  0  0  0
   37.5900   28.2880   43.7710 C   0  0  0  0  0  0  0  0  0  0  0  0
   36.7600   27.2600   43.1270 C   0  0  0  0  0  0  0  0  0  0  0  0
   36.7710   27.3470   41.6250 C   0  0  0  0  0  0  0  0  0  0  0  0
   36.3830   28.6950   41.1150 C   0  0  2  0  0  0  0  0  0  0  0  0
   37.5490   30.8420   41.0010 C   0  0  0  0  0  0  0  0  0  0  0  0
   38.9460   30.8240   40.8690 C   0  0  0  0  0  0  0  0  0  0  0  0
   39.5690   31.7530   40.0300 C   0  0  0  0  0  0  0  0  0  0  0  0
   38.7510   32.6380   39.3770 N   0  0  0  0  0  0  0  0  0  0  0  0
   37.4090   32.6340   39.5220 C   0  0  0  0  0  0  0  0  0  0  0  0
   36.8160   31.7360   40.3320 N   0  0  0  0  0  0  0  0  0  0  0  0
   36.9980   28.8290   39.3970 S   0  0  0  0  0  0  0  0  0  0  0  0
   36.1799   30.2137   42.5302 H   0  0  0  0  0  0  0  0  0  0  0  0
   38.9346   29.0842   42.3222 H   0  0  0  0  0  0  0  0  0  0  0  0
   38.2702   30.2793   43.5181 H   0  0  0  0  0  0  0  0  0  0  0  0
   38.4856   27.7943   44.1762 H   0  0  0  0  0  0  0  0  0  0  0  0
   36.9514   28.7523   44.5369 H   0  0  0  0  0  0  0  0  0  0  0  0
   37.1370   26.2699   43.4229 H   0  0  0  0  0  0  0  0  0  0  0  0
   35.7232   27.4219   43.4570 H   0  0  0  0  0  0  0  0  0  0  0  0
   37.7856   27.1161   41.2681 H   0  0  0  0  0  0  0  0  0  0  0  0
   36.0291   26.6273   41.2488 H   0  0  0  0  0  0  0  0  0  0  0  0
   35.2896   28.7907   41.1873 H   0  0  0  0  0  0  0  0  0  0  0  0
   39.5458   30.0853   41.4209 H   0  0  0  0  0  0  0  0  0  0  0  0
   40.6612   31.7726   39.9005 H   0  0  0  0  0  0  0  0  0  0  0  0
   36.7970   33.3673   38.9763 H   0  0  0  0  0  0  0  0  0  0  0  0
   38.3365   29.1206   39.4126 H   0  0  0  0  0  0  0  0  0  0  0  0
  1  2  1  0
  2  3  1  0
  4  3  1  0
  5  4  1  0
  6  5  1  0
  6  1  1  0
  7  1  1  0
  8  7  2  0
  9  8  1  0
 10 11  1  0
 10  9  2  0
 11 12  2  0
 12  7  1  0
 13  6  1  0
  1 14  1  1
  2 15  1  0
  2 16  1  0
  3 17  1  0
  3 18  1  0
  4 19  1  0
  4 20  1  0
  5 21  1  0
  5 22  1  0
  6 23  1  6
  8 24  1  0
  9 25  1  0
 11 26  1  0
 13 27  1  0
M  ISO  8  14  13  15  13  16  13  17  13  18  13  19  13  20  13  21  13
M  ISO  6  22  13  23  13  24  14  25  14  26  14  27  11
M  END
>  <minimizedAffinity>  (1) 
-4.25847483

>  <minimizedRMSD>  (1) 
0.189621329

$$$$
