
     RDKit          3D

 44 47  0  0  1  0  0  0  0  0999 V2000
   37.5140   29.4020   42.5350 C   0  0  2  0  0  0  0  0  0  0  0  0
   37.8150   29.0160   43.9080 C   0  0  0  0  0  0  0  0  0  0  0  0
   36.8370   28.0110   44.4840 C   0  0  0  0  0  0  0  0  0  0  0  0
   36.2350   27.0830   43.4990 C   0  0  0  0  0  0  0  0  0  0  0  0
   37.0750   26.9560   42.2540 C   0  0  0  0  0  0  0  0  0  0  0  0
   37.1370   28.2880   41.5760 C   0  0  2  0  0  0  0  0  0  0  0  0
   38.5870   30.2420   41.9750 C   0  0  0  0  0  0  0  0  0  0  0  0
   39.8480   29.9520   42.4590 C   0  0  0  0  0  0  0  0  0  0  0  0
   40.9510   30.6920   42.0030 C   0  0  0  0  0  0  0  0  0  0  0  0
   40.6850   31.6820   41.0760 N   0  0  0  0  0  0  0  0  0  0  0  0
   39.4600   31.9300   40.6340 C   0  0  0  0  0  0  0  0  0  0  0  0
   38.3920   31.2060   41.0840 N   0  0  0  0  0  0  0  0  0  0  0  0
   39.1580   32.9410   39.6800 N   0  0  0  0  0  0  0  0  0  0  0  0
   38.8480   34.2440   40.1190 C   0  0  0  0  0  0  0  0  0  0  0  0
   39.4660   34.7830   41.1000 N   0  0  0  0  0  0  0  0  0  0  0  0
   37.8270   35.0260   39.4790 N   0  0  0  0  0  0  0  0  0  0  0  0
   40.2250   34.3470   41.6560 H   0  0  0  0  0  0  0  0  0  0  0  0
   37.9220   28.2770   40.3800 N   0  0  0  0  0  0  0  0  0  0  0  0
   39.1670   27.7730   40.1850 C   0  0  0  0  0  0  0  0  0  0  0  0
   39.5740   27.9520   38.9120 N   0  0  0  0  0  0  0  0  0  0  0  0
   38.6010   28.5830   38.2230 C   0  0  0  0  0  0  0  0  0  0  0  0
   38.3590   29.0520   36.9450 C   0  0  0  0  0  0  0  0  0  0  0  0
   37.2180   29.6610   36.5950 N   0  0  0  0  0  0  0  0  0  0  0  0
   36.2460   29.8330   37.5280 C   0  0  0  0  0  0  0  0  0  0  0  0
   36.4620   29.3860   38.7720 N   0  0  0  0  0  0  0  0  0  0  0  0
   37.6100   28.7680   39.1440 C   0  0  0  0  0  0  0  0  0  0  0  0
   36.5845   29.9826   42.6300 H   0  0  0  0  0  0  0  0  0  0  0  0
   38.8222   28.5744   43.9323 H   0  0  0  0  0  0  0  0  0  0  0  0
   37.7422   29.9256   44.5222 H   0  0  0  0  0  0  0  0  0  0  0  0
   37.3692   27.4106   45.2365 H   0  0  0  0  0  0  0  0  0  0  0  0
   36.0047   28.5979   44.8997 H   0  0  0  0  0  0  0  0  0  0  0  0
   36.1345   26.0903   43.9621 H   0  0  0  0  0  0  0  0  0  0  0  0
   35.2548   27.4877   43.2069 H   0  0  0  0  0  0  0  0  0  0  0  0
   38.0905   26.6314   42.5248 H   0  0  0  0  0  0  0  0  0  0  0  0
   36.6293   26.2125   41.5768 H   0  0  0  0  0  0  0  0  0  0  0  0
   36.1138   28.5101   41.2386 H   0  0  0  0  0  0  0  0  0  0  0  0
   39.9871   29.1474   43.1961 H   0  0  0  0  0  0  0  0  0  0  0  0
   41.9711   30.4945   42.3640 H   0  0  0  0  0  0  0  0  0  0  0  0
   39.1658   32.7220   38.6736 H   0  0  0  0  0  0  0  0  0  0  0  0
   37.6179   35.9761   39.8175 H   0  0  0  0  0  0  0  0  0  0  0  0
   37.3040   34.6366   38.6817 H   0  0  0  0  0  0  0  0  0  0  0  0
   39.7669   27.2816   40.9652 H   0  0  0  0  0  0  0  0  0  0  0  0
   39.1388   28.9191   36.1807 H   0  0  0  0  0  0  0  0  0  0  0  0
   35.2999   30.3297   37.2670 H   0  0  0  0  0  0  0  0  0  0  0  0
  1  2  1  0
  2  3  1  0
  4  3  1  0
  5  4  1  0
  6  5  1  0
  6  1  1  0
  7  8  2  0
  7  1  1  0
  9  8  1  0
 10  9  2  0
 11 10  1  0
 11 12  2  0
 12  7  1  0
 13 14  1  0
 13 11  1  0
 14 15  2  0
 15 17  1  0
 16 14  1  0
 18  6  1  0
 19 18  1  0
 20 19  2  0
 21 20  1  0
 21 26  2  0
 22 21  1  0
 23 22  2  0
 23 24  1  0
 24 25  2  0
 25 26  1  0
 26 18  1  0
  1 27  1  1
  2 28  1  0
  2 29  1  0
  3 30  1  0
  3 31  1  0
  4 32  1  0
  4 33  1  0
  5 34  1  0
  5 35  1  0
  6 36  1  6
  8 37  1  0
  9 38  1  0
 13 39  1  0
 16 40  1  0
 16 41  1  0
 19 42  1  0
 22 43  1  0
 24 44  1  0
M  ISO  8  27  13  28  13  29  13  30  13  31  13  32  13  33  13  34  13
M  ISO  7  35  13  36  13  37  14  38  14  42  14  43  14  44  14
M  END
>  <minimizedAffinity>  (1) 
-6.47233248

>  <minimizedRMSD>  (1) 
2.33386803

$$$$
