
     RDKit          3D

 50 54  0  0  1  0  0  0  0  0999 V2000
   37.9520   26.1920   40.1570 C   0  0  2  0  0  0  0  0  0  0  0  0
   36.6350   25.6120   39.9480 C   0  0  0  0  0  0  0  0  0  0  0  0
   36.6580   24.1530   39.5320 C   0  0  0  0  0  0  0  0  0  0  0  0
   37.8410   23.3830   39.9720 C   0  0  0  0  0  0  0  0  0  0  0  0
   38.4530   23.9830   41.2200 C   0  0  0  0  0  0  0  0  0  0  0  0
   38.9790   25.3420   40.8810 C   0  0  2  0  0  0  0  0  0  0  0  0
   37.8490   27.5320   40.7600 C   0  0  0  0  0  0  0  0  0  0  0  0
   36.9370   27.6200   41.7960 C   0  0  0  0  0  0  0  0  0  0  0  0
   36.7460   28.8510   42.4450 C   0  0  0  0  0  0  0  0  0  0  0  0
   37.5060   29.9120   41.9880 N   0  0  0  0  0  0  0  0  0  0  0  0
   38.3710   29.7770   40.9900 C   0  0  0  0  0  0  0  0  0  0  0  0
   38.5540   28.5850   40.3610 N   0  0  0  0  0  0  0  0  0  0  0  0
   39.1370   30.9160   40.5540 N   0  0  0  0  0  0  0  0  0  0  0  0
   40.2660   31.3890   41.1010 C   0  0  0  0  0  0  0  0  0  0  0  0
   40.8570   32.5020   40.5320 C   0  0  0  0  0  0  0  0  0  0  0  0
   42.1050   33.0110   41.1530 C   0  0  0  0  0  0  0  0  0  0  0  0
   40.3190   33.1340   39.4230 C   0  0  0  0  0  0  0  0  0  0  0  0
   40.8600   34.1490   38.9050 O   0  0  0  0  0  0  0  0  0  0  0  0
   39.1870   32.5960   38.9350 N   0  0  0  0  0  0  0  0  0  0  0  0
   38.5780   31.5110   39.4610 C   0  0  0  0  0  0  0  0  0  0  0  0
   37.5240   31.1250   38.8930 O   0  0  0  0  0  0  0  0  0  0  0  0
   39.5770   26.0060   41.9970 N   0  0  0  0  0  0  0  0  0  0  0  0
   39.1910   25.9950   43.3030 C   0  0  0  0  0  0  0  0  0  0  0  0
   40.0150   26.7460   44.0590 N   0  0  0  0  0  0  0  0  0  0  0  0
   40.9730   27.2810   43.2780 C   0  0  0  0  0  0  0  0  0  0  0  0
   42.0790   28.1010   43.3880 C   0  0  0  0  0  0  0  0  0  0  0  0
   42.8510   28.4410   42.3410 N   0  0  0  0  0  0  0  0  0  0  0  0
   42.5360   27.9620   41.1170 C   0  0  0  0  0  0  0  0  0  0  0  0
   41.4670   27.1640   40.9840 N   0  0  0  0  0  0  0  0  0  0  0  0
   40.6810   26.8130   42.0310 C   0  0  0  0  0  0  0  0  0  0  0  0
   38.3615   26.2598   39.1383 H   0  0  0  0  0  0  0  0  0  0  0  0
   36.0686   25.6942   40.8874 H   0  0  0  0  0  0  0  0  0  0  0  0
   36.1711   26.1697   39.1211 H   0  0  0  0  0  0  0  0  0  0  0  0
   35.7635   23.6676   39.9496 H   0  0  0  0  0  0  0  0  0  0  0  0
   36.6906   24.1535   38.4325 H   0  0  0  0  0  0  0  0  0  0  0  0
   37.5363   22.3476   40.1842 H   0  0  0  0  0  0  0  0  0  0  0  0
   38.5920   23.4100   39.1688 H   0  0  0  0  0  0  0  0  0  0  0  0
   37.6879   24.0661   42.0060 H   0  0  0  0  0  0  0  0  0  0  0  0
   39.2686   23.3425   41.5867 H   0  0  0  0  0  0  0  0  0  0  0  0
   39.8011   25.1852   40.1671 H   0  0  0  0  0  0  0  0  0  0  0  0
   36.3660   26.7335   42.1091 H   0  0  0  0  0  0  0  0  0  0  0  0
   36.0302   28.9649   43.2724 H   0  0  0  0  0  0  0  0  0  0  0  0
   40.7115   30.9031   41.9816 H   0  0  0  0  0  0  0  0  0  0  0  0
   42.0115   32.9729   42.2484 H   0  0  0  0  0  0  0  0  0  0  0  0
   42.9535   32.3871   40.8355 H   0  0  0  0  0  0  0  0  0  0  0  0
   42.2751   34.0503   40.8355 H   0  0  0  0  0  0  0  0  0  0  0  0
   38.7582   33.0384   38.1096 H   0  0  0  0  0  0  0  0  0  0  0  0
   38.3205   25.4450   43.6898 H   0  0  0  0  0  0  0  0  0  0  0  0
   42.3411   28.4952   44.3809 H   0  0  0  0  0  0  0  0  0  0  0  0
   43.1486   28.2235   40.2416 H   0  0  0  0  0  0  0  0  0  0  0  0
  1  7  1  0
  1  6  1  0
  2  1  1  0
  3  2  1  0
  3  4  1  0
  4  5  1  0
  6  5  1  0
  6 22  1  0
  7  8  2  0
  8  9  1  0
 10  9  2  0
 11 10  1  0
 12  7  1  0
 12 11  2  0
 13 11  1  0
 13 14  1  0
 15 14  2  0
 15 16  1  0
 17 15  1  0
 18 17  2  0
 19 17  1  0
 19 20  1  0
 20 13  1  0
 21 20  2  0
 22 30  1  0
 22 23  1  0
 23 24  2  0
 25 26  2  0
 25 24  1  0
 27 26  1  0
 28 27  2  0
 29 28  1  0
 29 30  2  0
 30 25  1  0
  1 31  1  6
  2 32  1  0
  2 33  1  0
  3 34  1  0
  3 35  1  0
  4 36  1  0
  4 37  1  0
  5 38  1  0
  5 39  1  0
  6 40  1  6
  8 41  1  0
  9 42  1  0
 14 43  1  0
 16 44  1  0
 16 45  1  0
 16 46  1  0
 19 47  1  0
 23 48  1  0
 26 49  1  0
 28 50  1  0
M  ISO  8  31  13  32  13  33  13  34  13  35  13  36  13  37  13  38  13
M  ISO  8  39  13  40  13  41  14  42  14  43  14  44   8  45   8  46   8
M  ISO  4  47   9  48  14  49  14  50  14
M  END
>  <minimizedAffinity>  (1) 
-6.13450289

>  <minimizedRMSD>  (1) 
6.07698488

$$$$
