
     RDKit          3D

 47 51  0  0  1  0  0  0  0  0999 V2000
   40.6840   28.8560   42.8720 C   0  0  2  0  0  0  0  0  0  0  0  0
   41.7910   28.0380   43.3550 C   0  0  0  0  0  0  0  0  0  0  0  0
   41.3570   26.9370   44.3000 C   0  0  0  0  0  0  0  0  0  0  0  0
   40.0180   26.3670   44.0310 C   0  0  0  0  0  0  0  0  0  0  0  0
   39.5420   26.6440   42.6300 C   0  0  0  0  0  0  0  0  0  0  0  0
   39.4340   28.1210   42.4260 C   0  0  2  0  0  0  0  0  0  0  0  0
   39.0080   28.4760   41.1080 N   0  0  0  0  0  0  0  0  0  0  0  0
   39.4680   28.0210   39.9120 C   0  0  0  0  0  0  0  0  0  0  0  0
   38.8110   28.5950   38.8840 N   0  0  0  0  0  0  0  0  0  0  0  0
   37.8910   29.4530   39.3720 C   0  0  0  0  0  0  0  0  0  0  0  0
   36.9240   30.3240   38.9090 C   0  0  0  0  0  0  0  0  0  0  0  0
   36.1460   31.0560   39.7250 N   0  0  0  0  0  0  0  0  0  0  0  0
   36.3120   30.9420   41.0620 C   0  0  0  0  0  0  0  0  0  0  0  0
   37.2430   30.1040   41.5350 N   0  0  0  0  0  0  0  0  0  0  0  0
   38.0360   29.3590   40.7250 C   0  0  0  0  0  0  0  0  0  0  0  0
   41.1400   29.8040   41.8400 C   0  0  0  0  0  0  0  0  0  0  0  0
   42.1960   29.3450   41.0730 C   0  0  0  0  0  0  0  0  0  0  0  0
   42.7210   30.1650   40.0620 C   0  0  0  0  0  0  0  0  0  0  0  0
   42.1280   31.4040   39.9030 N   0  0  0  0  0  0  0  0  0  0  0  0
   41.1090   31.8080   40.6670 C   0  0  0  0  0  0  0  0  0  0  0  0
   40.6080   31.0040   41.6440 N   0  0  0  0  0  0  0  0  0  0  0  0
   40.4990   33.1260   40.4740 C   0  0  0  0  0  0  0  0  0  0  0  0
   41.3080   34.1980   40.1550 C   0  0  0  0  0  0  0  0  0  0  0  0
   40.7950   35.4750   39.9580 C   0  0  0  0  0  0  0  0  0  0  0  0
   39.4310   35.6390   40.0950 C   0  0  0  0  0  0  0  0  0  0  0  0
   38.6000   34.5850   40.4150 C   0  0  0  0  0  0  0  0  0  0  0  0
   39.1210   33.3000   40.6110 C   0  0  0  0  0  0  0  0  0  0  0  0
   40.3534   29.3998   43.7692 H   0  0  0  0  0  0  0  0  0  0  0  0
   42.2887   27.5779   42.4886 H   0  0  0  0  0  0  0  0  0  0  0  0
   42.4645   28.7018   43.9169 H   0  0  0  0  0  0  0  0  0  0  0  0
   42.0931   26.1223   44.2342 H   0  0  0  0  0  0  0  0  0  0  0  0
   41.2982   27.3967   45.2976 H   0  0  0  0  0  0  0  0  0  0  0  0
   40.0624   25.2779   44.1792 H   0  0  0  0  0  0  0  0  0  0  0  0
   39.3082   26.8420   44.7242 H   0  0  0  0  0  0  0  0  0  0  0  0
   40.2595   26.2253   41.9090 H   0  0  0  0  0  0  0  0  0  0  0  0
   38.5570   26.1787   42.4775 H   0  0  0  0  0  0  0  0  0  0  0  0
   38.6267   28.4655   43.0890 H   0  0  0  0  0  0  0  0  0  0  0  0
   40.2728   27.2798   39.7978 H   0  0  0  0  0  0  0  0  0  0  0  0
   36.7841   30.4232   37.8224 H   0  0  0  0  0  0  0  0  0  0  0  0
   35.6899   31.5304   41.7525 H   0  0  0  0  0  0  0  0  0  0  0  0
   42.6204   28.3464   41.2539 H   0  0  0  0  0  0  0  0  0  0  0  0
   43.5599   29.8392   39.4295 H   0  0  0  0  0  0  0  0  0  0  0  0
   42.3914   34.0370   40.0536 H   0  0  0  0  0  0  0  0  0  0  0  0
   41.4499   36.3212   39.7031 H   0  0  0  0  0  0  0  0  0  0  0  0
   38.9947   36.6375   39.9449 H   0  0  0  0  0  0  0  0  0  0  0  0
   37.5181   34.7557   40.5171 H   0  0  0  0  0  0  0  0  0  0  0  0
   38.4649   32.4544   40.8649 H   0  0  0  0  0  0  0  0  0  0  0  0
  1  2  1  0
  2  3  1  0
  4  3  1  0
  5  4  1  0
  6  5  1  0
  6  1  1  0
  7  6  1  0
  8  7  1  0
  9 10  1  0
  9  8  2  0
 10 15  2  0
 11 10  1  0
 11 12  2  0
 12 13  1  0
 13 14  2  0
 15  7  1  0
 15 14  1  0
 16  1  1  0
 17 16  2  0
 18 17  1  0
 19 18  2  0
 19 20  1  0
 20 21  2  0
 21 16  1  0
 22 27  1  0
 22 20  1  0
 23 22  2  0
 24 25  2  0
 24 23  1  0
 25 26  1  0
 26 27  2  0
  1 28  1  1
  2 29  1  0
  2 30  1  0
  3 31  1  0
  3 32  1  0
  4 33  1  0
  4 34  1  0
  5 35  1  0
  5 36  1  0
  6 37  1  1
  8 38  1  0
 11 39  1  0
 13 40  1  0
 17 41  1  0
 18 42  1  0
 23 43  1  0
 24 44  1  0
 25 45  1  0
 26 46  1  0
 27 47  1  0
M  ISO  8  28  13  29  13  30  13  31  13  32  13  33  13  34  13  35  13
M  ISO  8  36  13  37  13  38  14  39  14  40  14  41  14  42  14  43  14
M  ISO  4  44  14  45  14  46  14  47  14
M  END
>  <minimizedAffinity>  (1) 
-6.09625053

>  <minimizedRMSD>  (1) 
4.0779891

$$$$
