
     RDKit          3D

 47 51  0  0  1  0  0  0  0  0999 V2000
   39.6860   31.4520   40.2500 C   0  0  2  0  0  0  0  0  0  0  0  0
   39.6130   32.7370   40.9320 C   0  0  0  0  0  0  0  0  0  0  0  0
   40.7190   33.6950   40.5380 C   0  0  0  0  0  0  0  0  0  0  0  0
   41.1910   33.5720   39.1410 C   0  0  0  0  0  0  0  0  0  0  0  0
   40.1990   32.8690   38.2550 C   0  0  0  0  0  0  0  0  0  0  0  0
   39.9740   31.4800   38.7610 C   0  0  2  0  0  0  0  0  0  0  0  0
   38.5000   30.6280   40.5450 C   0  0  0  0  0  0  0  0  0  0  0  0
   37.3440   31.3580   40.7680 C   0  0  0  0  0  0  0  0  0  0  0  0
   36.1490   30.6840   41.0670 C   0  0  0  0  0  0  0  0  0  0  0  0
   36.2160   29.3040   41.1150 N   0  0  0  0  0  0  0  0  0  0  0  0
   37.3500   28.6480   40.8920 C   0  0  0  0  0  0  0  0  0  0  0  0
   38.5070   29.3020   40.6040 N   0  0  0  0  0  0  0  0  0  0  0  0
   37.3480   27.2120   40.9580 N   0  0  0  0  0  0  0  0  0  0  0  0
   36.6570   26.5170   40.0320 C   0  0  0  0  0  0  0  0  0  0  0  0
   36.6830   25.1310   40.1310 C   0  0  0  0  0  0  0  0  0  0  0  0
   37.3850   24.4740   41.1360 C   0  0  0  0  0  0  0  0  0  0  0  0
   37.4060   23.2100   41.2270 O   0  0  0  0  0  0  0  0  0  0  0  0
   38.0590   25.2390   42.0340 N   0  0  0  0  0  0  0  0  0  0  0  0
   38.0440   26.5840   41.9510 C   0  0  0  0  0  0  0  0  0  0  0  0
   38.6550   27.3340   42.7640 O   0  0  0  0  0  0  0  0  0  0  0  0
   39.0200   30.7510   37.9840 N   0  0  0  0  0  0  0  0  0  0  0  0
   37.7930   31.1440   37.5520 C   0  0  0  0  0  0  0  0  0  0  0  0
   37.1900   30.1710   36.8410 N   0  0  0  0  0  0  0  0  0  0  0  0
   38.0040   29.0980   36.7800 C   0  0  0  0  0  0  0  0  0  0  0  0
   38.0200   27.8250   36.2410 C   0  0  0  0  0  0  0  0  0  0  0  0
   39.0510   26.9850   36.3840 N   0  0  0  0  0  0  0  0  0  0  0  0
   40.1380   27.3880   37.0890 C   0  0  0  0  0  0  0  0  0  0  0  0
   40.1450   28.6170   37.6210 N   0  0  0  0  0  0  0  0  0  0  0  0
   39.1070   29.4800   37.4850 C   0  0  0  0  0  0  0  0  0  0  0  0
   40.5884   30.9884   40.6752 H   0  0  0  0  0  0  0  0  0  0  0  0
   38.6463   33.2039   40.6921 H   0  0  0  0  0  0  0  0  0  0  0  0
   39.7254   32.5386   42.0081 H   0  0  0  0  0  0  0  0  0  0  0  0
   40.3486   34.7206   40.6830 H   0  0  0  0  0  0  0  0  0  0  0  0
   41.5806   33.4449   41.1745 H   0  0  0  0  0  0  0  0  0  0  0  0
   41.3694   34.5804   38.7393 H   0  0  0  0  0  0  0  0  0  0  0  0
   42.1122   32.9709   39.1523 H   0  0  0  0  0  0  0  0  0  0  0  0
   40.5909   32.8260   37.2281 H   0  0  0  0  0  0  0  0  0  0  0  0
   39.2470   33.4200   38.2619 H   0  0  0  0  0  0  0  0  0  0  0  0
   40.9236   30.9414   38.6267 H   0  0  0  0  0  0  0  0  0  0  0  0
   37.3620   32.4564   40.7113 H   0  0  0  0  0  0  0  0  0  0  0  0
   35.2096   31.2252   41.2531 H   0  0  0  0  0  0  0  0  0  0  0  0
   36.0970   27.0249   39.2330 H   0  0  0  0  0  0  0  0  0  0  0  0
   36.1304   24.5342   39.3904 H   0  0  0  0  0  0  0  0  0  0  0  0
   38.5898   24.7838   42.7902 H   0  0  0  0  0  0  0  0  0  0  0  0
   37.3491   32.1295   37.7564 H   0  0  0  0  0  0  0  0  0  0  0  0
   37.1440   27.4872   35.6678 H   0  0  0  0  0  0  0  0  0  0  0  0
   40.9991   26.7165   37.2214 H   0  0  0  0  0  0  0  0  0  0  0  0
  1  7  1  0
  1  2  1  0
  3  2  1  0
  4  3  1  0
  5  6  1  0
  5  4  1  0
  6  1  1  0
  7 12  1  0
  7  8  2  0
  8  9  1  0
  9 10  2  0
 11 13  1  0
 11 10  1  0
 12 11  2  0
 13 19  1  0
 14 15  2  0
 14 13  1  0
 15 16  1  0
 16 17  2  0
 16 18  1  0
 19 18  1  0
 19 20  2  0
 21  6  1  0
 22 21  1  0
 23 22  2  0
 24 23  1  0
 24 29  2  0
 25 26  2  0
 25 24  1  0
 26 27  1  0
 27 28  2  0
 29 28  1  0
 29 21  1  0
  1 30  1  1
  2 31  1  0
  2 32  1  0
  3 33  1  0
  3 34  1  0
  4 35  1  0
  4 36  1  0
  5 37  1  0
  5 38  1  0
  6 39  1  1
  8 40  1  0
  9 41  1  0
 14 42  1  0
 15 43  1  0
 18 44  1  0
 22 45  1  0
 25 46  1  0
 27 47  1  0
M  ISO  8  30  13  31  13  32  13  33  13  34  13  35  13  36  13  37  13
M  ISO  8  38  13  39  13  40  14  41  14  42  14  43  14  44   9  45  14
M  ISO  2  46  14  47  14
M  END
>  <minimizedAffinity>  (1) 
-5.97667313

>  <minimizedRMSD>  (1) 
6.51082802

$$$$
