
     RDKit          3D

 46 49  0  0  1  0  0  0  0  0999 V2000
   37.3650   29.3540   42.5240 C   0  0  2  0  0  0  0  0  0  0  0  0
   37.6900   28.9700   43.8920 C   0  0  0  0  0  0  0  0  0  0  0  0
   36.8580   27.8210   44.4210 C   0  0  0  0  0  0  0  0  0  0  0  0
   36.4020   26.8480   43.4010 C   0  0  0  0  0  0  0  0  0  0  0  0
   37.2600   26.8780   42.1650 C   0  0  0  0  0  0  0  0  0  0  0  0
   37.1540   28.2270   41.5280 C   0  0  2  0  0  0  0  0  0  0  0  0
   37.9560   28.3550   40.3510 N   0  0  0  0  0  0  0  0  0  0  0  0
   39.2520   28.0030   40.1590 C   0  0  0  0  0  0  0  0  0  0  0  0
   39.6560   28.2830   38.9030 N   0  0  0  0  0  0  0  0  0  0  0  0
   38.6320   28.8320   38.2210 C   0  0  0  0  0  0  0  0  0  0  0  0
   38.3630   29.3260   36.9590 C   0  0  0  0  0  0  0  0  0  0  0  0
   37.1590   29.8220   36.6100 N   0  0  0  0  0  0  0  0  0  0  0  0
   36.1730   29.8390   37.5270 C   0  0  0  0  0  0  0  0  0  0  0  0
   36.4110   29.3660   38.7570 N   0  0  0  0  0  0  0  0  0  0  0  0
   37.6120   28.8630   39.1270 C   0  0  0  0  0  0  0  0  0  0  0  0
   38.3270   30.3430   42.0110 C   0  0  0  0  0  0  0  0  0  0  0  0
   39.6100   30.2040   42.5080 C   0  0  0  0  0  0  0  0  0  0  0  0
   40.6150   31.0920   42.0950 C   0  0  0  0  0  0  0  0  0  0  0  0
   40.2360   32.0720   41.1950 N   0  0  0  0  0  0  0  0  0  0  0  0
   38.9850   32.1680   40.7420 C   0  0  0  0  0  0  0  0  0  0  0  0
   38.0190   31.3040   41.1480 N   0  0  0  0  0  0  0  0  0  0  0  0
   38.6070   33.2400   39.7670 C   0  0  0  0  0  0  0  0  0  0  0  0
   37.2130   33.1020   39.2440 C   0  0  0  0  0  0  0  0  0  0  0  0
   38.7930   34.6150   40.3720 C   0  0  0  0  0  0  0  0  0  0  0  0
   36.3660   29.8058   42.6131 H   0  0  0  0  0  0  0  0  0  0  0  0
   38.7492   28.6753   43.9266 H   0  0  0  0  0  0  0  0  0  0  0  0
   37.4728   29.8407   44.5281 H   0  0  0  0  0  0  0  0  0  0  0  0
   37.4614   27.2778   45.1632 H   0  0  0  0  0  0  0  0  0  0  0  0
   35.9466   28.2726   44.8398 H   0  0  0  0  0  0  0  0  0  0  0  0
   36.4389   25.8373   43.8337 H   0  0  0  0  0  0  0  0  0  0  0  0
   35.3772   27.1202   43.1081 H   0  0  0  0  0  0  0  0  0  0  0  0
   38.3071   26.6812   42.4386 H   0  0  0  0  0  0  0  0  0  0  0  0
   36.9190   26.1069   41.4585 H   0  0  0  0  0  0  0  0  0  0  0  0
   36.1151   28.3219   41.1793 H   0  0  0  0  0  0  0  0  0  0  0  0
   39.8916   27.5474   40.9293 H   0  0  0  0  0  0  0  0  0  0  0  0
   39.1656   29.3141   36.2069 H   0  0  0  0  0  0  0  0  0  0  0  0
   35.1811   30.2378   37.2681 H   0  0  0  0  0  0  0  0  0  0  0  0
   39.8416   29.4013   43.2236 H   0  0  0  0  0  0  0  0  0  0  0  0
   41.6474   31.0132   42.4664 H   0  0  0  0  0  0  0  0  0  0  0  0
   39.2871   33.1176   38.9111 H   0  0  0  0  0  0  0  0  0  0  0  0
   36.5102   33.0324   40.0873 H   0  0  0  0  0  0  0  0  0  0  0  0
   36.9632   33.9798   38.6300 H   0  0  0  0  0  0  0  0  0  0  0  0
   37.1401   32.1923   38.6300 H   0  0  0  0  0  0  0  0  0  0  0  0
   38.7825   34.5373   41.4692 H   0  0  0  0  0  0  0  0  0  0  0  0
   39.7559   35.0331   40.0432 H   0  0  0  0  0  0  0  0  0  0  0  0
   37.9758   35.2739   40.0432 H   0  0  0  0  0  0  0  0  0  0  0  0
  1  2  1  0
  2  3  1  0
  4  3  1  0
  5  4  1  0
  6  5  1  0
  6  1  1  0
  7  6  1  0
  8  7  1  0
  9  8  2  0
 10  9  1  0
 10 15  2  0
 11 10  1  0
 12 11  2  0
 12 13  1  0
 13 14  2  0
 14 15  1  0
 15  7  1  0
 16 17  2  0
 16  1  1  0
 18 17  1  0
 19 18  2  0
 20 21  2  0
 20 19  1  0
 21 16  1  0
 22 24  1  0
 22 20  1  0
 23 22  1  0
  1 25  1  1
  2 26  1  0
  2 27  1  0
  3 28  1  0
  3 29  1  0
  4 30  1  0
  4 31  1  0
  5 32  1  0
  5 33  1  0
  6 34  1  6
  8 35  1  0
 11 36  1  0
 13 37  1  0
 17 38  1  0
 18 39  1  0
 22 40  1  0
 23 41  1  0
 23 42  1  0
 23 43  1  0
 24 44  1  0
 24 45  1  0
 24 46  1  0
M  ISO  8  25  13  26  13  27  13  28  13  29  13  30  13  31  13  32  13
M  ISO  8  33  13  34  13  35  14  36  14  37  14  38  14  39  14  40   8
M  ISO  6  41   8  42   8  43   8  44   8  45   8  46   8
M  END
>  <minimizedAffinity>  (1) 
-5.82031441

>  <minimizedRMSD>  (1) 
2.14596152

$$$$
