
     RDKit          3D

 44 48  0  0  1  0  0  0  0  0999 V2000
   37.3540   29.3010   42.5380 C   0  0  2  0  0  0  0  0  0  0  0  0
   37.7020   28.9400   43.9080 C   0  0  0  0  0  0  0  0  0  0  0  0
   36.7980   27.8760   44.4940 C   0  0  0  0  0  0  0  0  0  0  0  0
   36.2900   26.8780   43.5280 C   0  0  0  0  0  0  0  0  0  0  0  0
   37.1070   26.8250   42.2650 C   0  0  0  0  0  0  0  0  0  0  0  0
   37.0570   28.1570   41.5860 C   0  0  2  0  0  0  0  0  0  0  0  0
   37.8310   28.2040   40.3840 N   0  0  0  0  0  0  0  0  0  0  0  0
   39.0990   27.7710   40.1700 C   0  0  0  0  0  0  0  0  0  0  0  0
   39.4820   27.9890   38.8970 N   0  0  0  0  0  0  0  0  0  0  0  0
   38.4740   28.5770   38.2250 C   0  0  0  0  0  0  0  0  0  0  0  0
   38.1950   29.0490   36.9560 C   0  0  0  0  0  0  0  0  0  0  0  0
   37.0170   29.6040   36.6220 N   0  0  0  0  0  0  0  0  0  0  0  0
   36.0560   29.7070   37.5650 C   0  0  0  0  0  0  0  0  0  0  0  0
   36.3000   29.2570   38.8030 N   0  0  0  0  0  0  0  0  0  0  0  0
   37.4820   28.6950   39.1560 C   0  0  0  0  0  0  0  0  0  0  0  0
   38.3510   30.2220   41.9670 C   0  0  0  0  0  0  0  0  0  0  0  0
   39.6390   30.0280   42.4330 C   0  0  0  0  0  0  0  0  0  0  0  0
   40.6760   30.8490   41.9660 C   0  0  0  0  0  0  0  0  0  0  0  0
   40.3250   31.8200   41.0460 N   0  0  0  0  0  0  0  0  0  0  0  0
   39.0750   31.9690   40.6250 C   0  0  0  0  0  0  0  0  0  0  0  0
   38.0690   31.1710   41.0800 N   0  0  0  0  0  0  0  0  0  0  0  0
   38.7270   33.0300   39.6270 C   0  0  0  0  0  0  0  0  0  0  0  0
   38.4760   34.4370   40.2010 C   0  0  0  0  0  0  0  0  0  0  0  0
   37.3950   33.6410   39.5730 C   0  0  0  0  0  0  0  0  0  0  0  0
   36.3831   29.8078   42.6405 H   0  0  0  0  0  0  0  0  0  0  0  0
   38.7359   28.5645   43.9184 H   0  0  0  0  0  0  0  0  0  0  0  0
   37.5837   29.8439   44.5236 H   0  0  0  0  0  0  0  0  0  0  0  0
   37.3627   27.3402   45.2712 H   0  0  0  0  0  0  0  0  0  0  0  0
   35.9138   28.4054   44.8787 H   0  0  0  0  0  0  0  0  0  0  0  0
   36.3111   25.8860   44.0028 H   0  0  0  0  0  0  0  0  0  0  0  0
   35.2676   27.1741   43.2506 H   0  0  0  0  0  0  0  0  0  0  0  0
   38.1499   26.5779   42.5124 H   0  0  0  0  0  0  0  0  0  0  0  0
   36.6983   26.0547   41.5945 H   0  0  0  0  0  0  0  0  0  0  0  0
   36.0157   28.2973   41.2604 H   0  0  0  0  0  0  0  0  0  0  0  0
   39.7327   27.3023   40.9373 H   0  0  0  0  0  0  0  0  0  0  0  0
   38.9735   28.9666   36.1832 H   0  0  0  0  0  0  0  0  0  0  0  0
   35.0824   30.1560   37.3191 H   0  0  0  0  0  0  0  0  0  0  0  0
   39.8487   29.2346   43.1655 H   0  0  0  0  0  0  0  0  0  0  0  0
   41.7127   30.7270   42.3129 H   0  0  0  0  0  0  0  0  0  0  0  0
   39.3646   32.5575   38.8653 H   0  0  0  0  0  0  0  0  0  0  0  0
   38.4837   34.6027   41.2884 H   0  0  0  0  0  0  0  0  0  0  0  0
   38.9069   35.4382   40.0530 H   0  0  0  0  0  0  0  0  0  0  0  0
   36.9831   33.9571   38.6033 H   0  0  0  0  0  0  0  0  0  0  0  0
   36.3972   33.3189   39.9056 H   0  0  0  0  0  0  0  0  0  0  0  0
  1  2  1  0
  2  3  1  0
  4  3  1  0
  5  4  1  0
  6  5  1  0
  6  1  1  0
  7  6  1  0
  8  7  1  0
  9  8  2  0
 10  9  1  0
 10 15  2  0
 11 10  1  0
 12 11  2  0
 12 13  1  0
 13 14  2  0
 14 15  1  0
 15  7  1  0
 16 17  2  0
 16  1  1  0
 18 17  1  0
 19 18  2  0
 20 19  1  0
 20 21  2  0
 21 16  1  0
 22 23  1  0
 22 20  1  0
 24 22  1  0
 24 23  1  0
  1 25  1  1
  2 26  1  0
  2 27  1  0
  3 28  1  0
  3 29  1  0
  4 30  1  0
  4 31  1  0
  5 32  1  0
  5 33  1  0
  6 34  1  6
  8 35  1  0
 11 36  1  0
 13 37  1  0
 17 38  1  0
 18 39  1  0
 22 40  1  0
 23 41  1  0
 23 42  1  0
 24 43  1  0
 24 44  1  0
M  ISO  8  25  13  26  13  27  13  28  13  29  13  30  13  31  13  32  13
M  ISO  8  33  13  34  13  35  14  36  14  37  14  38  14  39  14  40  13
M  ISO  4  41  13  42  13  43  13  44  13
M  END
>  <minimizedAffinity>  (1) 
-5.80981064

>  <minimizedRMSD>  (1) 
2.0393157

$$$$
