
     RDKit          3D

 40 43  0  0  1  0  0  0  0  0999 V2000
   37.3280   29.2580   42.5500 C   0  0  2  0  0  0  0  0  0  0  0  0
   37.6370   28.8670   43.9170 C   0  0  0  0  0  0  0  0  0  0  0  0
   36.8370   27.6810   44.4180 C   0  0  0  0  0  0  0  0  0  0  0  0
   36.3660   26.7490   43.3700 C   0  0  0  0  0  0  0  0  0  0  0  0
   37.2740   26.7930   42.1600 C   0  0  0  0  0  0  0  0  0  0  0  0
   37.1480   28.1460   41.5340 C   0  0  2  0  0  0  0  0  0  0  0  0
   37.9650   28.3030   40.3700 N   0  0  0  0  0  0  0  0  0  0  0  0
   39.2500   27.9080   40.1690 C   0  0  0  0  0  0  0  0  0  0  0  0
   39.6740   28.2380   38.9340 N   0  0  0  0  0  0  0  0  0  0  0  0
   38.6810   28.8630   38.2760 C   0  0  0  0  0  0  0  0  0  0  0  0
   38.4330   29.4360   37.0430 C   0  0  0  0  0  0  0  0  0  0  0  0
   37.2610   29.9970   36.7100 N   0  0  0  0  0  0  0  0  0  0  0  0
   36.2610   30.0070   37.6220 C   0  0  0  0  0  0  0  0  0  0  0  0
   36.4740   29.4580   38.8250 N   0  0  0  0  0  0  0  0  0  0  0  0
   37.6550   28.8890   39.1750 C   0  0  0  0  0  0  0  0  0  0  0  0
   38.2790   30.2730   42.0620 C   0  0  0  0  0  0  0  0  0  0  0  0
   39.5990   30.0190   42.3900 C   0  0  0  0  0  0  0  0  0  0  0  0
   40.5990   30.9180   41.9870 C   0  0  0  0  0  0  0  0  0  0  0  0
   40.1770   32.0220   41.2700 N   0  0  0  0  0  0  0  0  0  0  0  0
   38.8980   32.2250   40.9780 C   0  0  0  0  0  0  0  0  0  0  0  0
   37.9300   31.3530   41.3700 N   0  0  0  0  0  0  0  0  0  0  0  0
   38.4620   33.3930   40.2200 C   0  0  0  0  0  0  0  0  0  0  0  0
   39.2610   34.2350   39.7330 O   0  0  0  0  0  0  0  0  0  0  0  0
   37.1130   33.6370   39.9930 O   0  0  0  0  0  0  0  0  0  0  0  0
   36.3182   29.6860   42.6338 H   0  0  0  0  0  0  0  0  0  0  0  0
   38.7053   28.6100   43.9696 H   0  0  0  0  0  0  0  0  0  0  0  0
   37.3731   29.7209   44.5582 H   0  0  0  0  0  0  0  0  0  0  0  0
   37.4700   27.1148   45.1170 H   0  0  0  0  0  0  0  0  0  0  0  0
   35.9320   28.0988   44.8832 H   0  0  0  0  0  0  0  0  0  0  0  0
   36.3558   25.7265   43.7755 H   0  0  0  0  0  0  0  0  0  0  0  0
   35.3541   27.0501   43.0611 H   0  0  0  0  0  0  0  0  0  0  0  0
   38.3156   26.6205   42.4689 H   0  0  0  0  0  0  0  0  0  0  0  0
   36.9883   26.0117   41.4403 H   0  0  0  0  0  0  0  0  0  0  0  0
   36.1142   28.2282   41.1672 H   0  0  0  0  0  0  0  0  0  0  0  0
   39.8640   27.3864   40.9180 H   0  0  0  0  0  0  0  0  0  0  0  0
   39.2396   29.4318   36.2950 H   0  0  0  0  0  0  0  0  0  0  0  0
   35.2881   30.4591   37.3789 H   0  0  0  0  0  0  0  0  0  0  0  0
   39.8632   29.1180   42.9631 H   0  0  0  0  0  0  0  0  0  0  0  0
   41.6595   30.7531   42.2283 H   0  0  0  0  0  0  0  0  0  0  0  0
   36.8342   34.4343   39.4766 H   0  0  0  0  0  0  0  0  0  0  0  0
  1  2  1  0
  2  3  1  0
  4  3  1  0
  5  4  1  0
  6  5  1  0
  6  1  1  0
  7  6  1  0
  8  7  1  0
  9  8  2  0
 10  9  1  0
 10 15  2  0
 11 10  1  0
 12 11  2  0
 12 13  1  0
 13 14  2  0
 14 15  1  0
 15  7  1  0
 16 17  2  0
 16  1  1  0
 18 17  1  0
 19 18  2  0
 20 19  1  0
 20 21  2  0
 21 16  1  0
 22 20  1  0
 23 22  2  0
 24 22  1  0
  1 25  1  1
  2 26  1  0
  2 27  1  0
  3 28  1  0
  3 29  1  0
  4 30  1  0
  4 31  1  0
  5 32  1  0
  5 33  1  0
  6 34  1  6
  8 35  1  0
 11 36  1  0
 13 37  1  0
 17 38  1  0
 18 39  1  0
 24 40  1  0
M  ISO  8  25  13  26  13  27  13  28  13  29  13  30  13  31  13  32  13
M  ISO  8  33  13  34  13  35  14  36  14  37  14  38  14  39  14  40   3
M  END
>  <minimizedAffinity>  (1) 
-5.72044849

>  <minimizedRMSD>  (1) 
2.20038581

$$$$
