
     RDKit          3D

 50 54  0  0  1  0  0  0  0  0999 V2000
   39.6500   26.7430   42.1240 C   0  0  2  0  0  0  0  0  0  0  0  0
   40.4330   25.5470   42.3940 C   0  0  0  0  0  0  0  0  0  0  0  0
   39.6340   24.4070   42.9940 C   0  0  0  0  0  0  0  0  0  0  0  0
   38.1990   24.3780   42.6240 C   0  0  0  0  0  0  0  0  0  0  0  0
   37.9370   25.1020   41.3320 C   0  0  0  0  0  0  0  0  0  0  0  0
   38.2770   26.5480   41.5100 C   0  0  2  0  0  0  0  0  0  0  0  0
   38.0700   27.3230   40.3260 N   0  0  0  0  0  0  0  0  0  0  0  0
   38.5040   27.0770   39.0600 C   0  0  0  0  0  0  0  0  0  0  0  0
   38.1040   28.0440   38.2110 N   0  0  0  0  0  0  0  0  0  0  0  0
   37.3910   28.9640   38.8910 C   0  0  0  0  0  0  0  0  0  0  0  0
   36.7170   30.1490   38.6580 C   0  0  0  0  0  0  0  0  0  0  0  0
   36.0810   30.8320   39.6240 N   0  0  0  0  0  0  0  0  0  0  0  0
   36.0970   30.3450   40.8850 C   0  0  0  0  0  0  0  0  0  0  0  0
   36.7420   29.1990   41.1360 N   0  0  0  0  0  0  0  0  0  0  0  0
   37.3890   28.4980   40.1720 C   0  0  0  0  0  0  0  0  0  0  0  0
   40.4370   27.7300   41.3640 C   0  0  0  0  0  0  0  0  0  0  0  0
   41.5190   27.1940   40.6860 C   0  0  0  0  0  0  0  0  0  0  0  0
   42.3500   28.0380   39.9320 C   0  0  0  0  0  0  0  0  0  0  0  0
   42.0150   29.3810   39.9210 N   0  0  0  0  0  0  0  0  0  0  0  0
   40.9650   29.8470   40.5870 C   0  0  0  0  0  0  0  0  0  0  0  0
   40.1620   29.0290   41.3180 N   0  0  0  0  0  0  0  0  0  0  0  0
   40.0720   34.0330   40.4810 C   0  0  0  0  0  0  0  0  0  0  0  0
   41.3090   33.5310   40.1500 C   0  0  0  0  0  0  0  0  0  0  0  0
   41.6060   32.1860   40.1820 C   0  0  0  0  0  0  0  0  0  0  0  0
   40.6320   31.2650   40.5600 C   0  0  0  0  0  0  0  0  0  0  0  0
   39.3880   31.7590   40.8950 C   0  0  0  0  0  0  0  0  0  0  0  0
   39.1070   33.1220   40.8560 C   0  0  0  0  0  0  0  0  0  0  0  0
   39.8700   35.7580   40.3870 S   0  0  0  0  0  0  0  0  0  0  0  0
   38.5020   36.0590   39.8450 O   0  0  0  0  0  0  0  0  0  0  0  0
   40.9360   36.3570   39.5160 O   0  0  0  0  0  0  0  0  0  0  0  0
   39.4216   27.1271   43.1292 H   0  0  0  0  0  0  0  0  0  0  0  0
   40.8720   25.2003   41.4469 H   0  0  0  0  0  0  0  0  0  0  0  0
   41.1939   25.8269   43.1374 H   0  0  0  0  0  0  0  0  0  0  0  0
   40.0895   23.4617   42.6640 H   0  0  0  0  0  0  0  0  0  0  0  0
   39.6650   24.5533   44.0838 H   0  0  0  0  0  0  0  0  0  0  0  0
   37.8811   23.3306   42.5152 H   0  0  0  0  0  0  0  0  0  0  0  0
   37.6322   24.8846   43.4191 H   0  0  0  0  0  0  0  0  0  0  0  0
   36.8754   25.0027   41.0617 H   0  0  0  0  0  0  0  0  0  0  0  0
   38.5540   24.6697   40.5305 H   0  0  0  0  0  0  0  0  0  0  0  0
   37.5581   26.9471   42.2407 H   0  0  0  0  0  0  0  0  0  0  0  0
   39.1035   26.2023   38.7676 H   0  0  0  0  0  0  0  0  0  0  0  0
   36.7010   30.5508   37.6341 H   0  0  0  0  0  0  0  0  0  0  0  0
   35.5857   30.8844   41.6959 H   0  0  0  0  0  0  0  0  0  0  0  0
   41.7259   26.1149   40.7378 H   0  0  0  0  0  0  0  0  0  0  0  0
   43.2200   27.6529   39.3800 H   0  0  0  0  0  0  0  0  0  0  0  0
   42.0971   34.2355   39.8459 H   0  0  0  0  0  0  0  0  0  0  0  0
   42.6135   31.8392   39.9087 H   0  0  0  0  0  0  0  0  0  0  0  0
   38.5977   31.0577   41.2008 H   0  0  0  0  0  0  0  0  0  0  0  0
   38.1020   33.4769   41.1279 H   0  0  0  0  0  0  0  0  0  0  0  0
   39.9891   36.3101   41.6352 H   0  0  0  0  0  0  0  0  0  0  0  0
  1  2  1  0
  2  3  1  0
  4  3  1  0
  5  6  1  0
  5  4  1  0
  6  1  1  0
  7  6  1  0
  8  7  1  0
  9 10  1  0
  9  8  2  0
 10 15  2  0
 11 10  1  0
 11 12  2  0
 12 13  1  0
 13 14  2  0
 15  7  1  0
 15 14  1  0
 16  1  1  0
 17 16  2  0
 18 17  1  0
 19 18  2  0
 19 20  1  0
 20 21  2  0
 21 16  1  0
 22 27  2  0
 23 24  2  0
 23 22  1  0
 24 25  1  0
 25 20  1  0
 25 26  2  0
 27 26  1  0
 28 22  1  0
 29 28  2  0
 30 28  2  0
  1 31  1  1
  2 32  1  0
  2 33  1  0
  3 34  1  0
  3 35  1  0
  4 36  1  0
  4 37  1  0
  5 38  1  0
  5 39  1  0
  6 40  1  1
  8 41  1  0
 11 42  1  0
 13 43  1  0
 17 44  1  0
 18 45  1  0
 23 46  1  0
 24 47  1  0
 26 48  1  0
 27 49  1  0
 28 50  1  0
M  ISO  8  31  13  32  13  33  13  34  13  35  13  36  13  37  13  38  13
M  ISO  8  39  13  40  13  41  14  42  14  43  14  44  14  45  14  46  14
M  ISO  4  47  14  48  14  49  14  50  11
M  END
>  <minimizedAffinity>  (1) 
-5.70795774

>  <minimizedRMSD>  (1) 
4.72830629

$$$$
