
     RDKit          3D

 40 43  0  0  1  0  0  0  0  0999 V2000
   37.1310   29.3370   42.2120 C   0  0  2  0  0  0  0  0  0  0  0  0
   37.6970   29.0220   43.5160 C   0  0  0  0  0  0  0  0  0  0  0  0
   37.1910   27.7230   44.1080 C   0  0  0  0  0  0  0  0  0  0  0  0
   36.8000   26.6830   43.1200 C   0  0  0  0  0  0  0  0  0  0  0  0
   37.4770   26.8990   41.7950 C   0  0  0  0  0  0  0  0  0  0  0  0
   37.0180   28.1990   41.2170 C   0  0  2  0  0  0  0  0  0  0  0  0
   37.6140   28.4920   39.9500 N   0  0  0  0  0  0  0  0  0  0  0  0
   38.9310   28.5040   39.6110 C   0  0  0  0  0  0  0  0  0  0  0  0
   39.0970   28.8270   38.3140 N   0  0  0  0  0  0  0  0  0  0  0  0
   37.8930   29.0410   37.7520 C   0  0  0  0  0  0  0  0  0  0  0  0
   37.3560   29.3860   36.5230 C   0  0  0  0  0  0  0  0  0  0  0  0
   36.0320   29.5130   36.3140 N   0  0  0  0  0  0  0  0  0  0  0  0
   35.1880   29.2960   37.3430 C   0  0  0  0  0  0  0  0  0  0  0  0
   35.6810   28.9620   38.5440 N   0  0  0  0  0  0  0  0  0  0  0  0
   37.0110   28.8300   38.7720 C   0  0  0  0  0  0  0  0  0  0  0  0
   37.8010   30.5030   41.6130 C   0  0  0  0  0  0  0  0  0  0  0  0
   39.1340   30.6370   41.9620 C   0  0  0  0  0  0  0  0  0  0  0  0
   39.8770   31.7140   41.4580 C   0  0  0  0  0  0  0  0  0  0  0  0
   39.2080   32.5900   40.6250 N   0  0  0  0  0  0  0  0  0  0  0  0
   37.9250   32.4190   40.3160 C   0  0  0  0  0  0  0  0  0  0  0  0
   37.2060   31.3740   40.8060 N   0  0  0  0  0  0  0  0  0  0  0  0
   37.2360   33.3970   39.4030 C   0  0  0  0  0  0  0  0  0  0  0  0
   36.0818   29.5757   42.4407 H   0  0  0  0  0  0  0  0  0  0  0  0
   38.7898   28.9523   43.4114 H   0  0  0  0  0  0  0  0  0  0  0  0
   37.3883   29.8260   44.2003 H   0  0  0  0  0  0  0  0  0  0  0  0
   37.9869   27.3063   44.7428 H   0  0  0  0  0  0  0  0  0  0  0  0
   36.2741   27.9776   44.6599 H   0  0  0  0  0  0  0  0  0  0  0  0
   37.0848   25.6946   43.5099 H   0  0  0  0  0  0  0  0  0  0  0  0
   35.7126   26.7449   42.9660 H   0  0  0  0  0  0  0  0  0  0  0  0
   38.5673   26.9242   41.9383 H   0  0  0  0  0  0  0  0  0  0  0  0
   37.2205   26.0777   41.1097 H   0  0  0  0  0  0  0  0  0  0  0  0
   35.9447   28.0835   41.0054 H   0  0  0  0  0  0  0  0  0  0  0  0
   39.7537   28.2792   40.3057 H   0  0  0  0  0  0  0  0  0  0  0  0
   38.0410   29.5640   35.6809 H   0  0  0  0  0  0  0  0  0  0  0  0
   34.1019   29.3924   37.1978 H   0  0  0  0  0  0  0  0  0  0  0  0
   39.6074   29.9030   42.6307 H   0  0  0  0  0  0  0  0  0  0  0  0
   40.9379   31.8542   41.7127 H   0  0  0  0  0  0  0  0  0  0  0  0
   36.7058   34.1496   40.0050 H   0  0  0  0  0  0  0  0  0  0  0  0
   37.9835   33.8954   38.7683 H   0  0  0  0  0  0  0  0  0  0  0  0
   36.5151   32.8608   38.7683 H   0  0  0  0  0  0  0  0  0  0  0  0
  1  2  1  0
  2  3  1  0
  4  3  1  0
  5  4  1  0
  6  5  1  0
  6  1  1  0
  7  6  1  0
  8  7  1  0
  9  8  2  0
 10  9  1  0
 10 15  2  0
 11 10  1  0
 12 11  2  0
 12 13  1  0
 13 14  2  0
 14 15  1  0
 15  7  1  0
 16 17  2  0
 16  1  1  0
 18 17  1  0
 19 18  2  0
 20 19  1  0
 20 21  2  0
 21 16  1  0
 22 20  1  0
  1 23  1  1
  2 24  1  0
  2 25  1  0
  3 26  1  0
  3 27  1  0
  4 28  1  0
  4 29  1  0
  5 30  1  0
  5 31  1  0
  6 32  1  6
  8 33  1  0
 11 34  1  0
 13 35  1  0
 17 36  1  0
 18 37  1  0
 22 38  1  0
 22 39  1  0
 22 40  1  0
M  ISO  8  23  13  24  13  25  13  26  13  27  13  28  13  29  13  30  13
M  ISO  8  31  13  32  13  33  14  34  14  35  14  36  14  37  14  38   8
M  ISO  2  39   8  40   8
M  END
>  <minimizedAffinity>  (1) 
-5.59908485

>  <minimizedRMSD>  (1) 
1.30107427

$$$$
