
     RDKit          3D

 44 48  0  0  1  0  0  0  0  0999 V2000
   37.8300   30.0690   41.5210 C   0  0  2  0  0  0  0  0  0  0  0  0
   37.2520   28.7400   41.4940 C   0  0  0  0  0  0  0  0  0  0  0  0
   35.8000   28.6870   41.0610 C   0  0  0  0  0  0  0  0  0  0  0  0
   35.3540   29.7960   40.1830 C   0  0  0  0  0  0  0  0  0  0  0  0
   36.5050   30.3960   39.4240 C   0  0  0  0  0  0  0  0  0  0  0  0
   37.4640   31.0140   40.3910 C   0  0  2  0  0  0  0  0  0  0  0  0
   39.2900   30.0080   41.7100 C   0  0  0  0  0  0  0  0  0  0  0  0
   39.7870   30.9380   42.6060 C   0  0  0  0  0  0  0  0  0  0  0  0
   41.1690   30.9810   42.8610 C   0  0  0  0  0  0  0  0  0  0  0  0
   41.9500   30.0670   42.1790 N   0  0  0  0  0  0  0  0  0  0  0  0
   41.4260   29.1910   41.3280 C   0  0  0  0  0  0  0  0  0  0  0  0
   40.0880   29.1500   41.0820 N   0  0  0  0  0  0  0  0  0  0  0  0
   42.2510   28.2470   40.6300 N   0  0  0  0  0  0  0  0  0  0  0  0
   42.8740   27.1720   41.1420 C   0  0  0  0  0  0  0  0  0  0  0  0
   43.5450   26.5720   40.0950 C   0  0  0  0  0  0  0  0  0  0  0  0
   43.3160   27.2960   38.9650 N   0  0  0  0  0  0  0  0  0  0  0  0
   42.5150   28.3250   39.3210 C   0  0  0  0  0  0  0  0  0  0  0  0
   38.6020   31.5980   39.7520 N   0  0  0  0  0  0  0  0  0  0  0  0
   39.4330   31.0480   38.8260 C   0  0  0  0  0  0  0  0  0  0  0  0
   40.3960   31.9160   38.4560 N   0  0  0  0  0  0  0  0  0  0  0  0
   40.2300   33.0720   39.1290 C   0  0  0  0  0  0  0  0  0  0  0  0
   40.8220   34.3160   39.2310 C   0  0  0  0  0  0  0  0  0  0  0  0
   40.3620   35.2820   40.0500 N   0  0  0  0  0  0  0  0  0  0  0  0
   39.2740   35.0270   40.8070 C   0  0  0  0  0  0  0  0  0  0  0  0
   38.6820   33.8290   40.7270 N   0  0  0  0  0  0  0  0  0  0  0  0
   39.1340   32.8460   39.9060 C   0  0  0  0  0  0  0  0  0  0  0  0
   37.3470   30.5310   42.3947 H   0  0  0  0  0  0  0  0  0  0  0  0
   37.8398   28.1253   40.7964 H   0  0  0  0  0  0  0  0  0  0  0  0
   37.2803   28.3689   42.5291 H   0  0  0  0  0  0  0  0  0  0  0  0
   35.6420   27.7422   40.5202 H   0  0  0  0  0  0  0  0  0  0  0  0
   35.2068   28.7750   41.9831 H   0  0  0  0  0  0  0  0  0  0  0  0
   34.6158   29.4087   39.4653 H   0  0  0  0  0  0  0  0  0  0  0  0
   34.9119   30.5800   40.8154 H   0  0  0  0  0  0  0  0  0  0  0  0
   37.0170   29.6095   38.8501 H   0  0  0  0  0  0  0  0  0  0  0  0
   36.1304   31.1653   38.7328 H   0  0  0  0  0  0  0  0  0  0  0  0
   36.9329   31.8558   40.8593 H   0  0  0  0  0  0  0  0  0  0  0  0
   39.1069   31.6374   43.1142 H   0  0  0  0  0  0  0  0  0  0  0  0
   41.6056   31.7038   43.5660 H   0  0  0  0  0  0  0  0  0  0  0  0
   42.8534   26.8361   42.1893 H   0  0  0  0  0  0  0  0  0  0  0  0
   44.1605   25.6628   40.1625 H   0  0  0  0  0  0  0  0  0  0  0  0
   42.1394   29.1040   38.6412 H   0  0  0  0  0  0  0  0  0  0  0  0
   39.3322   30.0267   38.4301 H   0  0  0  0  0  0  0  0  0  0  0  0
   41.7090   34.5275   38.6158 H   0  0  0  0  0  0  0  0  0  0  0  0
   38.8769   35.7975   41.4843 H   0  0  0  0  0  0  0  0  0  0  0  0
  1  7  1  0
  2  1  1  0
  3  2  1  0
  4  3  1  0
  5  4  1  0
  5  6  1  0
  6  1  1  0
  7  8  2  0
  8  9  1  0
 10  9  2  0
 11 10  1  0
 12 11  2  0
 12  7  1  0
 13 14  1  0
 13 11  1  0
 15 14  2  0
 16 17  2  0
 16 15  1  0
 17 13  1  0
 18 26  1  0
 18  6  1  0
 19 18  1  0
 20 19  2  0
 20 21  1  0
 21 22  2  0
 21 26  1  0
 22 23  1  0
 23 24  2  0
 25 24  1  0
 26 25  2  0
  1 27  1  1
  2 28  1  0
  2 29  1  0
  3 30  1  0
  3 31  1  0
  4 32  1  0
  4 33  1  0
  5 34  1  0
  5 35  1  0
  6 36  1  1
  8 37  1  0
  9 38  1  0
 14 39  1  0
 15 40  1  0
 17 41  1  0
 19 42  1  0
 22 43  1  0
 24 44  1  0
M  ISO  8  27  13  28  13  29  13  30  13  31  13  32  13  33  13  34  13
M  ISO  8  35  13  36  13  37  14  38  14  39  14  40  14  41  14  42  14
M  ISO  2  43  14  44  14
M  END
>  <minimizedAffinity>  (1) 
-5.47196245

>  <minimizedRMSD>  (1) 
6.39522219

$$$$
