
     RDKit          3D

 39 42  0  0  1  0  0  0  0  0999 V2000
   37.0590   29.2710   42.2010 C   0  0  2  0  0  0  0  0  0  0  0  0
   37.6440   28.9840   43.5020 C   0  0  0  0  0  0  0  0  0  0  0  0
   37.1320   27.7110   44.1420 C   0  0  0  0  0  0  0  0  0  0  0  0
   36.7170   26.6480   43.1980 C   0  0  0  0  0  0  0  0  0  0  0  0
   37.3540   26.8110   41.8440 C   0  0  0  0  0  0  0  0  0  0  0  0
   36.9070   28.1050   41.2420 C   0  0  2  0  0  0  0  0  0  0  0  0
   37.4830   28.3500   39.9560 N   0  0  0  0  0  0  0  0  0  0  0  0
   38.7890   28.2940   39.5820 C   0  0  0  0  0  0  0  0  0  0  0  0
   38.9370   28.5910   38.2760 N   0  0  0  0  0  0  0  0  0  0  0  0
   37.7290   28.8530   37.7420 C   0  0  0  0  0  0  0  0  0  0  0  0
   37.1780   29.2040   36.5240 C   0  0  0  0  0  0  0  0  0  0  0  0
   35.8550   29.3920   36.3460 N   0  0  0  0  0  0  0  0  0  0  0  0
   35.0300   29.2310   37.3980 C   0  0  0  0  0  0  0  0  0  0  0  0
   35.5370   28.8920   38.5910 N   0  0  0  0  0  0  0  0  0  0  0  0
   36.8660   28.6990   38.7870 C   0  0  0  0  0  0  0  0  0  0  0  0
   37.7370   30.4070   41.5540 C   0  0  0  0  0  0  0  0  0  0  0  0
   39.0670   30.5540   41.9120 C   0  0  0  0  0  0  0  0  0  0  0  0
   39.8170   31.6070   41.3640 C   0  0  0  0  0  0  0  0  0  0  0  0
   39.1570   32.4400   40.4810 N   0  0  0  0  0  0  0  0  0  0  0  0
   37.8780   32.2580   40.1670 C   0  0  0  0  0  0  0  0  0  0  0  0
   37.1530   31.2390   40.6990 N   0  0  0  0  0  0  0  0  0  0  0  0
   37.2130   33.1620   39.2270 C   0  0  0  0  0  0  0  0  0  0  0  0
   37.1360   34.3850   39.4550 O   0  0  0  0  0  0  0  0  0  0  0  0
   36.0192   29.5361   42.4428 H   0  0  0  0  0  0  0  0  0  0  0  0
   38.7335   28.8950   43.3790 H   0  0  0  0  0  0  0  0  0  0  0  0
   37.3582   29.8114   44.1681 H   0  0  0  0  0  0  0  0  0  0  0  0
   37.9320   27.3058   44.7790 H   0  0  0  0  0  0  0  0  0  0  0  0
   36.2256   27.9941   44.6972 H   0  0  0  0  0  0  0  0  0  0  0  0
   37.0098   25.6720   43.6123 H   0  0  0  0  0  0  0  0  0  0  0  0
   35.6267   26.7169   43.0693 H   0  0  0  0  0  0  0  0  0  0  0  0
   38.4488   26.8137   41.9505 H   0  0  0  0  0  0  0  0  0  0  0  0
   37.0541   25.9773   41.1921 H   0  0  0  0  0  0  0  0  0  0  0  0
   35.8269   28.0046   41.0596 H   0  0  0  0  0  0  0  0  0  0  0  0
   39.6181   28.0391   40.2585 H   0  0  0  0  0  0  0  0  0  0  0  0
   37.8485   29.3357   35.6620 H   0  0  0  0  0  0  0  0  0  0  0  0
   33.9463   29.3769   37.2786 H   0  0  0  0  0  0  0  0  0  0  0  0
   39.5318   29.8517   42.6197 H   0  0  0  0  0  0  0  0  0  0  0  0
   40.8747   31.7607   41.6241 H   0  0  0  0  0  0  0  0  0  0  0  0
   36.7740   32.7552   38.3041 H   0  0  0  0  0  0  0  0  0  0  0  0
  1  2  1  0
  2  3  1  0
  4  3  1  0
  5  4  1  0
  6  5  1  0
  6  1  1  0
  7  6  1  0
  8  7  1  0
  9  8  2  0
 10  9  1  0
 10 15  2  0
 11 10  1  0
 12 11  2  0
 12 13  1  0
 13 14  2  0
 14 15  1  0
 15  7  1  0
 16 17  2  0
 16  1  1  0
 18 17  1  0
 19 18  2  0
 20 19  1  0
 20 21  2  0
 21 16  1  0
 22 23  2  0
 22 20  1  0
  1 24  1  1
  2 25  1  0
  2 26  1  0
  3 27  1  0
  3 28  1  0
  4 29  1  0
  4 30  1  0
  5 31  1  0
  5 32  1  0
  6 33  1  6
  8 34  1  0
 11 35  1  0
 13 36  1  0
 17 37  1  0
 18 38  1  0
 22 39  1  0
M  ISO  8  24  13  25  13  26  13  27  13  28  13  29  13  30  13  31  13
M  ISO  8  32  13  33  13  34  14  35  14  36  14  37  14  38  14  39   6
M  END
>  <minimizedAffinity>  (1) 
-5.42848778

>  <minimizedRMSD>  (1) 
1.18252325

$$$$
