
     RDKit          3D

 44 48  0  0  1  0  0  0  0  0999 V2000
   37.9890   30.2130   41.4970 C   0  0  2  0  0  0  0  0  0  0  0  0
   37.4370   28.8650   41.4510 C   0  0  0  0  0  0  0  0  0  0  0  0
   35.9680   28.8180   41.0810 C   0  0  0  0  0  0  0  0  0  0  0  0
   35.5040   29.9120   40.1960 C   0  0  0  0  0  0  0  0  0  0  0  0
   36.6380   30.5220   39.4150 C   0  0  0  0  0  0  0  0  0  0  0  0
   37.6030   31.1510   40.3700 C   0  0  2  0  0  0  0  0  0  0  0  0
   39.4500   30.1790   41.6830 C   0  0  0  0  0  0  0  0  0  0  0  0
   39.9250   31.0780   42.6230 C   0  0  0  0  0  0  0  0  0  0  0  0
   41.3030   31.1430   42.8810 C   0  0  0  0  0  0  0  0  0  0  0  0
   42.1070   30.2790   42.1610 N   0  0  0  0  0  0  0  0  0  0  0  0
   41.6040   29.4310   41.2710 C   0  0  0  0  0  0  0  0  0  0  0  0
   40.2690   29.3710   41.0210 N   0  0  0  0  0  0  0  0  0  0  0  0
   42.4740   28.5620   40.5570 N   0  0  0  0  0  0  0  0  0  0  0  0
   43.2870   27.5640   40.8800 N   0  0  0  0  0  0  0  0  0  0  0  0
   43.8800   27.0910   39.7590 C   0  0  0  0  0  0  0  0  0  0  0  0
   43.4170   27.8290   38.6670 C   0  0  0  0  0  0  0  0  0  0  0  0
   42.5260   28.7550   39.2130 C   0  0  0  0  0  0  0  0  0  0  0  0
   38.7270   31.7490   39.7210 N   0  0  0  0  0  0  0  0  0  0  0  0
   39.5440   31.2220   38.7690 C   0  0  0  0  0  0  0  0  0  0  0  0
   40.4960   32.1000   38.4010 N   0  0  0  0  0  0  0  0  0  0  0  0
   40.3400   33.2430   39.1000 C   0  0  0  0  0  0  0  0  0  0  0  0
   40.9310   34.4870   39.2160 C   0  0  0  0  0  0  0  0  0  0  0  0
   40.4820   35.4340   40.0620 N   0  0  0  0  0  0  0  0  0  0  0  0
   39.4100   35.1620   40.8320 C   0  0  0  0  0  0  0  0  0  0  0  0
   38.8200   33.9630   40.7380 N   0  0  0  0  0  0  0  0  0  0  0  0
   39.2570   32.9980   39.8930 C   0  0  0  0  0  0  0  0  0  0  0  0
   37.5029   30.6598   42.3768 H   0  0  0  0  0  0  0  0  0  0  0  0
   38.0010   28.2845   40.7061 H   0  0  0  0  0  0  0  0  0  0  0  0
   37.5256   28.4477   42.4649 H   0  0  0  0  0  0  0  0  0  0  0  0
   35.7763   27.8628   40.5702 H   0  0  0  0  0  0  0  0  0  0  0  0
   35.4125   28.9321   42.0235 H   0  0  0  0  0  0  0  0  0  0  0  0
   34.7629   29.5085   39.4904 H   0  0  0  0  0  0  0  0  0  0  0  0
   35.0637   30.6977   40.8275 H   0  0  0  0  0  0  0  0  0  0  0  0
   37.1496   29.7396   38.8352 H   0  0  0  0  0  0  0  0  0  0  0  0
   36.2469   31.2843   38.7251 H   0  0  0  0  0  0  0  0  0  0  0  0
   37.0681   31.9887   40.8413 H   0  0  0  0  0  0  0  0  0  0  0  0
   39.2281   31.7358   43.1630 H   0  0  0  0  0  0  0  0  0  0  0  0
   41.7215   31.8447   43.6176 H   0  0  0  0  0  0  0  0  0  0  0  0
   44.6046   26.2645   39.7152 H   0  0  0  0  0  0  0  0  0  0  0  0
   43.6936   27.7073   37.6093 H   0  0  0  0  0  0  0  0  0  0  0  0
   41.9614   29.5129   38.6501 H   0  0  0  0  0  0  0  0  0  0  0  0
   39.4400   30.2088   38.3535 H   0  0  0  0  0  0  0  0  0  0  0  0
   41.8066   34.7136   38.5899 H   0  0  0  0  0  0  0  0  0  0  0  0
   39.0229   35.9177   41.5314 H   0  0  0  0  0  0  0  0  0  0  0  0
  1  7  1  0
  2  1  1  0
  3  2  1  0
  4  3  1  0
  5  4  1  0
  5  6  1  0
  6  1  1  0
  7  8  2  0
  8  9  1  0
 10  9  2  0
 11 10  1  0
 12 11  2  0
 12  7  1  0
 13 14  1  0
 13 11  1  0
 15 14  2  0
 16 17  2  0
 16 15  1  0
 17 13  1  0
 18 26  1  0
 18  6  1  0
 19 18  1  0
 20 19  2  0
 20 21  1  0
 21 22  2  0
 21 26  1  0
 22 23  1  0
 23 24  2  0
 25 24  1  0
 26 25  2  0
  1 27  1  1
  2 28  1  0
  2 29  1  0
  3 30  1  0
  3 31  1  0
  4 32  1  0
  4 33  1  0
  5 34  1  0
  5 35  1  0
  6 36  1  1
  8 37  1  0
  9 38  1  0
 15 39  1  0
 16 40  1  0
 17 41  1  0
 19 42  1  0
 22 43  1  0
 24 44  1  0
M  ISO  8  27  13  28  13  29  13  30  13  31  13  32  13  33  13  34  13
M  ISO  8  35  13  36  13  37  14  38  14  39  14  40  14  41  14  42  14
M  ISO  2  43  14  44  14
M  END
>  <minimizedAffinity>  (1) 
-5.38350868

>  <minimizedRMSD>  (1) 
6.43355989

$$$$
