
     RDKit          3D

 38 41  0  0  1  0  0  0  0  0999 V2000
   37.1510   29.2700   42.2750 C   0  0  2  0  0  0  0  0  0  0  0  0
   37.6680   28.9200   43.5880 C   0  0  0  0  0  0  0  0  0  0  0  0
   37.1380   27.6100   44.1360 C   0  0  0  0  0  0  0  0  0  0  0  0
   36.7400   26.6090   43.1160 C   0  0  0  0  0  0  0  0  0  0  0  0
   37.4600   26.8310   41.8100 C   0  0  0  0  0  0  0  0  0  0  0  0
   37.0410   28.1550   41.2510 C   0  0  2  0  0  0  0  0  0  0  0  0
   37.6760   28.4650   40.0090 N   0  0  0  0  0  0  0  0  0  0  0  0
   39.0020   28.4580   39.7040 C   0  0  0  0  0  0  0  0  0  0  0  0
   39.2110   28.8060   38.4200 N   0  0  0  0  0  0  0  0  0  0  0  0
   38.0220   29.0560   37.8310 C   0  0  0  0  0  0  0  0  0  0  0  0
   37.5260   29.4360   36.5980 C   0  0  0  0  0  0  0  0  0  0  0  0
   36.2110   29.5930   36.3560 N   0  0  0  0  0  0  0  0  0  0  0  0
   35.3350   29.3720   37.3560 C   0  0  0  0  0  0  0  0  0  0  0  0
   35.7920   29.0030   38.5610 N   0  0  0  0  0  0  0  0  0  0  0  0
   37.1110   28.8390   38.8220 C   0  0  0  0  0  0  0  0  0  0  0  0
   37.8640   30.4350   41.7190 C   0  0  0  0  0  0  0  0  0  0  0  0
   39.1880   30.5290   42.1070 C   0  0  0  0  0  0  0  0  0  0  0  0
   39.9660   31.6030   41.6460 C   0  0  0  0  0  0  0  0  0  0  0  0
   39.3320   32.5110   40.8150 N   0  0  0  0  0  0  0  0  0  0  0  0
   38.0570   32.3770   40.4700 C   0  0  0  0  0  0  0  0  0  0  0  0
   37.3040   31.3350   40.9180 N   0  0  0  0  0  0  0  0  0  0  0  0
   37.3120   33.6020   39.3850 S   0  0  0  0  0  0  0  0  0  0  0  0
   36.1003   29.5240   42.4786 H   0  0  0  0  0  0  0  0  0  0  0  0
   38.7634   28.8470   43.5191 H   0  0  0  0  0  0  0  0  0  0  0  0
   37.3358   29.7089   44.2789 H   0  0  0  0  0  0  0  0  0  0  0  0
   37.9228   27.1620   44.7632 H   0  0  0  0  0  0  0  0  0  0  0  0
   36.2207   27.8612   44.6887 H   0  0  0  0  0  0  0  0  0  0  0  0
   36.9810   25.6030   43.4900 H   0  0  0  0  0  0  0  0  0  0  0  0
   35.6599   26.7126   42.9354 H   0  0  0  0  0  0  0  0  0  0  0  0
   38.5466   26.8284   41.9811 H   0  0  0  0  0  0  0  0  0  0  0  0
   37.2082   26.0280   41.1016 H   0  0  0  0  0  0  0  0  0  0  0  0
   35.9713   28.0649   41.0108 H   0  0  0  0  0  0  0  0  0  0  0  0
   39.8009   28.2010   40.4151 H   0  0  0  0  0  0  0  0  0  0  0  0
   38.2369   29.6181   35.7786 H   0  0  0  0  0  0  0  0  0  0  0  0
   34.2552   29.4933   37.1850 H   0  0  0  0  0  0  0  0  0  0  0  0
   39.6274   29.7696   42.7705 H   0  0  0  0  0  0  0  0  0  0  0  0
   41.0226   31.7169   41.9298 H   0  0  0  0  0  0  0  0  0  0  0  0
   36.7178   34.5791   40.1394 H   0  0  0  0  0  0  0  0  0  0  0  0
  1  2  1  0
  2  3  1  0
  4  3  1  0
  5  4  1  0
  6  5  1  0
  6  1  1  0
  7  6  1  0
  8  7  1  0
  9  8  2  0
 10  9  1  0
 10 15  2  0
 11 10  1  0
 12 11  2  0
 12 13  1  0
 13 14  2  0
 14 15  1  0
 15  7  1  0
 16 17  2  0
 16  1  1  0
 18 17  1  0
 19 18  2  0
 20 19  1  0
 20 21  2  0
 21 16  1  0
 22 20  1  0
  1 23  1  1
  2 24  1  0
  2 25  1  0
  3 26  1  0
  3 27  1  0
  4 28  1  0
  4 29  1  0
  5 30  1  0
  5 31  1  0
  6 32  1  6
  8 33  1  0
 11 34  1  0
 13 35  1  0
 17 36  1  0
 18 37  1  0
 22 38  1  0
M  ISO  8  23  13  24  13  25  13  26  13  27  13  28  13  29  13  30  13
M  ISO  8  31  13  32  13  33  14  34  14  35  14  36  14  37  14  38  11
M  END
>  <minimizedAffinity>  (1) 
-5.2826767

>  <minimizedRMSD>  (1) 
1.4416256

$$$$
