
     RDKit          3D

 22 23  0  0  0  0  0  0  0  0999 V2000
   35.5760   29.1830   40.8440 C   0  0  0  0  0  0  0  0  0  0  0  0
   36.5780   28.3660   41.5510 C   0  0  0  0  0  0  0  0  0  0  0  0
   37.2540   28.8070   42.7080 C   0  0  0  0  0  0  0  0  0  0  0  0
   38.1870   27.9450   43.2950 C   0  0  0  0  0  0  0  0  0  0  0  0
   38.3960   26.7110   42.7120 N   0  0  0  0  0  0  0  0  0  0  0  0
   37.7270   26.3380   41.6110 C   0  0  0  0  0  0  0  0  0  0  0  0
   36.8340   27.1330   41.0270 N   0  0  0  0  0  0  0  0  0  0  0  0
   36.2650   30.1050   39.9000 C   0  0  0  0  0  0  0  0  0  0  0  0
   36.5400   31.3510   40.4370 C   0  0  0  0  0  0  0  0  0  0  0  0
   37.1780   32.2820   39.6420 C   0  0  0  0  0  0  0  0  0  0  0  0
   37.5130   31.9260   38.3440 C   0  0  0  0  0  0  0  0  0  0  0  0
   37.2210   30.6610   37.8300 C   0  0  0  0  0  0  0  0  0  0  0  0
   36.5920   29.7660   38.6400 N   0  0  0  0  0  0  0  0  0  0  0  0
   34.8958   28.5251   40.2833 H   0  0  0  0  0  0  0  0  0  0  0  0
   34.9992   29.7694   41.5744 H   0  0  0  0  0  0  0  0  0  0  0  0
   37.0534   29.8001   43.1365 H   0  0  0  0  0  0  0  0  0  0  0  0
   38.7399   28.2430   44.1980 H   0  0  0  0  0  0  0  0  0  0  0  0
   37.9223   25.3458   41.1781 H   0  0  0  0  0  0  0  0  0  0  0  0
   36.2570   31.5933   41.4720 H   0  0  0  0  0  0  0  0  0  0  0  0
   37.4154   33.2838   40.0293 H   0  0  0  0  0  0  0  0  0  0  0  0
   38.0224   32.6599   37.7023 H   0  0  0  0  0  0  0  0  0  0  0  0
   37.4921   30.3947   36.7977 H   0  0  0  0  0  0  0  0  0  0  0  0
  1  2  1  0
  2  3  2  0
  3  4  1  0
  5  4  2  0
  6  5  1  0
  7  2  1  0
  7  6  2  0
  8  9  2  0
  8  1  1  0
 10  9  1  0
 11 10  2  0
 12 11  1  0
 12 13  2  0
 13  8  1  0
  1 14  1  0
  1 15  1  0
  3 16  1  0
  4 17  1  0
  6 18  1  0
  9 19  1  0
 10 20  1  0
 11 21  1  0
 12 22  1  0
M  ISO  8  14   8  15   8  16  14  17  14  18  14  19  14  20  14  21  14
M  ISO  1  22  14
M  END
>  <minimizedAffinity>  (1) 
-3.94133592

>  <minimizedRMSD>  (1) 
3.51236701

$$$$
