
     RDKit          3D

 20 21  0  0  0  0  0  0  0  0999 V2000
   36.8970   29.5780   41.7730 C   0  0  0  0  0  0  0  0  0  0  0  0
   38.1420   29.7760   42.3730 C   0  0  0  0  0  0  0  0  0  0  0  0
   38.7380   28.7050   43.0290 C   0  0  0  0  0  0  0  0  0  0  0  0
   38.0750   27.5050   43.0560 N   0  0  0  0  0  0  0  0  0  0  0  0
   36.8750   27.3660   42.4610 C   0  0  0  0  0  0  0  0  0  0  0  0
   36.2690   28.3780   41.8180 N   0  0  0  0  0  0  0  0  0  0  0  0
   36.1670   30.6480   41.0460 C   0  0  0  0  0  0  0  0  0  0  0  0
   36.6420   30.7900   39.6280 C   0  0  0  0  0  0  0  0  0  0  0  0
   37.3370   31.8840   39.0590 C   0  0  0  0  0  0  0  0  0  0  0  0
   37.6770   31.8000   37.7400 C   0  0  0  0  0  0  0  0  0  0  0  0
   37.3090   30.6110   37.0130 C   0  0  0  0  0  0  0  0  0  0  0  0
   36.4390   29.5840   38.3020 S   0  0  0  0  0  0  0  0  0  0  0  0
   38.6394   30.7561   42.3277 H   0  0  0  0  0  0  0  0  0  0  0  0
   39.7184   28.8175   43.5150 H   0  0  0  0  0  0  0  0  0  0  0  0
   36.3727   26.3883   42.5030 H   0  0  0  0  0  0  0  0  0  0  0  0
   35.0944   30.4041   41.0385 H   0  0  0  0  0  0  0  0  0  0  0  0
   36.3550   31.5999   41.5642 H   0  0  0  0  0  0  0  0  0  0  0  0
   37.5938   32.7699   39.6584 H   0  0  0  0  0  0  0  0  0  0  0  0
   38.2183   32.6192   37.2441 H   0  0  0  0  0  0  0  0  0  0  0  0
   37.4959   30.3691   35.9563 H   0  0  0  0  0  0  0  0  0  0  0  0
  1  6  1  0
  1  2  2  0
  2  3  1  0
  3  4  2  0
  5  4  1  0
  6  5  2  0
  7  1  1  0
  8  7  1  0
  9  8  2  0
 10  9  1  0
 11 10  2  0
 11 12  1  0
 12  8  1  0
  2 13  1  0
  3 14  1  0
  5 15  1  0
  7 16  1  0
  7 17  1  0
  9 18  1  0
 10 19  1  0
 11 20  1  0
M  ISO  8  13  14  14  14  15  14  16   8  17   8  18  14  19  14  20  14
M  END
>  <minimizedAffinity>  (1) 
-3.72109556

>  <minimizedRMSD>  (1) 
3.11312008

$$$$
