
     RDKit          3D

 38 40  0  0  1  0  0  0  0  0999 V2000
   40.0280   32.0710   41.0010 C   0  0  0  0  0  0  0  0  0  0  0  0
   39.6000   30.8180   41.5090 C   0  0  0  0  0  0  0  0  0  0  0  0
   38.2610   30.5160   41.4480 C   0  0  0  0  0  0  0  0  0  0  0  0
   37.3940   31.4240   40.9030 N   0  0  0  0  0  0  0  0  0  0  0  0
   37.8280   32.6120   40.4250 C   0  0  0  0  0  0  0  0  0  0  0  0
   39.1460   32.9410   40.4720 N   0  0  0  0  0  0  0  0  0  0  0  0
   36.8810   33.5190   39.8710 N   0  0  0  0  0  0  0  0  0  0  0  0
   37.7720   29.2810   41.9380 N   0  0  0  0  0  0  0  0  0  0  0  0
   37.9620   28.9130   43.3150 C   0  0  0  0  0  0  0  0  0  0  0  0
   36.8690   27.9040   43.6590 C   0  0  0  0  0  0  0  0  0  0  0  0
   36.8690   26.7560   42.8140 N   0  0  0  0  0  0  0  0  0  0  0  0
   37.3720   26.9510   41.4820 C   0  0  0  0  0  0  0  0  0  0  0  0
   37.0770   28.3750   41.0670 C   0  0  2  0  0  0  0  0  0  0  0  0
   37.3410   28.6730   39.6940 N   0  0  0  0  0  0  0  0  0  0  0  0
   36.4110   29.4980   39.0360 C   0  0  0  0  0  0  0  0  0  0  0  0
   37.1860   30.6120   38.3210 C   0  0  0  0  0  0  0  0  0  0  0  0
   38.5660   30.0310   38.2010 C   0  0  0  0  0  0  0  0  0  0  0  0
   38.6680   29.1290   39.4180 C   0  0  0  0  0  0  0  0  0  0  0  0
   41.0949   32.3361   41.0395 H   0  0  0  0  0  0  0  0  0  0  0  0
   40.3204   30.1073   41.9401 H   0  0  0  0  0  0  0  0  0  0  0  0
   35.8833   33.2652   39.8376 H   0  0  0  0  0  0  0  0  0  0  0  0
   37.1935   34.4291   39.5036 H   0  0  0  0  0  0  0  0  0  0  0  0
   38.9539   28.4575   43.4515 H   0  0  0  0  0  0  0  0  0  0  0  0
   37.9042   29.7949   43.9699 H   0  0  0  0  0  0  0  0  0  0  0  0
   37.0158   27.5721   44.6974 H   0  0  0  0  0  0  0  0  0  0  0  0
   35.9035   28.4113   43.5159 H   0  0  0  0  0  0  0  0  0  0  0  0
   37.4468   26.0328   43.2658 H   0  0  0  0  0  0  0  0  0  0  0  0
   38.4579   26.7760   41.4651 H   0  0  0  0  0  0  0  0  0  0  0  0
   36.8904   26.2464   40.7880 H   0  0  0  0  0  0  0  0  0  0  0  0
   35.9892   28.5039   41.1672 H   0  0  0  0  0  0  0  0  0  0  0  0
   35.8431   28.9080   38.3015 H   0  0  0  0  0  0  0  0  0  0  0  0
   35.7041   29.9292   39.7601 H   0  0  0  0  0  0  0  0  0  0  0  0
   36.7563   30.8210   37.3302 H   0  0  0  0  0  0  0  0  0  0  0  0
   37.1623   31.5726   38.8564 H   0  0  0  0  0  0  0  0  0  0  0  0
   38.6713   29.4528   37.2712 H   0  0  0  0  0  0  0  0  0  0  0  0
   39.3552   30.7964   38.1632 H   0  0  0  0  0  0  0  0  0  0  0  0
   39.3272   28.2747   39.2044 H   0  0  0  0  0  0  0  0  0  0  0  0
   39.0924   29.6666   40.2788 H   0  0  0  0  0  0  0  0  0  0  0  0
  1  2  2  0
  3  2  1  0
  3  8  1  0
  4  3  2  0
  5  6  2  0
  5  4  1  0
  6  1  1  0
  7  5  1  0
  8  9  1  0
  9 10  1  0
 11 10  1  0
 12 11  1  0
 13 12  1  0
 13  8  1  0
 14 15  1  0
 14 13  1  0
 16 15  1  0
 17 16  1  0
 17 18  1  0
 18 14  1  0
  1 19  1  0
  2 20  1  0
  7 21  1  0
  7 22  1  0
  9 23  1  0
  9 24  1  0
 10 25  1  0
 10 26  1  0
 11 27  1  0
 12 28  1  0
 12 29  1  0
 13 30  1  6
 15 31  1  0
 15 32  1  0
 16 33  1  0
 16 34  1  0
 17 35  1  0
 17 36  1  0
 18 37  1  0
 18 38  1  0
M  ISO  8  19  14  20  14  23  13  24  13  25  13  26  13  27   5  28  13
M  ISO  8  29  13  30  13  31  13  32  13  33  13  34  13  35  13  36  13
M  ISO  2  37  13  38  13
M  END
>  <minimizedAffinity>  (1) 
-5.22220278

>  <minimizedRMSD>  (1) 
0.467804343

$$$$
