
     RDKit          3D

 20 21  0  0  0  0  0  0  0  0999 V2000
   36.9760   29.6670   41.7540 C   0  0  0  0  0  0  0  0  0  0  0  0
   38.2550   29.8470   42.2760 C   0  0  0  0  0  0  0  0  0  0  0  0
   38.8880   28.7480   42.8700 C   0  0  0  0  0  0  0  0  0  0  0  0
   38.2120   27.5450   42.9080 N   0  0  0  0  0  0  0  0  0  0  0  0
   36.9780   27.4260   42.3890 C   0  0  0  0  0  0  0  0  0  0  0  0
   36.3570   28.4550   41.8190 N   0  0  0  0  0  0  0  0  0  0  0  0
   36.1970   30.7490   41.0980 C   0  0  0  0  0  0  0  0  0  0  0  0
   36.6760   30.9720   39.7540 N   0  0  0  0  0  0  0  0  0  0  0  0
   36.7410   30.1410   38.6760 C   0  0  0  0  0  0  0  0  0  0  0  0
   37.2820   30.8070   37.5900 C   0  0  0  0  0  0  0  0  0  0  0  0
   37.5470   32.0620   38.0290 N   0  0  0  0  0  0  0  0  0  0  0  0
   37.1820   32.1550   39.3240 C   0  0  0  0  0  0  0  0  0  0  0  0
   38.7542   30.8258   42.2231 H   0  0  0  0  0  0  0  0  0  0  0  0
   39.8981   28.8410   43.2954 H   0  0  0  0  0  0  0  0  0  0  0  0
   36.4683   26.4524   42.4368 H   0  0  0  0  0  0  0  0  0  0  0  0
   35.1362   30.4604   41.0612 H   0  0  0  0  0  0  0  0  0  0  0  0
   36.3172   31.6762   41.6775 H   0  0  0  0  0  0  0  0  0  0  0  0
   36.4109   29.0917   38.6698 H   0  0  0  0  0  0  0  0  0  0  0  0
   37.4596   30.4029   36.5824 H   0  0  0  0  0  0  0  0  0  0  0  0
   37.2804   33.0595   39.9423 H   0  0  0  0  0  0  0  0  0  0  0  0
  1  6  1  0
  1  2  2  0
  2  3  1  0
  3  4  2  0
  5  4  1  0
  6  5  2  0
  7  1  1  0
  8  7  1  0
  9  8  1  0
 10 11  1  0
 10  9  2  0
 11 12  2  0
 12  8  1  0
  2 13  1  0
  3 14  1  0
  5 15  1  0
  7 16  1  0
  7 17  1  0
  9 18  1  0
 10 19  1  0
 12 20  1  0
M  ISO  8  13  14  14  14  15  14  16   8  17   8  18  14  19  14  20  14
M  END
>  <minimizedAffinity>  (1) 
-3.48431206

>  <minimizedRMSD>  (1) 
3.12433243

$$$$
