
     RDKit          3D

 20 21  0  0  0  0  0  0  0  0999 V2000
   37.3940   29.1480   42.2110 C   0  0  0  0  0  0  0  0  0  0  0  0
   36.3990   28.3040   41.7160 C   0  0  0  0  0  0  0  0  0  0  0  0
   35.5140   28.8040   40.7700 C   0  0  0  0  0  0  0  0  0  0  0  0
   35.6490   30.1010   40.3560 N   0  0  0  0  0  0  0  0  0  0  0  0
   36.6290   30.8930   40.8590 C   0  0  0  0  0  0  0  0  0  0  0  0
   37.4970   30.4370   41.7730 N   0  0  0  0  0  0  0  0  0  0  0  0
   38.3880   28.7260   43.2170 C   0  0  0  0  0  0  0  0  0  0  0  0
   38.5530   27.2540   43.3640 C   0  0  0  0  0  0  0  0  0  0  0  0
   39.5570   26.5920   42.5080 C   0  0  0  0  0  0  0  0  0  0  0  0
   39.7120   26.6080   43.9940 C   0  0  0  0  0  0  0  0  0  0  0  0
   36.3175   27.2649   42.0677 H   0  0  0  0  0  0  0  0  0  0  0  0
   34.7166   28.1670   40.3597 H   0  0  0  0  0  0  0  0  0  0  0  0
   36.7131   31.9324   40.5090 H   0  0  0  0  0  0  0  0  0  0  0  0
   39.3619   29.1512   42.9328 H   0  0  0  0  0  0  0  0  0  0  0  0
   38.0163   29.0905   44.1860 H   0  0  0  0  0  0  0  0  0  0  0  0
   37.4740   27.1740   43.5624 H   0  0  0  0  0  0  0  0  0  0  0  0
   39.3080   25.6546   41.9890 H   0  0  0  0  0  0  0  0  0  0  0  0
   40.1791   26.8966   41.6535 H   0  0  0  0  0  0  0  0  0  0  0  0
   40.4985   27.2205   44.4591 H   0  0  0  0  0  0  0  0  0  0  0  0
   39.8501   25.8421   44.7714 H   0  0  0  0  0  0  0  0  0  0  0  0
  1  7  1  0
  2  1  2  0
  3  2  1  0
  4  3  2  0
  4  5  1  0
  5  6  2  0
  6  1  1  0
  7  8  1  0
  8 10  1  0
  9  8  1  0
  9 10  1  0
  2 11  1  0
  3 12  1  0
  5 13  1  0
  7 14  1  0
  7 15  1  0
  8 16  1  0
  9 17  1  0
  9 18  1  0
 10 19  1  0
 10 20  1  0
M  ISO  8  11  14  12  14  13  14  14   8  15   8  16  13  17  13  18  13
M  ISO  2  19  13  20  13
M  END
>  <minimizedAffinity>  (1) 
-3.48155069

>  <minimizedRMSD>  (1) 
4.62801409

$$$$
