
     RDKit          3D

 14 14  0  0  0  0  0  0  0  0999 V2000
   36.8740   29.2260   41.4770 C   0  0  0  0  0  0  0  0  0  0  0  0
   37.6650   30.2640   40.9750 C   0  0  0  0  0  0  0  0  0  0  0  0
   38.7870   30.6480   41.7030 C   0  0  0  0  0  0  0  0  0  0  0  0
   39.0570   29.9800   42.8860 N   0  0  0  0  0  0  0  0  0  0  0  0
   38.2670   28.9880   43.3290 C   0  0  0  0  0  0  0  0  0  0  0  0
   37.1890   28.6020   42.6510 N   0  0  0  0  0  0  0  0  0  0  0  0
   35.6600   28.7340   40.7910 C   0  0  0  0  0  0  0  0  0  0  0  0
   34.6780   29.7000   40.6490 O   0  0  0  0  0  0  0  0  0  0  0  0
   37.4072   30.7638   40.0296 H   0  0  0  0  0  0  0  0  0  0  0  0
   39.4408   31.4588   41.3492 H   0  0  0  0  0  0  0  0  0  0  0  0
   38.5169   28.4832   44.2738 H   0  0  0  0  0  0  0  0  0  0  0  0
   35.9455   28.3775   39.7903 H   0  0  0  0  0  0  0  0  0  0  0  0
   35.2380   27.9316   41.4140 H   0  0  0  0  0  0  0  0  0  0  0  0
   34.3758   29.9973   41.5436 H   0  0  0  0  0  0  0  0  0  0  0  0
  1  6  2  0
  2  1  1  0
  2  3  2  0
  3  4  1  0
  4  5  2  0
  6  5  1  0
  7  1  1  0
  8  7  1  0
  2  9  1  0
  3 10  1  0
  5 11  1  0
  7 12  1  0
  7 13  1  0
  8 14  1  0
M  ISO  6   9  14  10  14  11  14  12   8  13   8  14   3
M  END
>  <minimizedAffinity>  (1) 
-2.63765979

>  <minimizedRMSD>  (1) 
0.287268519

$$$$
