
     RDKit          3D

 15 15  0  0  0  0  0  0  0  0999 V2000
   36.7280   29.3270   41.4430 C   0  0  0  0  0  0  0  0  0  0  0  0
   37.5780   30.3430   41.0100 C   0  0  0  0  0  0  0  0  0  0  0  0
   38.7240   30.6170   41.7710 C   0  0  0  0  0  0  0  0  0  0  0  0
   38.9500   29.8750   42.9020 N   0  0  0  0  0  0  0  0  0  0  0  0
   38.0880   28.8980   43.2780 C   0  0  0  0  0  0  0  0  0  0  0  0
   36.9960   28.6240   42.5650 N   0  0  0  0  0  0  0  0  0  0  0  0
   35.4880   28.9420   40.7270 C   0  0  0  0  0  0  0  0  0  0  0  0
   35.8270   28.1150   39.5800 N   0  0  0  0  0  0  0  0  0  0  0  0
   37.3563   30.9144   40.0965 H   0  0  0  0  0  0  0  0  0  0  0  0
   39.4251   31.4085   41.4677 H   0  0  0  0  0  0  0  0  0  0  0  0
   38.2945   28.3196   44.1906 H   0  0  0  0  0  0  0  0  0  0  0  0
   34.8332   28.3763   41.4061 H   0  0  0  0  0  0  0  0  0  0  0  0
   34.9664   29.8478   40.3843 H   0  0  0  0  0  0  0  0  0  0  0  0
   36.1976   27.2110   39.9061 H   0  0  0  0  0  0  0  0  0  0  0  0
   34.9836   27.9551   39.0107 H   0  0  0  0  0  0  0  0  0  0  0  0
  1  6  2  0
  2  1  1  0
  2  3  2  0
  3  4  1  0
  4  5  2  0
  6  5  1  0
  7  1  1  0
  8  7  1  0
  2  9  1  0
  3 10  1  0
  5 11  1  0
  7 12  1  0
  7 13  1  0
  8 14  1  0
  8 15  1  0
M  ISO  7   9  14  10  14  11  14  12   8  13   8  14   5  15   5
M  END
>  <minimizedAffinity>  (1) 
-2.34141445

>  <minimizedRMSD>  (1) 
0.0930011496

$$$$
