
     RDKit          3D

 31 33  0  0  1  0  0  0  0  0999 V2000
   39.8680   32.4130   41.3970 C   0  0  0  0  0  0  0  0  0  0  0  0
   39.4550   31.0790   41.6480 C   0  0  0  0  0  0  0  0  0  0  0  0
   38.2050   30.6750   41.2190 C   0  0  0  0  0  0  0  0  0  0  0  0
   37.4330   31.5820   40.5760 N   0  0  0  0  0  0  0  0  0  0  0  0
   37.8420   32.8460   40.3470 C   0  0  0  0  0  0  0  0  0  0  0  0
   39.0530   33.2640   40.7530 N   0  0  0  0  0  0  0  0  0  0  0  0
   36.9480   33.7340   39.6570 N   0  0  0  0  0  0  0  0  0  0  0  0
   37.7520   29.3580   41.4460 N   0  0  0  0  0  0  0  0  0  0  0  0
   37.6070   28.8650   42.7910 C   0  0  0  0  0  0  0  0  0  0  0  0
   36.6310   27.7000   42.7300 C   0  0  0  0  0  0  0  0  0  0  0  0
   37.0190   26.6600   41.8390 N   0  0  0  0  0  0  0  0  0  0  0  0
   37.7410   27.0700   40.6850 C   0  0  0  0  0  0  0  0  0  0  0  0
   37.4360   28.5070   40.3170 C   0  0  1  0  0  0  0  0  0  0  0  0
   36.0870   28.6880   39.7740 C   0  0  0  0  0  0  0  0  0  0  0  0
   35.0490   29.0860   40.5330 N   0  0  0  0  0  0  0  0  0  0  0  0
   33.9750   29.1620   39.7950 O   0  0  0  0  0  0  0  0  0  0  0  0
   34.2640   28.8260   38.5540 C   0  0  0  0  0  0  0  0  0  0  0  0
   35.5890   28.5300   38.5500 N   0  0  0  0  0  0  0  0  0  0  0  0
   40.8598   32.7515   41.7313 H   0  0  0  0  0  0  0  0  0  0  0  0
   40.1188   30.3780   42.1753 H   0  0  0  0  0  0  0  0  0  0  0  0
   37.2320   34.7057   39.4673 H   0  0  0  0  0  0  0  0  0  0  0  0
   36.0230   33.3989   39.3520 H   0  0  0  0  0  0  0  0  0  0  0  0
   38.5794   28.5244   43.1762 H   0  0  0  0  0  0  0  0  0  0  0  0
   37.2378   29.6541   43.4626 H   0  0  0  0  0  0  0  0  0  0  0  0
   36.5398   27.2731   43.7397 H   0  0  0  0  0  0  0  0  0  0  0  0
   35.6806   28.1033   42.3504 H   0  0  0  0  0  0  0  0  0  0  0  0
   37.6102   25.9992   42.3632 H   0  0  0  0  0  0  0  0  0  0  0  0
   38.8183   26.9739   40.8853 H   0  0  0  0  0  0  0  0  0  0  0  0
   37.4385   26.4283   39.8443 H   0  0  0  0  0  0  0  0  0  0  0  0
   38.0800   28.8128   39.4793 H   0  0  0  0  0  0  0  0  0  0  0  0
   33.5741   28.7923   37.6979 H   0  0  0  0  0  0  0  0  0  0  0  0
  1  2  2  0
  3  8  1  0
  3  2  1  0
  4  3  2  0
  5  4  1  0
  5  6  2  0
  6  1  1  0
  7  5  1  0
  8  9  1  0
 10  9  1  0
 11 10  1  0
 12 11  1  0
 13 12  1  0
 13  8  1  0
 14 13  1  0
 14 15  2  0
 16 15  1  0
 17 16  1  0
 18 17  2  0
 18 14  1  0
  1 19  1  0
  2 20  1  0
  7 21  1  0
  7 22  1  0
  9 23  1  0
  9 24  1  0
 10 25  1  0
 10 26  1  0
 11 27  1  0
 12 28  1  0
 12 29  1  0
 13 30  1  6
 17 31  1  0
M  ISO  8  19  14  20  14  23  13  24  13  25  13  26  13  27   5  28  13
M  ISO  3  29  13  30  13  31  14
M  END
>  <minimizedAffinity>  (1) 
-5.15836239

>  <minimizedRMSD>  (1) 
0.821690023

$$$$
