
     RDKit          3D

 33 35  0  0  0  0  0  0  0  0999 V2000
   36.1370   29.7430   39.8250 N   0  0  0  0  0  0  0  0  0  0  0  0
   36.1040   29.3020   38.5370 C   0  0  0  0  0  0  0  0  0  0  0  0
   36.6890   29.9950   37.5060 C   0  0  0  0  0  0  0  0  0  0  0  0
   37.3390   31.1890   37.7800 C   0  0  0  0  0  0  0  0  0  0  0  0
   37.8900   31.8570   36.8740 O   0  0  0  0  0  0  0  0  0  0  0  0
   37.3580   31.6030   39.0590 N   0  0  0  0  0  0  0  0  0  0  0  0
   36.7770   30.9120   40.0710 C   0  0  0  0  0  0  0  0  0  0  0  0
   36.7730   31.2610   41.2730 O   0  0  0  0  0  0  0  0  0  0  0  0
   37.9990   32.8160   39.4480 C   0  0  0  0  0  0  0  0  0  0  0  0
   37.4470   34.0760   39.5710 C   0  0  0  0  0  0  0  0  0  0  0  0
   38.2470   35.1300   39.9650 C   0  0  0  0  0  0  0  0  0  0  0  0
   39.5930   34.9480   40.2410 C   0  0  0  0  0  0  0  0  0  0  0  0
   40.1500   33.6750   40.1160 C   0  0  0  0  0  0  0  0  0  0  0  0
   39.3560   32.5960   39.7180 C   0  0  0  0  0  0  0  0  0  0  0  0
   35.4820   28.8930   40.7950 C   0  0  0  0  0  0  0  0  0  0  0  0
   36.4370   27.9770   41.4390 C   0  0  0  0  0  0  0  0  0  0  0  0
   36.9720   28.1960   42.6890 C   0  0  0  0  0  0  0  0  0  0  0  0
   37.8660   27.2820   43.2240 C   0  0  0  0  0  0  0  0  0  0  0  0
   38.1920   26.1720   42.4770 N   0  0  0  0  0  0  0  0  0  0  0  0
   37.6470   25.9900   41.2540 C   0  0  0  0  0  0  0  0  0  0  0  0
   36.7950   26.8670   40.7500 N   0  0  0  0  0  0  0  0  0  0  0  0
   35.5896   28.3555   38.3143 H   0  0  0  0  0  0  0  0  0  0  0  0
   36.6427   29.6085   36.4772 H   0  0  0  0  0  0  0  0  0  0  0  0
   36.3803   34.2382   39.3571 H   0  0  0  0  0  0  0  0  0  0  0  0
   37.8076   36.1338   40.0618 H   0  0  0  0  0  0  0  0  0  0  0  0
   40.2157   35.7985   40.5554 H   0  0  0  0  0  0  0  0  0  0  0  0
   41.2175   33.5201   40.3314 H   0  0  0  0  0  0  0  0  0  0  0  0
   39.7896   31.5900   39.6183 H   0  0  0  0  0  0  0  0  0  0  0  0
   35.0156   29.5237   41.5662 H   0  0  0  0  0  0  0  0  0  0  0  0
   34.7245   28.2910   40.2718 H   0  0  0  0  0  0  0  0  0  0  0  0
   36.6909   29.0928   43.2605 H   0  0  0  0  0  0  0  0  0  0  0  0
   38.3043   27.4393   44.2206 H   0  0  0  0  0  0  0  0  0  0  0  0
   37.9162   25.0985   40.6685 H   0  0  0  0  0  0  0  0  0  0  0  0
  1  7  1  0
  1 15  1  0
  2  1  1  0
  3  4  1  0
  3  2  2  0
  4  6  1  0
  5  4  2  0
  6  9  1  0
  6  7  1  0
  7  8  2  0
  9 10  2  0
  9 14  1  0
 10 11  1  0
 11 12  2  0
 13 12  1  0
 14 13  2  0
 15 16  1  0
 16 17  2  0
 17 18  1  0
 19 18  2  0
 20 19  1  0
 21 20  2  0
 21 16  1  0
  2 22  1  0
  3 23  1  0
 10 24  1  0
 11 25  1  0
 12 26  1  0
 13 27  1  0
 14 28  1  0
 15 29  1  0
 15 30  1  0
 17 31  1  0
 18 32  1  0
 20 33  1  0
M  ISO  8  22  14  23  14  24  14  25  14  26  14  27  14  28  14  29   8
M  ISO  4  30   8  31  14  32  14  33  14
M  END
>  <minimizedAffinity>  (1) 
-5.4417944

>  <minimizedRMSD>  (1) 
2.56379414

$$$$
