
     RDKit          3D

 34 36  0  0  1  0  0  0  0  0999 V2000
   40.0420   32.1100   41.0790 C   0  0  0  0  0  0  0  0  0  0  0  0
   39.6320   30.8460   41.5800 C   0  0  0  0  0  0  0  0  0  0  0  0
   38.2850   30.5250   41.4740 C   0  0  0  0  0  0  0  0  0  0  0  0
   37.3990   31.4040   40.9060 N   0  0  0  0  0  0  0  0  0  0  0  0
   37.8470   32.6060   40.4410 C   0  0  0  0  0  0  0  0  0  0  0  0
   39.1550   32.9590   40.5260 N   0  0  0  0  0  0  0  0  0  0  0  0
   36.8850   33.4840   39.8590 N   0  0  0  0  0  0  0  0  0  0  0  0
   37.8170   29.2760   41.9580 N   0  0  0  0  0  0  0  0  0  0  0  0
   37.9290   28.9320   43.3380 C   0  0  0  0  0  0  0  0  0  0  0  0
   36.8750   27.8650   43.6250 C   0  0  0  0  0  0  0  0  0  0  0  0
   36.9660   26.7110   42.7980 N   0  0  0  0  0  0  0  0  0  0  0  0
   37.4960   26.9210   41.4800 C   0  0  0  0  0  0  0  0  0  0  0  0
   37.2190   28.3370   41.0440 C   0  0  2  0  0  0  0  0  0  0  0  0
   37.9190   28.5330   39.7430 C   0  0  0  0  0  0  0  0  0  0  0  0
   39.2150   28.1380   39.4940 C   0  0  0  0  0  0  0  0  0  0  0  0
   39.7830   28.3620   38.2560 C   0  0  0  0  0  0  0  0  0  0  0  0
   39.0910   28.9680   37.2590 N   0  0  0  0  0  0  0  0  0  0  0  0
   37.8190   29.3480   37.5260 C   0  0  0  0  0  0  0  0  0  0  0  0
   37.2320   29.1430   38.7330 N   0  0  0  0  0  0  0  0  0  0  0  0
   41.1011   32.4002   41.1437 H   0  0  0  0  0  0  0  0  0  0  0  0
   40.3523   30.1493   42.0337 H   0  0  0  0  0  0  0  0  0  0  0  0
   35.8965   33.2002   39.8025 H   0  0  0  0  0  0  0  0  0  0  0  0
   37.1789   34.4017   39.4953 H   0  0  0  0  0  0  0  0  0  0  0  0
   38.9334   28.5352   43.5471 H   0  0  0  0  0  0  0  0  0  0  0  0
   37.7731   29.8156   43.9743 H   0  0  0  0  0  0  0  0  0  0  0  0
   36.9838   27.5470   44.6724 H   0  0  0  0  0  0  0  0  0  0  0  0
   35.8979   28.3248   43.4155 H   0  0  0  0  0  0  0  0  0  0  0  0
   37.5710   26.0279   43.2757 H   0  0  0  0  0  0  0  0  0  0  0  0
   38.5821   26.7467   41.4900 H   0  0  0  0  0  0  0  0  0  0  0  0
   37.0177   26.2221   40.7780 H   0  0  0  0  0  0  0  0  0  0  0  0
   36.1317   28.4957   40.9923 H   0  0  0  0  0  0  0  0  0  0  0  0
   39.7988   27.6427   40.2838 H   0  0  0  0  0  0  0  0  0  0  0  0
   40.8196   28.0421   38.0739 H   0  0  0  0  0  0  0  0  0  0  0  0
   37.2382   29.8425   36.7335 H   0  0  0  0  0  0  0  0  0  0  0  0
  1  2  2  0
  3  2  1  0
  3  8  1  0
  4  3  2  0
  5  6  2  0
  5  4  1  0
  6  1  1  0
  7  5  1  0
  8  9  1  0
  9 10  1  0
 11 10  1  0
 12 11  1  0
 13 12  1  0
 13  8  1  0
 14 13  1  0
 15 14  2  0
 16 15  1  0
 17 18  1  0
 17 16  2  0
 18 19  2  0
 19 14  1  0
  1 20  1  0
  2 21  1  0
  7 22  1  0
  7 23  1  0
  9 24  1  0
  9 25  1  0
 10 26  1  0
 10 27  1  0
 11 28  1  0
 12 29  1  0
 12 30  1  0
 13 31  1  6
 15 32  1  0
 16 33  1  0
 18 34  1  0
M  ISO  8  20  14  21  14  24  13  25  13  26  13  27  13  28   5  29  13
M  ISO  5  30  13  31  13  32  14  33  14  34  14
M  END
>  <minimizedAffinity>  (1) 
-5.11865997

>  <minimizedRMSD>  (1) 
0.602196515

$$$$
