
     RDKit          3D

 32 33  0  0  0  0  0  0  0  0999 V2000
   37.7900   31.1890   41.1260 N   0  0  0  0  0  0  0  0  0  0  0  0
   39.0070   31.2490   41.7130 C   0  0  0  0  0  0  0  0  0  0  0  0
   39.4890   30.2120   42.5070 C   0  0  0  0  0  0  0  0  0  0  0  0
   38.7170   29.0920   42.7050 C   0  0  0  0  0  0  0  0  0  0  0  0
   39.1310   28.1510   43.4110 O   0  0  0  0  0  0  0  0  0  0  0  0
   37.5210   29.0680   42.1090 N   0  0  0  0  0  0  0  0  0  0  0  0
   37.0450   30.0740   41.3360 C   0  0  0  0  0  0  0  0  0  0  0  0
   35.9320   30.0730   40.7710 O   0  0  0  0  0  0  0  0  0  0  0  0
   37.4120   32.3330   40.3240 C   0  0  0  0  0  0  0  0  0  0  0  0
   38.5710   33.2030   40.0570 C   0  0  0  0  0  0  0  0  0  0  0  0
   39.6400   32.8090   39.2760 C   0  0  0  0  0  0  0  0  0  0  0  0
   40.7030   33.6810   39.0640 C   0  0  0  0  0  0  0  0  0  0  0  0
   40.6450   34.9180   39.6510 N   0  0  0  0  0  0  0  0  0  0  0  0
   39.5840   35.2710   40.4110 C   0  0  0  0  0  0  0  0  0  0  0  0
   38.5700   34.4440   40.6150 N   0  0  0  0  0  0  0  0  0  0  0  0
   36.6290   27.9330   42.2550 C   0  0  0  0  0  0  0  0  0  0  0  0
   36.4530   27.5560   43.7190 C   0  0  0  0  0  0  0  0  0  0  0  0
   37.1130   26.7140   41.5000 C   0  0  0  0  0  0  0  0  0  0  0  0
   39.6324   32.1407   41.5590 H   0  0  0  0  0  0  0  0  0  0  0  0
   40.4823   30.2885   42.9734 H   0  0  0  0  0  0  0  0  0  0  0  0
   37.0003   31.9800   39.3670 H   0  0  0  0  0  0  0  0  0  0  0  0
   36.6606   32.9142   40.8786 H   0  0  0  0  0  0  0  0  0  0  0  0
   39.6508   31.8070   38.8223 H   0  0  0  0  0  0  0  0  0  0  0  0
   41.5631   33.3868   38.4446 H   0  0  0  0  0  0  0  0  0  0  0  0
   39.5625   36.2698   40.8713 H   0  0  0  0  0  0  0  0  0  0  0  0
   35.6662   28.2515   41.8289 H   0  0  0  0  0  0  0  0  0  0  0  0
   36.8326   28.3691   44.3552 H   0  0  0  0  0  0  0  0  0  0  0  0
   35.3858   27.3931   43.9299 H   0  0  0  0  0  0  0  0  0  0  0  0
   37.0134   26.6333   43.9299 H   0  0  0  0  0  0  0  0  0  0  0  0
   37.4212   25.9378   42.2159 H   0  0  0  0  0  0  0  0  0  0  0  0
   36.3000   26.3277   40.8677 H   0  0  0  0  0  0  0  0  0  0  0  0
   37.9696   26.9905   40.8677 H   0  0  0  0  0  0  0  0  0  0  0  0
  1  7  1  0
  1  2  1  0
  2  3  2  0
  3  4  1  0
  4  5  2  0
  6 16  1  0
  6  4  1  0
  7  6  1  0
  8  7  2  0
  9  1  1  0
 10  9  1  0
 10 15  1  0
 11 10  2  0
 12 11  1  0
 12 13  2  0
 13 14  1  0
 14 15  2  0
 16 17  1  0
 18 16  1  0
  2 19  1  0
  3 20  1  0
  9 21  1  0
  9 22  1  0
 11 23  1  0
 12 24  1  0
 14 25  1  0
 16 26  1  0
 17 27  1  0
 17 28  1  0
 17 29  1  0
 18 30  1  0
 18 31  1  0
 18 32  1  0
M  ISO  8  19  14  20  14  21   8  22   8  23  14  24  14  25  14  26   8
M  ISO  6  27   8  28   8  29   8  30   8  31   8  32   8
M  END
>  <minimizedAffinity>  (1) 
-5.22310591

>  <minimizedRMSD>  (1) 
6.14226389

$$$$
