
     RDKit          3D

 33 35  0  0  1  0  0  0  0  0999 V2000
   39.6970   32.6770   41.3480 C   0  0  0  0  0  0  0  0  0  0  0  0
   39.3440   31.3350   41.6320 C   0  0  0  0  0  0  0  0  0  0  0  0
   38.1930   30.8260   41.0860 C   0  0  0  0  0  0  0  0  0  0  0  0
   37.4680   31.6530   40.3070 N   0  0  0  0  0  0  0  0  0  0  0  0
   37.8000   32.9250   40.0380 C   0  0  0  0  0  0  0  0  0  0  0  0
   38.9280   33.4430   40.5640 N   0  0  0  0  0  0  0  0  0  0  0  0
   36.9500   33.7120   39.1960 N   0  0  0  0  0  0  0  0  0  0  0  0
   37.7750   29.4900   41.3220 N   0  0  0  0  0  0  0  0  0  0  0  0
   37.5000   29.0580   42.6650 C   0  0  0  0  0  0  0  0  0  0  0  0
   36.6050   27.8340   42.5520 C   0  0  0  0  0  0  0  0  0  0  0  0
   37.1840   26.7740   41.7750 N   0  0  0  0  0  0  0  0  0  0  0  0
   38.0070   27.1800   40.6890 C   0  0  0  0  0  0  0  0  0  0  0  0
   37.6350   28.5800   40.2270 C   0  0  1  0  0  0  0  0  0  0  0  0
   36.3320   28.6520   39.6490 C   0  0  0  0  0  0  0  0  0  0  0  0
   35.2020   29.2180   40.1210 C   0  0  0  0  0  0  0  0  0  0  0  0
   34.0010   29.2320   39.4650 C   0  0  0  0  0  0  0  0  0  0  0  0
   34.0260   28.5840   38.2000 C   0  0  0  0  0  0  0  0  0  0  0  0
   35.7400   27.9880   38.0030 S   0  0  0  0  0  0  0  0  0  0  0  0
   40.6181   33.0968   41.7786 H   0  0  0  0  0  0  0  0  0  0  0  0
   39.9807   30.7127   42.2781 H   0  0  0  0  0  0  0  0  0  0  0  0
   37.1970   34.6893   38.9842 H   0  0  0  0  0  0  0  0  0  0  0  0
   36.0917   33.3008   38.8022 H   0  0  0  0  0  0  0  0  0  0  0  0
   38.4368   28.7972   43.1793 H   0  0  0  0  0  0  0  0  0  0  0  0
   37.0121   29.8543   43.2462 H   0  0  0  0  0  0  0  0  0  0  0  0
   36.4039   27.4543   43.5646 H   0  0  0  0  0  0  0  0  0  0  0  0
   35.6861   28.1500   42.0365 H   0  0  0  0  0  0  0  0  0  0  0  0
   37.7568   26.1960   42.4065 H   0  0  0  0  0  0  0  0  0  0  0  0
   39.0588   27.1735   41.0109 H   0  0  0  0  0  0  0  0  0  0  0  0
   37.8595   26.4807   39.8528 H   0  0  0  0  0  0  0  0  0  0  0  0
   38.3273   28.8643   39.4208 H   0  0  0  0  0  0  0  0  0  0  0  0
   35.2495   29.7044   41.1065 H   0  0  0  0  0  0  0  0  0  0  0  0
   33.0972   29.7026   39.8795 H   0  0  0  0  0  0  0  0  0  0  0  0
   33.1921   28.4670   37.4923 H   0  0  0  0  0  0  0  0  0  0  0  0
  1  2  2  0
  3  8  1  0
  3  2  1  0
  4  3  2  0
  5  4  1  0
  5  6  2  0
  6  1  1  0
  7  5  1  0
  8  9  1  0
 10  9  1  0
 11 10  1  0
 12 11  1  0
 13 12  1  0
 13  8  1  0
 14 15  2  0
 14 13  1  0
 16 15  1  0
 17 16  2  0
 18 17  1  0
 18 14  1  0
  1 19  1  0
  2 20  1  0
  7 21  1  0
  7 22  1  0
  9 23  1  0
  9 24  1  0
 10 25  1  0
 10 26  1  0
 11 27  1  0
 12 28  1  0
 12 29  1  0
 13 30  1  6
 15 31  1  0
 16 32  1  0
 17 33  1  0
M  ISO  8  19  14  20  14  23  13  24  13  25  13  26  13  27   5  28  13
M  ISO  5  29  13  30  13  31  14  32  14  33  14
M  END
>  <minimizedAffinity>  (1) 
-5.03646135

>  <minimizedRMSD>  (1) 
1.21626735

$$$$
