
     RDKit          3D

 33 35  0  0  1  0  0  0  0  0999 V2000
   40.0430   32.1030   41.0530 C   0  0  0  0  0  0  0  0  0  0  0  0
   39.6210   30.8390   41.5460 C   0  0  0  0  0  0  0  0  0  0  0  0
   38.2830   30.5430   41.4530 C   0  0  0  0  0  0  0  0  0  0  0  0
   37.4470   31.4550   40.9070 N   0  0  0  0  0  0  0  0  0  0  0  0
   37.8700   32.6510   40.4460 C   0  0  0  0  0  0  0  0  0  0  0  0
   39.1700   32.9730   40.5200 N   0  0  0  0  0  0  0  0  0  0  0  0
   36.9220   33.5630   39.8810 N   0  0  0  0  0  0  0  0  0  0  0  0
   37.7530   29.3070   41.9150 N   0  0  0  0  0  0  0  0  0  0  0  0
   37.9020   28.9420   43.3000 C   0  0  0  0  0  0  0  0  0  0  0  0
   36.8630   27.8600   43.5830 C   0  0  0  0  0  0  0  0  0  0  0  0
   36.9940   26.7100   42.7460 N   0  0  0  0  0  0  0  0  0  0  0  0
   37.4320   26.9760   41.4130 C   0  0  0  0  0  0  0  0  0  0  0  0
   37.0700   28.4070   41.0350 C   0  0  2  0  0  0  0  0  0  0  0  0
   37.1640   28.6850   39.6480 N   0  0  0  0  0  0  0  0  0  0  0  0
   36.1860   29.1470   38.8330 C   0  0  0  0  0  0  0  0  0  0  0  0
   36.6560   29.2940   37.5440 C   0  0  0  0  0  0  0  0  0  0  0  0
   37.9370   28.9190   37.5690 N   0  0  0  0  0  0  0  0  0  0  0  0
   38.2290   28.5560   38.8360 C   0  0  0  0  0  0  0  0  0  0  0  0
   41.1075   32.3746   41.1091 H   0  0  0  0  0  0  0  0  0  0  0  0
   40.3361   30.1271   41.9839 H   0  0  0  0  0  0  0  0  0  0  0  0
   35.9263   33.3046   39.8296 H   0  0  0  0  0  0  0  0  0  0  0  0
   37.2357   34.4776   39.5259 H   0  0  0  0  0  0  0  0  0  0  0  0
   38.9144   28.5524   43.4825 H   0  0  0  0  0  0  0  0  0  0  0  0
   37.7555   29.8124   43.9564 H   0  0  0  0  0  0  0  0  0  0  0  0
   36.9686   27.5417   44.6306 H   0  0  0  0  0  0  0  0  0  0  0  0
   35.8755   28.2986   43.3771 H   0  0  0  0  0  0  0  0  0  0  0  0
   37.6744   26.0727   43.1840 H   0  0  0  0  0  0  0  0  0  0  0  0
   38.5226   26.8456   41.3526 H   0  0  0  0  0  0  0  0  0  0  0  0
   36.9401   26.2781   40.7195 H   0  0  0  0  0  0  0  0  0  0  0  0
   35.9932   28.5651   41.1947 H   0  0  0  0  0  0  0  0  0  0  0  0
   35.1587   29.3738   39.1543 H   0  0  0  0  0  0  0  0  0  0  0  0
   36.0889   29.6490   36.6709 H   0  0  0  0  0  0  0  0  0  0  0  0
   39.2162   28.1987   39.1642 H   0  0  0  0  0  0  0  0  0  0  0  0
  1  2  2  0
  3  2  1  0
  3  8  1  0
  4  3  2  0
  5  6  2  0
  5  4  1  0
  6  1  1  0
  7  5  1  0
  8  9  1  0
  9 10  1  0
 11 10  1  0
 12 11  1  0
 13 12  1  0
 13  8  1  0
 14 13  1  0
 15 14  1  0
 16 17  1  0
 16 15  2  0
 17 18  2  0
 18 14  1  0
  1 19  1  0
  2 20  1  0
  7 21  1  0
  7 22  1  0
  9 23  1  0
  9 24  1  0
 10 25  1  0
 10 26  1  0
 11 27  1  0
 12 28  1  0
 12 29  1  0
 13 30  1  1
 15 31  1  0
 16 32  1  0
 18 33  1  0
M  ISO  8  19  14  20  14  23  13  24  13  25  13  26  13  27   5  28  13
M  ISO  5  29  13  30  13  31  14  32  14  33  14
M  END
>  <minimizedAffinity>  (1) 
-5.02280426

>  <minimizedRMSD>  (1) 
0.79798305

$$$$
