
     RDKit          3D

 39 41  0  0  0  0  0  0  0  0999 V2000
   38.7170   31.1390   41.2900 C   0  0  0  0  0  0  0  0  0  0  0  0
   39.7540   31.1950   42.1760 C   0  0  0  0  0  0  0  0  0  0  0  0
   40.2080   30.0370   42.8060 C   0  0  0  0  0  0  0  0  0  0  0  0
   39.5940   28.8550   42.5160 N   0  0  0  0  0  0  0  0  0  0  0  0
   38.5550   28.8350   41.6200 C   0  0  0  0  0  0  0  0  0  0  0  0
   38.1340   29.9380   41.0310 N   0  0  0  0  0  0  0  0  0  0  0  0
   38.0150   27.5350   41.4190 N   0  0  0  0  0  0  0  0  0  0  0  0
   37.9550   26.9850   40.1880 C   0  0  0  0  0  0  0  0  0  0  0  0
   37.4140   25.7030   40.0460 C   0  0  0  0  0  0  0  0  0  0  0  0
   37.3250   25.0490   38.7130 C   0  0  0  0  0  0  0  0  0  0  0  0
   36.9520   25.0280   41.1580 C   0  0  0  0  0  0  0  0  0  0  0  0
   36.4600   23.8640   41.0350 O   0  0  0  0  0  0  0  0  0  0  0  0
   37.0100   25.5730   42.3890 N   0  0  0  0  0  0  0  0  0  0  0  0
   37.5410   26.8040   42.4460 C   0  0  0  0  0  0  0  0  0  0  0  0
   37.6070   27.3420   43.5940 O   0  0  0  0  0  0  0  0  0  0  0  0
   38.1990   32.3140   40.6010 C   0  0  0  0  0  0  0  0  0  0  0  0
   39.2560   33.0800   39.9700 N   0  0  0  0  0  0  0  0  0  0  0  0
   40.0600   32.3830   39.1220 C   0  0  0  0  0  0  0  0  0  0  0  0
   41.1030   32.9720   38.4500 C   0  0  0  0  0  0  0  0  0  0  0  0
   41.3550   34.3200   38.6340 C   0  0  0  0  0  0  0  0  0  0  0  0
   42.2930   34.8880   38.0410 O   0  0  0  0  0  0  0  0  0  0  0  0
   40.5410   34.9730   39.4770 N   0  0  0  0  0  0  0  0  0  0  0  0
   39.5110   34.3990   40.1420 C   0  0  0  0  0  0  0  0  0  0  0  0
   38.7430   34.9930   40.9320 O   0  0  0  0  0  0  0  0  0  0  0  0
   40.7590   36.3910   39.7080 C   0  0  0  0  0  0  0  0  0  0  0  0
   39.4870   36.9430   39.8330 F   0  0  0  0  0  0  0  0  0  0  0  0
   41.4090   36.6550   40.8940 F   0  0  0  0  0  0  0  0  0  0  0  0
   41.3460   37.0260   38.6290 F   0  0  0  0  0  0  0  0  0  0  0  0
   40.2346   32.1601   42.3943 H   0  0  0  0  0  0  0  0  0  0  0  0
   41.0430   30.0763   43.5210 H   0  0  0  0  0  0  0  0  0  0  0  0
   38.3254   27.5358   39.3109 H   0  0  0  0  0  0  0  0  0  0  0  0
   37.1777   23.9669   38.8446 H   0  0  0  0  0  0  0  0  0  0  0  0
   36.4758   25.4693   38.1543 H   0  0  0  0  0  0  0  0  0  0  0  0
   38.2557   25.2271   38.1543 H   0  0  0  0  0  0  0  0  0  0  0  0
   36.6707   25.0795   43.2270 H   0  0  0  0  0  0  0  0  0  0  0  0
   37.4863   31.9883   39.8290 H   0  0  0  0  0  0  0  0  0  0  0  0
   37.7092   32.9581   41.3462 H   0  0  0  0  0  0  0  0  0  0  0  0
   39.8680   31.3107   38.9694 H   0  0  0  0  0  0  0  0  0  0  0  0
   41.7324   32.3774   37.7716 H   0  0  0  0  0  0  0  0  0  0  0  0
  1  2  2  0
  2  3  1  0
  4  3  2  0
  5  4  1  0
  6  1  1  0
  6  5  2  0
  7  5  1  0
  7 14  1  0
  8  7  1  0
  9  8  2  0
  9 11  1  0
 10  9  1  0
 11 13  1  0
 12 11  2  0
 13 14  1  0
 14 15  2  0
 16  1  1  0
 17 23  1  0
 17 16  1  0
 18 17  1  0
 19 20  1  0
 19 18  2  0
 20 22  1  0
 21 20  2  0
 22 25  1  0
 22 23  1  0
 23 24  2  0
 25 26  1  0
 25 27  1  0
 28 25  1  0
  2 29  1  0
  3 30  1  0
  8 31  1  0
 10 32  1  0
 10 33  1  0
 10 34  1  0
 13 35  1  0
 16 36  1  0
 16 37  1  0
 18 38  1  0
 19 39  1  0
M  ISO  8  29  14  30  14  31  14  32   8  33   8  34   8  35   9  36   8
M  ISO  3  37   8  38  14  39  14
M  END
>  <minimizedAffinity>  (1) 
-6.89019203

>  <minimizedRMSD>  (1) 
2.45698237

$$$$
