
     RDKit          3D

 37 40  0  0  0  0  0  0  0  0999 V2000
   38.6780   31.2480   41.2370 C   0  0  0  0  0  0  0  0  0  0  0  0
   39.7510   31.4100   42.0670 C   0  0  0  0  0  0  0  0  0  0  0  0
   40.2010   30.3620   42.8750 C   0  0  0  0  0  0  0  0  0  0  0  0
   39.5320   29.1870   42.8000 N   0  0  0  0  0  0  0  0  0  0  0  0
   38.4620   29.0390   41.9670 C   0  0  0  0  0  0  0  0  0  0  0  0
   38.0600   30.0530   41.2140 N   0  0  0  0  0  0  0  0  0  0  0  0
   37.8600   27.7490   41.9960 N   0  0  0  0  0  0  0  0  0  0  0  0
   37.2960   27.0650   43.0230 C   0  0  0  0  0  0  0  0  0  0  0  0
   36.8720   25.8870   42.5320 N   0  0  0  0  0  0  0  0  0  0  0  0
   37.1680   25.8360   41.2130 C   0  0  0  0  0  0  0  0  0  0  0  0
   36.9100   24.8080   40.3200 C   0  0  0  0  0  0  0  0  0  0  0  0
   37.3180   25.0170   39.0360 N   0  0  0  0  0  0  0  0  0  0  0  0
   37.9340   26.1810   38.7140 C   0  0  0  0  0  0  0  0  0  0  0  0
   38.1850   27.1820   39.5770 N   0  0  0  0  0  0  0  0  0  0  0  0
   37.8040   27.0270   40.8550 C   0  0  0  0  0  0  0  0  0  0  0  0
   38.1740   32.3130   40.3770 C   0  0  0  0  0  0  0  0  0  0  0  0
   39.2570   33.0950   39.7970 N   0  0  0  0  0  0  0  0  0  0  0  0
   40.0800   32.4310   38.9520 C   0  0  0  0  0  0  0  0  0  0  0  0
   41.1450   33.0390   38.3300 C   0  0  0  0  0  0  0  0  0  0  0  0
   41.3940   34.3880   38.5740 C   0  0  0  0  0  0  0  0  0  0  0  0
   42.3470   34.9750   38.0310 O   0  0  0  0  0  0  0  0  0  0  0  0
   40.5460   35.0040   39.4230 N   0  0  0  0  0  0  0  0  0  0  0  0
   39.5070   34.4120   40.0290 C   0  0  0  0  0  0  0  0  0  0  0  0
   38.7130   34.9720   40.8190 O   0  0  0  0  0  0  0  0  0  0  0  0
   40.7710   36.4180   39.7060 C   0  0  0  0  0  0  0  0  0  0  0  0
   39.4770   36.9510   39.8490 F   0  0  0  0  0  0  0  0  0  0  0  0
   41.4000   36.6330   40.9010 F   0  0  0  0  0  0  0  0  0  0  0  0
   41.3370   37.1020   38.6540 F   0  0  0  0  0  0  0  0  0  0  0  0
   40.2687   32.3800   42.0999 H   0  0  0  0  0  0  0  0  0  0  0  0
   41.0643   30.4867   43.5452 H   0  0  0  0  0  0  0  0  0  0  0  0
   37.2029   27.4097   44.0634 H   0  0  0  0  0  0  0  0  0  0  0  0
   36.4066   23.8798   40.6285 H   0  0  0  0  0  0  0  0  0  0  0  0
   38.2521   26.3170   37.6698 H   0  0  0  0  0  0  0  0  0  0  0  0
   37.5828   31.8654   39.5645 H   0  0  0  0  0  0  0  0  0  0  0  0
   37.5559   32.9853   40.9902 H   0  0  0  0  0  0  0  0  0  0  0  0
   39.8898   31.3655   38.7556 H   0  0  0  0  0  0  0  0  0  0  0  0
   41.7922   32.4676   37.6484 H   0  0  0  0  0  0  0  0  0  0  0  0
  1  2  2  0
  2  3  1  0
  4  3  2  0
  5  7  1  0
  5  4  1  0
  6  1  1  0
  6  5  2  0
  7  8  1  0
  9  8  2  0
 10  9  1  0
 11 10  2  0
 12 11  1  0
 13 12  2  0
 13 14  1  0
 14 15  2  0
 15 10  1  0
 15  7  1  0
 16  1  1  0
 17 23  1  0
 17 16  1  0
 18 17  1  0
 19 20  1  0
 19 18  2  0
 20 22  1  0
 21 20  2  0
 22 25  1  0
 22 23  1  0
 23 24  2  0
 25 26  1  0
 25 27  1  0
 28 25  1  0
  2 29  1  0
  3 30  1  0
  8 31  1  0
 11 32  1  0
 13 33  1  0
 16 34  1  0
 16 35  1  0
 18 36  1  0
 19 37  1  0
M  ISO  8  29  14  30  14  31  14  32  14  33  14  34   8  35   8  36  14
M  ISO  1  37  14
M  END
>  <minimizedAffinity>  (1) 
-6.54628944

>  <minimizedRMSD>  (1) 
2.39942193

$$$$
