
     RDKit          3D

 36 38  0  0  0  0  0  0  0  0999 V2000
   37.5680   31.4290   40.3570 C   0  0  0  0  0  0  0  0  0  0  0  0
   38.6780   32.0490   39.6570 N   0  0  0  0  0  0  0  0  0  0  0  0
   39.1830   31.3580   38.6060 C   0  0  0  0  0  0  0  0  0  0  0  0
   40.2320   31.8200   37.8520 C   0  0  0  0  0  0  0  0  0  0  0  0
   40.7990   33.0410   38.1750 C   0  0  0  0  0  0  0  0  0  0  0  0
   41.7570   33.5040   37.5160 O   0  0  0  0  0  0  0  0  0  0  0  0
   40.2690   33.6950   39.2240 N   0  0  0  0  0  0  0  0  0  0  0  0
   39.2400   33.2360   39.9590 C   0  0  0  0  0  0  0  0  0  0  0  0
   38.7350   33.8310   40.9390 O   0  0  0  0  0  0  0  0  0  0  0  0
   40.8360   34.9860   39.6000 C   0  0  0  0  0  0  0  0  0  0  0  0
   39.7430   35.8520   39.6370 F   0  0  0  0  0  0  0  0  0  0  0  0
   41.3850   34.9850   40.8580 F   0  0  0  0  0  0  0  0  0  0  0  0
   41.6830   35.4970   38.6400 F   0  0  0  0  0  0  0  0  0  0  0  0
   38.0030   30.2850   41.1480 C   0  0  0  0  0  0  0  0  0  0  0  0
   38.8870   30.3970   42.1980 C   0  0  0  0  0  0  0  0  0  0  0  0
   39.2630   29.2730   42.9130 C   0  0  0  0  0  0  0  0  0  0  0  0
   38.7410   28.0540   42.5560 N   0  0  0  0  0  0  0  0  0  0  0  0
   37.8700   27.9690   41.5150 C   0  0  0  0  0  0  0  0  0  0  0  0
   37.5270   29.0500   40.8490 N   0  0  0  0  0  0  0  0  0  0  0  0
   37.3470   26.6480   41.1780 C   0  0  0  0  0  0  0  0  0  0  0  0
   36.8960   26.3740   39.9040 C   0  0  0  0  0  0  0  0  0  0  0  0
   36.3970   25.1310   39.5640 C   0  0  0  0  0  0  0  0  0  0  0  0
   36.3870   24.2040   40.5850 C   0  0  0  0  0  0  0  0  0  0  0  0
   36.8200   24.4100   41.8790 C   0  0  0  0  0  0  0  0  0  0  0  0
   37.3100   25.6640   42.1700 C   0  0  0  0  0  0  0  0  0  0  0  0
   36.8252   31.0910   39.6195 H   0  0  0  0  0  0  0  0  0  0  0  0
   37.1335   32.1738   41.0401 H   0  0  0  0  0  0  0  0  0  0  0  0
   38.7338   30.3878   38.3472 H   0  0  0  0  0  0  0  0  0  0  0  0
   40.6157   31.2308   37.0060 H   0  0  0  0  0  0  0  0  0  0  0  0
   39.2952   31.3818   42.4691 H   0  0  0  0  0  0  0  0  0  0  0  0
   39.9682   29.3548   43.7532 H   0  0  0  0  0  0  0  0  0  0  0  0
   36.9344   27.1642   39.1397 H   0  0  0  0  0  0  0  0  0  0  0  0
   36.0340   24.8978   38.5521 H   0  0  0  0  0  0  0  0  0  0  0  0
   35.9963   23.2042   40.3448 H   0  0  0  0  0  0  0  0  0  0  0  0
   36.7762   23.6149   42.6379 H   0  0  0  0  0  0  0  0  0  0  0  0
   37.6723   25.8911   43.1835 H   0  0  0  0  0  0  0  0  0  0  0  0
  1 14  1  0
  2  8  1  0
  2  1  1  0
  3  2  1  0
  4  5  1  0
  4  3  2  0
  5  7  1  0
  6  5  2  0
  7 10  1  0
  7  8  1  0
  8  9  2  0
 10 11  1  0
 10 12  1  0
 13 10  1  0
 14 15  2  0
 15 16  1  0
 17 16  2  0
 18 17  1  0
 19 14  1  0
 19 18  2  0
 20 18  1  0
 20 25  1  0
 21 20  2  0
 22 21  1  0
 22 23  2  0
 23 24  1  0
 24 25  2  0
  1 26  1  0
  1 27  1  0
  3 28  1  0
  4 29  1  0
 15 30  1  0
 16 31  1  0
 21 32  1  0
 22 33  1  0
 23 34  1  0
 24 35  1  0
 25 36  1  0
M  ISO  8  26   8  27   8  28  14  29  14  30  14  31  14  32  14  33  14
M  ISO  3  34  14  35  14  36  14
M  END
>  <minimizedAffinity>  (1) 
-6.24723101

>  <minimizedRMSD>  (1) 
1.45755696

$$$$
