
     RDKit          3D

 33 35  0  0  1  0  0  0  0  0999 V2000
   40.0310   32.0390   41.0060 C   0  0  0  0  0  0  0  0  0  0  0  0
   39.5950   30.7860   41.5210 C   0  0  0  0  0  0  0  0  0  0  0  0
   38.2530   30.5050   41.4590 C   0  0  0  0  0  0  0  0  0  0  0  0
   37.3980   31.4270   40.9150 N   0  0  0  0  0  0  0  0  0  0  0  0
   37.8470   32.6080   40.4350 C   0  0  0  0  0  0  0  0  0  0  0  0
   39.1500   32.9230   40.4740 N   0  0  0  0  0  0  0  0  0  0  0  0
   36.9100   33.5320   39.8940 N   0  0  0  0  0  0  0  0  0  0  0  0
   37.7200   29.2790   41.9420 N   0  0  0  0  0  0  0  0  0  0  0  0
   37.9140   28.9280   43.3090 C   0  0  0  0  0  0  0  0  0  0  0  0
   36.8410   27.9000   43.6650 C   0  0  0  0  0  0  0  0  0  0  0  0
   36.9030   26.7240   42.8360 N   0  0  0  0  0  0  0  0  0  0  0  0
   37.3010   26.9530   41.4790 C   0  0  0  0  0  0  0  0  0  0  0  0
   36.9950   28.3880   41.0960 C   0  0  2  0  0  0  0  0  0  0  0  0
   37.0470   28.5710   39.6670 C   0  0  0  0  0  0  0  0  0  0  0  0
   37.9550   28.0360   38.7420 C   0  0  0  0  0  0  0  0  0  0  0  0
   37.6580   28.4490   37.5180 N   0  0  0  0  0  0  0  0  0  0  0  0
   36.5650   29.2550   37.6070 C   0  0  0  0  0  0  0  0  0  0  0  0
   36.2350   29.3000   38.9020 N   0  0  0  0  0  0  0  0  0  0  0  0
   41.1002   32.2951   41.0398 H   0  0  0  0  0  0  0  0  0  0  0  0
   40.3080   30.0685   41.9532 H   0  0  0  0  0  0  0  0  0  0  0  0
   35.9089   33.2918   39.8632 H   0  0  0  0  0  0  0  0  0  0  0  0
   37.2328   34.4411   39.5331 H   0  0  0  0  0  0  0  0  0  0  0  0
   38.9146   28.4929   43.4486 H   0  0  0  0  0  0  0  0  0  0  0  0
   37.8372   29.8145   43.9558 H   0  0  0  0  0  0  0  0  0  0  0  0
   36.9762   27.5987   44.7143 H   0  0  0  0  0  0  0  0  0  0  0  0
   35.8608   28.3715   43.5010 H   0  0  0  0  0  0  0  0  0  0  0  0
   37.5774   26.0710   43.2597 H   0  0  0  0  0  0  0  0  0  0  0  0
   38.3808   26.7691   41.3779 H   0  0  0  0  0  0  0  0  0  0  0  0
   36.7485   26.2714   40.8156 H   0  0  0  0  0  0  0  0  0  0  0  0
   35.9492   28.6611   41.3002 H   0  0  0  0  0  0  0  0  0  0  0  0
   38.7928   27.3698   38.9955 H   0  0  0  0  0  0  0  0  0  0  0  0
   36.0545   29.7676   36.7783 H   0  0  0  0  0  0  0  0  0  0  0  0
   35.4385   29.8402   39.2690 H   0  0  0  0  0  0  0  0  0  0  0  0
  1  2  2  0
  3  2  1  0
  3  8  1  0
  4  3  2  0
  5  6  2  0
  5  4  1  0
  6  1  1  0
  7  5  1  0
  8  9  1  0
  9 10  1  0
 11 10  1  0
 12 11  1  0
 13 12  1  0
 13  8  1  0
 14 13  1  0
 15 14  2  0
 16 17  2  0
 16 15  1  0
 17 18  1  0
 18 14  1  0
  1 19  1  0
  2 20  1  0
  7 21  1  0
  7 22  1  0
  9 23  1  0
  9 24  1  0
 10 25  1  0
 10 26  1  0
 11 27  1  0
 12 28  1  0
 12 29  1  0
 13 30  1  1
 15 31  1  0
 17 32  1  0
 18 33  1  0
M  ISO  8  19  14  20  14  23  13  24  13  25  13  26  13  27   5  28  13
M  ISO  5  29  13  30  13  31  14  32  14  33   9
M  END
>  <minimizedAffinity>  (1) 
-5.01006746

>  <minimizedRMSD>  (1) 
0.801873028

$$$$
