
     RDKit          3D

 33 35  0  0  0  0  0  0  0  0999 V2000
   39.3810   32.2910   39.0000 C   0  0  0  0  0  0  0  0  0  0  0  0
   40.4040   33.0470   39.7090 N   0  0  0  0  0  0  0  0  0  0  0  0
   41.5610   32.4150   39.9650 C   0  0  0  0  0  0  0  0  0  0  0  0
   42.5980   33.0270   40.6270 C   0  0  0  0  0  0  0  0  0  0  0  0
   42.4630   34.3360   41.0520 C   0  0  0  0  0  0  0  0  0  0  0  0
   43.3800   34.9330   41.6580 O   0  0  0  0  0  0  0  0  0  0  0  0
   41.2880   34.9380   40.7770 N   0  0  0  0  0  0  0  0  0  0  0  0
   40.2760   34.3300   40.1270 C   0  0  0  0  0  0  0  0  0  0  0  0
   39.1760   34.8780   39.8640 O   0  0  0  0  0  0  0  0  0  0  0  0
   41.0950   36.3110   41.2000 C   0  0  0  0  0  0  0  0  0  0  0  0
   40.9820   37.0320   40.0040 F   0  0  0  0  0  0  0  0  0  0  0  0
   39.9180   36.5100   41.8690 F   0  0  0  0  0  0  0  0  0  0  0  0
   42.1910   36.8350   41.8480 F   0  0  0  0  0  0  0  0  0  0  0  0
   38.5030   31.5830   39.9220 C   0  0  0  0  0  0  0  0  0  0  0  0
   37.1750   31.8720   40.0500 C   0  0  0  0  0  0  0  0  0  0  0  0
   36.3800   31.1660   40.9440 C   0  0  0  0  0  0  0  0  0  0  0  0
   36.9590   30.1890   41.6820 N   0  0  0  0  0  0  0  0  0  0  0  0
   38.2840   29.9090   41.5460 C   0  0  0  0  0  0  0  0  0  0  0  0
   39.0130   30.5920   40.6930 N   0  0  0  0  0  0  0  0  0  0  0  0
   38.8240   28.8400   42.3800 C   0  0  0  0  0  0  0  0  0  0  0  0
   38.1250   27.9100   43.1210 C   0  0  0  0  0  0  0  0  0  0  0  0
   39.0120   27.0750   43.7660 C   0  0  0  0  0  0  0  0  0  0  0  0
   40.2560   27.5600   43.3700 C   0  0  0  0  0  0  0  0  0  0  0  0
   40.1180   28.5860   42.5650 O   0  0  0  0  0  0  0  0  0  0  0  0
   38.7788   32.9850   38.3952 H   0  0  0  0  0  0  0  0  0  0  0  0
   39.8819   31.5479   38.3622 H   0  0  0  0  0  0  0  0  0  0  0  0
   41.6825   31.3731   39.6338 H   0  0  0  0  0  0  0  0  0  0  0  0
   43.5318   32.4779   40.8181 H   0  0  0  0  0  0  0  0  0  0  0  0
   36.7302   32.6716   39.4394 H   0  0  0  0  0  0  0  0  0  0  0  0
   35.3091   31.3943   41.0497 H   0  0  0  0  0  0  0  0  0  0  0  0
   37.0289   27.8448   43.1870 H   0  0  0  0  0  0  0  0  0  0  0  0
   38.7905   26.2289   44.4332 H   0  0  0  0  0  0  0  0  0  0  0  0
   41.2215   27.1402   43.6886 H   0  0  0  0  0  0  0  0  0  0  0  0
  1  2  1  0
  1 14  1  0
  2  3  1  0
  2  8  1  0
  3  4  2  0
  4  5  1  0
  5  6  2  0
  7  5  1  0
  7 10  1  0
  8  7  1  0
  9  8  2  0
 10 13  1  0
 10 12  1  0
 11 10  1  0
 14 15  2  0
 14 19  1  0
 15 16  1  0
 16 17  2  0
 18 17  1  0
 18 20  1  0
 19 18  2  0
 20 24  1  0
 20 21  2  0
 21 22  1  0
 23 22  2  0
 24 23  1  0
  1 25  1  0
  1 26  1  0
  3 27  1  0
  4 28  1  0
 15 29  1  0
 16 30  1  0
 21 31  1  0
 22 32  1  0
 23 33  1  0
M  ISO  8  25   8  26   8  27  14  28  14  29  14  30  14  31  14  32  14
M  ISO  1  33  14
M  END
>  <minimizedAffinity>  (1) 
-6.06590605

>  <minimizedRMSD>  (1) 
3.91786313

$$$$
