
     RDKit          3D

 41 43  0  0  0  0  0  0  0  0999 V2000
   37.6340   31.4050   40.5850 C   0  0  0  0  0  0  0  0  0  0  0  0
   38.0900   30.2070   41.2870 C   0  0  0  0  0  0  0  0  0  0  0  0
   39.0840   30.2300   42.2270 C   0  0  0  0  0  0  0  0  0  0  0  0
   39.4940   29.0680   42.8770 C   0  0  0  0  0  0  0  0  0  0  0  0
   38.8620   27.8970   42.5370 N   0  0  0  0  0  0  0  0  0  0  0  0
   37.8790   27.9070   41.6000 C   0  0  0  0  0  0  0  0  0  0  0  0
   37.5030   29.0120   40.9950 N   0  0  0  0  0  0  0  0  0  0  0  0
   37.2990   26.6360   41.3320 N   0  0  0  0  0  0  0  0  0  0  0  0
   37.0610   26.2070   39.9660 C   0  0  0  0  0  0  0  0  0  0  0  0
   37.0910   24.7270   39.7750 C   0  0  0  0  0  0  0  0  0  0  0  0
   38.0640   24.1300   40.7680 C   0  0  0  0  0  0  0  0  0  0  0  0
   37.6750   24.4000   42.1840 C   0  0  0  0  0  0  0  0  0  0  0  0
   36.9030   25.6830   42.3530 C   0  0  0  0  0  0  0  0  0  0  0  0
   38.7030   32.0130   39.8190 N   0  0  0  0  0  0  0  0  0  0  0  0
   39.1630   31.3220   38.7630 C   0  0  0  0  0  0  0  0  0  0  0  0
   40.1720   31.7850   37.9540 C   0  0  0  0  0  0  0  0  0  0  0  0
   40.7450   33.0080   38.2280 C   0  0  0  0  0  0  0  0  0  0  0  0
   41.6670   33.4730   37.5210 O   0  0  0  0  0  0  0  0  0  0  0  0
   40.2630   33.6760   39.2930 N   0  0  0  0  0  0  0  0  0  0  0  0
   39.2740   33.2160   40.0800 C   0  0  0  0  0  0  0  0  0  0  0  0
   38.8160   33.8250   41.0720 O   0  0  0  0  0  0  0  0  0  0  0  0
   40.8350   34.9720   39.6240 C   0  0  0  0  0  0  0  0  0  0  0  0
   39.7300   35.8430   39.6380 F   0  0  0  0  0  0  0  0  0  0  0  0
   41.3770   35.0230   40.8760 F   0  0  0  0  0  0  0  0  0  0  0  0
   41.6610   35.4600   38.6430 F   0  0  0  0  0  0  0  0  0  0  0  0
   36.8172   31.1293   39.9017 H   0  0  0  0  0  0  0  0  0  0  0  0
   37.2901   32.1332   41.3343 H   0  0  0  0  0  0  0  0  0  0  0  0
   39.5693   31.1856   42.4745 H   0  0  0  0  0  0  0  0  0  0  0  0
   40.2928   29.0876   43.6330 H   0  0  0  0  0  0  0  0  0  0  0  0
   36.0716   26.5747   39.6565 H   0  0  0  0  0  0  0  0  0  0  0  0
   37.8790   26.6206   39.3579 H   0  0  0  0  0  0  0  0  0  0  0  0
   36.0868   24.3113   39.9449 H   0  0  0  0  0  0  0  0  0  0  0  0
   37.4078   24.4876   38.7492 H   0  0  0  0  0  0  0  0  0  0  0  0
   38.1015   23.0415   40.6141 H   0  0  0  0  0  0  0  0  0  0  0  0
   39.0449   24.5972   40.5964 H   0  0  0  0  0  0  0  0  0  0  0  0
   37.0510   23.5670   42.5401 H   0  0  0  0  0  0  0  0  0  0  0  0
   38.6038   24.4983   42.7652 H   0  0  0  0  0  0  0  0  0  0  0  0
   37.1112   26.1057   43.3470 H   0  0  0  0  0  0  0  0  0  0  0  0
   35.8274   25.4740   42.2557 H   0  0  0  0  0  0  0  0  0  0  0  0
   38.7128   30.3442   38.5365 H   0  0  0  0  0  0  0  0  0  0  0  0
   40.5183   31.1870   37.0981 H   0  0  0  0  0  0  0  0  0  0  0  0
  1  2  1  0
  2  3  2  0
  3  4  1  0
  5  4  2  0
  6  5  1  0
  7  2  1  0
  7  6  2  0
  8  6  1  0
  8 13  1  0
  9  8  1  0
 10  9  1  0
 10 11  1  0
 11 12  1  0
 12 13  1  0
 14 20  1  0
 14  1  1  0
 15 14  1  0
 16 17  1  0
 16 15  2  0
 17 19  1  0
 18 17  2  0
 19 22  1  0
 19 20  1  0
 20 21  2  0
 22 23  1  0
 22 24  1  0
 25 22  1  0
  1 26  1  0
  1 27  1  0
  3 28  1  0
  4 29  1  0
  9 30  1  0
  9 31  1  0
 10 32  1  0
 10 33  1  0
 11 34  1  0
 11 35  1  0
 12 36  1  0
 12 37  1  0
 13 38  1  0
 13 39  1  0
 15 40  1  0
 16 41  1  0
M  ISO  8  26   8  27   8  28  14  29  14  30  13  31  13  32  13  33  13
M  ISO  8  34  13  35  13  36  13  37  13  38  13  39  13  40  14  41  14
M  END
>  <minimizedAffinity>  (1) 
-6.04155588

>  <minimizedRMSD>  (1) 
1.34137774

$$$$
