
     RDKit          3D

 39 41  0  0  0  0  0  0  0  0999 V2000
   38.2000   30.2060   40.6810 C   0  0  0  0  0  0  0  0  0  0  0  0
   38.5400   30.6050   41.9410 C   0  0  0  0  0  0  0  0  0  0  0  0
   38.7780   29.6760   42.9520 C   0  0  0  0  0  0  0  0  0  0  0  0
   38.6600   28.3470   42.6310 N   0  0  0  0  0  0  0  0  0  0  0  0
   38.3200   27.9770   41.3670 C   0  0  0  0  0  0  0  0  0  0  0  0
   38.0970   28.8710   40.4230 N   0  0  0  0  0  0  0  0  0  0  0  0
   38.0280   23.7960   40.5080 C   0  0  0  0  0  0  0  0  0  0  0  0
   39.0580   24.5740   39.9990 C   0  0  0  0  0  0  0  0  0  0  0  0
   39.1430   25.9250   40.2830 C   0  0  0  0  0  0  0  0  0  0  0  0
   38.2080   26.5510   41.0820 C   0  0  0  0  0  0  0  0  0  0  0  0
   37.1800   25.7810   41.5920 C   0  0  0  0  0  0  0  0  0  0  0  0
   37.0820   24.4200   41.3140 C   0  0  0  0  0  0  0  0  0  0  0  0
   37.8710   22.0750   40.1790 S   0  0  0  0  0  0  0  0  0  0  0  0
   38.9840   21.5330   39.3650 O   0  0  0  0  0  0  0  0  0  0  0  0
   36.5360   21.9160   39.4680 O   0  0  0  0  0  0  0  0  0  0  0  0
   37.9410   31.1420   39.5910 C   0  0  0  0  0  0  0  0  0  0  0  0
   38.9740   32.1500   39.4990 N   0  0  0  0  0  0  0  0  0  0  0  0
   40.1780   31.7400   39.0210 C   0  0  0  0  0  0  0  0  0  0  0  0
   41.2490   32.5990   38.8820 C   0  0  0  0  0  0  0  0  0  0  0  0
   41.0990   33.9270   39.2400 C   0  0  0  0  0  0  0  0  0  0  0  0
   42.0390   34.7310   39.1310 O   0  0  0  0  0  0  0  0  0  0  0  0
   39.8880   34.2930   39.7100 N   0  0  0  0  0  0  0  0  0  0  0  0
   38.8540   33.4540   39.8410 C   0  0  0  0  0  0  0  0  0  0  0  0
   37.7210   33.7850   40.2780 O   0  0  0  0  0  0  0  0  0  0  0  0
   39.6920   35.6760   40.0960 C   0  0  0  0  0  0  0  0  0  0  0  0
   38.3800   35.9650   39.7070 F   0  0  0  0  0  0  0  0  0  0  0  0
   39.7260   35.8730   41.4480 F   0  0  0  0  0  0  0  0  0  0  0  0
   40.4810   36.5530   39.3860 F   0  0  0  0  0  0  0  0  0  0  0  0
   38.6277   31.6789   42.1624 H   0  0  0  0  0  0  0  0  0  0  0  0
   39.0501   29.9958   43.9687 H   0  0  0  0  0  0  0  0  0  0  0  0
   39.8208   24.1079   39.3580 H   0  0  0  0  0  0  0  0  0  0  0  0
   39.9729   26.5125   39.8634 H   0  0  0  0  0  0  0  0  0  0  0  0
   36.4213   26.2543   42.2326 H   0  0  0  0  0  0  0  0  0  0  0  0
   36.2510   23.8348   41.7346 H   0  0  0  0  0  0  0  0  0  0  0  0
   37.9235   21.3603   41.3467 H   0  0  0  0  0  0  0  0  0  0  0  0
   37.9006   30.5845   38.6436 H   0  0  0  0  0  0  0  0  0  0  0  0
   36.9842   31.6467   39.7905 H   0  0  0  0  0  0  0  0  0  0  0  0
   40.3035   30.6854   38.7345 H   0  0  0  0  0  0  0  0  0  0  0  0
   42.2098   32.2325   38.4915 H   0  0  0  0  0  0  0  0  0  0  0  0
  1  2  2  0
  2  3  1  0
  4  3  2  0
  5  4  1  0
  6  1  1  0
  6  5  2  0
  7 12  2  0
  8  9  2  0
  8  7  1  0
  9 10  1  0
 10  5  1  0
 10 11  2  0
 12 11  1  0
 13  7  1  0
 14 13  2  0
 15 13  2  0
 16  1  1  0
 17 16  1  0
 17 23  1  0
 18 17  1  0
 19 18  2  0
 19 20  1  0
 20 22  1  0
 21 20  2  0
 22 23  1  0
 22 25  1  0
 23 24  2  0
 25 27  1  0
 26 25  1  0
 28 25  1  0
  2 29  1  0
  3 30  1  0
  8 31  1  0
  9 32  1  0
 11 33  1  0
 12 34  1  0
 13 35  1  0
 16 36  1  0
 16 37  1  0
 18 38  1  0
 19 39  1  0
M  ISO  8  29  14  30  14  31  14  32  14  33  14  34  14  35  11  36   8
M  ISO  3  37   8  38  14  39  14
M  END
>  <minimizedAffinity>  (1) 
-6.02113152

>  <minimizedRMSD>  (1) 
2.97565866

$$$$
