
     RDKit          3D

 40 42  0  0  0  0  0  0  0  0999 V2000
   37.9710   31.1390   40.5230 C   0  0  0  0  0  0  0  0  0  0  0  0
   38.5560   30.0420   41.2780 C   0  0  0  0  0  0  0  0  0  0  0  0
   39.5470   30.2180   42.2060 C   0  0  0  0  0  0  0  0  0  0  0  0
   40.0780   29.1350   42.9060 C   0  0  0  0  0  0  0  0  0  0  0  0
   39.5730   27.8920   42.6350 N   0  0  0  0  0  0  0  0  0  0  0  0
   38.5890   27.7490   41.7070 C   0  0  0  0  0  0  0  0  0  0  0  0
   38.0980   28.7790   41.0530 N   0  0  0  0  0  0  0  0  0  0  0  0
   38.0970   26.4380   41.4580 N   0  0  0  0  0  0  0  0  0  0  0  0
   36.9840   25.8570   42.1860 C   0  0  0  0  0  0  0  0  0  0  0  0
   37.1560   24.3340   42.1370 C   0  0  0  0  0  0  0  0  0  0  0  0
   38.5370   23.9570   42.2050 N   0  0  0  0  0  0  0  0  0  0  0  0
   39.3650   24.4480   41.1510 C   0  0  0  0  0  0  0  0  0  0  0  0
   38.7090   25.6080   40.4350 C   0  0  0  0  0  0  0  0  0  0  0  0
   38.9810   31.8760   39.7800 N   0  0  0  0  0  0  0  0  0  0  0  0
   39.5170   31.2410   38.7130 C   0  0  0  0  0  0  0  0  0  0  0  0
   40.4860   31.8240   37.9210 C   0  0  0  0  0  0  0  0  0  0  0  0
   40.9270   33.1010   38.2200 C   0  0  0  0  0  0  0  0  0  0  0  0
   41.8010   33.6640   37.5310 O   0  0  0  0  0  0  0  0  0  0  0  0
   40.3710   33.6910   39.2830 N   0  0  0  0  0  0  0  0  0  0  0  0
   39.4280   33.1230   40.0540 C   0  0  0  0  0  0  0  0  0  0  0  0
   38.8940   33.6690   41.0600 O   0  0  0  0  0  0  0  0  0  0  0  0
   40.8000   35.0380   39.6440 C   0  0  0  0  0  0  0  0  0  0  0  0
   39.6190   35.7900   39.6490 F   0  0  0  0  0  0  0  0  0  0  0  0
   41.3270   35.1220   40.9000 F   0  0  0  0  0  0  0  0  0  0  0  0
   41.5880   35.6170   38.6700 F   0  0  0  0  0  0  0  0  0  0  0  0
   37.2334   30.7321   39.8156 H   0  0  0  0  0  0  0  0  0  0  0  0
   37.4941   31.8300   41.2337 H   0  0  0  0  0  0  0  0  0  0  0  0
   39.9306   31.2300   42.4027 H   0  0  0  0  0  0  0  0  0  0  0  0
   40.8755   29.2749   43.6506 H   0  0  0  0  0  0  0  0  0  0  0  0
   36.9941   26.2041   43.2298 H   0  0  0  0  0  0  0  0  0  0  0  0
   36.0252   26.1564   41.7377 H   0  0  0  0  0  0  0  0  0  0  0  0
   36.6215   23.8867   42.9880 H   0  0  0  0  0  0  0  0  0  0  0  0
   36.7469   23.9719   41.1823 H   0  0  0  0  0  0  0  0  0  0  0  0
   38.9173   24.3076   43.0957 H   0  0  0  0  0  0  0  0  0  0  0  0
   40.3234   24.7833   41.5742 H   0  0  0  0  0  0  0  0  0  0  0  0
   39.5239   23.6362   40.4260 H   0  0  0  0  0  0  0  0  0  0  0  0
   39.4625   26.1853   39.8791 H   0  0  0  0  0  0  0  0  0  0  0  0
   37.9593   25.2538   39.7122 H   0  0  0  0  0  0  0  0  0  0  0  0
   39.1694   30.2265   38.4681 H   0  0  0  0  0  0  0  0  0  0  0  0
   40.9031   31.2790   37.0613 H   0  0  0  0  0  0  0  0  0  0  0  0
  1  2  1  0
  2  3  2  0
  3  4  1  0
  5  4  2  0
  6  5  1  0
  7  2  1  0
  7  6  2  0
  8  6  1  0
  8  9  1  0
 10  9  1  0
 10 11  1  0
 12 11  1  0
 13 12  1  0
 13  8  1  0
 14 20  1  0
 14  1  1  0
 15 14  1  0
 16 17  1  0
 16 15  2  0
 17 19  1  0
 18 17  2  0
 19 22  1  0
 19 20  1  0
 20 21  2  0
 22 23  1  0
 22 24  1  0
 25 22  1  0
  1 26  1  0
  1 27  1  0
  3 28  1  0
  4 29  1  0
  9 30  1  0
  9 31  1  0
 10 32  1  0
 10 33  1  0
 11 34  1  0
 12 35  1  0
 12 36  1  0
 13 37  1  0
 13 38  1  0
 15 39  1  0
 16 40  1  0
M  ISO  8  26   8  27   8  28  14  29  14  30  13  31  13  32  13  33  13
M  ISO  7  34   5  35  13  36  13  37  13  38  13  39  14  40  14
M  END
>  <minimizedAffinity>  (1) 
-5.92562103

>  <minimizedRMSD>  (1) 
1.8157779

$$$$
