
     RDKit          3D

 34 36  0  0  0  0  0  0  0  0999 V2000
   36.3360   30.3250   41.3430 C   0  0  0  0  0  0  0  0  0  0  0  0
   37.6550   30.9190   41.2520 N   0  0  0  0  0  0  0  0  0  0  0  0
   37.7540   32.0090   40.4740 C   0  0  0  0  0  0  0  0  0  0  0  0
   38.9490   32.6740   40.2990 C   0  0  0  0  0  0  0  0  0  0  0  0
   40.0810   32.2160   40.9350 C   0  0  0  0  0  0  0  0  0  0  0  0
   41.1890   32.7910   40.8030 O   0  0  0  0  0  0  0  0  0  0  0  0
   39.9440   31.1220   41.7050 N   0  0  0  0  0  0  0  0  0  0  0  0
   38.7810   30.4730   41.8790 C   0  0  0  0  0  0  0  0  0  0  0  0
   38.6300   29.4520   42.5910 O   0  0  0  0  0  0  0  0  0  0  0  0
   41.1080   30.5940   42.4010 C   0  0  0  0  0  0  0  0  0  0  0  0
   41.3370   31.5180   43.4350 F   0  0  0  0  0  0  0  0  0  0  0  0
   40.8860   29.3870   42.9850 F   0  0  0  0  0  0  0  0  0  0  0  0
   42.2500   30.6430   41.6210 F   0  0  0  0  0  0  0  0  0  0  0  0
   36.1540   29.2600   40.3690 C   0  0  0  0  0  0  0  0  0  0  0  0
   35.6150   29.4640   39.1270 C   0  0  0  0  0  0  0  0  0  0  0  0
   35.4600   28.4150   38.2290 C   0  0  0  0  0  0  0  0  0  0  0  0
   35.8680   27.1750   38.6330 N   0  0  0  0  0  0  0  0  0  0  0  0
   36.4020   26.9910   39.8700 C   0  0  0  0  0  0  0  0  0  0  0  0
   36.5310   28.0090   40.6890 N   0  0  0  0  0  0  0  0  0  0  0  0
   36.8100   25.6340   40.2170 C   0  0  0  0  0  0  0  0  0  0  0  0
   36.7130   24.5980   39.3110 C   0  0  0  0  0  0  0  0  0  0  0  0
   37.1150   23.3370   39.7010 C   0  0  0  0  0  0  0  0  0  0  0  0
   37.5950   23.0970   40.9360 N   0  0  0  0  0  0  0  0  0  0  0  0
   37.6820   24.1140   41.8010 C   0  0  0  0  0  0  0  0  0  0  0  0
   37.2940   25.3460   41.4350 N   0  0  0  0  0  0  0  0  0  0  0  0
   36.2012   29.9105   42.3530 H   0  0  0  0  0  0  0  0  0  0  0  0
   35.5932   31.1091   41.1346 H   0  0  0  0  0  0  0  0  0  0  0  0
   36.8553   32.3823   39.9612 H   0  0  0  0  0  0  0  0  0  0  0  0
   38.9977   33.5647   39.6554 H   0  0  0  0  0  0  0  0  0  0  0  0
   35.2990   30.4763   38.8349 H   0  0  0  0  0  0  0  0  0  0  0  0
   35.0256   28.5765   37.2314 H   0  0  0  0  0  0  0  0  0  0  0  0
   36.3228   24.7739   38.2977 H   0  0  0  0  0  0  0  0  0  0  0  0
   37.0414   22.5059   38.9842 H   0  0  0  0  0  0  0  0  0  0  0  0
   38.0724   23.9402   42.8146 H   0  0  0  0  0  0  0  0  0  0  0  0
  2  1  1  0
  2  8  1  0
  3  2  1  0
  4  3  2  0
  4  5  1  0
  5  7  1  0
  6  5  2  0
  7  8  1  0
  7 10  1  0
  8  9  2  0
 10 12  1  0
 10 11  1  0
 13 10  1  0
 14 19  1  0
 14  1  1  0
 15 14  2  0
 16 17  2  0
 16 15  1  0
 17 18  1  0
 18 20  1  0
 18 19  2  0
 20 25  2  0
 21 22  2  0
 21 20  1  0
 22 23  1  0
 23 24  2  0
 25 24  1  0
  1 26  1  0
  1 27  1  0
  3 28  1  0
  4 29  1  0
 15 30  1  0
 16 31  1  0
 21 32  1  0
 22 33  1  0
 24 34  1  0
M  ISO  8  26   8  27   8  28  14  29  14  30  14  31  14  32  14  33  14
M  ISO  1  34  14
M  END
>  <minimizedAffinity>  (1) 
-4.97099018

>  <minimizedRMSD>  (1) 
3.64898586

$$$$
