
     RDKit          3D

 27 28  0  0  0  0  0  0  0  0999 V2000
   38.2940   31.4490   40.0180 N   0  0  0  0  0  0  0  0  0  0  0  0
   38.4950   30.7320   38.8890 C   0  0  0  0  0  0  0  0  0  0  0  0
   39.4120   31.1170   37.9300 C   0  0  0  0  0  0  0  0  0  0  0  0
   40.1500   32.2760   38.1300 C   0  0  0  0  0  0  0  0  0  0  0  0
   40.9900   32.6610   37.2890 O   0  0  0  0  0  0  0  0  0  0  0  0
   39.9180   32.9550   39.2640 N   0  0  0  0  0  0  0  0  0  0  0  0
   39.0250   32.5810   40.2000 C   0  0  0  0  0  0  0  0  0  0  0  0
   38.7900   33.1960   41.2660 O   0  0  0  0  0  0  0  0  0  0  0  0
   40.6700   34.1770   39.5170 C   0  0  0  0  0  0  0  0  0  0  0  0
   39.6970   35.1670   39.6310 F   0  0  0  0  0  0  0  0  0  0  0  0
   41.3370   34.1600   40.7080 F   0  0  0  0  0  0  0  0  0  0  0  0
   41.4500   34.5440   38.4440 F   0  0  0  0  0  0  0  0  0  0  0  0
   37.3050   30.9260   40.9300 C   0  0  0  0  0  0  0  0  0  0  0  0
   37.7670   29.7290   41.6080 C   0  0  0  0  0  0  0  0  0  0  0  0
   38.8200   29.7310   42.4910 C   0  0  0  0  0  0  0  0  0  0  0  0
   39.2320   28.5630   43.1220 C   0  0  0  0  0  0  0  0  0  0  0  0
   38.5590   27.4070   42.8400 N   0  0  0  0  0  0  0  0  0  0  0  0
   37.5140   27.4300   41.9560 C   0  0  0  0  0  0  0  0  0  0  0  0
   37.1450   28.5490   41.3730 N   0  0  0  0  0  0  0  0  0  0  0  0
   36.8810   26.2000   41.7260 O   0  0  0  0  0  0  0  0  0  0  0  0
   37.9104   29.8140   38.7294 H   0  0  0  0  0  0  0  0  0  0  0  0
   39.5554   30.5141   37.0212 H   0  0  0  0  0  0  0  0  0  0  0  0
   37.0756   31.6942   41.6832 H   0  0  0  0  0  0  0  0  0  0  0  0
   36.4116   30.6610   40.3455 H   0  0  0  0  0  0  0  0  0  0  0  0
   39.3462   30.6736   42.7022 H   0  0  0  0  0  0  0  0  0  0  0  0
   40.0755   28.5687   43.8281 H   0  0  0  0  0  0  0  0  0  0  0  0
   36.1178   26.1459   41.0978 H   0  0  0  0  0  0  0  0  0  0  0  0
  1  7  1  0
  1 13  1  0
  2  1  1  0
  3  4  1  0
  3  2  2  0
  4  6  1  0
  5  4  2  0
  6  9  1  0
  6  7  1  0
  7  8  2  0
  9 10  1  0
  9 11  1  0
 12  9  1  0
 13 14  1  0
 14 15  2  0
 15 16  1  0
 17 16  2  0
 18 17  1  0
 19 14  1  0
 19 18  2  0
 20 18  1  0
  2 21  1  0
  3 22  1  0
 13 23  1  0
 13 24  1  0
 15 25  1  0
 16 26  1  0
 20 27  1  0
M  ISO  7  21  14  22  14  23   8  24   8  25  14  26  14  27   3
M  END
>  <minimizedAffinity>  (1) 
-4.73389673

>  <minimizedRMSD>  (1) 
0.556011558

$$$$
