
     RDKit          3D

 24 25  0  0  0  0  0  0  0  0999 V2000
   37.3120   29.6790   39.4850 S   0  0  0  0  0  0  0  0  0  0  0  0
   37.5340   28.8770   43.3810 C   0  0  0  0  0  0  0  0  0  0  0  0
   37.2900   27.5010   43.4570 C   0  0  0  0  0  0  0  0  0  0  0  0
   37.0520   26.8130   42.2760 C   0  0  0  0  0  0  0  0  0  0  0  0
   37.0670   27.5060   41.0870 N   0  0  0  0  0  0  0  0  0  0  0  0
   37.3080   28.8420   41.0640 C   0  0  0  0  0  0  0  0  0  0  0  0
   37.5360   29.5020   42.1980 N   0  0  0  0  0  0  0  0  0  0  0  0
   39.1030   33.7770   40.0580 C   0  0  0  0  0  0  0  0  0  0  0  0
   39.9130   32.6420   40.0690 C   0  0  0  0  0  0  0  0  0  0  0  0
   39.3480   31.3900   39.8920 C   0  0  0  0  0  0  0  0  0  0  0  0
   37.9850   31.3120   39.7080 C   0  0  0  0  0  0  0  0  0  0  0  0
   37.1690   32.4240   39.6930 C   0  0  0  0  0  0  0  0  0  0  0  0
   37.7220   33.6880   39.8700 C   0  0  0  0  0  0  0  0  0  0  0  0
   39.7950   35.3780   40.2800 S   0  0  0  0  0  0  0  0  0  0  0  0
   40.9600   35.5440   39.3620 O   0  0  0  0  0  0  0  0  0  0  0  0
   38.7570   36.3980   39.8460 O   0  0  0  0  0  0  0  0  0  0  0  0
   37.7256   29.4490   44.3008 H   0  0  0  0  0  0  0  0  0  0  0  0
   37.2870   26.9798   44.4257 H   0  0  0  0  0  0  0  0  0  0  0  0
   36.8545   25.7310   42.2897 H   0  0  0  0  0  0  0  0  0  0  0  0
   40.9984   32.7409   40.2179 H   0  0  0  0  0  0  0  0  0  0  0  0
   39.9704   30.4830   39.8982 H   0  0  0  0  0  0  0  0  0  0  0  0
   36.0853   32.3117   39.5417 H   0  0  0  0  0  0  0  0  0  0  0  0
   37.0914   34.5892   39.8621 H   0  0  0  0  0  0  0  0  0  0  0  0
   40.1723   35.5405   41.5870 H   0  0  0  0  0  0  0  0  0  0  0  0
  1 11  1  0
  1  6  1  0
  2  3  2  0
  4  3  1  0
  5  4  2  0
  6  5  1  0
  6  7  2  0
  7  2  1  0
  8  9  2  0
  8 14  1  0
 10  9  1  0
 11 10  2  0
 12 11  1  0
 12 13  2  0
 13  8  1  0
 15 14  2  0
 16 14  2  0
  2 17  1  0
  3 18  1  0
  4 19  1  0
  9 20  1  0
 10 21  1  0
 12 22  1  0
 13 23  1  0
 14 24  1  0
M  ISO  8  17  14  18  14  19  14  20  14  21  14  22  14  23  14  24  11
M  END
>  <minimizedAffinity>  (1) 
-4.71421051

>  <minimizedRMSD>  (1) 
1.15644479

$$$$
