
     RDKit          3D

 22 24  0  0  0  0  0  0  0  0999 V2000
   36.5540   30.9300   40.9930 S   0  0  0  0  0  0  0  0  0  0  0  0
   38.9770   32.2430   36.9520 N   0  0  0  0  0  0  0  0  0  0  0  0
   37.8450   31.5490   36.7220 C   0  0  0  0  0  0  0  0  0  0  0  0
   37.2700   31.2460   37.9040 N   0  0  0  0  0  0  0  0  0  0  0  0
   38.0170   31.7370   38.9080 C   0  0  0  0  0  0  0  0  0  0  0  0
   37.9740   31.7620   40.2880 C   0  0  0  0  0  0  0  0  0  0  0  0
   38.9390   32.3740   41.0020 N   0  0  0  0  0  0  0  0  0  0  0  0
   39.9740   32.9770   40.3570 C   0  0  0  0  0  0  0  0  0  0  0  0
   40.0520   32.9730   39.0220 N   0  0  0  0  0  0  0  0  0  0  0  0
   39.0980   32.3670   38.2890 C   0  0  0  0  0  0  0  0  0  0  0  0
   38.4510   28.4110   43.4340 C   0  0  0  0  0  0  0  0  0  0  0  0
   37.7960   27.1890   43.2290 C   0  0  0  0  0  0  0  0  0  0  0  0
   36.7410   27.1490   42.3110 C   0  0  0  0  0  0  0  0  0  0  0  0
   36.4050   28.2960   41.6650 N   0  0  0  0  0  0  0  0  0  0  0  0
   37.0560   29.4640   41.8830 C   0  0  0  0  0  0  0  0  0  0  0  0
   38.0770   29.5230   42.7650 N   0  0  0  0  0  0  0  0  0  0  0  0
   39.6264   32.6092   36.2413 H   0  0  0  0  0  0  0  0  0  0  0  0
   37.4535   31.2743   35.7314 H   0  0  0  0  0  0  0  0  0  0  0  0
   40.7596   33.4761   40.9433 H   0  0  0  0  0  0  0  0  0  0  0  0
   39.2831   28.4653   44.1514 H   0  0  0  0  0  0  0  0  0  0  0  0
   38.1033   26.2852   43.7755 H   0  0  0  0  0  0  0  0  0  0  0  0
   36.1973   26.2126   42.1172 H   0  0  0  0  0  0  0  0  0  0  0  0
  1 15  1  0
  2 10  1  0
  3  2  1  0
  3  4  2  0
  4  5  1  0
  5  6  1  0
  6  1  1  0
  6  7  2  0
  8  7  1  0
  9  8  2  0
 10  5  2  0
 10  9  1  0
 12 11  2  0
 13 12  1  0
 14 15  1  0
 14 13  2  0
 15 16  2  0
 16 11  1  0
  2 17  1  0
  3 18  1  0
  8 19  1  0
 11 20  1  0
 12 21  1  0
 13 22  1  0
M  ISO  6  17   9  18  14  19  14  20  14  21  14  22  14
M  END
>  <minimizedAffinity>  (1) 
-4.52643108

>  <minimizedRMSD>  (1) 
1.5226984

$$$$
