
     RDKit          3D

 20 21  0  0  0  0  0  0  0  0999 V2000
   38.8660   28.6110   43.1360 C   0  0  0  0  0  0  0  0  0  0  0  0
   38.2110   27.3820   43.2510 C   0  0  0  0  0  0  0  0  0  0  0  0
   36.9500   27.2190   42.6610 C   0  0  0  0  0  0  0  0  0  0  0  0
   36.4350   28.2950   41.9980 N   0  0  0  0  0  0  0  0  0  0  0  0
   37.0870   29.4690   41.9000 C   0  0  0  0  0  0  0  0  0  0  0  0
   38.2840   29.6170   42.4630 N   0  0  0  0  0  0  0  0  0  0  0  0
   36.3320   30.8300   41.0090 S   0  0  0  0  0  0  0  0  0  0  0  0
   36.5380   30.5390   39.2390 C   0  0  0  0  0  0  0  0  0  0  0  0
   35.9500   29.5350   38.4990 C   0  0  0  0  0  0  0  0  0  0  0  0
   36.2350   29.4820   37.1560 C   0  0  0  0  0  0  0  0  0  0  0  0
   37.0880   30.4320   36.6300 C   0  0  0  0  0  0  0  0  0  0  0  0
   37.6750   31.4370   37.3720 C   0  0  0  0  0  0  0  0  0  0  0  0
   37.3690   31.4570   38.7000 N   0  0  0  0  0  0  0  0  0  0  0  0
   39.8552   28.7540   43.5953 H   0  0  0  0  0  0  0  0  0  0  0  0
   38.6800   26.5513   43.7987 H   0  0  0  0  0  0  0  0  0  0  0  0
   36.4011   26.2682   42.7292 H   0  0  0  0  0  0  0  0  0  0  0  0
   35.2764   28.8023   38.9674 H   0  0  0  0  0  0  0  0  0  0  0  0
   35.7950   28.7028   36.5162 H   0  0  0  0  0  0  0  0  0  0  0  0
   37.3134   30.3850   35.5544 H   0  0  0  0  0  0  0  0  0  0  0  0
   38.3498   32.1779   36.9184 H   0  0  0  0  0  0  0  0  0  0  0  0
  1  2  2  0
  3  2  1  0
  4  3  2  0
  5  4  1  0
  5  6  2  0
  6  1  1  0
  7  5  1  0
  8  7  1  0
  9  8  2  0
 10  9  1  0
 11 10  2  0
 11 12  1  0
 12 13  2  0
 13  8  1  0
  1 14  1  0
  2 15  1  0
  3 16  1  0
  9 17  1  0
 10 18  1  0
 11 19  1  0
 12 20  1  0
M  ISO  7  14  14  15  14  16  14  17  14  18  14  19  14  20  14
M  END
>  <minimizedAffinity>  (1) 
-3.96951962

>  <minimizedRMSD>  (1) 
2.93119693

$$$$
