
     RDKit          3D

 18 19  0  0  0  0  0  0  0  0999 V2000
   38.8580   28.6220   43.1260 C   0  0  0  0  0  0  0  0  0  0  0  0
   38.2280   27.3720   43.2200 C   0  0  0  0  0  0  0  0  0  0  0  0
   36.9780   27.2150   42.6120 C   0  0  0  0  0  0  0  0  0  0  0  0
   36.4320   28.2760   41.9590 N   0  0  0  0  0  0  0  0  0  0  0  0
   37.0630   29.4630   41.8880 C   0  0  0  0  0  0  0  0  0  0  0  0
   38.2670   29.6370   42.4650 N   0  0  0  0  0  0  0  0  0  0  0  0
   36.2960   30.8270   41.0160 S   0  0  0  0  0  0  0  0  0  0  0  0
   36.7310   30.7970   39.3200 C   0  0  0  0  0  0  0  0  0  0  0  0
   37.4550   31.7070   38.5880 C   0  0  0  0  0  0  0  0  0  0  0  0
   37.6950   31.5080   37.2530 C   0  0  0  0  0  0  0  0  0  0  0  0
   37.1050   30.2500   36.7340 C   0  0  0  0  0  0  0  0  0  0  0  0
   36.2920   29.5110   38.1770 S   0  0  0  0  0  0  0  0  0  0  0  0
   39.8412   28.7747   43.5951 H   0  0  0  0  0  0  0  0  0  0  0  0
   38.7039   26.5383   43.7571 H   0  0  0  0  0  0  0  0  0  0  0  0
   36.4472   26.2528   42.6610 H   0  0  0  0  0  0  0  0  0  0  0  0
   37.8479   32.6087   39.0806 H   0  0  0  0  0  0  0  0  0  0  0  0
   38.2675   32.2105   36.6295 H   0  0  0  0  0  0  0  0  0  0  0  0
   37.1502   29.8554   35.7082 H   0  0  0  0  0  0  0  0  0  0  0  0
  1  2  2  0
  3  2  1  0
  4  3  2  0
  5  4  1  0
  5  6  2  0
  6  1  1  0
  7  5  1  0
  8  7  1  0
  9  8  2  0
 10  9  1  0
 11 10  2  0
 11 12  1  0
 12  8  1  0
  1 13  1  0
  2 14  1  0
  3 15  1  0
  9 16  1  0
 10 17  1  0
 11 18  1  0
M  ISO  6  13  14  14  14  15  14  16  14  17  14  18  14
M  END
>  <minimizedAffinity>  (1) 
-3.77191114

>  <minimizedRMSD>  (1) 
1.08239114

$$$$
