
     RDKit          3D

 17 18  0  0  0  0  0  0  0  0999 V2000
   38.0440   28.5190   43.4360 C   0  0  0  0  0  0  0  0  0  0  0  0
   37.0200   27.6640   42.9910 C   0  0  0  0  0  0  0  0  0  0  0  0
   36.2630   28.0440   41.8610 C   0  0  0  0  0  0  0  0  0  0  0  0
   36.5850   29.2250   41.2770 N   0  0  0  0  0  0  0  0  0  0  0  0
   37.5690   30.0210   41.7230 C   0  0  0  0  0  0  0  0  0  0  0  0
   38.2970   29.6810   42.7900 N   0  0  0  0  0  0  0  0  0  0  0  0
   37.8120   31.2590   41.0080 C   0  0  0  0  0  0  0  0  0  0  0  0
   36.9250   31.9080   40.1020 C   0  0  0  0  0  0  0  0  0  0  0  0
   37.3920   33.0760   39.5510 C   0  0  0  0  0  0  0  0  0  0  0  0
   38.6230   33.5320   39.8840 C   0  0  0  0  0  0  0  0  0  0  0  0
   39.2790   32.3120   41.0580 S   0  0  0  0  0  0  0  0  0  0  0  0
   38.6436   28.2413   44.3154 H   0  0  0  0  0  0  0  0  0  0  0  0
   36.8128   26.7180   43.5127 H   0  0  0  0  0  0  0  0  0  0  0  0
   35.4506   27.4120   41.4728 H   0  0  0  0  0  0  0  0  0  0  0  0
   35.9322   31.5008   39.8598 H   0  0  0  0  0  0  0  0  0  0  0  0
   36.7682   33.6394   38.8414 H   0  0  0  0  0  0  0  0  0  0  0  0
   39.1186   34.4447   39.5214 H   0  0  0  0  0  0  0  0  0  0  0  0
  2  1  2  0
  3  2  1  0
  4  5  1  0
  4  3  2  0
  5  6  2  0
  6  1  1  0
  7 11  1  0
  7  5  1  0
  8  7  2  0
  9 10  2  0
  9  8  1  0
 10 11  1  0
  1 12  1  0
  2 13  1  0
  3 14  1  0
  8 15  1  0
  9 16  1  0
 10 17  1  0
M  ISO  6  12  14  13  14  14  14  15  14  16  14  17  14
M  END
>  <minimizedAffinity>  (1) 
-3.76933718

>  <minimizedRMSD>  (1) 
2.23312235

$$$$
