
     RDKit          3D

 18 19  0  0  0  0  0  0  0  0999 V2000
   37.2720   28.9330   41.8110 C   0  0  0  0  0  0  0  0  0  0  0  0
   36.0410   28.7860   41.1560 C   0  0  0  0  0  0  0  0  0  0  0  0
   35.5820   29.8310   40.3380 C   0  0  0  0  0  0  0  0  0  0  0  0
   36.3560   30.9360   40.2220 N   0  0  0  0  0  0  0  0  0  0  0  0
   37.5430   31.0470   40.8690 C   0  0  0  0  0  0  0  0  0  0  0  0
   37.9840   30.0570   41.6490 N   0  0  0  0  0  0  0  0  0  0  0  0
   38.5240   32.5370   40.6750 S   0  0  0  0  0  0  0  0  0  0  0  0
   40.0110   32.2520   37.0230 N   0  0  0  0  0  0  0  0  0  0  0  0
   39.0240   32.0580   37.8830 N   0  0  0  0  0  0  0  0  0  0  0  0
   39.3720   32.5000   39.1030 C   0  0  0  0  0  0  0  0  0  0  0  0
   40.6540   32.9930   38.9790 C   0  0  0  0  0  0  0  0  0  0  0  0
   41.0700   32.8390   37.6540 C   0  0  0  0  0  0  0  0  0  0  0  0
   37.6526   28.1276   42.4564 H   0  0  0  0  0  0  0  0  0  0  0  0
   35.4460   27.8693   41.2806 H   0  0  0  0  0  0  0  0  0  0  0  0
   34.6217   29.7542   39.8070 H   0  0  0  0  0  0  0  0  0  0  0  0
   39.9842   31.9978   36.0252 H   0  0  0  0  0  0  0  0  0  0  0  0
   41.2512   33.4350   39.7902 H   0  0  0  0  0  0  0  0  0  0  0  0
   42.0371   33.1271   37.2160 H   0  0  0  0  0  0  0  0  0  0  0  0
  2  1  2  0
  3  2  1  0
  4  3  2  0
  4  5  1  0
  5  6  2  0
  6  1  1  0
  7  5  1  0
  8 12  1  0
  8  9  1  0
  9 10  2  0
 10  7  1  0
 11 10  1  0
 12 11  2  0
  1 13  1  0
  2 14  1  0
  3 15  1  0
  8 16  1  0
 11 17  1  0
 12 18  1  0
M  ISO  6  13  14  14  14  15  14  16   9  17  14  18  14
M  END
>  <minimizedAffinity>  (1) 
-3.74000359

>  <minimizedRMSD>  (1) 
5.26614189

$$$$
