
     RDKit          3D

 32 35  0  0  0  0  0  0  0  0999 V2000
   39.7440   32.0830   37.0570 N   0  0  0  0  0  0  0  0  0  0  0  0
   38.5420   31.9450   37.6050 N   0  0  0  0  0  0  0  0  0  0  0  0
   38.5450   32.3640   38.8780 C   0  0  0  0  0  0  0  0  0  0  0  0
   39.8420   32.7900   39.1340 C   0  0  0  0  0  0  0  0  0  0  0  0
   40.6040   32.6080   37.9640 C   0  0  0  0  0  0  0  0  0  0  0  0
   41.9850   32.9460   37.8820 N   0  0  0  0  0  0  0  0  0  0  0  0
   42.4340   34.0410   38.5560 C   0  0  0  0  0  0  0  0  0  0  0  0
   43.7410   34.2380   38.3910 N   0  0  0  0  0  0  0  0  0  0  0  0
   44.1630   33.2340   37.5800 C   0  0  0  0  0  0  0  0  0  0  0  0
   45.3530   32.8090   37.0010 C   0  0  0  0  0  0  0  0  0  0  0  0
   46.3840   33.5100   37.2590 O   0  0  0  0  0  0  0  0  0  0  0  0
   45.3760   31.7240   36.2250 N   0  0  0  0  0  0  0  0  0  0  0  0
   44.2800   30.9840   35.9560 C   0  0  0  0  0  0  0  0  0  0  0  0
   44.5130   29.8620   35.1050 N   0  0  0  0  0  0  0  0  0  0  0  0
   43.0750   31.3410   36.4900 N   0  0  0  0  0  0  0  0  0  0  0  0
   43.0730   32.4430   37.2730 C   0  0  0  0  0  0  0  0  0  0  0  0
   37.2840   32.4420   40.1340 S   0  0  0  0  0  0  0  0  0  0  0  0
   37.5100   28.9950   42.1170 C   0  0  0  0  0  0  0  0  0  0  0  0
   36.3740   28.3030   41.6900 C   0  0  0  0  0  0  0  0  0  0  0  0
   35.5170   28.9080   40.7700 C   0  0  0  0  0  0  0  0  0  0  0  0
   35.8270   30.1540   40.3270 N   0  0  0  0  0  0  0  0  0  0  0  0
   36.9440   30.8010   40.7650 C   0  0  0  0  0  0  0  0  0  0  0  0
   37.7660   30.2290   41.6430 N   0  0  0  0  0  0  0  0  0  0  0  0
   39.9863   31.8293   36.0886 H   0  0  0  0  0  0  0  0  0  0  0  0
   40.2103   33.1990   40.0864 H   0  0  0  0  0  0  0  0  0  0  0  0
   41.7898   34.6897   39.1678 H   0  0  0  0  0  0  0  0  0  0  0  0
   46.2744   31.4371   35.8109 H   0  0  0  0  0  0  0  0  0  0  0  0
   43.7330   29.2409   34.8465 H   0  0  0  0  0  0  0  0  0  0  0  0
   45.4611   29.6734   34.7494 H   0  0  0  0  0  0  0  0  0  0  0  0
   38.1960   28.5313   42.8412 H   0  0  0  0  0  0  0  0  0  0  0  0
   36.1581   27.2950   42.0738 H   0  0  0  0  0  0  0  0  0  0  0  0
   34.6147   28.3899   40.4131 H   0  0  0  0  0  0  0  0  0  0  0  0
  1  2  1  0
  1  5  1  0
  2  3  2  0
  3  4  1  0
  3 17  1  0
  5  4  2  0
  6  5  1  0
  6  7  1  0
  8  7  2  0
  9  8  1  0
 10 11  2  0
 10  9  1  0
 12 10  1  0
 13 12  1  0
 13 15  2  0
 14 13  1  0
 15 16  1  0
 16  9  2  0
 16  6  1  0
 17 22  1  0
 19 18  2  0
 20 19  1  0
 21 22  1  0
 21 20  2  0
 22 23  2  0
 23 18  1  0
  1 24  1  0
  4 25  1  0
  7 26  1  0
 12 27  1  0
 14 28  1  0
 14 29  1  0
 18 30  1  0
 19 31  1  0
 20 32  1  0
M  ISO  7  24   9  25  14  26  14  27   9  30  14  31  14  32  14
M  END
>  <minimizedAffinity>  (1) 
-6.01139641

>  <minimizedRMSD>  (1) 
0.96202606

$$$$
