
     RDKit          3D

 31 34  0  0  0  0  0  0  0  0999 V2000
   39.7780   32.1120   37.0290 N   0  0  0  0  0  0  0  0  0  0  0  0
   38.5630   31.8460   37.4520 N   0  0  0  0  0  0  0  0  0  0  0  0
   38.4390   32.1900   38.7550 C   0  0  0  0  0  0  0  0  0  0  0  0
   39.6720   32.6930   39.1160 C   0  0  0  0  0  0  0  0  0  0  0  0
   40.5370   32.6520   38.0310 C   0  0  0  0  0  0  0  0  0  0  0  0
   41.8950   33.0720   37.9740 N   0  0  0  0  0  0  0  0  0  0  0  0
   42.3500   34.2030   38.5400 C   0  0  0  0  0  0  0  0  0  0  0  0
   43.6620   34.2480   38.2710 N   0  0  0  0  0  0  0  0  0  0  0  0
   44.0060   33.1650   37.5520 C   0  0  0  0  0  0  0  0  0  0  0  0
   45.1980   32.7200   37.0210 C   0  0  0  0  0  0  0  0  0  0  0  0
   45.2620   31.5710   36.3270 N   0  0  0  0  0  0  0  0  0  0  0  0
   44.1400   30.8200   36.1360 C   0  0  0  0  0  0  0  0  0  0  0  0
   42.9480   31.2410   36.6530 N   0  0  0  0  0  0  0  0  0  0  0  0
   42.8770   32.3780   37.3410 C   0  0  0  0  0  0  0  0  0  0  0  0
   46.3720   33.4970   37.2150 N   0  0  0  0  0  0  0  0  0  0  0  0
   37.0910   32.0960   39.9130 S   0  0  0  0  0  0  0  0  0  0  0  0
   37.2200   28.9050   42.2680 C   0  0  0  0  0  0  0  0  0  0  0  0
   36.7010   27.8760   41.4850 C   0  0  0  0  0  0  0  0  0  0  0  0
   36.2920   28.1830   40.1690 C   0  0  0  0  0  0  0  0  0  0  0  0
   36.4340   29.4580   39.7600 N   0  0  0  0  0  0  0  0  0  0  0  0
   36.9390   30.4320   40.5400 C   0  0  0  0  0  0  0  0  0  0  0  0
   37.3320   30.1510   41.7950 N   0  0  0  0  0  0  0  0  0  0  0  0
   40.1142   31.9374   36.0712 H   0  0  0  0  0  0  0  0  0  0  0  0
   39.9313   33.0708   40.1160 H   0  0  0  0  0  0  0  0  0  0  0  0
   41.7648   34.9411   39.1081 H   0  0  0  0  0  0  0  0  0  0  0  0
   44.1947   29.8795   35.5682 H   0  0  0  0  0  0  0  0  0  0  0  0
   47.2705   33.1787   36.8248 H   0  0  0  0  0  0  0  0  0  0  0  0
   46.3243   34.3784   37.7458 H   0  0  0  0  0  0  0  0  0  0  0  0
   37.5443   28.6881   43.2965 H   0  0  0  0  0  0  0  0  0  0  0  0
   36.6124   26.8535   41.8809 H   0  0  0  0  0  0  0  0  0  0  0  0
   35.8743   27.4120   39.5049 H   0  0  0  0  0  0  0  0  0  0  0  0
  1  2  1  0
  1  5  1  0
  2  3  2  0
  3  4  1  0
  3 16  1  0
  5  4  2  0
  6  5  1  0
  6  7  1  0
  8  7  2  0
  9  8  1  0
 10 15  1  0
 10  9  2  0
 11 10  1  0
 12 11  2  0
 12 13  1  0
 13 14  2  0
 14  9  1  0
 14  6  1  0
 16 21  1  0
 18 17  2  0
 19 18  1  0
 20 19  2  0
 20 21  1  0
 21 22  2  0
 22 17  1  0
  1 23  1  0
  4 24  1  0
  7 25  1  0
 12 26  1  0
 15 27  1  0
 15 28  1  0
 17 29  1  0
 18 30  1  0
 19 31  1  0
M  ISO  7  23   9  24  14  25  14  26  14  29  14  30  14  31  14
M  END
>  <minimizedAffinity>  (1) 
-5.36806345

>  <minimizedRMSD>  (1) 
1.24539042

$$$$
