
     RDKit          3D

 28 30  0  0  0  0  0  0  0  0999 V2000
   37.9840   32.7250   38.4920 N   0  0  0  0  0  0  0  0  0  0  0  0
   37.1370   31.7120   38.5880 N   0  0  0  0  0  0  0  0  0  0  0  0
   36.9080   31.3930   39.8720 C   0  0  0  0  0  0  0  0  0  0  0  0
   37.6740   32.2800   40.6130 C   0  0  0  0  0  0  0  0  0  0  0  0
   38.3500   33.1170   39.7370 C   0  0  0  0  0  0  0  0  0  0  0  0
   39.2720   34.2050   40.0240 C   0  0  0  0  0  0  0  0  0  0  0  0
   40.5810   33.8680   40.3010 C   0  0  0  0  0  0  0  0  0  0  0  0
   41.5150   34.8440   40.5840 C   0  0  0  0  0  0  0  0  0  0  0  0
   41.0510   36.1530   40.5700 C   0  0  0  0  0  0  0  0  0  0  0  0
   39.7390   36.5310   40.2960 C   0  0  0  0  0  0  0  0  0  0  0  0
   38.8250   35.5100   40.0140 C   0  0  0  0  0  0  0  0  0  0  0  0
   35.8990   30.1600   40.6770 S   0  0  0  0  0  0  0  0  0  0  0  0
   37.1940   27.1520   42.9230 C   0  0  0  0  0  0  0  0  0  0  0  0
   38.5530   27.0400   42.5860 C   0  0  0  0  0  0  0  0  0  0  0  0
   39.0840   27.9170   41.6400 C   0  0  0  0  0  0  0  0  0  0  0  0
   38.2600   28.8460   41.0820 N   0  0  0  0  0  0  0  0  0  0  0  0
   36.9580   28.9210   41.4340 C   0  0  0  0  0  0  0  0  0  0  0  0
   36.4350   28.0810   42.3440 N   0  0  0  0  0  0  0  0  0  0  0  0
   38.3124   33.1477   37.6120 H   0  0  0  0  0  0  0  0  0  0  0  0
   37.7354   32.3143   41.7107 H   0  0  0  0  0  0  0  0  0  0  0  0
   40.8834   32.8104   40.2962 H   0  0  0  0  0  0  0  0  0  0  0  0
   42.5640   34.5997   40.8073 H   0  0  0  0  0  0  0  0  0  0  0  0
   41.7744   36.9514   40.7921 H   0  0  0  0  0  0  0  0  0  0  0  0
   39.4341   37.5879   40.3011 H   0  0  0  0  0  0  0  0  0  0  0  0
   37.7736   35.7426   39.7894 H   0  0  0  0  0  0  0  0  0  0  0  0
   36.7554   26.4708   43.6670 H   0  0  0  0  0  0  0  0  0  0  0  0
   39.1865   26.2753   43.0591 H   0  0  0  0  0  0  0  0  0  0  0  0
   40.1439   27.8593   41.3516 H   0  0  0  0  0  0  0  0  0  0  0  0
  1  2  1  0
  1  5  1  0
  2  3  2  0
  3  4  1  0
  3 12  1  0
  5  6  1  0
  5  4  2  0
  6  7  2  0
  7  8  1  0
  9  8  2  0
 10  9  1  0
 11  6  1  0
 11 10  2  0
 12 17  1  0
 14 13  2  0
 15 14  1  0
 16 17  1  0
 16 15  2  0
 17 18  2  0
 18 13  1  0
  1 19  1  0
  4 20  1  0
  7 21  1  0
  8 22  1  0
  9 23  1  0
 10 24  1  0
 11 25  1  0
 13 26  1  0
 14 27  1  0
 15 28  1  0
M  ISO  8  19   9  20  14  21  14  22  14  23  14  24  14  25  14  26  14
M  ISO  2  27  14  28  14
M  END
>  <minimizedAffinity>  (1) 
-5.321733

>  <minimizedRMSD>  (1) 
3.99148321

$$$$
