
     RDKit          3D

 25 27  0  0  0  0  0  0  0  0999 V2000
   38.5520   32.4450   38.4380 N   0  0  0  0  0  0  0  0  0  0  0  0
   37.7110   31.4460   38.5840 N   0  0  0  0  0  0  0  0  0  0  0  0
   37.1840   31.4630   39.8270 C   0  0  0  0  0  0  0  0  0  0  0  0
   37.7600   32.5500   40.4490 C   0  0  0  0  0  0  0  0  0  0  0  0
   38.6350   33.1900   39.5830 C   0  0  0  0  0  0  0  0  0  0  0  0
   39.4340   34.3460   39.8150 N   0  0  0  0  0  0  0  0  0  0  0  0
   40.7330   34.4950   39.7810 N   0  0  0  0  0  0  0  0  0  0  0  0
   41.0880   35.7650   40.0640 C   0  0  0  0  0  0  0  0  0  0  0  0
   39.9070   36.4750   40.2970 C   0  0  0  0  0  0  0  0  0  0  0  0
   38.8700   35.5480   40.1330 C   0  0  0  0  0  0  0  0  0  0  0  0
   36.0030   30.4160   40.6660 S   0  0  0  0  0  0  0  0  0  0  0  0
   38.6920   28.8300   43.1360 C   0  0  0  0  0  0  0  0  0  0  0  0
   38.1730   27.5650   43.4330 C   0  0  0  0  0  0  0  0  0  0  0  0
   36.9580   27.1940   42.8500 C   0  0  0  0  0  0  0  0  0  0  0  0
   36.3280   28.0750   42.0210 N   0  0  0  0  0  0  0  0  0  0  0  0
   36.8760   29.2940   41.7670 C   0  0  0  0  0  0  0  0  0  0  0  0
   38.0350   29.6500   42.3200 N   0  0  0  0  0  0  0  0  0  0  0  0
   39.0794   32.6415   37.5753 H   0  0  0  0  0  0  0  0  0  0  0  0
   37.5554   32.8647   41.4830 H   0  0  0  0  0  0  0  0  0  0  0  0
   42.1117   36.1655   40.1038 H   0  0  0  0  0  0  0  0  0  0  0  0
   39.8117   37.5400   40.5554 H   0  0  0  0  0  0  0  0  0  0  0  0
   37.7944   35.7518   40.2410 H   0  0  0  0  0  0  0  0  0  0  0  0
   39.6473   29.1478   43.5791 H   0  0  0  0  0  0  0  0  0  0  0  0
   38.7074   26.8802   44.1079 H   0  0  0  0  0  0  0  0  0  0  0  0
   36.5171   26.2076   43.0564 H   0  0  0  0  0  0  0  0  0  0  0  0
  1  2  1  0
  1  5  1  0
  2  3  2  0
  3  4  1  0
  3 11  1  0
  5  6  1  0
  5  4  2  0
  6 10  1  0
  7  6  1  0
  7  8  2  0
  8  9  1  0
 10  9  2  0
 11 16  1  0
 12 13  2  0
 14 13  1  0
 15 14  2  0
 16 15  1  0
 16 17  2  0
 17 12  1  0
  1 18  1  0
  4 19  1  0
  8 20  1  0
  9 21  1  0
 10 22  1  0
 12 23  1  0
 13 24  1  0
 14 25  1  0
M  ISO  8  18   9  19  14  20  14  21  14  22  14  23  14  24  14  25  14
M  END
>  <minimizedAffinity>  (1) 
-5.19808149

>  <minimizedRMSD>  (1) 
3.62401247

$$$$
