
     RDKit          3D

 31 33  0  0  0  0  0  0  0  0999 V2000
   38.9650   32.3720   38.4990 N   0  0  0  0  0  0  0  0  0  0  0  0
   38.0670   31.4510   38.7630 N   0  0  0  0  0  0  0  0  0  0  0  0
   37.5360   31.6480   39.9790 C   0  0  0  0  0  0  0  0  0  0  0  0
   38.1660   32.7790   40.4830 C   0  0  0  0  0  0  0  0  0  0  0  0
   39.0770   33.2490   39.5510 C   0  0  0  0  0  0  0  0  0  0  0  0
   39.9250   34.4420   39.7610 C   0  0  0  0  0  0  0  0  0  0  0  0
   39.3150   35.4470   40.6850 C   0  0  0  0  0  0  0  0  0  0  0  0
   40.4940   36.3800   40.8930 C   0  0  0  0  0  0  0  0  0  0  0  0
   41.6750   35.4600   40.9480 C   0  0  0  0  0  0  0  0  0  0  0  0
   41.1590   34.0700   40.5650 C   0  0  0  0  0  0  0  0  0  0  0  0
   36.2910   30.7640   40.9100 S   0  0  0  0  0  0  0  0  0  0  0  0
   38.8450   28.6560   43.1370 C   0  0  0  0  0  0  0  0  0  0  0  0
   38.2040   27.4320   43.3060 C   0  0  0  0  0  0  0  0  0  0  0  0
   36.9500   27.2520   42.7170 C   0  0  0  0  0  0  0  0  0  0  0  0
   36.4200   28.2800   42.0090 N   0  0  0  0  0  0  0  0  0  0  0  0
   37.0630   29.4580   41.8610 C   0  0  0  0  0  0  0  0  0  0  0  0
   38.2570   29.6330   42.4200 N   0  0  0  0  0  0  0  0  0  0  0  0
   39.5089   32.4290   37.6262 H   0  0  0  0  0  0  0  0  0  0  0  0
   37.9720   33.2303   41.4672 H   0  0  0  0  0  0  0  0  0  0  0  0
   40.0960   34.8259   38.7444 H   0  0  0  0  0  0  0  0  0  0  0  0
   38.4644   35.9649   40.2179 H   0  0  0  0  0  0  0  0  0  0  0  0
   38.8949   35.0248   41.6098 H   0  0  0  0  0  0  0  0  0  0  0  0
   40.5868   37.0865   40.0550 H   0  0  0  0  0  0  0  0  0  0  0  0
   40.3932   36.9961   41.7987 H   0  0  0  0  0  0  0  0  0  0  0  0
   42.4467   35.7887   40.2363 H   0  0  0  0  0  0  0  0  0  0  0  0
   42.1296   35.4544   41.9497 H   0  0  0  0  0  0  0  0  0  0  0  0
   40.9004   33.4744   41.4529 H   0  0  0  0  0  0  0  0  0  0  0  0
   41.8856   33.4451   40.0250 H   0  0  0  0  0  0  0  0  0  0  0  0
   39.8331   28.8256   43.5896 H   0  0  0  0  0  0  0  0  0  0  0  0
   38.6734   26.6260   43.8892 H   0  0  0  0  0  0  0  0  0  0  0  0
   36.4069   26.3015   42.8247 H   0  0  0  0  0  0  0  0  0  0  0  0
  1  2  1  0
  1  5  1  0
  2  3  2  0
  3  4  1  0
  3 11  1  0
  5  6  1  0
  5  4  2  0
  6 10  1  0
  6  7  1  0
  7  8  1  0
  8  9  1  0
 10  9  1  0
 11 16  1  0
 12 13  2  0
 14 13  1  0
 15 14  2  0
 16 15  1  0
 16 17  2  0
 17 12  1  0
  1 18  1  0
  4 19  1  0
  6 20  1  0
  7 21  1  0
  7 22  1  0
  8 23  1  0
  8 24  1  0
  9 25  1  0
  9 26  1  0
 10 27  1  0
 10 28  1  0
 12 29  1  0
 13 30  1  0
 14 31  1  0
M  ISO  8  18   9  19  14  20  13  21  13  22  13  23  13  24  13  25  13
M  ISO  6  26  13  27  13  28  13  29  14  30  14  31  14
M  END
>  <minimizedAffinity>  (1) 
-5.12915611

>  <minimizedRMSD>  (1) 
3.46731448

$$$$
