
     RDKit          3D

 24 26  0  0  0  0  0  0  0  0999 V2000
   39.8000   32.7370   39.2410 N   0  0  0  0  0  0  0  0  0  0  0  0
   40.4380   33.8860   39.2020 N   0  0  0  0  0  0  0  0  0  0  0  0
   40.0840   34.6540   40.2400 C   0  0  0  0  0  0  0  0  0  0  0  0
   39.1740   33.9110   40.9420 C   0  0  0  0  0  0  0  0  0  0  0  0
   38.9840   32.6880   40.3180 C   0  0  0  0  0  0  0  0  0  0  0  0
   38.0820   31.6050   40.7650 C   0  0  0  0  0  0  0  0  0  0  0  0
   38.6050   30.5540   41.5310 C   0  0  0  0  0  0  0  0  0  0  0  0
   37.1510   29.4780   41.8440 S   0  0  0  0  0  0  0  0  0  0  0  0
   36.0540   30.6720   40.8560 C   0  0  0  0  0  0  0  0  0  0  0  0
   36.7880   31.4600   40.5480 N   0  0  0  0  0  0  0  0  0  0  0  0
   40.5480   36.2870   40.7850 S   0  0  0  0  0  0  0  0  0  0  0  0
   43.9890   35.1120   42.4170 C   0  0  0  0  0  0  0  0  0  0  0  0
   44.1640   36.0140   43.4890 C   0  0  0  0  0  0  0  0  0  0  0  0
   43.2090   37.0020   43.7150 C   0  0  0  0  0  0  0  0  0  0  0  0
   42.1560   37.0340   42.8790 N   0  0  0  0  0  0  0  0  0  0  0  0
   41.9930   36.1690   41.8550 C   0  0  0  0  0  0  0  0  0  0  0  0
   42.9020   35.2230   41.6340 N   0  0  0  0  0  0  0  0  0  0  0  0
   39.9067   31.9814   38.5492 H   0  0  0  0  0  0  0  0  0  0  0  0
   38.6689   34.2358   41.8636 H   0  0  0  0  0  0  0  0  0  0  0  0
   39.6426   30.4083   41.8658 H   0  0  0  0  0  0  0  0  0  0  0  0
   34.9771   30.6068   40.6417 H   0  0  0  0  0  0  0  0  0  0  0  0
   44.7345   34.3264   42.2245 H   0  0  0  0  0  0  0  0  0  0  0  0
   45.0472   35.9370   44.1402 H   0  0  0  0  0  0  0  0  0  0  0  0
   43.3112   37.7231   44.5394 H   0  0  0  0  0  0  0  0  0  0  0  0
  1  5  1  0
  2  1  1  0
  2  3  2  0
  3 11  1  0
  3  4  1  0
  5  6  1  0
  5  4  2  0
  6  7  2  0
  7  8  1  0
  9  8  1  0
 10  6  1  0
 10  9  2  0
 11 16  1  0
 12 13  2  0
 13 14  1  0
 15 14  2  0
 16 15  1  0
 17 16  2  0
 17 12  1  0
  1 18  1  0
  4 19  1  0
  7 20  1  0
  9 21  1  0
 12 22  1  0
 13 23  1  0
 14 24  1  0
M  ISO  7  18   9  19  14  20  14  21  14  22  14  23  14  24  14
M  END
>  <minimizedAffinity>  (1) 
-5.12005472

>  <minimizedRMSD>  (1) 
7.31404352

$$$$
