
     RDKit          3D

 26 28  0  0  0  0  0  0  0  0999 V2000
   41.3040   31.4810   42.5750 N   0  0  0  0  0  0  0  0  0  0  0  0
   42.4460   32.1270   42.4230 N   0  0  0  0  0  0  0  0  0  0  0  0
   42.4040   32.9710   41.3900 C   0  0  0  0  0  0  0  0  0  0  0  0
   41.1420   32.8300   40.8740 C   0  0  0  0  0  0  0  0  0  0  0  0
   40.4380   31.8910   41.6130 C   0  0  0  0  0  0  0  0  0  0  0  0
   39.0620   31.4660   41.3750 C   0  0  0  0  0  0  0  0  0  0  0  0
   38.2480   32.2510   40.5850 C   0  0  0  0  0  0  0  0  0  0  0  0
   36.9380   31.9110   40.3170 C   0  0  0  0  0  0  0  0  0  0  0  0
   36.4530   30.7600   40.8610 N   0  0  0  0  0  0  0  0  0  0  0  0
   37.2350   29.9900   41.6310 C   0  0  0  0  0  0  0  0  0  0  0  0
   38.5110   30.3370   41.8810 N   0  0  0  0  0  0  0  0  0  0  0  0
   43.5870   34.1020   40.6820 S   0  0  0  0  0  0  0  0  0  0  0  0
   45.8420   36.4780   42.9260 C   0  0  0  0  0  0  0  0  0  0  0  0
   44.9270   37.0870   43.7970 C   0  0  0  0  0  0  0  0  0  0  0  0
   43.5620   36.7550   43.6920 C   0  0  0  0  0  0  0  0  0  0  0  0
   43.1930   35.8550   42.7470 N   0  0  0  0  0  0  0  0  0  0  0  0
   44.1140   35.2850   41.9190 C   0  0  0  0  0  0  0  0  0  0  0  0
   45.4110   35.5980   42.0150 N   0  0  0  0  0  0  0  0  0  0  0  0
   41.1034   30.7812   43.3036 H   0  0  0  0  0  0  0  0  0  0  0  0
   40.7476   33.3783   40.0058 H   0  0  0  0  0  0  0  0  0  0  0  0
   38.6563   33.1775   40.1550 H   0  0  0  0  0  0  0  0  0  0  0  0
   36.3047   32.5496   39.6836 H   0  0  0  0  0  0  0  0  0  0  0  0
   36.8289   29.0637   42.0635 H   0  0  0  0  0  0  0  0  0  0  0  0
   46.9123   36.7234   42.9917 H   0  0  0  0  0  0  0  0  0  0  0  0
   45.2696   37.8121   44.5499 H   0  0  0  0  0  0  0  0  0  0  0  0
   42.8160   37.2131   44.3581 H   0  0  0  0  0  0  0  0  0  0  0  0
  2  1  1  0
  3  2  2  0
  4  3  1  0
  4  5  2  0
  5  1  1  0
  6  5  1  0
  6 11  1  0
  7  6  2  0
  8  7  1  0
  8  9  2  0
  9 10  1  0
 10 11  2  0
 12  3  1  0
 12 17  1  0
 13 14  2  0
 15 14  1  0
 16 15  2  0
 17 18  2  0
 17 16  1  0
 18 13  1  0
  1 19  1  0
  4 20  1  0
  7 21  1  0
  8 22  1  0
 10 23  1  0
 13 24  1  0
 14 25  1  0
 15 26  1  0
M  ISO  8  19   9  20  14  21  14  22  14  23  14  24  14  25  14  26  14
M  END
>  <minimizedAffinity>  (1) 
-5.00812197

>  <minimizedRMSD>  (1) 
7.99837685

$$$$
