
     RDKit          3D

 30 32  0  0  0  0  0  0  0  0999 V2000
   39.5470   32.0740   36.9340 N   0  0  0  0  0  0  0  0  0  0  0  0
   38.3760   31.9900   37.5640 N   0  0  0  0  0  0  0  0  0  0  0  0
   38.5300   32.3460   38.8520 C   0  0  0  0  0  0  0  0  0  0  0  0
   39.8650   32.6670   39.0180 C   0  0  0  0  0  0  0  0  0  0  0  0
   40.5030   32.4910   37.7990 C   0  0  0  0  0  0  0  0  0  0  0  0
   41.8660   32.6860   37.4430 N   0  0  0  0  0  0  0  0  0  0  0  0
   42.5310   33.9680   37.5790 C   0  0  0  0  0  0  0  0  0  0  0  0
   44.0050   33.6100   37.5140 C   0  0  0  0  0  0  0  0  0  0  0  0
   44.0770   32.1040   37.6290 C   0  0  0  0  0  0  0  0  0  0  0  0
   42.7830   31.6920   36.9140 C   0  0  0  0  0  0  0  0  0  0  0  0
   37.3910   32.4600   40.2350 S   0  0  0  0  0  0  0  0  0  0  0  0
   37.4680   28.9640   42.1200 C   0  0  0  0  0  0  0  0  0  0  0  0
   36.3230   28.3010   41.6660 C   0  0  0  0  0  0  0  0  0  0  0  0
   35.4980   28.9540   40.7460 C   0  0  0  0  0  0  0  0  0  0  0  0
   35.8440   30.2000   40.3370 N   0  0  0  0  0  0  0  0  0  0  0  0
   36.9640   30.8110   40.7990 C   0  0  0  0  0  0  0  0  0  0  0  0
   37.7600   30.2000   41.6760 N   0  0  0  0  0  0  0  0  0  0  0  0
   39.7021   31.8550   35.9396 H   0  0  0  0  0  0  0  0  0  0  0  0
   40.3378   33.0029   39.9527 H   0  0  0  0  0  0  0  0  0  0  0  0
   42.2538   34.6441   36.7568 H   0  0  0  0  0  0  0  0  0  0  0  0
   42.2584   34.4965   38.5044 H   0  0  0  0  0  0  0  0  0  0  0  0
   44.4362   33.9408   36.5576 H   0  0  0  0  0  0  0  0  0  0  0  0
   44.5735   34.1017   38.3172 H   0  0  0  0  0  0  0  0  0  0  0  0
   44.9653   31.7022   37.1195 H   0  0  0  0  0  0  0  0  0  0  0  0
   44.1625   31.7322   38.6607 H   0  0  0  0  0  0  0  0  0  0  0  0
   42.4763   30.6708   37.1842 H   0  0  0  0  0  0  0  0  0  0  0  0
   42.8515   31.6669   35.8164 H   0  0  0  0  0  0  0  0  0  0  0  0
   38.1336   28.4719   42.8444 H   0  0  0  0  0  0  0  0  0  0  0  0
   36.0779   27.2903   42.0243 H   0  0  0  0  0  0  0  0  0  0  0  0
   34.5886   28.4684   40.3623 H   0  0  0  0  0  0  0  0  0  0  0  0
  1  2  1  0
  1  5  1  0
  2  3  2  0
  3  4  1  0
  3 11  1  0
  5  4  2  0
  6  7  1  0
  6  5  1  0
  8  7  1  0
  8  9  1  0
 10  6  1  0
 10  9  1  0
 11 16  1  0
 13 12  2  0
 14 13  1  0
 15 14  2  0
 15 16  1  0
 16 17  2  0
 17 12  1  0
  1 18  1  0
  4 19  1  0
  7 20  1  0
  7 21  1  0
  8 22  1  0
  8 23  1  0
  9 24  1  0
  9 25  1  0
 10 26  1  0
 10 27  1  0
 12 28  1  0
 13 29  1  0
 14 30  1  0
M  ISO  8  18   9  19  14  20  13  21  13  22  13  23  13  24  13  25  13
M  ISO  5  26  13  27  13  28  14  29  14  30  14
M  END
>  <minimizedAffinity>  (1) 
-4.6807704

>  <minimizedRMSD>  (1) 
0.876167834

$$$$
