
     RDKit          3D

 25 27  0  0  0  0  0  0  0  0999 V2000
   39.6210   32.0980   36.9850 N   0  0  0  0  0  0  0  0  0  0  0  0
   38.4140   31.9640   37.5230 N   0  0  0  0  0  0  0  0  0  0  0  0
   38.4080   32.3690   38.7950 C   0  0  0  0  0  0  0  0  0  0  0  0
   39.6900   32.7760   39.0530 C   0  0  0  0  0  0  0  0  0  0  0  0
   40.4640   32.6080   37.9160 C   0  0  0  0  0  0  0  0  0  0  0  0
   41.8760   32.9180   37.7650 C   0  0  0  0  0  0  0  0  0  0  0  0
   42.9120   32.2500   38.3630 C   0  0  0  0  0  0  0  0  0  0  0  0
   44.0430   32.8680   37.9480 N   0  0  0  0  0  0  0  0  0  0  0  0
   43.7040   33.8940   37.1140 C   0  0  0  0  0  0  0  0  0  0  0  0
   42.3630   33.9070   37.0150 N   0  0  0  0  0  0  0  0  0  0  0  0
   37.1400   32.4480   40.0480 S   0  0  0  0  0  0  0  0  0  0  0  0
   37.4670   29.0700   42.1080 C   0  0  0  0  0  0  0  0  0  0  0  0
   36.3580   28.3120   41.6900 C   0  0  0  0  0  0  0  0  0  0  0  0
   35.4830   28.8550   40.7470 C   0  0  0  0  0  0  0  0  0  0  0  0
   35.7570   30.0940   40.2850 N   0  0  0  0  0  0  0  0  0  0  0  0
   36.8280   30.8050   40.6990 C   0  0  0  0  0  0  0  0  0  0  0  0
   37.6750   30.2890   41.6070 N   0  0  0  0  0  0  0  0  0  0  0  0
   39.8752   31.8539   36.0172 H   0  0  0  0  0  0  0  0  0  0  0  0
   40.0493   33.1743   40.0134 H   0  0  0  0  0  0  0  0  0  0  0  0
   42.8397   31.3875   39.0418 H   0  0  0  0  0  0  0  0  0  0  0  0
   44.4002   34.5838   36.6144 H   0  0  0  0  0  0  0  0  0  0  0  0
   41.8066   34.5686   36.4550 H   0  0  0  0  0  0  0  0  0  0  0  0
   38.1652   28.6562   42.8505 H   0  0  0  0  0  0  0  0  0  0  0  0
   36.1828   27.3064   42.1000 H   0  0  0  0  0  0  0  0  0  0  0  0
   34.6044   28.2951   40.3941 H   0  0  0  0  0  0  0  0  0  0  0  0
  1  2  1  0
  1  5  1  0
  2  3  2  0
  3  4  1  0
  3 11  1  0
  5  4  2  0
  6  5  1  0
  6  7  2  0
  8  7  1  0
  9  8  2  0
 10  9  1  0
 10  6  1  0
 11 16  1  0
 13 12  2  0
 14 13  1  0
 15 16  1  0
 15 14  2  0
 16 17  2  0
 17 12  1  0
  1 18  1  0
  4 19  1  0
  7 20  1  0
  9 21  1  0
 10 22  1  0
 12 23  1  0
 13 24  1  0
 14 25  1  0
M  ISO  8  18   9  19  14  20  14  21  14  22   9  23  14  24  14  25  14
M  END
>  <minimizedAffinity>  (1) 
-4.60723639

>  <minimizedRMSD>  (1) 
0.987556577

$$$$
