
     RDKit          3D

 35 36  0  0  1  0  0  0  0  0999 V2000
   40.0320   32.1230   41.0500 C   0  0  0  0  0  0  0  0  0  0  0  0
   39.5970   30.8620   41.5410 C   0  0  0  0  0  0  0  0  0  0  0  0
   38.2660   30.5350   41.4530 C   0  0  0  0  0  0  0  0  0  0  0  0
   37.4060   31.4440   40.8890 N   0  0  0  0  0  0  0  0  0  0  0  0
   37.8580   32.6400   40.4300 C   0  0  0  0  0  0  0  0  0  0  0  0
   39.1530   32.9810   40.5070 N   0  0  0  0  0  0  0  0  0  0  0  0
   36.8890   33.5340   39.8540 N   0  0  0  0  0  0  0  0  0  0  0  0
   37.7820   29.2940   41.9260 N   0  0  0  0  0  0  0  0  0  0  0  0
   37.9480   28.9320   43.3010 C   0  0  0  0  0  0  0  0  0  0  0  0
   36.8670   27.8940   43.6150 C   0  0  0  0  0  0  0  0  0  0  0  0
   36.9010   26.7450   42.7740 N   0  0  0  0  0  0  0  0  0  0  0  0
   37.3760   26.9690   41.4450 C   0  0  0  0  0  0  0  0  0  0  0  0
   37.1220   28.3950   41.0160 C   0  0  2  0  0  0  0  0  0  0  0  0
   37.5290   28.6150   39.5810 C   0  0  0  0  0  0  0  0  0  0  0  0
   36.8200   29.8120   38.9730 C   0  0  0  0  0  0  0  0  0  0  0  0
   39.0370   28.7890   39.5750 C   0  0  0  0  0  0  0  0  0  0  0  0
   41.0951   32.3978   41.1152 H   0  0  0  0  0  0  0  0  0  0  0  0
   40.3162   30.1581   41.9851 H   0  0  0  0  0  0  0  0  0  0  0  0
   35.8985   33.2562   39.8028 H   0  0  0  0  0  0  0  0  0  0  0  0
   37.1858   34.4518   39.4929 H   0  0  0  0  0  0  0  0  0  0  0  0
   38.9468   28.5000   43.4616 H   0  0  0  0  0  0  0  0  0  0  0  0
   37.8555   29.8109   43.9560 H   0  0  0  0  0  0  0  0  0  0  0  0
   36.9974   27.5638   44.6561 H   0  0  0  0  0  0  0  0  0  0  0  0
   35.8975   28.3842   43.4425 H   0  0  0  0  0  0  0  0  0  0  0  0
   37.5144   26.0459   43.2166 H   0  0  0  0  0  0  0  0  0  0  0  0
   38.4572   26.7694   41.4104 H   0  0  0  0  0  0  0  0  0  0  0  0
   36.8393   26.2949   40.7612 H   0  0  0  0  0  0  0  0  0  0  0  0
   36.0429   28.6038   41.0588 H   0  0  0  0  0  0  0  0  0  0  0  0
   37.2378   27.7554   38.9595 H   0  0  0  0  0  0  0  0  0  0  0  0
   36.4371   30.4584   39.7765 H   0  0  0  0  0  0  0  0  0  0  0  0
   37.5274   30.3801   38.3510 H   0  0  0  0  0  0  0  0  0  0  0  0
   35.9818   29.4647   38.3510 H   0  0  0  0  0  0  0  0  0  0  0  0
   39.4053   28.8315   40.6106 H   0  0  0  0  0  0  0  0  0  0  0  0
   39.5022   27.9386   39.0550 H   0  0  0  0  0  0  0  0  0  0  0  0
   39.2963   29.7230   39.0550 H   0  0  0  0  0  0  0  0  0  0  0  0
  1  2  2  0
  3  2  1  0
  3  8  1  0
  4  3  2  0
  5  6  2  0
  5  4  1  0
  6  1  1  0
  7  5  1  0
  8  9  1  0
  9 10  1  0
 11 10  1  0
 12 11  1  0
 13 12  1  0
 13  8  1  0
 14 13  1  0
 15 14  1  0
 16 14  1  0
  1 17  1  0
  2 18  1  0
  7 19  1  0
  7 20  1  0
  9 21  1  0
  9 22  1  0
 10 23  1  0
 10 24  1  0
 11 25  1  0
 12 26  1  0
 12 27  1  0
 13 28  1  6
 14 29  1  0
 15 30  1  0
 15 31  1  0
 15 32  1  0
 16 33  1  0
 16 34  1  0
 16 35  1  0
M  ISO  8  17  14  18  14  21  13  22  13  23  13  24  13  25   5  26  13
M  ISO  8  27  13  28  13  29   8  30   8  31   8  32   8  33   8  34   8
M  ISO  1  35   8
M  END
>  <minimizedAffinity>  (1) 
-4.80513716

>  <minimizedRMSD>  (1) 
0.641122341

$$$$
