
     RDKit          3D

 27 28  0  0  0  0  0  0  0  0999 V2000
   38.3020   32.5690   40.6090 S   0  0  0  0  0  0  0  0  0  0  0  0
   37.0580   29.0180   41.8860 C   0  0  0  0  0  0  0  0  0  0  0  0
   35.9270   28.7570   41.1150 C   0  0  0  0  0  0  0  0  0  0  0  0
   35.5330   29.7080   40.1650 C   0  0  0  0  0  0  0  0  0  0  0  0
   36.2740   30.8480   40.0410 N   0  0  0  0  0  0  0  0  0  0  0  0
   37.3690   31.0580   40.8160 C   0  0  0  0  0  0  0  0  0  0  0  0
   37.7430   30.1550   41.7170 N   0  0  0  0  0  0  0  0  0  0  0  0
   39.9820   32.1950   37.0390 N   0  0  0  0  0  0  0  0  0  0  0  0
   38.9630   31.9930   37.8570 N   0  0  0  0  0  0  0  0  0  0  0  0
   39.2330   32.5050   39.0810 C   0  0  0  0  0  0  0  0  0  0  0  0
   40.5000   33.0560   38.9980 C   0  0  0  0  0  0  0  0  0  0  0  0
   40.9830   32.8610   37.6980 C   0  0  0  0  0  0  0  0  0  0  0  0
   42.2970   33.2890   37.1680 C   0  0  0  0  0  0  0  0  0  0  0  0
   43.3350   32.1680   37.3190 C   0  0  0  0  0  0  0  0  0  0  0  0
   42.8210   34.5210   37.8270 C   0  0  0  0  0  0  0  0  0  0  0  0
   37.3893   28.2859   42.6371 H   0  0  0  0  0  0  0  0  0  0  0  0
   35.3569   27.8259   41.2493 H   0  0  0  0  0  0  0  0  0  0  0  0
   34.6477   29.5403   39.5340 H   0  0  0  0  0  0  0  0  0  0  0  0
   40.0184   31.8966   36.0538 H   0  0  0  0  0  0  0  0  0  0  0  0
   41.0365   33.5613   39.8146 H   0  0  0  0  0  0  0  0  0  0  0  0
   42.1319   33.5183   36.1049 H   0  0  0  0  0  0  0  0  0  0  0  0
   43.5136   31.9751   38.3871 H   0  0  0  0  0  0  0  0  0  0  0  0
   42.9586   31.2526   36.8390 H   0  0  0  0  0  0  0  0  0  0  0  0
   44.2766   32.4731   36.8390 H   0  0  0  0  0  0  0  0  0  0  0  0
   42.7705   34.4023   38.9194 H   0  0  0  0  0  0  0  0  0  0  0  0
   43.8659   34.6829   37.5237 H   0  0  0  0  0  0  0  0  0  0  0  0
   42.2129   35.3860   37.5237 H   0  0  0  0  0  0  0  0  0  0  0  0
  1  6  1  0
  3  2  2  0
  4  3  1  0
  5  4  2  0
  5  6  1  0
  6  7  2  0
  7  2  1  0
  8 12  1  0
  8  9  1  0
  9 10  2  0
 10  1  1  0
 11 10  1  0
 12 11  2  0
 13 14  1  0
 13 12  1  0
 13 15  1  0
  2 16  1  0
  3 17  1  0
  4 18  1  0
  8 19  1  0
 11 20  1  0
 13 21  1  0
 14 22  1  0
 14 23  1  0
 14 24  1  0
 15 25  1  0
 15 26  1  0
 15 27  1  0
M  ISO  8  16  14  17  14  18  14  19   9  20  14  21   8  22   8  23   8
M  ISO  4  24   8  25   8  26   8  27   8
M  END
>  <minimizedAffinity>  (1) 
-4.34602737

>  <minimizedRMSD>  (1) 
0.511564612

$$$$
