
     RDKit          3D

 24 25  0  0  0  0  0  0  0  0999 V2000
   37.1940   33.5900   39.4030 S   0  0  0  0  0  0  0  0  0  0  0  0
   36.5990   30.0800   41.1980 C   0  0  0  0  0  0  0  0  0  0  0  0
   36.6740   29.1640   40.1440 C   0  0  0  0  0  0  0  0  0  0  0  0
   36.9140   29.6370   38.8450 C   0  0  0  0  0  0  0  0  0  0  0  0
   37.0660   30.9760   38.6610 N   0  0  0  0  0  0  0  0  0  0  0  0
   36.9870   31.8340   39.7080 C   0  0  0  0  0  0  0  0  0  0  0  0
   36.7580   31.3940   40.9480 N   0  0  0  0  0  0  0  0  0  0  0  0
   40.7300   34.3400   40.9810 N   0  0  0  0  0  0  0  0  0  0  0  0
   39.7980   33.5040   40.5830 N   0  0  0  0  0  0  0  0  0  0  0  0
   38.7430   34.1540   40.0880 C   0  0  0  0  0  0  0  0  0  0  0  0
   39.0510   35.4900   40.1900 C   0  0  0  0  0  0  0  0  0  0  0  0
   40.3250   35.6160   40.7620 C   0  0  0  0  0  0  0  0  0  0  0  0
   41.0960   36.8180   41.0770 C   0  0  0  0  0  0  0  0  0  0  0  0
   42.0040   36.6760   42.2540 C   0  0  0  0  0  0  0  0  0  0  0  0
   36.4115   29.7300   42.2238 H   0  0  0  0  0  0  0  0  0  0  0  0
   36.5466   28.0875   40.3307 H   0  0  0  0  0  0  0  0  0  0  0  0
   36.9777   28.9412   37.9954 H   0  0  0  0  0  0  0  0  0  0  0  0
   41.6322   34.0676   41.3967 H   0  0  0  0  0  0  0  0  0  0  0  0
   38.4048   36.3225   39.8749 H   0  0  0  0  0  0  0  0  0  0  0  0
   41.7075   37.0746   40.1994 H   0  0  0  0  0  0  0  0  0  0  0  0
   40.3672   37.6006   41.3346 H   0  0  0  0  0  0  0  0  0  0  0  0
   41.4193   36.7674   43.1813 H   0  0  0  0  0  0  0  0  0  0  0  0
   42.4920   35.6906   42.2239 H   0  0  0  0  0  0  0  0  0  0  0  0
   42.7695   37.4653   42.2239 H   0  0  0  0  0  0  0  0  0  0  0  0
  1  6  1  0
  1 10  1  0
  3  2  2  0
  4  3  1  0
  5  4  2  0
  5  6  1  0
  6  7  2  0
  7  2  1  0
  9  8  1  0
 10 11  1  0
 10  9  2  0
 11 12  2  0
 12  8  1  0
 12 13  1  0
 13 14  1  0
  2 15  1  0
  3 16  1  0
  4 17  1  0
  8 18  1  0
 11 19  1  0
 13 20  1  0
 13 21  1  0
 14 22  1  0
 14 23  1  0
 14 24  1  0
M  ISO  8  15  14  16  14  17  14  18   9  19  14  20   8  21   8  22   8
M  ISO  2  23   8  24   8
M  END
>  <minimizedAffinity>  (1) 
-4.33114719

>  <minimizedRMSD>  (1) 
3.54528689

$$$$
