
     RDKit          3D

 29 30  0  0  1  0  0  0  0  0999 V2000
   39.8400   31.9210   41.4960 C   0  0  0  0  0  0  0  0  0  0  0  0
   39.3950   30.6330   41.9070 C   0  0  0  0  0  0  0  0  0  0  0  0
   38.1010   30.2650   41.6300 C   0  0  0  0  0  0  0  0  0  0  0  0
   37.2970   31.1570   40.9700 N   0  0  0  0  0  0  0  0  0  0  0  0
   37.7500   32.3700   40.5950 C   0  0  0  0  0  0  0  0  0  0  0  0
   39.0070   32.7540   40.8530 N   0  0  0  0  0  0  0  0  0  0  0  0
   36.8440   33.2480   39.9070 N   0  0  0  0  0  0  0  0  0  0  0  0
   37.5940   29.0010   42.0090 N   0  0  0  0  0  0  0  0  0  0  0  0
   37.5910   28.6150   43.3960 C   0  0  0  0  0  0  0  0  0  0  0  0
   36.5280   27.5190   43.5370 C   0  0  0  0  0  0  0  0  0  0  0  0
   36.7980   26.3850   42.7080 N   0  0  0  0  0  0  0  0  0  0  0  0
   37.3650   26.6730   41.4410 C   0  0  0  0  0  0  0  0  0  0  0  0
   37.0760   28.0950   41.0090 C   0  0  2  0  0  0  0  0  0  0  0  0
   37.7330   28.4050   39.7180 C   0  0  0  0  0  0  0  0  0  0  0  0
   38.9080   28.0420   39.3760 O   0  0  0  0  0  0  0  0  0  0  0  0
   37.1360   29.1380   38.7070 O   0  0  0  0  0  0  0  0  0  0  0  0
   40.8728   32.2355   41.7066 H   0  0  0  0  0  0  0  0  0  0  0  0
   40.0731   29.9467   42.4354 H   0  0  0  0  0  0  0  0  0  0  0  0
   35.8793   32.9436   39.7132 H   0  0  0  0  0  0  0  0  0  0  0  0
   37.1593   34.1817   39.6077 H   0  0  0  0  0  0  0  0  0  0  0  0
   38.5787   28.2267   43.6851 H   0  0  0  0  0  0  0  0  0  0  0  0
   37.3693   29.4724   44.0485 H   0  0  0  0  0  0  0  0  0  0  0  0
   36.4975   27.1899   44.5862 H   0  0  0  0  0  0  0  0  0  0  0  0
   35.5648   27.9443   43.2187 H   0  0  0  0  0  0  0  0  0  0  0  0
   37.4508   25.7703   43.2149 H   0  0  0  0  0  0  0  0  0  0  0  0
   38.4545   26.5319   41.4975 H   0  0  0  0  0  0  0  0  0  0  0  0
   36.9174   25.9922   40.7020 H   0  0  0  0  0  0  0  0  0  0  0  0
   35.9880   28.2080   40.8932 H   0  0  0  0  0  0  0  0  0  0  0  0
   37.6274   29.3122   37.8654 H   0  0  0  0  0  0  0  0  0  0  0  0
  1  2  2  0
  3  2  1  0
  3  8  1  0
  4  3  2  0
  5  6  2  0
  5  4  1  0
  6  1  1  0
  7  5  1  0
  8  9  1  0
  9 10  1  0
 11 10  1  0
 12 11  1  0
 13 12  1  0
 13  8  1  0
 14 13  1  0
 15 14  2  0
 16 14  1  0
  1 17  1  0
  2 18  1  0
  7 19  1  0
  7 20  1  0
  9 21  1  0
  9 22  1  0
 10 23  1  0
 10 24  1  0
 11 25  1  0
 12 26  1  0
 12 27  1  0
 13 28  1  6
 16 29  1  0
M  ISO  8  17  14  18  14  21  13  22  13  23  13  24  13  25   5  26  13
M  ISO  3  27  13  28  13  29   3
M  END
>  <minimizedAffinity>  (1) 
-4.70096731

>  <minimizedRMSD>  (1) 
0.451284677

$$$$
