
     RDKit          3D

 39 43  0  0  0  0  0  0  0  0999 V2000
   37.3630   33.7440   40.0160 N   0  0  0  0  0  0  0  0  0  0  0  0
   37.7780   34.9660   39.7460 N   0  0  0  0  0  0  0  0  0  0  0  0
   39.0270   35.1200   40.2260 C   0  0  0  0  0  0  0  0  0  0  0  0
   39.3210   33.9020   40.7950 C   0  0  0  0  0  0  0  0  0  0  0  0
   38.2480   33.0160   40.6600 C   0  0  0  0  0  0  0  0  0  0  0  0
   38.3340   31.6970   41.2010 C   0  0  0  0  0  0  0  0  0  0  0  0
   39.3960   31.3630   41.9670 N   0  0  0  0  0  0  0  0  0  0  0  0
   39.6030   30.1960   42.5440 C   0  0  0  0  0  0  0  0  0  0  0  0
   38.7360   29.1830   42.4170 N   0  0  0  0  0  0  0  0  0  0  0  0
   37.6290   29.3960   41.6700 C   0  0  0  0  0  0  0  0  0  0  0  0
   36.7150   28.3910   41.5100 C   0  0  0  0  0  0  0  0  0  0  0  0
   35.5660   28.5710   40.7470 C   0  0  0  0  0  0  0  0  0  0  0  0
   35.4040   29.8320   40.1580 C   0  0  0  0  0  0  0  0  0  0  0  0
   36.3660   30.7860   40.3670 C   0  0  0  0  0  0  0  0  0  0  0  0
   37.4940   30.6350   41.1080 C   0  0  0  0  0  0  0  0  0  0  0  0
   40.1760   36.4910   40.2400 S   0  0  0  0  0  0  0  0  0  0  0  0
   43.4750   34.7000   41.5590 C   0  0  0  0  0  0  0  0  0  0  0  0
   43.8210   35.4020   42.6970 C   0  0  0  0  0  0  0  0  0  0  0  0
   43.0210   36.4680   43.0890 C   0  0  0  0  0  0  0  0  0  0  0  0
   41.9340   36.7630   42.3250 N   0  0  0  0  0  0  0  0  0  0  0  0
   41.6290   36.0420   41.2050 C   0  0  0  0  0  0  0  0  0  0  0  0
   42.4020   35.0320   40.8490 N   0  0  0  0  0  0  0  0  0  0  0  0
   43.3360   37.2600   44.2990 C   0  0  0  0  0  0  0  0  0  0  0  0
   44.3410   36.7500   45.2950 C   0  0  0  0  0  0  0  0  0  0  0  0
   44.6980   37.9060   44.4020 C   0  0  0  0  0  0  0  0  0  0  0  0
   36.4327   33.3928   39.7475 H   0  0  0  0  0  0  0  0  0  0  0  0
   40.2727   33.6582   41.2898 H   0  0  0  0  0  0  0  0  0  0  0  0
   40.5121   30.0502   43.1459 H   0  0  0  0  0  0  0  0  0  0  0  0
   36.8924   27.4198   41.9950 H   0  0  0  0  0  0  0  0  0  0  0  0
   34.8259   27.7683   40.6135 H   0  0  0  0  0  0  0  0  0  0  0  0
   34.5214   30.0523   39.5395 H   0  0  0  0  0  0  0  0  0  0  0  0
   36.2097   31.7649   39.8901 H   0  0  0  0  0  0  0  0  0  0  0  0
   44.0975   33.8528   41.2353 H   0  0  0  0  0  0  0  0  0  0  0  0
   44.7108   35.1231   43.2804 H   0  0  0  0  0  0  0  0  0  0  0  0
   42.2931   37.6033   44.3660 H   0  0  0  0  0  0  0  0  0  0  0  0
   44.1811   36.9159   46.3706 H   0  0  0  0  0  0  0  0  0  0  0  0
   44.7899   35.7694   45.5118 H   0  0  0  0  0  0  0  0  0  0  0  0
   45.4334   37.7715   43.5951 H   0  0  0  0  0  0  0  0  0  0  0  0
   45.0635   38.9308   44.5636 H   0  0  0  0  0  0  0  0  0  0  0  0
  1  5  1  0
  2  1  1  0
  2  3  2  0
  3 16  1  0
  3  4  1  0
  5  4  2  0
  5  6  1  0
  6  7  2  0
  7  8  1  0
  9  8  2  0
 10  9  1  0
 11 10  2  0
 12 11  1  0
 13 14  1  0
 13 12  2  0
 14 15  2  0
 15  6  1  0
 15 10  1  0
 16 21  1  0
 17 18  2  0
 18 19  1  0
 19 23  1  0
 20 19  2  0
 21 20  1  0
 22 21  2  0
 22 17  1  0
 23 25  1  0
 23 24  1  0
 25 24  1  0
  1 26  1  0
  4 27  1  0
  8 28  1  0
 11 29  1  0
 12 30  1  0
 13 31  1  0
 14 32  1  0
 17 33  1  0
 18 34  1  0
 23 35  1  0
 24 36  1  0
 24 37  1  0
 25 38  1  0
 25 39  1  0
M  ISO  8  26   9  27  14  28  14  29  14  30  14  31  14  32  14  33  14
M  ISO  6  34  14  35  13  36  13  37  13  38  13  39  13
M  END
>  <minimizedAffinity>  (1) 
-7.70426083

>  <minimizedRMSD>  (1) 
0.923510015

$$$$
