
     RDKit          3D

 45 49  0  0  0  0  0  0  0  0999 V2000
   38.5750   33.6020   40.8350 N   0  0  0  0  0  0  0  0  0  0  0  0
   39.3710   34.3640   40.1100 N   0  0  0  0  0  0  0  0  0  0  0  0
   40.3230   33.5940   39.5480 C   0  0  0  0  0  0  0  0  0  0  0  0
   40.0320   32.3250   39.9890 C   0  0  0  0  0  0  0  0  0  0  0  0
   38.9060   32.3300   40.8190 C   0  0  0  0  0  0  0  0  0  0  0  0
   38.4400   31.1110   41.4040 C   0  0  0  0  0  0  0  0  0  0  0  0
   39.1090   30.5770   42.4510 N   0  0  0  0  0  0  0  0  0  0  0  0
   38.7900   29.4710   43.0980 C   0  0  0  0  0  0  0  0  0  0  0  0
   37.7230   28.7430   42.7590 N   0  0  0  0  0  0  0  0  0  0  0  0
   36.9700   29.1750   41.7230 C   0  0  0  0  0  0  0  0  0  0  0  0
   35.8580   28.4610   41.3340 C   0  0  0  0  0  0  0  0  0  0  0  0
   35.0650   28.8820   40.2710 C   0  0  0  0  0  0  0  0  0  0  0  0
   35.4590   30.0550   39.6300 C   0  0  0  0  0  0  0  0  0  0  0  0
   36.5750   30.7070   40.0760 C   0  0  0  0  0  0  0  0  0  0  0  0
   37.3720   30.3280   41.1090 C   0  0  0  0  0  0  0  0  0  0  0  0
   41.7150   33.9480   38.4840 S   0  0  0  0  0  0  0  0  0  0  0  0
   45.4840   34.2450   39.7270 C   0  0  0  0  0  0  0  0  0  0  0  0
   45.3720   34.6950   41.0490 C   0  0  0  0  0  0  0  0  0  0  0  0
   44.1090   34.9130   41.5780 C   0  0  0  0  0  0  0  0  0  0  0  0
   43.0340   34.6780   40.7820 N   0  0  0  0  0  0  0  0  0  0  0  0
   43.1760   34.2400   39.4940 C   0  0  0  0  0  0  0  0  0  0  0  0
   44.3940   34.0320   38.9920 N   0  0  0  0  0  0  0  0  0  0  0  0
   43.9580   35.3830   42.9590 C   0  0  0  0  0  0  0  0  0  0  0  0
   43.0360   36.5400   43.1370 C   0  0  0  0  0  0  0  0  0  0  0  0
   43.3920   37.0700   44.5150 C   0  0  0  0  0  0  0  0  0  0  0  0
   44.7720   36.5120   44.8430 C   0  0  0  0  0  0  0  0  0  0  0  0
   45.2700   35.9260   43.5170 C   0  0  0  0  0  0  0  0  0  0  0  0
   37.7706   33.9688   41.3634 H   0  0  0  0  0  0  0  0  0  0  0  0
   40.6077   31.4257   39.7246 H   0  0  0  0  0  0  0  0  0  0  0  0
   39.4192   29.1409   43.9377 H   0  0  0  0  0  0  0  0  0  0  0  0
   35.5919   27.5404   41.8741 H   0  0  0  0  0  0  0  0  0  0  0  0
   34.1748   28.3191   39.9536 H   0  0  0  0  0  0  0  0  0  0  0  0
   34.8824   30.4494   38.7803 H   0  0  0  0  0  0  0  0  0  0  0  0
   36.8552   31.6294   39.5462 H   0  0  0  0  0  0  0  0  0  0  0  0
   46.4789   34.0664   39.2932 H   0  0  0  0  0  0  0  0  0  0  0  0
   46.2712   34.8724   41.6573 H   0  0  0  0  0  0  0  0  0  0  0  0
   43.5767   34.4836   43.4646 H   0  0  0  0  0  0  0  0  0  0  0  0
   43.2105   37.3039   42.3650 H   0  0  0  0  0  0  0  0  0  0  0  0
   41.9760   36.2603   43.0468 H   0  0  0  0  0  0  0  0  0  0  0  0
   43.4180   38.1697   44.5054 H   0  0  0  0  0  0  0  0  0  0  0  0
   42.6481   36.7651   45.2657 H   0  0  0  0  0  0  0  0  0  0  0  0
   45.4424   37.3113   45.1918 H   0  0  0  0  0  0  0  0  0  0  0  0
   44.7414   35.7628   45.6478 H   0  0  0  0  0  0  0  0  0  0  0  0
   46.0084   35.1262   43.6757 H   0  0  0  0  0  0  0  0  0  0  0  0
   45.7926   36.6389   42.8622 H   0  0  0  0  0  0  0  0  0  0  0  0
  2  1  1  0
  3  4  1  0
  3  2  2  0
  4  5  2  0
  5  1  1  0
  5  6  1  0
  6  7  2  0
  7  8  1  0
  9  8  2  0
 10  9  1  0
 11 10  2  0
 12 11  1  0
 13 14  1  0
 13 12  2  0
 14 15  2  0
 15  6  1  0
 15 10  1  0
 16 21  1  0
 16  3  1  0
 17 18  2  0
 18 19  1  0
 19 23  1  0
 20 19  2  0
 21 20  1  0
 22 21  2  0
 22 17  1  0
 23 24  1  0
 23 27  1  0
 24 25  1  0
 25 26  1  0
 27 26  1  0
  1 28  1  0
  4 29  1  0
  8 30  1  0
 11 31  1  0
 12 32  1  0
 13 33  1  0
 14 34  1  0
 17 35  1  0
 18 36  1  0
 23 37  1  0
 24 38  1  0
 24 39  1  0
 25 40  1  0
 25 41  1  0
 26 42  1  0
 26 43  1  0
 27 44  1  0
 27 45  1  0
M  ISO  8  28   9  29  14  30  14  31  14  32  14  33  14  34  14  35  14
M  ISO  8  36  14  37  13  38  13  39  13  40  13  41  13  42  13  43  13
M  ISO  2  44  13  45  13
M  END
>  <minimizedAffinity>  (1) 
-7.10853672

>  <minimizedRMSD>  (1) 
2.16617417

$$$$
