
     RDKit          3D

 52 56  0  0  0  0  0  0  0  0999 V2000
   37.2960   33.5110   40.0890 N   0  0  0  0  0  0  0  0  0  0  0  0
   37.7340   34.7100   39.7930 N   0  0  0  0  0  0  0  0  0  0  0  0
   39.0280   34.8190   40.2060 C   0  0  0  0  0  0  0  0  0  0  0  0
   39.3070   33.5770   40.7630 C   0  0  0  0  0  0  0  0  0  0  0  0
   38.1630   32.7510   40.6750 C   0  0  0  0  0  0  0  0  0  0  0  0
   38.2080   31.4510   41.2300 C   0  0  0  0  0  0  0  0  0  0  0  0
   39.2590   31.1030   42.0320 N   0  0  0  0  0  0  0  0  0  0  0  0
   39.4040   29.9430   42.6470 C   0  0  0  0  0  0  0  0  0  0  0  0
   38.5120   28.9570   42.5500 N   0  0  0  0  0  0  0  0  0  0  0  0
   37.4200   29.1840   41.7780 C   0  0  0  0  0  0  0  0  0  0  0  0
   36.4700   28.2160   41.6240 C   0  0  0  0  0  0  0  0  0  0  0  0
   35.3500   28.4080   40.8330 C   0  0  0  0  0  0  0  0  0  0  0  0
   35.2480   29.6490   40.1980 C   0  0  0  0  0  0  0  0  0  0  0  0
   36.2470   30.5660   40.4070 C   0  0  0  0  0  0  0  0  0  0  0  0
   37.3420   30.4070   41.1710 C   0  0  0  0  0  0  0  0  0  0  0  0
   40.2330   36.1510   40.1920 S   0  0  0  0  0  0  0  0  0  0  0  0
   43.6590   34.1540   40.2820 C   0  0  0  0  0  0  0  0  0  0  0  0
   44.2410   34.5280   41.4670 C   0  0  0  0  0  0  0  0  0  0  0  0
   43.5950   35.4350   42.3060 C   0  0  0  0  0  0  0  0  0  0  0  0
   42.3810   35.9120   41.8940 N   0  0  0  0  0  0  0  0  0  0  0  0
   41.8330   35.5140   40.7100 C   0  0  0  0  0  0  0  0  0  0  0  0
   42.4610   34.6550   39.9250 N   0  0  0  0  0  0  0  0  0  0  0  0
   44.2660   35.8440   43.5430 C   0  0  0  0  0  0  0  0  0  0  0  0
   45.5200   35.1920   43.8360 C   0  0  0  0  0  0  0  0  0  0  0  0
   45.3740   33.9570   44.5650 N   0  0  0  0  0  0  0  0  0  0  0  0
   45.3720   34.1870   45.9500 C   0  0  0  0  0  0  0  0  0  0  0  0
   46.6800   33.9910   46.6570 C   0  0  0  0  0  0  0  0  0  0  0  0
   47.4780   32.9190   46.1430 N   0  0  0  0  0  0  0  0  0  0  0  0
   47.6910   33.1310   44.7260 C   0  0  0  0  0  0  0  0  0  0  0  0
   46.3240   32.9920   44.0880 C   0  0  0  0  0  0  0  0  0  0  0  0
   36.3386   33.1990   39.8725 H   0  0  0  0  0  0  0  0  0  0  0  0
   40.2702   33.2817   41.2047 H   0  0  0  0  0  0  0  0  0  0  0  0
   40.2993   29.7837   43.2659 H   0  0  0  0  0  0  0  0  0  0  0  0
   36.5980   27.2550   42.1437 H   0  0  0  0  0  0  0  0  0  0  0  0
   34.5839   27.6281   40.7112 H   0  0  0  0  0  0  0  0  0  0  0  0
   34.3913   29.8838   39.5492 H   0  0  0  0  0  0  0  0  0  0  0  0
   36.1409   31.5339   39.8953 H   0  0  0  0  0  0  0  0  0  0  0  0
   44.1735   33.4415   39.6204 H   0  0  0  0  0  0  0  0  0  0  0  0
   45.2177   34.1120   41.7552 H   0  0  0  0  0  0  0  0  0  0  0  0
   44.4575   36.9253   43.4787 H   0  0  0  0  0  0  0  0  0  0  0  0
   43.5859   35.5508   44.3563 H   0  0  0  0  0  0  0  0  0  0  0  0
   46.0297   34.9761   42.8854 H   0  0  0  0  0  0  0  0  0  0  0  0
   46.0969   35.8766   44.4752 H   0  0  0  0  0  0  0  0  0  0  0  0
   45.0531   35.2265   46.1169 H   0  0  0  0  0  0  0  0  0  0  0  0
   44.6936   33.4310   46.3723 H   0  0  0  0  0  0  0  0  0  0  0  0
   47.2595   34.9221   46.5718 H   0  0  0  0  0  0  0  0  0  0  0  0
   46.4371   33.7292   47.6974 H   0  0  0  0  0  0  0  0  0  0  0  0
   48.3854   32.8991   46.6300 H   0  0  0  0  0  0  0  0  0  0  0  0
   48.1000   34.1359   44.5445 H   0  0  0  0  0  0  0  0  0  0  0  0
   48.4119   32.4124   44.3089 H   0  0  0  0  0  0  0  0  0  0  0  0
   45.9380   31.9851   44.3053 H   0  0  0  0  0  0  0  0  0  0  0  0
   46.4491   33.1639   43.0087 H   0  0  0  0  0  0  0  0  0  0  0  0
  1  5  1  0
  2  1  1  0
  2  3  2  0
  3  4  1  0
  5  4  2  0
  5  6  1  0
  6  7  2  0
  7  8  1  0
  9  8  2  0
 10  9  1  0
 11 10  2  0
 12 11  1  0
 13 14  1  0
 13 12  2  0
 14 15  2  0
 15  6  1  0
 15 10  1  0
 16  3  1  0
 16 21  1  0
 17 18  2  0
 18 19  1  0
 19 23  1  0
 20 19  2  0
 21 20  1  0
 22 17  1  0
 22 21  2  0
 23 24  1  0
 24 25  1  0
 25 26  1  0
 26 27  1  0
 28 27  1  0
 29 28  1  0
 30 25  1  0
 30 29  1  0
  1 31  1  0
  4 32  1  0
  8 33  1  0
 11 34  1  0
 12 35  1  0
 13 36  1  0
 14 37  1  0
 17 38  1  0
 18 39  1  0
 23 40  1  0
 23 41  1  0
 24 42  1  0
 24 43  1  0
 26 44  1  0
 26 45  1  0
 27 46  1  0
 27 47  1  0
 28 48  1  0
 29 49  1  0
 29 50  1  0
 30 51  1  0
 30 52  1  0
M  ISO  8  31   9  32  14  33  14  34  14  35  14  36  14  37  14  38  14
M  ISO  8  39  14  40   8  41   8  42   8  43   8  44  13  45  13  46  13
M  ISO  6  47  13  48   5  49  13  50  13  51  13  52  13
M  END
>  <minimizedAffinity>  (1) 
-7.1163702

>  <minimizedRMSD>  (1) 
1.62145042

$$$$
