
     RDKit          3D

 53 57  0  0  0  0  0  0  0  0999 V2000
   37.1820   33.4020   39.8910 N   0  0  0  0  0  0  0  0  0  0  0  0
   37.6440   34.6250   39.8190 N   0  0  0  0  0  0  0  0  0  0  0  0
   38.8540   34.6690   40.4410 C   0  0  0  0  0  0  0  0  0  0  0  0
   39.0600   33.3670   40.8780 C   0  0  0  0  0  0  0  0  0  0  0  0
   37.9560   32.5670   40.5080 C   0  0  0  0  0  0  0  0  0  0  0  0
   37.9270   31.2100   40.8980 C   0  0  0  0  0  0  0  0  0  0  0  0
   38.6730   30.7970   41.9650 N   0  0  0  0  0  0  0  0  0  0  0  0
   38.7070   29.5800   42.4620 C   0  0  0  0  0  0  0  0  0  0  0  0
   37.9870   28.5760   41.9580 N   0  0  0  0  0  0  0  0  0  0  0  0
   37.2030   28.8570   40.8900 C   0  0  0  0  0  0  0  0  0  0  0  0
   36.4460   27.8750   40.3190 C   0  0  0  0  0  0  0  0  0  0  0  0
   35.6380   28.1280   39.2110 C   0  0  0  0  0  0  0  0  0  0  0  0
   35.6480   29.4270   38.7260 C   0  0  0  0  0  0  0  0  0  0  0  0
   36.4380   30.3550   39.3620 C   0  0  0  0  0  0  0  0  0  0  0  0
   37.2250   30.1460   40.4320 C   0  0  0  0  0  0  0  0  0  0  0  0
   40.0310   35.9870   40.7890 S   0  0  0  0  0  0  0  0  0  0  0  0
   43.2600   33.8660   39.9200 C   0  0  0  0  0  0  0  0  0  0  0  0
   44.2170   34.2940   40.8570 C   0  0  0  0  0  0  0  0  0  0  0  0
   43.8690   35.2470   41.7750 C   0  0  0  0  0  0  0  0  0  0  0  0
   42.5970   35.7260   41.7230 N   0  0  0  0  0  0  0  0  0  0  0  0
   41.6930   35.3090   40.8230 C   0  0  0  0  0  0  0  0  0  0  0  0
   42.0270   34.3940   39.9420 N   0  0  0  0  0  0  0  0  0  0  0  0
   44.8910   35.6630   42.7540 C   0  0  0  0  0  0  0  0  0  0  0  0
   44.9360   34.8670   43.9910 C   0  0  0  0  0  0  0  0  0  0  0  0
   45.7620   33.7160   44.0330 N   0  0  0  0  0  0  0  0  0  0  0  0
   44.9060   32.5530   44.1290 C   0  0  0  0  0  0  0  0  0  0  0  0
   45.0650   31.7930   45.4110 C   0  0  0  0  0  0  0  0  0  0  0  0
   45.0550   32.7390   46.5940 C   0  0  0  0  0  0  0  0  0  0  0  0
   46.0650   33.8440   46.4540 C   0  0  0  0  0  0  0  0  0  0  0  0
   46.7200   33.6940   45.0910 C   0  0  0  0  0  0  0  0  0  0  0  0
   36.2749   33.1259   39.4888 H   0  0  0  0  0  0  0  0  0  0  0  0
   39.9453   33.0135   41.4270 H   0  0  0  0  0  0  0  0  0  0  0  0
   39.3552   29.3816   43.3283 H   0  0  0  0  0  0  0  0  0  0  0  0
   36.4740   26.8603   40.7428 H   0  0  0  0  0  0  0  0  0  0  0  0
   35.0262   27.3403   38.7471 H   0  0  0  0  0  0  0  0  0  0  0  0
   35.0390   29.7079   37.8541 H   0  0  0  0  0  0  0  0  0  0  0  0
   36.4249   31.3759   38.9525 H   0  0  0  0  0  0  0  0  0  0  0  0
   43.5210   33.1021   39.1728 H   0  0  0  0  0  0  0  0  0  0  0  0
   45.2314   33.8686   40.8521 H   0  0  0  0  0  0  0  0  0  0  0  0
   45.8755   35.5929   42.2684 H   0  0  0  0  0  0  0  0  0  0  0  0
   44.6226   36.6852   43.0590 H   0  0  0  0  0  0  0  0  0  0  0  0
   45.2747   35.5374   44.7946 H   0  0  0  0  0  0  0  0  0  0  0  0
   43.9162   34.4659   44.0863 H   0  0  0  0  0  0  0  0  0  0  0  0
   43.8600   32.8839   44.0487 H   0  0  0  0  0  0  0  0  0  0  0  0
   45.1944   31.8730   43.3139 H   0  0  0  0  0  0  0  0  0  0  0  0
   44.2357   31.0775   45.5128 H   0  0  0  0  0  0  0  0  0  0  0  0
   46.0265   31.2591   45.3909 H   0  0  0  0  0  0  0  0  0  0  0  0
   44.0533   33.1851   46.6809 H   0  0  0  0  0  0  0  0  0  0  0  0
   45.3168   32.1574   47.4902 H   0  0  0  0  0  0  0  0  0  0  0  0
   45.5649   34.8212   46.5249 H   0  0  0  0  0  0  0  0  0  0  0  0
   46.8175   33.7848   47.2541 H   0  0  0  0  0  0  0  0  0  0  0  0
   47.2613   32.7369   45.0603 H   0  0  0  0  0  0  0  0  0  0  0  0
   47.4049   34.5427   44.9475 H   0  0  0  0  0  0  0  0  0  0  0  0
  1  5  1  0
  2  1  1  0
  2  3  2  0
  3 16  1  0
  3  4  1  0
  5  4  2  0
  5  6  1  0
  6  7  2  0
  7  8  1  0
  9  8  2  0
 10  9  1  0
 11 10  2  0
 12 11  1  0
 13 12  2  0
 13 14  1  0
 14 15  2  0
 15 10  1  0
 15  6  1  0
 16 21  1  0
 17 22  2  0
 17 18  1  0
 18 19  2  0
 19 23  1  0
 20 19  1  0
 21 20  2  0
 22 21  1  0
 23 24  1  0
 24 25  1  0
 25 26  1  0
 25 30  1  0
 26 27  1  0
 27 28  1  0
 29 28  1  0
 30 29  1  0
  1 31  1  0
  4 32  1  0
  8 33  1  0
 11 34  1  0
 12 35  1  0
 13 36  1  0
 14 37  1  0
 17 38  1  0
 18 39  1  0
 23 40  1  0
 23 41  1  0
 24 42  1  0
 24 43  1  0
 26 44  1  0
 26 45  1  0
 27 46  1  0
 27 47  1  0
 28 48  1  0
 28 49  1  0
 29 50  1  0
 29 51  1  0
 30 52  1  0
 30 53  1  0
M  ISO  8  31   9  32  14  33  14  34  14  35  14  36  14  37  14  38  14
M  ISO  8  39  14  40   8  41   8  42   8  43   8  44  13  45  13  46  13
M  ISO  7  47  13  48  13  49  13  50  13  51  13  52  13  53  13
M  END
>  <minimizedAffinity>  (1) 
-6.92445517

>  <minimizedRMSD>  (1) 
1.51874638

$$$$
