
     RDKit          3D

 50 54  0  0  0  0  0  0  0  0999 V2000
   36.7240   30.3060   39.2550 N   0  0  0  0  0  0  0  0  0  0  0  0
   36.8590   31.5200   38.7900 N   0  0  0  0  0  0  0  0  0  0  0  0
   37.4810   32.2820   39.7330 C   0  0  0  0  0  0  0  0  0  0  0  0
   37.7000   31.4030   40.7850 C   0  0  0  0  0  0  0  0  0  0  0  0
   37.1960   30.1270   40.4470 C   0  0  0  0  0  0  0  0  0  0  0  0
   37.2730   29.0800   41.3930 C   0  0  0  0  0  0  0  0  0  0  0  0
   37.4720   29.3810   42.7120 N   0  0  0  0  0  0  0  0  0  0  0  0
   37.5260   28.5140   43.7030 C   0  0  0  0  0  0  0  0  0  0  0  0
   37.3860   27.2030   43.5110 N   0  0  0  0  0  0  0  0  0  0  0  0
   37.1850   26.7720   42.2440 C   0  0  0  0  0  0  0  0  0  0  0  0
   37.0390   25.4390   41.9850 C   0  0  0  0  0  0  0  0  0  0  0  0
   36.8380   24.9690   40.6850 C   0  0  0  0  0  0  0  0  0  0  0  0
   36.7950   25.9310   39.6780 C   0  0  0  0  0  0  0  0  0  0  0  0
   36.9510   27.2470   40.0330 C   0  0  0  0  0  0  0  0  0  0  0  0
   37.1440   27.7330   41.2740 C   0  0  0  0  0  0  0  0  0  0  0  0
   37.9390   34.0180   39.8360 S   0  0  0  0  0  0  0  0  0  0  0  0
   41.7930   33.5300   39.0690 C   0  0  0  0  0  0  0  0  0  0  0  0
   42.4390   34.3840   39.9750 C   0  0  0  0  0  0  0  0  0  0  0  0
   41.6790   35.1210   40.8480 C   0  0  0  0  0  0  0  0  0  0  0  0
   40.3350   34.9800   40.7810 N   0  0  0  0  0  0  0  0  0  0  0  0
   39.7270   34.1630   39.9120 C   0  0  0  0  0  0  0  0  0  0  0  0
   40.4550   33.4500   39.0700 N   0  0  0  0  0  0  0  0  0  0  0  0
   42.3850   36.0190   41.7810 C   0  0  0  0  0  0  0  0  0  0  0  0
   43.4220   35.3570   42.6170 C   0  0  0  0  0  0  0  0  0  0  0  0
   44.6290   36.1730   42.7170 N   0  0  0  0  0  0  0  0  0  0  0  0
   45.7780   35.3890   43.0880 C   0  0  0  0  0  0  0  0  0  0  0  0
   45.4490   35.0060   44.5180 C   0  0  0  0  0  0  0  0  0  0  0  0
   44.5850   36.1580   45.0290 C   0  0  0  0  0  0  0  0  0  0  0  0
   44.4860   37.0790   43.8360 C   0  0  0  0  0  0  0  0  0  0  0  0
   36.2771   29.5510   38.7154 H   0  0  0  0  0  0  0  0  0  0  0  0
   38.1904   31.6603   41.7354 H   0  0  0  0  0  0  0  0  0  0  0  0
   37.6925   28.8858   44.7248 H   0  0  0  0  0  0  0  0  0  0  0  0
   37.0805   24.7208   42.8171 H   0  0  0  0  0  0  0  0  0  0  0  0
   36.7200   23.8971   40.4680 H   0  0  0  0  0  0  0  0  0  0  0  0
   36.6403   25.6433   38.6276 H   0  0  0  0  0  0  0  0  0  0  0  0
   36.9145   27.9837   39.2170 H   0  0  0  0  0  0  0  0  0  0  0  0
   42.3818   32.9286   38.3608 H   0  0  0  0  0  0  0  0  0  0  0  0
   43.5362   34.4616   39.9855 H   0  0  0  0  0  0  0  0  0  0  0  0
   42.8731   36.8096   41.1922 H   0  0  0  0  0  0  0  0  0  0  0  0
   41.6247   36.4038   42.4766 H   0  0  0  0  0  0  0  0  0  0  0  0
   43.0166   35.1931   43.6263 H   0  0  0  0  0  0  0  0  0  0  0  0
   43.6895   34.4012   42.1429 H   0  0  0  0  0  0  0  0  0  0  0  0
   45.8783   34.4994   42.4488 H   0  0  0  0  0  0  0  0  0  0  0  0
   46.7334   35.9233   42.9803 H   0  0  0  0  0  0  0  0  0  0  0  0
   44.8921   34.0579   44.5490 H   0  0  0  0  0  0  0  0  0  0  0  0
   46.3503   34.8536   45.1299 H   0  0  0  0  0  0  0  0  0  0  0  0
   43.5905   35.7992   45.3326 H   0  0  0  0  0  0  0  0  0  0  0  0
   45.0081   36.6503   45.9170 H   0  0  0  0  0  0  0  0  0  0  0  0
   45.2924   37.8271   43.8453 H   0  0  0  0  0  0  0  0  0  0  0  0
   43.5511   37.6580   43.8100 H   0  0  0  0  0  0  0  0  0  0  0  0
  1  5  1  0
  2  1  1  0
  2  3  2  0
  3 16  1  0
  3  4  1  0
  5  4  2  0
  5  6  1  0
  6  7  2  0
  7  8  1  0
  9  8  2  0
 10  9  1  0
 11 10  2  0
 12 11  1  0
 13 14  1  0
 13 12  2  0
 14 15  2  0
 15  6  1  0
 15 10  1  0
 16 21  1  0
 17 22  2  0
 17 18  1  0
 18 19  2  0
 19 23  1  0
 20 19  1  0
 21 20  2  0
 22 21  1  0
 23 24  1  0
 24 25  1  0
 25 26  1  0
 25 29  1  0
 26 27  1  0
 27 28  1  0
 29 28  1  0
  1 30  1  0
  4 31  1  0
  8 32  1  0
 11 33  1  0
 12 34  1  0
 13 35  1  0
 14 36  1  0
 17 37  1  0
 18 38  1  0
 23 39  1  0
 23 40  1  0
 24 41  1  0
 24 42  1  0
 26 43  1  0
 26 44  1  0
 27 45  1  0
 27 46  1  0
 28 47  1  0
 28 48  1  0
 29 49  1  0
 29 50  1  0
M  ISO  8  30   9  31  14  32  14  33  14  34  14  35  14  36  14  37  14
M  ISO  8  38  14  39   8  40   8  41   8  42   8  43  13  44  13  45  13
M  ISO  5  46  13  47  13  48  13  49  13  50  13
M  END
>  <minimizedAffinity>  (1) 
-6.78276205

>  <minimizedRMSD>  (1) 
3.31377625

$$$$
