
     RDKit          3D

 39 42  0  0  0  0  0  0  0  0999 V2000
   37.4260   33.7370   40.0180 N   0  0  0  0  0  0  0  0  0  0  0  0
   37.8200   34.9660   39.7960 N   0  0  0  0  0  0  0  0  0  0  0  0
   39.0570   35.1330   40.3350 C   0  0  0  0  0  0  0  0  0  0  0  0
   39.3560   33.8950   40.8890 C   0  0  0  0  0  0  0  0  0  0  0  0
   38.2790   33.0100   40.6700 C   0  0  0  0  0  0  0  0  0  0  0  0
   38.3460   31.6980   41.1920 C   0  0  0  0  0  0  0  0  0  0  0  0
   39.4110   31.3390   41.9680 N   0  0  0  0  0  0  0  0  0  0  0  0
   39.5840   30.1720   42.5490 C   0  0  0  0  0  0  0  0  0  0  0  0
   38.7030   29.1730   42.4380 N   0  0  0  0  0  0  0  0  0  0  0  0
   37.6010   29.4040   41.6910 C   0  0  0  0  0  0  0  0  0  0  0  0
   36.6630   28.4250   41.5260 C   0  0  0  0  0  0  0  0  0  0  0  0
   35.5240   28.6270   40.7500 C   0  0  0  0  0  0  0  0  0  0  0  0
   35.4000   29.8790   40.1550 C   0  0  0  0  0  0  0  0  0  0  0  0
   36.3870   30.8040   40.3750 C   0  0  0  0  0  0  0  0  0  0  0  0
   37.4950   30.6430   41.1190 C   0  0  0  0  0  0  0  0  0  0  0  0
   40.1780   36.5360   40.4720 S   0  0  0  0  0  0  0  0  0  0  0  0
   43.4060   34.4700   41.4720 C   0  0  0  0  0  0  0  0  0  0  0  0
   44.0030   35.2190   42.4920 C   0  0  0  0  0  0  0  0  0  0  0  0
   43.4050   36.3770   42.8820 C   0  0  0  0  0  0  0  0  0  0  0  0
   42.2540   36.7410   42.2530 N   0  0  0  0  0  0  0  0  0  0  0  0
   41.6930   36.0130   41.2780 C   0  0  0  0  0  0  0  0  0  0  0  0
   42.2690   34.8950   40.9010 N   0  0  0  0  0  0  0  0  0  0  0  0
   44.0390   37.1500   43.9910 C   0  0  0  0  0  0  0  0  0  0  0  0
   43.5900   36.7690   45.3370 C   0  0  0  0  0  0  0  0  0  0  0  0
   44.6780   35.6090   46.1420 S   0  0  0  0  0  0  0  0  0  0  0  0
   36.5142   33.3777   39.7010 H   0  0  0  0  0  0  0  0  0  0  0  0
   40.2878   33.6434   41.4166 H   0  0  0  0  0  0  0  0  0  0  0  0
   40.4907   30.0115   43.1508 H   0  0  0  0  0  0  0  0  0  0  0  0
   36.8108   27.4525   42.0183 H   0  0  0  0  0  0  0  0  0  0  0  0
   34.7657   27.8416   40.6152 H   0  0  0  0  0  0  0  0  0  0  0  0
   34.5317   30.1200   39.5241 H   0  0  0  0  0  0  0  0  0  0  0  0
   36.2588   31.7833   39.8908 H   0  0  0  0  0  0  0  0  0  0  0  0
   43.8701   33.5305   41.1376 H   0  0  0  0  0  0  0  0  0  0  0  0
   44.9348   34.8792   42.9677 H   0  0  0  0  0  0  0  0  0  0  0  0
   45.1271   36.9982   43.9366 H   0  0  0  0  0  0  0  0  0  0  0  0
   43.7419   38.1995   43.8488 H   0  0  0  0  0  0  0  0  0  0  0  0
   43.5293   37.6771   45.9548 H   0  0  0  0  0  0  0  0  0  0  0  0
   42.6128   36.2762   45.2268 H   0  0  0  0  0  0  0  0  0  0  0  0
   44.5577   35.7373   47.5007 H   0  0  0  0  0  0  0  0  0  0  0  0
  1  5  1  0
  2  1  1  0
  2  3  2  0
  3 16  1  0
  3  4  1  0
  5  4  2  0
  5  6  1  0
  6  7  2  0
  7  8  1  0
  9  8  2  0
 10  9  1  0
 11 10  2  0
 12 11  1  0
 13 14  1  0
 13 12  2  0
 14 15  2  0
 15  6  1  0
 15 10  1  0
 16 21  1  0
 17 18  2  0
 18 19  1  0
 19 23  1  0
 20 19  2  0
 21 20  1  0
 22 21  2  0
 22 17  1  0
 23 24  1  0
 24 25  1  0
  1 26  1  0
  4 27  1  0
  8 28  1  0
 11 29  1  0
 12 30  1  0
 13 31  1  0
 14 32  1  0
 17 33  1  0
 18 34  1  0
 23 35  1  0
 23 36  1  0
 24 37  1  0
 24 38  1  0
 25 39  1  0
M  ISO  8  26   9  27  14  28  14  29  14  30  14  31  14  32  14  33  14
M  ISO  6  34  14  35   8  36   8  37   8  38   8  39  11
M  END
>  <minimizedAffinity>  (1) 
-6.77408171

>  <minimizedRMSD>  (1) 
0.523825586

$$$$
