
     RDKit          3D

 37 40  0  0  1  0  0  0  0  0999 V2000
   37.1440   27.9550   41.5880 C   0  0  1  0  0  0  0  0  0  0  0  0
   37.6130   29.3590   41.9990 C   0  0  1  0  0  0  0  0  0  0  0  0
   38.0320   29.1840   43.4270 C   0  0  0  0  0  0  0  0  0  0  0  0
   37.6730   27.7500   43.8240 C   0  0  0  0  0  0  0  0  0  0  0  0
   36.5060   27.4860   42.8540 C   0  0  0  0  0  0  0  0  0  0  0  0
   38.7410   29.7250   41.1690 N   0  0  0  0  0  0  0  0  0  0  0  0
   39.9380   29.2110   40.8350 C   0  0  0  0  0  0  0  0  0  0  0  0
   40.5800   30.0370   39.9870 N   0  0  0  0  0  0  0  0  0  0  0  0
   39.7900   31.1060   39.7650 C   0  0  0  0  0  0  0  0  0  0  0  0
   40.0450   32.2000   38.9650 C   0  0  0  0  0  0  0  0  0  0  0  0
   41.1270   32.2880   38.3270 O   0  0  0  0  0  0  0  0  0  0  0  0
   39.1140   33.1590   38.8850 N   0  0  0  0  0  0  0  0  0  0  0  0
   37.9890   32.9890   39.5960 C   0  0  0  0  0  0  0  0  0  0  0  0
   36.9670   34.0030   39.5310 N   0  0  0  0  0  0  0  0  0  0  0  0
   37.7390   31.9230   40.3760 N   0  0  0  0  0  0  0  0  0  0  0  0
   38.6260   30.9100   40.5120 C   0  0  0  0  0  0  0  0  0  0  0  0
   36.2540   28.0760   40.4460 C   0  0  0  0  0  0  0  0  0  0  0  0
   35.2020   29.0040   40.5220 C   0  0  0  0  0  0  0  0  0  0  0  0
   34.2990   29.1940   39.4650 C   0  0  0  0  0  0  0  0  0  0  0  0
   34.5350   28.3970   38.3600 N   0  0  0  0  0  0  0  0  0  0  0  0
   35.5520   27.5140   38.3120 C   0  0  0  0  0  0  0  0  0  0  0  0
   36.3930   27.3590   39.3390 N   0  0  0  0  0  0  0  0  0  0  0  0
   37.9093   27.2433   41.2449 H   0  0  0  0  0  0  0  0  0  0  0  0
   36.8516   30.1448   41.8858 H   0  0  0  0  0  0  0  0  0  0  0  0
   39.1159   29.3435   43.5253 H   0  0  0  0  0  0  0  0  0  0  0  0
   37.5244   29.9112   44.0779 H   0  0  0  0  0  0  0  0  0  0  0  0
   38.5104   27.0576   43.6527 H   0  0  0  0  0  0  0  0  0  0  0  0
   37.4305   27.6115   44.8880 H   0  0  0  0  0  0  0  0  0  0  0  0
   35.6147   28.0774   43.1104 H   0  0  0  0  0  0  0  0  0  0  0  0
   36.1278   26.4532   42.8388 H   0  0  0  0  0  0  0  0  0  0  0  0
   40.3356   28.2532   41.2019 H   0  0  0  0  0  0  0  0  0  0  0  0
   39.2560   33.9949   38.3002 H   0  0  0  0  0  0  0  0  0  0  0  0
   36.0959   33.8915   40.0693 H   0  0  0  0  0  0  0  0  0  0  0  0
   37.1076   34.8392   38.9463 H   0  0  0  0  0  0  0  0  0  0  0  0
   35.0825   29.6002   41.4387 H   0  0  0  0  0  0  0  0  0  0  0  0
   33.4716   29.9173   39.5116 H   0  0  0  0  0  0  0  0  0  0  0  0
   35.6932   26.9064   37.4060 H   0  0  0  0  0  0  0  0  0  0  0  0
  1  2  1  0
  1  5  1  0
  2  3  1  0
  3  4  1  0
  5  4  1  0
  6  2  1  0
  7  6  1  0
  8  7  2  0
  9  8  1  0
  9 16  2  0
 10  9  1  0
 11 10  2  0
 12 10  1  0
 12 13  1  0
 13 15  2  0
 14 13  1  0
 15 16  1  0
 16  6  1  0
 17 18  2  0
 17  1  1  0
 19 18  1  0
 20 19  2  0
 21 20  1  0
 21 22  2  0
 22 17  1  0
  1 23  1  6
  2 24  1  1
  3 25  1  0
  3 26  1  0
  4 27  1  0
  4 28  1  0
  5 29  1  0
  5 30  1  0
  7 31  1  0
 12 32  1  0
 14 33  1  0
 14 34  1  0
 18 35  1  0
 19 36  1  0
 21 37  1  0
M  ISO  8  23  13  24  13  25  13  26  13  27  13  28  13  29  13  30  13
M  ISO  5  31  14  32   9  35  14  36  14  37  14
M  END
>  <minimizedAffinity>  (1) 
-6.21603346

>  <minimizedRMSD>  (1) 
4.95905685

$$$$
