
     RDKit          3D

 37 40  0  0  1  0  0  0  0  0999 V2000
   36.8080   28.7740   42.2550 C   0  0  1  0  0  0  0  0  0  0  0  0
   37.5270   27.5600   41.6780 C   0  0  1  0  0  0  0  0  0  0  0  0
   37.3190   26.4840   42.7310 C   0  0  0  0  0  0  0  0  0  0  0  0
   36.4850   27.1180   43.8330 C   0  0  0  0  0  0  0  0  0  0  0  0
   36.9740   28.5700   43.7210 C   0  0  0  0  0  0  0  0  0  0  0  0
   36.8570   27.1240   40.4160 C   0  0  0  0  0  0  0  0  0  0  0  0
   36.2040   27.6500   39.3250 C   0  0  0  0  0  0  0  0  0  0  0  0
   35.7930   26.6850   38.4880 N   0  0  0  0  0  0  0  0  0  0  0  0
   36.1650   25.5050   39.0050 C   0  0  0  0  0  0  0  0  0  0  0  0
   35.9280   24.2700   38.4380 C   0  0  0  0  0  0  0  0  0  0  0  0
   36.3860   23.1560   39.1100 C   0  0  0  0  0  0  0  0  0  0  0  0
   37.0480   23.3310   40.2970 C   0  0  0  0  0  0  0  0  0  0  0  0
   37.2630   24.5850   40.8270 C   0  0  0  0  0  0  0  0  0  0  0  0
   36.8250   25.7410   40.1950 C   0  0  0  0  0  0  0  0  0  0  0  0
   37.4290   29.9870   41.7400 C   0  0  0  0  0  0  0  0  0  0  0  0
   38.7800   30.2430   42.0280 C   0  0  0  0  0  0  0  0  0  0  0  0
   39.4120   31.4000   41.5400 C   0  0  0  0  0  0  0  0  0  0  0  0
   38.6370   32.2370   40.7800 N   0  0  0  0  0  0  0  0  0  0  0  0
   37.3350   31.9660   40.5170 C   0  0  0  0  0  0  0  0  0  0  0  0
   36.7670   30.8590   40.9970 N   0  0  0  0  0  0  0  0  0  0  0  0
   35.7458   28.8800   41.9896 H   0  0  0  0  0  0  0  0  0  0  0  0
   38.5840   27.7634   41.4514 H   0  0  0  0  0  0  0  0  0  0  0  0
   36.7864   25.6249   42.2971 H   0  0  0  0  0  0  0  0  0  0  0  0
   38.2797   26.1152   43.1197 H   0  0  0  0  0  0  0  0  0  0  0  0
   35.4069   27.0319   43.6323 H   0  0  0  0  0  0  0  0  0  0  0  0
   36.5999   26.6616   44.8272 H   0  0  0  0  0  0  0  0  0  0  0  0
   38.0235   28.6746   44.0334 H   0  0  0  0  0  0  0  0  0  0  0  0
   36.4424   29.2930   44.3571 H   0  0  0  0  0  0  0  0  0  0  0  0
   36.0397   28.7251   39.1599 H   0  0  0  0  0  0  0  0  0  0  0  0
   35.2822   26.8258   37.6047 H   0  0  0  0  0  0  0  0  0  0  0  0
   35.3918   24.1768   37.4821 H   0  0  0  0  0  0  0  0  0  0  0  0
   36.2232   22.1477   38.7015 H   0  0  0  0  0  0  0  0  0  0  0  0
   37.4170   22.4486   40.8404 H   0  0  0  0  0  0  0  0  0  0  0  0
   37.7998   24.6729   41.7831 H   0  0  0  0  0  0  0  0  0  0  0  0
   39.3497   29.5301   42.6422 H   0  0  0  0  0  0  0  0  0  0  0  0
   40.4678   31.6209   41.7557 H   0  0  0  0  0  0  0  0  0  0  0  0
   36.7440   32.6628   39.9045 H   0  0  0  0  0  0  0  0  0  0  0  0
  1  5  1  0
  2  1  1  0
  2  3  1  0
  3  4  1  0
  5  4  1  0
  6  2  1  0
  7  6  2  0
  8  9  1  0
  8  7  1  0
  9 14  2  0
 10  9  1  0
 10 11  2  0
 11 12  1  0
 12 13  2  0
 14  6  1  0
 14 13  1  0
 15 16  2  0
 15  1  1  0
 17 16  1  0
 18 17  2  0
 19 18  1  0
 19 20  2  0
 20 15  1  0
  1 21  1  1
  2 22  1  6
  3 23  1  0
  3 24  1  0
  4 25  1  0
  4 26  1  0
  5 27  1  0
  5 28  1  0
  7 29  1  0
  8 30  1  0
 10 31  1  0
 11 32  1  0
 12 33  1  0
 13 34  1  0
 16 35  1  0
 17 36  1  0
 19 37  1  0
M  ISO  8  21  13  22  13  23  13  24  13  25  13  26  13  27  13  28  13
M  ISO  8  29  14  30   9  31  14  32  14  33  14  34  14  35  14  36  14
M  ISO  1  37  14
M  END
>  <minimizedAffinity>  (1) 
-5.43396807

>  <minimizedRMSD>  (1) 
4.9110899

$$$$
