
     RDKit          3D

 33 35  0  0  1  0  0  0  0  0999 V2000
   36.9700   29.9300   39.3340 C   0  0  1  0  0  0  0  0  0  0  0  0
   35.9900   29.7930   40.5080 C   0  0  1  0  0  0  0  0  0  0  0  0
   34.8560   29.0200   39.9130 C   0  0  0  0  0  0  0  0  0  0  0  0
   35.1030   28.9150   38.4240 C   0  0  0  0  0  0  0  0  0  0  0  0
   36.0370   30.1200   38.1910 C   0  0  0  0  0  0  0  0  0  0  0  0
   37.8890   31.0260   39.5860 C   0  0  0  0  0  0  0  0  0  0  0  0
   37.3200   32.2960   39.8920 C   0  0  0  0  0  0  0  0  0  0  0  0
   38.1870   33.3730   40.1560 C   0  0  0  0  0  0  0  0  0  0  0  0
   39.5420   33.1090   40.0970 N   0  0  0  0  0  0  0  0  0  0  0  0
   40.0300   31.8910   39.8040 C   0  0  0  0  0  0  0  0  0  0  0  0
   39.2040   30.8580   39.5500 N   0  0  0  0  0  0  0  0  0  0  0  0
   36.6800   28.9900   41.5460 C   0  0  0  0  0  0  0  0  0  0  0  0
   36.5810   27.5970   41.5680 C   0  0  0  0  0  0  0  0  0  0  0  0
   37.1970   26.8120   42.5020 C   0  0  0  0  0  0  0  0  0  0  0  0
   37.9480   27.4520   43.4620 C   0  0  0  0  0  0  0  0  0  0  0  0
   38.0650   28.8420   43.4670 C   0  0  0  0  0  0  0  0  0  0  0  0
   37.4300   29.6160   42.5080 C   0  0  0  0  0  0  0  0  0  0  0  0
   37.6465   29.0819   39.1524 H   0  0  0  0  0  0  0  0  0  0  0  0
   35.6530   30.7381   40.9588 H   0  0  0  0  0  0  0  0  0  0  0  0
   34.8136   28.0148   40.3577 H   0  0  0  0  0  0  0  0  0  0  0  0
   33.8992   29.5256   40.1104 H   0  0  0  0  0  0  0  0  0  0  0  0
   35.5953   27.9667   38.1627 H   0  0  0  0  0  0  0  0  0  0  0  0
   34.1889   28.9267   37.8123 H   0  0  0  0  0  0  0  0  0  0  0  0
   36.5554   30.0566   37.2229 H   0  0  0  0  0  0  0  0  0  0  0  0
   35.5377   31.0993   38.1512 H   0  0  0  0  0  0  0  0  0  0  0  0
   36.2288   32.4316   39.9212 H   0  0  0  0  0  0  0  0  0  0  0  0
   37.8046   34.3757   40.3975 H   0  0  0  0  0  0  0  0  0  0  0  0
   41.1185   31.7361   39.7713 H   0  0  0  0  0  0  0  0  0  0  0  0
   35.9751   27.1056   40.7925 H   0  0  0  0  0  0  0  0  0  0  0  0
   37.0971   25.7166   42.4873 H   0  0  0  0  0  0  0  0  0  0  0  0
   38.4618   26.8604   44.2341 H   0  0  0  0  0  0  0  0  0  0  0  0
   38.6705   29.3316   44.2439 H   0  0  0  0  0  0  0  0  0  0  0  0
   37.5261   30.7117   42.5187 H   0  0  0  0  0  0  0  0  0  0  0  0
  1  6  1  0
  1  2  1  0
  2 12  1  0
  3  2  1  0
  4  3  1  0
  5  4  1  0
  5  1  1  0
  6  7  2  0
  7  8  1  0
  9  8  2  0
 10  9  1  0
 11  6  1  0
 11 10  2  0
 12 13  2  0
 12 17  1  0
 13 14  1  0
 14 15  2  0
 15 16  1  0
 17 16  2  0
  1 18  1  6
  2 19  1  1
  3 20  1  0
  3 21  1  0
  4 22  1  0
  4 23  1  0
  5 24  1  0
  5 25  1  0
  7 26  1  0
  8 27  1  0
 10 28  1  0
 13 29  1  0
 14 30  1  0
 15 31  1  0
 16 32  1  0
 17 33  1  0
M  ISO  8  18  13  19  13  20  13  21  13  22  13  23  13  24  13  25  13
M  ISO  8  26  14  27  14  28  14  29  14  30  14  31  14  32  14  33  14
M  END
>  <minimizedAffinity>  (1) 
-5.34416389

>  <minimizedRMSD>  (1) 
3.93398619

$$$$
