
     RDKit          3D

 33 35  0  0  1  0  0  0  0  0999 V2000
   36.2790   29.4290   40.0750 C   0  0  1  0  0  0  0  0  0  0  0  0
   37.4430   29.8370   39.1570 C   0  0  1  0  0  0  0  0  0  0  0  0
   36.7930   29.9360   37.8090 C   0  0  0  0  0  0  0  0  0  0  0  0
   35.3640   29.4380   37.9550 C   0  0  0  0  0  0  0  0  0  0  0  0
   35.5120   28.5170   39.1820 C   0  0  0  0  0  0  0  0  0  0  0  0
   36.8120   28.8210   41.2840 C   0  0  0  0  0  0  0  0  0  0  0  0
   36.9290   27.4080   41.3160 C   0  0  0  0  0  0  0  0  0  0  0  0
   37.4460   26.7830   42.4660 C   0  0  0  0  0  0  0  0  0  0  0  0
   37.8120   27.6040   43.5000 N   0  0  0  0  0  0  0  0  0  0  0  0
   37.6820   28.9550   43.4260 C   0  0  0  0  0  0  0  0  0  0  0  0
   37.1900   29.5430   42.3310 N   0  0  0  0  0  0  0  0  0  0  0  0
   37.8950   31.1510   39.5490 N   0  0  0  0  0  0  0  0  0  0  0  0
   37.0650   32.1910   39.4380 C   0  0  0  0  0  0  0  0  0  0  0  0
   37.4760   33.4730   39.8100 C   0  0  0  0  0  0  0  0  0  0  0  0
   38.7600   33.6080   40.2900 C   0  0  0  0  0  0  0  0  0  0  0  0
   39.1770   34.7310   40.6360 O   0  0  0  0  0  0  0  0  0  0  0  0
   39.5690   32.5360   40.3880 N   0  0  0  0  0  0  0  0  0  0  0  0
   39.1470   31.3190   40.0230 C   0  0  0  0  0  0  0  0  0  0  0  0
   39.9260   30.3220   40.1240 O   0  0  0  0  0  0  0  0  0  0  0  0
   35.6377   30.2354   40.4602 H   0  0  0  0  0  0  0  0  0  0  0  0
   38.2974   29.1448   39.1864 H   0  0  0  0  0  0  0  0  0  0  0  0
   37.3359   29.3127   37.0832 H   0  0  0  0  0  0  0  0  0  0  0  0
   36.8070   30.9745   37.4467 H   0  0  0  0  0  0  0  0  0  0  0  0
   34.6639   30.2639   38.1492 H   0  0  0  0  0  0  0  0  0  0  0  0
   34.9558   28.9467   37.0594 H   0  0  0  0  0  0  0  0  0  0  0  0
   34.5368   28.2445   39.6119 H   0  0  0  0  0  0  0  0  0  0  0  0
   35.9849   27.5435   38.9853 H   0  0  0  0  0  0  0  0  0  0  0  0
   36.6183   26.8058   40.4495 H   0  0  0  0  0  0  0  0  0  0  0  0
   37.5510   25.6900   42.5315 H   0  0  0  0  0  0  0  0  0  0  0  0
   37.9869   29.5751   44.2819 H   0  0  0  0  0  0  0  0  0  0  0  0
   36.0474   32.0366   39.0497 H   0  0  0  0  0  0  0  0  0  0  0  0
   36.8026   34.3385   39.7233 H   0  0  0  0  0  0  0  0  0  0  0  0
   40.5264   32.6540   40.7490 H   0  0  0  0  0  0  0  0  0  0  0  0
  1  6  1  0
  2 12  1  0
  2  1  1  0
  3  4  1  0
  3  2  1  0
  4  5  1  0
  5  1  1  0
  6  7  2  0
  6 11  1  0
  7  8  1  0
  8  9  2  0
 10  9  1  0
 11 10  2  0
 12 18  1  0
 13 12  1  0
 13 14  2  0
 14 15  1  0
 15 17  1  0
 15 16  2  0
 18 19  2  0
 18 17  1  0
  1 20  1  1
  2 21  1  6
  3 22  1  0
  3 23  1  0
  4 24  1  0
  4 25  1  0
  5 26  1  0
  5 27  1  0
  7 28  1  0
  8 29  1  0
 10 30  1  0
 13 31  1  0
 14 32  1  0
 17 33  1  0
M  ISO  8  20  13  21  13  22  13  23  13  24  13  25  13  26  13  27  13
M  ISO  6  28  14  29  14  30  14  31  14  32  14  33   9
M  END
>  <minimizedAffinity>  (1) 
-5.32884789

>  <minimizedRMSD>  (1) 
5.69617081

$$$$
