
     RDKit          3D

 39 41  0  0  1  0  0  0  0  0999 V2000
   37.1420   29.5000   38.3860 C   0  0  1  0  0  0  0  0  0  0  0  0
   36.1050   28.8290   39.2910 C   0  0  1  0  0  0  0  0  0  0  0  0
   35.2160   28.1200   38.3430 C   0  0  0  0  0  0  0  0  0  0  0  0
   35.5770   28.6120   36.9360 C   0  0  0  0  0  0  0  0  0  0  0  0
   36.2570   29.9510   37.2700 C   0  0  0  0  0  0  0  0  0  0  0  0
   37.8020   30.5740   39.1250 C   0  0  0  0  0  0  0  0  0  0  0  0
   36.9990   31.6740   39.5530 C   0  0  0  0  0  0  0  0  0  0  0  0
   37.6280   32.6950   40.2780 C   0  0  0  0  0  0  0  0  0  0  0  0
   38.9810   32.5760   40.5310 N   0  0  0  0  0  0  0  0  0  0  0  0
   39.6890   31.5040   40.0960 C   0  0  0  0  0  0  0  0  0  0  0  0
   39.0980   30.5250   39.4050 N   0  0  0  0  0  0  0  0  0  0  0  0
   36.7670   28.0240   40.3400 C   0  0  0  0  0  0  0  0  0  0  0  0
   36.7970   26.5500   40.1530 C   0  0  0  0  0  0  0  0  0  0  0  0
   37.7340   25.9780   41.2280 C   0  0  0  0  0  0  0  0  0  0  0  0
   37.0320   26.1610   42.5510 C   0  0  0  0  0  0  0  0  0  0  0  0
   36.9340   27.6520   42.8020 C   0  0  0  0  0  0  0  0  0  0  0  0
   36.2040   28.3720   41.7200 C   0  0  0  0  0  0  0  0  0  0  0  0
   37.9811   28.8859   38.0272 H   0  0  0  0  0  0  0  0  0  0  0  0
   35.4935   29.5113   39.8997 H   0  0  0  0  0  0  0  0  0  0  0  0
   35.3753   27.0340   38.4159 H   0  0  0  0  0  0  0  0  0  0  0  0
   34.1589   28.3221   38.5703 H   0  0  0  0  0  0  0  0  0  0  0  0
   34.6810   28.7560   36.3143 H   0  0  0  0  0  0  0  0  0  0  0  0
   36.1987   27.9161   36.3537 H   0  0  0  0  0  0  0  0  0  0  0  0
   36.8346   30.3424   36.4196 H   0  0  0  0  0  0  0  0  0  0  0  0
   35.5736   30.7771   37.5161 H   0  0  0  0  0  0  0  0  0  0  0  0
   35.9245   31.7186   39.3219 H   0  0  0  0  0  0  0  0  0  0  0  0
   37.0604   33.5668   40.6356 H   0  0  0  0  0  0  0  0  0  0  0  0
   40.7650   31.4397   40.3152 H   0  0  0  0  0  0  0  0  0  0  0  0
   37.8237   28.3164   40.2517 H   0  0  0  0  0  0  0  0  0  0  0  0
   35.7860   26.1336   40.2732 H   0  0  0  0  0  0  0  0  0  0  0  0
   37.1523   26.2901   39.1449 H   0  0  0  0  0  0  0  0  0  0  0  0
   37.9195   24.9100   41.0410 H   0  0  0  0  0  0  0  0  0  0  0  0
   38.7073   26.4905   41.2203 H   0  0  0  0  0  0  0  0  0  0  0  0
   36.0257   25.7188   42.5083 H   0  0  0  0  0  0  0  0  0  0  0  0
   37.5869   25.6638   43.3602 H   0  0  0  0  0  0  0  0  0  0  0  0
   36.4041   27.8146   43.7522 H   0  0  0  0  0  0  0  0  0  0  0  0
   37.9586   28.0511   42.8333 H   0  0  0  0  0  0  0  0  0  0  0  0
   36.3001   29.4556   41.8830 H   0  0  0  0  0  0  0  0  0  0  0  0
   35.1481   28.0651   41.7509 H   0  0  0  0  0  0  0  0  0  0  0  0
  1  6  1  0
  1  2  1  0
  2 12  1  0
  3  2  1  0
  4  5  1  0
  4  3  1  0
  5  1  1  0
  6 11  1  0
  6  7  2  0
  7  8  1  0
  8  9  2  0
 10  9  1  0
 11 10  2  0
 12 17  1  0
 13 12  1  0
 13 14  1  0
 14 15  1  0
 15 16  1  0
 17 16  1  0
  1 18  1  6
  2 19  1  1
  3 20  1  0
  3 21  1  0
  4 22  1  0
  4 23  1  0
  5 24  1  0
  5 25  1  0
  7 26  1  0
  8 27  1  0
 10 28  1  0
 12 29  1  0
 13 30  1  0
 13 31  1  0
 14 32  1  0
 14 33  1  0
 15 34  1  0
 15 35  1  0
 16 36  1  0
 16 37  1  0
 17 38  1  0
 17 39  1  0
M  ISO  8  18  13  19  13  20  13  21  13  22  13  23  13  24  13  25  13
M  ISO  8  26  14  27  14  28  14  29  13  30  13  31  13  32  13  33  13
M  ISO  6  34  13  35  13  36  13  37  13  38  13  39  13
M  END
>  <minimizedAffinity>  (1) 
-4.67033052

>  <minimizedRMSD>  (1) 
4.04547119

$$$$
