
     RDKit          3D

 36 38  0  0  1  0  0  0  0  0999 V2000
   37.3500   30.0590   39.4680 C   0  0  1  0  0  0  0  0  0  0  0  0
   36.4780   29.4880   40.5930 C   0  0  1  0  0  0  0  0  0  0  0  0
   35.5790   28.5130   39.8950 C   0  0  0  0  0  0  0  0  0  0  0  0
   35.8980   28.6110   38.4080 C   0  0  0  0  0  0  0  0  0  0  0  0
   36.3950   30.0710   38.3260 C   0  0  0  0  0  0  0  0  0  0  0  0
   37.8660   31.3570   39.8710 C   0  0  0  0  0  0  0  0  0  0  0  0
   37.1470   32.5000   39.4860 C   0  0  0  0  0  0  0  0  0  0  0  0
   37.5890   33.7840   39.8500 C   0  0  0  0  0  0  0  0  0  0  0  0
   38.7460   33.8300   40.5920 N   0  0  0  0  0  0  0  0  0  0  0  0
   39.4130   32.7000   40.9460 C   0  0  0  0  0  0  0  0  0  0  0  0
   38.9750   31.4890   40.5880 N   0  0  0  0  0  0  0  0  0  0  0  0
   37.3130   28.9210   41.6050 N   0  0  0  0  0  0  0  0  0  0  0  0
   38.3220   28.0180   41.1320 C   0  0  0  0  0  0  0  0  0  0  0  0
   38.6280   27.0100   42.2400 C   0  0  0  0  0  0  0  0  0  0  0  0
   38.6570   27.6030   43.4880 O   0  0  0  0  0  0  0  0  0  0  0  0
   37.3980   28.0430   43.8400 C   0  0  0  0  0  0  0  0  0  0  0  0
   36.5340   28.2770   42.6210 C   0  0  0  0  0  0  0  0  0  0  0  0
   38.2593   29.4969   39.2089 H   0  0  0  0  0  0  0  0  0  0  0  0
   35.8706   30.2295   41.1327 H   0  0  0  0  0  0  0  0  0  0  0  0
   35.7719   27.4926   40.2577 H   0  0  0  0  0  0  0  0  0  0  0  0
   34.5206   28.7417   40.0887 H   0  0  0  0  0  0  0  0  0  0  0  0
   36.6813   27.8976   38.1122 H   0  0  0  0  0  0  0  0  0  0  0  0
   35.0563   28.3737   37.7407 H   0  0  0  0  0  0  0  0  0  0  0  0
   36.8977   30.2821   37.3706 H   0  0  0  0  0  0  0  0  0  0  0  0
   35.6103   30.8403   38.3748 H   0  0  0  0  0  0  0  0  0  0  0  0
   36.2273   32.3895   38.8927 H   0  0  0  0  0  0  0  0  0  0  0  0
   37.0439   34.6943   39.5597 H   0  0  0  0  0  0  0  0  0  0  0  0
   40.3345   32.7840   41.5408 H   0  0  0  0  0  0  0  0  0  0  0  0
   37.9575   27.4889   40.2392 H   0  0  0  0  0  0  0  0  0  0  0  0
   39.2326   28.5753   40.8671 H   0  0  0  0  0  0  0  0  0  0  0  0
   37.8514   26.2309   42.2353 H   0  0  0  0  0  0  0  0  0  0  0  0
   39.6226   26.5828   42.0445 H   0  0  0  0  0  0  0  0  0  0  0  0
   36.9194   27.2852   44.4777 H   0  0  0  0  0  0  0  0  0  0  0  0
   37.5026   28.9966   44.3782 H   0  0  0  0  0  0  0  0  0  0  0  0
   35.6819   28.9176   42.8920 H   0  0  0  0  0  0  0  0  0  0  0  0
   36.1603   27.3137   42.2437 H   0  0  0  0  0  0  0  0  0  0  0  0
  1  6  1  0
  1  2  1  0
  2 12  1  0
  3  2  1  0
  4  3  1  0
  5  4  1  0
  5  1  1  0
  6 11  2  0
  7  8  2  0
  7  6  1  0
  8  9  1  0
  9 10  2  0
 11 10  1  0
 12 17  1  0
 13 12  1  0
 13 14  1  0
 14 15  1  0
 15 16  1  0
 17 16  1  0
  1 18  1  6
  2 19  1  1
  3 20  1  0
  3 21  1  0
  4 22  1  0
  4 23  1  0
  5 24  1  0
  5 25  1  0
  7 26  1  0
  8 27  1  0
 10 28  1  0
 13 29  1  0
 13 30  1  0
 14 31  1  0
 14 32  1  0
 16 33  1  0
 16 34  1  0
 17 35  1  0
 17 36  1  0
M  ISO  8  18  13  19  13  20  13  21  13  22  13  23  13  24  13  25  13
M  ISO  8  26  14  27  14  28  14  29  13  30  13  31  13  32  13  33  13
M  ISO  3  34  13  35  13  36  13
M  END
>  <minimizedAffinity>  (1) 
-4.54489279

>  <minimizedRMSD>  (1) 
3.65080452

$$$$
