
     RDKit          3D

 29 31  0  0  1  0  0  0  0  0999 V2000
   37.5480   28.8010   41.3580 C   0  0  1  0  0  0  0  0  0  0  0  0
   37.9650   29.4320   42.6960 C   0  0  1  0  0  0  0  0  0  0  0  0
   37.4550   28.4580   43.7120 C   0  0  0  0  0  0  0  0  0  0  0  0
   36.6210   27.4360   42.9800 C   0  0  0  0  0  0  0  0  0  0  0  0
   36.2290   28.2060   41.7110 C   0  0  0  0  0  0  0  0  0  0  0  0
   37.5120   29.8320   40.3310 C   0  0  0  0  0  0  0  0  0  0  0  0
   36.9590   31.0890   40.6750 C   0  0  0  0  0  0  0  0  0  0  0  0
   36.9150   32.1170   39.7170 C   0  0  0  0  0  0  0  0  0  0  0  0
   37.4330   31.8020   38.4740 N   0  0  0  0  0  0  0  0  0  0  0  0
   37.9460   30.6030   38.1900 C   0  0  0  0  0  0  0  0  0  0  0  0
   37.9870   29.6170   39.1140 N   0  0  0  0  0  0  0  0  0  0  0  0
   39.4490   29.5830   42.7430 C   0  0  0  0  0  0  0  0  0  0  0  0
   40.2150   30.8760   42.6350 C   0  0  0  0  0  0  0  0  0  0  0  0
   41.9240   30.2680   42.7740 S   0  0  0  0  0  0  0  0  0  0  0  0
   41.3650   28.4610   42.9460 C   0  0  0  0  0  0  0  0  0  0  0  0
   40.1740   28.4660   42.8960 N   0  0  0  0  0  0  0  0  0  0  0  0
   38.2221   28.0422   40.9339 H   0  0  0  0  0  0  0  0  0  0  0  0
   37.5628   30.4418   42.8647 H   0  0  0  0  0  0  0  0  0  0  0  0
   38.2989   27.9635   44.2153 H   0  0  0  0  0  0  0  0  0  0  0  0
   36.8545   28.9733   44.4762 H   0  0  0  0  0  0  0  0  0  0  0  0
   37.2082   26.5377   42.7387 H   0  0  0  0  0  0  0  0  0  0  0  0
   35.7633   27.0622   43.5585 H   0  0  0  0  0  0  0  0  0  0  0  0
   35.4739   28.9786   41.9181 H   0  0  0  0  0  0  0  0  0  0  0  0
   35.7672   27.5960   40.9206 H   0  0  0  0  0  0  0  0  0  0  0  0
   36.5654   31.2607   41.6877 H   0  0  0  0  0  0  0  0  0  0  0  0
   36.4953   33.1086   39.9418 H   0  0  0  0  0  0  0  0  0  0  0  0
   38.3440   30.4130   37.1823 H   0  0  0  0  0  0  0  0  0  0  0  0
   39.8436   31.9035   42.5074 H   0  0  0  0  0  0  0  0  0  0  0  0
   42.0139   27.5812   43.0680 H   0  0  0  0  0  0  0  0  0  0  0  0
  1  5  1  0
  1  2  1  0
  2 12  1  0
  2  3  1  0
  4  3  1  0
  5  4  1  0
  6  7  2  0
  6  1  1  0
  8  7  1  0
  9  8  2  0
 10  9  1  0
 10 11  2  0
 11  6  1  0
 12 16  1  0
 13 12  2  0
 13 14  1  0
 14 15  1  0
 16 15  2  0
  1 17  1  6
  2 18  1  1
  3 19  1  0
  3 20  1  0
  4 21  1  0
  4 22  1  0
  5 23  1  0
  5 24  1  0
  7 25  1  0
  8 26  1  0
 10 27  1  0
 13 28  1  0
 15 29  1  0
M  ISO  8  17  13  18  13  19  13  20  13  21  13  22  13  23  13  24  13
M  ISO  5  25  14  26  14  27  14  28  14  29  14
M  END
>  <minimizedAffinity>  (1) 
-4.50544262

>  <minimizedRMSD>  (1) 
3.37551045

$$$$
