
     RDKit          3D

 29 31  0  0  1  0  0  0  0  0999 V2000
   37.5730   28.7080   41.4830 C   0  0  1  0  0  0  0  0  0  0  0  0
   37.9550   29.3710   42.8180 C   0  0  1  0  0  0  0  0  0  0  0  0
   37.4680   28.3850   43.8290 C   0  0  0  0  0  0  0  0  0  0  0  0
   36.6420   27.3440   43.1000 C   0  0  0  0  0  0  0  0  0  0  0  0
   36.2500   28.1180   41.8230 C   0  0  0  0  0  0  0  0  0  0  0  0
   37.5610   29.7130   40.4310 C   0  0  0  0  0  0  0  0  0  0  0  0
   36.8730   30.9310   40.7010 C   0  0  0  0  0  0  0  0  0  0  0  0
   36.8610   31.9230   39.7050 C   0  0  0  0  0  0  0  0  0  0  0  0
   37.5240   31.6400   38.5260 N   0  0  0  0  0  0  0  0  0  0  0  0
   38.1590   30.4710   38.3210 C   0  0  0  0  0  0  0  0  0  0  0  0
   38.1730   29.5200   39.2710 N   0  0  0  0  0  0  0  0  0  0  0  0
   39.3830   29.5430   42.7890 N   0  0  0  0  0  0  0  0  0  0  0  0
   40.4480   28.7210   42.7550 C   0  0  0  0  0  0  0  0  0  0  0  0
   41.5870   29.4360   42.7410 N   0  0  0  0  0  0  0  0  0  0  0  0
   41.2360   30.7160   42.7660 C   0  0  0  0  0  0  0  0  0  0  0  0
   39.8870   30.7780   42.7960 N   0  0  0  0  0  0  0  0  0  0  0  0
   38.2581   27.9427   41.0893 H   0  0  0  0  0  0  0  0  0  0  0  0
   37.5283   30.3618   43.0332 H   0  0  0  0  0  0  0  0  0  0  0  0
   38.3239   27.9036   44.3248 H   0  0  0  0  0  0  0  0  0  0  0  0
   36.8615   28.8888   44.5960 H   0  0  0  0  0  0  0  0  0  0  0  0
   37.2372   26.4497   42.8633 H   0  0  0  0  0  0  0  0  0  0  0  0
   35.7878   26.9589   43.6762 H   0  0  0  0  0  0  0  0  0  0  0  0
   35.4950   28.8916   42.0267 H   0  0  0  0  0  0  0  0  0  0  0  0
   35.7878   27.5123   41.0297 H   0  0  0  0  0  0  0  0  0  0  0  0
   36.3647   31.0909   41.6633 H   0  0  0  0  0  0  0  0  0  0  0  0
   36.3461   32.8830   39.8575 H   0  0  0  0  0  0  0  0  0  0  0  0
   38.6725   30.2918   37.3649 H   0  0  0  0  0  0  0  0  0  0  0  0
   40.3946   27.6224   42.7407 H   0  0  0  0  0  0  0  0  0  0  0  0
   41.9229   31.5751   42.7628 H   0  0  0  0  0  0  0  0  0  0  0  0
  1  5  1  0
  1  2  1  0
  2  3  1  0
  4  3  1  0
  5  4  1  0
  6  7  2  0
  6  1  1  0
  8  7  1  0
  9  8  2  0
 10  9  1  0
 10 11  2  0
 11  6  1  0
 12 16  1  0
 12  2  1  0
 13 12  1  0
 14 13  2  0
 14 15  1  0
 15 16  2  0
  1 17  1  6
  2 18  1  1
  3 19  1  0
  3 20  1  0
  4 21  1  0
  4 22  1  0
  5 23  1  0
  5 24  1  0
  7 25  1  0
  8 26  1  0
 10 27  1  0
 13 28  1  0
 15 29  1  0
M  ISO  8  17  13  18  13  19  13  20  13  21  13  22  13  23  13  24  13
M  ISO  5  25  14  26  14  27  14  28  14  29  14
M  END
>  <minimizedAffinity>  (1) 
-4.44107342

>  <minimizedRMSD>  (1) 
3.26638412

$$$$
