
     RDKit          3D

 30 32  0  0  1  0  0  0  0  0999 V2000
   37.0960   29.4880   42.4280 C   0  0  1  0  0  0  0  0  0  0  0  0
   36.5390   28.2010   41.8470 C   0  0  2  0  0  0  0  0  0  0  0  0
   36.6710   27.1900   42.9080 C   0  0  0  0  0  0  0  0  0  0  0  0
   37.4680   27.8500   44.0470 C   0  0  0  0  0  0  0  0  0  0  0  0
   38.1870   28.9640   43.2910 C   0  0  0  0  0  0  0  0  0  0  0  0
   37.5090   30.3900   41.3710 C   0  0  0  0  0  0  0  0  0  0  0  0
   38.8830   30.4200   41.0230 C   0  0  0  0  0  0  0  0  0  0  0  0
   39.3100   31.2750   39.9930 C   0  0  0  0  0  0  0  0  0  0  0  0
   38.3280   32.0390   39.3860 N   0  0  0  0  0  0  0  0  0  0  0  0
   37.0420   31.9760   39.7480 C   0  0  0  0  0  0  0  0  0  0  0  0
   36.6320   31.1560   40.7360 N   0  0  0  0  0  0  0  0  0  0  0  0
   37.0340   27.8690   40.5160 C   0  0  0  0  0  0  0  0  0  0  0  0
   35.9940   27.7260   39.3640 C   0  0  0  0  0  0  0  0  0  0  0  0
   36.7120   26.5350   39.8970 C   0  0  0  0  0  0  0  0  0  0  0  0
   36.3933   30.1111   43.0007 H   0  0  0  0  0  0  0  0  0  0  0  0
   35.4729   28.2905   41.5911 H   0  0  0  0  0  0  0  0  0  0  0  0
   35.6771   26.8849   43.2674 H   0  0  0  0  0  0  0  0  0  0  0  0
   37.1815   26.2892   42.5365 H   0  0  0  0  0  0  0  0  0  0  0  0
   36.8028   28.2535   44.8246 H   0  0  0  0  0  0  0  0  0  0  0  0
   38.1364   27.1650   44.5892 H   0  0  0  0  0  0  0  0  0  0  0  0
   39.0200   28.5695   42.6906 H   0  0  0  0  0  0  0  0  0  0  0  0
   38.6482   29.7221   43.9410 H   0  0  0  0  0  0  0  0  0  0  0  0
   39.6057   29.7819   41.5527 H   0  0  0  0  0  0  0  0  0  0  0  0
   40.3647   31.3339   39.6863 H   0  0  0  0  0  0  0  0  0  0  0  0
   36.3044   32.6058   39.2292 H   0  0  0  0  0  0  0  0  0  0  0  0
   37.9585   28.4372   40.6960 H   0  0  0  0  0  0  0  0  0  0  0  0
   36.2271   28.1074   38.3589 H   0  0  0  0  0  0  0  0  0  0  0  0
   34.9397   28.0057   39.2220 H   0  0  0  0  0  0  0  0  0  0  0  0
   36.1590   25.7851   40.4817 H   0  0  0  0  0  0  0  0  0  0  0  0
   37.3201   25.7429   39.4357 H   0  0  0  0  0  0  0  0  0  0  0  0
  1  5  1  0
  2  1  1  0
  2  3  1  0
  3  4  1  0
  5  4  1  0
  6  1  1  0
  7  6  2  0
  8  7  1  0
  9 10  1  0
  9  8  2  0
 10 11  2  0
 11  6  1  0
 12  2  1  0
 13 14  1  0
 13 12  1  0
 14 12  1  0
  1 15  1  1
  2 16  1  6
  3 17  1  0
  3 18  1  0
  4 19  1  0
  4 20  1  0
  5 21  1  0
  5 22  1  0
  7 23  1  0
  8 24  1  0
 10 25  1  0
 12 26  1  0
 13 27  1  0
 13 28  1  0
 14 29  1  0
 14 30  1  0
M  ISO  8  15  13  16  13  17  13  18  13  19  13  20  13  21  13  22  13
M  ISO  8  23  14  24  14  25  14  26  13  27  13  28  13  29  13  30  13
M  END
>  <minimizedAffinity>  (1) 
-4.43858147

>  <minimizedRMSD>  (1) 
3.50519347

$$$$
