
     RDKit          3D

 34 37  0  0  1  0  0  0  0  0999 V2000
   36.7990   27.0650   38.8160 C   0  0  1  0  0  0  0  0  0  0  0  0
   36.6390   25.9760   39.8890 C   0  0  1  0  0  0  0  0  0  0  0  0
   36.0460   24.8310   39.1220 C   0  0  0  0  0  0  0  0  0  0  0  0
   35.6350   25.3570   37.7630 C   0  0  0  0  0  0  0  0  0  0  0  0
   35.5490   26.8650   38.0300 C   0  0  0  0  0  0  0  0  0  0  0  0
   37.8530   25.6690   40.5640 N   0  0  0  0  0  0  0  0  0  0  0  0
   38.8450   24.8460   40.1680 C   0  0  0  0  0  0  0  0  0  0  0  0
   39.8430   24.8010   41.0660 N   0  0  0  0  0  0  0  0  0  0  0  0
   39.4730   25.6270   42.0710 C   0  0  0  0  0  0  0  0  0  0  0  0
   40.1620   25.9180   43.2230 C   0  0  0  0  0  0  0  0  0  0  0  0
   39.5780   26.7810   44.0810 N   0  0  0  0  0  0  0  0  0  0  0  0
   38.3630   27.3210   43.7920 C   0  0  0  0  0  0  0  0  0  0  0  0
   37.7080   27.0210   42.6580 N   0  0  0  0  0  0  0  0  0  0  0  0
   38.2320   26.1670   41.7560 C   0  0  0  0  0  0  0  0  0  0  0  0
   36.9380   28.3640   39.4600 C   0  0  0  0  0  0  0  0  0  0  0  0
   35.8080   28.8580   40.1770 C   0  0  0  0  0  0  0  0  0  0  0  0
   35.9270   30.1060   40.8160 C   0  0  0  0  0  0  0  0  0  0  0  0
   37.1300   30.7650   40.7030 N   0  0  0  0  0  0  0  0  0  0  0  0
   38.1710   30.2450   40.0080 C   0  0  0  0  0  0  0  0  0  0  0  0
   38.0710   29.0460   39.3880 N   0  0  0  0  0  0  0  0  0  0  0  0
   37.6895   27.0133   38.1723 H   0  0  0  0  0  0  0  0  0  0  0  0
   35.9974   26.2847   40.7275 H   0  0  0  0  0  0  0  0  0  0  0  0
   36.7919   24.0310   39.0051 H   0  0  0  0  0  0  0  0  0  0  0  0
   35.1780   24.4161   39.6552 H   0  0  0  0  0  0  0  0  0  0  0  0
   34.6624   24.9483   37.4516 H   0  0  0  0  0  0  0  0  0  0  0  0
   36.3244   25.0847   36.9502 H   0  0  0  0  0  0  0  0  0  0  0  0
   35.5580   27.4454   37.0956 H   0  0  0  0  0  0  0  0  0  0  0  0
   34.6286   27.1924   38.5355 H   0  0  0  0  0  0  0  0  0  0  0  0
   38.8379   24.2804   39.2246 H   0  0  0  0  0  0  0  0  0  0  0  0
   41.1433   25.4690   43.4363 H   0  0  0  0  0  0  0  0  0  0  0  0
   37.9050   28.0217   44.5056 H   0  0  0  0  0  0  0  0  0  0  0  0
   34.8727   28.2813   40.2287 H   0  0  0  0  0  0  0  0  0  0  0  0
   35.0903   30.5385   41.3843 H   0  0  0  0  0  0  0  0  0  0  0  0
   39.1142   30.8076   39.9467 H   0  0  0  0  0  0  0  0  0  0  0  0
  1 15  1  0
  1  2  1  0
  2  6  1  0
  3  2  1  0
  4  5  1  0
  4  3  1  0
  5  1  1  0
  6 14  1  0
  7  6  1  0
  7  8  2  0
  8  9  1  0
  9 10  2  0
 10 11  1  0
 12 11  2  0
 13 12  1  0
 14  9  1  0
 14 13  2  0
 15 16  2  0
 16 17  1  0
 18 17  2  0
 19 18  1  0
 20 15  1  0
 20 19  2  0
  1 21  1  6
  2 22  1  1
  3 23  1  0
  3 24  1  0
  4 25  1  0
  4 26  1  0
  5 27  1  0
  5 28  1  0
  7 29  1  0
 10 30  1  0
 12 31  1  0
 16 32  1  0
 17 33  1  0
 19 34  1  0
M  ISO  8  21  13  22  13  23  13  24  13  25  13  26  13  27  13  28  13
M  ISO  6  29  14  30  14  31  14  32  14  33  14  34  14
M  END
>  <minimizedAffinity>  (1) 
-4.41280556

>  <minimizedRMSD>  (1) 
2.84124875

$$$$
