
     RDKit          3D

 30 32  0  0  1  0  0  0  0  0999 V2000
   37.5300   26.8540   40.6650 C   0  0  1  0  0  0  0  0  0  0  0  0
   37.2560   26.2490   42.0460 C   0  0  1  0  0  0  0  0  0  0  0  0
   36.8830   24.8270   41.7500 C   0  0  0  0  0  0  0  0  0  0  0  0
   36.9070   24.6820   40.2280 C   0  0  0  0  0  0  0  0  0  0  0  0
   36.5470   26.1230   39.8170 C   0  0  0  0  0  0  0  0  0  0  0  0
   37.3590   28.2960   40.7380 C   0  0  0  0  0  0  0  0  0  0  0  0
   36.0420   28.8030   40.7360 C   0  0  0  0  0  0  0  0  0  0  0  0
   35.8040   30.1840   40.8150 C   0  0  0  0  0  0  0  0  0  0  0  0
   36.9280   30.9840   40.8910 N   0  0  0  0  0  0  0  0  0  0  0  0
   38.1780   30.4560   40.8900 C   0  0  0  0  0  0  0  0  0  0  0  0
   38.3830   29.1360   40.8140 N   0  0  0  0  0  0  0  0  0  0  0  0
   38.4840   26.2260   42.8330 N   0  0  0  0  0  0  0  0  0  0  0  0
   39.1140   27.0370   43.6980 C   0  0  0  0  0  0  0  0  0  0  0  0
   40.2770   26.4190   44.1110 C   0  0  0  0  0  0  0  0  0  0  0  0
   40.3130   25.2340   43.4730 N   0  0  0  0  0  0  0  0  0  0  0  0
   39.2270   25.1060   42.6930 C   0  0  0  0  0  0  0  0  0  0  0  0
   38.5460   26.7410   40.2589 H   0  0  0  0  0  0  0  0  0  0  0  0
   36.4911   26.8130   42.6000 H   0  0  0  0  0  0  0  0  0  0  0  0
   37.6090   24.1399   42.2091 H   0  0  0  0  0  0  0  0  0  0  0  0
   35.8915   24.5817   42.1583 H   0  0  0  0  0  0  0  0  0  0  0  0
   37.9019   24.3892   39.8613 H   0  0  0  0  0  0  0  0  0  0  0  0
   36.2404   23.9049   39.8258 H   0  0  0  0  0  0  0  0  0  0  0  0
   36.7137   26.3007   38.7443 H   0  0  0  0  0  0  0  0  0  0  0  0
   35.4939   26.4080   39.9574 H   0  0  0  0  0  0  0  0  0  0  0  0
   35.1920   28.1077   40.6718 H   0  0  0  0  0  0  0  0  0  0  0  0
   34.7869   30.6029   40.8163 H   0  0  0  0  0  0  0  0  0  0  0  0
   39.0448   31.1303   40.9533 H   0  0  0  0  0  0  0  0  0  0  0  0
   38.7624   28.0274   44.0229 H   0  0  0  0  0  0  0  0  0  0  0  0
   41.0222   26.8140   44.8172 H   0  0  0  0  0  0  0  0  0  0  0  0
   38.9856   24.2435   42.0543 H   0  0  0  0  0  0  0  0  0  0  0  0
  1  6  1  0
  1  2  1  0
  2 12  1  0
  3  2  1  0
  4  3  1  0
  5  4  1  0
  5  1  1  0
  6 11  1  0
  7  6  2  0
  7  8  1  0
  8  9  2  0
 10  9  1  0
 11 10  2  0
 12 13  1  0
 13 14  2  0
 15 14  1  0
 16 12  1  0
 16 15  2  0
  1 17  1  6
  2 18  1  1
  3 19  1  0
  3 20  1  0
  4 21  1  0
  4 22  1  0
  5 23  1  0
  5 24  1  0
  7 25  1  0
  8 26  1  0
 10 27  1  0
 13 28  1  0
 14 29  1  0
 16 30  1  0
M  ISO  8  17  13  18  13  19  13  20  13  21  13  22  13  23  13  24  13
M  ISO  6  25  14  26  14  27  14  28  14  29  14  30  14
M  END
>  <minimizedAffinity>  (1) 
-4.41122293

>  <minimizedRMSD>  (1) 
0.801677942

$$$$
