
     RDKit          3D

 28 30  0  0  1  0  0  0  0  0999 V2000
   37.5280   26.4370   40.6250 C   0  0  1  0  0  0  0  0  0  0  0  0
   37.2500   26.0010   42.0740 C   0  0  1  0  0  0  0  0  0  0  0  0
   36.8330   24.5670   41.9440 C   0  0  0  0  0  0  0  0  0  0  0  0
   36.7760   24.2590   40.4540 C   0  0  0  0  0  0  0  0  0  0  0  0
   36.4950   25.6650   39.8830 C   0  0  0  0  0  0  0  0  0  0  0  0
   37.4260   27.8850   40.5300 C   0  0  0  0  0  0  0  0  0  0  0  0
   36.2430   28.4920   41.0440 C   0  0  0  0  0  0  0  0  0  0  0  0
   36.1400   29.8950   40.9730 C   0  0  0  0  0  0  0  0  0  0  0  0
   37.1940   30.5870   40.4090 N   0  0  0  0  0  0  0  0  0  0  0  0
   38.2940   29.9510   39.9370 C   0  0  0  0  0  0  0  0  0  0  0  0
   38.3970   28.6200   40.0020 N   0  0  0  0  0  0  0  0  0  0  0  0
   38.5230   26.1130   42.8360 C   0  0  0  0  0  0  0  0  0  0  0  0
   39.4390   25.1470   42.9410 N   0  0  0  0  0  0  0  0  0  0  0  0
   40.4090   25.5660   43.6640 O   0  0  0  0  0  0  0  0  0  0  0  0
   40.1490   26.7930   44.0370 C   0  0  0  0  0  0  0  0  0  0  0  0
   38.9560   27.1800   43.5300 N   0  0  0  0  0  0  0  0  0  0  0  0
   38.5315   26.2319   40.2238 H   0  0  0  0  0  0  0  0  0  0  0  0
   36.4884   26.6017   42.5928 H   0  0  0  0  0  0  0  0  0  0  0  0
   37.5666   23.9130   42.4381 H   0  0  0  0  0  0  0  0  0  0  0  0
   35.8565   24.3951   42.4203 H   0  0  0  0  0  0  0  0  0  0  0  0
   37.7311   23.8555   40.0865 H   0  0  0  0  0  0  0  0  0  0  0  0
   36.0358   23.4953   40.1732 H   0  0  0  0  0  0  0  0  0  0  0  0
   36.6534   25.7062   38.7952 H   0  0  0  0  0  0  0  0  0  0  0  0
   35.4624   26.0240   40.0046 H   0  0  0  0  0  0  0  0  0  0  0  0
   35.4370   27.8847   41.4817 H   0  0  0  0  0  0  0  0  0  0  0  0
   35.2518   30.4209   41.3532 H   0  0  0  0  0  0  0  0  0  0  0  0
   39.1125   30.5379   39.4947 H   0  0  0  0  0  0  0  0  0  0  0  0
   40.8014   27.4153   44.6671 H   0  0  0  0  0  0  0  0  0  0  0  0
  1  2  1  0
  2 12  1  0
  3  2  1  0
  4  3  1  0
  5  4  1  0
  5  1  1  0
  6  1  1  0
  6  7  2  0
  8  7  1  0
  9  8  2  0
 10 11  2  0
 10  9  1  0
 11  6  1  0
 12 13  2  0
 12 16  1  0
 13 14  1  0
 14 15  1  0
 16 15  2  0
  1 17  1  6
  2 18  1  1
  3 19  1  0
  3 20  1  0
  4 21  1  0
  4 22  1  0
  5 23  1  0
  5 24  1  0
  7 25  1  0
  8 26  1  0
 10 27  1  0
 15 28  1  0
M  ISO  8  17  13  18  13  19  13  20  13  21  13  22  13  23  13  24  13
M  ISO  4  25  14  26  14  27  14  28  14
M  END
>  <minimizedAffinity>  (1) 
-4.38798571

>  <minimizedRMSD>  (1) 
1.03523743

$$$$
