
     RDKit          3D

 26 27  0  0  1  0  0  0  0  0999 V2000
   39.0930   28.5740   42.4940 C   0  0  1  0  0  0  0  0  0  0  0  0
   38.4090   27.7070   43.5450 C   0  0  2  0  0  0  0  0  0  0  0  0
   39.4530   26.7200   43.9620 C   0  0  0  0  0  0  0  0  0  0  0  0
   40.7050   27.0510   43.1520 C   0  0  0  0  0  0  0  0  0  0  0  0
   40.0500   27.6170   41.8730 C   0  0  0  0  0  0  0  0  0  0  0  0
   38.1070   29.1530   41.5950 C   0  0  0  0  0  0  0  0  0  0  0  0
   38.1130   28.6970   40.2450 C   0  0  0  0  0  0  0  0  0  0  0  0
   37.1550   29.2400   39.3650 C   0  0  0  0  0  0  0  0  0  0  0  0
   36.2770   30.1760   39.8730 N   0  0  0  0  0  0  0  0  0  0  0  0
   36.3240   30.5680   41.1670 C   0  0  0  0  0  0  0  0  0  0  0  0
   37.2310   30.0620   42.0220 N   0  0  0  0  0  0  0  0  0  0  0  0
   37.1610   27.0890   43.0790 C   0  0  0  0  0  0  0  0  0  0  0  0
   37.0880   26.0630   42.3400 O   0  0  0  0  0  0  0  0  0  0  0  0
   35.9810   27.6900   43.4880 O   0  0  0  0  0  0  0  0  0  0  0  0
   39.6213   29.4620   42.8714 H   0  0  0  0  0  0  0  0  0  0  0  0
   38.0611   28.3072   44.3986 H   0  0  0  0  0  0  0  0  0  0  0  0
   39.6594   26.8159   45.0382 H   0  0  0  0  0  0  0  0  0  0  0  0
   39.1213   25.6870   43.7805 H   0  0  0  0  0  0  0  0  0  0  0  0
   41.3320   27.8009   43.6565 H   0  0  0  0  0  0  0  0  0  0  0  0
   41.3898   26.2058   42.9886 H   0  0  0  0  0  0  0  0  0  0  0  0
   39.5337   26.8360   41.2956 H   0  0  0  0  0  0  0  0  0  0  0  0
   40.7466   28.0563   41.1437 H   0  0  0  0  0  0  0  0  0  0  0  0
   38.8404   27.9468   39.9013 H   0  0  0  0  0  0  0  0  0  0  0  0
   37.1088   28.9288   38.3109 H   0  0  0  0  0  0  0  0  0  0  0  0
   35.6043   31.3174   41.5282 H   0  0  0  0  0  0  0  0  0  0  0  0
   35.1100   27.3152   43.2033 H   0  0  0  0  0  0  0  0  0  0  0  0
  1  2  1  0
  2  3  1  0
  4  3  1  0
  5  1  1  0
  5  4  1  0
  6 11  1  0
  6  1  1  0
  7  6  2  0
  8  9  2  0
  8  7  1  0
  9 10  1  0
 10 11  2  0
 12 14  1  0
 12  2  1  0
 13 12  2  0
  1 15  1  1
  2 16  1  1
  3 17  1  0
  3 18  1  0
  4 19  1  0
  4 20  1  0
  5 21  1  0
  5 22  1  0
  7 23  1  0
  8 24  1  0
 10 25  1  0
 14 26  1  0
M  ISO  8  15  13  16  13  17  13  18  13  19  13  20  13  21  13  22  13
M  ISO  4  23  14  24  14  25  14  26   3
M  END
>  <minimizedAffinity>  (1) 
-4.24157763

>  <minimizedRMSD>  (1) 
2.58509612

$$$$
