
     RDKit          3D

 24 25  0  0  1  0  0  0  0  0999 V2000
   37.8590   27.5710   42.9630 C   0  0  1  0  0  0  0  0  0  0  0  0
   38.0950   26.2690   42.1810 C   0  0  2  0  0  0  0  0  0  0  0  0
   39.2470   25.6330   42.9060 C   0  0  0  0  0  0  0  0  0  0  0  0
   39.6830   26.6280   43.9820 C   0  0  0  0  0  0  0  0  0  0  0  0
   39.2570   27.9490   43.3170 C   0  0  0  0  0  0  0  0  0  0  0  0
   37.1520   28.5140   42.1100 C   0  0  0  0  0  0  0  0  0  0  0  0
   37.7260   29.8000   41.9220 C   0  0  0  0  0  0  0  0  0  0  0  0
   37.0800   30.7410   41.0970 C   0  0  0  0  0  0  0  0  0  0  0  0
   35.8990   30.3280   40.5150 N   0  0  0  0  0  0  0  0  0  0  0  0
   35.3870   29.0910   40.7200 C   0  0  0  0  0  0  0  0  0  0  0  0
   36.0090   28.2070   41.5060 N   0  0  0  0  0  0  0  0  0  0  0  0
   38.4120   26.5770   40.4380 S   0  0  0  0  0  0  0  0  0  0  0  0
   37.2255   27.5139   43.8605 H   0  0  0  0  0  0  0  0  0  0  0  0
   37.2168   25.6071   42.1565 H   0  0  0  0  0  0  0  0  0  0  0  0
   38.9294   24.6871   43.3690 H   0  0  0  0  0  0  0  0  0  0  0  0
   40.0734   25.4033   42.2173 H   0  0  0  0  0  0  0  0  0  0  0  0
   39.1534   26.4600   44.9314 H   0  0  0  0  0  0  0  0  0  0  0  0
   40.7459   26.5721   44.2598 H   0  0  0  0  0  0  0  0  0  0  0  0
   39.8623   28.1807   42.4283 H   0  0  0  0  0  0  0  0  0  0  0  0
   39.3681   28.8537   43.9327 H   0  0  0  0  0  0  0  0  0  0  0  0
   38.6721   30.0599   42.4193 H   0  0  0  0  0  0  0  0  0  0  0  0
   37.4927   31.7463   40.9266 H   0  0  0  0  0  0  0  0  0  0  0  0
   34.4428   28.8090   40.2311 H   0  0  0  0  0  0  0  0  0  0  0  0
   39.3905   27.5277   40.3128 H   0  0  0  0  0  0  0  0  0  0  0  0
  1  5  1  0
  2  3  1  0
  2  1  1  0
  3  4  1  0
  5  4  1  0
  6  1  1  0
  7  6  2  0
  8  7  1  0
  9 10  1  0
  9  8  2  0
 10 11  2  0
 11  6  1  0
 12  2  1  0
  1 13  1  1
  2 14  1  6
  3 15  1  0
  3 16  1  0
  4 17  1  0
  4 18  1  0
  5 19  1  0
  5 20  1  0
  7 21  1  0
  8 22  1  0
 10 23  1  0
 12 24  1  0
M  ISO  8  13  13  14  13  15  13  16  13  17  13  18  13  19  13  20  13
M  ISO  4  21  14  22  14  23  14  24  11
M  END
>  <minimizedAffinity>  (1) 
-3.95350337

>  <minimizedRMSD>  (1) 
2.78048491

$$$$
