
     RDKit          3D

 25 26  0  0  1  0  0  0  0  0999 V2000
   37.6300   28.5480   41.5520 C   0  0  1  0  0  0  0  0  0  0  0  0
   38.2150   28.9800   42.9050 C   0  0  1  0  0  0  0  0  0  0  0  0
   37.5960   28.0220   43.8730 C   0  0  0  0  0  0  0  0  0  0  0  0
   36.5930   27.1860   43.0980 C   0  0  0  0  0  0  0  0  0  0  0  0
   36.2460   28.1600   41.9510 C   0  0  0  0  0  0  0  0  0  0  0  0
   37.7190   29.6530   40.6050 C   0  0  0  0  0  0  0  0  0  0  0  0
   36.9680   30.8220   40.8900 C   0  0  0  0  0  0  0  0  0  0  0  0
   37.0410   31.9100   40.0000 C   0  0  0  0  0  0  0  0  0  0  0  0
   37.8580   31.7430   38.8940 N   0  0  0  0  0  0  0  0  0  0  0  0
   38.5460   30.6190   38.6710 C   0  0  0  0  0  0  0  0  0  0  0  0
   38.4810   29.5660   39.5240 N   0  0  0  0  0  0  0  0  0  0  0  0
   39.6830   28.9220   42.9230 C   0  0  0  0  0  0  0  0  0  0  0  0
   40.2130   27.8770   43.3080 O   0  0  0  0  0  0  0  0  0  0  0  0
   38.1415   27.7279   41.0269 H   0  0  0  0  0  0  0  0  0  0  0  0
   37.9917   30.0296   43.1469 H   0  0  0  0  0  0  0  0  0  0  0  0
   38.3703   27.3735   44.3088 H   0  0  0  0  0  0  0  0  0  0  0  0
   37.1025   28.5615   44.6948 H   0  0  0  0  0  0  0  0  0  0  0  0
   37.0442   26.2568   42.7198 H   0  0  0  0  0  0  0  0  0  0  0  0
   35.7293   26.8424   43.6862 H   0  0  0  0  0  0  0  0  0  0  0  0
   35.6610   29.0220   42.3040 H   0  0  0  0  0  0  0  0  0  0  0  0
   35.6201   27.7434   41.1481 H   0  0  0  0  0  0  0  0  0  0  0  0
   36.3394   30.8774   41.7910 H   0  0  0  0  0  0  0  0  0  0  0  0
   36.4807   32.8406   40.1731 H   0  0  0  0  0  0  0  0  0  0  0  0
   39.1798   30.5460   37.7749 H   0  0  0  0  0  0  0  0  0  0  0  0
   40.2895   29.7823   42.6036 H   0  0  0  0  0  0  0  0  0  0  0  0
  1  5  1  0
  1  2  1  0
  2 12  1  0
  2  3  1  0
  4  3  1  0
  5  4  1  0
  6  7  2  0
  6  1  1  0
  8  7  1  0
  9  8  2  0
 10  9  1  0
 10 11  2  0
 11  6  1  0
 12 13  2  0
  1 14  1  6
  2 15  1  1
  3 16  1  0
  3 17  1  0
  4 18  1  0
  4 19  1  0
  5 20  1  0
  5 21  1  0
  7 22  1  0
  8 23  1  0
 10 24  1  0
 12 25  1  0
M  ISO  8  14  13  15  13  16  13  17  13  18  13  19  13  20  13  21  13
M  ISO  4  22  14  23  14  24  14  25   6
M  END
>  <minimizedAffinity>  (1) 
-3.89613986

>  <minimizedRMSD>  (1) 
2.85326838

$$$$
