
     RDKit          3D

 31 33  0  0  1  0  0  0  0  0999 V2000
   37.5560   26.6240   40.5530 C   0  0  1  0  0  0  0  0  0  0  0  0
   37.3500   26.0030   41.9430 C   0  0  1  0  0  0  0  0  0  0  0  0
   36.8240   24.6270   41.6500 C   0  0  0  0  0  0  0  0  0  0  0  0
   36.7000   24.5250   40.1250 C   0  0  0  0  0  0  0  0  0  0  0  0
   36.4470   26.0040   39.7800 C   0  0  0  0  0  0  0  0  0  0  0  0
   37.5180   28.0730   40.6700 C   0  0  0  0  0  0  0  0  0  0  0  0
   36.2850   28.6670   41.0150 C   0  0  0  0  0  0  0  0  0  0  0  0
   36.2020   30.0640   41.1540 C   0  0  0  0  0  0  0  0  0  0  0  0
   37.3720   30.7680   40.9350 N   0  0  0  0  0  0  0  0  0  0  0  0
   38.5290   30.1560   40.6070 C   0  0  0  0  0  0  0  0  0  0  0  0
   38.5980   28.8260   40.4770 N   0  0  0  0  0  0  0  0  0  0  0  0
   38.6870   25.9580   42.5910 C   0  0  0  0  0  0  0  0  0  0  0  0
   39.1060   26.8490   43.5500 C   0  0  0  0  0  0  0  0  0  0  0  0
   40.3450   26.8150   44.1560 C   0  0  0  0  0  0  0  0  0  0  0  0
   41.1880   25.8190   43.7560 N   0  0  0  0  0  0  0  0  0  0  0  0
   40.8010   24.9420   42.8240 C   0  0  0  0  0  0  0  0  0  0  0  0
   39.5840   25.0030   42.2520 N   0  0  0  0  0  0  0  0  0  0  0  0
   38.5202   26.4374   40.0576 H   0  0  0  0  0  0  0  0  0  0  0  0
   36.6643   26.5471   42.6092 H   0  0  0  0  0  0  0  0  0  0  0  0
   37.5222   23.8649   42.0265 H   0  0  0  0  0  0  0  0  0  0  0  0
   35.8539   24.4587   42.1405 H   0  0  0  0  0  0  0  0  0  0  0  0
   37.6258   24.1505   39.6639 H   0  0  0  0  0  0  0  0  0  0  0  0
   35.9289   23.8266   39.7677 H   0  0  0  0  0  0  0  0  0  0  0  0
   36.5401   26.1963   38.7010 H   0  0  0  0  0  0  0  0  0  0  0  0
   35.4405   26.3773   40.0199 H   0  0  0  0  0  0  0  0  0  0  0  0
   35.3945   28.0411   41.1742 H   0  0  0  0  0  0  0  0  0  0  0  0
   35.2612   30.5674   41.4214 H   0  0  0  0  0  0  0  0  0  0  0  0
   39.4325   30.7618   40.4434 H   0  0  0  0  0  0  0  0  0  0  0  0
   38.4070   27.6419   43.8546 H   0  0  0  0  0  0  0  0  0  0  0  0
   40.6374   27.5505   44.9199 H   0  0  0  0  0  0  0  0  0  0  0  0
   41.4970   24.1479   42.5158 H   0  0  0  0  0  0  0  0  0  0  0  0
  1  6  1  0
  1  2  1  0
  2 12  1  0
  3  2  1  0
  4  3  1  0
  5  4  1  0
  5  1  1  0
  6  7  2  0
  7  8  1  0
  9  8  2  0
 10  9  1  0
 11 10  2  0
 11  6  1  0
 12 13  2  0
 13 14  1  0
 15 14  2  0
 16 15  1  0
 17 12  1  0
 17 16  2  0
  1 18  1  6
  2 19  1  1
  3 20  1  0
  3 21  1  0
  4 22  1  0
  4 23  1  0
  5 24  1  0
  5 25  1  0
  7 26  1  0
  8 27  1  0
 10 28  1  0
 13 29  1  0
 14 30  1  0
 16 31  1  0
M  ISO  8  18  13  19  13  20  13  21  13  22  13  23  13  24  13  25  13
M  ISO  6  26  14  27  14  28  14  29  14  30  14  31  14
M  END
>  <minimizedAffinity>  (1) 
-4.59783983

>  <minimizedRMSD>  (1) 
1.26048446

$$$$
