
     RDKit          3D

 37 39  0  0  1  0  0  0  0  0999 V2000
   36.8870   29.9120   39.1680 C   0  0  1  0  0  0  0  0  0  0  0  0
   35.8970   29.8020   40.3610 C   0  0  1  0  0  0  0  0  0  0  0  0
   34.7380   29.0670   39.7880 C   0  0  0  0  0  0  0  0  0  0  0  0
   35.0530   28.8360   38.3020 C   0  0  0  0  0  0  0  0  0  0  0  0
   35.9600   30.0510   38.0270 C   0  0  0  0  0  0  0  0  0  0  0  0
   37.7670   31.0550   39.4160 C   0  0  0  0  0  0  0  0  0  0  0  0
   37.1770   32.3100   39.6420 C   0  0  0  0  0  0  0  0  0  0  0  0
   37.9900   33.4310   39.8850 C   0  0  0  0  0  0  0  0  0  0  0  0
   39.3460   33.2090   39.8830 N   0  0  0  0  0  0  0  0  0  0  0  0
   39.8740   31.9900   39.6630 C   0  0  0  0  0  0  0  0  0  0  0  0
   39.0880   30.9280   39.4320 N   0  0  0  0  0  0  0  0  0  0  0  0
   36.6130   29.0080   41.4090 C   0  0  0  0  0  0  0  0  0  0  0  0
   37.3230   29.5590   42.4340 C   0  0  0  0  0  0  0  0  0  0  0  0
   37.9710   28.8270   43.4070 C   0  0  0  0  0  0  0  0  0  0  0  0
   37.8800   27.4620   43.3120 N   0  0  0  0  0  0  0  0  0  0  0  0
   37.1860   26.8990   42.3090 C   0  0  0  0  0  0  0  0  0  0  0  0
   36.5670   27.6510   41.3780 N   0  0  0  0  0  0  0  0  0  0  0  0
   37.1520   25.4130   42.3010 C   0  0  0  0  0  0  0  0  0  0  0  0
   36.9120   24.9940   40.8600 C   0  0  0  0  0  0  0  0  0  0  0  0
   37.5785   29.0738   38.9967 H   0  0  0  0  0  0  0  0  0  0  0  0
   35.5635   30.7489   40.8106 H   0  0  0  0  0  0  0  0  0  0  0  0
   34.6083   28.1033   40.3023 H   0  0  0  0  0  0  0  0  0  0  0  0
   33.8066   29.6391   39.9109 H   0  0  0  0  0  0  0  0  0  0  0  0
   35.5835   27.8860   38.1403 H   0  0  0  0  0  0  0  0  0  0  0  0
   34.1714   28.7594   37.6486 H   0  0  0  0  0  0  0  0  0  0  0  0
   36.4797   29.9673   37.0611 H   0  0  0  0  0  0  0  0  0  0  0  0
   35.4433   31.0193   37.9532 H   0  0  0  0  0  0  0  0  0  0  0  0
   36.0821   32.4152   39.6288 H   0  0  0  0  0  0  0  0  0  0  0  0
   37.5647   34.4291   40.0664 H   0  0  0  0  0  0  0  0  0  0  0  0
   40.9666   31.8632   39.6729 H   0  0  0  0  0  0  0  0  0  0  0  0
   37.3829   30.6560   42.4885 H   0  0  0  0  0  0  0  0  0  0  0  0
   38.5324   29.3136   44.2182 H   0  0  0  0  0  0  0  0  0  0  0  0
   38.1103   25.0091   42.6595 H   0  0  0  0  0  0  0  0  0  0  0  0
   36.3617   25.0299   42.9633 H   0  0  0  0  0  0  0  0  0  0  0  0
   36.3653   24.0396   40.8419 H   0  0  0  0  0  0  0  0  0  0  0  0
   36.3191   25.7660   40.3476 H   0  0  0  0  0  0  0  0  0  0  0  0
   37.8778   24.8731   40.3476 H   0  0  0  0  0  0  0  0  0  0  0  0
  1  6  1  0
  1  2  1  0
  2 12  1  0
  3  2  1  0
  4  3  1  0
  5  4  1  0
  5  1  1  0
  6 11  1  0
  6  7  2  0
  7  8  1  0
  9  8  2  0
 10  9  1  0
 11 10  2  0
 12 13  2  0
 13 14  1  0
 15 14  2  0
 16 15  1  0
 17 12  1  0
 17 16  2  0
 18 16  1  0
 19 18  1  0
  1 20  1  6
  2 21  1  1
  3 22  1  0
  3 23  1  0
  4 24  1  0
  4 25  1  0
  5 26  1  0
  5 27  1  0
  7 28  1  0
  8 29  1  0
 10 30  1  0
 13 31  1  0
 14 32  1  0
 18 33  1  0
 18 34  1  0
 19 35  1  0
 19 36  1  0
 19 37  1  0
M  ISO  8  20  13  21  13  22  13  23  13  24  13  25  13  26  13  27  13
M  ISO  8  28  14  29  14  30  14  31  14  32  14  33   8  34   8  35   8
M  ISO  2  36   8  37   8
M  END
>  <minimizedAffinity>  (1) 
-5.37651777

>  <minimizedRMSD>  (1) 
4.03002453

$$$$
