
     RDKit          3D

 32 34  0  0  1  0  0  0  0  0999 V2000
   37.5000   26.5090   40.4310 C   0  0  1  0  0  0  0  0  0  0  0  0
   37.2160   25.9540   41.8550 C   0  0  1  0  0  0  0  0  0  0  0  0
   36.8330   24.5360   41.6200 C   0  0  0  0  0  0  0  0  0  0  0  0
   36.8610   24.3300   40.0930 C   0  0  0  0  0  0  0  0  0  0  0  0
   36.5070   25.7610   39.6320 C   0  0  0  0  0  0  0  0  0  0  0  0
   37.3210   27.9620   40.4720 C   0  0  0  0  0  0  0  0  0  0  0  0
   36.0360   28.4630   40.8000 C   0  0  0  0  0  0  0  0  0  0  0  0
   35.8400   29.8540   40.8470 C   0  0  0  0  0  0  0  0  0  0  0  0
   36.9290   30.6430   40.5660 N   0  0  0  0  0  0  0  0  0  0  0  0
   38.1310   30.1240   40.2580 C   0  0  0  0  0  0  0  0  0  0  0  0
   38.3220   28.7940   40.2130 N   0  0  0  0  0  0  0  0  0  0  0  0
   38.5090   26.0760   42.5990 C   0  0  0  0  0  0  0  0  0  0  0  0
   38.7490   27.0300   43.5540 C   0  0  0  0  0  0  0  0  0  0  0  0
   39.9370   27.1360   44.2520 C   0  0  0  0  0  0  0  0  0  0  0  0
   40.9120   26.2190   43.9460 N   0  0  0  0  0  0  0  0  0  0  0  0
   40.6920   25.2820   43.0150 C   0  0  0  0  0  0  0  0  0  0  0  0
   39.5240   25.2010   42.3500 N   0  0  0  0  0  0  0  0  0  0  0  0
   41.7380   24.4070   42.7810 O   0  0  0  0  0  0  0  0  0  0  0  0
   38.5092   26.3758   40.0142 H   0  0  0  0  0  0  0  0  0  0  0  0
   36.4303   26.4665   42.4295 H   0  0  0  0  0  0  0  0  0  0  0  0
   37.5510   23.8611   42.1090 H   0  0  0  0  0  0  0  0  0  0  0  0
   35.8389   24.3153   42.0359 H   0  0  0  0  0  0  0  0  0  0  0  0
   37.8555   24.0200   39.7396 H   0  0  0  0  0  0  0  0  0  0  0  0
   36.1945   23.5401   39.7164 H   0  0  0  0  0  0  0  0  0  0  0  0
   36.6598   25.8965   38.5511 H   0  0  0  0  0  0  0  0  0  0  0  0
   35.4585   26.0606   39.7767 H   0  0  0  0  0  0  0  0  0  0  0  0
   35.2056   27.7741   41.0143 H   0  0  0  0  0  0  0  0  0  0  0  0
   34.8615   30.2900   41.0968 H   0  0  0  0  0  0  0  0  0  0  0  0
   38.9716   30.7989   40.0393 H   0  0  0  0  0  0  0  0  0  0  0  0
   37.9501   27.7524   43.7774 H   0  0  0  0  0  0  0  0  0  0  0  0
   40.0934   27.9146   45.0132 H   0  0  0  0  0  0  0  0  0  0  0  0
   41.6418   23.6900   42.1052 H   0  0  0  0  0  0  0  0  0  0  0  0
  1  6  1  0
  1  2  1  0
  2 12  1  0
  3  2  1  0
  4  3  1  0
  5  4  1  0
  5  1  1  0
  6  7  2  0
  7  8  1  0
  9  8  2  0
 10  9  1  0
 11 10  2  0
 11  6  1  0
 12 13  2  0
 13 14  1  0
 15 14  2  0
 16 15  1  0
 17 12  1  0
 17 16  2  0
 18 16  1  0
  1 19  1  6
  2 20  1  1
  3 21  1  0
  3 22  1  0
  4 23  1  0
  4 24  1  0
  5 25  1  0
  5 26  1  0
  7 27  1  0
  8 28  1  0
 10 29  1  0
 13 30  1  0
 14 31  1  0
 18 32  1  0
M  ISO  8  19  13  20  13  21  13  22  13  23  13  24  13  25  13  26  13
M  ISO  6  27  14  28  14  29  14  30  14  31  14  32   3
M  END
>  <minimizedAffinity>  (1) 
-4.77862549

>  <minimizedRMSD>  (1) 
0.389972895

$$$$
