
     RDKit          3D

 33 35  0  0  1  0  0  0  0  0999 V2000
   37.4650   26.5150   40.3070 C   0  0  1  0  0  0  0  0  0  0  0  0
   37.1390   25.9200   41.7060 C   0  0  1  0  0  0  0  0  0  0  0  0
   36.8150   24.4950   41.4260 C   0  0  0  0  0  0  0  0  0  0  0  0
   36.9110   24.3230   39.8950 C   0  0  0  0  0  0  0  0  0  0  0  0
   36.5310   25.7510   39.4550 C   0  0  0  0  0  0  0  0  0  0  0  0
   38.3870   26.0740   42.5150 C   0  0  0  0  0  0  0  0  0  0  0  0
   38.5450   26.9730   43.5290 C   0  0  0  0  0  0  0  0  0  0  0  0
   39.6870   27.1080   44.2820 C   0  0  0  0  0  0  0  0  0  0  0  0
   40.7240   26.2670   43.9720 N   0  0  0  0  0  0  0  0  0  0  0  0
   40.5940   25.3690   42.9760 C   0  0  0  0  0  0  0  0  0  0  0  0
   39.4520   25.2770   42.2660 N   0  0  0  0  0  0  0  0  0  0  0  0
   41.7180   24.5280   42.7150 N   0  0  0  0  0  0  0  0  0  0  0  0
   37.2260   27.9540   40.3720 C   0  0  0  0  0  0  0  0  0  0  0  0
   35.9210   28.4130   40.6230 C   0  0  0  0  0  0  0  0  0  0  0  0
   35.6670   29.7940   40.6910 C   0  0  0  0  0  0  0  0  0  0  0  0
   36.7440   30.6230   40.5000 N   0  0  0  0  0  0  0  0  0  0  0  0
   37.9840   30.1480   40.2610 C   0  0  0  0  0  0  0  0  0  0  0  0
   38.2220   28.8340   40.1970 N   0  0  0  0  0  0  0  0  0  0  0  0
   38.4949   26.4273   39.9306 H   0  0  0  0  0  0  0  0  0  0  0  0
   36.3108   26.3930   42.2540 H   0  0  0  0  0  0  0  0  0  0  0  0
   37.5359   23.8342   41.9297 H   0  0  0  0  0  0  0  0  0  0  0  0
   35.8132   24.2320   41.7964 H   0  0  0  0  0  0  0  0  0  0  0  0
   37.9280   24.0520   39.5754 H   0  0  0  0  0  0  0  0  0  0  0  0
   36.2869   23.5212   39.4736 H   0  0  0  0  0  0  0  0  0  0  0  0
   36.7210   25.9164   38.3842 H   0  0  0  0  0  0  0  0  0  0  0  0
   35.4684   26.0123   39.5674 H   0  0  0  0  0  0  0  0  0  0  0  0
   37.6988   27.6366   43.7603 H   0  0  0  0  0  0  0  0  0  0  0  0
   39.7645   27.8508   45.0897 H   0  0  0  0  0  0  0  0  0  0  0  0
   41.6714   23.8243   41.9643 H   0  0  0  0  0  0  0  0  0  0  0  0
   42.5754   24.6250   43.2774 H   0  0  0  0  0  0  0  0  0  0  0  0
   35.1011   27.6936   40.7658 H   0  0  0  0  0  0  0  0  0  0  0  0
   34.6592   30.1889   40.8868 H   0  0  0  0  0  0  0  0  0  0  0  0
   38.8143   30.8548   40.1162 H   0  0  0  0  0  0  0  0  0  0  0  0
  1 13  1  0
  1  2  1  0
  2  6  1  0
  3  2  1  0
  4  3  1  0
  5  4  1  0
  5  1  1  0
  6  7  2  0
  7  8  1  0
  9  8  2  0
 10  9  1  0
 11  6  1  0
 11 10  2  0
 12 10  1  0
 13 14  2  0
 14 15  1  0
 16 15  2  0
 17 16  1  0
 18 17  2  0
 18 13  1  0
  1 19  1  6
  2 20  1  1
  3 21  1  0
  3 22  1  0
  4 23  1  0
  4 24  1  0
  5 25  1  0
  5 26  1  0
  7 27  1  0
  8 28  1  0
 12 29  1  0
 12 30  1  0
 14 31  1  0
 15 32  1  0
 17 33  1  0
M  ISO  8  19  13  20  13  21  13  22  13  23  13  24  13  25  13  26  13
M  ISO  5  27  14  28  14  31  14  32  14  33  14
M  END
>  <minimizedAffinity>  (1) 
-4.66562128

>  <minimizedRMSD>  (1) 
0.533370018

$$$$
