
     RDKit          3D

 33 35  0  0  1  0  0  0  0  0999 V2000
   37.3560   26.2610   40.1810 C   0  0  1  0  0  0  0  0  0  0  0  0
   37.2280   26.1960   41.7290 C   0  0  1  0  0  0  0  0  0  0  0  0
   36.9480   24.7610   42.0090 C   0  0  0  0  0  0  0  0  0  0  0  0
   36.8580   24.0570   40.6400 C   0  0  0  0  0  0  0  0  0  0  0  0
   36.3610   25.2390   39.7800 C   0  0  0  0  0  0  0  0  0  0  0  0
   37.0600   27.6330   39.7640 C   0  0  0  0  0  0  0  0  0  0  0  0
   35.9150   28.2620   40.3110 C   0  0  0  0  0  0  0  0  0  0  0  0
   35.6110   29.5800   39.9280 C   0  0  0  0  0  0  0  0  0  0  0  0
   36.4640   30.1760   39.0320 N   0  0  0  0  0  0  0  0  0  0  0  0
   37.5470   29.5280   38.5400 C   0  0  0  0  0  0  0  0  0  0  0  0
   37.8350   28.2790   38.9040 N   0  0  0  0  0  0  0  0  0  0  0  0
   38.5590   26.6280   42.2620 C   0  0  0  0  0  0  0  0  0  0  0  0
   38.8300   27.8890   42.7120 C   0  0  0  0  0  0  0  0  0  0  0  0
   40.0490   28.2860   43.2140 C   0  0  0  0  0  0  0  0  0  0  0  0
   41.0320   27.3260   43.2500 N   0  0  0  0  0  0  0  0  0  0  0  0
   40.7900   26.0870   42.8160 C   0  0  0  0  0  0  0  0  0  0  0  0
   39.5850   25.7340   42.3300 N   0  0  0  0  0  0  0  0  0  0  0  0
   41.8520   25.0880   42.8650 C   0  0  0  0  0  0  0  0  0  0  0  0
   42.8820   25.2870   43.5630 O   0  0  0  0  0  0  0  0  0  0  0  0
   38.3366   26.0503   39.7294 H   0  0  0  0  0  0  0  0  0  0  0  0
   36.4477   26.8274   42.1791 H   0  0  0  0  0  0  0  0  0  0  0  0
   37.7612   24.3250   42.6078 H   0  0  0  0  0  0  0  0  0  0  0  0
   36.0151   24.6418   42.5796 H   0  0  0  0  0  0  0  0  0  0  0  0
   37.8377   23.6874   40.3031 H   0  0  0  0  0  0  0  0  0  0  0  0
   36.2227   23.1593   40.6152 H   0  0  0  0  0  0  0  0  0  0  0  0
   35.3357   25.5373   40.0441 H   0  0  0  0  0  0  0  0  0  0  0  0
   36.2989   25.0413   38.6997 H   0  0  0  0  0  0  0  0  0  0  0  0
   35.2725   27.7267   41.0256 H   0  0  0  0  0  0  0  0  0  0  0  0
   34.7324   30.1083   40.3267 H   0  0  0  0  0  0  0  0  0  0  0  0
   38.2033   30.0444   37.8240 H   0  0  0  0  0  0  0  0  0  0  0  0
   38.0226   28.6350   42.6706 H   0  0  0  0  0  0  0  0  0  0  0  0
   40.2261   29.3129   43.5662 H   0  0  0  0  0  0  0  0  0  0  0  0
   41.7530   24.1558   42.2894 H   0  0  0  0  0  0  0  0  0  0  0  0
  1  2  1  0
  2  3  1  0
  2 12  1  0
  4  3  1  0
  5  1  1  0
  5  4  1  0
  6  1  1  0
  6  7  2  0
  8  7  1  0
  9  8  2  0
 10 11  2  0
 10  9  1  0
 11  6  1  0
 12 17  1  0
 12 13  2  0
 13 14  1  0
 14 15  2  0
 16 18  1  0
 16 15  1  0
 17 16  2  0
 18 19  2  0
  1 20  1  1
  2 21  1  1
  3 22  1  0
  3 23  1  0
  4 24  1  0
  4 25  1  0
  5 26  1  0
  5 27  1  0
  7 28  1  0
  8 29  1  0
 10 30  1  0
 13 31  1  0
 14 32  1  0
 18 33  1  0
M  ISO  8  20  13  21  13  22  13  23  13  24  13  25  13  26  13  27  13
M  ISO  6  28  14  29  14  30  14  31  14  32  14  33   6
M  END
>  <minimizedAffinity>  (1) 
-4.42098665

>  <minimizedRMSD>  (1) 
1.41228735

$$$$
