
     RDKit          3D

 32 34  0  0  1  0  0  0  0  0999 V2000
   37.4430   26.5860   40.2530 C   0  0  1  0  0  0  0  0  0  0  0  0
   37.3380   26.0980   41.7240 C   0  0  1  0  0  0  0  0  0  0  0  0
   36.9130   24.6770   41.6110 C   0  0  0  0  0  0  0  0  0  0  0  0
   36.7420   24.3950   40.1050 C   0  0  0  0  0  0  0  0  0  0  0  0
   36.3560   25.8130   39.6150 C   0  0  0  0  0  0  0  0  0  0  0  0
   37.2760   28.0410   40.2520 C   0  0  0  0  0  0  0  0  0  0  0  0
   36.0980   28.5750   40.8170 C   0  0  0  0  0  0  0  0  0  0  0  0
   35.9090   29.9680   40.8320 C   0  0  0  0  0  0  0  0  0  0  0  0
   36.9110   30.7280   40.2800 N   0  0  0  0  0  0  0  0  0  0  0  0
   38.0220   30.1730   39.7500 C   0  0  0  0  0  0  0  0  0  0  0  0
   38.2010   28.8470   39.7370 N   0  0  0  0  0  0  0  0  0  0  0  0
   38.7130   26.2400   42.2960 C   0  0  0  0  0  0  0  0  0  0  0  0
   38.9750   26.7370   43.5450 C   0  0  0  0  0  0  0  0  0  0  0  0
   40.2420   26.8570   44.0780 C   0  0  0  0  0  0  0  0  0  0  0  0
   41.2830   26.4450   43.2840 N   0  0  0  0  0  0  0  0  0  0  0  0
   41.0430   25.9560   42.0570 C   0  0  0  0  0  0  0  0  0  0  0  0
   39.7950   25.8510   41.5650 N   0  0  0  0  0  0  0  0  0  0  0  0
   42.4820   25.4540   41.1230 S   0  0  0  0  0  0  0  0  0  0  0  0
   38.3917   26.4240   39.7203 H   0  0  0  0  0  0  0  0  0  0  0  0
   36.6341   26.6465   42.3672 H   0  0  0  0  0  0  0  0  0  0  0  0
   37.6807   24.0148   42.0377 H   0  0  0  0  0  0  0  0  0  0  0  0
   35.9778   24.4945   42.1607 H   0  0  0  0  0  0  0  0  0  0  0  0
   37.6777   24.0437   39.6455 H   0  0  0  0  0  0  0  0  0  0  0  0
   36.0185   23.6039   39.8584 H   0  0  0  0  0  0  0  0  0  0  0  0
   36.3838   25.8915   38.5182 H   0  0  0  0  0  0  0  0  0  0  0  0
   35.3356   26.1376   39.8670 H   0  0  0  0  0  0  0  0  0  0  0  0
   35.3344   27.9070   41.2420 H   0  0  0  0  0  0  0  0  0  0  0  0
   35.0062   30.4252   41.2631 H   0  0  0  0  0  0  0  0  0  0  0  0
   38.7965   30.8249   39.3197 H   0  0  0  0  0  0  0  0  0  0  0  0
   38.1230   27.0604   44.1611 H   0  0  0  0  0  0  0  0  0  0  0  0
   40.4091   27.2619   45.0870 H   0  0  0  0  0  0  0  0  0  0  0  0
   43.4869   25.1034   41.9857 H   0  0  0  0  0  0  0  0  0  0  0  0
  1  2  1  0
  2 12  1  0
  3  2  1  0
  4  3  1  0
  5  4  1  0
  5  1  1  0
  6  1  1  0
  6  7  2  0
  7  8  1  0
  9  8  2  0
 10  9  1  0
 11 10  2  0
 11  6  1  0
 12 13  2  0
 13 14  1  0
 15 14  2  0
 16 15  1  0
 17 16  2  0
 17 12  1  0
 18 16  1  0
  1 19  1  6
  2 20  1  1
  3 21  1  0
  3 22  1  0
  4 23  1  0
  4 24  1  0
  5 25  1  0
  5 26  1  0
  7 27  1  0
  8 28  1  0
 10 29  1  0
 13 30  1  0
 14 31  1  0
 18 32  1  0
M  ISO  8  19  13  20  13  21  13  22  13  23  13  24  13  25  13  26  13
M  ISO  6  27  14  28  14  29  14  30  14  31  14  32  11
M  END
>  <minimizedAffinity>  (1) 
-4.39280558

>  <minimizedRMSD>  (1) 
0.803334713

$$$$
