
     RDKit          3D

 48 51  0  0  1  0  0  0  0  0999 V2000
   37.7520   30.4590   38.3400 C   0  0  1  0  0  0  0  0  0  0  0  0
   36.4450   29.9770   39.0230 C   0  0  1  0  0  0  0  0  0  0  0  0
   35.7610   29.1650   37.9830 C   0  0  0  0  0  0  0  0  0  0  0  0
   36.6510   29.2310   36.7300 C   0  0  0  0  0  0  0  0  0  0  0  0
   37.3100   30.6150   36.9400 C   0  0  0  0  0  0  0  0  0  0  0  0
   38.1850   31.6840   39.0150 C   0  0  0  0  0  0  0  0  0  0  0  0
   37.2350   32.7100   39.1990 C   0  0  0  0  0  0  0  0  0  0  0  0
   37.6190   33.8980   39.8450 C   0  0  0  0  0  0  0  0  0  0  0  0
   38.9270   33.9770   40.2570 N   0  0  0  0  0  0  0  0  0  0  0  0
   39.8010   32.9690   40.0600 C   0  0  0  0  0  0  0  0  0  0  0  0
   39.4350   31.8380   39.4450 N   0  0  0  0  0  0  0  0  0  0  0  0
   36.8800   29.1590   40.1960 C   0  0  0  0  0  0  0  0  0  0  0  0
   36.0490   28.7840   41.2180 C   0  0  0  0  0  0  0  0  0  0  0  0
   36.4460   28.0170   42.2940 C   0  0  0  0  0  0  0  0  0  0  0  0
   37.7600   27.6210   42.3120 N   0  0  0  0  0  0  0  0  0  0  0  0
   38.5880   27.9810   41.3200 C   0  0  0  0  0  0  0  0  0  0  0  0
   38.1710   28.7280   40.2840 N   0  0  0  0  0  0  0  0  0  0  0  0
   40.2780   27.4260   41.4540 S   0  0  0  0  0  0  0  0  0  0  0  0
   40.9830   27.8730   43.0760 C   0  0  0  0  0  0  0  0  0  0  0  0
   42.1380   28.7650   42.8150 C   0  0  0  0  0  0  0  0  0  0  0  0
   43.3440   28.5390   43.6650 C   0  0  0  0  0  0  0  0  0  0  0  0
   42.8830   28.0330   45.0150 C   0  0  0  0  0  0  0  0  0  0  0  0
   42.3880   26.6250   44.7620 C   0  0  0  0  0  0  0  0  0  0  0  0
   41.2530   26.6050   43.7950 C   0  0  0  0  0  0  0  0  0  0  0  0
   38.6326   29.8016   38.3889 H   0  0  0  0  0  0  0  0  0  0  0  0
   35.7668   30.7657   39.3809 H   0  0  0  0  0  0  0  0  0  0  0  0
   35.6556   28.1235   38.3210 H   0  0  0  0  0  0  0  0  0  0  0  0
   34.7507   29.5480   37.7767 H   0  0  0  0  0  0  0  0  0  0  0  0
   36.0566   29.1982   35.8050 H   0  0  0  0  0  0  0  0  0  0  0  0
   37.3565   28.3944   36.6187 H   0  0  0  0  0  0  0  0  0  0  0  0
   38.1571   30.7750   36.2568 H   0  0  0  0  0  0  0  0  0  0  0  0
   36.6587   31.4800   36.7463 H   0  0  0  0  0  0  0  0  0  0  0  0
   36.2031   32.5818   38.8403 H   0  0  0  0  0  0  0  0  0  0  0  0
   36.9090   34.7215   40.0119 H   0  0  0  0  0  0  0  0  0  0  0  0
   40.8372   33.0787   40.4124 H   0  0  0  0  0  0  0  0  0  0  0  0
   35.0006   29.1146   41.1786 H   0  0  0  0  0  0  0  0  0  0  0  0
   35.7462   27.7376   43.0953 H   0  0  0  0  0  0  0  0  0  0  0  0
   40.3223   28.4463   43.7430 H   0  0  0  0  0  0  0  0  0  0  0  0
   42.4364   28.6308   41.7648 H   0  0  0  0  0  0  0  0  0  0  0  0
   41.7899   29.7799   43.0576 H   0  0  0  0  0  0  0  0  0  0  0  0
   43.9988   27.7927   43.1914 H   0  0  0  0  0  0  0  0  0  0  0  0
   43.9071   29.4766   43.7827 H   0  0  0  0  0  0  0  0  0  0  0  0
   43.7186   28.0256   45.7303 H   0  0  0  0  0  0  0  0  0  0  0  0
   42.1004   28.6727   45.4489 H   0  0  0  0  0  0  0  0  0  0  0  0
   43.2144   26.0244   44.3542 H   0  0  0  0  0  0  0  0  0  0  0  0
   42.0327   26.2097   45.7166 H   0  0  0  0  0  0  0  0  0  0  0  0
   40.3433   26.3342   44.3509 H   0  0  0  0  0  0  0  0  0  0  0  0
   41.5412   25.8817   43.0179 H   0  0  0  0  0  0  0  0  0  0  0  0
  1  6  1  0
  1  2  1  0
  2 12  1  0
  3  2  1  0
  4  5  1  0
  4  3  1  0
  5  1  1  0
  6  7  2  0
  6 11  1  0
  7  8  1  0
  8  9  2  0
 10  9  1  0
 11 10  2  0
 12 17  1  0
 12 13  2  0
 13 14  1  0
 14 15  2  0
 16 18  1  0
 16 15  1  0
 17 16  2  0
 18 19  1  0
 19 24  1  0
 20 19  1  0
 20 21  1  0
 21 22  1  0
 23 22  1  0
 24 23  1  0
  1 25  1  6
  2 26  1  1
  3 27  1  0
  3 28  1  0
  4 29  1  0
  4 30  1  0
  5 31  1  0
  5 32  1  0
  7 33  1  0
  8 34  1  0
 10 35  1  0
 13 36  1  0
 14 37  1  0
 19 38  1  0
 20 39  1  0
 20 40  1  0
 21 41  1  0
 21 42  1  0
 22 43  1  0
 22 44  1  0
 23 45  1  0
 23 46  1  0
 24 47  1  0
 24 48  1  0
M  ISO  8  25  13  26  13  27  13  28  13  29  13  30  13  31  13  32  13
M  ISO  8  33  14  34  14  35  14  36  14  37  14  38  13  39  13  40  13
M  ISO  8  41  13  42  13  43  13  44  13  45  13  46  13  47  13  48  13
M  END
>  <minimizedAffinity>  (1) 
-5.48536348

>  <minimizedRMSD>  (1) 
4.33400106

$$$$
