
     RDKit          3D

 44 47  0  0  1  0  0  0  0  0999 V2000
   37.4400   26.5790   40.2760 C   0  0  1  0  0  0  0  0  0  0  0  0
   37.2960   26.0910   41.7260 C   0  0  1  0  0  0  0  0  0  0  0  0
   36.8880   24.6540   41.5840 C   0  0  0  0  0  0  0  0  0  0  0  0
   36.7550   24.3800   40.0840 C   0  0  0  0  0  0  0  0  0  0  0  0
   36.3760   25.8000   39.5920 C   0  0  0  0  0  0  0  0  0  0  0  0
   37.2850   28.0290   40.2630 C   0  0  0  0  0  0  0  0  0  0  0  0
   36.0920   28.5590   40.8090 C   0  0  0  0  0  0  0  0  0  0  0  0
   35.9050   29.9540   40.8130 C   0  0  0  0  0  0  0  0  0  0  0  0
   36.9210   30.7120   40.2740 N   0  0  0  0  0  0  0  0  0  0  0  0
   38.0330   30.1600   39.7690 C   0  0  0  0  0  0  0  0  0  0  0  0
   38.2120   28.8360   39.7640 N   0  0  0  0  0  0  0  0  0  0  0  0
   38.6530   26.2210   42.3550 C   0  0  0  0  0  0  0  0  0  0  0  0
   38.8770   26.7340   43.5950 C   0  0  0  0  0  0  0  0  0  0  0  0
   40.1200   26.8610   44.1710 C   0  0  0  0  0  0  0  0  0  0  0  0
   41.1900   26.4310   43.4170 N   0  0  0  0  0  0  0  0  0  0  0  0
   40.9910   25.9220   42.1920 C   0  0  0  0  0  0  0  0  0  0  0  0
   39.7570   25.8140   41.6660 N   0  0  0  0  0  0  0  0  0  0  0  0
   42.4560   25.3990   41.3110 S   0  0  0  0  0  0  0  0  0  0  0  0
   44.0100   24.8120   43.4150 N   0  0  0  0  0  0  0  0  0  0  0  0
   45.4000   24.8310   43.8360 C   0  0  0  0  0  0  0  0  0  0  0  0
   46.1980   25.3650   42.6950 C   0  0  0  0  0  0  0  0  0  0  0  0
   45.1900   25.5270   41.5760 C   0  0  0  0  0  0  0  0  0  0  0  0
   43.9200   25.7550   42.3170 C   0  0  1  0  0  0  0  0  0  0  0  0
   38.4064   26.4183   39.7758 H   0  0  0  0  0  0  0  0  0  0  0  0
   36.5723   26.6430   42.3436 H   0  0  0  0  0  0  0  0  0  0  0  0
   37.6538   23.9975   42.0227 H   0  0  0  0  0  0  0  0  0  0  0  0
   35.9403   24.4585   42.1072 H   0  0  0  0  0  0  0  0  0  0  0  0
   37.7025   24.0339   39.6453 H   0  0  0  0  0  0  0  0  0  0  0  0
   36.0406   23.5876   39.8162 H   0  0  0  0  0  0  0  0  0  0  0  0
   36.4407   25.8875   38.4974 H   0  0  0  0  0  0  0  0  0  0  0  0
   35.3454   26.1157   39.8116 H   0  0  0  0  0  0  0  0  0  0  0  0
   35.3227   27.8911   41.2239 H   0  0  0  0  0  0  0  0  0  0  0  0
   34.9951   30.4148   41.2250 H   0  0  0  0  0  0  0  0  0  0  0  0
   38.8147   30.8106   39.3499 H   0  0  0  0  0  0  0  0  0  0  0  0
   38.0056   27.0699   44.1762 H   0  0  0  0  0  0  0  0  0  0  0  0
   40.2523   27.2827   45.1783 H   0  0  0  0  0  0  0  0  0  0  0  0
   43.7427   23.8682   43.1007 H   0  0  0  0  0  0  0  0  0  0  0  0
   45.5187   25.4805   44.7158 H   0  0  0  0  0  0  0  0  0  0  0  0
   45.7389   23.8214   44.1114 H   0  0  0  0  0  0  0  0  0  0  0  0
   46.6501   26.3334   42.9553 H   0  0  0  0  0  0  0  0  0  0  0  0
   47.0304   24.7016   42.4177 H   0  0  0  0  0  0  0  0  0  0  0  0
   45.1323   24.6186   40.9584 H   0  0  0  0  0  0  0  0  0  0  0  0
   45.4398   26.3367   40.8746 H   0  0  0  0  0  0  0  0  0  0  0  0
   43.8072   26.8042   42.6277 H   0  0  0  0  0  0  0  0  0  0  0  0
  1  2  1  0
  2 12  1  0
  3  2  1  0
  4  3  1  0
  5  4  1  0
  5  1  1  0
  6  1  1  0
  6  7  2  0
  7  8  1  0
  9  8  2  0
 10  9  1  0
 11 10  2  0
 11  6  1  0
 12 13  2  0
 13 14  1  0
 15 14  2  0
 16 15  1  0
 17 16  2  0
 17 12  1  0
 18 16  1  0
 19 20  1  0
 21 20  1  0
 22 23  1  0
 22 21  1  0
 23 18  1  0
 23 19  1  0
  1 24  1  6
  2 25  1  1
  3 26  1  0
  3 27  1  0
  4 28  1  0
  4 29  1  0
  5 30  1  0
  5 31  1  0
  7 32  1  0
  8 33  1  0
 10 34  1  0
 13 35  1  0
 14 36  1  0
 19 37  1  0
 20 38  1  0
 20 39  1  0
 21 40  1  0
 21 41  1  0
 22 42  1  0
 22 43  1  0
 23 44  1  1
M  ISO  8  24  13  25  13  26  13  27  13  28  13  29  13  30  13  31  13
M  ISO  8  32  14  33  14  34  14  35  14  36  14  37   5  38  13  39  13
M  ISO  5  40  13  41  13  42  13  43  13  44  13
M  END
>  <minimizedAffinity>  (1) 
-4.84793901

>  <minimizedRMSD>  (1) 
0.196949899

$$$$
