
     RDKit          3D

 42 45  0  0  1  0  0  0  0  0999 V2000
   37.4010   26.5730   40.2010 C   0  0  1  0  0  0  0  0  0  0  0  0
   37.2300   26.0540   41.6370 C   0  0  1  0  0  0  0  0  0  0  0  0
   36.8550   24.6120   41.4560 C   0  0  0  0  0  0  0  0  0  0  0  0
   36.7920   24.3600   39.9470 C   0  0  0  0  0  0  0  0  0  0  0  0
   36.3840   25.7730   39.4640 C   0  0  0  0  0  0  0  0  0  0  0  0
   37.2060   28.0210   40.1990 C   0  0  0  0  0  0  0  0  0  0  0  0
   36.0200   28.5140   40.7950 C   0  0  0  0  0  0  0  0  0  0  0  0
   35.7960   29.9020   40.8130 C   0  0  0  0  0  0  0  0  0  0  0  0
   36.7670   30.6890   40.2350 N   0  0  0  0  0  0  0  0  0  0  0  0
   37.8780   30.1660   39.6820 C   0  0  0  0  0  0  0  0  0  0  0  0
   38.0920   28.8470   39.6650 N   0  0  0  0  0  0  0  0  0  0  0  0
   38.5430   26.2140   42.3180 C   0  0  0  0  0  0  0  0  0  0  0  0
   38.7040   26.7560   43.5590 C   0  0  0  0  0  0  0  0  0  0  0  0
   39.9270   26.9120   44.1770 C   0  0  0  0  0  0  0  0  0  0  0  0
   41.0330   26.4850   43.4770 N   0  0  0  0  0  0  0  0  0  0  0  0
   40.8910   25.9490   42.2500 C   0  0  0  0  0  0  0  0  0  0  0  0
   39.6840   25.8090   41.6720 N   0  0  0  0  0  0  0  0  0  0  0  0
   42.4010   25.4440   41.4330 S   0  0  0  0  0  0  0  0  0  0  0  0
   43.7950   26.0460   42.3830 C   0  0  0  0  0  0  0  0  0  0  0  0
   44.4460   25.4350   43.4360 C   0  0  0  0  0  0  0  0  0  0  0  0
   45.5050   26.0900   44.0220 C   0  0  0  0  0  0  0  0  0  0  0  0
   45.9490   27.3200   43.6140 C   0  0  0  0  0  0  0  0  0  0  0  0
   45.2980   27.9370   42.5550 C   0  0  0  0  0  0  0  0  0  0  0  0
   44.2210   27.3020   41.9400 C   0  0  0  0  0  0  0  0  0  0  0  0
   38.3893   26.4494   39.7341 H   0  0  0  0  0  0  0  0  0  0  0  0
   36.4754   26.5768   42.2430 H   0  0  0  0  0  0  0  0  0  0  0  0
   37.6132   23.9623   41.9176 H   0  0  0  0  0  0  0  0  0  0  0  0
   35.8896   24.3911   41.9348 H   0  0  0  0  0  0  0  0  0  0  0  0
   37.7679   24.0545   39.5417 H   0  0  0  0  0  0  0  0  0  0  0  0
   36.1172   23.5483   39.6374 H   0  0  0  0  0  0  0  0  0  0  0  0
   36.4845   25.8814   38.3740 H   0  0  0  0  0  0  0  0  0  0  0  0
   35.3364   26.0526   39.6497 H   0  0  0  0  0  0  0  0  0  0  0  0
   35.2866   27.8231   41.2363 H   0  0  0  0  0  0  0  0  0  0  0  0
   34.8923   30.3365   41.2652 H   0  0  0  0  0  0  0  0  0  0  0  0
   38.6249   30.8386   39.2350 H   0  0  0  0  0  0  0  0  0  0  0  0
   37.8052   27.0884   44.0990 H   0  0  0  0  0  0  0  0  0  0  0  0
   40.0145   27.3557   45.1797 H   0  0  0  0  0  0  0  0  0  0  0  0
   44.1255   24.4471   43.7984 H   0  0  0  0  0  0  0  0  0  0  0  0
   46.0214   25.6008   44.8610 H   0  0  0  0  0  0  0  0  0  0  0  0
   46.8000   27.8064   44.1132 H   0  0  0  0  0  0  0  0  0  0  0  0
   45.6312   28.9242   42.2023 H   0  0  0  0  0  0  0  0  0  0  0  0
   43.7033   27.7912   41.1018 H   0  0  0  0  0  0  0  0  0  0  0  0
  1  2  1  0
  2 12  1  0
  3  2  1  0
  4  3  1  0
  5  4  1  0
  5  1  1  0
  6  1  1  0
  6  7  2  0
  7  8  1  0
  9  8  2  0
 10  9  1  0
 11 10  2  0
 11  6  1  0
 12 13  2  0
 13 14  1  0
 15 14  2  0
 16 15  1  0
 17 16  2  0
 17 12  1  0
 18 16  1  0
 18 19  1  0
 19 20  2  0
 20 21  1  0
 22 21  2  0
 23 22  1  0
 24 19  1  0
 24 23  2  0
  1 25  1  6
  2 26  1  1
  3 27  1  0
  3 28  1  0
  4 29  1  0
  4 30  1  0
  5 31  1  0
  5 32  1  0
  7 33  1  0
  8 34  1  0
 10 35  1  0
 13 36  1  0
 14 37  1  0
 20 38  1  0
 21 39  1  0
 22 40  1  0
 23 41  1  0
 24 42  1  0
M  ISO  8  25  13  26  13  27  13  28  13  29  13  30  13  31  13  32  13
M  ISO  8  33  14  34  14  35  14  36  14  37  14  38  14  39  14  40  14
M  ISO  2  41  14  42  14
M  END
>  <minimizedAffinity>  (1) 
-4.4753089

>  <minimizedRMSD>  (1) 
0.614599466

$$$$
