
     RDKit          3D

 39 42  0  0  1  0  0  0  0  0999 V2000
   37.3880   26.4750   40.1900 C   0  0  1  0  0  0  0  0  0  0  0  0
   37.2080   26.0070   41.6420 C   0  0  1  0  0  0  0  0  0  0  0  0
   36.8410   24.5570   41.5190 C   0  0  0  0  0  0  0  0  0  0  0  0
   36.7850   24.2470   40.0190 C   0  0  0  0  0  0  0  0  0  0  0  0
   36.3770   25.6450   39.4840 C   0  0  0  0  0  0  0  0  0  0  0  0
   37.1870   27.9210   40.1380 C   0  0  0  0  0  0  0  0  0  0  0  0
   36.0590   28.4400   40.8220 C   0  0  0  0  0  0  0  0  0  0  0  0
   35.8320   29.8280   40.7960 C   0  0  0  0  0  0  0  0  0  0  0  0
   36.7440   30.5910   40.0900 N   0  0  0  0  0  0  0  0  0  0  0  0
   37.7950   30.0390   39.4620 C   0  0  0  0  0  0  0  0  0  0  0  0
   38.0190   28.7240   39.4820 N   0  0  0  0  0  0  0  0  0  0  0  0
   38.5250   26.1960   42.3250 C   0  0  0  0  0  0  0  0  0  0  0  0
   38.6730   26.7640   43.5560 C   0  0  0  0  0  0  0  0  0  0  0  0
   39.8930   26.9450   44.1760 C   0  0  0  0  0  0  0  0  0  0  0  0
   41.0080   26.5160   43.4830 N   0  0  0  0  0  0  0  0  0  0  0  0
   40.8630   25.9570   42.2720 C   0  0  0  0  0  0  0  0  0  0  0  0
   39.6680   25.7920   41.6910 N   0  0  0  0  0  0  0  0  0  0  0  0
   42.3880   25.4480   41.4660 S   0  0  0  0  0  0  0  0  0  0  0  0
   43.7800   26.2120   42.3610 C   0  0  0  0  0  0  0  0  0  0  0  0
   44.4140   25.4620   43.2470 C   0  0  0  0  0  0  0  0  0  0  0  0
   45.4560   25.7610   44.0360 C   0  0  0  0  0  0  0  0  0  0  0  0
   45.8200   27.1530   43.7530 C   0  0  0  0  0  0  0  0  0  0  0  0
   44.6180   27.7810   42.4210 S   0  0  0  0  0  0  0  0  0  0  0  0
   38.3780   26.3407   39.7297 H   0  0  0  0  0  0  0  0  0  0  0  0
   36.4450   26.5491   42.2199 H   0  0  0  0  0  0  0  0  0  0  0  0
   37.6009   23.9300   42.0083 H   0  0  0  0  0  0  0  0  0  0  0  0
   35.8760   24.3488   42.0041 H   0  0  0  0  0  0  0  0  0  0  0  0
   37.7628   23.9277   39.6291 H   0  0  0  0  0  0  0  0  0  0  0  0
   36.1136   23.4230   39.7358 H   0  0  0  0  0  0  0  0  0  0  0  0
   36.4794   25.7132   38.3909 H   0  0  0  0  0  0  0  0  0  0  0  0
   35.3289   25.9289   39.6599 H   0  0  0  0  0  0  0  0  0  0  0  0
   35.3743   27.7701   41.3628 H   0  0  0  0  0  0  0  0  0  0  0  0
   34.9731   30.2831   41.3109 H   0  0  0  0  0  0  0  0  0  0  0  0
   38.4920   30.6907   38.9147 H   0  0  0  0  0  0  0  0  0  0  0  0
   37.7681   27.0971   44.0853 H   0  0  0  0  0  0  0  0  0  0  0  0
   39.9730   27.4072   45.1710 H   0  0  0  0  0  0  0  0  0  0  0  0
   44.0278   24.4375   43.3526 H   0  0  0  0  0  0  0  0  0  0  0  0
   45.9446   25.0901   44.7579 H   0  0  0  0  0  0  0  0  0  0  0  0
   46.6339   27.7251   44.2223 H   0  0  0  0  0  0  0  0  0  0  0  0
  1  2  1  0
  2 12  1  0
  3  2  1  0
  4  3  1  0
  5  4  1  0
  5  1  1  0
  6  1  1  0
  6  7  2  0
  8  7  1  0
  9  8  2  0
 10 11  2  0
 10  9  1  0
 11  6  1  0
 12 13  2  0
 13 14  1  0
 15 14  2  0
 16 15  1  0
 17 16  2  0
 17 12  1  0
 18 16  1  0
 18 19  1  0
 19 23  1  0
 19 20  2  0
 20 21  1  0
 22 21  2  0
 23 22  1  0
  1 24  1  6
  2 25  1  1
  3 26  1  0
  3 27  1  0
  4 28  1  0
  4 29  1  0
  5 30  1  0
  5 31  1  0
  7 32  1  0
  8 33  1  0
 10 34  1  0
 13 35  1  0
 14 36  1  0
 20 37  1  0
 21 38  1  0
 22 39  1  0
M  ISO  8  24  13  25  13  26  13  27  13  28  13  29  13  30  13  31  13
M  ISO  8  32  14  33  14  34  14  35  14  36  14  37  14  38  14  39  14
M  END
>  <minimizedAffinity>  (1) 
-4.40651989

>  <minimizedRMSD>  (1) 
0.512283742

$$$$
