
     RDKit          3D

 17 18  0  0  0  0  0  0  0  0999 V2000
   38.5250   28.7850   43.2390 C   0  0  0  0  0  0  0  0  0  0  0  0
   37.5280   27.7890   43.1190 C   0  0  0  0  0  0  0  0  0  0  0  0
   36.5100   27.9830   42.1750 C   0  0  0  0  0  0  0  0  0  0  0  0
   36.5310   29.1150   41.4230 N   0  0  0  0  0  0  0  0  0  0  0  0
   37.5000   30.0490   41.5630 C   0  0  0  0  0  0  0  0  0  0  0  0
   38.4910   29.8910   42.4610 N   0  0  0  0  0  0  0  0  0  0  0  0
   37.5480   31.2740   40.7720 C   0  0  0  0  0  0  0  0  0  0  0  0
   36.8130   31.6810   39.6530 C   0  0  0  0  0  0  0  0  0  0  0  0
   37.3170   32.9320   39.3620 C   0  0  0  0  0  0  0  0  0  0  0  0
   38.3090   33.2380   40.2770 C   0  0  0  0  0  0  0  0  0  0  0  0
   38.4100   32.2260   41.0930 O   0  0  0  0  0  0  0  0  0  0  0  0
   39.3356   28.6590   43.9718 H   0  0  0  0  0  0  0  0  0  0  0  0
   37.5508   26.8874   43.7488 H   0  0  0  0  0  0  0  0  0  0  0  0
   35.7126   27.2363   42.0458 H   0  0  0  0  0  0  0  0  0  0  0  0
   36.0182   31.1314   39.1275 H   0  0  0  0  0  0  0  0  0  0  0  0
   36.9847   33.5800   38.5376 H   0  0  0  0  0  0  0  0  0  0  0  0
   38.9025   34.1636   40.3099 H   0  0  0  0  0  0  0  0  0  0  0  0
  2  1  2  0
  3  2  1  0
  4  5  1  0
  4  3  2  0
  5  6  2  0
  6  1  1  0
  7 11  1  0
  7  5  1  0
  8  7  2  0
  9  8  1  0
  9 10  2  0
 10 11  1  0
  1 12  1  0
  2 13  1  0
  3 14  1  0
  8 15  1  0
  9 16  1  0
 10 17  1  0
M  ISO  6  12  14  13  14  14  14  15  14  16  14  17  14
M  END
>  <minimizedAffinity>  (1) 
-3.70800543

>  <minimizedRMSD>  (1) 
1.73624527

$$$$
