
     RDKit          3D

 34 36  0  0  1  0  0  0  0  0999 V2000
   40.0020   31.8970   40.1670 C   0  0  0  0  0  0  0  0  0  0  0  0
   39.5870   30.7350   40.8680 C   0  0  0  0  0  0  0  0  0  0  0  0
   38.2520   30.6090   41.1760 C   0  0  0  0  0  0  0  0  0  0  0  0
   37.3830   31.5970   40.8000 N   0  0  0  0  0  0  0  0  0  0  0  0
   37.8080   32.6980   40.1300 C   0  0  0  0  0  0  0  0  0  0  0  0
   39.1210   32.8470   39.8130 N   0  0  0  0  0  0  0  0  0  0  0  0
   36.8530   33.6910   39.7660 N   0  0  0  0  0  0  0  0  0  0  0  0
   37.7550   29.4850   41.8710 N   0  0  0  0  0  0  0  0  0  0  0  0
   38.2600   29.1780   43.1870 C   0  0  0  0  0  0  0  0  0  0  0  0
   37.2050   28.3210   43.8840 C   0  0  0  0  0  0  0  0  0  0  0  0
   36.8530   27.1340   43.1680 N   0  0  0  0  0  0  0  0  0  0  0  0
   36.9880   27.2160   41.7480 C   0  0  0  0  0  0  0  0  0  0  0  0
   36.7510   28.6390   41.2870 C   0  0  2  0  0  0  0  0  0  0  0  0
   36.6440   28.7420   39.8170 C   0  0  0  0  0  0  0  0  0  0  0  0
   35.4690   29.2200   39.2310 C   0  0  0  0  0  0  0  0  0  0  0  0
   35.2810   29.3500   37.8800 C   0  0  0  0  0  0  0  0  0  0  0  0
   36.3250   28.9810   37.1210 N   0  0  0  0  0  0  0  0  0  0  0  0
   37.4690   28.5170   37.6550 C   0  0  0  0  0  0  0  0  0  0  0  0
   37.6620   28.3860   38.9920 N   0  0  0  0  0  0  0  0  0  0  0  0
   41.0640   32.0219   39.9090 H   0  0  0  0  0  0  0  0  0  0  0  0
   40.3108   29.9585   41.1564 H   0  0  0  0  0  0  0  0  0  0  0  0
   37.1551   34.5340   39.2572 H   0  0  0  0  0  0  0  0  0  0  0  0
   35.8606   33.5657   40.0117 H   0  0  0  0  0  0  0  0  0  0  0  0
   39.2058   28.6220   43.1080 H   0  0  0  0  0  0  0  0  0  0  0  0
   38.4551   30.0988   43.7562 H   0  0  0  0  0  0  0  0  0  0  0  0
   37.5943   28.0274   44.8700 H   0  0  0  0  0  0  0  0  0  0  0  0
   36.2934   28.9327   43.9531 H   0  0  0  0  0  0  0  0  0  0  0  0
   37.4576   26.3698   43.5017 H   0  0  0  0  0  0  0  0  0  0  0  0
   38.0026   26.9038   41.4598 H   0  0  0  0  0  0  0  0  0  0  0  0
   36.2463   26.5550   41.2758 H   0  0  0  0  0  0  0  0  0  0  0  0
   35.7713   28.9909   41.6426 H   0  0  0  0  0  0  0  0  0  0  0  0
   34.6426   29.5103   39.8964 H   0  0  0  0  0  0  0  0  0  0  0  0
   34.3428   29.7292   37.4487 H   0  0  0  0  0  0  0  0  0  0  0  0
   38.2861   28.2304   36.9766 H   0  0  0  0  0  0  0  0  0  0  0  0
  1  2  2  0
  2  3  1  0
  3  8  1  0
  4  3  2  0
  5  4  1  0
  6  5  2  0
  6  1  1  0
  7  5  1  0
  8  9  1  0
  9 10  1  0
 11 10  1  0
 12 11  1  0
 13 12  1  0
 13  8  1  0
 14 13  1  0
 15 14  2  0
 16 15  1  0
 17 18  1  0
 17 16  2  0
 18 19  2  0
 19 14  1  0
  1 20  1  0
  2 21  1  0
  7 22  1  0
  7 23  1  0
  9 24  1  0
  9 25  1  0
 10 26  1  0
 10 27  1  0
 11 28  1  0
 12 29  1  0
 12 30  1  0
 13 31  1  1
 15 32  1  0
 16 33  1  0
 18 34  1  0
M  ISO  8  20  14  21  14  24  13  25  13  26  13  27  13  28   5  29  13
M  ISO  5  30  13  31  13  32  14  33  14  34  14
M  END
>  <minimizedAffinity>  (1) 
-5.35913086

>  <minimizedRMSD>  (1) 
1.20095098

$$$$
