
     RDKit          3D

 26 28  0  0  0  0  0  0  0  0999 V2000
   37.3130   28.7070   42.8930 C   0  0  0  0  0  0  0  0  0  0  0  0
   38.3890   29.5960   42.8180 C   0  0  0  0  0  0  0  0  0  0  0  0
   38.5480   30.3390   41.6390 C   0  0  0  0  0  0  0  0  0  0  0  0
   37.6370   30.1430   40.6370 N   0  0  0  0  0  0  0  0  0  0  0  0
   36.6220   29.2790   40.7550 C   0  0  0  0  0  0  0  0  0  0  0  0
   36.4380   28.5490   41.8710 N   0  0  0  0  0  0  0  0  0  0  0  0
   35.7670   29.1950   39.6220 N   0  0  0  0  0  0  0  0  0  0  0  0
   34.4260   28.9680   39.7440 C   0  0  0  0  0  0  0  0  0  0  0  0
   33.8580   28.9350   38.5320 N   0  0  0  0  0  0  0  0  0  0  0  0
   34.7910   29.1370   37.6040 C   0  0  0  0  0  0  0  0  0  0  0  0
   34.8260   29.2130   36.2120 C   0  0  0  0  0  0  0  0  0  0  0  0
   36.0020   29.4370   35.6370 N   0  0  0  0  0  0  0  0  0  0  0  0
   37.1480   29.5920   36.3020 C   0  0  0  0  0  0  0  0  0  0  0  0
   37.1430   29.5230   37.6640 N   0  0  0  0  0  0  0  0  0  0  0  0
   35.9610   29.2950   38.3000 C   0  0  0  0  0  0  0  0  0  0  0  0
   37.1000   27.8940   44.1230 C   0  0  0  0  0  0  0  0  0  0  0  0
   36.7470   28.6640   45.1930 F   0  0  0  0  0  0  0  0  0  0  0  0
   38.2640   27.1740   44.4210 F   0  0  0  0  0  0  0  0  0  0  0  0
   36.0790   26.9790   43.8660 F   0  0  0  0  0  0  0  0  0  0  0  0
   33.6050   29.0480   35.5000 N   0  0  0  0  0  0  0  0  0  0  0  0
   39.0899   29.7095   43.6582 H   0  0  0  0  0  0  0  0  0  0  0  0
   39.3759   31.0541   41.5239 H   0  0  0  0  0  0  0  0  0  0  0  0
   33.8920   28.8325   40.6961 H   0  0  0  0  0  0  0  0  0  0  0  0
   38.0866   29.7735   35.7578 H   0  0  0  0  0  0  0  0  0  0  0  0
   33.5978   29.0987   34.4713 H   0  0  0  0  0  0  0  0  0  0  0  0
   32.7284   28.8778   36.0134 H   0  0  0  0  0  0  0  0  0  0  0  0
  1 16  1  0
  2  1  2  0
  3  2  1  0
  4  5  1  0
  4  3  2  0
  5  6  2  0
  6  1  1  0
  7  8  1  0
  7  5  1  0
  9  8  2  0
 10 15  2  0
 10  9  1  0
 11 10  1  0
 12 11  2  0
 12 13  1  0
 13 14  2  0
 14 15  1  0
 15  7  1  0
 16 18  1  0
 16 17  1  0
 19 16  1  0
 20 11  1  0
  2 21  1  0
  3 22  1  0
  8 23  1  0
 13 24  1  0
 20 25  1  0
 20 26  1  0
M  ISO  4  21  14  22  14  23  14  24  14
M  END
>  <minimizedAffinity>  (1) 
-5.75035429

>  <minimizedRMSD>  (1) 
1.2407999

$$$$
