
     RDKit          3D

 23 24  0  0  0  0  0  0  0  0999 V2000
   37.4480   28.7400   42.9490 C   0  0  0  0  0  0  0  0  0  0  0  0
   38.5400   29.6270   42.9880 C   0  0  0  0  0  0  0  0  0  0  0  0
   38.7690   30.4250   41.8590 C   0  0  0  0  0  0  0  0  0  0  0  0
   37.9140   30.2900   40.7890 N   0  0  0  0  0  0  0  0  0  0  0  0
   36.8850   29.4360   40.7880 C   0  0  0  0  0  0  0  0  0  0  0  0
   36.6450   28.6520   41.8740 N   0  0  0  0  0  0  0  0  0  0  0  0
   36.0070   29.3300   39.6280 C   0  0  0  0  0  0  0  0  0  0  0  0
   36.5120   29.4530   38.3540 C   0  0  0  0  0  0  0  0  0  0  0  0
   35.6720   29.3500   37.2710 C   0  0  0  0  0  0  0  0  0  0  0  0
   34.3100   29.1250   37.4090 C   0  0  0  0  0  0  0  0  0  0  0  0
   33.8320   29.0060   38.7130 C   0  0  0  0  0  0  0  0  0  0  0  0
   34.6590   29.1050   39.8370 C   0  0  0  0  0  0  0  0  0  0  0  0
   37.1490   27.8660   44.1110 C   0  0  0  0  0  0  0  0  0  0  0  0
   36.7310   28.6010   45.2010 F   0  0  0  0  0  0  0  0  0  0  0  0
   38.2840   27.1360   44.4560 F   0  0  0  0  0  0  0  0  0  0  0  0
   36.1340   26.9930   43.7590 F   0  0  0  0  0  0  0  0  0  0  0  0
   39.1903   29.6916   43.8728 H   0  0  0  0  0  0  0  0  0  0  0  0
   39.6065   31.1375   41.8289 H   0  0  0  0  0  0  0  0  0  0  0  0
   37.5865   29.6335   38.2025 H   0  0  0  0  0  0  0  0  0  0  0  0
   36.0941   29.4494   36.2601 H   0  0  0  0  0  0  0  0  0  0  0  0
   33.6439   29.0449   36.5373 H   0  0  0  0  0  0  0  0  0  0  0  0
   32.7574   28.8264   38.8649 H   0  0  0  0  0  0  0  0  0  0  0  0
   34.2502   29.0071   40.8535 H   0  0  0  0  0  0  0  0  0  0  0  0
  1  2  2  0
  1 13  1  0
  3  2  1  0
  4  3  2  0
  5  4  1  0
  5  6  2  0
  6  1  1  0
  7 12  1  0
  7  5  1  0
  8  7  2  0
  9 10  2  0
  9  8  1  0
 10 11  1  0
 11 12  2  0
 13 15  1  0
 13 14  1  0
 16 13  1  0
  2 17  1  0
  3 18  1  0
  8 19  1  0
  9 20  1  0
 10 21  1  0
 11 22  1  0
 12 23  1  0
M  ISO  7  17  14  18  14  19  14  20  14  21  14  22  14  23  14
M  END
>  <minimizedAffinity>  (1) 
-5.54185295

>  <minimizedRMSD>  (1) 
1.33371389

$$$$
