
     RDKit          3D

 29 30  0  0  0  0  0  0  0  0999 V2000
   37.4110   28.6870   42.9190 C   0  0  0  0  0  0  0  0  0  0  0  0
   38.4620   29.6190   42.9500 C   0  0  0  0  0  0  0  0  0  0  0  0
   38.6750   30.3880   41.8000 C   0  0  0  0  0  0  0  0  0  0  0  0
   37.8620   30.1910   40.7330 N   0  0  0  0  0  0  0  0  0  0  0  0
   36.8650   29.2920   40.7350 C   0  0  0  0  0  0  0  0  0  0  0  0
   36.6270   28.5250   41.8360 N   0  0  0  0  0  0  0  0  0  0  0  0
   36.0170   29.1300   39.5340 C   0  0  0  0  0  0  0  0  0  0  0  0
   36.3070   27.8310   38.8040 C   0  0  0  0  0  0  0  0  0  0  0  0
   35.7930   28.0270   37.3830 C   0  0  0  0  0  0  0  0  0  0  0  0
   34.6560   29.0060   37.3150 C   0  0  0  0  0  0  0  0  0  0  0  0
   33.7960   29.0170   38.5420 C   0  0  0  0  0  0  0  0  0  0  0  0
   34.5360   29.1200   39.8380 C   0  0  0  0  0  0  0  0  0  0  0  0
   37.1380   27.8390   44.1210 C   0  0  0  0  0  0  0  0  0  0  0  0
   36.7110   28.6120   45.1790 F   0  0  0  0  0  0  0  0  0  0  0  0
   38.2790   27.1220   44.4660 F   0  0  0  0  0  0  0  0  0  0  0  0
   36.1210   26.9590   43.7980 F   0  0  0  0  0  0  0  0  0  0  0  0
   39.0928   29.7396   43.8431 H   0  0  0  0  0  0  0  0  0  0  0  0
   39.4824   31.1341   41.7628 H   0  0  0  0  0  0  0  0  0  0  0  0
   36.2670   30.0047   38.9157 H   0  0  0  0  0  0  0  0  0  0  0  0
   37.3885   27.6301   38.7954 H   0  0  0  0  0  0  0  0  0  0  0  0
   35.8212   26.9747   39.2947 H   0  0  0  0  0  0  0  0  0  0  0  0
   36.6176   28.3993   36.7574 H   0  0  0  0  0  0  0  0  0  0  0  0
   35.4212   27.0560   37.0241 H   0  0  0  0  0  0  0  0  0  0  0  0
   35.0736   30.0139   37.1746 H   0  0  0  0  0  0  0  0  0  0  0  0
   34.0152   28.6965   36.4762 H   0  0  0  0  0  0  0  0  0  0  0  0
   33.1129   29.8763   38.4710 H   0  0  0  0  0  0  0  0  0  0  0  0
   33.2800   28.0457   38.5616 H   0  0  0  0  0  0  0  0  0  0  0  0
   34.2922   28.2578   40.4761 H   0  0  0  0  0  0  0  0  0  0  0  0
   34.2497   30.0403   40.3681 H   0  0  0  0  0  0  0  0  0  0  0  0
  1  2  2  0
  1 13  1  0
  3  2  1  0
  4  5  1  0
  4  3  2  0
  5  6  2  0
  6  1  1  0
  7 12  1  0
  7  5  1  0
  8  7  1  0
  9  8  1  0
 10  9  1  0
 10 11  1  0
 11 12  1  0
 13 15  1  0
 13 14  1  0
 16 13  1  0
  2 17  1  0
  3 18  1  0
  7 19  1  0
  8 20  1  0
  8 21  1  0
  9 22  1  0
  9 23  1  0
 10 24  1  0
 10 25  1  0
 11 26  1  0
 11 27  1  0
 12 28  1  0
 12 29  1  0
M  ISO  8  17  14  18  14  19  13  20  13  21  13  22  13  23  13  24  13
M  ISO  5  25  13  26  13  27  13  28  13  29  13
M  END
>  <minimizedAffinity>  (1) 
-5.29672527

>  <minimizedRMSD>  (1) 
1.48831236

$$$$
