
     RDKit          3D

 26 27  0  0  0  0  0  0  0  0999 V2000
   37.4870   28.8720   42.9580 C   0  0  0  0  0  0  0  0  0  0  0  0
   38.6700   29.6490   42.9760 C   0  0  0  0  0  0  0  0  0  0  0  0
   38.8660   30.5560   41.9280 C   0  0  0  0  0  0  0  0  0  0  0  0
   37.9130   30.6360   40.9600 N   0  0  0  0  0  0  0  0  0  0  0  0
   36.8010   29.8830   40.9730 C   0  0  0  0  0  0  0  0  0  0  0  0
   36.5780   28.9930   41.9740 N   0  0  0  0  0  0  0  0  0  0  0  0
   35.7930   30.0010   39.9020 C   0  0  0  0  0  0  0  0  0  0  0  0
   34.7270   28.9260   39.9480 C   0  0  0  0  0  0  0  0  0  0  0  0
   34.0290   29.1900   38.6120 C   0  0  0  0  0  0  0  0  0  0  0  0
   35.2340   29.2380   37.6850 C   0  0  0  0  0  0  0  0  0  0  0  0
   36.3840   29.7470   38.5300 C   0  0  0  0  0  0  0  0  0  0  0  0
   37.2340   27.8990   44.0430 C   0  0  0  0  0  0  0  0  0  0  0  0
   36.7530   28.5060   45.1790 F   0  0  0  0  0  0  0  0  0  0  0  0
   38.3890   27.1760   44.3280 F   0  0  0  0  0  0  0  0  0  0  0  0
   36.2620   27.0000   43.5870 F   0  0  0  0  0  0  0  0  0  0  0  0
   39.4086   29.5439   43.7843 H   0  0  0  0  0  0  0  0  0  0  0  0
   39.7661   31.1870   41.8880 H   0  0  0  0  0  0  0  0  0  0  0  0
   35.4011   31.0166   40.0603 H   0  0  0  0  0  0  0  0  0  0  0  0
   35.1649   27.9177   39.9880 H   0  0  0  0  0  0  0  0  0  0  0  0
   34.0703   28.9609   40.8297 H   0  0  0  0  0  0  0  0  0  0  0  0
   33.3406   28.3751   38.3438 H   0  0  0  0  0  0  0  0  0  0  0  0
   33.3947   30.0885   38.5919 H   0  0  0  0  0  0  0  0  0  0  0  0
   35.0440   29.9219   36.8447 H   0  0  0  0  0  0  0  0  0  0  0  0
   35.4538   28.2498   37.2548 H   0  0  0  0  0  0  0  0  0  0  0  0
   37.1822   28.9924   38.5884 H   0  0  0  0  0  0  0  0  0  0  0  0
   36.8343   30.6556   38.1037 H   0  0  0  0  0  0  0  0  0  0  0  0
  1  2  2  0
  1 12  1  0
  3  2  1  0
  4  5  1  0
  4  3  2  0
  5  6  2  0
  6  1  1  0
  7  8  1  0
  7  5  1  0
  9  8  1  0
 10 11  1  0
 10  9  1  0
 11  7  1  0
 12 14  1  0
 12 13  1  0
 15 12  1  0
  2 16  1  0
  3 17  1  0
  7 18  1  0
  8 19  1  0
  8 20  1  0
  9 21  1  0
  9 22  1  0
 10 23  1  0
 10 24  1  0
 11 25  1  0
 11 26  1  0
M  ISO  8  16  14  17  14  18  13  19  13  20  13  21  13  22  13  23  13
M  ISO  3  24  13  25  13  26  13
M  END
>  <minimizedAffinity>  (1) 
-5.25660229

>  <minimizedRMSD>  (1) 
1.60757267

$$$$
