
     RDKit          3D

 26 27  0  0  0  0  0  0  0  0999 V2000
   37.4600   28.7700   42.8910 C   0  0  0  0  0  0  0  0  0  0  0  0
   38.5670   29.6530   42.9440 C   0  0  0  0  0  0  0  0  0  0  0  0
   38.7800   30.4880   41.8510 C   0  0  0  0  0  0  0  0  0  0  0  0
   37.9200   30.4110   40.8020 N   0  0  0  0  0  0  0  0  0  0  0  0
   36.8760   29.5600   40.7810 C   0  0  0  0  0  0  0  0  0  0  0  0
   36.6420   28.7340   41.8290 N   0  0  0  0  0  0  0  0  0  0  0  0
   35.9960   29.5010   39.6730 N   0  0  0  0  0  0  0  0  0  0  0  0
   34.5940   29.1400   39.7950 C   0  0  0  0  0  0  0  0  0  0  0  0
   34.0770   28.8800   38.3860 C   0  0  0  0  0  0  0  0  0  0  0  0
   34.9130   28.0200   37.7090 O   0  0  0  0  0  0  0  0  0  0  0  0
   36.0750   28.7090   37.3410 C   0  0  0  0  0  0  0  0  0  0  0  0
   36.4390   29.7990   38.3290 C   0  0  0  0  0  0  0  0  0  0  0  0
   37.1950   27.8570   44.0400 C   0  0  0  0  0  0  0  0  0  0  0  0
   36.7460   28.5530   45.1300 F   0  0  0  0  0  0  0  0  0  0  0  0
   38.3530   27.1440   44.3650 F   0  0  0  0  0  0  0  0  0  0  0  0
   36.2130   26.9570   43.6450 F   0  0  0  0  0  0  0  0  0  0  0  0
   39.2344   29.6777   43.8181 H   0  0  0  0  0  0  0  0  0  0  0  0
   39.6241   31.1931   41.8368 H   0  0  0  0  0  0  0  0  0  0  0  0
   34.4894   28.2334   40.4091 H   0  0  0  0  0  0  0  0  0  0  0  0
   34.0223   29.9445   40.2808 H   0  0  0  0  0  0  0  0  0  0  0  0
   33.0733   28.4340   38.4468 H   0  0  0  0  0  0  0  0  0  0  0  0
   34.0392   29.8356   37.8425 H   0  0  0  0  0  0  0  0  0  0  0  0
   36.9073   27.9921   37.2837 H   0  0  0  0  0  0  0  0  0  0  0  0
   35.8868   29.1876   36.3686 H   0  0  0  0  0  0  0  0  0  0  0  0
   37.5326   29.9171   38.3364 H   0  0  0  0  0  0  0  0  0  0  0  0
   35.9338   30.7220   38.0083 H   0  0  0  0  0  0  0  0  0  0  0  0
  1  2  2  0
  1 13  1  0
  3  2  1  0
  4  3  2  0
  5  4  1  0
  5  6  2  0
  6  1  1  0
  7  8  1  0
  7  5  1  0
  9  8  1  0
 10  9  1  0
 11 10  1  0
 11 12  1  0
 12  7  1  0
 13 15  1  0
 13 14  1  0
 16 13  1  0
  2 17  1  0
  3 18  1  0
  8 19  1  0
  8 20  1  0
  9 21  1  0
  9 22  1  0
 11 23  1  0
 11 24  1  0
 12 25  1  0
 12 26  1  0
M  ISO  8  17  14  18  14  19  13  20  13  21  13  22  13  23  13  24  13
M  ISO  2  25  13  26  13
M  END
>  <minimizedAffinity>  (1) 
-5.13950396

>  <minimizedRMSD>  (1) 
1.17992318

$$$$
