
     RDKit          3D

 27 28  0  0  0  0  0  0  0  0999 V2000
   37.6920   28.8780   42.8650 C   0  0  0  0  0  0  0  0  0  0  0  0
   38.7780   29.7370   43.0740 C   0  0  0  0  0  0  0  0  0  0  0  0
   39.1340   30.5910   42.0370 C   0  0  0  0  0  0  0  0  0  0  0  0
   38.4000   30.5400   40.8720 N   0  0  0  0  0  0  0  0  0  0  0  0
   37.3690   29.7010   40.7190 C   0  0  0  0  0  0  0  0  0  0  0  0
   37.0020   28.8640   41.7060 N   0  0  0  0  0  0  0  0  0  0  0  0
   36.6500   29.6870   39.5080 N   0  0  0  0  0  0  0  0  0  0  0  0
   36.7740   30.7640   38.5360 C   0  0  0  0  0  0  0  0  0  0  0  0
   36.8620   30.1800   37.1370 C   0  0  0  0  0  0  0  0  0  0  0  0
   35.7450   29.2990   36.8600 N   0  0  0  0  0  0  0  0  0  0  0  0
   34.9000   29.0930   38.0000 C   0  0  0  0  0  0  0  0  0  0  0  0
   35.7470   28.6100   39.1560 C   0  0  0  0  0  0  0  0  0  0  0  0
   37.2650   27.9390   43.9450 C   0  0  0  0  0  0  0  0  0  0  0  0
   36.7570   28.5990   45.0310 F   0  0  0  0  0  0  0  0  0  0  0  0
   38.3400   27.1240   44.3150 F   0  0  0  0  0  0  0  0  0  0  0  0
   36.2520   27.1220   43.4330 F   0  0  0  0  0  0  0  0  0  0  0  0
   39.3299   29.7359   44.0255 H   0  0  0  0  0  0  0  0  0  0  0  0
   39.9782   31.2882   42.1433 H   0  0  0  0  0  0  0  0  0  0  0  0
   35.8945   31.4213   38.6037 H   0  0  0  0  0  0  0  0  0  0  0  0
   37.6844   31.3440   38.7476 H   0  0  0  0  0  0  0  0  0  0  0  0
   36.8597   31.0015   36.4055 H   0  0  0  0  0  0  0  0  0  0  0  0
   37.7906   29.5948   37.0642 H   0  0  0  0  0  0  0  0  0  0  0  0
   35.1810   29.7115   36.1033 H   0  0  0  0  0  0  0  0  0  0  0  0
   34.4092   30.0392   38.2718 H   0  0  0  0  0  0  0  0  0  0  0  0
   34.1302   28.3438   37.7631 H   0  0  0  0  0  0  0  0  0  0  0  0
   35.1057   28.3608   40.0142 H   0  0  0  0  0  0  0  0  0  0  0  0
   36.3087   27.7065   38.8764 H   0  0  0  0  0  0  0  0  0  0  0  0
  1  2  2  0
  1 13  1  0
  3  2  1  0
  4  3  2  0
  5  4  1  0
  5  6  2  0
  6  1  1  0
  7  5  1  0
  8  7  1  0
  9  8  1  0
 10  9  1  0
 10 11  1  0
 11 12  1  0
 12  7  1  0
 13 15  1  0
 13 14  1  0
 16 13  1  0
  2 17  1  0
  3 18  1  0
  8 19  1  0
  8 20  1  0
  9 21  1  0
  9 22  1  0
 10 23  1  0
 11 24  1  0
 11 25  1  0
 12 26  1  0
 12 27  1  0
M  ISO  8  17  14  18  14  19  13  20  13  21  13  22  13  23   5  24  13
M  ISO  3  25  13  26  13  27  13
M  END
>  <minimizedAffinity>  (1) 
-5.04343462

>  <minimizedRMSD>  (1) 
1.70590401

$$$$
