
     RDKit          3D

 22 22  0  0  0  0  0  0  0  0999 V2000
   37.5740   28.9460   42.9990 C   0  0  0  0  0  0  0  0  0  0  0  0
   38.8300   29.5850   43.1110 C   0  0  0  0  0  0  0  0  0  0  0  0
   39.1220   30.5540   42.1400 C   0  0  0  0  0  0  0  0  0  0  0  0
   38.2050   30.8160   41.1740 N   0  0  0  0  0  0  0  0  0  0  0  0
   37.0220   30.1790   41.1110 C   0  0  0  0  0  0  0  0  0  0  0  0
   36.6790   29.2260   42.0250 N   0  0  0  0  0  0  0  0  0  0  0  0
   37.2080   27.9020   44.0070 C   0  0  0  0  0  0  0  0  0  0  0  0
   36.2780   27.0250   43.5110 F   0  0  0  0  0  0  0  0  0  0  0  0
   36.7520   28.4930   45.1750 F   0  0  0  0  0  0  0  0  0  0  0  0
   38.3700   27.1870   44.3190 F   0  0  0  0  0  0  0  0  0  0  0  0
   36.0630   30.5110   40.0280 C   0  0  0  0  0  0  0  0  0  0  0  0
   35.0800   29.3660   39.9690 C   0  0  0  0  0  0  0  0  0  0  0  0
   36.7010   30.6670   38.6870 C   0  0  0  0  0  0  0  0  0  0  0  0
   39.5386   29.3362   43.9147 H   0  0  0  0  0  0  0  0  0  0  0  0
   40.0802   31.0938   42.1609 H   0  0  0  0  0  0  0  0  0  0  0  0
   35.5962   31.4803   40.2572 H   0  0  0  0  0  0  0  0  0  0  0  0
   34.8149   29.0573   40.9910 H   0  0  0  0  0  0  0  0  0  0  0  0
   34.1731   29.6884   39.4365 H   0  0  0  0  0  0  0  0  0  0  0  0
   35.5360   28.5183   39.4365 H   0  0  0  0  0  0  0  0  0  0  0  0
   37.7624   30.9265   38.8139 H   0  0  0  0  0  0  0  0  0  0  0  0
   36.6186   29.7223   38.1296 H   0  0  0  0  0  0  0  0  0  0  0  0
   36.1920   31.4671   38.1296 H   0  0  0  0  0  0  0  0  0  0  0  0
  1  2  2  0
  1  7  1  0
  3  2  1  0
  4  3  2  0
  5  4  1  0
  5  6  2  0
  6  1  1  0
  7 10  1  0
  7  9  1  0
  8  7  1  0
 11  5  1  0
 12 11  1  0
 13 11  1  0
  2 14  1  0
  3 15  1  0
 11 16  1  0
 12 17  1  0
 12 18  1  0
 12 19  1  0
 13 20  1  0
 13 21  1  0
 13 22  1  0
M  ISO  8  14  14  15  14  16   8  17   8  18   8  19   8  20   8  21   8
M  ISO  1  22   8
M  END
>  <minimizedAffinity>  (1) 
-4.83147955

>  <minimizedRMSD>  (1) 
1.70193458

$$$$
