
     RDKit          3D

 21 22  0  0  0  0  0  0  0  0999 V2000
   37.2240   28.5270   42.8040 C   0  0  0  0  0  0  0  0  0  0  0  0
   38.1360   29.5830   42.7210 C   0  0  0  0  0  0  0  0  0  0  0  0
   38.2500   30.2350   41.4860 C   0  0  0  0  0  0  0  0  0  0  0  0
   37.4810   29.8140   40.4520 N   0  0  0  0  0  0  0  0  0  0  0  0
   36.6090   28.7850   40.5750 C   0  0  0  0  0  0  0  0  0  0  0  0
   36.4740   28.1340   41.7500 N   0  0  0  0  0  0  0  0  0  0  0  0
   35.7940   28.3540   39.4390 C   0  0  0  0  0  0  0  0  0  0  0  0
   34.6720   29.1150   39.1010 C   0  0  0  0  0  0  0  0  0  0  0  0
   33.8740   28.7460   38.0370 C   0  0  0  0  0  0  0  0  0  0  0  0
   34.2110   27.6440   37.3490 N   0  0  0  0  0  0  0  0  0  0  0  0
   35.3020   26.9020   37.6750 C   0  0  0  0  0  0  0  0  0  0  0  0
   36.0680   27.2670   38.7060 N   0  0  0  0  0  0  0  0  0  0  0  0
   37.0570   27.7920   44.0960 C   0  0  0  0  0  0  0  0  0  0  0  0
   36.0790   26.8340   44.0140 F   0  0  0  0  0  0  0  0  0  0  0  0
   36.7710   28.6970   45.1210 F   0  0  0  0  0  0  0  0  0  0  0  0
   38.2660   27.1690   44.3900 F   0  0  0  0  0  0  0  0  0  0  0  0
   38.7388   29.8893   43.5886 H   0  0  0  0  0  0  0  0  0  0  0  0
   38.9507   31.0732   41.3578 H   0  0  0  0  0  0  0  0  0  0  0  0
   34.4234   30.0128   39.6859 H   0  0  0  0  0  0  0  0  0  0  0  0
   32.9884   29.3373   37.7612 H   0  0  0  0  0  0  0  0  0  0  0  0
   35.5531   26.0039   37.0916 H   0  0  0  0  0  0  0  0  0  0  0  0
  1 13  1  0
  2  1  2  0
  3  2  1  0
  4  5  1  0
  4  3  2  0
  5  6  2  0
  6  1  1  0
  7  5  1  0
  8  7  2  0
  9  8  1  0
 10 11  1  0
 10  9  2  0
 11 12  2  0
 12  7  1  0
 13 16  1  0
 13 15  1  0
 14 13  1  0
  2 17  1  0
  3 18  1  0
  8 19  1  0
  9 20  1  0
 11 21  1  0
M  ISO  5  17  14  18  14  19  14  20  14  21  14
M  END
>  <minimizedAffinity>  (1) 
-4.77252102

>  <minimizedRMSD>  (1) 
1.54446387

$$$$
