
     RDKit          3D

 20 21  0  0  0  0  0  0  0  0999 V2000
   37.4790   28.7040   42.8860 C   0  0  0  0  0  0  0  0  0  0  0  0
   38.5380   29.6180   43.0110 C   0  0  0  0  0  0  0  0  0  0  0  0
   38.8530   30.3930   41.9040 C   0  0  0  0  0  0  0  0  0  0  0  0
   38.1130   30.2190   40.7540 N   0  0  0  0  0  0  0  0  0  0  0  0
   37.1110   29.3340   40.6790 C   0  0  0  0  0  0  0  0  0  0  0  0
   36.7860   28.5720   41.7410 N   0  0  0  0  0  0  0  0  0  0  0  0
   36.4140   29.2400   39.4410 N   0  0  0  0  0  0  0  0  0  0  0  0
   36.8380   29.9720   38.3810 C   0  0  0  0  0  0  0  0  0  0  0  0
   35.9730   29.6730   37.3300 C   0  0  0  0  0  0  0  0  0  0  0  0
   35.0640   28.7840   37.7730 N   0  0  0  0  0  0  0  0  0  0  0  0
   35.3390   28.5180   39.0790 C   0  0  0  0  0  0  0  0  0  0  0  0
   37.1010   27.8480   44.0430 C   0  0  0  0  0  0  0  0  0  0  0  0
   36.1020   26.9690   43.7290 F   0  0  0  0  0  0  0  0  0  0  0  0
   36.7200   28.6400   45.1200 F   0  0  0  0  0  0  0  0  0  0  0  0
   38.2350   27.1200   44.4310 F   0  0  0  0  0  0  0  0  0  0  0  0
   39.0977   29.7160   43.9529 H   0  0  0  0  0  0  0  0  0  0  0  0
   39.6715   31.1268   41.9430 H   0  0  0  0  0  0  0  0  0  0  0  0
   37.6933   30.6632   38.3558 H   0  0  0  0  0  0  0  0  0  0  0  0
   36.0241   30.0911   36.3139 H   0  0  0  0  0  0  0  0  0  0  0  0
   34.7776   27.8297   39.7279 H   0  0  0  0  0  0  0  0  0  0  0  0
  1  2  2  0
  1 12  1  0
  3  2  1  0
  4  3  2  0
  5  4  1  0
  5  6  2  0
  6  1  1  0
  7  5  1  0
  8  7  1  0
  9 10  1  0
  9  8  2  0
 10 11  2  0
 11  7  1  0
 12 15  1  0
 12 14  1  0
 13 12  1  0
  2 16  1  0
  3 17  1  0
  8 18  1  0
  9 19  1  0
 11 20  1  0
M  ISO  5  16  14  17  14  18  14  19  14  20  14
M  END
>  <minimizedAffinity>  (1) 
-4.77121878

>  <minimizedRMSD>  (1) 
1.58718467

$$$$
