
     RDKit          3D

 45 49  0  0  1  0  0  0  0  0999 V2000
   40.0380   32.1130   40.8730 C   0  0  0  0  0  0  0  0  0  0  0  0
   39.6290   30.8630   41.4090 C   0  0  0  0  0  0  0  0  0  0  0  0
   38.2960   30.5580   41.3980 C   0  0  0  0  0  0  0  0  0  0  0  0
   37.4050   31.4670   40.8710 N   0  0  0  0  0  0  0  0  0  0  0  0
   37.8200   32.6560   40.3640 C   0  0  0  0  0  0  0  0  0  0  0  0
   39.1400   32.9830   40.3640 N   0  0  0  0  0  0  0  0  0  0  0  0
   36.8560   33.5520   39.8340 N   0  0  0  0  0  0  0  0  0  0  0  0
   37.8080   29.3460   41.9070 N   0  0  0  0  0  0  0  0  0  0  0  0
   38.0380   28.9990   43.2910 C   0  0  0  0  0  0  0  0  0  0  0  0
   36.9640   27.9780   43.6880 C   0  0  0  0  0  0  0  0  0  0  0  0
   36.9540   26.8100   42.8630 N   0  0  0  0  0  0  0  0  0  0  0  0
   37.3670   27.0190   41.5170 C   0  0  0  0  0  0  0  0  0  0  0  0
   37.0710   28.4260   41.0680 C   0  0  2  0  0  0  0  0  0  0  0  0
   37.2720   28.6240   39.6190 C   0  0  0  0  0  0  0  0  0  0  0  0
   36.2010   28.9220   38.7850 C   0  0  0  0  0  0  0  0  0  0  0  0
   36.3080   29.1180   37.4390 C   0  0  0  0  0  0  0  0  0  0  0  0
   37.5550   29.0050   36.9370 N   0  0  0  0  0  0  0  0  0  0  0  0
   38.6030   28.7190   37.7200 C   0  0  0  0  0  0  0  0  0  0  0  0
   38.5010   28.5230   39.0570 N   0  0  0  0  0  0  0  0  0  0  0  0
   39.9540   28.5820   37.2590 N   0  0  0  0  0  0  0  0  0  0  0  0
   40.7140   27.5590   36.7950 C   0  0  0  0  0  0  0  0  0  0  0  0
   41.9340   28.0490   36.5120 N   0  0  0  0  0  0  0  0  0  0  0  0
   41.9500   29.3710   36.7940 C   0  0  0  0  0  0  0  0  0  0  0  0
   43.0380   30.2380   36.6360 C   0  0  0  0  0  0  0  0  0  0  0  0
   42.7760   31.5250   36.9990 N   0  0  0  0  0  0  0  0  0  0  0  0
   41.5800   31.8920   37.4610 C   0  0  0  0  0  0  0  0  0  0  0  0
   40.5760   31.0090   37.5890 N   0  0  0  0  0  0  0  0  0  0  0  0
   40.7020   29.7040   37.2650 C   0  0  0  0  0  0  0  0  0  0  0  0
   41.1058   32.3770   40.8726 H   0  0  0  0  0  0  0  0  0  0  0  0
   40.3656   30.1583   41.8224 H   0  0  0  0  0  0  0  0  0  0  0  0
   37.1539   34.4582   39.4455 H   0  0  0  0  0  0  0  0  0  0  0  0
   35.8583   33.2963   39.8378 H   0  0  0  0  0  0  0  0  0  0  0  0
   39.0388   28.5576   43.4074 H   0  0  0  0  0  0  0  0  0  0  0  0
   37.9834   29.8917   43.9313 H   0  0  0  0  0  0  0  0  0  0  0  0
   37.1456   27.6682   44.7277 H   0  0  0  0  0  0  0  0  0  0  0  0
   35.9882   28.4702   43.5635 H   0  0  0  0  0  0  0  0  0  0  0  0
   37.5851   26.1147   43.2863 H   0  0  0  0  0  0  0  0  0  0  0  0
   38.4495   26.8388   41.4419 H   0  0  0  0  0  0  0  0  0  0  0  0
   36.8119   26.3233   40.8706 H   0  0  0  0  0  0  0  0  0  0  0  0
   35.9991   28.6349   41.1999 H   0  0  0  0  0  0  0  0  0  0  0  0
   35.2027   29.0052   39.2393 H   0  0  0  0  0  0  0  0  0  0  0  0
   35.4383   29.3518   36.8074 H   0  0  0  0  0  0  0  0  0  0  0  0
   40.3903   26.5149   36.6721 H   0  0  0  0  0  0  0  0  0  0  0  0
   44.0158   29.9099   36.2535 H   0  0  0  0  0  0  0  0  0  0  0  0
   41.4119   32.9417   37.7437 H   0  0  0  0  0  0  0  0  0  0  0  0
  1  2  2  0
  3  2  1  0
  3  8  1  0
  4  3  2  0
  5  4  1  0
  6  5  2  0
  6  1  1  0
  7  5  1  0
  8  9  1  0
  9 10  1  0
 11 10  1  0
 12 11  1  0
 13 12  1  0
 13  8  1  0
 14 13  1  0
 15 14  2  0
 16 15  1  0
 17 16  2  0
 17 18  1  0
 18 19  2  0
 19 14  1  0
 20 28  1  0
 20 18  1  0
 21 20  1  0
 22 23  1  0
 22 21  2  0
 23 28  2  0
 24 23  1  0
 24 25  2  0
 25 26  1  0
 26 27  2  0
 28 27  1  0
  1 29  1  0
  2 30  1  0
  7 31  1  0
  7 32  1  0
  9 33  1  0
  9 34  1  0
 10 35  1  0
 10 36  1  0
 11 37  1  0
 12 38  1  0
 12 39  1  0
 13 40  1  6
 15 41  1  0
 16 42  1  0
 21 43  1  0
 24 44  1  0
 26 45  1  0
M  ISO  8  29  14  30  14  33  13  34  13  35  13  36  13  37   5  38  13
M  ISO  7  39  13  40  13  41  14  42  14  43  14  44  14  45  14
M  END
>  <minimizedAffinity>  (1) 
-6.6948638

>  <minimizedRMSD>  (1) 
1.12350249

$$$$
