
     RDKit          3D

 31 33  0  0  0  0  0  0  0  0999 V2000
   37.4100   28.6840   42.9270 C   0  0  0  0  0  0  0  0  0  0  0  0
   38.3940   29.7020   43.0420 C   0  0  0  0  0  0  0  0  0  0  0  0
   38.5350   30.5990   41.9780 C   0  0  0  0  0  0  0  0  0  0  0  0
   37.7190   30.4350   40.9030 N   0  0  0  0  0  0  0  0  0  0  0  0
   36.7950   29.4520   40.8320 C   0  0  0  0  0  0  0  0  0  0  0  0
   36.6390   28.5810   41.8360 N   0  0  0  0  0  0  0  0  0  0  0  0
   35.9860   29.3630   39.6580 N   0  0  0  0  0  0  0  0  0  0  0  0
   34.6990   29.0820   39.7420 N   0  0  0  0  0  0  0  0  0  0  0  0
   34.1100   29.0430   38.5460 C   0  0  0  0  0  0  0  0  0  0  0  0
   35.0910   29.3180   37.6390 C   0  0  0  0  0  0  0  0  0  0  0  0
   36.2680   29.5190   38.3440 C   0  0  0  0  0  0  0  0  0  0  0  0
   37.6160   29.8320   38.0050 N   0  0  0  0  0  0  0  0  0  0  0  0
   38.3920   28.7250   37.8670 C   0  0  0  0  0  0  0  0  0  0  0  0
   39.7260   28.8850   37.5380 C   0  0  0  0  0  0  0  0  0  0  0  0
   40.2420   30.1560   37.3600 C   0  0  0  0  0  0  0  0  0  0  0  0
   41.6040   30.3480   37.0230 N   0  0  0  0  0  0  0  0  0  0  0  0
   39.4270   31.2370   37.5090 N   0  0  0  0  0  0  0  0  0  0  0  0
   38.1330   31.0600   37.8280 C   0  0  0  0  0  0  0  0  0  0  0  0
   37.3020   32.0170   37.9870 O   0  0  0  0  0  0  0  0  0  0  0  0
   37.2430   27.7250   44.0400 C   0  0  0  0  0  0  0  0  0  0  0  0
   36.7490   28.3340   45.1700 F   0  0  0  0  0  0  0  0  0  0  0  0
   38.4600   27.0850   44.3200 F   0  0  0  0  0  0  0  0  0  0  0  0
   36.3360   26.7580   43.6320 F   0  0  0  0  0  0  0  0  0  0  0  0
   39.0251   29.7824   43.9394 H   0  0  0  0  0  0  0  0  0  0  0  0
   39.2795   31.4082   42.0099 H   0  0  0  0  0  0  0  0  0  0  0  0
   33.0512   28.8324   38.3346 H   0  0  0  0  0  0  0  0  0  0  0  0
   34.9703   29.3707   36.5469 H   0  0  0  0  0  0  0  0  0  0  0  0
   37.9675   27.7209   38.0141 H   0  0  0  0  0  0  0  0  0  0  0  0
   40.3743   28.0045   37.4183 H   0  0  0  0  0  0  0  0  0  0  0  0
   42.2258   29.5349   36.9088 H   0  0  0  0  0  0  0  0  0  0  0  0
   41.9728   31.3008   36.8921 H   0  0  0  0  0  0  0  0  0  0  0  0
  1  2  2  0
  1 20  1  0
  3  2  1  0
  4  3  2  0
  5  4  1  0
  5  6  2  0
  6  1  1  0
  7  8  1  0
  7  5  1  0
  9  8  2  0
 10 11  2  0
 10  9  1  0
 11  7  1  0
 12 11  1  0
 13 12  1  0
 14 13  2  0
 15 17  2  0
 15 14  1  0
 16 15  1  0
 17 18  1  0
 18 19  2  0
 18 12  1  0
 20 22  1  0
 20 21  1  0
 23 20  1  0
  2 24  1  0
  3 25  1  0
  9 26  1  0
 10 27  1  0
 13 28  1  0
 14 29  1  0
 16 30  1  0
 16 31  1  0
M  ISO  6  24  14  25  14  26  14  27  14  28  14  29  14
M  END
>  <minimizedAffinity>  (1) 
-6.01440859

>  <minimizedRMSD>  (1) 
0.698301852

$$$$
