
     RDKit          3D

 36 38  0  0  0  0  0  0  0  0999 V2000
   37.3780   28.7310   42.8310 C   0  0  0  0  0  0  0  0  0  0  0  0
   38.3460   29.7570   42.9080 C   0  0  0  0  0  0  0  0  0  0  0  0
   38.4180   30.6450   41.8380 C   0  0  0  0  0  0  0  0  0  0  0  0
   37.5600   30.4660   40.8000 N   0  0  0  0  0  0  0  0  0  0  0  0
   36.6510   29.4800   40.7570 C   0  0  0  0  0  0  0  0  0  0  0  0
   36.5670   28.6090   41.7860 N   0  0  0  0  0  0  0  0  0  0  0  0
   35.7880   29.3630   39.6300 N   0  0  0  0  0  0  0  0  0  0  0  0
   34.5170   29.0620   39.7640 N   0  0  0  0  0  0  0  0  0  0  0  0
   33.8850   29.0010   38.5890 C   0  0  0  0  0  0  0  0  0  0  0  0
   34.8290   29.2850   37.6460 C   0  0  0  0  0  0  0  0  0  0  0  0
   36.0000   29.5050   38.3140 C   0  0  0  0  0  0  0  0  0  0  0  0
   37.3110   29.8480   37.7330 C   0  0  0  0  0  0  0  0  0  0  0  0
   38.3710   28.8110   37.9530 C   0  0  0  0  0  0  0  0  0  0  0  0
   39.5990   29.3620   38.6600 C   0  0  0  0  0  0  0  0  0  0  0  0
   40.1580   30.5890   37.9800 C   0  0  0  0  0  0  0  0  0  0  0  0
   39.0600   31.5080   37.4790 C   0  0  0  0  0  0  0  0  0  0  0  0
   37.8350   31.1710   38.3040 C   0  0  0  0  0  0  0  0  0  0  0  0
   37.2700   27.7610   43.9560 C   0  0  0  0  0  0  0  0  0  0  0  0
   36.7760   28.3710   45.1000 F   0  0  0  0  0  0  0  0  0  0  0  0
   38.4980   27.1540   44.2160 F   0  0  0  0  0  0  0  0  0  0  0  0
   36.3680   26.7740   43.5920 F   0  0  0  0  0  0  0  0  0  0  0  0
   39.0146   29.8504   43.7765 H   0  0  0  0  0  0  0  0  0  0  0  0
   39.1483   31.4675   41.8333 H   0  0  0  0  0  0  0  0  0  0  0  0
   32.8234   28.7697   38.4172 H   0  0  0  0  0  0  0  0  0  0  0  0
   34.6766   29.3285   36.5575 H   0  0  0  0  0  0  0  0  0  0  0  0
   37.1220   29.9208   36.6518 H   0  0  0  0  0  0  0  0  0  0  0  0
   37.9478   28.0006   38.5646 H   0  0  0  0  0  0  0  0  0  0  0  0
   38.6923   28.4520   36.9641 H   0  0  0  0  0  0  0  0  0  0  0  0
   39.3231   29.6257   39.6917 H   0  0  0  0  0  0  0  0  0  0  0  0
   40.3758   28.5836   38.6346 H   0  0  0  0  0  0  0  0  0  0  0  0
   40.7828   31.1401   38.6983 H   0  0  0  0  0  0  0  0  0  0  0  0
   40.7483   30.2588   37.1125 H   0  0  0  0  0  0  0  0  0  0  0  0
   39.3439   32.5605   37.6262 H   0  0  0  0  0  0  0  0  0  0  0  0
   38.8753   31.3709   36.4033 H   0  0  0  0  0  0  0  0  0  0  0  0
   37.0754   31.9605   38.2053 H   0  0  0  0  0  0  0  0  0  0  0  0
   38.0729   31.0888   39.3748 H   0  0  0  0  0  0  0  0  0  0  0  0
  1  2  2  0
  1 18  1  0
  3  2  1  0
  4  3  2  0
  5  4  1  0
  5  6  2  0
  6  1  1  0
  7  8  1  0
  7  5  1  0
  9  8  2  0
 10 11  2  0
 10  9  1  0
 11  7  1  0
 12 13  1  0
 12 17  1  0
 12 11  1  0
 13 14  1  0
 15 14  1  0
 16 15  1  0
 16 17  1  0
 18 20  1  0
 18 19  1  0
 21 18  1  0
  2 22  1  0
  3 23  1  0
  9 24  1  0
 10 25  1  0
 12 26  1  0
 13 27  1  0
 13 28  1  0
 14 29  1  0
 14 30  1  0
 15 31  1  0
 15 32  1  0
 16 33  1  0
 16 34  1  0
 17 35  1  0
 17 36  1  0
M  ISO  8  22  14  23  14  24  14  25  14  26  13  27  13  28  13  29  13
M  ISO  7  30  13  31  13  32  13  33  13  34  13  35  13  36  13
M  END
>  <minimizedAffinity>  (1) 
-5.76461172

>  <minimizedRMSD>  (1) 
0.751840413

$$$$
