
     RDKit          3D

 27 29  0  0  0  0  0  0  0  0999 V2000
   37.3560   28.6680   42.9980 C   0  0  0  0  0  0  0  0  0  0  0  0
   38.4420   29.5610   43.0060 C   0  0  0  0  0  0  0  0  0  0  0  0
   38.6590   30.3340   41.8550 C   0  0  0  0  0  0  0  0  0  0  0  0
   37.8040   30.1650   40.8170 N   0  0  0  0  0  0  0  0  0  0  0  0
   36.7640   29.2950   40.8390 C   0  0  0  0  0  0  0  0  0  0  0  0
   36.5450   28.5450   41.9400 N   0  0  0  0  0  0  0  0  0  0  0  0
   35.9370   29.2010   39.6980 N   0  0  0  0  0  0  0  0  0  0  0  0
   34.6160   29.1240   39.8310 N   0  0  0  0  0  0  0  0  0  0  0  0
   34.0060   29.0430   38.6440 C   0  0  0  0  0  0  0  0  0  0  0  0
   34.9880   29.0700   37.6970 C   0  0  0  0  0  0  0  0  0  0  0  0
   36.1680   29.1680   38.3860 C   0  0  0  0  0  0  0  0  0  0  0  0
   37.5180   29.2330   37.8340 C   0  0  0  0  0  0  0  0  0  0  0  0
   38.3100   28.1260   37.5680 C   0  0  0  0  0  0  0  0  0  0  0  0
   39.5290   28.4750   37.0540 C   0  0  0  0  0  0  0  0  0  0  0  0
   39.4670   29.8210   37.0120 N   0  0  0  0  0  0  0  0  0  0  0  0
   38.3030   30.2560   37.4620 N   0  0  0  0  0  0  0  0  0  0  0  0
   37.0850   27.8250   44.1980 C   0  0  0  0  0  0  0  0  0  0  0  0
   36.6800   28.6060   45.2690 F   0  0  0  0  0  0  0  0  0  0  0  0
   38.2290   27.1140   44.5480 F   0  0  0  0  0  0  0  0  0  0  0  0
   36.0650   26.9550   43.9090 F   0  0  0  0  0  0  0  0  0  0  0  0
   39.0987   29.6506   43.8839 H   0  0  0  0  0  0  0  0  0  0  0  0
   39.4918   31.0503   41.7974 H   0  0  0  0  0  0  0  0  0  0  0  0
   32.9231   28.9690   38.4656 H   0  0  0  0  0  0  0  0  0  0  0  0
   34.8588   29.0228   36.6056 H   0  0  0  0  0  0  0  0  0  0  0  0
   37.9947   27.0879   37.7492 H   0  0  0  0  0  0  0  0  0  0  0  0
   40.3571   27.8180   36.7495 H   0  0  0  0  0  0  0  0  0  0  0  0
   40.2261   30.4296   36.6740 H   0  0  0  0  0  0  0  0  0  0  0  0
  1  2  2  0
  1 17  1  0
  3  2  1  0
  4  5  1  0
  4  3  2  0
  5  6  2  0
  6  1  1  0
  7  8  1  0
  7  5  1  0
  9  8  2  0
 10 11  2  0
 10  9  1  0
 11  7  1  0
 12 11  1  0
 13 12  1  0
 14 13  2  0
 15 14  1  0
 15 16  1  0
 16 12  2  0
 17 19  1  0
 17 18  1  0
 20 17  1  0
  2 21  1  0
  3 22  1  0
  9 23  1  0
 10 24  1  0
 13 25  1  0
 14 26  1  0
 15 27  1  0
M  ISO  7  21  14  22  14  23  14  24  14  25  14  26  14  27   9
M  END
>  <minimizedAffinity>  (1) 
-5.70852327

>  <minimizedRMSD>  (1) 
0.302298605

$$$$
