
     RDKit          3D

 31 34  0  0  0  0  0  0  0  0999 V2000
   37.3830   28.6540   43.0750 C   0  0  0  0  0  0  0  0  0  0  0  0
   38.4470   29.5960   43.1690 C   0  0  0  0  0  0  0  0  0  0  0  0
   38.6960   30.4100   42.0640 C   0  0  0  0  0  0  0  0  0  0  0  0
   37.9090   30.2510   40.9710 N   0  0  0  0  0  0  0  0  0  0  0  0
   36.9080   29.3530   40.9060 C   0  0  0  0  0  0  0  0  0  0  0  0
   36.6560   28.5590   41.9670 N   0  0  0  0  0  0  0  0  0  0  0  0
   36.1480   29.2710   39.7140 N   0  0  0  0  0  0  0  0  0  0  0  0
   34.8310   29.1200   39.7640 N   0  0  0  0  0  0  0  0  0  0  0  0
   34.2830   29.0620   38.5500 C   0  0  0  0  0  0  0  0  0  0  0  0
   35.3150   29.1850   37.6550 C   0  0  0  0  0  0  0  0  0  0  0  0
   36.4460   29.3110   38.4170 C   0  0  0  0  0  0  0  0  0  0  0  0
   37.7860   29.4660   37.9580 N   0  0  0  0  0  0  0  0  0  0  0  0
   38.5730   30.5340   37.7260 C   0  0  0  0  0  0  0  0  0  0  0  0
   39.7810   30.1230   37.2940 N   0  0  0  0  0  0  0  0  0  0  0  0
   39.7610   28.7670   37.2500 C   0  0  0  0  0  0  0  0  0  0  0  0
   40.7800   27.8940   36.8670 C   0  0  0  0  0  0  0  0  0  0  0  0
   40.5160   26.5620   36.9090 N   0  0  0  0  0  0  0  0  0  0  0  0
   39.2960   26.1650   37.3170 C   0  0  0  0  0  0  0  0  0  0  0  0
   38.3010   26.9990   37.6900 N   0  0  0  0  0  0  0  0  0  0  0  0
   38.4980   28.3430   37.6720 C   0  0  0  0  0  0  0  0  0  0  0  0
   37.0960   27.7810   44.2290 C   0  0  0  0  0  0  0  0  0  0  0  0
   36.6320   28.5080   45.3090 F   0  0  0  0  0  0  0  0  0  0  0  0
   38.2190   27.0420   44.5840 F   0  0  0  0  0  0  0  0  0  0  0  0
   36.0900   26.9030   43.8630 F   0  0  0  0  0  0  0  0  0  0  0  0
   39.0528   29.6790   44.0834 H   0  0  0  0  0  0  0  0  0  0  0  0
   39.5040   31.1563   42.0786 H   0  0  0  0  0  0  0  0  0  0  0  0
   33.2157   28.9398   38.3133 H   0  0  0  0  0  0  0  0  0  0  0  0
   35.2483   29.1829   36.5570 H   0  0  0  0  0  0  0  0  0  0  0  0
   38.2746   31.5832   37.8678 H   0  0  0  0  0  0  0  0  0  0  0  0
   41.7614   28.2706   36.5429 H   0  0  0  0  0  0  0  0  0  0  0  0
   39.0950   25.0840   37.3489 H   0  0  0  0  0  0  0  0  0  0  0  0
  1  2  2  0
  1 21  1  0
  3  2  1  0
  4  3  2  0
  5  4  1  0
  5  6  2  0
  6  1  1  0
  7  8  1  0
  7  5  1  0
  9  8  2  0
 10 11  2  0
 10  9  1  0
 11  7  1  0
 12 11  1  0
 13 12  1  0
 14 13  2  0
 15 14  1  0
 15 20  2  0
 16 17  2  0
 16 15  1  0
 17 18  1  0
 18 19  2  0
 20 19  1  0
 20 12  1  0
 21 23  1  0
 21 22  1  0
 24 21  1  0
  2 25  1  0
  3 26  1  0
  9 27  1  0
 10 28  1  0
 13 29  1  0
 16 30  1  0
 18 31  1  0
M  ISO  7  25  14  26  14  27  14  28  14  29  14  30  14  31  14
M  END
>  <minimizedAffinity>  (1) 
-5.61987209

>  <minimizedRMSD>  (1) 
0.708207309

$$$$
