
     RDKit          3D

 29 31  0  0  0  0  0  0  0  0999 V2000
   37.8680   28.8000   42.7390 C   0  0  0  0  0  0  0  0  0  0  0  0
   38.8230   29.7800   43.0880 C   0  0  0  0  0  0  0  0  0  0  0  0
   39.1710   30.7240   42.1110 C   0  0  0  0  0  0  0  0  0  0  0  0
   38.5630   30.6230   40.9070 N   0  0  0  0  0  0  0  0  0  0  0  0
   37.6520   29.6790   40.5930 C   0  0  0  0  0  0  0  0  0  0  0  0
   37.3090   28.7630   41.5300 N   0  0  0  0  0  0  0  0  0  0  0  0
   37.0780   29.6670   39.3040 N   0  0  0  0  0  0  0  0  0  0  0  0
   35.7810   29.4380   39.1430 N   0  0  0  0  0  0  0  0  0  0  0  0
   35.4240   29.4660   37.8610 C   0  0  0  0  0  0  0  0  0  0  0  0
   36.5560   29.7280   37.1490 C   0  0  0  0  0  0  0  0  0  0  0  0
   37.5750   29.8490   38.0800 C   0  0  0  0  0  0  0  0  0  0  0  0
   38.9690   30.1270   37.7950 C   0  0  0  0  0  0  0  0  0  0  0  0
   39.8320   29.0750   37.5520 C   0  0  0  0  0  0  0  0  0  0  0  0
   41.1750   29.1730   37.2670 C   0  0  0  0  0  0  0  0  0  0  0  0
   41.7330   30.4280   37.2150 C   0  0  0  0  0  0  0  0  0  0  0  0
   40.8800   31.4740   37.4560 C   0  0  0  0  0  0  0  0  0  0  0  0
   39.5840   31.3070   37.7270 N   0  0  0  0  0  0  0  0  0  0  0  0
   37.4760   27.7870   43.7530 C   0  0  0  0  0  0  0  0  0  0  0  0
   36.8310   28.3830   44.8280 F   0  0  0  0  0  0  0  0  0  0  0  0
   38.5790   27.0670   44.1880 F   0  0  0  0  0  0  0  0  0  0  0  0
   36.5610   26.9250   43.1740 F   0  0  0  0  0  0  0  0  0  0  0  0
   39.2773   29.8021   44.0896 H   0  0  0  0  0  0  0  0  0  0  0  0
   39.9083   31.5143   42.3155 H   0  0  0  0  0  0  0  0  0  0  0  0
   34.4135   29.3086   37.4558 H   0  0  0  0  0  0  0  0  0  0  0  0
   36.6431   29.8240   36.0567 H   0  0  0  0  0  0  0  0  0  0  0  0
   39.4044   28.0622   37.5900 H   0  0  0  0  0  0  0  0  0  0  0  0
   41.7831   28.2744   37.0864 H   0  0  0  0  0  0  0  0  0  0  0  0
   42.7992   30.5837   36.9935 H   0  0  0  0  0  0  0  0  0  0  0  0
   41.2822   32.4974   37.4245 H   0  0  0  0  0  0  0  0  0  0  0  0
  1  2  2  0
  1 18  1  0
  3  2  1  0
  4  3  2  0
  5  4  1  0
  5  6  2  0
  6  1  1  0
  7  5  1  0
  8  7  1  0
  9  8  2  0
 10  9  1  0
 10 11  2  0
 11  7  1  0
 12 11  1  0
 13 12  2  0
 14 13  1  0
 15 14  2  0
 15 16  1  0
 16 17  2  0
 17 12  1  0
 18 20  1  0
 18 19  1  0
 21 18  1  0
  2 22  1  0
  3 23  1  0
  9 24  1  0
 10 25  1  0
 13 26  1  0
 14 27  1  0
 15 28  1  0
 16 29  1  0
M  ISO  8  22  14  23  14  24  14  25  14  26  14  27  14  28  14  29  14
M  END
>  <minimizedAffinity>  (1) 
-5.53899384

>  <minimizedRMSD>  (1) 
1.43907928

$$$$
