
     RDKit          3D

 48 52  0  0  1  0  0  0  0  0999 V2000
   40.0320   32.1590   41.1310 C   0  0  0  0  0  0  0  0  0  0  0  0
   39.6280   30.8840   41.6120 C   0  0  0  0  0  0  0  0  0  0  0  0
   38.3050   30.5380   41.4770 C   0  0  0  0  0  0  0  0  0  0  0  0
   37.4390   31.4280   40.8890 N   0  0  0  0  0  0  0  0  0  0  0  0
   37.8560   32.6390   40.4400 C   0  0  0  0  0  0  0  0  0  0  0  0
   39.1480   33.0060   40.5590 N   0  0  0  0  0  0  0  0  0  0  0  0
   36.9040   33.5130   39.8420 N   0  0  0  0  0  0  0  0  0  0  0  0
   37.8210   29.3000   41.9240 N   0  0  0  0  0  0  0  0  0  0  0  0
   37.9460   28.9360   43.3160 C   0  0  0  0  0  0  0  0  0  0  0  0
   36.8750   27.8800   43.6010 C   0  0  0  0  0  0  0  0  0  0  0  0
   36.9620   26.7310   42.7630 N   0  0  0  0  0  0  0  0  0  0  0  0
   37.4950   26.9690   41.4590 C   0  0  0  0  0  0  0  0  0  0  0  0
   37.1920   28.3730   41.0080 C   0  0  2  0  0  0  0  0  0  0  0  0
   37.5190   28.6030   39.5910 C   0  0  0  0  0  0  0  0  0  0  0  0
   36.5120   28.9830   38.6920 C   0  0  0  0  0  0  0  0  0  0  0  0
   36.7250   29.2170   37.3620 C   0  0  0  0  0  0  0  0  0  0  0  0
   37.9930   29.0580   36.9530 N   0  0  0  0  0  0  0  0  0  0  0  0
   38.9800   28.6950   37.7900 C   0  0  0  0  0  0  0  0  0  0  0  0
   38.7720   28.4610   39.1120 N   0  0  0  0  0  0  0  0  0  0  0  0
   40.3320   28.5450   37.2530 C   0  0  0  0  0  0  0  0  0  0  0  0
   40.8930   27.3600   36.8240 C   0  0  0  0  0  0  0  0  0  0  0  0
   42.1460   27.6360   36.4030 N   0  0  0  0  0  0  0  0  0  0  0  0
   42.3990   28.9670   36.5500 C   0  0  0  0  0  0  0  0  0  0  0  0
   43.5560   29.6450   36.2370 C   0  0  0  0  0  0  0  0  0  0  0  0
   43.5530   31.0080   36.4860 C   0  0  0  0  0  0  0  0  0  0  0  0
   42.4260   31.6320   37.0250 C   0  0  0  0  0  0  0  0  0  0  0  0
   41.2850   30.8810   37.3190 C   0  0  0  0  0  0  0  0  0  0  0  0
   41.2760   29.5400   37.0780 C   0  0  0  0  0  0  0  0  0  0  0  0
   41.0851   32.4623   41.2262 H   0  0  0  0  0  0  0  0  0  0  0  0
   40.3504   30.1970   42.0769 H   0  0  0  0  0  0  0  0  0  0  0  0
   35.9198   33.2216   39.7566 H   0  0  0  0  0  0  0  0  0  0  0  0
   37.1996   34.4366   39.4948 H   0  0  0  0  0  0  0  0  0  0  0  0
   38.9463   28.5212   43.5096 H   0  0  0  0  0  0  0  0  0  0  0  0
   37.8132   29.8144   43.9647 H   0  0  0  0  0  0  0  0  0  0  0  0
   36.9783   27.5550   44.6468 H   0  0  0  0  0  0  0  0  0  0  0  0
   35.9009   28.3497   43.3999 H   0  0  0  0  0  0  0  0  0  0  0  0
   37.5639   26.0392   43.2320 H   0  0  0  0  0  0  0  0  0  0  0  0
   38.5852   26.8248   41.4828 H   0  0  0  0  0  0  0  0  0  0  0  0
   37.0318   26.2634   40.7536 H   0  0  0  0  0  0  0  0  0  0  0  0
   36.1062   28.5448   41.0458 H   0  0  0  0  0  0  0  0  0  0  0  0
   35.4894   29.0998   39.0802 H   0  0  0  0  0  0  0  0  0  0  0  0
   35.9165   29.5137   36.6777 H   0  0  0  0  0  0  0  0  0  0  0  0
   40.4089   26.3723   36.8247 H   0  0  0  0  0  0  0  0  0  0  0  0
   42.8106   26.9446   36.0273 H   0  0  0  0  0  0  0  0  0  0  0  0
   44.4329   29.1335   35.8133 H   0  0  0  0  0  0  0  0  0  0  0  0
   44.4480   31.6050   36.2566 H   0  0  0  0  0  0  0  0  0  0  0  0
   42.4365   32.7149   37.2181 H   0  0  0  0  0  0  0  0  0  0  0  0
   40.3965   31.3710   37.7438 H   0  0  0  0  0  0  0  0  0  0  0  0
  1  2  2  0
  3  2  1  0
  3  8  1  0
  4  3  2  0
  5  6  2  0
  5  4  1  0
  6  1  1  0
  7  5  1  0
  8  9  1  0
  9 10  1  0
 11 10  1  0
 12 11  1  0
 13 12  1  0
 13  8  1  0
 14 13  1  0
 15 14  2  0
 16 15  1  0
 17 16  2  0
 17 18  1  0
 18 19  2  0
 19 14  1  0
 20 18  1  0
 21 20  2  0
 22 23  1  0
 22 21  1  0
 23 28  2  0
 24 25  2  0
 24 23  1  0
 25 26  1  0
 26 27  2  0
 28 20  1  0
 28 27  1  0
  1 29  1  0
  2 30  1  0
  7 31  1  0
  7 32  1  0
  9 33  1  0
  9 34  1  0
 10 35  1  0
 10 36  1  0
 11 37  1  0
 12 38  1  0
 12 39  1  0
 13 40  1  6
 15 41  1  0
 16 42  1  0
 21 43  1  0
 22 44  1  0
 24 45  1  0
 25 46  1  0
 26 47  1  0
 27 48  1  0
M  ISO  8  29  14  30  14  33  13  34  13  35  13  36  13  37   5  38  13
M  ISO  8  39  13  40  13  41  14  42  14  43  14  44   9  45  14  46  14
M  ISO  2  47  14  48  14
M  END
>  <minimizedAffinity>  (1) 
-6.51990795

>  <minimizedRMSD>  (1) 
1.41644263

$$$$
