
     RDKit          3D

 25 27  0  0  0  0  0  0  0  0999 V2000
   37.3630   28.6550   43.0360 C   0  0  0  0  0  0  0  0  0  0  0  0
   38.4430   29.5670   43.0820 C   0  0  0  0  0  0  0  0  0  0  0  0
   38.6790   30.3570   41.9550 C   0  0  0  0  0  0  0  0  0  0  0  0
   37.8540   30.1950   40.8900 N   0  0  0  0  0  0  0  0  0  0  0  0
   36.8250   29.3100   40.8790 C   0  0  0  0  0  0  0  0  0  0  0  0
   36.5950   28.5520   41.9550 N   0  0  0  0  0  0  0  0  0  0  0  0
   36.0210   29.2200   39.7120 N   0  0  0  0  0  0  0  0  0  0  0  0
   34.7070   29.1080   39.8060 N   0  0  0  0  0  0  0  0  0  0  0  0
   34.1470   29.0380   38.5900 C   0  0  0  0  0  0  0  0  0  0  0  0
   35.1540   29.1100   37.6700 C   0  0  0  0  0  0  0  0  0  0  0  0
   36.3080   29.2230   38.3980 C   0  0  0  0  0  0  0  0  0  0  0  0
   37.7000   29.3360   37.9800 C   0  0  0  0  0  0  0  0  0  0  0  0
   38.3830   30.4650   37.6280 N   0  0  0  0  0  0  0  0  0  0  0  0
   39.6080   30.1670   37.3150 O   0  0  0  0  0  0  0  0  0  0  0  0
   39.8100   28.8900   37.4310 C   0  0  0  0  0  0  0  0  0  0  0  0
   38.6330   28.3850   37.8420 N   0  0  0  0  0  0  0  0  0  0  0  0
   37.0920   27.8060   44.2180 C   0  0  0  0  0  0  0  0  0  0  0  0
   36.6460   28.5560   45.2910 F   0  0  0  0  0  0  0  0  0  0  0  0
   38.2220   27.0770   44.5750 F   0  0  0  0  0  0  0  0  0  0  0  0
   36.0850   26.9210   43.8850 F   0  0  0  0  0  0  0  0  0  0  0  0
   39.0769   29.6513   43.9770 H   0  0  0  0  0  0  0  0  0  0  0  0
   39.5039   31.0843   41.9315 H   0  0  0  0  0  0  0  0  0  0  0  0
   33.0731   28.9404   38.3729 H   0  0  0  0  0  0  0  0  0  0  0  0
   35.0580   29.0829   36.5745 H   0  0  0  0  0  0  0  0  0  0  0  0
   40.7422   28.3398   37.2355 H   0  0  0  0  0  0  0  0  0  0  0  0
  1  2  2  0
  1 17  1  0
  3  2  1  0
  4  3  2  0
  5  4  1  0
  5  6  2  0
  6  1  1  0
  7  8  1  0
  7  5  1  0
  9  8  2  0
 10 11  2  0
 10  9  1  0
 11  7  1  0
 12 11  1  0
 13 12  2  0
 14 15  1  0
 14 13  1  0
 15 16  2  0
 16 12  1  0
 17 19  1  0
 17 18  1  0
 20 17  1  0
  2 21  1  0
  3 22  1  0
  9 23  1  0
 10 24  1  0
 15 25  1  0
M  ISO  5  21  14  22  14  23  14  24  14  25  14
M  END
>  <minimizedAffinity>  (1) 
-5.38835192

>  <minimizedRMSD>  (1) 
0.530578494

$$$$
