
     RDKit          3D

 30 32  0  0  1  0  0  0  0  0999 V2000
   37.3590   28.6420   43.0880 C   0  0  0  0  0  0  0  0  0  0  0  0
   38.4690   29.5220   43.1300 C   0  0  0  0  0  0  0  0  0  0  0  0
   38.7380   30.2820   41.9850 C   0  0  0  0  0  0  0  0  0  0  0  0
   37.9210   30.1250   40.9120 N   0  0  0  0  0  0  0  0  0  0  0  0
   36.8720   29.2800   40.9000 C   0  0  0  0  0  0  0  0  0  0  0  0
   36.6050   28.5430   42.0000 N   0  0  0  0  0  0  0  0  0  0  0  0
   36.0670   29.1790   39.7450 N   0  0  0  0  0  0  0  0  0  0  0  0
   34.7500   29.1000   39.8190 N   0  0  0  0  0  0  0  0  0  0  0  0
   34.2160   29.0150   38.5890 C   0  0  0  0  0  0  0  0  0  0  0  0
   35.2330   29.0420   37.6840 C   0  0  0  0  0  0  0  0  0  0  0  0
   36.3620   29.1440   38.4410 C   0  0  0  0  0  0  0  0  0  0  0  0
   37.7420   29.2120   37.9960 C   0  0  0  0  0  0  0  0  0  0  0  0
   38.3790   27.9760   37.4230 C   0  0  0  0  0  0  0  0  0  0  0  0
   40.0380   28.5140   37.0220 S   0  0  0  0  0  0  0  0  0  0  0  0
   39.7690   30.2780   37.6250 C   0  0  0  0  0  0  0  0  0  0  0  0
   38.8240   29.7330   37.7840 N   0  0  0  0  0  0  0  0  0  0  0  0
   37.0500   27.8280   44.2800 C   0  0  0  0  0  0  0  0  0  0  0  0
   36.6180   28.6110   45.3380 F   0  0  0  0  0  0  0  0  0  0  0  0
   38.1510   27.0580   44.6550 F   0  0  0  0  0  0  0  0  0  0  0  0
   36.0230   26.9550   43.9480 F   0  0  0  0  0  0  0  0  0  0  0  0
   39.0966   29.6051   44.0295 H   0  0  0  0  0  0  0  0  0  0  0  0
   39.5844   30.9840   41.9558 H   0  0  0  0  0  0  0  0  0  0  0  0
   33.1442   28.9372   38.3541 H   0  0  0  0  0  0  0  0  0  0  0  0
   35.1599   28.9926   36.5875 H   0  0  0  0  0  0  0  0  0  0  0  0
   38.0805   28.9205   39.0012 H   0  0  0  0  0  0  0  0  0  0  0  0
   38.3969   27.1628   38.1635 H   0  0  0  0  0  0  0  0  0  0  0  0
   37.8354   27.5752   36.5548 H   0  0  0  0  0  0  0  0  0  0  0  0
   40.2129   30.5340   38.5984 H   0  0  0  0  0  0  0  0  0  0  0  0
   40.4672   29.6439   37.0590 H   0  0  0  0  0  0  0  0  0  0  0  0
   39.5698   31.1999   37.0590 H   0  0  0  0  0  0  0  0  0  0  0  0
  1  2  2  0
  1 17  1  0
  3  2  1  0
  4  3  2  0
  5  4  1  0
  5  6  2  0
  6  1  1  0
  7  8  1  0
  7  5  1  0
  9  8  2  0
 10 11  2  0
 10  9  1  0
 11  7  1  0
 12 11  1  0
 13 12  1  0
 14 13  1  0
 14 16  1  0
 15 16  1  0
 16 12  1  0
 17 19  1  0
 17 18  1  0
 20 17  1  0
  2 21  1  0
  3 22  1  0
  9 23  1  0
 10 24  1  0
 12 25  1  0
 13 26  1  0
 13 27  1  0
 15 28  1  0
 15 29  1  0
 15 30  1  0
M  ISO  8  21  14  22  14  23  14  24  14  25  13  26  13  27  13  28   8
M  ISO  2  29   8  30   8
M  END
>  <minimizedAffinity>  (1) 
-5.34007072

>  <minimizedRMSD>  (1) 
0.500804603

$$$$
