
     RDKit          3D

 22 23  0  0  0  0  0  0  0  0999 V2000
   37.3610   28.7030   42.8570 C   0  0  0  0  0  0  0  0  0  0  0  0
   38.4250   29.6380   42.8530 C   0  0  0  0  0  0  0  0  0  0  0  0
   38.5750   30.4380   41.7210 C   0  0  0  0  0  0  0  0  0  0  0  0
   37.6970   30.2710   40.7040 N   0  0  0  0  0  0  0  0  0  0  0  0
   36.6970   29.3750   40.7370 C   0  0  0  0  0  0  0  0  0  0  0  0
   36.5230   28.5790   41.8210 N   0  0  0  0  0  0  0  0  0  0  0  0
   35.8160   29.2610   39.6220 N   0  0  0  0  0  0  0  0  0  0  0  0
   34.5250   29.0980   39.7720 N   0  0  0  0  0  0  0  0  0  0  0  0
   33.8840   29.0150   38.6110 C   0  0  0  0  0  0  0  0  0  0  0  0
   34.8500   29.1360   37.6290 C   0  0  0  0  0  0  0  0  0  0  0  0
   36.0360   29.2870   38.2950 C   0  0  0  0  0  0  0  0  0  0  0  0
   37.1650   27.8290   44.0420 C   0  0  0  0  0  0  0  0  0  0  0  0
   36.7480   28.5770   45.1330 F   0  0  0  0  0  0  0  0  0  0  0  0
   38.3400   27.1600   44.3620 F   0  0  0  0  0  0  0  0  0  0  0  0
   36.1820   26.9190   43.7580 F   0  0  0  0  0  0  0  0  0  0  0  0
   37.3530   29.4530   37.7760 N   0  0  0  0  0  0  0  0  0  0  0  0
   39.1074   29.7295   43.7109 H   0  0  0  0  0  0  0  0  0  0  0  0
   39.3823   31.1824   41.6561 H   0  0  0  0  0  0  0  0  0  0  0  0
   32.8029   28.8777   38.4613 H   0  0  0  0  0  0  0  0  0  0  0  0
   34.6971   29.1152   36.5399 H   0  0  0  0  0  0  0  0  0  0  0  0
   38.1510   29.5549   38.4192 H   0  0  0  0  0  0  0  0  0  0  0  0
   37.5068   29.4711   36.7577 H   0  0  0  0  0  0  0  0  0  0  0  0
  1 12  1  0
  2  1  2  0
  3  2  1  0
  4  5  1  0
  4  3  2  0
  5  6  2  0
  6  1  1  0
  7  8  1  0
  7  5  1  0
  9  8  2  0
 10 11  2  0
 10  9  1  0
 11  7  1  0
 12 14  1  0
 12 13  1  0
 15 12  1  0
 16 11  1  0
  2 17  1  0
  3 18  1  0
  9 19  1  0
 10 20  1  0
 16 21  1  0
 16 22  1  0
M  ISO  4  17  14  18  14  19  14  20  14
M  END
>  <minimizedAffinity>  (1) 
-5.25674295

>  <minimizedRMSD>  (1) 
0.0110046677

$$$$
