
     RDKit          3D

 22 23  0  0  0  0  0  0  0  0999 V2000
   37.3610   28.6960   42.8630 C   0  0  0  0  0  0  0  0  0  0  0  0
   38.4220   29.6470   42.8490 C   0  0  0  0  0  0  0  0  0  0  0  0
   38.5690   30.4500   41.7220 C   0  0  0  0  0  0  0  0  0  0  0  0
   37.6870   30.2690   40.7120 N   0  0  0  0  0  0  0  0  0  0  0  0
   36.6890   29.3710   40.7360 C   0  0  0  0  0  0  0  0  0  0  0  0
   36.5350   28.5840   41.8230 N   0  0  0  0  0  0  0  0  0  0  0  0
   35.8210   29.2650   39.6290 N   0  0  0  0  0  0  0  0  0  0  0  0
   34.5110   29.1050   39.8050 N   0  0  0  0  0  0  0  0  0  0  0  0
   33.8540   29.0260   38.6420 C   0  0  0  0  0  0  0  0  0  0  0  0
   34.8010   29.1410   37.6580 C   0  0  0  0  0  0  0  0  0  0  0  0
   35.9920   29.2860   38.3100 C   0  0  0  0  0  0  0  0  0  0  0  0
   37.1740   27.8240   44.0470 C   0  0  0  0  0  0  0  0  0  0  0  0
   36.7500   28.5630   45.1430 F   0  0  0  0  0  0  0  0  0  0  0  0
   38.3520   27.1610   44.3580 F   0  0  0  0  0  0  0  0  0  0  0  0
   36.1790   26.9220   43.7690 F   0  0  0  0  0  0  0  0  0  0  0  0
   37.2810   29.4420   37.6750 C   0  0  0  0  0  0  0  0  0  0  0  0
   37.7940   30.4990   37.2330 O   0  0  0  0  0  0  0  0  0  0  0  0
   39.1058   29.7437   43.7052 H   0  0  0  0  0  0  0  0  0  0  0  0
   39.3697   31.2013   41.6550 H   0  0  0  0  0  0  0  0  0  0  0  0
   32.7707   28.8950   38.5034 H   0  0  0  0  0  0  0  0  0  0  0  0
   34.6362   29.1207   36.5706 H   0  0  0  0  0  0  0  0  0  0  0  0
   37.8828   28.5276   37.5664 H   0  0  0  0  0  0  0  0  0  0  0  0
  1 12  1  0
  2  1  2  0
  3  2  1  0
  4  5  1  0
  4  3  2  0
  5  6  2  0
  6  1  1  0
  7  8  1  0
  7  5  1  0
  9  8  2  0
 10 11  2  0
 10  9  1  0
 11  7  1  0
 12 14  1  0
 12 13  1  0
 15 12  1  0
 16 11  1  0
 17 16  2  0
  2 18  1  0
  3 19  1  0
  9 20  1  0
 10 21  1  0
 16 22  1  0
M  ISO  5  18  14  19  14  20  14  21  14  22   6
M  END
>  <minimizedAffinity>  (1) 
-5.19121885

>  <minimizedRMSD>  (1) 
0.043785356

$$$$
