
     RDKit          3D

 45 49  0  0  0  0  0  0  0  0999 V2000
   37.5520   29.8200   37.9940 N   0  0  0  0  0  0  0  0  0  0  0  0
   38.3080   28.7220   37.8170 C   0  0  0  0  0  0  0  0  0  0  0  0
   39.6260   28.8710   37.4610 C   0  0  0  0  0  0  0  0  0  0  0  0
   40.1450   30.1720   37.2930 C   0  0  0  0  0  0  0  0  0  0  0  0
   41.5250   30.3630   36.9430 N   0  0  0  0  0  0  0  0  0  0  0  0
   39.3280   31.2720   37.4920 N   0  0  0  0  0  0  0  0  0  0  0  0
   38.0710   31.0340   37.8310 C   0  0  0  0  0  0  0  0  0  0  0  0
   37.2650   32.0210   38.0220 O   0  0  0  0  0  0  0  0  0  0  0  0
   37.4100   28.6410   42.9060 C   0  0  0  0  0  0  0  0  0  0  0  0
   38.3960   29.6390   43.0120 C   0  0  0  0  0  0  0  0  0  0  0  0
   38.5370   30.5630   41.9560 C   0  0  0  0  0  0  0  0  0  0  0  0
   37.6890   30.4080   40.8970 N   0  0  0  0  0  0  0  0  0  0  0  0
   36.7620   29.4420   40.8310 C   0  0  0  0  0  0  0  0  0  0  0  0
   36.6160   28.5600   41.8250 N   0  0  0  0  0  0  0  0  0  0  0  0
   35.9300   29.3730   39.6670 N   0  0  0  0  0  0  0  0  0  0  0  0
   34.6440   29.1120   39.7660 N   0  0  0  0  0  0  0  0  0  0  0  0
   34.0350   29.0780   38.5770 C   0  0  0  0  0  0  0  0  0  0  0  0
   35.0120   29.3380   37.6730 C   0  0  0  0  0  0  0  0  0  0  0  0
   36.1990   29.5230   38.3440 C   0  0  0  0  0  0  0  0  0  0  0  0
   37.2550   27.6740   44.0100 C   0  0  0  0  0  0  0  0  0  0  0  0
   36.7510   28.2760   45.1480 F   0  0  0  0  0  0  0  0  0  0  0  0
   38.4800   27.0430   44.2800 F   0  0  0  0  0  0  0  0  0  0  0  0
   36.3470   26.7040   43.5990 F   0  0  0  0  0  0  0  0  0  0  0  0
   40.5570   27.8420   37.1270 C   0  0  0  0  0  0  0  0  0  0  0  0
   41.3890   27.0000   36.8240 N   0  0  0  0  0  0  0  0  0  0  0  0
   42.2240   26.1510   36.5240 C   0  0  0  0  0  0  0  0  0  0  0  0
   42.2920   25.4990   37.7160 N   0  0  0  0  0  0  0  0  0  0  0  0
   41.4900   26.0020   38.6710 C   0  0  0  0  0  0  0  0  0  0  0  0
   41.6550   25.3460   39.9130 C   0  0  0  0  0  0  0  0  0  0  0  0
   40.9560   25.8570   40.9470 C   0  0  0  0  0  0  0  0  0  0  0  0
   40.0970   26.9490   40.9550 C   0  0  0  0  0  0  0  0  0  0  0  0
   40.0580   27.4560   39.6490 C   0  0  0  0  0  0  0  0  0  0  0  0
   40.6720   27.1090   38.4050 C   0  0  0  0  0  0  0  0  0  0  0  0
   37.8771   27.7194   37.9553 H   0  0  0  0  0  0  0  0  0  0  0  0
   41.8985   31.3152   36.8216 H   0  0  0  0  0  0  0  0  0  0  0  0
   42.1410   29.5478   36.8134 H   0  0  0  0  0  0  0  0  0  0  0  0
   39.0431   29.6973   43.8996 H   0  0  0  0  0  0  0  0  0  0  0  0
   39.2893   31.3651   41.9839 H   0  0  0  0  0  0  0  0  0  0  0  0
   32.9716   28.8817   38.3752 H   0  0  0  0  0  0  0  0  0  0  0  0
   34.8776   29.3921   36.5826 H   0  0  0  0  0  0  0  0  0  0  0  0
   42.7559   25.9719   35.5779 H   0  0  0  0  0  0  0  0  0  0  0  0
   42.3133   24.4723   40.0286 H   0  0  0  0  0  0  0  0  0  0  0  0
   41.0826   25.3416   41.9105 H   0  0  0  0  0  0  0  0  0  0  0  0
   39.5496   27.3423   41.8243 H   0  0  0  0  0  0  0  0  0  0  0  0
   39.3966   28.3304   39.5594 H   0  0  0  0  0  0  0  0  0  0  0  0
  1 19  1  0
  2  1  1  0
  3  2  2  0
  4  3  1  0
  4  6  2  0
  5  4  1  0
  6  7  1  0
  7  1  1  0
  7  8  2  0
  9 10  2  0
  9 20  1  0
 11 10  1  0
 12 11  2  0
 13 12  1  0
 13 14  2  0
 14  9  1  0
 15 16  1  0
 15 13  1  0
 17 16  2  0
 18 19  2  0
 18 17  1  0
 19 15  1  0
 20 22  1  0
 20 21  1  0
 23 20  1  0
 24  3  1  0
 24 33  1  0
 25 24  2  0
 26 25  1  0
 26 27  2  0
 27 28  1  0
 28 29  1  0
 29 30  2  0
 30 31  1  0
 32 31  2  0
 33 28  2  0
 33 32  1  0
  2 34  1  0
  5 35  1  0
  5 36  1  0
 10 37  1  0
 11 38  1  0
 17 39  1  0
 18 40  1  0
 26 41  1  0
 29 42  1  0
 30 43  1  0
 31 44  1  0
 32 45  1  0
M  ISO  8  34  14  37  14  38  14  39  14  40  14  41  14  42  14  43  14
M  ISO  2  44  14  45  14
M  END
>  <minimizedAffinity>  (1) 
-6.72104502

>  <minimizedRMSD>  (1) 
0.57290715

$$$$
