
     RDKit          3D

 45 49  0  0  0  0  0  0  0  0999 V2000
   37.5070   29.5000   38.0350 N   0  0  0  0  0  0  0  0  0  0  0  0
   38.2070   28.3260   38.0170 C   0  0  0  0  0  0  0  0  0  0  0  0
   39.5400   28.3360   37.6610 C   0  0  0  0  0  0  0  0  0  0  0  0
   40.1430   29.5400   37.3280 C   0  0  0  0  0  0  0  0  0  0  0  0
   41.5110   29.5920   36.9560 N   0  0  0  0  0  0  0  0  0  0  0  0
   39.4180   30.6820   37.3560 N   0  0  0  0  0  0  0  0  0  0  0  0
   38.1210   30.6440   37.7060 C   0  0  0  0  0  0  0  0  0  0  0  0
   37.3670   31.6710   37.7580 O   0  0  0  0  0  0  0  0  0  0  0  0
   37.3420   28.6730   43.0270 C   0  0  0  0  0  0  0  0  0  0  0  0
   38.4110   29.6000   43.0480 C   0  0  0  0  0  0  0  0  0  0  0  0
   38.6070   30.4120   41.9330 C   0  0  0  0  0  0  0  0  0  0  0  0
   37.7540   30.2620   40.8840 N   0  0  0  0  0  0  0  0  0  0  0  0
   36.7360   29.3590   40.8970 C   0  0  0  0  0  0  0  0  0  0  0  0
   36.5300   28.5710   41.9560 N   0  0  0  0  0  0  0  0  0  0  0  0
   35.8920   29.2760   39.7440 N   0  0  0  0  0  0  0  0  0  0  0  0
   34.5860   29.1160   39.8800 N   0  0  0  0  0  0  0  0  0  0  0  0
   33.9690   29.0620   38.7010 C   0  0  0  0  0  0  0  0  0  0  0  0
   34.9450   29.1950   37.7540 C   0  0  0  0  0  0  0  0  0  0  0  0
   36.1510   29.3290   38.4200 C   0  0  0  0  0  0  0  0  0  0  0  0
   37.1060   27.7970   44.1940 C   0  0  0  0  0  0  0  0  0  0  0  0
   36.6730   28.5130   45.2820 F   0  0  0  0  0  0  0  0  0  0  0  0
   38.2860   27.0960   44.5170 F   0  0  0  0  0  0  0  0  0  0  0  0
   36.1300   26.8740   43.8590 F   0  0  0  0  0  0  0  0  0  0  0  0
   40.3570   27.1280   37.6190 C   0  0  0  0  0  0  0  0  0  0  0  0
   40.4380   26.3320   36.4770 C   0  0  0  0  0  0  0  0  0  0  0  0
   41.2620   25.2780   36.7160 N   0  0  0  0  0  0  0  0  0  0  0  0
   41.7250   25.3630   37.9890 C   0  0  0  0  0  0  0  0  0  0  0  0
   42.5800   24.5930   38.7740 C   0  0  0  0  0  0  0  0  0  0  0  0
   42.8090   25.0260   40.0630 C   0  0  0  0  0  0  0  0  0  0  0  0
   42.2710   26.1510   40.6420 C   0  0  0  0  0  0  0  0  0  0  0  0
   41.4150   26.9150   39.8400 C   0  0  0  0  0  0  0  0  0  0  0  0
   41.1730   26.4970   38.5490 C   0  0  0  0  0  0  0  0  0  0  0  0
   37.7116   27.3809   38.2842 H   0  0  0  0  0  0  0  0  0  0  0  0
   42.0713   28.7281   36.9317 H   0  0  0  0  0  0  0  0  0  0  0  0
   41.9440   30.4937   36.7102 H   0  0  0  0  0  0  0  0  0  0  0  0
   39.0717   29.6776   43.9241 H   0  0  0  0  0  0  0  0  0  0  0  0
   39.4232   31.1488   41.9020 H   0  0  0  0  0  0  0  0  0  0  0  0
   32.8905   28.9357   38.5250 H   0  0  0  0  0  0  0  0  0  0  0  0
   34.7992   29.1955   36.6637 H   0  0  0  0  0  0  0  0  0  0  0  0
   39.9155   26.5271   35.5289 H   0  0  0  0  0  0  0  0  0  0  0  0
   41.4968   24.5360   36.0413 H   0  0  0  0  0  0  0  0  0  0  0  0
   43.0518   23.6796   38.3828 H   0  0  0  0  0  0  0  0  0  0  0  0
   43.4825   24.4167   40.6837 H   0  0  0  0  0  0  0  0  0  0  0  0
   42.5008   26.4354   41.6795 H   0  0  0  0  0  0  0  0  0  0  0  0
   40.9455   27.8294   40.2317 H   0  0  0  0  0  0  0  0  0  0  0  0
  1 19  1  0
  2  1  1  0
  3  2  2  0
  4  6  2  0
  4  3  1  0
  5  4  1  0
  6  7  1  0
  7  8  2  0
  7  1  1  0
  9 10  2  0
  9 20  1  0
 11 10  1  0
 12 13  1  0
 12 11  2  0
 13 14  2  0
 14  9  1  0
 15 16  1  0
 15 13  1  0
 17 16  2  0
 18 19  2  0
 18 17  1  0
 19 15  1  0
 20 22  1  0
 20 21  1  0
 23 20  1  0
 24  3  1  0
 24 32  1  0
 25 26  1  0
 25 24  2  0
 26 27  1  0
 27 32  2  0
 27 28  1  0
 28 29  2  0
 29 30  1  0
 31 30  2  0
 32 31  1  0
  2 33  1  0
  5 34  1  0
  5 35  1  0
 10 36  1  0
 11 37  1  0
 17 38  1  0
 18 39  1  0
 25 40  1  0
 26 41  1  0
 28 42  1  0
 29 43  1  0
 30 44  1  0
 31 45  1  0
M  ISO  8  33  14  36  14  37  14  38  14  39  14  40  14  41   9  42  14
M  ISO  3  43  14  44  14  45  14
M  END
>  <minimizedAffinity>  (1) 
-6.51882887

>  <minimizedRMSD>  (1) 
1.38128853

$$$$
