
     RDKit          3D

 44 47  0  0  0  0  0  0  0  0999 V2000
   37.4190   28.6700   42.8950 C   0  0  0  0  0  0  0  0  0  0  0  0
   38.3940   29.6930   43.0220 C   0  0  0  0  0  0  0  0  0  0  0  0
   38.5260   30.6040   41.9680 C   0  0  0  0  0  0  0  0  0  0  0  0
   37.7000   30.4350   40.8970 N   0  0  0  0  0  0  0  0  0  0  0  0
   36.7890   29.4540   40.8120 C   0  0  0  0  0  0  0  0  0  0  0  0
   36.6440   28.5700   41.8080 N   0  0  0  0  0  0  0  0  0  0  0  0
   35.9760   29.3670   39.6460 N   0  0  0  0  0  0  0  0  0  0  0  0
   34.6990   29.0660   39.7280 N   0  0  0  0  0  0  0  0  0  0  0  0
   34.1080   29.0330   38.5310 C   0  0  0  0  0  0  0  0  0  0  0  0
   35.0800   29.3340   37.6230 C   0  0  0  0  0  0  0  0  0  0  0  0
   36.2500   29.5440   38.3280 C   0  0  0  0  0  0  0  0  0  0  0  0
   37.5900   29.8820   37.9900 N   0  0  0  0  0  0  0  0  0  0  0  0
   38.3700   28.7780   37.7710 C   0  0  0  0  0  0  0  0  0  0  0  0
   39.7050   28.9540   37.4310 C   0  0  0  0  0  0  0  0  0  0  0  0
   40.2190   30.2320   37.3210 C   0  0  0  0  0  0  0  0  0  0  0  0
   41.5710   30.4560   36.9780 N   0  0  0  0  0  0  0  0  0  0  0  0
   39.4000   31.2990   37.5490 N   0  0  0  0  0  0  0  0  0  0  0  0
   38.1100   31.1050   37.8760 C   0  0  0  0  0  0  0  0  0  0  0  0
   37.2900   32.0450   38.1030 O   0  0  0  0  0  0  0  0  0  0  0  0
   40.5160   27.8050   37.2040 N   0  0  0  0  0  0  0  0  0  0  0  0
   41.8840   27.9540   36.7500 C   0  0  0  0  0  0  0  0  0  0  0  0
   42.4150   26.6880   36.1240 C   0  0  0  0  0  0  0  0  0  0  0  0
   41.9770   25.5470   36.7930 O   0  0  0  0  0  0  0  0  0  0  0  0
   40.5990   25.4410   36.6000 C   0  0  0  0  0  0  0  0  0  0  0  0
   39.9390   26.4870   37.4380 C   0  0  0  0  0  0  0  0  0  0  0  0
   37.2620   27.6940   44.0020 C   0  0  0  0  0  0  0  0  0  0  0  0
   36.7640   28.2810   45.1380 F   0  0  0  0  0  0  0  0  0  0  0  0
   38.4900   27.0700   44.2770 F   0  0  0  0  0  0  0  0  0  0  0  0
   36.3750   26.7080   43.5750 F   0  0  0  0  0  0  0  0  0  0  0  0
   39.0255   29.7675   43.9196 H   0  0  0  0  0  0  0  0  0  0  0  0
   39.2632   31.4197   42.0023 H   0  0  0  0  0  0  0  0  0  0  0  0
   33.0519   28.8087   38.3202 H   0  0  0  0  0  0  0  0  0  0  0  0
   34.9558   29.3978   36.5319 H   0  0  0  0  0  0  0  0  0  0  0  0
   37.9457   27.7673   37.8630 H   0  0  0  0  0  0  0  0  0  0  0  0
   41.9305   31.4183   36.9022 H   0  0  0  0  0  0  0  0  0  0  0  0
   42.1973   29.6571   36.8037 H   0  0  0  0  0  0  0  0  0  0  0  0
   41.9245   28.7622   36.0049 H   0  0  0  0  0  0  0  0  0  0  0  0
   42.5081   28.1868   37.6254 H   0  0  0  0  0  0  0  0  0  0  0  0
   42.0739   26.6392   35.0793 H   0  0  0  0  0  0  0  0  0  0  0  0
   43.5129   26.7153   36.1854 H   0  0  0  0  0  0  0  0  0  0  0  0
   40.3561   25.6029   35.5394 H   0  0  0  0  0  0  0  0  0  0  0  0
   40.2466   24.4394   36.8874 H   0  0  0  0  0  0  0  0  0  0  0  0
   40.0643   26.2258   38.4992 H   0  0  0  0  0  0  0  0  0  0  0  0
   38.8739   26.5245   37.1657 H   0  0  0  0  0  0  0  0  0  0  0  0
  1  2  2  0
  1 26  1  0
  3  2  1  0
  4  3  2  0
  5  4  1  0
  5  6  2  0
  6  1  1  0
  7  8  1  0
  7  5  1  0
  9  8  2  0
 10 11  2  0
 10  9  1  0
 11  7  1  0
 12 11  1  0
 13 12  1  0
 14 13  2  0
 15 14  1  0
 15 17  2  0
 16 15  1  0
 17 18  1  0
 18 12  1  0
 18 19  2  0
 20 14  1  0
 20 25  1  0
 21 20  1  0
 22 21  1  0
 22 23  1  0
 24 23  1  0
 24 25  1  0
 26 28  1  0
 26 27  1  0
 29 26  1  0
  2 30  1  0
  3 31  1  0
  9 32  1  0
 10 33  1  0
 13 34  1  0
 16 35  1  0
 16 36  1  0
 21 37  1  0
 21 38  1  0
 22 39  1  0
 22 40  1  0
 24 41  1  0
 24 42  1  0
 25 43  1  0
 25 44  1  0
M  ISO  8  30  14  31  14  32  14  33  14  34  14  37  13  38  13  39  13
M  ISO  5  40  13  41  13  42  13  43  13  44  13
M  END
>  <minimizedAffinity>  (1) 
-6.29608727

>  <minimizedRMSD>  (1) 
0.145938069

$$$$
