
     RDKit          3D

 44 47  0  0  0  0  0  0  0  0999 V2000
   37.4650   28.6490   42.8690 C   0  0  0  0  0  0  0  0  0  0  0  0
   38.3850   29.7140   43.0330 C   0  0  0  0  0  0  0  0  0  0  0  0
   38.4950   30.6590   42.0100 C   0  0  0  0  0  0  0  0  0  0  0  0
   37.7070   30.4960   40.9150 N   0  0  0  0  0  0  0  0  0  0  0  0
   36.8350   29.4590   40.7940 C   0  0  0  0  0  0  0  0  0  0  0  0
   36.7170   28.5460   41.7610 N   0  0  0  0  0  0  0  0  0  0  0  0
   36.0490   29.3710   39.6060 N   0  0  0  0  0  0  0  0  0  0  0  0
   34.7850   29.0210   39.6540 N   0  0  0  0  0  0  0  0  0  0  0  0
   34.2160   28.9960   38.4390 C   0  0  0  0  0  0  0  0  0  0  0  0
   35.1960   29.3550   37.5700 C   0  0  0  0  0  0  0  0  0  0  0  0
   36.3460   29.5910   38.2980 C   0  0  0  0  0  0  0  0  0  0  0  0
   37.6780   29.9850   37.9980 N   0  0  0  0  0  0  0  0  0  0  0  0
   38.5270   28.9360   37.8510 C   0  0  0  0  0  0  0  0  0  0  0  0
   39.8480   29.1780   37.5590 C   0  0  0  0  0  0  0  0  0  0  0  0
   40.3000   30.4900   37.4190 C   0  0  0  0  0  0  0  0  0  0  0  0
   41.6530   30.7760   37.1190 N   0  0  0  0  0  0  0  0  0  0  0  0
   39.4130   31.5150   37.5750 N   0  0  0  0  0  0  0  0  0  0  0  0
   38.1280   31.2550   37.8600 C   0  0  0  0  0  0  0  0  0  0  0  0
   37.2410   32.1470   38.0220 O   0  0  0  0  0  0  0  0  0  0  0  0
   40.8730   28.1180   37.3740 C   0  0  0  0  0  0  0  0  0  0  0  0
   41.8490   28.4030   36.2670 C   0  0  0  0  0  0  0  0  0  0  0  0
   42.6040   27.0720   36.2160 C   0  0  0  0  0  0  0  0  0  0  0  0
   41.5810   26.0130   36.6130 C   0  0  0  0  0  0  0  0  0  0  0  0
   40.3130   26.7920   36.9780 C   0  0  0  0  0  0  0  0  0  0  0  0
   37.3320   27.6400   43.9350 C   0  0  0  0  0  0  0  0  0  0  0  0
   36.7790   28.1720   45.0740 F   0  0  0  0  0  0  0  0  0  0  0  0
   38.5820   27.0690   44.2240 F   0  0  0  0  0  0  0  0  0  0  0  0
   36.4860   26.6390   43.4770 F   0  0  0  0  0  0  0  0  0  0  0  0
   38.9974   29.7947   43.9432 H   0  0  0  0  0  0  0  0  0  0  0  0
   39.1943   31.5045   42.0881 H   0  0  0  0  0  0  0  0  0  0  0  0
   33.1742   28.7387   38.1975 H   0  0  0  0  0  0  0  0  0  0  0  0
   35.0922   29.4425   36.4784 H   0  0  0  0  0  0  0  0  0  0  0  0
   38.1620   27.9045   37.9642 H   0  0  0  0  0  0  0  0  0  0  0  0
   41.9632   31.7532   37.0204 H   0  0  0  0  0  0  0  0  0  0  0  0
   42.3276   30.0070   36.9992 H   0  0  0  0  0  0  0  0  0  0  0  0
   41.3438   28.1014   38.3680 H   0  0  0  0  0  0  0  0  0  0  0  0
   41.3361   28.6163   35.3175 H   0  0  0  0  0  0  0  0  0  0  0  0
   42.4844   29.2860   36.4303 H   0  0  0  0  0  0  0  0  0  0  0  0
   42.9811   26.8817   35.2003 H   0  0  0  0  0  0  0  0  0  0  0  0
   43.4769   27.0700   36.8854 H   0  0  0  0  0  0  0  0  0  0  0  0
   41.3858   25.3315   35.7719 H   0  0  0  0  0  0  0  0  0  0  0  0
   41.9362   25.3930   37.4493 H   0  0  0  0  0  0  0  0  0  0  0  0
   39.6371   26.8842   36.1150 H   0  0  0  0  0  0  0  0  0  0  0  0
   39.7056   26.3133   37.7602 H   0  0  0  0  0  0  0  0  0  0  0  0
  1  2  2  0
  1 25  1  0
  3  2  1  0
  4  3  2  0
  5  4  1  0
  5  6  2  0
  6  1  1  0
  7  8  1  0
  7  5  1  0
  9  8  2  0
 10 11  2  0
 10  9  1  0
 11  7  1  0
 12 11  1  0
 13 12  1  0
 14 13  2  0
 15 14  1  0
 15 17  2  0
 16 15  1  0
 17 18  1  0
 18 12  1  0
 18 19  2  0
 20 14  1  0
 21 20  1  0
 22 21  1  0
 22 23  1  0
 23 24  1  0
 24 20  1  0
 25 27  1  0
 25 26  1  0
 28 25  1  0
  2 29  1  0
  3 30  1  0
  9 31  1  0
 10 32  1  0
 13 33  1  0
 16 34  1  0
 16 35  1  0
 20 36  1  0
 21 37  1  0
 21 38  1  0
 22 39  1  0
 22 40  1  0
 23 41  1  0
 23 42  1  0
 24 43  1  0
 24 44  1  0
M  ISO  8  29  14  30  14  31  14  32  14  33  14  36  13  37  13  38  13
M  ISO  6  39  13  40  13  41  13  42  13  43  13  44  13
M  END
>  <minimizedAffinity>  (1) 
-6.28175688

>  <minimizedRMSD>  (1) 
0.253793746

$$$$
