
     RDKit          3D

 37 40  0  0  0  0  0  0  0  0999 V2000
   37.4140   28.6880   42.9370 C   0  0  0  0  0  0  0  0  0  0  0  0
   38.4000   29.7040   43.0480 C   0  0  0  0  0  0  0  0  0  0  0  0
   38.5400   30.6030   41.9790 C   0  0  0  0  0  0  0  0  0  0  0  0
   37.7180   30.4330   40.9110 N   0  0  0  0  0  0  0  0  0  0  0  0
   36.7930   29.4570   40.8380 C   0  0  0  0  0  0  0  0  0  0  0  0
   36.6320   28.5780   41.8450 N   0  0  0  0  0  0  0  0  0  0  0  0
   35.9800   29.3660   39.6690 N   0  0  0  0  0  0  0  0  0  0  0  0
   34.6940   29.0860   39.7500 N   0  0  0  0  0  0  0  0  0  0  0  0
   34.1070   29.0450   38.5610 C   0  0  0  0  0  0  0  0  0  0  0  0
   35.0900   29.3210   37.6410 C   0  0  0  0  0  0  0  0  0  0  0  0
   36.2690   29.5220   38.3570 C   0  0  0  0  0  0  0  0  0  0  0  0
   37.6090   29.8320   38.0170 N   0  0  0  0  0  0  0  0  0  0  0  0
   38.4020   28.7240   37.8960 C   0  0  0  0  0  0  0  0  0  0  0  0
   39.7290   28.8650   37.5700 C   0  0  0  0  0  0  0  0  0  0  0  0
   40.2300   30.1460   37.3710 C   0  0  0  0  0  0  0  0  0  0  0  0
   41.6050   30.3210   37.0310 N   0  0  0  0  0  0  0  0  0  0  0  0
   39.4140   31.2380   37.4970 N   0  0  0  0  0  0  0  0  0  0  0  0
   38.1290   31.0490   37.8170 C   0  0  0  0  0  0  0  0  0  0  0  0
   37.2950   32.0070   37.9560 O   0  0  0  0  0  0  0  0  0  0  0  0
   40.6320   27.7240   37.4250 C   0  0  0  0  0  0  0  0  0  0  0  0
   40.2410   26.6010   36.5410 C   0  0  0  0  0  0  0  0  0  0  0  0
   41.6880   25.4900   36.7300 S   0  0  0  0  0  0  0  0  0  0  0  0
   42.5350   26.6360   37.8890 C   0  0  0  0  0  0  0  0  0  0  0  0
   41.7990   27.5810   38.0180 N   0  0  0  0  0  0  0  0  0  0  0  0
   37.2480   27.7300   44.0470 C   0  0  0  0  0  0  0  0  0  0  0  0
   36.7490   28.3320   45.1790 F   0  0  0  0  0  0  0  0  0  0  0  0
   38.4650   27.0910   44.3280 F   0  0  0  0  0  0  0  0  0  0  0  0
   36.3380   26.7650   43.6420 F   0  0  0  0  0  0  0  0  0  0  0  0
   39.0340   29.7840   43.9434 H   0  0  0  0  0  0  0  0  0  0  0  0
   39.2849   31.4120   42.0051 H   0  0  0  0  0  0  0  0  0  0  0  0
   33.0478   28.8330   38.3534 H   0  0  0  0  0  0  0  0  0  0  0  0
   34.9695   29.3733   36.5489 H   0  0  0  0  0  0  0  0  0  0  0  0
   37.9780   27.7222   38.0594 H   0  0  0  0  0  0  0  0  0  0  0  0
   42.2204   29.5006   36.9358 H   0  0  0  0  0  0  0  0  0  0  0  0
   41.9819   31.2677   36.8808 H   0  0  0  0  0  0  0  0  0  0  0  0
   39.3314   26.4695   35.9365 H   0  0  0  0  0  0  0  0  0  0  0  0
   43.5145   26.4893   38.3677 H   0  0  0  0  0  0  0  0  0  0  0  0
  1  2  2  0
  1 25  1  0
  3  2  1  0
  4  3  2  0
  5  4  1  0
  5  6  2  0
  6  1  1  0
  7  8  1  0
  7  5  1  0
  9  8  2  0
 10 11  2  0
 10  9  1  0
 11  7  1  0
 12 11  1  0
 13 12  1  0
 14 13  2  0
 15 17  2  0
 15 14  1  0
 16 15  1  0
 17 18  1  0
 18 19  2  0
 18 12  1  0
 20 14  1  0
 20 24  1  0
 21 22  1  0
 21 20  2  0
 22 23  1  0
 23 24  2  0
 25 27  1  0
 25 26  1  0
 28 25  1  0
  2 29  1  0
  3 30  1  0
  9 31  1  0
 10 32  1  0
 13 33  1  0
 16 34  1  0
 16 35  1  0
 21 36  1  0
 23 37  1  0
M  ISO  7  29  14  30  14  31  14  32  14  33  14  36  14  37  14
M  END
>  <minimizedAffinity>  (1) 
-6.16414595

>  <minimizedRMSD>  (1) 
0.604201794

$$$$
