
     RDKit          3D

 34 36  0  0  0  0  0  0  0  0999 V2000
   37.4120   28.6790   42.9220 C   0  0  0  0  0  0  0  0  0  0  0  0
   38.3890   29.6930   43.0320 C   0  0  0  0  0  0  0  0  0  0  0  0
   38.5310   30.5930   41.9710 C   0  0  0  0  0  0  0  0  0  0  0  0
   37.7120   30.4260   40.8980 N   0  0  0  0  0  0  0  0  0  0  0  0
   36.7880   29.4430   40.8270 C   0  0  0  0  0  0  0  0  0  0  0  0
   36.6360   28.5770   41.8240 N   0  0  0  0  0  0  0  0  0  0  0  0
   35.9760   29.3590   39.6480 N   0  0  0  0  0  0  0  0  0  0  0  0
   34.6910   29.0730   39.7310 N   0  0  0  0  0  0  0  0  0  0  0  0
   34.1030   29.0380   38.5390 C   0  0  0  0  0  0  0  0  0  0  0  0
   35.0820   29.3230   37.6310 C   0  0  0  0  0  0  0  0  0  0  0  0
   36.2510   29.5220   38.3400 C   0  0  0  0  0  0  0  0  0  0  0  0
   37.5990   29.8440   37.9980 N   0  0  0  0  0  0  0  0  0  0  0  0
   38.3830   28.7360   37.8310 C   0  0  0  0  0  0  0  0  0  0  0  0
   39.7130   28.8900   37.4980 C   0  0  0  0  0  0  0  0  0  0  0  0
   40.2250   30.1550   37.3400 C   0  0  0  0  0  0  0  0  0  0  0  0
   41.5850   30.3630   36.9980 N   0  0  0  0  0  0  0  0  0  0  0  0
   39.4170   31.2460   37.5130 N   0  0  0  0  0  0  0  0  0  0  0  0
   38.1280   31.0710   37.8360 C   0  0  0  0  0  0  0  0  0  0  0  0
   37.3010   32.0160   38.0170 O   0  0  0  0  0  0  0  0  0  0  0  0
   40.5710   27.6850   37.3150 C   0  0  0  0  0  0  0  0  0  0  0  0
   37.2460   27.7180   44.0320 C   0  0  0  0  0  0  0  0  0  0  0  0
   36.7500   28.3240   45.1610 F   0  0  0  0  0  0  0  0  0  0  0  0
   38.4690   27.0750   44.3060 F   0  0  0  0  0  0  0  0  0  0  0  0
   36.3380   26.7530   43.6200 F   0  0  0  0  0  0  0  0  0  0  0  0
   39.0215   29.7727   43.9284 H   0  0  0  0  0  0  0  0  0  0  0  0
   39.2747   31.4029   42.0030 H   0  0  0  0  0  0  0  0  0  0  0  0
   33.0450   28.8235   38.3278 H   0  0  0  0  0  0  0  0  0  0  0  0
   34.9624   29.3830   36.5392 H   0  0  0  0  0  0  0  0  0  0  0  0
   37.9568   27.7303   37.9611 H   0  0  0  0  0  0  0  0  0  0  0  0
   41.9469   31.3207   36.8848 H   0  0  0  0  0  0  0  0  0  0  0  0
   42.2112   29.5565   36.8628 H   0  0  0  0  0  0  0  0  0  0  0  0
   40.8559   27.2849   38.2992 H   0  0  0  0  0  0  0  0  0  0  0  0
   40.0135   26.9195   36.7554 H   0  0  0  0  0  0  0  0  0  0  0  0
   41.4768   27.9614   36.7554 H   0  0  0  0  0  0  0  0  0  0  0  0
  1  2  2  0
  1 21  1  0
  3  2  1  0
  4  3  2  0
  5  4  1  0
  5  6  2  0
  6  1  1  0
  7  8  1  0
  7  5  1  0
  9  8  2  0
 10 11  2  0
 10  9  1  0
 11  7  1  0
 12 11  1  0
 13 12  1  0
 14 13  2  0
 15 14  1  0
 15 17  2  0
 16 15  1  0
 17 18  1  0
 18 12  1  0
 18 19  2  0
 20 14  1  0
 21 23  1  0
 21 22  1  0
 24 21  1  0
  2 25  1  0
  3 26  1  0
  9 27  1  0
 10 28  1  0
 13 29  1  0
 16 30  1  0
 16 31  1  0
 20 32  1  0
 20 33  1  0
 20 34  1  0
M  ISO  8  25  14  26  14  27  14  28  14  29  14  32   8  33   8  34   8
M  END
>  <minimizedAffinity>  (1) 
-6.16145849

>  <minimizedRMSD>  (1) 
0.0233763084

$$$$
