
     RDKit          3D

 38 41  0  0  0  0  0  0  0  0999 V2000
   37.3230   28.6720   43.0470 C   0  0  0  0  0  0  0  0  0  0  0  0
   38.3620   29.6440   43.1100 C   0  0  0  0  0  0  0  0  0  0  0  0
   38.5350   30.4950   42.0170 C   0  0  0  0  0  0  0  0  0  0  0  0
   37.6920   30.3370   40.9570 N   0  0  0  0  0  0  0  0  0  0  0  0
   36.7190   29.4000   40.9410 C   0  0  0  0  0  0  0  0  0  0  0  0
   36.5290   28.5740   41.9690 N   0  0  0  0  0  0  0  0  0  0  0  0
   35.8860   29.3200   39.7720 N   0  0  0  0  0  0  0  0  0  0  0  0
   34.5850   29.1080   39.8910 N   0  0  0  0  0  0  0  0  0  0  0  0
   33.9790   29.0640   38.7030 C   0  0  0  0  0  0  0  0  0  0  0  0
   34.9550   29.2610   37.7750 C   0  0  0  0  0  0  0  0  0  0  0  0
   36.1420   29.4200   38.4580 C   0  0  0  0  0  0  0  0  0  0  0  0
   37.5000   29.6510   38.0870 N   0  0  0  0  0  0  0  0  0  0  0  0
   38.2400   28.5010   38.0290 C   0  0  0  0  0  0  0  0  0  0  0  0
   39.5670   28.5750   37.6840 C   0  0  0  0  0  0  0  0  0  0  0  0
   40.1410   29.7910   37.4020 C   0  0  0  0  0  0  0  0  0  0  0  0
   41.5060   29.9010   37.0430 N   0  0  0  0  0  0  0  0  0  0  0  0
   39.3720   30.9200   37.4700 N   0  0  0  0  0  0  0  0  0  0  0  0
   38.0850   30.8230   37.8070 C   0  0  0  0  0  0  0  0  0  0  0  0
   37.2880   31.8250   37.8970 O   0  0  0  0  0  0  0  0  0  0  0  0
   40.4090   27.4340   37.5990 N   0  0  0  0  0  0  0  0  0  0  0  0
   40.1120   26.6540   36.5240 C   0  0  0  0  0  0  0  0  0  0  0  0
   40.9850   25.5600   36.5180 C   0  0  0  0  0  0  0  0  0  0  0  0
   41.7820   25.7210   37.5950 N   0  0  0  0  0  0  0  0  0  0  0  0
   41.4320   26.8480   38.2420 C   0  0  0  0  0  0  0  0  0  0  0  0
   37.1230   27.7630   44.1920 C   0  0  0  0  0  0  0  0  0  0  0  0
   36.6630   28.4400   45.3020 F   0  0  0  0  0  0  0  0  0  0  0  0
   38.3150   27.0880   44.4940 F   0  0  0  0  0  0  0  0  0  0  0  0
   36.1730   26.8210   43.8210 F   0  0  0  0  0  0  0  0  0  0  0  0
   39.0102   29.7220   43.9953 H   0  0  0  0  0  0  0  0  0  0  0  0
   39.3216   31.2639   42.0111 H   0  0  0  0  0  0  0  0  0  0  0  0
   32.9079   28.9015   38.5123 H   0  0  0  0  0  0  0  0  0  0  0  0
   34.8216   29.2883   36.6835 H   0  0  0  0  0  0  0  0  0  0  0  0
   37.7772   27.5292   38.2560 H   0  0  0  0  0  0  0  0  0  0  0  0
   42.0939   29.0570   36.9889 H   0  0  0  0  0  0  0  0  0  0  0  0
   41.9112   30.8250   36.8359 H   0  0  0  0  0  0  0  0  0  0  0  0
   39.3206   26.8500   35.7856 H   0  0  0  0  0  0  0  0  0  0  0  0
   41.0152   24.7389   35.7867 H   0  0  0  0  0  0  0  0  0  0  0  0
   41.9100   27.2300   39.1561 H   0  0  0  0  0  0  0  0  0  0  0  0
  1  2  2  0
  1 25  1  0
  3  2  1  0
  4  3  2  0
  5  4  1  0
  5  6  2  0
  6  1  1  0
  7  8  1  0
  7  5  1  0
  9  8  2  0
 10 11  2  0
 10  9  1  0
 11  7  1  0
 12 11  1  0
 13 12  1  0
 14 13  2  0
 15 17  2  0
 15 14  1  0
 16 15  1  0
 17 18  1  0
 18 19  2  0
 18 12  1  0
 20 14  1  0
 20 24  1  0
 21 20  1  0
 22 21  2  0
 22 23  1  0
 23 24  2  0
 25 27  1  0
 25 26  1  0
 28 25  1  0
  2 29  1  0
  3 30  1  0
  9 31  1  0
 10 32  1  0
 13 33  1  0
 16 34  1  0
 16 35  1  0
 21 36  1  0
 22 37  1  0
 24 38  1  0
M  ISO  8  29  14  30  14  31  14  32  14  33  14  36  14  37  14  38  14
M  END
>  <minimizedAffinity>  (1) 
-6.08733988

>  <minimizedRMSD>  (1) 
0.3184672

$$$$
