
     RDKit          3D

 49 52  0  0  1  0  0  0  0  0999 V2000
   39.8860   31.4400   40.2490 C   0  0  0  0  0  0  0  0  0  0  0  0
   39.4190   30.3480   41.0290 C   0  0  0  0  0  0  0  0  0  0  0  0
   38.0960   30.3310   41.3870 C   0  0  0  0  0  0  0  0  0  0  0  0
   37.2730   31.3550   40.9870 N   0  0  0  0  0  0  0  0  0  0  0  0
   37.7500   32.3880   40.2390 C   0  0  0  0  0  0  0  0  0  0  0  0
   39.0510   32.4340   39.8700 N   0  0  0  0  0  0  0  0  0  0  0  0
   36.8530   33.4230   39.8520 N   0  0  0  0  0  0  0  0  0  0  0  0
   37.5560   29.2910   42.1560 N   0  0  0  0  0  0  0  0  0  0  0  0
   38.0770   29.0200   43.4740 C   0  0  0  0  0  0  0  0  0  0  0  0
   36.9950   28.2640   44.2470 C   0  0  0  0  0  0  0  0  0  0  0  0
   36.5300   27.0830   43.6180 N   0  0  0  0  0  0  0  0  0  0  0  0
   36.6340   27.0750   42.1920 C   0  0  0  0  0  0  0  0  0  0  0  0
   36.4740   28.4720   41.6520 C   0  0  2  0  0  0  0  0  0  0  0  0
   36.3120   28.5100   40.1860 C   0  0  0  0  0  0  0  0  0  0  0  0
   35.1540   29.0430   39.6170 C   0  0  0  0  0  0  0  0  0  0  0  0
   34.9260   29.1150   38.2710 C   0  0  0  0  0  0  0  0  0  0  0  0
   35.9160   28.6230   37.4920 N   0  0  0  0  0  0  0  0  0  0  0  0
   37.0360   28.1050   38.0210 C   0  0  0  0  0  0  0  0  0  0  0  0
   37.2600   28.0350   39.3560 N   0  0  0  0  0  0  0  0  0  0  0  0
   38.0200   27.6130   37.1170 N   0  0  0  0  0  0  0  0  0  0  0  0
   37.6100   27.0770   35.8420 C   0  0  0  0  0  0  0  0  0  0  0  0
   37.8680   25.5850   35.8570 C   0  0  0  0  0  0  0  0  0  0  0  0
   39.2400   25.3120   36.4300 C   0  0  0  0  0  0  0  0  0  0  0  0
   40.0800   26.5790   36.4810 C   0  0  0  0  0  0  0  0  0  0  0  0
   39.4290   27.6080   37.3830 C   0  0  0  0  0  0  0  0  0  0  0  0
   40.9435   31.4775   39.9487 H   0  0  0  0  0  0  0  0  0  0  0  0
   40.0992   29.5400   41.3365 H   0  0  0  0  0  0  0  0  0  0  0  0
   37.1925   34.2138   39.2861 H   0  0  0  0  0  0  0  0  0  0  0  0
   35.8643   33.3812   40.1378 H   0  0  0  0  0  0  0  0  0  0  0  0
   38.9856   28.4045   43.3999 H   0  0  0  0  0  0  0  0  0  0  0  0
   38.3391   29.9565   43.9882 H   0  0  0  0  0  0  0  0  0  0  0  0
   37.4056   27.9892   45.2298 H   0  0  0  0  0  0  0  0  0  0  0  0
   36.1305   28.9411   44.3113 H   0  0  0  0  0  0  0  0  0  0  0  0
   37.0776   26.2904   43.9825 H   0  0  0  0  0  0  0  0  0  0  0  0
   37.6202   26.6837   41.9016 H   0  0  0  0  0  0  0  0  0  0  0  0
   35.8402   26.4363   41.7773 H   0  0  0  0  0  0  0  0  0  0  0  0
   35.5282   28.8991   42.0168 H   0  0  0  0  0  0  0  0  0  0  0  0
   34.3771   29.4288   40.2934 H   0  0  0  0  0  0  0  0  0  0  0  0
   34.0033   29.5425   37.8516 H   0  0  0  0  0  0  0  0  0  0  0  0
   38.1903   27.5481   35.0350 H   0  0  0  0  0  0  0  0  0  0  0  0
   36.5427   27.2786   35.6681 H   0  0  0  0  0  0  0  0  0  0  0  0
   37.1071   25.0884   36.4770 H   0  0  0  0  0  0  0  0  0  0  0  0
   37.8179   25.1958   34.8294 H   0  0  0  0  0  0  0  0  0  0  0  0
   39.1298   24.9139   37.4495 H   0  0  0  0  0  0  0  0  0  0  0  0
   39.7487   24.5842   35.7808 H   0  0  0  0  0  0  0  0  0  0  0  0
   41.0795   26.3359   36.8707 H   0  0  0  0  0  0  0  0  0  0  0  0
   40.1612   26.9946   35.4658 H   0  0  0  0  0  0  0  0  0  0  0  0
   39.8500   28.6030   37.1765 H   0  0  0  0  0  0  0  0  0  0  0  0
   39.6145   27.3585   38.4381 H   0  0  0  0  0  0  0  0  0  0  0  0
  1  2  2  0
  2  3  1  0
  3  8  1  0
  4  3  2  0
  5  4  1  0
  6  5  2  0
  6  1  1  0
  7  5  1  0
  8  9  1  0
  9 10  1  0
 11 10  1  0
 12 11  1  0
 13  8  1  0
 13 12  1  0
 14 13  1  0
 15 14  2  0
 16 15  1  0
 17 18  1  0
 17 16  2  0
 18 19  2  0
 19 14  1  0
 20 25  1  0
 20 18  1  0
 21 22  1  0
 21 20  1  0
 22 23  1  0
 23 24  1  0
 24 25  1  0
  1 26  1  0
  2 27  1  0
  7 28  1  0
  7 29  1  0
  9 30  1  0
  9 31  1  0
 10 32  1  0
 10 33  1  0
 11 34  1  0
 12 35  1  0
 12 36  1  0
 13 37  1  1
 15 38  1  0
 16 39  1  0
 21 40  1  0
 21 41  1  0
 22 42  1  0
 22 43  1  0
 23 44  1  0
 23 45  1  0
 24 46  1  0
 24 47  1  0
 25 48  1  0
 25 49  1  0
M  ISO  8  26  14  27  14  30  13  31  13  32  13  33  13  34   5  35  13
M  ISO  8  36  13  37  13  38  14  39  14  40  13  41  13  42  13  43  13
M  ISO  6  44  13  45  13  46  13  47  13  48  13  49  13
M  END
>  <minimizedAffinity>  (1) 
-6.1184907

>  <minimizedRMSD>  (1) 
0.642089128

$$$$
