
     RDKit          3D

 33 35  0  0  0  0  0  0  0  0999 V2000
   37.4070   28.6860   42.9160 C   0  0  0  0  0  0  0  0  0  0  0  0
   38.3930   29.6900   43.0330 C   0  0  0  0  0  0  0  0  0  0  0  0
   38.5350   30.5870   41.9620 C   0  0  0  0  0  0  0  0  0  0  0  0
   37.7200   30.4300   40.8940 N   0  0  0  0  0  0  0  0  0  0  0  0
   36.7840   29.4500   40.8210 C   0  0  0  0  0  0  0  0  0  0  0  0
   36.6320   28.5840   41.8330 N   0  0  0  0  0  0  0  0  0  0  0  0
   35.9700   29.3630   39.6540 N   0  0  0  0  0  0  0  0  0  0  0  0
   34.6850   29.0770   39.7380 N   0  0  0  0  0  0  0  0  0  0  0  0
   34.0930   29.0400   38.5440 C   0  0  0  0  0  0  0  0  0  0  0  0
   35.0690   29.3190   37.6370 C   0  0  0  0  0  0  0  0  0  0  0  0
   36.2500   29.5230   38.3380 C   0  0  0  0  0  0  0  0  0  0  0  0
   37.5930   29.8400   37.9960 N   0  0  0  0  0  0  0  0  0  0  0  0
   38.3690   28.7250   37.8300 C   0  0  0  0  0  0  0  0  0  0  0  0
   39.6920   28.8800   37.4950 C   0  0  0  0  0  0  0  0  0  0  0  0
   40.2220   30.1380   37.3330 C   0  0  0  0  0  0  0  0  0  0  0  0
   41.5810   30.3390   36.9900 N   0  0  0  0  0  0  0  0  0  0  0  0
   39.4180   31.2330   37.5070 N   0  0  0  0  0  0  0  0  0  0  0  0
   38.1230   31.0630   37.8340 C   0  0  0  0  0  0  0  0  0  0  0  0
   37.2930   32.0070   38.0180 O   0  0  0  0  0  0  0  0  0  0  0  0
   40.5500   27.7190   37.3100 C   0  0  0  0  0  0  0  0  0  0  0  0
   40.2940   26.8150   36.5030 O   0  0  0  0  0  0  0  0  0  0  0  0
   37.2380   27.7280   44.0350 C   0  0  0  0  0  0  0  0  0  0  0  0
   36.7530   28.3330   45.1620 F   0  0  0  0  0  0  0  0  0  0  0  0
   38.4570   27.0880   44.3160 F   0  0  0  0  0  0  0  0  0  0  0  0
   36.3360   26.7510   43.6200 F   0  0  0  0  0  0  0  0  0  0  0  0
   39.0260   29.7666   43.9293 H   0  0  0  0  0  0  0  0  0  0  0  0
   39.2848   31.3913   41.9907 H   0  0  0  0  0  0  0  0  0  0  0  0
   33.0341   28.8278   38.3349 H   0  0  0  0  0  0  0  0  0  0  0  0
   34.9445   29.3731   36.5454 H   0  0  0  0  0  0  0  0  0  0  0  0
   37.9401   27.7208   37.9627 H   0  0  0  0  0  0  0  0  0  0  0  0
   41.9474   31.2948   36.8759 H   0  0  0  0  0  0  0  0  0  0  0  0
   42.2031   29.5294   36.8546 H   0  0  0  0  0  0  0  0  0  0  0  0
   41.4663   27.6410   37.9136 H   0  0  0  0  0  0  0  0  0  0  0  0
  1  2  2  0
  1 22  1  0
  3  2  1  0
  4  3  2  0
  5  4  1  0
  5  6  2  0
  6  1  1  0
  7  8  1  0
  7  5  1  0
  9  8  2  0
 10 11  2  0
 10  9  1  0
 11  7  1  0
 12 11  1  0
 13 12  1  0
 14 13  2  0
 15 14  1  0
 15 17  2  0
 16 15  1  0
 17 18  1  0
 18 12  1  0
 18 19  2  0
 20 14  1  0
 21 20  2  0
 22 24  1  0
 22 23  1  0
 25 22  1  0
  2 26  1  0
  3 27  1  0
  9 28  1  0
 10 29  1  0
 13 30  1  0
 16 31  1  0
 16 32  1  0
 20 33  1  0
M  ISO  6  26  14  27  14  28  14  29  14  30  14  33   6
M  END
>  <minimizedAffinity>  (1) 
-5.97087669

>  <minimizedRMSD>  (1) 
0.162997365

$$$$
