
     RDKit          3D

 22 23  0  0  0  0  0  0  0  0999 V2000
   36.8200   30.7580   41.1590 C   0  0  0  0  0  0  0  0  0  0  0  0
   37.6790   29.8650   41.8360 C   0  0  0  0  0  0  0  0  0  0  0  0
   37.3060   28.5110   41.8670 C   0  0  0  0  0  0  0  0  0  0  0  0
   36.1500   28.1550   41.2490 N   0  0  0  0  0  0  0  0  0  0  0  0
   35.3580   29.0390   40.6140 C   0  0  0  0  0  0  0  0  0  0  0  0
   35.6950   30.3470   40.5690 N   0  0  0  0  0  0  0  0  0  0  0  0
   38.0700   27.4910   42.5100 N   0  0  0  0  0  0  0  0  0  0  0  0
   38.4320   27.4050   43.9070 C   0  0  0  0  0  0  0  0  0  0  0  0
   39.6890   26.5620   43.8850 C   0  0  0  0  0  0  0  0  0  0  0  0
   39.3510   25.5500   42.8180 C   0  0  0  0  0  0  0  0  0  0  0  0
   38.5990   26.3620   41.8000 C   0  0  0  0  0  0  0  0  0  0  0  0
   37.0857   31.8246   41.1164 H   0  0  0  0  0  0  0  0  0  0  0  0
   38.6028   30.2153   42.3195 H   0  0  0  0  0  0  0  0  0  0  0  0
   34.4322   28.6952   40.1295 H   0  0  0  0  0  0  0  0  0  0  0  0
   38.6328   28.4025   44.3249 H   0  0  0  0  0  0  0  0  0  0  0  0
   37.6359   26.9776   44.5343 H   0  0  0  0  0  0  0  0  0  0  0  0
   40.5696   27.1600   43.6076 H   0  0  0  0  0  0  0  0  0  0  0  0
   39.9504   26.1194   44.8575 H   0  0  0  0  0  0  0  0  0  0  0  0
   40.2633   25.1173   42.3816 H   0  0  0  0  0  0  0  0  0  0  0  0
   38.7730   24.6961   43.2010 H   0  0  0  0  0  0  0  0  0  0  0  0
   37.7826   25.7676   41.3638 H   0  0  0  0  0  0  0  0  0  0  0  0
   39.2515   26.6755   40.9717 H   0  0  0  0  0  0  0  0  0  0  0  0
  1  2  2  0
  2  3  1  0
  3  7  1  0
  4  3  2  0
  5  4  1  0
  6  5  2  0
  6  1  1  0
  7  8  1  0
  9  8  1  0
 10  9  1  0
 11  7  1  0
 11 10  1  0
  1 12  1  0
  2 13  1  0
  5 14  1  0
  8 15  1  0
  8 16  1  0
  9 17  1  0
  9 18  1  0
 10 19  1  0
 10 20  1  0
 11 21  1  0
 11 22  1  0
M  ISO  8  12  14  13  14  14  14  15  13  16  13  17  13  18  13  19  13
M  ISO  3  20  13  21  13  22  13
M  END
>  <minimizedAffinity>  (1) 
-3.62663293

>  <minimizedRMSD>  (1) 
3.15620708

$$$$
