
     RDKit          3D

 50 53  0  0  1  0  0  0  0  0999 V2000
   40.0340   31.9600   40.3200 C   0  0  0  0  0  0  0  0  0  0  0  0
   39.6080   30.7720   40.9900 C   0  0  0  0  0  0  0  0  0  0  0  0
   38.2590   30.6200   41.2230 C   0  0  0  0  0  0  0  0  0  0  0  0
   37.4020   31.5930   40.8120 N   0  0  0  0  0  0  0  0  0  0  0  0
   37.8240   32.7200   40.1750 C   0  0  0  0  0  0  0  0  0  0  0  0
   39.1600   32.8900   39.9330 N   0  0  0  0  0  0  0  0  0  0  0  0
   36.8740   33.6940   39.7750 N   0  0  0  0  0  0  0  0  0  0  0  0
   37.7610   29.4840   41.8760 N   0  0  0  0  0  0  0  0  0  0  0  0
   38.2060   29.1630   43.2140 C   0  0  0  0  0  0  0  0  0  0  0  0
   37.1230   28.2790   43.8490 C   0  0  0  0  0  0  0  0  0  0  0  0
   36.8300   27.1010   43.1060 N   0  0  0  0  0  0  0  0  0  0  0  0
   37.0270   27.2030   41.6940 C   0  0  0  0  0  0  0  0  0  0  0  0
   36.8010   28.6170   41.2280 C   0  0  2  0  0  0  0  0  0  0  0  0
   36.7660   28.7370   39.7610 C   0  0  0  0  0  0  0  0  0  0  0  0
   35.5970   29.1800   39.1230 C   0  0  0  0  0  0  0  0  0  0  0  0
   35.4780   29.3210   37.7680 C   0  0  0  0  0  0  0  0  0  0  0  0
   36.5760   29.0020   37.0560 N   0  0  0  0  0  0  0  0  0  0  0  0
   37.7030   28.5780   37.6440 C   0  0  0  0  0  0  0  0  0  0  0  0
   37.8300   28.4340   38.9930 N   0  0  0  0  0  0  0  0  0  0  0  0
   38.8790   28.2430   36.7920 C   0  0  0  0  0  0  0  0  0  0  0  0
   39.0060   26.7770   36.4950 C   0  0  0  0  0  0  0  0  0  0  0  0
   40.2900   26.2260   37.1300 C   0  0  0  0  0  0  0  0  0  0  0  0
   41.4270   26.9650   36.4540 C   0  0  0  0  0  0  0  0  0  0  0  0
   41.3870   28.4050   36.8670 C   0  0  0  0  0  0  0  0  0  0  0  0
   40.0850   28.8120   37.4900 C   0  0  0  0  0  0  0  0  0  0  0  0
   41.1050   32.1106   40.1193 H   0  0  0  0  0  0  0  0  0  0  0  0
   40.3311   30.0066   41.3082 H   0  0  0  0  0  0  0  0  0  0  0  0
   37.1851   34.5492   39.2926 H   0  0  0  0  0  0  0  0  0  0  0  0
   35.8729   33.5462   39.9668 H   0  0  0  0  0  0  0  0  0  0  0  0
   39.1614   28.6193   43.1738 H   0  0  0  0  0  0  0  0  0  0  0  0
   38.3618   30.0775   43.8052 H   0  0  0  0  0  0  0  0  0  0  0  0
   37.4638   27.9803   44.8513 H   0  0  0  0  0  0  0  0  0  0  0  0
   36.1997   28.8763   43.8769 H   0  0  0  0  0  0  0  0  0  0  0  0
   37.4345   26.3448   43.4576 H   0  0  0  0  0  0  0  0  0  0  0  0
   38.0565   26.9022   41.4500 H   0  0  0  0  0  0  0  0  0  0  0  0
   36.3074   26.5433   41.1870 H   0  0  0  0  0  0  0  0  0  0  0  0
   35.7962   28.9455   41.5321 H   0  0  0  0  0  0  0  0  0  0  0  0
   34.7269   29.4279   39.7486 H   0  0  0  0  0  0  0  0  0  0  0  0
   34.5498   29.6707   37.2924 H   0  0  0  0  0  0  0  0  0  0  0  0
   38.7636   28.6888   35.7930 H   0  0  0  0  0  0  0  0  0  0  0  0
   38.1368   26.2443   36.9082 H   0  0  0  0  0  0  0  0  0  0  0  0
   39.0481   26.6299   35.4057 H   0  0  0  0  0  0  0  0  0  0  0  0
   40.2965   26.4189   38.2129 H   0  0  0  0  0  0  0  0  0  0  0  0
   40.3756   25.1374   36.9973 H   0  0  0  0  0  0  0  0  0  0  0  0
   41.3170   26.8914   35.3620 H   0  0  0  0  0  0  0  0  0  0  0  0
   42.3881   26.5198   36.7510 H   0  0  0  0  0  0  0  0  0  0  0  0
   42.1919   28.5808   37.5959 H   0  0  0  0  0  0  0  0  0  0  0  0
   41.5118   29.0071   35.9549 H   0  0  0  0  0  0  0  0  0  0  0  0
   40.0156   29.9095   37.4650 H   0  0  0  0  0  0  0  0  0  0  0  0
   40.0806   28.4157   38.5161 H   0  0  0  0  0  0  0  0  0  0  0  0
  1  2  2  0
  2  3  1  0
  3  8  1  0
  4  3  2  0
  5  4  1  0
  6  5  2  0
  6  1  1  0
  7  5  1  0
  8  9  1  0
  9 10  1  0
 11 10  1  0
 12 11  1  0
 13 12  1  0
 13  8  1  0
 14 13  1  0
 15 14  2  0
 16 15  1  0
 17 18  1  0
 17 16  2  0
 18 19  2  0
 19 14  1  0
 20 25  1  0
 20 18  1  0
 21 20  1  0
 21 22  1  0
 23 24  1  0
 23 22  1  0
 24 25  1  0
  1 26  1  0
  2 27  1  0
  7 28  1  0
  7 29  1  0
  9 30  1  0
  9 31  1  0
 10 32  1  0
 10 33  1  0
 11 34  1  0
 12 35  1  0
 12 36  1  0
 13 37  1  1
 15 38  1  0
 16 39  1  0
 20 40  1  0
 21 41  1  0
 21 42  1  0
 22 43  1  0
 22 44  1  0
 23 45  1  0
 23 46  1  0
 24 47  1  0
 24 48  1  0
 25 49  1  0
 25 50  1  0
M  ISO  8  26  14  27  14  30  13  31  13  32  13  33  13  34   5  35  13
M  ISO  8  36  13  37  13  38  14  39  14  40  13  41  13  42  13  43  13
M  ISO  7  44  13  45  13  46  13  47  13  48  13  49  13  50  13
M  END
>  <minimizedAffinity>  (1) 
-6.06781626

>  <minimizedRMSD>  (1) 
0.920627117

$$$$
