
     RDKit          3D

 32 34  0  0  1  0  0  0  0  0999 V2000
   36.7540   30.7150   41.2370 C   0  0  0  0  0  0  0  0  0  0  0  0
   37.6270   29.8420   41.8990 C   0  0  0  0  0  0  0  0  0  0  0  0
   37.3510   28.4750   41.8590 C   0  0  0  0  0  0  0  0  0  0  0  0
   36.2440   28.0510   41.1770 N   0  0  0  0  0  0  0  0  0  0  0  0
   35.4250   28.9250   40.5490 C   0  0  0  0  0  0  0  0  0  0  0  0
   35.6850   30.2620   40.5810 N   0  0  0  0  0  0  0  0  0  0  0  0
   38.1590   27.4730   42.4950 N   0  0  0  0  0  0  0  0  0  0  0  0
   38.4300   27.3670   43.9210 C   0  0  0  0  0  0  0  0  0  0  0  0
   39.7530   26.6230   43.9420 C   0  0  0  0  0  0  0  0  0  0  0  0
   39.5590   25.6380   42.8260 C   0  0  0  0  0  0  0  0  0  0  0  0
   38.8100   26.4290   41.7800 C   0  0  1  0  0  0  0  0  0  0  0  0
   37.8890   25.5700   40.9930 C   0  0  0  0  0  0  0  0  0  0  0  0
   37.0040   24.7110   41.6380 C   0  0  0  0  0  0  0  0  0  0  0  0
   36.1500   23.9150   40.8930 C   0  0  0  0  0  0  0  0  0  0  0  0
   36.1460   23.9440   39.5130 C   0  0  0  0  0  0  0  0  0  0  0  0
   37.0260   24.7980   38.8630 C   0  0  0  0  0  0  0  0  0  0  0  0
   37.8870   25.6010   39.6150 C   0  0  0  0  0  0  0  0  0  0  0  0
   36.9544   31.7964   41.2588 H   0  0  0  0  0  0  0  0  0  0  0  0
   38.5073   30.2244   42.4364 H   0  0  0  0  0  0  0  0  0  0  0  0
   34.5421   28.5535   40.0082 H   0  0  0  0  0  0  0  0  0  0  0  0
   38.5238   28.3604   44.3840 H   0  0  0  0  0  0  0  0  0  0  0  0
   37.6315   26.8636   44.4858 H   0  0  0  0  0  0  0  0  0  0  0  0
   40.5973   27.2985   43.7398 H   0  0  0  0  0  0  0  0  0  0  0  0
   39.9932   26.1616   44.9112 H   0  0  0  0  0  0  0  0  0  0  0  0
   40.5271   25.2901   42.4366 H   0  0  0  0  0  0  0  0  0  0  0  0
   39.0209   24.7328   43.1438 H   0  0  0  0  0  0  0  0  0  0  0  0
   39.4783   26.8524   41.0158 H   0  0  0  0  0  0  0  0  0  0  0  0
   36.9829   24.6645   42.7368 H   0  0  0  0  0  0  0  0  0  0  0  0
   35.4555   23.2408   41.4156 H   0  0  0  0  0  0  0  0  0  0  0  0
   35.4594   23.3034   38.9401 H   0  0  0  0  0  0  0  0  0  0  0  0
   37.0454   24.8422   37.7641 H   0  0  0  0  0  0  0  0  0  0  0  0
   38.5817   26.2759   39.0936 H   0  0  0  0  0  0  0  0  0  0  0  0
  1  2  2  0
  3  2  1  0
  3  7  1  0
  4  3  2  0
  5  6  2  0
  5  4  1  0
  6  1  1  0
  7  8  1  0
  8  9  1  0
 10  9  1  0
 11  7  1  0
 11 10  1  0
 12 13  2  0
 12 11  1  0
 14 13  1  0
 15 14  2  0
 16 15  1  0
 16 17  2  0
 17 12  1  0
  1 18  1  0
  2 19  1  0
  5 20  1  0
  8 21  1  0
  8 22  1  0
  9 23  1  0
  9 24  1  0
 10 25  1  0
 10 26  1  0
 11 27  1  6
 13 28  1  0
 14 29  1  0
 15 30  1  0
 16 31  1  0
 17 32  1  0
M  ISO  8  18  14  19  14  20  14  21  13  22  13  23  13  24  13  25  13
M  ISO  7  26  13  27  13  28  14  29  14  30  14  31  14  32  14
M  END
>  <minimizedAffinity>  (1) 
-5.0412426

>  <minimizedRMSD>  (1) 
0.839600503

$$$$
