
     RDKit          3D

 35 38  0  0  1  0  0  0  0  0999 V2000
   37.0690   30.5330   41.2690 C   0  0  0  0  0  0  0  0  0  0  0  0
   37.9790   29.6770   41.9480 C   0  0  0  0  0  0  0  0  0  0  0  0
   37.5670   28.3300   42.0550 C   0  0  0  0  0  0  0  0  0  0  0  0
   36.3820   27.9580   41.5270 N   0  0  0  0  0  0  0  0  0  0  0  0
   35.5600   28.8130   40.8940 C   0  0  0  0  0  0  0  0  0  0  0  0
   35.9070   30.1010   40.7670 N   0  0  0  0  0  0  0  0  0  0  0  0
   38.3780   27.3420   42.7070 N   0  0  0  0  0  0  0  0  0  0  0  0
   38.8450   27.3090   44.0600 C   0  0  0  0  0  0  0  0  0  0  0  0
   40.0890   26.4380   43.9750 C   0  0  0  0  0  0  0  0  0  0  0  0
   39.6280   25.3740   42.9960 C   0  0  0  0  0  0  0  0  0  0  0  0
   38.8490   26.1730   42.0000 C   0  0  1  0  0  0  0  0  0  0  0  0
   37.8630   25.4700   41.2580 N   0  0  0  0  0  0  0  0  0  0  0  0
   37.0080   24.5690   41.8300 C   0  0  0  0  0  0  0  0  0  0  0  0
   36.2080   24.0840   40.8680 N   0  0  0  0  0  0  0  0  0  0  0  0
   36.5230   24.6450   39.7050 C   0  0  0  0  0  0  0  0  0  0  0  0
   35.9940   24.4710   38.4600 C   0  0  0  0  0  0  0  0  0  0  0  0
   36.5140   25.1810   37.4370 N   0  0  0  0  0  0  0  0  0  0  0  0
   37.5430   26.0360   37.7070 C   0  0  0  0  0  0  0  0  0  0  0  0
   38.0630   26.2060   38.9360 N   0  0  0  0  0  0  0  0  0  0  0  0
   37.5630   25.5170   39.9470 C   0  0  0  0  0  0  0  0  0  0  0  0
   34.9300   23.5950   38.1450 N   0  0  0  0  0  0  0  0  0  0  0  0
   37.3316   31.5947   41.1517 H   0  0  0  0  0  0  0  0  0  0  0  0
   38.9334   30.0371   42.3596 H   0  0  0  0  0  0  0  0  0  0  0  0
   34.6049   28.4561   40.4813 H   0  0  0  0  0  0  0  0  0  0  0  0
   39.0941   28.3194   44.4164 H   0  0  0  0  0  0  0  0  0  0  0  0
   38.0952   26.9238   44.7667 H   0  0  0  0  0  0  0  0  0  0  0  0
   40.9504   27.0002   43.5852 H   0  0  0  0  0  0  0  0  0  0  0  0
   40.4361   26.0458   44.9423 H   0  0  0  0  0  0  0  0  0  0  0  0
   40.4839   24.8715   42.5217 H   0  0  0  0  0  0  0  0  0  0  0  0
   39.0462   24.5667   43.4647 H   0  0  0  0  0  0  0  0  0  0  0  0
   39.5064   26.4629   41.1671 H   0  0  0  0  0  0  0  0  0  0  0  0
   36.9808   24.2903   42.8938 H   0  0  0  0  0  0  0  0  0  0  0  0
   37.9696   26.6167   36.8759 H   0  0  0  0  0  0  0  0  0  0  0  0
   34.5908   23.5247   37.1750 H   0  0  0  0  0  0  0  0  0  0  0  0
   34.4940   23.0271   38.8855 H   0  0  0  0  0  0  0  0  0  0  0  0
  1  2  2  0
  2  3  1  0
  3  7  1  0
  4  3  2  0
  5  4  1  0
  6  5  2  0
  6  1  1  0
  7  8  1  0
  9  8  1  0
 10  9  1  0
 11  7  1  0
 11 10  1  0
 12 13  1  0
 12 11  1  0
 14 13  2  0
 15 20  2  0
 15 14  1  0
 16 15  1  0
 17 18  1  0
 17 16  2  0
 18 19  2  0
 19 20  1  0
 20 12  1  0
 21 16  1  0
  1 22  1  0
  2 23  1  0
  5 24  1  0
  8 25  1  0
  8 26  1  0
  9 27  1  0
  9 28  1  0
 10 29  1  0
 10 30  1  0
 11 31  1  6
 13 32  1  0
 18 33  1  0
 21 34  1  0
 21 35  1  0
M  ISO  8  22  14  23  14  24  14  25  13  26  13  27  13  28  13  29  13
M  ISO  4  30  13  31  13  32  14  33  14
M  END
>  <minimizedAffinity>  (1) 
-5.03872108

>  <minimizedRMSD>  (1) 
0.792839646

$$$$
