
     RDKit          3D

 44 47  0  0  1  0  0  0  0  0999 V2000
   40.0420   32.1310   41.1110 C   0  0  0  0  0  0  0  0  0  0  0  0
   39.6190   30.8650   41.5860 C   0  0  0  0  0  0  0  0  0  0  0  0
   38.3010   30.5330   41.4630 C   0  0  0  0  0  0  0  0  0  0  0  0
   37.4260   31.4280   40.8850 N   0  0  0  0  0  0  0  0  0  0  0  0
   37.8570   32.6370   40.4360 C   0  0  0  0  0  0  0  0  0  0  0  0
   39.1620   32.9900   40.5480 N   0  0  0  0  0  0  0  0  0  0  0  0
   36.9140   33.5260   39.8470 N   0  0  0  0  0  0  0  0  0  0  0  0
   37.7980   29.3010   41.9060 N   0  0  0  0  0  0  0  0  0  0  0  0
   37.9240   28.9300   43.2950 C   0  0  0  0  0  0  0  0  0  0  0  0
   36.8400   27.8770   43.5830 C   0  0  0  0  0  0  0  0  0  0  0  0
   36.9350   26.7280   42.7460 N   0  0  0  0  0  0  0  0  0  0  0  0
   37.4350   26.9720   41.4340 C   0  0  0  0  0  0  0  0  0  0  0  0
   37.1460   28.3820   40.9950 C   0  0  2  0  0  0  0  0  0  0  0  0
   37.4770   28.6120   39.5700 C   0  0  0  0  0  0  0  0  0  0  0  0
   36.4900   29.0760   38.6920 C   0  0  0  0  0  0  0  0  0  0  0  0
   36.7020   29.3150   37.3630 C   0  0  0  0  0  0  0  0  0  0  0  0
   37.9410   29.0770   36.9290 N   0  0  0  0  0  0  0  0  0  0  0  0
   38.9110   28.6310   37.7460 C   0  0  0  0  0  0  0  0  0  0  0  0
   38.7150   28.3880   39.0700 N   0  0  0  0  0  0  0  0  0  0  0  0
   40.2600   28.3800   37.2350 C   0  0  0  0  0  0  0  0  0  0  0  0
   40.6170   27.0750   36.8810 C   0  0  0  0  0  0  0  0  0  0  0  0
   41.8770   26.8060   36.3980 C   0  0  0  0  0  0  0  0  0  0  0  0
   42.7810   27.8350   36.2660 C   0  0  0  0  0  0  0  0  0  0  0  0
   42.4740   29.1500   36.6040 C   0  0  0  0  0  0  0  0  0  0  0  0
   41.2020   29.3560   37.0810 C   0  0  0  0  0  0  0  0  0  0  0  0
   41.0998   32.4190   41.2013 H   0  0  0  0  0  0  0  0  0  0  0  0
   40.3356   30.1666   42.0429 H   0  0  0  0  0  0  0  0  0  0  0  0
   35.9253   33.2486   39.7666 H   0  0  0  0  0  0  0  0  0  0  0  0
   37.2204   34.4466   39.5013 H   0  0  0  0  0  0  0  0  0  0  0  0
   38.9213   28.5058   43.4831 H   0  0  0  0  0  0  0  0  0  0  0  0
   37.8002   29.8073   43.9470 H   0  0  0  0  0  0  0  0  0  0  0  0
   36.9354   27.5550   44.6305 H   0  0  0  0  0  0  0  0  0  0  0  0
   35.8664   28.3477   43.3815 H   0  0  0  0  0  0  0  0  0  0  0  0
   37.5610   26.0507   43.2046 H   0  0  0  0  0  0  0  0  0  0  0  0
   38.5231   26.8105   41.4289 H   0  0  0  0  0  0  0  0  0  0  0  0
   36.9371   26.2814   40.7375 H   0  0  0  0  0  0  0  0  0  0  0  0
   36.0629   28.5666   41.0473 H   0  0  0  0  0  0  0  0  0  0  0  0
   35.4834   29.2592   39.0960 H   0  0  0  0  0  0  0  0  0  0  0  0
   35.9057   29.6786   36.6969 H   0  0  0  0  0  0  0  0  0  0  0  0
   39.8868   26.2595   36.9892 H   0  0  0  0  0  0  0  0  0  0  0  0
   42.1586   25.7795   36.1204 H   0  0  0  0  0  0  0  0  0  0  0  0
   43.7854   27.6097   35.8783 H   0  0  0  0  0  0  0  0  0  0  0  0
   43.2006   29.9688   36.4965 H   0  0  0  0  0  0  0  0  0  0  0  0
   40.9222   30.3828   37.3592 H   0  0  0  0  0  0  0  0  0  0  0  0
  1  2  2  0
  3  2  1  0
  3  8  1  0
  4  3  2  0
  5  6  2  0
  5  4  1  0
  6  1  1  0
  7  5  1  0
  8  9  1  0
  9 10  1  0
 11 10  1  0
 12 11  1  0
 13 12  1  0
 13  8  1  0
 14 13  1  0
 15 14  2  0
 16 15  1  0
 17 16  2  0
 17 18  1  0
 18 19  2  0
 19 14  1  0
 20 18  1  0
 21 20  2  0
 22 21  1  0
 23 22  2  0
 23 24  1  0
 24 25  2  0
 25 20  1  0
  1 26  1  0
  2 27  1  0
  7 28  1  0
  7 29  1  0
  9 30  1  0
  9 31  1  0
 10 32  1  0
 10 33  1  0
 11 34  1  0
 12 35  1  0
 12 36  1  0
 13 37  1  6
 15 38  1  0
 16 39  1  0
 21 40  1  0
 22 41  1  0
 23 42  1  0
 24 43  1  0
 25 44  1  0
M  ISO  8  26  14  27  14  30  13  31  13  32  13  33  13  34   5  35  13
M  ISO  8  36  13  37  13  38  14  39  14  40  14  41  14  42  14  43  14
M  ISO  1  44  14
M  END
>  <minimizedAffinity>  (1) 
-5.97990894

>  <minimizedRMSD>  (1) 
1.38085592

$$$$
