
     RDKit          3D

 32 34  0  0  1  0  0  0  0  0999 V2000
   36.7590   30.7140   41.1810 C   0  0  0  0  0  0  0  0  0  0  0  0
   37.6270   29.8320   41.8420 C   0  0  0  0  0  0  0  0  0  0  0  0
   37.3250   28.4580   41.8350 C   0  0  0  0  0  0  0  0  0  0  0  0
   36.2060   28.0620   41.1850 N   0  0  0  0  0  0  0  0  0  0  0  0
   35.3930   28.9430   40.5580 C   0  0  0  0  0  0  0  0  0  0  0  0
   35.6630   30.2580   40.5520 N   0  0  0  0  0  0  0  0  0  0  0  0
   38.1380   27.4800   42.4760 N   0  0  0  0  0  0  0  0  0  0  0  0
   38.4340   27.3740   43.8940 C   0  0  0  0  0  0  0  0  0  0  0  0
   39.7270   26.5830   43.9060 C   0  0  0  0  0  0  0  0  0  0  0  0
   39.4850   25.6050   42.7960 C   0  0  0  0  0  0  0  0  0  0  0  0
   38.7830   26.4410   41.7470 C   0  0  1  0  0  0  0  0  0  0  0  0
   37.9410   25.6590   40.8870 N   0  0  0  0  0  0  0  0  0  0  0  0
   38.0780   25.7140   39.5300 C   0  0  0  0  0  0  0  0  0  0  0  0
   37.3310   25.0140   38.6370 C   0  0  0  0  0  0  0  0  0  0  0  0
   36.3480   24.1750   39.1200 C   0  0  0  0  0  0  0  0  0  0  0  0
   35.6280   23.5060   38.3640 O   0  0  0  0  0  0  0  0  0  0  0  0
   36.2240   24.1330   40.4610 N   0  0  0  0  0  0  0  0  0  0  0  0
   36.9800   24.8390   41.3470 C   0  0  0  0  0  0  0  0  0  0  0  0
   36.7810   24.7250   42.5680 O   0  0  0  0  0  0  0  0  0  0  0  0
   36.9785   31.7919   41.1777 H   0  0  0  0  0  0  0  0  0  0  0  0
   38.5249   30.2070   42.3550 H   0  0  0  0  0  0  0  0  0  0  0  0
   34.4934   28.5747   40.0432 H   0  0  0  0  0  0  0  0  0  0  0  0
   38.5725   28.3674   44.3457 H   0  0  0  0  0  0  0  0  0  0  0  0
   37.6277   26.9015   44.4742 H   0  0  0  0  0  0  0  0  0  0  0  0
   40.5940   27.2259   43.6940 H   0  0  0  0  0  0  0  0  0  0  0  0
   39.9598   26.1160   44.8744 H   0  0  0  0  0  0  0  0  0  0  0  0
   40.4335   25.2030   42.4104 H   0  0  0  0  0  0  0  0  0  0  0  0
   38.9001   24.7287   43.1123 H   0  0  0  0  0  0  0  0  0  0  0  0
   39.4770   26.8835   41.0172 H   0  0  0  0  0  0  0  0  0  0  0  0
   38.8562   26.3789   39.1270 H   0  0  0  0  0  0  0  0  0  0  0  0
   37.5056   25.1137   37.5555 H   0  0  0  0  0  0  0  0  0  0  0  0
   35.4966   23.5153   40.8485 H   0  0  0  0  0  0  0  0  0  0  0  0
  1  2  2  0
  3  2  1  0
  3  7  1  0
  4  3  2  0
  5  4  1  0
  6  5  2  0
  6  1  1  0
  7  8  1  0
  8  9  1  0
 10  9  1  0
 11  7  1  0
 11 10  1  0
 12 18  1  0
 12 11  1  0
 13 12  1  0
 14 15  1  0
 14 13  2  0
 15 17  1  0
 16 15  2  0
 17 18  1  0
 18 19  2  0
  1 20  1  0
  2 21  1  0
  5 22  1  0
  8 23  1  0
  8 24  1  0
  9 25  1  0
  9 26  1  0
 10 27  1  0
 10 28  1  0
 11 29  1  6
 13 30  1  0
 14 31  1  0
 17 32  1  0
M  ISO  8  20  14  21  14  22  14  23  13  24  13  25  13  26  13  27  13
M  ISO  5  28  13  29  13  30  14  31  14  32   9
M  END
>  <minimizedAffinity>  (1) 
-4.96145439

>  <minimizedRMSD>  (1) 
0.237893432

$$$$
