
     RDKit          3D

 36 39  0  0  1  0  0  0  0  0999 V2000
   37.4770   31.9650   40.4120 C   0  0  0  0  0  0  0  0  0  0  0  0
   38.1700   31.0520   41.2350 C   0  0  0  0  0  0  0  0  0  0  0  0
   38.0490   29.6860   40.9240 C   0  0  0  0  0  0  0  0  0  0  0  0
   37.2790   29.3770   39.8640 N   0  0  0  0  0  0  0  0  0  0  0  0
   36.6320   30.2610   39.0990 C   0  0  0  0  0  0  0  0  0  0  0  0
   36.7370   31.5750   39.3830 N   0  0  0  0  0  0  0  0  0  0  0  0
   38.6910   28.6480   41.6630 N   0  0  0  0  0  0  0  0  0  0  0  0
   38.5330   28.3220   43.0520 C   0  0  0  0  0  0  0  0  0  0  0  0
   39.8510   27.6360   43.3830 C   0  0  0  0  0  0  0  0  0  0  0  0
   40.1050   26.8420   42.1370 C   0  0  0  0  0  0  0  0  0  0  0  0
   39.6350   27.7580   41.0250 C   0  0  1  0  0  0  0  0  0  0  0  0
   38.9740   26.8690   40.0380 C   0  0  0  0  0  0  0  0  0  0  0  0
   39.3200   27.0850   38.7330 N   0  0  0  0  0  0  0  0  0  0  0  0
   38.8060   26.3540   37.7270 C   0  0  0  0  0  0  0  0  0  0  0  0
   37.9050   25.3490   37.9310 N   0  0  0  0  0  0  0  0  0  0  0  0
   37.5530   25.1250   39.2250 C   0  0  0  0  0  0  0  0  0  0  0  0
   36.6390   24.1230   39.5460 C   0  0  0  0  0  0  0  0  0  0  0  0
   36.2910   23.9100   40.8720 C   0  0  0  0  0  0  0  0  0  0  0  0
   36.8280   24.6700   41.9000 C   0  0  0  0  0  0  0  0  0  0  0  0
   37.7320   25.6600   41.5730 C   0  0  0  0  0  0  0  0  0  0  0  0
   38.0700   25.8630   40.2660 C   0  0  0  0  0  0  0  0  0  0  0  0
   37.5534   33.0400   40.6321 H   0  0  0  0  0  0  0  0  0  0  0  0
   38.7794   31.3945   42.0843 H   0  0  0  0  0  0  0  0  0  0  0  0
   36.0219   29.9214   38.2490 H   0  0  0  0  0  0  0  0  0  0  0  0
   38.3934   29.2284   43.6594 H   0  0  0  0  0  0  0  0  0  0  0  0
   37.6508   27.6980   43.2578 H   0  0  0  0  0  0  0  0  0  0  0  0
   40.6510   28.3699   43.5603 H   0  0  0  0  0  0  0  0  0  0  0  0
   39.8191   27.0285   44.2995 H   0  0  0  0  0  0  0  0  0  0  0  0
   41.1754   26.6121   42.0298 H   0  0  0  0  0  0  0  0  0  0  0  0
   39.5873   25.8714   42.1371 H   0  0  0  0  0  0  0  0  0  0  0  0
   40.4178   28.3419   40.5187 H   0  0  0  0  0  0  0  0  0  0  0  0
   39.1250   26.5754   36.6978 H   0  0  0  0  0  0  0  0  0  0  0  0
   36.1957   23.5041   38.7519 H   0  0  0  0  0  0  0  0  0  0  0  0
   35.5691   23.1163   41.1146 H   0  0  0  0  0  0  0  0  0  0  0  0
   36.5415   24.4889   42.9465 H   0  0  0  0  0  0  0  0  0  0  0  0
   38.1784   26.2829   42.3621 H   0  0  0  0  0  0  0  0  0  0  0  0
  1  2  2  0
  3  2  1  0
  3  7  1  0
  4  3  2  0
  5  6  2  0
  5  4  1  0
  6  1  1  0
  7  8  1  0
  8  9  1  0
 10  9  1  0
 11  7  1  0
 11 10  1  0
 12 21  1  0
 12 11  1  0
 13 12  2  0
 14 15  2  0
 14 13  1  0
 15 16  1  0
 16 17  1  0
 16 21  2  0
 17 18  2  0
 18 19  1  0
 20 19  2  0
 21 20  1  0
  1 22  1  0
  2 23  1  0
  5 24  1  0
  8 25  1  0
  8 26  1  0
  9 27  1  0
  9 28  1  0
 10 29  1  0
 10 30  1  0
 11 31  1  6
 14 32  1  0
 17 33  1  0
 18 34  1  0
 19 35  1  0
 20 36  1  0
M  ISO  8  22  14  23  14  24  14  25  13  26  13  27  13  28  13  29  13
M  ISO  7  30  13  31  13  32  14  33  14  34  14  35  14  36  14
M  END
>  <minimizedAffinity>  (1) 
-4.81415033

>  <minimizedRMSD>  (1) 
2.69563937

$$$$
