
     RDKit          3D

 38 41  0  0  1  0  0  0  0  0999 V2000
   38.6300   31.6380   40.8790 C   0  0  0  0  0  0  0  0  0  0  0  0
   38.8300   30.3520   41.4130 C   0  0  0  0  0  0  0  0  0  0  0  0
   37.7280   29.5430   41.6630 C   0  0  0  0  0  0  0  0  0  0  0  0
   36.5320   30.0790   41.3610 N   0  0  0  0  0  0  0  0  0  0  0  0
   36.3310   31.2970   40.8550 C   0  0  0  0  0  0  0  0  0  0  0  0
   37.3900   32.0840   40.6110 N   0  0  0  0  0  0  0  0  0  0  0  0
   37.7760   28.2330   42.1910 N   0  0  0  0  0  0  0  0  0  0  0  0
   38.3380   27.8030   43.4520 C   0  0  0  0  0  0  0  0  0  0  0  0
   38.6990   26.3550   43.1920 C   0  0  0  0  0  0  0  0  0  0  0  0
   37.5650   25.9010   42.3400 C   0  0  0  0  0  0  0  0  0  0  0  0
   37.2320   27.1040   41.5000 C   0  0  2  0  0  0  0  0  0  0  0  0
   37.8670   26.9870   40.1850 C   0  0  0  0  0  0  0  0  0  0  0  0
   39.1870   26.6320   40.0000 C   0  0  0  0  0  0  0  0  0  0  0  0
   39.8140   26.5070   38.7750 C   0  0  0  0  0  0  0  0  0  0  0  0
   39.0860   26.7500   37.6320 C   0  0  0  0  0  0  0  0  0  0  0  0
   37.7740   27.1050   37.7420 C   0  0  0  0  0  0  0  0  0  0  0  0
   37.0730   27.3400   36.5770 C   0  0  0  0  0  0  0  0  0  0  0  0
   35.7420   27.7010   36.6230 C   0  0  0  0  0  0  0  0  0  0  0  0
   35.1400   27.8180   37.8570 C   0  0  0  0  0  0  0  0  0  0  0  0
   35.8770   27.5750   38.9970 C   0  0  0  0  0  0  0  0  0  0  0  0
   37.2070   27.2140   38.9750 C   0  0  0  0  0  0  0  0  0  0  0  0
   39.4966   32.2852   40.6787 H   0  0  0  0  0  0  0  0  0  0  0  0
   39.8462   29.9912   41.6300 H   0  0  0  0  0  0  0  0  0  0  0  0
   35.3117   31.6510   40.6409 H   0  0  0  0  0  0  0  0  0  0  0  0
   39.2307   28.3926   43.7079 H   0  0  0  0  0  0  0  0  0  0  0  0
   37.6477   27.9309   44.2988 H   0  0  0  0  0  0  0  0  0  0  0  0
   39.6576   26.2716   42.6590 H   0  0  0  0  0  0  0  0  0  0  0  0
   38.8317   25.7599   44.1075 H   0  0  0  0  0  0  0  0  0  0  0  0
   37.8673   25.0541   41.7065 H   0  0  0  0  0  0  0  0  0  0  0  0
   36.7072   25.5489   42.9317 H   0  0  0  0  0  0  0  0  0  0  0  0
   36.1465   27.1990   41.3495 H   0  0  0  0  0  0  0  0  0  0  0  0
   39.7884   26.4325   40.8992 H   0  0  0  0  0  0  0  0  0  0  0  0
   40.8739   26.2190   38.7142 H   0  0  0  0  0  0  0  0  0  0  0  0
   39.5570   26.6589   36.6421 H   0  0  0  0  0  0  0  0  0  0  0  0
   37.5785   27.2389   35.6053 H   0  0  0  0  0  0  0  0  0  0  0  0
   35.1763   27.8904   35.6988 H   0  0  0  0  0  0  0  0  0  0  0  0
   34.0802   28.1029   37.9321 H   0  0  0  0  0  0  0  0  0  0  0  0
   35.3785   27.6742   39.9725 H   0  0  0  0  0  0  0  0  0  0  0  0
  1  2  2  0
  2  3  1  0
  3  7  1  0
  4  3  2  0
  5  4  1  0
  6  5  2  0
  6  1  1  0
  7  8  1  0
  9  8  1  0
 10  9  1  0
 11  7  1  0
 11 10  1  0
 12 11  1  0
 13 12  2  0
 14 13  1  0
 15 16  1  0
 15 14  2  0
 16 21  2  0
 17 18  2  0
 17 16  1  0
 18 19  1  0
 19 20  2  0
 21 20  1  0
 21 12  1  0
  1 22  1  0
  2 23  1  0
  5 24  1  0
  8 25  1  0
  8 26  1  0
  9 27  1  0
  9 28  1  0
 10 29  1  0
 10 30  1  0
 11 31  1  6
 13 32  1  0
 14 33  1  0
 15 34  1  0
 17 35  1  0
 18 36  1  0
 19 37  1  0
 20 38  1  0
M  ISO  8  22  14  23  14  24  14  25  13  26  13  27  13  28  13  29  13
M  ISO  8  30  13  31  13  32  14  33  14  34  14  35  14  36  14  37  14
M  ISO  1  38  14
M  END
>  <minimizedAffinity>  (1) 
-4.77694654

>  <minimizedRMSD>  (1) 
1.8745749

$$$$
