
     RDKit          3D

 44 47  0  0  1  0  0  0  0  0999 V2000
   40.0280   32.1570   41.1560 C   0  0  0  0  0  0  0  0  0  0  0  0
   39.6190   30.8900   41.6290 C   0  0  0  0  0  0  0  0  0  0  0  0
   38.3010   30.5420   41.4790 C   0  0  0  0  0  0  0  0  0  0  0  0
   37.4270   31.4170   40.8820 N   0  0  0  0  0  0  0  0  0  0  0  0
   37.8470   32.6280   40.4360 C   0  0  0  0  0  0  0  0  0  0  0  0
   39.1500   33.0010   40.5720 N   0  0  0  0  0  0  0  0  0  0  0  0
   36.9240   33.5090   39.8260 N   0  0  0  0  0  0  0  0  0  0  0  0
   37.8120   29.2890   41.9270 N   0  0  0  0  0  0  0  0  0  0  0  0
   37.9330   28.9280   43.3140 C   0  0  0  0  0  0  0  0  0  0  0  0
   36.8480   27.8790   43.5920 C   0  0  0  0  0  0  0  0  0  0  0  0
   36.9360   26.7280   42.7550 N   0  0  0  0  0  0  0  0  0  0  0  0
   37.4870   26.9650   41.4600 C   0  0  0  0  0  0  0  0  0  0  0  0
   37.1900   28.3680   41.0010 C   0  0  2  0  0  0  0  0  0  0  0  0
   37.5360   28.5970   39.5840 C   0  0  0  0  0  0  0  0  0  0  0  0
   36.5500   29.0420   38.6940 C   0  0  0  0  0  0  0  0  0  0  0  0
   36.7720   29.2810   37.3690 C   0  0  0  0  0  0  0  0  0  0  0  0
   38.0390   29.0570   36.9550 N   0  0  0  0  0  0  0  0  0  0  0  0
   39.0050   28.6310   37.7900 C   0  0  0  0  0  0  0  0  0  0  0  0
   38.7860   28.3910   39.1120 N   0  0  0  0  0  0  0  0  0  0  0  0
   40.3420   28.4200   37.2430 C   0  0  0  0  0  0  0  0  0  0  0  0
   41.2600   29.4080   37.0640 C   0  0  0  0  0  0  0  0  0  0  0  0
   42.5040   29.1320   36.5410 C   0  0  0  0  0  0  0  0  0  0  0  0
   42.8320   27.8410   36.1920 C   0  0  0  0  0  0  0  0  0  0  0  0
   41.9420   26.7870   36.3500 C   0  0  0  0  0  0  0  0  0  0  0  0
   40.6930   27.1200   36.8840 C   0  0  0  0  0  0  0  0  0  0  0  0
   41.0794   32.4612   41.2652 H   0  0  0  0  0  0  0  0  0  0  0  0
   40.3360   30.2036   42.1032 H   0  0  0  0  0  0  0  0  0  0  0  0
   35.9379   33.2303   39.7215 H   0  0  0  0  0  0  0  0  0  0  0  0
   37.2378   34.4293   39.4863 H   0  0  0  0  0  0  0  0  0  0  0  0
   38.9291   28.5045   43.5102 H   0  0  0  0  0  0  0  0  0  0  0  0
   37.8101   29.8068   43.9641 H   0  0  0  0  0  0  0  0  0  0  0  0
   36.9386   27.5547   44.6392 H   0  0  0  0  0  0  0  0  0  0  0  0
   35.8789   28.3555   43.3827 H   0  0  0  0  0  0  0  0  0  0  0  0
   37.5266   26.0312   43.2309 H   0  0  0  0  0  0  0  0  0  0  0  0
   38.5769   26.8218   41.5001 H   0  0  0  0  0  0  0  0  0  0  0  0
   37.0338   26.2582   40.7493 H   0  0  0  0  0  0  0  0  0  0  0  0
   36.1044   28.5444   41.0196 H   0  0  0  0  0  0  0  0  0  0  0  0
   35.5361   29.2088   39.0867 H   0  0  0  0  0  0  0  0  0  0  0  0
   35.9802   29.6294   36.6896 H   0  0  0  0  0  0  0  0  0  0  0  0
   41.0052   30.4417   37.3408 H   0  0  0  0  0  0  0  0  0  0  0  0
   43.2349   29.9423   36.4022 H   0  0  0  0  0  0  0  0  0  0  0  0
   43.8297   27.6385   35.7753 H   0  0  0  0  0  0  0  0  0  0  0  0
   42.2029   25.7550   36.0726 H   0  0  0  0  0  0  0  0  0  0  0  0
   39.9533   26.3185   37.0273 H   0  0  0  0  0  0  0  0  0  0  0  0
  1  2  2  0
  3  2  1  0
  3  8  1  0
  4  3  2  0
  5  6  2  0
  5  4  1  0
  6  1  1  0
  7  5  1  0
  8  9  1  0
  9 10  1  0
 11 10  1  0
 12 11  1  0
 13 12  1  0
 13  8  1  0
 14 13  1  0
 15 14  2  0
 16 15  1  0
 17 16  2  0
 17 18  1  0
 18 19  2  0
 19 14  1  0
 20 18  1  0
 21 20  2  0
 22 21  1  0
 23 24  1  0
 23 22  2  0
 24 25  2  0
 25 20  1  0
  1 26  1  0
  2 27  1  0
  7 28  1  0
  7 29  1  0
  9 30  1  0
  9 31  1  0
 10 32  1  0
 10 33  1  0
 11 34  1  0
 12 35  1  0
 12 36  1  0
 13 37  1  6
 15 38  1  0
 16 39  1  0
 21 40  1  0
 22 41  1  0
 23 42  1  0
 24 43  1  0
 25 44  1  0
M  ISO  8  26  14  27  14  30  13  31  13  32  13  33  13  34   5  35  13
M  ISO  8  36  13  37  13  38  14  39  14  40  14  41  14  42  14  43  14
M  ISO  1  44  14
M  END
>  <minimizedAffinity>  (1) 
-5.9713912

>  <minimizedRMSD>  (1) 
1.36976278

$$$$
