
     RDKit          3D

 30 32  0  0  1  0  0  0  0  0999 V2000
   36.6650   30.6560   41.2300 C   0  0  0  0  0  0  0  0  0  0  0  0
   37.5510   29.8180   41.9300 C   0  0  0  0  0  0  0  0  0  0  0  0
   37.3420   28.4260   41.8530 C   0  0  0  0  0  0  0  0  0  0  0  0
   36.3040   27.9960   41.1090 N   0  0  0  0  0  0  0  0  0  0  0  0
   35.4760   28.8330   40.4510 C   0  0  0  0  0  0  0  0  0  0  0  0
   35.6580   30.1620   40.5130 N   0  0  0  0  0  0  0  0  0  0  0  0
   38.1670   27.4700   42.5150 N   0  0  0  0  0  0  0  0  0  0  0  0
   38.4180   27.3380   43.9230 C   0  0  0  0  0  0  0  0  0  0  0  0
   39.7650   26.6370   43.9620 C   0  0  0  0  0  0  0  0  0  0  0  0
   39.6250   25.6620   42.8300 C   0  0  0  0  0  0  0  0  0  0  0  0
   38.8910   26.4580   41.7850 C   0  0  1  0  0  0  0  0  0  0  0  0
   38.0080   25.6140   40.9530 C   0  0  0  0  0  0  0  0  0  0  0  0
   37.0980   24.7190   41.5270 C   0  0  0  0  0  0  0  0  0  0  0  0
   36.2480   23.9050   40.8320 C   0  0  0  0  0  0  0  0  0  0  0  0
   36.3110   23.9890   39.4780 N   0  0  0  0  0  0  0  0  0  0  0  0
   37.1700   24.8340   38.8830 C   0  0  0  0  0  0  0  0  0  0  0  0
   38.0070   25.6360   39.6060 N   0  0  0  0  0  0  0  0  0  0  0  0
   36.8074   31.7458   41.2760 H   0  0  0  0  0  0  0  0  0  0  0  0
   38.3809   30.2354   42.5190 H   0  0  0  0  0  0  0  0  0  0  0  0
   34.6446   28.4235   39.8585 H   0  0  0  0  0  0  0  0  0  0  0  0
   38.4700   28.3230   44.4100 H   0  0  0  0  0  0  0  0  0  0  0  0
   37.6271   26.7902   44.4563 H   0  0  0  0  0  0  0  0  0  0  0  0
   40.5907   27.3421   43.7857 H   0  0  0  0  0  0  0  0  0  0  0  0
   40.0012   26.1709   44.9300 H   0  0  0  0  0  0  0  0  0  0  0  0
   40.6102   25.3400   42.4617 H   0  0  0  0  0  0  0  0  0  0  0  0
   39.1021   24.7377   43.1168 H   0  0  0  0  0  0  0  0  0  0  0  0
   39.5851   26.9104   41.0614 H   0  0  0  0  0  0  0  0  0  0  0  0
   37.0641   24.6664   42.6252 H   0  0  0  0  0  0  0  0  0  0  0  0
   35.5526   23.2209   41.3403 H   0  0  0  0  0  0  0  0  0  0  0  0
   37.2000   24.8812   37.7844 H   0  0  0  0  0  0  0  0  0  0  0  0
  1  2  2  0
  3  2  1  0
  3  7  1  0
  4  3  2  0
  5  6  2  0
  5  4  1  0
  6  1  1  0
  7  8  1  0
  8  9  1  0
 10  9  1  0
 11  7  1  0
 11 10  1  0
 12 13  2  0
 12 11  1  0
 14 13  1  0
 15 14  2  0
 16 15  1  0
 16 17  2  0
 17 12  1  0
  1 18  1  0
  2 19  1  0
  5 20  1  0
  8 21  1  0
  8 22  1  0
  9 23  1  0
  9 24  1  0
 10 25  1  0
 10 26  1  0
 11 27  1  6
 13 28  1  0
 14 29  1  0
 16 30  1  0
M  ISO  8  18  14  19  14  20  14  21  13  22  13  23  13  24  13  25  13
M  ISO  5  26  13  27  13  28  14  29  14  30  14
M  END
>  <minimizedAffinity>  (1) 
-4.69075489

>  <minimizedRMSD>  (1) 
0.894563615

$$$$
