
     RDKit          3D

 35 37  0  0  1  0  0  0  0  0999 V2000
   36.8330   30.8580   41.0830 C   0  0  0  0  0  0  0  0  0  0  0  0
   37.6530   29.9600   41.7860 C   0  0  0  0  0  0  0  0  0  0  0  0
   37.2470   28.6070   41.8360 C   0  0  0  0  0  0  0  0  0  0  0  0
   36.1040   28.2680   41.2090 N   0  0  0  0  0  0  0  0  0  0  0  0
   35.3440   29.1620   40.5440 C   0  0  0  0  0  0  0  0  0  0  0  0
   35.7170   30.4690   40.4850 N   0  0  0  0  0  0  0  0  0  0  0  0
   37.9770   27.5940   42.5100 N   0  0  0  0  0  0  0  0  0  0  0  0
   38.3110   27.5390   43.9270 C   0  0  0  0  0  0  0  0  0  0  0  0
   39.5750   26.6880   43.9440 C   0  0  0  0  0  0  0  0  0  0  0  0
   39.2210   25.6450   42.9010 C   0  0  0  0  0  0  0  0  0  0  0  0
   38.5040   26.4480   41.8640 C   0  0  1  0  0  0  0  0  0  0  0  0
   37.6100   25.6790   41.0520 N   0  0  0  0  0  0  0  0  0  0  0  0
   38.1020   25.6200   39.7110 C   0  0  0  0  0  0  0  0  0  0  0  0
   38.1710   24.2750   39.0830 C   0  0  0  0  0  0  0  0  0  0  0  0
   37.2850   23.3410   39.5620 O   0  0  0  0  0  0  0  0  0  0  0  0
   37.6250   23.2010   40.9280 C   0  0  0  0  0  0  0  0  0  0  0  0
   37.1610   24.4460   41.6010 C   0  0  0  0  0  0  0  0  0  0  0  0
   37.1266   31.9166   41.0274 H   0  0  0  0  0  0  0  0  0  0  0  0
   38.5766   30.2971   42.2792 H   0  0  0  0  0  0  0  0  0  0  0  0
   34.4191   28.8331   40.0475 H   0  0  0  0  0  0  0  0  0  0  0  0
   38.5053   28.5449   44.3275 H   0  0  0  0  0  0  0  0  0  0  0  0
   37.5019   27.1289   44.5492 H   0  0  0  0  0  0  0  0  0  0  0  0
   40.4607   27.2708   43.6510 H   0  0  0  0  0  0  0  0  0  0  0  0
   39.8383   26.2785   44.9304 H   0  0  0  0  0  0  0  0  0  0  0  0
   40.1254   25.1770   42.4851 H   0  0  0  0  0  0  0  0  0  0  0  0
   38.6219   24.8135   43.3007 H   0  0  0  0  0  0  0  0  0  0  0  0
   39.1948   26.8032   41.0851 H   0  0  0  0  0  0  0  0  0  0  0  0
   37.4460   26.2454   39.0877 H   0  0  0  0  0  0  0  0  0  0  0  0
   39.1450   25.9645   39.7708 H   0  0  0  0  0  0  0  0  0  0  0  0
   39.1877   23.8839   39.2358 H   0  0  0  0  0  0  0  0  0  0  0  0
   37.9010   24.4262   38.0274 H   0  0  0  0  0  0  0  0  0  0  0  0
   37.1201   22.3238   41.3587 H   0  0  0  0  0  0  0  0  0  0  0  0
   38.7072   23.0539   41.0588 H   0  0  0  0  0  0  0  0  0  0  0  0
   37.4997   24.4047   42.6467 H   0  0  0  0  0  0  0  0  0  0  0  0
   36.0689   24.4537   41.4692 H   0  0  0  0  0  0  0  0  0  0  0  0
  1  2  2  0
  2  3  1  0
  3  7  1  0
  4  3  2  0
  5  4  1  0
  6  5  2  0
  6  1  1  0
  7  8  1  0
  8  9  1  0
 10  9  1  0
 11  7  1  0
 11 10  1  0
 12 17  1  0
 12 11  1  0
 13 12  1  0
 14 15  1  0
 14 13  1  0
 15 16  1  0
 16 17  1  0
  1 18  1  0
  2 19  1  0
  5 20  1  0
  8 21  1  0
  8 22  1  0
  9 23  1  0
  9 24  1  0
 10 25  1  0
 10 26  1  0
 11 27  1  6
 13 28  1  0
 13 29  1  0
 14 30  1  0
 14 31  1  0
 16 32  1  0
 16 33  1  0
 17 34  1  0
 17 35  1  0
M  ISO  8  18  14  19  14  20  14  21  13  22  13  23  13  24  13  25  13
M  ISO  8  26  13  27  13  28  13  29  13  30  13  31  13  32  13  33  13
M  ISO  2  34  13  35  13
M  END
>  <minimizedAffinity>  (1) 
-4.64947271

>  <minimizedRMSD>  (1) 
0.73884958

$$$$
