
     RDKit          3D

 29 31  0  0  1  0  0  0  0  0999 V2000
   36.7380   30.6830   41.2060 C   0  0  0  0  0  0  0  0  0  0  0  0
   37.6450   29.8430   41.9090 C   0  0  0  0  0  0  0  0  0  0  0  0
   37.3330   28.4640   41.8790 C   0  0  0  0  0  0  0  0  0  0  0  0
   36.2370   28.0460   41.2120 N   0  0  0  0  0  0  0  0  0  0  0  0
   35.4160   28.8940   40.5650 C   0  0  0  0  0  0  0  0  0  0  0  0
   35.6700   30.2100   40.5640 N   0  0  0  0  0  0  0  0  0  0  0  0
   38.1580   27.4890   42.5370 N   0  0  0  0  0  0  0  0  0  0  0  0
   38.4810   27.3820   43.9270 C   0  0  0  0  0  0  0  0  0  0  0  0
   39.7470   26.5920   43.9550 C   0  0  0  0  0  0  0  0  0  0  0  0
   39.5830   25.6430   42.8060 C   0  0  0  0  0  0  0  0  0  0  0  0
   38.7990   26.4270   41.7990 C   0  0  1  0  0  0  0  0  0  0  0  0
   37.8440   25.5240   41.1580 N   0  0  0  0  0  0  0  0  0  0  0  0
   37.6200   25.3660   39.8430 C   0  0  0  0  0  0  0  0  0  0  0  0
   36.6390   24.4160   39.6520 C   0  0  0  0  0  0  0  0  0  0  0  0
   36.2830   24.0100   40.9060 N   0  0  0  0  0  0  0  0  0  0  0  0
   37.0090   24.6760   41.8260 C   0  0  0  0  0  0  0  0  0  0  0  0
   36.9254   31.7668   41.1915 H   0  0  0  0  0  0  0  0  0  0  0  0
   38.5253   30.2373   42.4377 H   0  0  0  0  0  0  0  0  0  0  0  0
   34.5336   28.5056   40.0353 H   0  0  0  0  0  0  0  0  0  0  0  0
   38.6339   28.3777   44.3687 H   0  0  0  0  0  0  0  0  0  0  0  0
   37.6774   26.9064   44.5084 H   0  0  0  0  0  0  0  0  0  0  0  0
   40.6215   27.2427   43.8076 H   0  0  0  0  0  0  0  0  0  0  0  0
   39.9168   26.0825   44.9150 H   0  0  0  0  0  0  0  0  0  0  0  0
   40.5616   25.3500   42.3979 H   0  0  0  0  0  0  0  0  0  0  0  0
   39.0831   24.7074   43.0971 H   0  0  0  0  0  0  0  0  0  0  0  0
   39.4153   26.8622   40.9985 H   0  0  0  0  0  0  0  0  0  0  0  0
   38.1396   25.9111   39.0412 H   0  0  0  0  0  0  0  0  0  0  0  0
   36.2306   24.0612   38.6942 H   0  0  0  0  0  0  0  0  0  0  0  0
   36.9408   24.5575   42.9175 H   0  0  0  0  0  0  0  0  0  0  0  0
  1  2  2  0
  3  2  1  0
  3  7  1  0
  4  3  2  0
  5  4  1  0
  6  5  2  0
  6  1  1  0
  7  8  1  0
  8  9  1  0
 10  9  1  0
 11  7  1  0
 11 10  1  0
 12 11  1  0
 12 16  1  0
 13 12  1  0
 14 13  2  0
 14 15  1  0
 15 16  2  0
  1 17  1  0
  2 18  1  0
  5 19  1  0
  8 20  1  0
  8 21  1  0
  9 22  1  0
  9 23  1  0
 10 24  1  0
 10 25  1  0
 11 26  1  6
 13 27  1  0
 14 28  1  0
 16 29  1  0
M  ISO  8  17  14  18  14  19  14  20  13  21  13  22  13  23  13  24  13
M  ISO  5  25  13  26  13  27  14  28  14  29  14
M  END
>  <minimizedAffinity>  (1) 
-4.57489967

>  <minimizedRMSD>  (1) 
0.480105937

$$$$
