
     RDKit          3D

 28 30  0  0  1  0  0  0  0  0999 V2000
   36.7360   30.7220   41.2270 C   0  0  0  0  0  0  0  0  0  0  0  0
   37.6060   29.8480   41.8900 C   0  0  0  0  0  0  0  0  0  0  0  0
   37.3410   28.4810   41.8460 C   0  0  0  0  0  0  0  0  0  0  0  0
   36.2380   28.0600   41.1530 N   0  0  0  0  0  0  0  0  0  0  0  0
   35.4230   28.9300   40.5270 C   0  0  0  0  0  0  0  0  0  0  0  0
   35.6740   30.2650   40.5660 N   0  0  0  0  0  0  0  0  0  0  0  0
   38.1480   27.4790   42.4820 N   0  0  0  0  0  0  0  0  0  0  0  0
   38.4180   27.3760   43.9060 C   0  0  0  0  0  0  0  0  0  0  0  0
   39.7260   26.6090   43.9300 C   0  0  0  0  0  0  0  0  0  0  0  0
   39.5250   25.6260   42.8070 C   0  0  0  0  0  0  0  0  0  0  0  0
   38.7940   26.4400   41.7600 C   0  0  1  0  0  0  0  0  0  0  0  0
   37.8600   25.5470   41.1220 N   0  0  0  0  0  0  0  0  0  0  0  0
   37.0870   24.6840   41.8420 C   0  0  0  0  0  0  0  0  0  0  0  0
   36.3090   23.9690   41.0080 N   0  0  0  0  0  0  0  0  0  0  0  0
   36.6300   24.4210   39.7740 C   0  0  0  0  0  0  0  0  0  0  0  0
   37.5640   25.3710   39.8410 N   0  0  0  0  0  0  0  0  0  0  0  0
   36.9329   31.8039   41.2525 H   0  0  0  0  0  0  0  0  0  0  0  0
   38.4809   30.2328   42.4345 H   0  0  0  0  0  0  0  0  0  0  0  0
   34.5455   28.5565   39.9787 H   0  0  0  0  0  0  0  0  0  0  0  0
   38.5302   28.3700   44.3635 H   0  0  0  0  0  0  0  0  0  0  0  0
   37.6110   26.8902   44.4742 H   0  0  0  0  0  0  0  0  0  0  0  0
   40.5825   27.2710   43.7348 H   0  0  0  0  0  0  0  0  0  0  0  0
   39.9503   26.1396   44.8992 H   0  0  0  0  0  0  0  0  0  0  0  0
   40.4899   25.2642   42.4223 H   0  0  0  0  0  0  0  0  0  0  0  0
   38.9733   24.7258   43.1157 H   0  0  0  0  0  0  0  0  0  0  0  0
   39.4332   26.8789   40.9798 H   0  0  0  0  0  0  0  0  0  0  0  0
   37.0978   24.5871   42.9377 H   0  0  0  0  0  0  0  0  0  0  0  0
   36.1805   24.0539   38.8395 H   0  0  0  0  0  0  0  0  0  0  0  0
  1  2  2  0
  3  2  1  0
  3  7  1  0
  4  3  2  0
  5  6  2  0
  5  4  1  0
  6  1  1  0
  7  8  1  0
  8  9  1  0
 10  9  1  0
 11  7  1  0
 11 10  1  0
 12 11  1  0
 12 13  1  0
 14 13  2  0
 15 16  2  0
 15 14  1  0
 16 12  1  0
  1 17  1  0
  2 18  1  0
  5 19  1  0
  8 20  1  0
  8 21  1  0
  9 22  1  0
  9 23  1  0
 10 24  1  0
 10 25  1  0
 11 26  1  6
 13 27  1  0
 15 28  1  0
M  ISO  8  17  14  18  14  19  14  20  13  21  13  22  13  23  13  24  13
M  ISO  4  25  13  26  13  27  14  28  14
M  END
>  <minimizedAffinity>  (1) 
-4.56536961

>  <minimizedRMSD>  (1) 
0.252014548

$$$$
