
     RDKit          3D

 28 30  0  0  1  0  0  0  0  0999 V2000
   36.9390   30.7470   41.0880 C   0  0  0  0  0  0  0  0  0  0  0  0
   37.7560   29.8260   41.7560 C   0  0  0  0  0  0  0  0  0  0  0  0
   37.3500   28.4990   41.8630 C   0  0  0  0  0  0  0  0  0  0  0  0
   36.1590   28.1710   41.3000 N   0  0  0  0  0  0  0  0  0  0  0  0
   35.3810   29.0660   40.6580 C   0  0  0  0  0  0  0  0  0  0  0  0
   35.7770   30.3650   40.5520 N   0  0  0  0  0  0  0  0  0  0  0  0
   38.0830   27.4770   42.5130 N   0  0  0  0  0  0  0  0  0  0  0  0
   38.4960   27.4340   43.8910 C   0  0  0  0  0  0  0  0  0  0  0  0
   39.6510   26.4870   43.9130 C   0  0  0  0  0  0  0  0  0  0  0  0
   39.3160   25.4990   42.8310 C   0  0  0  0  0  0  0  0  0  0  0  0
   38.5280   26.2910   41.8400 C   0  0  2  0  0  0  0  0  0  0  0  0
   39.4280   26.6480   40.6860 C   0  0  0  0  0  0  0  0  0  0  0  0
   39.0080   26.2770   39.4100 C   0  0  0  0  0  0  0  0  0  0  0  0
   40.4160   26.9280   38.3940 S   0  0  0  0  0  0  0  0  0  0  0  0
   41.3110   27.5860   39.9260 C   0  0  0  0  0  0  0  0  0  0  0  0
   40.5640   27.2880   40.8870 N   0  0  0  0  0  0  0  0  0  0  0  0
   37.2580   31.7964   41.0040 H   0  0  0  0  0  0  0  0  0  0  0  0
   38.7122   30.1494   42.1932 H   0  0  0  0  0  0  0  0  0  0  0  0
   34.4244   28.7463   40.2189 H   0  0  0  0  0  0  0  0  0  0  0  0
   38.8064   28.4320   44.2340 H   0  0  0  0  0  0  0  0  0  0  0  0
   37.6828   27.1132   44.5587 H   0  0  0  0  0  0  0  0  0  0  0  0
   40.5926   27.0101   43.6898 H   0  0  0  0  0  0  0  0  0  0  0  0
   39.7978   26.0134   44.8949 H   0  0  0  0  0  0  0  0  0  0  0  0
   40.2318   25.0995   42.3709 H   0  0  0  0  0  0  0  0  0  0  0  0
   38.7598   24.6301   43.2125 H   0  0  0  0  0  0  0  0  0  0  0  0
   37.6667   25.7271   41.4524 H   0  0  0  0  0  0  0  0  0  0  0  0
   38.0973   25.7470   39.0943 H   0  0  0  0  0  0  0  0  0  0  0  0
   42.2752   28.1141   39.9645 H   0  0  0  0  0  0  0  0  0  0  0  0
  1  2  2  0
  2  3  1  0
  3  7  1  0
  4  3  2  0
  5  4  1  0
  6  5  2  0
  6  1  1  0
  7  8  1  0
  8  9  1  0
 10  9  1  0
 11  7  1  0
 11 10  1  0
 12 16  1  0
 12 11  1  0
 13 12  2  0
 14 13  1  0
 14 15  1  0
 15 16  2  0
  1 17  1  0
  2 18  1  0
  5 19  1  0
  8 20  1  0
  8 21  1  0
  9 22  1  0
  9 23  1  0
 10 24  1  0
 10 25  1  0
 11 26  1  6
 13 27  1  0
 15 28  1  0
M  ISO  8  17  14  18  14  19  14  20  13  21  13  22  13  23  13  24  13
M  ISO  4  25  13  26  13  27  14  28  14
M  END
>  <minimizedAffinity>  (1) 
-4.00322104

>  <minimizedRMSD>  (1) 
0.691059768

$$$$
