
     RDKit          3D

 29 31  0  0  1  0  0  0  0  0999 V2000
   36.7730   30.7380   41.1670 C   0  0  0  0  0  0  0  0  0  0  0  0
   37.6610   29.8680   41.8530 C   0  0  0  0  0  0  0  0  0  0  0  0
   37.3070   28.5180   41.8730 C   0  0  0  0  0  0  0  0  0  0  0  0
   36.1550   28.1510   41.2420 N   0  0  0  0  0  0  0  0  0  0  0  0
   35.3470   29.0060   40.6070 C   0  0  0  0  0  0  0  0  0  0  0  0
   35.6600   30.3100   40.5690 N   0  0  0  0  0  0  0  0  0  0  0  0
   38.0700   27.4980   42.5100 N   0  0  0  0  0  0  0  0  0  0  0  0
   38.4220   27.4080   43.9160 C   0  0  0  0  0  0  0  0  0  0  0  0
   39.6780   26.5750   43.9140 C   0  0  0  0  0  0  0  0  0  0  0  0
   39.3960   25.5900   42.8280 C   0  0  0  0  0  0  0  0  0  0  0  0
   38.6130   26.3800   41.8140 C   0  0  2  0  0  0  0  0  0  0  0  0
   39.4460   26.7260   40.6510 C   0  0  0  0  0  0  0  0  0  0  0  0
   39.3750   26.2900   39.3560 C   0  0  0  0  0  0  0  0  0  0  0  0
   40.3740   26.8970   38.6220 C   0  0  0  0  0  0  0  0  0  0  0  0
   41.0320   27.6990   39.5250 C   0  0  0  0  0  0  0  0  0  0  0  0
   40.4670   27.5790   40.7010 O   0  0  0  0  0  0  0  0  0  0  0  0
   37.0131   31.8107   41.1269 H   0  0  0  0  0  0  0  0  0  0  0  0
   38.5754   30.2367   42.3407 H   0  0  0  0  0  0  0  0  0  0  0  0
   34.4309   28.6425   40.1185 H   0  0  0  0  0  0  0  0  0  0  0  0
   38.6131   28.4058   44.3377 H   0  0  0  0  0  0  0  0  0  0  0  0
   37.6206   26.9717   44.5303 H   0  0  0  0  0  0  0  0  0  0  0  0
   40.5623   27.1859   43.6797 H   0  0  0  0  0  0  0  0  0  0  0  0
   39.9039   26.1112   44.8855 H   0  0  0  0  0  0  0  0  0  0  0  0
   40.3317   25.2115   42.3908 H   0  0  0  0  0  0  0  0  0  0  0  0
   38.8499   24.7062   43.1895 H   0  0  0  0  0  0  0  0  0  0  0  0
   37.7866   25.7997   41.3778 H   0  0  0  0  0  0  0  0  0  0  0  0
   38.6403   25.5717   38.9632 H   0  0  0  0  0  0  0  0  0  0  0  0
   40.5949   26.7679   37.5522 H   0  0  0  0  0  0  0  0  0  0  0  0
   41.8961   28.3400   39.2960 H   0  0  0  0  0  0  0  0  0  0  0  0
  1  2  2  0
  2  3  1  0
  3  7  1  0
  4  3  2  0
  5  4  1  0
  6  5  2  0
  6  1  1  0
  7  8  1  0
  9  8  1  0
 10  9  1  0
 11  7  1  0
 11 10  1  0
 12 16  1  0
 12 11  1  0
 13 12  2  0
 14 13  1  0
 14 15  2  0
 15 16  1  0
  1 17  1  0
  2 18  1  0
  5 19  1  0
  8 20  1  0
  8 21  1  0
  9 22  1  0
  9 23  1  0
 10 24  1  0
 10 25  1  0
 11 26  1  6
 13 27  1  0
 14 28  1  0
 15 29  1  0
M  ISO  8  17  14  18  14  19  14  20  13  21  13  22  13  23  13  24  13
M  ISO  5  25  13  26  13  27  14  28  14  29  14
M  END
>  <minimizedAffinity>  (1) 
-3.99037004

>  <minimizedRMSD>  (1) 
0.0708184391

$$$$
