
     RDKit          3D

 41 44  0  0  1  0  0  0  0  0999 V2000
   40.0250   32.1760   41.1330 C   0  0  0  0  0  0  0  0  0  0  0  0
   39.6290   30.8970   41.6030 C   0  0  0  0  0  0  0  0  0  0  0  0
   38.3100   30.5480   41.4650 C   0  0  0  0  0  0  0  0  0  0  0  0
   37.4340   31.4370   40.8820 N   0  0  0  0  0  0  0  0  0  0  0  0
   37.8470   32.6480   40.4450 C   0  0  0  0  0  0  0  0  0  0  0  0
   39.1540   33.0170   40.5740 N   0  0  0  0  0  0  0  0  0  0  0  0
   36.8960   33.5310   39.8500 N   0  0  0  0  0  0  0  0  0  0  0  0
   37.8180   29.3050   41.8980 N   0  0  0  0  0  0  0  0  0  0  0  0
   37.9310   28.9370   43.2880 C   0  0  0  0  0  0  0  0  0  0  0  0
   36.8650   27.8600   43.5590 C   0  0  0  0  0  0  0  0  0  0  0  0
   36.9600   26.7200   42.7110 N   0  0  0  0  0  0  0  0  0  0  0  0
   37.5020   26.9760   41.4160 C   0  0  0  0  0  0  0  0  0  0  0  0
   37.1990   28.3810   40.9720 C   0  0  2  0  0  0  0  0  0  0  0  0
   37.5190   28.6240   39.5560 C   0  0  0  0  0  0  0  0  0  0  0  0
   36.5490   29.0660   38.6680 C   0  0  0  0  0  0  0  0  0  0  0  0
   36.7600   29.3140   37.3450 C   0  0  0  0  0  0  0  0  0  0  0  0
   38.0160   29.1010   36.9170 N   0  0  0  0  0  0  0  0  0  0  0  0
   38.9920   28.6710   37.7510 C   0  0  0  0  0  0  0  0  0  0  0  0
   38.7760   28.4250   39.0720 N   0  0  0  0  0  0  0  0  0  0  0  0
   40.3030   28.4650   37.2350 N   0  0  0  0  0  0  0  0  0  0  0  0
   41.2900   29.2630   36.8300 N   0  0  0  0  0  0  0  0  0  0  0  0
   42.3360   28.5200   36.4280 C   0  0  0  0  0  0  0  0  0  0  0  0
   41.9870   27.1850   36.5890 C   0  0  0  0  0  0  0  0  0  0  0  0
   40.6890   27.1780   37.1040 C   0  0  0  0  0  0  0  0  0  0  0  0
   41.0771   32.4815   41.2323 H   0  0  0  0  0  0  0  0  0  0  0  0
   40.3547   30.2095   42.0620 H   0  0  0  0  0  0  0  0  0  0  0  0
   35.9118   33.2416   39.7579 H   0  0  0  0  0  0  0  0  0  0  0  0
   37.1941   34.4575   39.5128 H   0  0  0  0  0  0  0  0  0  0  0  0
   38.9343   28.5345   43.4914 H   0  0  0  0  0  0  0  0  0  0  0  0
   37.7786   29.8111   43.9381 H   0  0  0  0  0  0  0  0  0  0  0  0
   36.9703   27.5246   44.6013 H   0  0  0  0  0  0  0  0  0  0  0  0
   35.8880   28.3238   43.3579 H   0  0  0  0  0  0  0  0  0  0  0  0
   37.5599   26.0242   43.1768 H   0  0  0  0  0  0  0  0  0  0  0  0
   38.5926   26.8365   41.4487 H   0  0  0  0  0  0  0  0  0  0  0  0
   37.0449   26.2765   40.7006 H   0  0  0  0  0  0  0  0  0  0  0  0
   36.1124   28.5484   41.0067 H   0  0  0  0  0  0  0  0  0  0  0  0
   35.5345   29.2282   39.0611 H   0  0  0  0  0  0  0  0  0  0  0  0
   35.9601   29.6633   36.6756 H   0  0  0  0  0  0  0  0  0  0  0  0
   43.2935   28.8999   36.0420 H   0  0  0  0  0  0  0  0  0  0  0  0
   42.6092   26.3081   36.3570 H   0  0  0  0  0  0  0  0  0  0  0  0
   40.0921   26.2891   37.3561 H   0  0  0  0  0  0  0  0  0  0  0  0
  1  2  2  0
  3  2  1  0
  3  8  1  0
  4  3  2  0
  5  6  2  0
  5  4  1  0
  6  1  1  0
  7  5  1  0
  8  9  1  0
  9 10  1  0
 11 10  1  0
 12 11  1  0
 13 12  1  0
 13  8  1  0
 14 13  1  0
 15 14  2  0
 16 15  1  0
 17 16  2  0
 17 18  1  0
 18 19  2  0
 19 14  1  0
 20 18  1  0
 21 20  1  0
 22 23  1  0
 22 21  2  0
 23 24  2  0
 24 20  1  0
  1 25  1  0
  2 26  1  0
  7 27  1  0
  7 28  1  0
  9 29  1  0
  9 30  1  0
 10 31  1  0
 10 32  1  0
 11 33  1  0
 12 34  1  0
 12 35  1  0
 13 36  1  6
 15 37  1  0
 16 38  1  0
 22 39  1  0
 23 40  1  0
 24 41  1  0
M  ISO  8  25  14  26  14  29  13  30  13  31  13  32  13  33   5  34  13
M  ISO  7  35  13  36  13  37  14  38  14  39  14  40  14  41  14
M  END
>  <minimizedAffinity>  (1) 
-5.95175171

>  <minimizedRMSD>  (1) 
1.27184451

$$$$
