
     RDKit          3D

 24 25  0  0  1  0  0  0  0  0999 V2000
   36.8550   30.7550   41.1330 C   0  0  0  0  0  0  0  0  0  0  0  0
   37.6860   29.8470   41.7990 C   0  0  0  0  0  0  0  0  0  0  0  0
   37.3010   28.4960   41.8660 C   0  0  0  0  0  0  0  0  0  0  0  0
   36.1370   28.1710   41.2730 N   0  0  0  0  0  0  0  0  0  0  0  0
   35.3530   29.0530   40.6400 C   0  0  0  0  0  0  0  0  0  0  0  0
   35.7200   30.3570   40.5720 N   0  0  0  0  0  0  0  0  0  0  0  0
   38.0780   27.4900   42.5210 N   0  0  0  0  0  0  0  0  0  0  0  0
   38.4640   27.4230   43.9070 C   0  0  0  0  0  0  0  0  0  0  0  0
   39.6830   26.5470   43.8900 C   0  0  0  0  0  0  0  0  0  0  0  0
   39.3100   25.5320   42.8400 C   0  0  0  0  0  0  0  0  0  0  0  0
   38.5950   26.3600   41.8220 C   0  0  1  0  0  0  0  0  0  0  0  0
   37.6150   25.5970   41.0810 N   0  0  0  0  0  0  0  0  0  0  0  0
   37.1468   31.8139   41.0736 H   0  0  0  0  0  0  0  0  0  0  0  0
   38.6248   30.1844   42.2624 H   0  0  0  0  0  0  0  0  0  0  0  0
   34.4128   28.7205   40.1759 H   0  0  0  0  0  0  0  0  0  0  0  0
   38.7041   28.4231   44.2970 H   0  0  0  0  0  0  0  0  0  0  0  0
   37.6656   27.0331   44.5555 H   0  0  0  0  0  0  0  0  0  0  0  0
   40.5805   27.1132   43.6005 H   0  0  0  0  0  0  0  0  0  0  0  0
   39.9340   26.1092   44.8674 H   0  0  0  0  0  0  0  0  0  0  0  0
   40.2052   25.0596   42.4093 H   0  0  0  0  0  0  0  0  0  0  0  0
   38.7037   24.7018   43.2313 H   0  0  0  0  0  0  0  0  0  0  0  0
   39.2718   26.7083   41.0279 H   0  0  0  0  0  0  0  0  0  0  0  0
   36.9898   25.1102   41.7390 H   0  0  0  0  0  0  0  0  0  0  0  0
   37.0620   26.2323   40.4881 H   0  0  0  0  0  0  0  0  0  0  0  0
  1  2  2  0
  2  3  1  0
  3  7  1  0
  4  3  2  0
  5  4  1  0
  6  5  2  0
  6  1  1  0
  7  8  1  0
  9  8  1  0
 10  9  1  0
 11  7  1  0
 11 10  1  0
 12 11  1  0
  1 13  1  0
  2 14  1  0
  5 15  1  0
  8 16  1  0
  8 17  1  0
  9 18  1  0
  9 19  1  0
 10 20  1  0
 10 21  1  0
 11 22  1  6
 12 23  1  0
 12 24  1  0
M  ISO  8  13  14  14  14  15  14  16  13  17  13  18  13  19  13  20  13
M  ISO  4  21  13  22  13  23   5  24   5
M  END
>  <minimizedAffinity>  (1) 
-3.85491228

>  <minimizedRMSD>  (1) 
0.0331195593

$$$$
