
     RDKit          3D

 40 43  0  0  1  0  0  0  0  0999 V2000
   40.0120   32.1570   41.1750 C   0  0  0  0  0  0  0  0  0  0  0  0
   39.6090   30.8830   41.6500 C   0  0  0  0  0  0  0  0  0  0  0  0
   38.2920   30.5330   41.4970 C   0  0  0  0  0  0  0  0  0  0  0  0
   37.4230   31.4160   40.8960 N   0  0  0  0  0  0  0  0  0  0  0  0
   37.8320   32.6220   40.4520 C   0  0  0  0  0  0  0  0  0  0  0  0
   39.1350   33.0030   40.5890 N   0  0  0  0  0  0  0  0  0  0  0  0
   36.8900   33.4960   39.8390 N   0  0  0  0  0  0  0  0  0  0  0  0
   37.8020   29.2910   41.9370 N   0  0  0  0  0  0  0  0  0  0  0  0
   37.9000   28.9400   43.3330 C   0  0  0  0  0  0  0  0  0  0  0  0
   36.8500   27.8560   43.5980 C   0  0  0  0  0  0  0  0  0  0  0  0
   36.9760   26.7040   42.7670 N   0  0  0  0  0  0  0  0  0  0  0  0
   37.5090   26.9540   41.4670 C   0  0  0  0  0  0  0  0  0  0  0  0
   37.1980   28.3540   41.0120 C   0  0  2  0  0  0  0  0  0  0  0  0
   37.5330   28.5910   39.5950 C   0  0  0  0  0  0  0  0  0  0  0  0
   36.5480   28.9600   38.6880 C   0  0  0  0  0  0  0  0  0  0  0  0
   36.7830   29.1970   37.3540 C   0  0  0  0  0  0  0  0  0  0  0  0
   38.0560   29.0470   36.9610 N   0  0  0  0  0  0  0  0  0  0  0  0
   39.0240   28.6920   37.8160 C   0  0  0  0  0  0  0  0  0  0  0  0
   38.8030   28.4560   39.1360 N   0  0  0  0  0  0  0  0  0  0  0  0
   40.3340   28.5660   37.2760 N   0  0  0  0  0  0  0  0  0  0  0  0
   41.0140   27.5110   36.7900 C   0  0  0  0  0  0  0  0  0  0  0  0
   42.2420   27.8810   36.3860 N   0  0  0  0  0  0  0  0  0  0  0  0
   42.3240   29.2020   36.6290 C   0  0  0  0  0  0  0  0  0  0  0  0
   41.1480   29.6130   37.1740 N   0  0  0  0  0  0  0  0  0  0  0  0
   41.0624   32.4641   41.2859 H   0  0  0  0  0  0  0  0  0  0  0  0
   40.3280   30.1992   42.1248 H   0  0  0  0  0  0  0  0  0  0  0  0
   35.9073   33.2046   39.7375 H   0  0  0  0  0  0  0  0  0  0  0  0
   37.1912   34.4197   39.4970 H   0  0  0  0  0  0  0  0  0  0  0  0
   38.9057   28.5540   43.5556 H   0  0  0  0  0  0  0  0  0  0  0  0
   37.7263   29.8187   43.9715 H   0  0  0  0  0  0  0  0  0  0  0  0
   36.9412   27.5365   44.6466 H   0  0  0  0  0  0  0  0  0  0  0  0
   35.8706   28.3029   43.3721 H   0  0  0  0  0  0  0  0  0  0  0  0
   37.5957   26.0329   43.2429 H   0  0  0  0  0  0  0  0  0  0  0  0
   38.6004   26.8197   41.4947 H   0  0  0  0  0  0  0  0  0  0  0  0
   37.0494   26.2476   40.7601 H   0  0  0  0  0  0  0  0  0  0  0  0
   36.1096   28.5114   41.0370 H   0  0  0  0  0  0  0  0  0  0  0  0
   35.5182   29.0692   39.0590 H   0  0  0  0  0  0  0  0  0  0  0  0
   35.9827   29.4891   36.6582 H   0  0  0  0  0  0  0  0  0  0  0  0
   40.6191   26.4860   36.7313 H   0  0  0  0  0  0  0  0  0  0  0  0
   43.1950   29.8412   36.4218 H   0  0  0  0  0  0  0  0  0  0  0  0
  1  2  2  0
  3  2  1  0
  3  8  1  0
  4  3  2  0
  5  6  2  0
  5  4  1  0
  6  1  1  0
  7  5  1  0
  8  9  1  0
  9 10  1  0
 11 10  1  0
 12 11  1  0
 13 12  1  0
 13  8  1  0
 14 13  1  0
 15 14  2  0
 16 15  1  0
 17 16  2  0
 17 18  1  0
 18 19  2  0
 19 14  1  0
 20 18  1  0
 21 20  1  0
 22 23  1  0
 22 21  2  0
 23 24  2  0
 24 20  1  0
  1 25  1  0
  2 26  1  0
  7 27  1  0
  7 28  1  0
  9 29  1  0
  9 30  1  0
 10 31  1  0
 10 32  1  0
 11 33  1  0
 12 34  1  0
 12 35  1  0
 13 36  1  6
 15 37  1  0
 16 38  1  0
 21 39  1  0
 23 40  1  0
M  ISO  8  25  14  26  14  29  13  30  13  31  13  32  13  33   5  34  13
M  ISO  6  35  13  36  13  37  14  38  14  39  14  40  14
M  END
>  <minimizedAffinity>  (1) 
-5.93494225

>  <minimizedRMSD>  (1) 
1.33634722

$$$$
