
     RDKit          3D

 46 49  0  0  1  0  0  0  0  0999 V2000
   39.7810   31.2450   39.9400 C   0  0  0  0  0  0  0  0  0  0  0  0
   39.3470   30.1980   40.7980 C   0  0  0  0  0  0  0  0  0  0  0  0
   38.0700   30.2610   41.2850 C   0  0  0  0  0  0  0  0  0  0  0  0
   37.2670   31.3090   40.9370 N   0  0  0  0  0  0  0  0  0  0  0  0
   37.7040   32.2980   40.1160 C   0  0  0  0  0  0  0  0  0  0  0  0
   38.9580   32.2690   39.6180 N   0  0  0  0  0  0  0  0  0  0  0  0
   36.8150   33.3670   39.7910 N   0  0  0  0  0  0  0  0  0  0  0  0
   37.5620   29.2650   42.1390 N   0  0  0  0  0  0  0  0  0  0  0  0
   38.2090   29.0000   43.4040 C   0  0  0  0  0  0  0  0  0  0  0  0
   37.1580   28.3410   44.3130 C   0  0  0  0  0  0  0  0  0  0  0  0
   36.5950   27.1470   43.7670 N   0  0  0  0  0  0  0  0  0  0  0  0
   36.5270   27.1080   42.3430 C   0  0  0  0  0  0  0  0  0  0  0  0
   36.3930   28.4950   41.7720 C   0  0  2  0  0  0  0  0  0  0  0  0
   36.0860   28.5000   40.3350 C   0  0  0  0  0  0  0  0  0  0  0  0
   34.9460   29.1580   39.8560 C   0  0  0  0  0  0  0  0  0  0  0  0
   34.5910   29.2090   38.5350 C   0  0  0  0  0  0  0  0  0  0  0  0
   35.4320   28.5660   37.6960 N   0  0  0  0  0  0  0  0  0  0  0  0
   36.5270   27.9300   38.1250 C   0  0  0  0  0  0  0  0  0  0  0  0
   36.8850   27.8750   39.4340 N   0  0  0  0  0  0  0  0  0  0  0  0
   37.3550   27.2790   37.1630 N   0  0  0  0  0  0  0  0  0  0  0  0
   38.4720   27.8910   36.4650 C   0  0  0  0  0  0  0  0  0  0  0  0
   39.4730   26.7520   36.4940 C   0  0  0  0  0  0  0  0  0  0  0  0
   38.5720   25.6070   36.0460 C   0  0  0  0  0  0  0  0  0  0  0  0
   37.2610   25.9300   36.6990 C   0  0  0  0  0  0  0  0  0  0  0  0
   40.8021   31.2221   39.5315 H   0  0  0  0  0  0  0  0  0  0  0  0
   40.0154   29.3651   41.0615 H   0  0  0  0  0  0  0  0  0  0  0  0
   37.1282   34.1265   39.1698 H   0  0  0  0  0  0  0  0  0  0  0  0
   35.8605   33.3787   40.1778 H   0  0  0  0  0  0  0  0  0  0  0  0
   39.0620   28.3210   43.2578 H   0  0  0  0  0  0  0  0  0  0  0  0
   38.5918   29.9284   43.8529 H   0  0  0  0  0  0  0  0  0  0  0  0
   37.6352   28.0928   45.2725 H   0  0  0  0  0  0  0  0  0  0  0  0
   36.3348   29.0615   44.4279 H   0  0  0  0  0  0  0  0  0  0  0  0
   37.1682   26.3510   44.0812 H   0  0  0  0  0  0  0  0  0  0  0  0
   37.4446   26.6447   41.9514 H   0  0  0  0  0  0  0  0  0  0  0  0
   35.6441   26.5210   42.0498 H   0  0  0  0  0  0  0  0  0  0  0  0
   35.5140   28.9877   42.2131 H   0  0  0  0  0  0  0  0  0  0  0  0
   34.2968   29.6643   40.5855 H   0  0  0  0  0  0  0  0  0  0  0  0
   33.6901   29.7333   38.1837 H   0  0  0  0  0  0  0  0  0  0  0  0
   38.8485   28.7763   36.9985 H   0  0  0  0  0  0  0  0  0  0  0  0
   38.2338   28.2666   35.4589 H   0  0  0  0  0  0  0  0  0  0  0  0
   40.3033   26.9185   35.7919 H   0  0  0  0  0  0  0  0  0  0  0  0
   39.9768   26.5985   37.4597 H   0  0  0  0  0  0  0  0  0  0  0  0
   38.4733   25.5876   34.9506 H   0  0  0  0  0  0  0  0  0  0  0  0
   38.9611   24.6164   36.3242 H   0  0  0  0  0  0  0  0  0  0  0  0
   36.4415   25.8355   35.9713 H   0  0  0  0  0  0  0  0  0  0  0  0
   37.0515   25.2395   37.5293 H   0  0  0  0  0  0  0  0  0  0  0  0
  1  2  2  0
  2  3  1  0
  3  8  1  0
  4  3  2  0
  5  4  1  0
  6  1  1  0
  6  5  2  0
  7  5  1  0
  8  9  1  0
  9 10  1  0
 11 10  1  0
 12 11  1  0
 13  8  1  0
 13 12  1  0
 14 13  1  0
 15 14  2  0
 16 15  1  0
 17 18  1  0
 17 16  2  0
 18 19  2  0
 19 14  1  0
 20 18  1  0
 21 22  1  0
 21 20  1  0
 23 22  1  0
 23 24  1  0
 24 20  1  0
  1 25  1  0
  2 26  1  0
  7 27  1  0
  7 28  1  0
  9 29  1  0
  9 30  1  0
 10 31  1  0
 10 32  1  0
 11 33  1  0
 12 34  1  0
 12 35  1  0
 13 36  1  1
 15 37  1  0
 16 38  1  0
 21 39  1  0
 21 40  1  0
 22 41  1  0
 22 42  1  0
 23 43  1  0
 23 44  1  0
 24 45  1  0
 24 46  1  0
M  ISO  8  25  14  26  14  29  13  30  13  31  13  32  13  33   5  34  13
M  ISO  8  35  13  36  13  37  14  38  14  39  13  40  13  41  13  42  13
M  ISO  4  43  13  44  13  45  13  46  13
M  END
>  <minimizedAffinity>  (1) 
-5.93168879

>  <minimizedRMSD>  (1) 
1.03934562

$$$$
