
     RDKit          3D

 47 52  0  0  1  0  0  0  0  0999 V2000
   36.9890   30.5670   41.1850 C   0  0  0  0  0  0  0  0  0  0  0  0
   37.8860   29.7060   41.8150 C   0  0  0  0  0  0  0  0  0  0  0  0
   37.5210   28.3600   42.0080 C   0  0  0  0  0  0  0  0  0  0  0  0
   36.3070   27.9920   41.5630 N   0  0  0  0  0  0  0  0  0  0  0  0
   35.4550   28.8380   40.9570 C   0  0  0  0  0  0  0  0  0  0  0  0
   35.7970   30.1270   40.7680 N   0  0  0  0  0  0  0  0  0  0  0  0
   38.3550   27.4030   42.6360 N   0  0  0  0  0  0  0  0  0  0  0  0
   38.8760   27.4320   43.9940 C   0  0  0  0  0  0  0  0  0  0  0  0
   40.1320   26.5600   43.8870 C   0  0  0  0  0  0  0  0  0  0  0  0
   39.5880   25.4570   43.0100 C   0  0  0  0  0  0  0  0  0  0  0  0
   38.8170   26.2220   41.9740 C   0  0  1  0  0  0  0  0  0  0  0  0
   37.8000   25.4410   41.3170 N   0  0  0  0  0  0  0  0  0  0  0  0
   37.1440   24.3790   41.8680 C   0  0  0  0  0  0  0  0  0  0  0  0
   36.2520   23.8400   41.0360 N   0  0  0  0  0  0  0  0  0  0  0  0
   36.3180   24.5640   39.9080 C   0  0  0  0  0  0  0  0  0  0  0  0
   35.6110   24.4430   38.7150 C   0  0  0  0  0  0  0  0  0  0  0  0
   35.9080   25.3390   37.7400 N   0  0  0  0  0  0  0  0  0  0  0  0
   36.8470   26.2920   37.9450 C   0  0  0  0  0  0  0  0  0  0  0  0
   37.5320   26.4130   39.0890 N   0  0  0  0  0  0  0  0  0  0  0  0
   37.2840   25.5530   40.0990 C   0  0  0  0  0  0  0  0  0  0  0  0
   37.1390   27.2390   36.8690 C   0  0  0  0  0  0  0  0  0  0  0  0
   38.3590   27.5460   36.2980 C   0  0  0  0  0  0  0  0  0  0  0  0
   38.2020   28.4730   35.3350 N   0  0  0  0  0  0  0  0  0  0  0  0
   36.8980   28.7950   35.2480 C   0  0  0  0  0  0  0  0  0  0  0  0
   36.1980   29.6810   34.4340 C   0  0  0  0  0  0  0  0  0  0  0  0
   34.8110   29.8410   34.5380 C   0  0  0  0  0  0  0  0  0  0  0  0
   34.1490   29.0680   35.4990 C   0  0  0  0  0  0  0  0  0  0  0  0
   34.8500   28.1970   36.2950 C   0  0  0  0  0  0  0  0  0  0  0  0
   36.2170   28.0380   36.1940 C   0  0  0  0  0  0  0  0  0  0  0  0
   37.2647   31.6204   41.0290 H   0  0  0  0  0  0  0  0  0  0  0  0
   38.8651   30.0729   42.1565 H   0  0  0  0  0  0  0  0  0  0  0  0
   34.4746   28.4757   40.6142 H   0  0  0  0  0  0  0  0  0  0  0  0
   39.1292   28.4576   44.3007 H   0  0  0  0  0  0  0  0  0  0  0  0
   38.1576   27.0751   44.7467 H   0  0  0  0  0  0  0  0  0  0  0  0
   40.9644   27.0949   43.4065 H   0  0  0  0  0  0  0  0  0  0  0  0
   40.5597   26.2313   44.8456 H   0  0  0  0  0  0  0  0  0  0  0  0
   40.4011   24.8748   42.5519 H   0  0  0  0  0  0  0  0  0  0  0  0
   38.9805   24.7200   43.5556 H   0  0  0  0  0  0  0  0  0  0  0  0
   39.4496   26.4997   41.1181 H   0  0  0  0  0  0  0  0  0  0  0  0
   37.3305   24.0081   42.8867 H   0  0  0  0  0  0  0  0  0  0  0  0
   34.8507   23.6614   38.5700 H   0  0  0  0  0  0  0  0  0  0  0  0
   39.3204   27.0973   36.5886 H   0  0  0  0  0  0  0  0  0  0  0  0
   38.9569   28.8712   34.7584 H   0  0  0  0  0  0  0  0  0  0  0  0
   36.7500   30.2719   33.6882 H   0  0  0  0  0  0  0  0  0  0  0  0
   34.2648   30.5442   33.8921 H   0  0  0  0  0  0  0  0  0  0  0  0
   33.0592   29.1593   35.6171 H   0  0  0  0  0  0  0  0  0  0  0  0
   34.3017   27.6035   37.0414 H   0  0  0  0  0  0  0  0  0  0  0  0
  1  2  2  0
  2  3  1  0
  3  7  1  0
  4  3  2  0
  5  4  1  0
  6  5  2  0
  6  1  1  0
  7  8  1  0
  9  8  1  0
 10  9  1  0
 11  7  1  0
 11 10  1  0
 12 13  1  0
 12 11  1  0
 14 13  2  0
 15 20  2  0
 15 14  1  0
 16 15  1  0
 17 18  1  0
 17 16  2  0
 18 19  2  0
 19 20  1  0
 20 12  1  0
 21 18  1  0
 22 21  2  0
 23 22  1  0
 24 23  1  0
 24 29  2  0
 25 26  2  0
 25 24  1  0
 26 27  1  0
 27 28  2  0
 29 28  1  0
 29 21  1  0
  1 30  1  0
  2 31  1  0
  5 32  1  0
  8 33  1  0
  8 34  1  0
  9 35  1  0
  9 36  1  0
 10 37  1  0
 10 38  1  0
 11 39  1  6
 13 40  1  0
 16 41  1  0
 22 42  1  0
 23 43  1  0
 25 44  1  0
 26 45  1  0
 27 46  1  0
 28 47  1  0
M  ISO  8  30  14  31  14  32  14  33  13  34  13  35  13  36  13  37  13
M  ISO  8  38  13  39  13  40  14  41  14  42  14  43   9  44  14  45  14
M  ISO  2  46  14  47  14
M  END
>  <minimizedAffinity>  (1) 
-6.40583658

>  <minimizedRMSD>  (1) 
1.15521109

$$$$
