
     RDKit          3D

 46 50  0  0  1  0  0  0  0  0999 V2000
   36.8040   30.6830   41.2090 C   0  0  0  0  0  0  0  0  0  0  0  0
   37.6960   29.8180   41.8510 C   0  0  0  0  0  0  0  0  0  0  0  0
   37.3500   28.4680   41.9620 C   0  0  0  0  0  0  0  0  0  0  0  0
   36.1710   28.0960   41.4380 N   0  0  0  0  0  0  0  0  0  0  0  0
   35.3320   28.9450   40.8270 C   0  0  0  0  0  0  0  0  0  0  0  0
   35.6550   30.2520   40.7110 N   0  0  0  0  0  0  0  0  0  0  0  0
   38.1720   27.4880   42.5930 N   0  0  0  0  0  0  0  0  0  0  0  0
   38.6080   27.4670   43.9790 C   0  0  0  0  0  0  0  0  0  0  0  0
   39.8820   26.6340   43.9080 C   0  0  0  0  0  0  0  0  0  0  0  0
   39.4200   25.5600   42.9550 C   0  0  0  0  0  0  0  0  0  0  0  0
   38.6940   26.3520   41.9070 C   0  0  1  0  0  0  0  0  0  0  0  0
   37.7360   25.5820   41.1740 N   0  0  0  0  0  0  0  0  0  0  0  0
   37.1140   24.4410   41.6120 C   0  0  0  0  0  0  0  0  0  0  0  0
   36.2740   23.9440   40.7150 N   0  0  0  0  0  0  0  0  0  0  0  0
   36.3230   24.7550   39.6550 C   0  0  0  0  0  0  0  0  0  0  0  0
   35.6500   24.7060   38.4420 C   0  0  0  0  0  0  0  0  0  0  0  0
   35.9230   25.7000   37.5470 N   0  0  0  0  0  0  0  0  0  0  0  0
   36.8140   26.6740   37.8590 C   0  0  0  0  0  0  0  0  0  0  0  0
   37.4570   26.7190   39.0210 N   0  0  0  0  0  0  0  0  0  0  0  0
   37.2420   25.7740   39.9590 C   0  0  0  0  0  0  0  0  0  0  0  0
   37.0510   27.6790   36.8810 N   0  0  0  0  0  0  0  0  0  0  0  0
   37.9640   28.7750   37.0610 C   0  0  0  0  0  0  0  0  0  0  0  0
   37.1890   30.0330   36.6990 C   0  0  0  0  0  0  0  0  0  0  0  0
   36.7290   30.0340   35.4090 O   0  0  0  0  0  0  0  0  0  0  0  0
   36.7030   28.8250   34.7660 C   0  0  0  0  0  0  0  0  0  0  0  0
   36.3520   27.6420   35.6020 C   0  0  0  0  0  0  0  0  0  0  0  0
   37.0632   31.7479   41.1154 H   0  0  0  0  0  0  0  0  0  0  0  0
   38.6471   30.1910   42.2589 H   0  0  0  0  0  0  0  0  0  0  0  0
   34.3789   28.5768   40.4194 H   0  0  0  0  0  0  0  0  0  0  0  0
   38.8165   28.4827   44.3461 H   0  0  0  0  0  0  0  0  0  0  0  0
   37.8552   27.0611   44.6707 H   0  0  0  0  0  0  0  0  0  0  0  0
   40.7268   27.2090   43.5009 H   0  0  0  0  0  0  0  0  0  0  0  0
   40.2610   26.2722   44.8752 H   0  0  0  0  0  0  0  0  0  0  0  0
   40.2735   25.0165   42.5234 H   0  0  0  0  0  0  0  0  0  0  0  0
   38.7993   24.7866   43.4309 H   0  0  0  0  0  0  0  0  0  0  0  0
   39.3635   26.6786   41.0976 H   0  0  0  0  0  0  0  0  0  0  0  0
   37.2924   23.9883   42.5985 H   0  0  0  0  0  0  0  0  0  0  0  0
   34.9316   23.9051   38.2130 H   0  0  0  0  0  0  0  0  0  0  0  0
   38.3021   28.8225   38.1067 H   0  0  0  0  0  0  0  0  0  0  0  0
   38.8594   28.6597   36.4326 H   0  0  0  0  0  0  0  0  0  0  0  0
   36.3271   30.1192   37.3770 H   0  0  0  0  0  0  0  0  0  0  0  0
   37.8814   30.8819   36.7984 H   0  0  0  0  0  0  0  0  0  0  0  0
   35.9644   28.8928   33.9537 H   0  0  0  0  0  0  0  0  0  0  0  0
   37.7347   28.6499   34.4269 H   0  0  0  0  0  0  0  0  0  0  0  0
   35.2673   27.6401   35.7850 H   0  0  0  0  0  0  0  0  0  0  0  0
   36.6541   26.7313   35.0642 H   0  0  0  0  0  0  0  0  0  0  0  0
  1  2  2  0
  2  3  1  0
  3  7  1  0
  4  3  2  0
  5  4  1  0
  6  5  2  0
  6  1  1  0
  7  8  1  0
  9  8  1  0
 10  9  1  0
 11  7  1  0
 11 10  1  0
 12 13  1  0
 12 11  1  0
 14 13  2  0
 15 20  2  0
 15 14  1  0
 16 15  1  0
 17 18  1  0
 17 16  2  0
 18 19  2  0
 19 20  1  0
 20 12  1  0
 21 22  1  0
 21 18  1  0
 23 22  1  0
 24 23  1  0
 25 24  1  0
 25 26  1  0
 26 21  1  0
  1 27  1  0
  2 28  1  0
  5 29  1  0
  8 30  1  0
  8 31  1  0
  9 32  1  0
  9 33  1  0
 10 34  1  0
 10 35  1  0
 11 36  1  6
 13 37  1  0
 16 38  1  0
 22 39  1  0
 22 40  1  0
 23 41  1  0
 23 42  1  0
 25 43  1  0
 25 44  1  0
 26 45  1  0
 26 46  1  0
M  ISO  8  27  14  28  14  29  14  30  13  31  13  32  13  33  13  34  13
M  ISO  8  35  13  36  13  37  14  38  14  39  13  40  13  41  13  42  13
M  ISO  4  43  13  44  13  45  13  46  13
M  END
>  <minimizedAffinity>  (1) 
-6.12648821

>  <minimizedRMSD>  (1) 
0.905905187

$$$$
