
     RDKit          3D

 48 52  0  0  1  0  0  0  0  0999 V2000
   36.9090   30.6880   41.2830 C   0  0  0  0  0  0  0  0  0  0  0  0
   37.7720   29.8000   41.9200 C   0  0  0  0  0  0  0  0  0  0  0  0
   37.4140   28.4490   42.0260 C   0  0  0  0  0  0  0  0  0  0  0  0
   36.2280   28.1060   41.4900 N   0  0  0  0  0  0  0  0  0  0  0  0
   35.4080   28.9760   40.8810 C   0  0  0  0  0  0  0  0  0  0  0  0
   35.7530   30.2750   40.7780 N   0  0  0  0  0  0  0  0  0  0  0  0
   38.2150   27.4680   42.6490 N   0  0  0  0  0  0  0  0  0  0  0  0
   38.6620   27.4360   44.0290 C   0  0  0  0  0  0  0  0  0  0  0  0
   39.9170   26.5630   43.9640 C   0  0  0  0  0  0  0  0  0  0  0  0
   39.4190   25.5110   42.9990 C   0  0  0  0  0  0  0  0  0  0  0  0
   38.7120   26.3260   41.9640 C   0  0  1  0  0  0  0  0  0  0  0  0
   37.7500   25.5740   41.2120 N   0  0  0  0  0  0  0  0  0  0  0  0
   37.1280   24.4380   41.6240 C   0  0  0  0  0  0  0  0  0  0  0  0
   36.2820   23.9470   40.7280 N   0  0  0  0  0  0  0  0  0  0  0  0
   36.3390   24.7820   39.6800 C   0  0  0  0  0  0  0  0  0  0  0  0
   35.6640   24.7530   38.4660 C   0  0  0  0  0  0  0  0  0  0  0  0
   35.9310   25.7480   37.5910 N   0  0  0  0  0  0  0  0  0  0  0  0
   36.8290   26.7200   37.9190 C   0  0  0  0  0  0  0  0  0  0  0  0
   37.4760   26.7460   39.0870 N   0  0  0  0  0  0  0  0  0  0  0  0
   37.2540   25.7880   39.9940 C   0  0  0  0  0  0  0  0  0  0  0  0
   37.1290   27.7790   37.0150 N   0  0  0  0  0  0  0  0  0  0  0  0
   37.3820   27.5920   35.5970 C   0  0  0  0  0  0  0  0  0  0  0  0
   36.1470   28.0250   34.8660 C   0  0  0  0  0  0  0  0  0  0  0  0
   35.7020   29.3530   35.4120 C   0  0  0  0  0  0  0  0  0  0  0  0
   36.8350   30.0190   36.1710 C   0  0  0  0  0  0  0  0  0  0  0  0
   37.2200   29.1780   37.3940 C   0  0  0  0  0  0  0  0  0  0  0  0
   37.1896   31.7481   41.1970 H   0  0  0  0  0  0  0  0  0  0  0  0
   38.7261   30.1556   42.3363 H   0  0  0  0  0  0  0  0  0  0  0  0
   34.4512   28.6281   40.4645 H   0  0  0  0  0  0  0  0  0  0  0  0
   38.9018   28.4469   44.3905 H   0  0  0  0  0  0  0  0  0  0  0  0
   37.9006   27.0496   44.7225 H   0  0  0  0  0  0  0  0  0  0  0  0
   40.7824   27.1127   43.5653 H   0  0  0  0  0  0  0  0  0  0  0  0
   40.2829   26.1854   44.9302 H   0  0  0  0  0  0  0  0  0  0  0  0
   40.2554   24.9486   42.5584 H   0  0  0  0  0  0  0  0  0  0  0  0
   38.7777   24.7524   43.4716 H   0  0  0  0  0  0  0  0  0  0  0  0
   39.3885   26.6547   41.1613 H   0  0  0  0  0  0  0  0  0  0  0  0
   37.3083   23.9717   42.6038 H   0  0  0  0  0  0  0  0  0  0  0  0
   34.9444   23.9559   38.2276 H   0  0  0  0  0  0  0  0  0  0  0  0
   38.2401   28.2046   35.2832 H   0  0  0  0  0  0  0  0  0  0  0  0
   37.6173   26.5401   35.3775 H   0  0  0  0  0  0  0  0  0  0  0  0
   35.3509   27.2799   35.0113 H   0  0  0  0  0  0  0  0  0  0  0  0
   36.3612   28.1155   33.7909 H   0  0  0  0  0  0  0  0  0  0  0  0
   35.3926   30.0020   34.5795 H   0  0  0  0  0  0  0  0  0  0  0  0
   34.8582   29.1919   36.0991 H   0  0  0  0  0  0  0  0  0  0  0  0
   37.7076   30.1174   35.5085 H   0  0  0  0  0  0  0  0  0  0  0  0
   36.5054   31.0128   36.5083 H   0  0  0  0  0  0  0  0  0  0  0  0
   36.5295   29.3867   38.2245 H   0  0  0  0  0  0  0  0  0  0  0  0
   38.2408   29.4221   37.7232 H   0  0  0  0  0  0  0  0  0  0  0  0
  1  2  2  0
  2  3  1  0
  3  7  1  0
  4  3  2  0
  5  4  1  0
  6  5  2  0
  6  1  1  0
  7  8  1  0
  9  8  1  0
 10  9  1  0
 11  7  1  0
 11 10  1  0
 12 13  1  0
 12 11  1  0
 14 13  2  0
 15 20  2  0
 15 14  1  0
 16 15  1  0
 17 18  1  0
 17 16  2  0
 18 19  2  0
 19 20  1  0
 20 12  1  0
 21 26  1  0
 21 18  1  0
 22 21  1  0
 23 24  1  0
 23 22  1  0
 24 25  1  0
 25 26  1  0
  1 27  1  0
  2 28  1  0
  5 29  1  0
  8 30  1  0
  8 31  1  0
  9 32  1  0
  9 33  1  0
 10 34  1  0
 10 35  1  0
 11 36  1  6
 13 37  1  0
 16 38  1  0
 22 39  1  0
 22 40  1  0
 23 41  1  0
 23 42  1  0
 24 43  1  0
 24 44  1  0
 25 45  1  0
 25 46  1  0
 26 47  1  0
 26 48  1  0
M  ISO  8  27  14  28  14  29  14  30  13  31  13  32  13  33  13  34  13
M  ISO  8  35  13  36  13  37  14  38  14  39  13  40  13  41  13  42  13
M  ISO  6  43  13  44  13  45  13  46  13  47  13  48  13
M  END
>  <minimizedAffinity>  (1) 
-6.11478043

>  <minimizedRMSD>  (1) 
0.92181164

$$$$
