
     RDKit          3D

 40 43  0  0  1  0  0  0  0  0999 V2000
   36.9050   30.7220   41.2580 C   0  0  0  0  0  0  0  0  0  0  0  0
   37.7540   29.8290   41.9240 C   0  0  0  0  0  0  0  0  0  0  0  0
   37.3860   28.4900   41.9860 C   0  0  0  0  0  0  0  0  0  0  0  0
   36.2260   28.1370   41.3970 N   0  0  0  0  0  0  0  0  0  0  0  0
   35.4270   29.0070   40.7650 C   0  0  0  0  0  0  0  0  0  0  0  0
   35.7630   30.3140   40.6900 N   0  0  0  0  0  0  0  0  0  0  0  0
   38.1650   27.4840   42.6340 N   0  0  0  0  0  0  0  0  0  0  0  0
   38.5370   27.4290   44.0320 C   0  0  0  0  0  0  0  0  0  0  0  0
   39.8070   26.5820   44.0020 C   0  0  0  0  0  0  0  0  0  0  0  0
   39.3860   25.5370   42.9980 C   0  0  0  0  0  0  0  0  0  0  0  0
   38.6970   26.3620   41.9510 C   0  0  1  0  0  0  0  0  0  0  0  0
   37.7660   25.6160   41.1470 N   0  0  0  0  0  0  0  0  0  0  0  0
   36.9790   24.5920   41.5910 C   0  0  0  0  0  0  0  0  0  0  0  0
   36.2150   24.0820   40.6400 N   0  0  0  0  0  0  0  0  0  0  0  0
   36.4910   24.7760   39.5290 C   0  0  0  0  0  0  0  0  0  0  0  0
   35.9860   24.6700   38.2460 C   0  0  0  0  0  0  0  0  0  0  0  0
   36.4650   25.5240   37.3200 N   0  0  0  0  0  0  0  0  0  0  0  0
   37.4130   26.4530   37.6560 C   0  0  0  0  0  0  0  0  0  0  0  0
   37.9030   26.5590   38.8920 N   0  0  0  0  0  0  0  0  0  0  0  0
   37.4630   25.7340   39.8590 C   0  0  0  0  0  0  0  0  0  0  0  0
   37.8960   27.3400   36.6470 N   0  0  0  0  0  0  0  0  0  0  0  0
   37.2320   27.5200   35.3990 C   0  0  0  0  0  0  0  0  0  0  0  0
   36.5720   26.4850   34.9440 N   0  0  0  0  0  0  0  0  0  0  0  0
   37.3070   28.7700   34.7180 N   0  0  0  0  0  0  0  0  0  0  0  0
   36.0810   26.5840   34.0430 H   0  0  0  0  0  0  0  0  0  0  0  0
   37.1832   31.7847   41.2001 H   0  0  0  0  0  0  0  0  0  0  0  0
   38.6888   30.1786   42.3865 H   0  0  0  0  0  0  0  0  0  0  0  0
   34.4920   28.6556   40.3044 H   0  0  0  0  0  0  0  0  0  0  0  0
   38.7389   28.4345   44.4296 H   0  0  0  0  0  0  0  0  0  0  0  0
   37.7495   27.0164   44.6798 H   0  0  0  0  0  0  0  0  0  0  0  0
   40.6766   27.1586   43.6539 H   0  0  0  0  0  0  0  0  0  0  0  0
   40.1316   26.1902   44.9773 H   0  0  0  0  0  0  0  0  0  0  0  0
   40.2573   25.0106   42.5813 H   0  0  0  0  0  0  0  0  0  0  0  0
   38.7519   24.7456   43.4242 H   0  0  0  0  0  0  0  0  0  0  0  0
   39.3990   26.7067   41.1774 H   0  0  0  0  0  0  0  0  0  0  0  0
   36.9805   24.2299   42.6297 H   0  0  0  0  0  0  0  0  0  0  0  0
   35.2239   23.9187   37.9915 H   0  0  0  0  0  0  0  0  0  0  0  0
   38.7595   27.8714   36.8284 H   0  0  0  0  0  0  0  0  0  0  0  0
   36.8252   28.8949   33.8162 H   0  0  0  0  0  0  0  0  0  0  0  0
   37.8430   29.5483   35.1277 H   0  0  0  0  0  0  0  0  0  0  0  0
  1  2  2  0
  2  3  1  0
  3  7  1  0
  4  3  2  0
  5  4  1  0
  6  5  2  0
  6  1  1  0
  7  8  1  0
  9  8  1  0
 10  9  1  0
 11  7  1  0
 11 10  1  0
 12 13  1  0
 12 11  1  0
 14 13  2  0
 15 20  2  0
 15 14  1  0
 16 15  1  0
 17 18  1  0
 17 16  2  0
 18 19  2  0
 19 20  1  0
 20 12  1  0
 21 18  1  0
 22 21  1  0
 23 22  2  0
 24 22  1  0
 25 23  1  0
  1 26  1  0
  2 27  1  0
  5 28  1  0
  8 29  1  0
  8 30  1  0
  9 31  1  0
  9 32  1  0
 10 33  1  0
 10 34  1  0
 11 35  1  6
 13 36  1  0
 16 37  1  0
 21 38  1  0
 24 39  1  0
 24 40  1  0
M  ISO  8  26  14  27  14  28  14  29  13  30  13  31  13  32  13  33  13
M  ISO  4  34  13  35  13  36  14  37  14
M  END
>  <minimizedAffinity>  (1) 
-6.08159733

>  <minimizedRMSD>  (1) 
0.307485312

$$$$
