
     RDKit          3D

 44 49  0  0  1  0  0  0  0  0999 V2000
   36.8880   30.5810   41.1350 C   0  0  0  0  0  0  0  0  0  0  0  0
   37.7960   29.7470   41.7770 C   0  0  0  0  0  0  0  0  0  0  0  0
   37.4560   28.4060   41.9860 C   0  0  0  0  0  0  0  0  0  0  0  0
   36.2510   28.0150   41.5410 N   0  0  0  0  0  0  0  0  0  0  0  0
   35.3850   28.8410   40.9200 C   0  0  0  0  0  0  0  0  0  0  0  0
   35.7090   30.1350   40.7160 N   0  0  0  0  0  0  0  0  0  0  0  0
   38.3030   27.4580   42.6310 N   0  0  0  0  0  0  0  0  0  0  0  0
   38.8140   27.5100   43.9880 C   0  0  0  0  0  0  0  0  0  0  0  0
   40.0770   26.6610   43.9000 C   0  0  0  0  0  0  0  0  0  0  0  0
   39.5500   25.5370   43.0400 C   0  0  0  0  0  0  0  0  0  0  0  0
   38.7790   26.2770   41.9910 C   0  0  1  0  0  0  0  0  0  0  0  0
   37.7820   25.4780   41.3330 N   0  0  0  0  0  0  0  0  0  0  0  0
   37.1610   24.3820   41.8740 C   0  0  0  0  0  0  0  0  0  0  0  0
   36.2760   23.8270   41.0480 N   0  0  0  0  0  0  0  0  0  0  0  0
   36.3120   24.5730   39.9300 C   0  0  0  0  0  0  0  0  0  0  0  0
   35.5910   24.4440   38.7410 C   0  0  0  0  0  0  0  0  0  0  0  0
   35.8500   25.3660   37.7760 N   0  0  0  0  0  0  0  0  0  0  0  0
   36.7590   26.3460   37.9790 C   0  0  0  0  0  0  0  0  0  0  0  0
   37.4530   26.4690   39.1230 N   0  0  0  0  0  0  0  0  0  0  0  0
   37.2460   25.5840   40.1280 C   0  0  0  0  0  0  0  0  0  0  0  0
   36.9600   27.2630   36.9070 N   0  0  0  0  0  0  0  0  0  0  0  0
   38.2130   27.4190   36.4300 C   0  0  0  0  0  0  0  0  0  0  0  0
   38.2100   28.3290   35.4150 N   0  0  0  0  0  0  0  0  0  0  0  0
   36.9430   28.7530   35.2480 C   0  0  0  0  0  0  0  0  0  0  0  0
   36.2370   29.6320   34.4380 C   0  0  0  0  0  0  0  0  0  0  0  0
   34.9030   29.7980   34.5750 N   0  0  0  0  0  0  0  0  0  0  0  0
   34.2050   29.1030   35.5200 C   0  0  0  0  0  0  0  0  0  0  0  0
   34.8550   28.2320   36.3340 N   0  0  0  0  0  0  0  0  0  0  0  0
   36.1820   28.0820   36.1800 C   0  0  0  0  0  0  0  0  0  0  0  0
   37.1522   31.6360   40.9699 H   0  0  0  0  0  0  0  0  0  0  0  0
   38.7677   30.1356   42.1158 H   0  0  0  0  0  0  0  0  0  0  0  0
   34.4116   28.4590   40.5787 H   0  0  0  0  0  0  0  0  0  0  0  0
   39.0496   28.5428   44.2844 H   0  0  0  0  0  0  0  0  0  0  0  0
   38.0963   27.1503   44.7400 H   0  0  0  0  0  0  0  0  0  0  0  0
   40.9028   27.2002   43.4128 H   0  0  0  0  0  0  0  0  0  0  0  0
   40.5082   26.3550   44.8646 H   0  0  0  0  0  0  0  0  0  0  0  0
   40.3714   24.9558   42.5957 H   0  0  0  0  0  0  0  0  0  0  0  0
   38.9483   24.8015   43.5941 H   0  0  0  0  0  0  0  0  0  0  0  0
   39.4135   26.5509   41.1352 H   0  0  0  0  0  0  0  0  0  0  0  0
   37.3716   24.0011   42.8842 H   0  0  0  0  0  0  0  0  0  0  0  0
   34.8542   23.6407   38.5934 H   0  0  0  0  0  0  0  0  0  0  0  0
   39.1027   26.8912   36.8040 H   0  0  0  0  0  0  0  0  0  0  0  0
   36.7748   30.2054   33.6686 H   0  0  0  0  0  0  0  0  0  0  0  0
   33.1194   29.2481   35.6218 H   0  0  0  0  0  0  0  0  0  0  0  0
  1  2  2  0
  2  3  1  0
  3  7  1  0
  4  3  2  0
  5  4  1  0
  6  5  2  0
  6  1  1  0
  7  8  1  0
  9  8  1  0
 10  9  1  0
 11  7  1  0
 11 10  1  0
 12 13  1  0
 12 11  1  0
 14 13  2  0
 15 20  2  0
 15 14  1  0
 16 15  1  0
 17 18  1  0
 17 16  2  0
 18 19  2  0
 19 20  1  0
 20 12  1  0
 21 18  1  0
 22 21  1  0
 23 22  2  0
 24 23  1  0
 24 29  2  0
 25 26  2  0
 25 24  1  0
 26 27  1  0
 27 28  2  0
 29 28  1  0
 29 21  1  0
  1 30  1  0
  2 31  1  0
  5 32  1  0
  8 33  1  0
  8 34  1  0
  9 35  1  0
  9 36  1  0
 10 37  1  0
 10 38  1  0
 11 39  1  6
 13 40  1  0
 16 41  1  0
 22 42  1  0
 25 43  1  0
 27 44  1  0
M  ISO  8  30  14  31  14  32  14  33  13  34  13  35  13  36  13  37  13
M  ISO  7  38  13  39  13  40  14  41  14  42  14  43  14  44  14
M  END
>  <minimizedAffinity>  (1) 
-5.98107767

>  <minimizedRMSD>  (1) 
1.02940035

$$$$
