
     RDKit          3D

 41 44  0  0  1  0  0  0  0  0999 V2000
   40.0260   32.1860   41.1090 C   0  0  0  0  0  0  0  0  0  0  0  0
   39.6250   30.9150   41.5710 C   0  0  0  0  0  0  0  0  0  0  0  0
   38.3100   30.5640   41.4430 C   0  0  0  0  0  0  0  0  0  0  0  0
   37.4240   31.4430   40.8750 N   0  0  0  0  0  0  0  0  0  0  0  0
   37.8500   32.6620   40.4400 C   0  0  0  0  0  0  0  0  0  0  0  0
   39.1490   33.0300   40.5580 N   0  0  0  0  0  0  0  0  0  0  0  0
   36.8850   33.5390   39.8560 N   0  0  0  0  0  0  0  0  0  0  0  0
   37.8230   29.3100   41.8800 N   0  0  0  0  0  0  0  0  0  0  0  0
   37.9490   28.9420   43.2680 C   0  0  0  0  0  0  0  0  0  0  0  0
   36.9050   27.8660   43.5530 C   0  0  0  0  0  0  0  0  0  0  0  0
   37.0050   26.7270   42.6940 N   0  0  0  0  0  0  0  0  0  0  0  0
   37.5130   26.9750   41.3900 C   0  0  0  0  0  0  0  0  0  0  0  0
   37.1980   28.3830   40.9650 C   0  0  2  0  0  0  0  0  0  0  0  0
   37.5060   28.6360   39.5510 C   0  0  0  0  0  0  0  0  0  0  0  0
   36.5110   29.0100   38.6490 C   0  0  0  0  0  0  0  0  0  0  0  0
   36.7050   29.2650   37.3210 C   0  0  0  0  0  0  0  0  0  0  0  0
   37.9750   29.1260   36.9090 N   0  0  0  0  0  0  0  0  0  0  0  0
   38.9730   28.7650   37.7490 C   0  0  0  0  0  0  0  0  0  0  0  0
   38.7690   28.5150   39.0640 N   0  0  0  0  0  0  0  0  0  0  0  0
   40.3150   28.6540   37.1940 C   0  0  0  0  0  0  0  0  0  0  0  0
   41.0460   27.5070   36.9710 C   0  0  0  0  0  0  0  0  0  0  0  0
   42.2420   27.8270   36.4460 N   0  0  0  0  0  0  0  0  0  0  0  0
   42.2920   29.1780   36.3270 C   0  0  0  0  0  0  0  0  0  0  0  0
   41.1160   29.6330   36.7880 N   0  0  0  0  0  0  0  0  0  0  0  0
   41.0795   32.4877   41.2041 H   0  0  0  0  0  0  0  0  0  0  0  0
   40.3519   30.2239   42.0227 H   0  0  0  0  0  0  0  0  0  0  0  0
   35.9020   33.2422   39.7746 H   0  0  0  0  0  0  0  0  0  0  0  0
   37.1723   34.4680   39.5164 H   0  0  0  0  0  0  0  0  0  0  0  0
   38.9574   28.5478   43.4621 H   0  0  0  0  0  0  0  0  0  0  0  0
   37.7919   29.8163   43.9168 H   0  0  0  0  0  0  0  0  0  0  0  0
   37.0285   27.5289   44.5928 H   0  0  0  0  0  0  0  0  0  0  0  0
   35.9188   28.3189   43.3733 H   0  0  0  0  0  0  0  0  0  0  0  0
   37.6251   26.0421   43.1492 H   0  0  0  0  0  0  0  0  0  0  0  0
   38.6037   26.8323   41.3925 H   0  0  0  0  0  0  0  0  0  0  0  0
   37.0425   26.2749   40.6840 H   0  0  0  0  0  0  0  0  0  0  0  0
   36.1108   28.5391   41.0245 H   0  0  0  0  0  0  0  0  0  0  0  0
   35.4868   29.1077   39.0381 H   0  0  0  0  0  0  0  0  0  0  0  0
   35.8884   29.5597   36.6455 H   0  0  0  0  0  0  0  0  0  0  0  0
   40.7031   26.4849   37.1893 H   0  0  0  0  0  0  0  0  0  0  0  0
   43.1258   29.7778   35.9332 H   0  0  0  0  0  0  0  0  0  0  0  0
   40.8628   30.6308   36.8230 H   0  0  0  0  0  0  0  0  0  0  0  0
  1  2  2  0
  3  2  1  0
  3  8  1  0
  4  3  2  0
  5  6  2  0
  5  4  1  0
  6  1  1  0
  7  5  1  0
  8  9  1  0
  9 10  1  0
 11 10  1  0
 12 11  1  0
 13 12  1  0
 13  8  1  0
 14 13  1  0
 15 14  2  0
 16 15  1  0
 17 16  2  0
 17 18  1  0
 18 19  2  0
 19 14  1  0
 20 18  1  0
 21 20  2  0
 22 21  1  0
 23 22  2  0
 23 24  1  0
 24 20  1  0
  1 25  1  0
  2 26  1  0
  7 27  1  0
  7 28  1  0
  9 29  1  0
  9 30  1  0
 10 31  1  0
 10 32  1  0
 11 33  1  0
 12 34  1  0
 12 35  1  0
 13 36  1  6
 15 37  1  0
 16 38  1  0
 21 39  1  0
 23 40  1  0
 24 41  1  0
M  ISO  8  25  14  26  14  29  13  30  13  31  13  32  13  33   5  34  13
M  ISO  7  35  13  36  13  37  14  38  14  39  14  40  14  41   9
M  END
>  <minimizedAffinity>  (1) 
-5.91658354

>  <minimizedRMSD>  (1) 
1.3049407

$$$$
