
     RDKit          3D

 46 50  0  0  1  0  0  0  0  0999 V2000
   36.7900   30.7550   41.2040 C   0  0  0  0  0  0  0  0  0  0  0  0
   37.6400   29.8630   41.8680 C   0  0  0  0  0  0  0  0  0  0  0  0
   37.3060   28.5100   41.9030 C   0  0  0  0  0  0  0  0  0  0  0  0
   36.1610   28.1620   41.2790 N   0  0  0  0  0  0  0  0  0  0  0  0
   35.3630   29.0300   40.6510 C   0  0  0  0  0  0  0  0  0  0  0  0
   35.6830   30.3360   40.6160 N   0  0  0  0  0  0  0  0  0  0  0  0
   38.0900   27.5100   42.5450 N   0  0  0  0  0  0  0  0  0  0  0  0
   38.4380   27.4380   43.9530 C   0  0  0  0  0  0  0  0  0  0  0  0
   39.7110   26.5980   43.9280 C   0  0  0  0  0  0  0  0  0  0  0  0
   39.3120   25.5630   42.9030 C   0  0  0  0  0  0  0  0  0  0  0  0
   38.6530   26.4070   41.8490 C   0  0  1  0  0  0  0  0  0  0  0  0
   37.7510   25.6710   41.0030 N   0  0  0  0  0  0  0  0  0  0  0  0
   36.9680   24.6170   41.4040 C   0  0  0  0  0  0  0  0  0  0  0  0
   36.2270   24.1150   40.4270 N   0  0  0  0  0  0  0  0  0  0  0  0
   36.5090   24.8360   39.3490 C   0  0  0  0  0  0  0  0  0  0  0  0
   36.0270   24.7550   38.0430 C   0  0  0  0  0  0  0  0  0  0  0  0
   36.5150   25.6480   37.1520 N   0  0  0  0  0  0  0  0  0  0  0  0
   37.4400   26.5810   37.5350 C   0  0  0  0  0  0  0  0  0  0  0  0
   37.9030   26.6600   38.7810 N   0  0  0  0  0  0  0  0  0  0  0  0
   37.4590   25.8020   39.7210 C   0  0  0  0  0  0  0  0  0  0  0  0
   37.8510   27.4690   36.4080 C   0  0  0  0  0  0  0  0  0  0  0  0
   36.7670   27.7680   35.4380 C   0  0  0  0  0  0  0  0  0  0  0  0
   36.5390   29.2680   35.5240 C   0  0  0  0  0  0  0  0  0  0  0  0
   37.0120   29.6240   36.9000 C   0  0  0  0  0  0  0  0  0  0  0  0
   38.2630   28.7920   37.0550 C   0  0  0  0  0  0  0  0  0  0  0  0
   37.0479   31.8238   41.1710 H   0  0  0  0  0  0  0  0  0  0  0  0
   38.5578   30.2242   42.3549 H   0  0  0  0  0  0  0  0  0  0  0  0
   34.4433   28.6763   40.1620 H   0  0  0  0  0  0  0  0  0  0  0  0
   38.6285   28.4386   44.3684 H   0  0  0  0  0  0  0  0  0  0  0  0
   37.6421   27.0147   44.5834 H   0  0  0  0  0  0  0  0  0  0  0  0
   40.5822   27.1842   43.6005 H   0  0  0  0  0  0  0  0  0  0  0  0
   40.0223   26.1937   44.9025 H   0  0  0  0  0  0  0  0  0  0  0  0
   40.1913   25.0373   42.5023 H   0  0  0  0  0  0  0  0  0  0  0  0
   38.6659   24.7678   43.3032 H   0  0  0  0  0  0  0  0  0  0  0  0
   39.3746   26.7733   41.1039 H   0  0  0  0  0  0  0  0  0  0  0  0
   36.9569   24.2283   42.4330 H   0  0  0  0  0  0  0  0  0  0  0  0
   35.2834   23.9990   37.7506 H   0  0  0  0  0  0  0  0  0  0  0  0
   38.6450   26.9603   35.8416 H   0  0  0  0  0  0  0  0  0  0  0  0
   35.8497   27.2247   35.7088 H   0  0  0  0  0  0  0  0  0  0  0  0
   37.0380   27.4568   34.4183 H   0  0  0  0  0  0  0  0  0  0  0  0
   37.1254   29.7978   34.7589 H   0  0  0  0  0  0  0  0  0  0  0  0
   35.4900   29.5491   35.3492 H   0  0  0  0  0  0  0  0  0  0  0  0
   37.2395   30.6976   36.9744 H   0  0  0  0  0  0  0  0  0  0  0  0
   36.2618   29.4284   37.6804 H   0  0  0  0  0  0  0  0  0  0  0  0
   38.5220   28.6543   38.1152 H   0  0  0  0  0  0  0  0  0  0  0  0
   39.1558   29.2470   36.6014 H   0  0  0  0  0  0  0  0  0  0  0  0
  1  2  2  0
  2  3  1  0
  3  7  1  0
  4  3  2  0
  5  4  1  0
  6  5  2  0
  6  1  1  0
  7  8  1  0
  9  8  1  0
 10  9  1  0
 11  7  1  0
 11 10  1  0
 12 13  1  0
 12 11  1  0
 14 13  2  0
 15 20  2  0
 15 14  1  0
 16 15  1  0
 17 18  1  0
 17 16  2  0
 18 19  2  0
 19 20  1  0
 20 12  1  0
 21 25  1  0
 21 18  1  0
 22 23  1  0
 22 21  1  0
 23 24  1  0
 24 25  1  0
  1 26  1  0
  2 27  1  0
  5 28  1  0
  8 29  1  0
  8 30  1  0
  9 31  1  0
  9 32  1  0
 10 33  1  0
 10 34  1  0
 11 35  1  6
 13 36  1  0
 16 37  1  0
 21 38  1  0
 22 39  1  0
 22 40  1  0
 23 41  1  0
 23 42  1  0
 24 43  1  0
 24 44  1  0
 25 45  1  0
 25 46  1  0
M  ISO  8  26  14  27  14  28  14  29  13  30  13  31  13  32  13  33  13
M  ISO  8  34  13  35  13  36  14  37  14  38  13  39  13  40  13  41  13
M  ISO  5  42  13  43  13  44  13  45  13  46  13
M  END
>  <minimizedAffinity>  (1) 
-5.66032743

>  <minimizedRMSD>  (1) 
1.05979037

$$$$
