
     RDKit          3D

 41 45  0  0  1  0  0  0  0  0999 V2000
   37.1100   30.4630   41.3930 C   0  0  0  0  0  0  0  0  0  0  0  0
   38.0170   29.5280   41.8760 C   0  0  0  0  0  0  0  0  0  0  0  0
   37.6410   28.1810   41.9390 C   0  0  0  0  0  0  0  0  0  0  0  0
   36.3910   27.8830   41.5160 N   0  0  0  0  0  0  0  0  0  0  0  0
   35.5240   28.7970   41.0520 C   0  0  0  0  0  0  0  0  0  0  0  0
   35.8960   30.1020   40.9930 N   0  0  0  0  0  0  0  0  0  0  0  0
   38.4790   27.1460   42.4110 N   0  0  0  0  0  0  0  0  0  0  0  0
   39.0760   27.0200   43.7280 C   0  0  0  0  0  0  0  0  0  0  0  0
   40.2800   26.1360   43.4790 C   0  0  0  0  0  0  0  0  0  0  0  0
   39.6790   25.1570   42.5090 C   0  0  0  0  0  0  0  0  0  0  0  0
   38.8680   26.0350   41.6120 C   0  0  1  0  0  0  0  0  0  0  0  0
   37.8080   25.3470   40.9190 N   0  0  0  0  0  0  0  0  0  0  0  0
   37.2470   24.1790   41.3190 C   0  0  0  0  0  0  0  0  0  0  0  0
   36.2900   23.7620   40.4980 N   0  0  0  0  0  0  0  0  0  0  0  0
   36.2200   24.6820   39.5320 C   0  0  0  0  0  0  0  0  0  0  0  0
   35.3880   24.7490   38.4090 C   0  0  0  0  0  0  0  0  0  0  0  0
   35.5540   25.8300   37.5910 N   0  0  0  0  0  0  0  0  0  0  0  0
   36.4850   26.7650   37.8870 C   0  0  0  0  0  0  0  0  0  0  0  0
   37.2770   26.7020   38.9540 N   0  0  0  0  0  0  0  0  0  0  0  0
   37.1720   25.6650   39.8070 C   0  0  0  0  0  0  0  0  0  0  0  0
   36.6190   27.8990   36.9770 C   0  0  0  0  0  0  0  0  0  0  0  0
   36.5180   27.7400   35.6100 C   0  0  0  0  0  0  0  0  0  0  0  0
   36.6400   28.7930   34.7180 C   0  0  0  0  0  0  0  0  0  0  0  0
   36.8640   30.0140   35.1940 N   0  0  0  0  0  0  0  0  0  0  0  0
   36.9670   30.1910   36.5260 C   0  0  0  0  0  0  0  0  0  0  0  0
   36.8460   29.1540   37.4070 N   0  0  0  0  0  0  0  0  0  0  0  0
   37.4028   31.5220   41.3409 H   0  0  0  0  0  0  0  0  0  0  0  0
   39.0185   29.8423   42.2049 H   0  0  0  0  0  0  0  0  0  0  0  0
   34.5201   28.4914   40.7221 H   0  0  0  0  0  0  0  0  0  0  0  0
   39.3816   28.0020   44.1181 H   0  0  0  0  0  0  0  0  0  0  0  0
   38.3848   26.6065   44.4772 H   0  0  0  0  0  0  0  0  0  0  0  0
   41.1140   26.6965   43.0314 H   0  0  0  0  0  0  0  0  0  0  0  0
   40.7233   25.6872   44.3801 H   0  0  0  0  0  0  0  0  0  0  0  0
   40.4609   24.6280   41.9444 H   0  0  0  0  0  0  0  0  0  0  0  0
   39.0877   24.3680   42.9967 H   0  0  0  0  0  0  0  0  0  0  0  0
   39.4556   26.3929   40.7537 H   0  0  0  0  0  0  0  0  0  0  0  0
   37.5517   23.6356   42.2256 H   0  0  0  0  0  0  0  0  0  0  0  0
   34.6394   23.9717   38.1961 H   0  0  0  0  0  0  0  0  0  0  0  0
   36.3323   26.7320   35.2106 H   0  0  0  0  0  0  0  0  0  0  0  0
   36.5531   28.6218   33.6349 H   0  0  0  0  0  0  0  0  0  0  0  0
   37.1544   31.2023   36.9161 H   0  0  0  0  0  0  0  0  0  0  0  0
  1  2  2  0
  2  3  1  0
  3  7  1  0
  4  3  2  0
  5  4  1  0
  6  5  2  0
  6  1  1  0
  7  8  1  0
  9  8  1  0
 10  9  1  0
 11  7  1  0
 11 10  1  0
 12 13  1  0
 12 11  1  0
 14 13  2  0
 15 20  2  0
 15 14  1  0
 16 15  1  0
 17 18  1  0
 17 16  2  0
 18 19  2  0
 19 20  1  0
 20 12  1  0
 21 26  1  0
 21 18  1  0
 22 21  2  0
 23 24  2  0
 23 22  1  0
 24 25  1  0
 25 26  2  0
  1 27  1  0
  2 28  1  0
  5 29  1  0
  8 30  1  0
  8 31  1  0
  9 32  1  0
  9 33  1  0
 10 34  1  0
 10 35  1  0
 11 36  1  6
 13 37  1  0
 16 38  1  0
 22 39  1  0
 23 40  1  0
 25 41  1  0
M  ISO  8  27  14  28  14  29  14  30  13  31  13  32  13  33  13  34  13
M  ISO  7  35  13  36  13  37  14  38  14  39  14  40  14  41  14
M  END
>  <minimizedAffinity>  (1) 
-5.39783764

>  <minimizedRMSD>  (1) 
1.34111726

$$$$
