
     RDKit          3D

 42 45  0  0  1  0  0  0  0  0999 V2000
   36.8350   30.6820   41.1990 C   0  0  0  0  0  0  0  0  0  0  0  0
   37.7030   29.8180   41.8690 C   0  0  0  0  0  0  0  0  0  0  0  0
   37.3830   28.4550   41.9200 C   0  0  0  0  0  0  0  0  0  0  0  0
   36.2490   28.0690   41.3120 N   0  0  0  0  0  0  0  0  0  0  0  0
   35.4230   28.9200   40.6670 C   0  0  0  0  0  0  0  0  0  0  0  0
   35.7200   30.2320   40.6130 N   0  0  0  0  0  0  0  0  0  0  0  0
   38.1910   27.4850   42.5750 N   0  0  0  0  0  0  0  0  0  0  0  0
   38.5530   27.4290   43.9800 C   0  0  0  0  0  0  0  0  0  0  0  0
   39.8440   26.6300   43.9580 C   0  0  0  0  0  0  0  0  0  0  0  0
   39.4570   25.5700   42.9560 C   0  0  0  0  0  0  0  0  0  0  0  0
   38.7820   26.3820   41.8940 C   0  0  1  0  0  0  0  0  0  0  0  0
   37.8920   25.6120   41.0660 N   0  0  0  0  0  0  0  0  0  0  0  0
   36.9810   24.6890   41.5210 C   0  0  0  0  0  0  0  0  0  0  0  0
   36.2860   24.1220   40.5430 N   0  0  0  0  0  0  0  0  0  0  0  0
   36.7390   24.6750   39.4040 C   0  0  0  0  0  0  0  0  0  0  0  0
   36.3620   24.4490   38.0860 C   0  0  0  0  0  0  0  0  0  0  0  0
   37.0150   25.1720   37.1390 N   0  0  0  0  0  0  0  0  0  0  0  0
   37.9720   26.0550   37.4990 C   0  0  0  0  0  0  0  0  0  0  0  0
   38.3390   26.2780   38.7560 N   0  0  0  0  0  0  0  0  0  0  0  0
   37.7360   25.5960   39.7550 C   0  0  0  0  0  0  0  0  0  0  0  0
   38.6330   26.8050   36.3880 C   0  0  0  0  0  0  0  0  0  0  0  0
   37.8310   27.9880   35.9380 C   0  0  0  0  0  0  0  0  0  0  0  0
   39.9900   27.3100   36.8600 C   0  0  0  0  0  0  0  0  0  0  0  0
   37.0729   31.7549   41.1520 H   0  0  0  0  0  0  0  0  0  0  0  0
   38.6179   30.1989   42.3463 H   0  0  0  0  0  0  0  0  0  0  0  0
   34.5087   28.5420   40.1863 H   0  0  0  0  0  0  0  0  0  0  0  0
   38.7169   28.4372   44.3883 H   0  0  0  0  0  0  0  0  0  0  0  0
   37.7734   26.9831   44.6152 H   0  0  0  0  0  0  0  0  0  0  0  0
   40.6953   27.2335   43.6102 H   0  0  0  0  0  0  0  0  0  0  0  0
   40.1807   26.2532   44.9351 H   0  0  0  0  0  0  0  0  0  0  0  0
   40.3424   25.0507   42.5606 H   0  0  0  0  0  0  0  0  0  0  0  0
   38.8260   24.7718   43.3741 H   0  0  0  0  0  0  0  0  0  0  0  0
   39.4961   26.7535   41.1443 H   0  0  0  0  0  0  0  0  0  0  0  0
   36.8424   24.4457   42.5848 H   0  0  0  0  0  0  0  0  0  0  0  0
   35.5774   23.7241   37.8235 H   0  0  0  0  0  0  0  0  0  0  0  0
   38.7302   26.1090   35.5418 H   0  0  0  0  0  0  0  0  0  0  0  0
   37.4600   28.5353   36.8171 H   0  0  0  0  0  0  0  0  0  0  0  0
   38.4655   28.6526   35.3333 H   0  0  0  0  0  0  0  0  0  0  0  0
   36.9787   27.6446   35.3333 H   0  0  0  0  0  0  0  0  0  0  0  0
   40.0155   27.3195   37.9597 H   0  0  0  0  0  0  0  0  0  0  0  0
   40.7806   26.6459   36.4806 H   0  0  0  0  0  0  0  0  0  0  0  0
   40.1541   28.3294   36.4806 H   0  0  0  0  0  0  0  0  0  0  0  0
  1  2  2  0
  2  3  1  0
  3  7  1  0
  4  3  2  0
  5  4  1  0
  6  5  2  0
  6  1  1  0
  7  8  1  0
  9  8  1  0
 10  9  1  0
 11  7  1  0
 11 10  1  0
 12 13  1  0
 12 11  1  0
 14 13  2  0
 15 20  2  0
 15 14  1  0
 16 15  1  0
 17 18  1  0
 17 16  2  0
 18 19  2  0
 19 20  1  0
 20 12  1  0
 21 23  1  0
 21 18  1  0
 22 21  1  0
  1 24  1  0
  2 25  1  0
  5 26  1  0
  8 27  1  0
  8 28  1  0
  9 29  1  0
  9 30  1  0
 10 31  1  0
 10 32  1  0
 11 33  1  6
 13 34  1  0
 16 35  1  0
 21 36  1  0
 22 37  1  0
 22 38  1  0
 22 39  1  0
 23 40  1  0
 23 41  1  0
 23 42  1  0
M  ISO  8  24  14  25  14  26  14  27  13  28  13  29  13  30  13  31  13
M  ISO  8  32  13  33  13  34  14  35  14  36   8  37   8  38   8  39   8
M  ISO  3  40   8  41   8  42   8
M  END
>  <minimizedAffinity>  (1) 
-5.23140383

>  <minimizedRMSD>  (1) 
0.450922698

$$$$
