
     RDKit          3D

 40 44  0  0  1  0  0  0  0  0999 V2000
   36.9950   30.5550   41.2450 C   0  0  0  0  0  0  0  0  0  0  0  0
   37.9400   29.6650   41.7390 C   0  0  0  0  0  0  0  0  0  0  0  0
   37.6090   28.3100   41.8560 C   0  0  0  0  0  0  0  0  0  0  0  0
   36.3670   27.9690   41.4700 N   0  0  0  0  0  0  0  0  0  0  0  0
   35.4670   28.8370   40.9970 C   0  0  0  0  0  0  0  0  0  0  0  0
   35.7770   30.1400   40.8810 N   0  0  0  0  0  0  0  0  0  0  0  0
   38.4980   27.3180   42.3470 N   0  0  0  0  0  0  0  0  0  0  0  0
   39.1180   27.2570   43.6570 C   0  0  0  0  0  0  0  0  0  0  0  0
   40.3620   26.4170   43.3890 C   0  0  0  0  0  0  0  0  0  0  0  0
   39.7550   25.3640   42.4850 C   0  0  0  0  0  0  0  0  0  0  0  0
   38.9120   26.2000   41.5690 C   0  0  1  0  0  0  0  0  0  0  0  0
   37.8590   25.4590   40.9270 N   0  0  0  0  0  0  0  0  0  0  0  0
   37.3280   24.2900   41.3800 C   0  0  0  0  0  0  0  0  0  0  0  0
   36.3630   23.8150   40.5910 N   0  0  0  0  0  0  0  0  0  0  0  0
   36.2560   24.7020   39.5840 C   0  0  0  0  0  0  0  0  0  0  0  0
   35.4040   24.6900   38.4880 C   0  0  0  0  0  0  0  0  0  0  0  0
   35.5270   25.7350   37.6240 N   0  0  0  0  0  0  0  0  0  0  0  0
   36.4390   26.7090   37.8570 C   0  0  0  0  0  0  0  0  0  0  0  0
   37.2570   26.7110   38.9170 N   0  0  0  0  0  0  0  0  0  0  0  0
   37.1870   25.7100   39.8070 C   0  0  0  0  0  0  0  0  0  0  0  0
   36.5570   27.8530   36.8910 C   0  0  0  0  0  0  0  0  0  0  0  0
   36.6450   27.6970   35.5320 C   0  0  0  0  0  0  0  0  0  0  0  0
   36.7500   28.7970   34.7430 C   0  0  0  0  0  0  0  0  0  0  0  0
   36.7660   30.0790   35.3180 C   0  0  0  0  0  0  0  0  0  0  0  0
   36.6200   29.6770   37.1340 S   0  0  0  0  0  0  0  0  0  0  0  0
   37.2531   31.6202   41.1515 H   0  0  0  0  0  0  0  0  0  0  0  0
   38.9377   30.0211   42.0351 H   0  0  0  0  0  0  0  0  0  0  0  0
   34.4682   28.4835   40.7014 H   0  0  0  0  0  0  0  0  0  0  0  0
   39.3855   28.2610   44.0183 H   0  0  0  0  0  0  0  0  0  0  0  0
   38.4630   26.8382   44.4352 H   0  0  0  0  0  0  0  0  0  0  0  0
   41.1464   26.9949   42.8784 H   0  0  0  0  0  0  0  0  0  0  0  0
   40.8713   26.0315   44.2845 H   0  0  0  0  0  0  0  0  0  0  0  0
   40.5308   24.8174   41.9288 H   0  0  0  0  0  0  0  0  0  0  0  0
   39.1940   24.5844   43.0212 H   0  0  0  0  0  0  0  0  0  0  0  0
   39.4783   26.5531   40.6946 H   0  0  0  0  0  0  0  0  0  0  0  0
   37.6603   23.7891   42.3012 H   0  0  0  0  0  0  0  0  0  0  0  0
   34.6729   23.8840   38.3272 H   0  0  0  0  0  0  0  0  0  0  0  0
   36.6307   26.6918   35.0856 H   0  0  0  0  0  0  0  0  0  0  0  0
   36.8227   28.6843   33.6512 H   0  0  0  0  0  0  0  0  0  0  0  0
   36.8440   31.0603   34.8271 H   0  0  0  0  0  0  0  0  0  0  0  0
  1  2  2  0
  2  3  1  0
  3  7  1  0
  4  3  2  0
  5  4  1  0
  6  5  2  0
  6  1  1  0
  7  8  1  0
  9  8  1  0
 10  9  1  0
 11  7  1  0
 11 10  1  0
 12 13  1  0
 12 11  1  0
 14 13  2  0
 15 20  2  0
 15 14  1  0
 16 15  1  0
 17 18  1  0
 17 16  2  0
 18 19  2  0
 19 20  1  0
 20 12  1  0
 21 25  1  0
 21 18  1  0
 22 21  2  0
 23 24  2  0
 23 22  1  0
 24 25  1  0
  1 26  1  0
  2 27  1  0
  5 28  1  0
  8 29  1  0
  8 30  1  0
  9 31  1  0
  9 32  1  0
 10 33  1  0
 10 34  1  0
 11 35  1  6
 13 36  1  0
 16 37  1  0
 22 38  1  0
 23 39  1  0
 24 40  1  0
M  ISO  8  26  14  27  14  28  14  29  13  30  13  31  13  32  13  33  13
M  ISO  7  34  13  35  13  36  14  37  14  38  14  39  14  40  14
M  END
>  <minimizedAffinity>  (1) 
-5.23103809

>  <minimizedRMSD>  (1) 
1.29254627

$$$$
