
     RDKit          3D

 36 39  0  0  1  0  0  0  0  0999 V2000
   36.8990   30.6450   41.1480 C   0  0  0  0  0  0  0  0  0  0  0  0
   37.7570   29.7800   41.8120 C   0  0  0  0  0  0  0  0  0  0  0  0
   37.4070   28.4300   41.9330 C   0  0  0  0  0  0  0  0  0  0  0  0
   36.2340   28.0530   41.3840 N   0  0  0  0  0  0  0  0  0  0  0  0
   35.4170   28.9120   40.7440 C   0  0  0  0  0  0  0  0  0  0  0  0
   35.7570   30.2200   40.6270 N   0  0  0  0  0  0  0  0  0  0  0  0
   38.2010   27.4620   42.5860 N   0  0  0  0  0  0  0  0  0  0  0  0
   38.6190   27.4560   43.9750 C   0  0  0  0  0  0  0  0  0  0  0  0
   39.8640   26.5860   43.9620 C   0  0  0  0  0  0  0  0  0  0  0  0
   39.4210   25.5210   42.9970 C   0  0  0  0  0  0  0  0  0  0  0  0
   38.7230   26.3050   41.9290 C   0  0  1  0  0  0  0  0  0  0  0  0
   37.7820   25.5420   41.1630 N   0  0  0  0  0  0  0  0  0  0  0  0
   36.9350   24.5940   41.6710 C   0  0  0  0  0  0  0  0  0  0  0  0
   36.1680   24.0370   40.7470 N   0  0  0  0  0  0  0  0  0  0  0  0
   36.4990   24.6160   39.5920 C   0  0  0  0  0  0  0  0  0  0  0  0
   36.0200   24.4210   38.3100 C   0  0  0  0  0  0  0  0  0  0  0  0
   36.5670   25.1780   37.3170 N   0  0  0  0  0  0  0  0  0  0  0  0
   37.5470   26.0830   37.6120 C   0  0  0  0  0  0  0  0  0  0  0  0
   38.0100   26.2690   38.8540 N   0  0  0  0  0  0  0  0  0  0  0  0
   37.5000   25.5450   39.8700 C   0  0  0  0  0  0  0  0  0  0  0  0
   38.1210   26.8930   36.4980 C   0  0  0  0  0  0  0  0  0  0  0  0
   37.1725   31.7061   41.0520 H   0  0  0  0  0  0  0  0  0  0  0  0
   38.7009   30.1506   42.2382 H   0  0  0  0  0  0  0  0  0  0  0  0
   34.4706   28.5514   40.3147 H   0  0  0  0  0  0  0  0  0  0  0  0
   38.8532   28.4738   44.3203 H   0  0  0  0  0  0  0  0  0  0  0  0
   37.8406   27.0831   44.6570 H   0  0  0  0  0  0  0  0  0  0  0  0
   40.7426   27.1343   43.5912 H   0  0  0  0  0  0  0  0  0  0  0  0
   40.1845   26.2171   44.9475 H   0  0  0  0  0  0  0  0  0  0  0  0
   40.2835   24.9750   42.5871 H   0  0  0  0  0  0  0  0  0  0  0  0
   38.7824   24.7543   43.4600 H   0  0  0  0  0  0  0  0  0  0  0  0
   39.4164   26.6124   41.1323 H   0  0  0  0  0  0  0  0  0  0  0  0
   36.8959   24.3232   42.7364 H   0  0  0  0  0  0  0  0  0  0  0  0
   35.2298   23.6852   38.0998 H   0  0  0  0  0  0  0  0  0  0  0  0
   38.7097   27.7238   36.9143 H   0  0  0  0  0  0  0  0  0  0  0  0
   38.7710   26.2569   35.8793 H   0  0  0  0  0  0  0  0  0  0  0  0
   37.3054   27.2955   35.8793 H   0  0  0  0  0  0  0  0  0  0  0  0
  1  2  2  0
  2  3  1  0
  3  7  1  0
  4  3  2  0
  5  4  1  0
  6  5  2  0
  6  1  1  0
  7  8  1  0
  9  8  1  0
 10  9  1  0
 11  7  1  0
 11 10  1  0
 12 13  1  0
 12 11  1  0
 14 13  2  0
 15 20  2  0
 15 14  1  0
 16 15  1  0
 17 18  1  0
 17 16  2  0
 18 19  2  0
 19 20  1  0
 20 12  1  0
 21 18  1  0
  1 22  1  0
  2 23  1  0
  5 24  1  0
  8 25  1  0
  8 26  1  0
  9 27  1  0
  9 28  1  0
 10 29  1  0
 10 30  1  0
 11 31  1  6
 13 32  1  0
 16 33  1  0
 21 34  1  0
 21 35  1  0
 21 36  1  0
M  ISO  8  22  14  23  14  24  14  25  13  26  13  27  13  28  13  29  13
M  ISO  7  30  13  31  13  32  14  33  14  34   8  35   8  36   8
M  END
>  <minimizedAffinity>  (1) 
-5.11753559

>  <minimizedRMSD>  (1) 
0.0264588464

$$$$
