
     RDKit          3D

 42 45  0  0  1  0  0  0  0  0999 V2000
   40.0370   32.1460   41.1020 C   0  0  0  0  0  0  0  0  0  0  0  0
   39.6230   30.8740   41.5810 C   0  0  0  0  0  0  0  0  0  0  0  0
   38.2930   30.5350   41.4600 C   0  0  0  0  0  0  0  0  0  0  0  0
   37.4240   31.4350   40.8830 N   0  0  0  0  0  0  0  0  0  0  0  0
   37.8520   32.6440   40.4340 C   0  0  0  0  0  0  0  0  0  0  0  0
   39.1610   32.9970   40.5440 N   0  0  0  0  0  0  0  0  0  0  0  0
   36.9140   33.5290   39.8500 N   0  0  0  0  0  0  0  0  0  0  0  0
   37.8000   29.3020   41.9070 N   0  0  0  0  0  0  0  0  0  0  0  0
   37.9220   28.9420   43.2910 C   0  0  0  0  0  0  0  0  0  0  0  0
   36.8670   27.8700   43.5830 C   0  0  0  0  0  0  0  0  0  0  0  0
   36.9290   26.7270   42.7330 N   0  0  0  0  0  0  0  0  0  0  0  0
   37.4640   26.9730   41.4330 C   0  0  0  0  0  0  0  0  0  0  0  0
   37.1670   28.3800   40.9900 C   0  0  2  0  0  0  0  0  0  0  0  0
   37.4760   28.6150   39.5680 C   0  0  0  0  0  0  0  0  0  0  0  0
   36.5100   29.1090   38.6990 C   0  0  0  0  0  0  0  0  0  0  0  0
   36.7070   29.3580   37.3710 C   0  0  0  0  0  0  0  0  0  0  0  0
   37.9410   29.0860   36.9300 N   0  0  0  0  0  0  0  0  0  0  0  0
   38.9060   28.6070   37.7340 C   0  0  0  0  0  0  0  0  0  0  0  0
   38.7050   28.3620   39.0530 N   0  0  0  0  0  0  0  0  0  0  0  0
   40.2470   28.3260   37.1950 C   0  0  0  0  0  0  0  0  0  0  0  0
   40.5870   27.0100   36.8950 C   0  0  0  0  0  0  0  0  0  0  0  0
   41.8530   26.7160   36.3830 C   0  0  0  0  0  0  0  0  0  0  0  0
   42.7010   27.7200   36.1960 N   0  0  0  0  0  0  0  0  0  0  0  0
   42.3870   28.9990   36.4810 C   0  0  0  0  0  0  0  0  0  0  0  0
   41.1550   29.2960   36.9810 N   0  0  0  0  0  0  0  0  0  0  0  0
   41.0937   32.4387   41.1898 H   0  0  0  0  0  0  0  0  0  0  0  0
   40.3443   30.1791   42.0358 H   0  0  0  0  0  0  0  0  0  0  0  0
   35.9249   33.2525   39.7712 H   0  0  0  0  0  0  0  0  0  0  0  0
   37.2206   34.4494   39.5039 H   0  0  0  0  0  0  0  0  0  0  0  0
   38.9278   28.5425   43.4878 H   0  0  0  0  0  0  0  0  0  0  0  0
   37.7696   29.8209   43.9347 H   0  0  0  0  0  0  0  0  0  0  0  0
   36.9996   27.5325   44.6215 H   0  0  0  0  0  0  0  0  0  0  0  0
   35.8886   28.3392   43.4024 H   0  0  0  0  0  0  0  0  0  0  0  0
   37.5183   26.0181   43.1926 H   0  0  0  0  0  0  0  0  0  0  0  0
   38.5537   26.8252   41.4577 H   0  0  0  0  0  0  0  0  0  0  0  0
   36.9986   26.2741   40.7224 H   0  0  0  0  0  0  0  0  0  0  0  0
   36.0824   28.5574   41.0365 H   0  0  0  0  0  0  0  0  0  0  0  0
   35.5116   29.3148   39.1124 H   0  0  0  0  0  0  0  0  0  0  0  0
   35.9151   29.7506   36.7162 H   0  0  0  0  0  0  0  0  0  0  0  0
   39.8592   26.2020   37.0610 H   0  0  0  0  0  0  0  0  0  0  0  0
   42.1391   25.6817   36.1416 H   0  0  0  0  0  0  0  0  0  0  0  0
   43.1220   29.7995   36.3107 H   0  0  0  0  0  0  0  0  0  0  0  0
  1  2  2  0
  3  2  1  0
  3  8  1  0
  4  3  2  0
  5  6  2  0
  5  4  1  0
  6  1  1  0
  7  5  1  0
  8  9  1  0
  9 10  1  0
 11 10  1  0
 12 11  1  0
 13 12  1  0
 13  8  1  0
 14 13  1  0
 15 14  2  0
 16 15  1  0
 17 16  2  0
 17 18  1  0
 18 19  2  0
 19 14  1  0
 20 18  1  0
 21 20  2  0
 22 21  1  0
 23 22  2  0
 23 24  1  0
 24 25  2  0
 25 20  1  0
  1 26  1  0
  2 27  1  0
  7 28  1  0
  7 29  1  0
  9 30  1  0
  9 31  1  0
 10 32  1  0
 10 33  1  0
 11 34  1  0
 12 35  1  0
 12 36  1  0
 13 37  1  6
 15 38  1  0
 16 39  1  0
 21 40  1  0
 22 41  1  0
 24 42  1  0
M  ISO  8  26  14  27  14  30  13  31  13  32  13  33  13  34   5  35  13
M  ISO  7  36  13  37  13  38  14  39  14  40  14  41  14  42  14
M  END
>  <minimizedAffinity>  (1) 
-5.8475461

>  <minimizedRMSD>  (1) 
1.27214062

$$$$
