
     RDKit          3D

 42 45  0  0  1  0  0  0  0  0999 V2000
   40.0320   32.1430   41.1110 C   0  0  0  0  0  0  0  0  0  0  0  0
   39.6210   30.8690   41.5890 C   0  0  0  0  0  0  0  0  0  0  0  0
   38.2990   30.5440   41.4580 C   0  0  0  0  0  0  0  0  0  0  0  0
   37.4220   31.4300   40.8800 N   0  0  0  0  0  0  0  0  0  0  0  0
   37.8500   32.6400   40.4340 C   0  0  0  0  0  0  0  0  0  0  0  0
   39.1600   33.0000   40.5490 N   0  0  0  0  0  0  0  0  0  0  0  0
   36.9140   33.5250   39.8450 N   0  0  0  0  0  0  0  0  0  0  0  0
   37.8020   29.2970   41.9050 N   0  0  0  0  0  0  0  0  0  0  0  0
   37.9350   28.9290   43.2970 C   0  0  0  0  0  0  0  0  0  0  0  0
   36.8520   27.8780   43.5840 C   0  0  0  0  0  0  0  0  0  0  0  0
   36.9350   26.7280   42.7370 N   0  0  0  0  0  0  0  0  0  0  0  0
   37.4530   26.9720   41.4370 C   0  0  0  0  0  0  0  0  0  0  0  0
   37.1580   28.3800   40.9900 C   0  0  2  0  0  0  0  0  0  0  0  0
   37.4680   28.6160   39.5700 C   0  0  0  0  0  0  0  0  0  0  0  0
   36.4950   29.0990   38.7030 C   0  0  0  0  0  0  0  0  0  0  0  0
   36.7160   29.3410   37.3680 C   0  0  0  0  0  0  0  0  0  0  0  0
   37.9630   29.0790   36.9290 N   0  0  0  0  0  0  0  0  0  0  0  0
   38.9100   28.6130   37.7480 C   0  0  0  0  0  0  0  0  0  0  0  0
   38.7000   28.3720   39.0660 N   0  0  0  0  0  0  0  0  0  0  0  0
   40.2400   28.3490   37.2120 C   0  0  0  0  0  0  0  0  0  0  0  0
   40.6550   27.0730   36.8850 C   0  0  0  0  0  0  0  0  0  0  0  0
   41.9250   26.8710   36.3800 C   0  0  0  0  0  0  0  0  0  0  0  0
   42.7410   27.9280   36.2170 N   0  0  0  0  0  0  0  0  0  0  0  0
   42.3570   29.1910   36.5330 C   0  0  0  0  0  0  0  0  0  0  0  0
   41.1190   29.3500   37.0180 N   0  0  0  0  0  0  0  0  0  0  0  0
   41.0884   32.4354   41.2027 H   0  0  0  0  0  0  0  0  0  0  0  0
   40.3383   30.1717   42.0464 H   0  0  0  0  0  0  0  0  0  0  0  0
   35.9256   33.2478   39.7607 H   0  0  0  0  0  0  0  0  0  0  0  0
   37.2218   34.4458   39.5010 H   0  0  0  0  0  0  0  0  0  0  0  0
   38.9328   28.5050   43.4829 H   0  0  0  0  0  0  0  0  0  0  0  0
   37.8165   29.8062   43.9501 H   0  0  0  0  0  0  0  0  0  0  0  0
   36.9539   27.5492   44.6287 H   0  0  0  0  0  0  0  0  0  0  0  0
   35.8794   28.3538   43.3897 H   0  0  0  0  0  0  0  0  0  0  0  0
   37.5429   26.0358   43.1977 H   0  0  0  0  0  0  0  0  0  0  0  0
   38.5424   26.8203   41.4503 H   0  0  0  0  0  0  0  0  0  0  0  0
   36.9736   26.2750   40.7339 H   0  0  0  0  0  0  0  0  0  0  0  0
   36.0736   28.5590   41.0348 H   0  0  0  0  0  0  0  0  0  0  0  0
   35.4919   29.2988   39.1078 H   0  0  0  0  0  0  0  0  0  0  0  0
   35.9278   29.7229   36.7025 H   0  0  0  0  0  0  0  0  0  0  0  0
   39.9758   26.2193   37.0263 H   0  0  0  0  0  0  0  0  0  0  0  0
   42.2645   25.8589   36.1146 H   0  0  0  0  0  0  0  0  0  0  0  0
   43.0338   30.0473   36.3965 H   0  0  0  0  0  0  0  0  0  0  0  0
  1  2  2  0
  3  2  1  0
  3  8  1  0
  4  3  2  0
  5  6  2  0
  5  4  1  0
  6  1  1  0
  7  5  1  0
  8  9  1  0
  9 10  1  0
 11 10  1  0
 12 11  1  0
 13 12  1  0
 13  8  1  0
 14 13  1  0
 15 14  2  0
 16 15  1  0
 17 16  2  0
 17 18  1  0
 18 19  2  0
 19 14  1  0
 20 18  1  0
 21 20  2  0
 22 21  1  0
 23 22  2  0
 23 24  1  0
 24 25  2  0
 25 20  1  0
  1 26  1  0
  2 27  1  0
  7 28  1  0
  7 29  1  0
  9 30  1  0
  9 31  1  0
 10 32  1  0
 10 33  1  0
 11 34  1  0
 12 35  1  0
 12 36  1  0
 13 37  1  6
 15 38  1  0
 16 39  1  0
 21 40  1  0
 22 41  1  0
 24 42  1  0
M  ISO  8  26  14  27  14  30  13  31  13  32  13  33  13  34   5  35  13
M  ISO  7  36  13  37  13  38  14  39  14  40  14  41  14  42  14
M  END
>  <minimizedAffinity>  (1) 
-5.84263277

>  <minimizedRMSD>  (1) 
1.273561

$$$$
