
     RDKit          3D

 50 54  0  0  1  0  0  0  0  0999 V2000
   37.7540   25.5650   41.1890 N   0  0  0  0  0  0  0  0  0  0  0  0
   36.9700   24.5710   41.6730 C   0  0  0  0  0  0  0  0  0  0  0  0
   36.1730   24.0230   40.7620 N   0  0  0  0  0  0  0  0  0  0  0  0
   36.4420   24.6830   39.6280 C   0  0  0  0  0  0  0  0  0  0  0  0
   35.9050   24.5340   38.3420 C   0  0  0  0  0  0  0  0  0  0  0  0
   36.3790   25.3540   37.3840 N   0  0  0  0  0  0  0  0  0  0  0  0
   37.3410   26.2860   37.6640 C   0  0  0  0  0  0  0  0  0  0  0  0
   37.8550   26.4270   38.8990 N   0  0  0  0  0  0  0  0  0  0  0  0
   37.4130   25.6290   39.8950 C   0  0  0  0  0  0  0  0  0  0  0  0
   36.8730   30.6750   41.2070 C   0  0  0  0  0  0  0  0  0  0  0  0
   37.7400   29.8030   41.8580 C   0  0  0  0  0  0  0  0  0  0  0  0
   37.3920   28.4560   41.9670 C   0  0  0  0  0  0  0  0  0  0  0  0
   36.2200   28.0990   41.4220 N   0  0  0  0  0  0  0  0  0  0  0  0
   35.3850   28.9390   40.7960 C   0  0  0  0  0  0  0  0  0  0  0  0
   35.7140   30.2400   40.6860 N   0  0  0  0  0  0  0  0  0  0  0  0
   38.1990   27.4740   42.6100 N   0  0  0  0  0  0  0  0  0  0  0  0
   38.6340   27.4570   43.9990 C   0  0  0  0  0  0  0  0  0  0  0  0
   39.8890   26.6010   43.9510 C   0  0  0  0  0  0  0  0  0  0  0  0
   39.4130   25.5400   42.9950 C   0  0  0  0  0  0  0  0  0  0  0  0
   38.7070   26.3300   41.9480 C   0  0  1  0  0  0  0  0  0  0  0  0
   37.8310   27.1650   36.5810 C   0  0  0  0  0  0  0  0  0  0  0  0
   37.4300   28.6060   36.7360 C   0  0  0  0  0  0  0  0  0  0  0  0
   36.0690   28.8530   36.2850 N   0  0  0  0  0  0  0  0  0  0  0  0
   35.1460   28.7700   37.2610 C   0  0  0  0  0  0  0  0  0  0  0  0
   33.8250   28.9870   36.9430 C   0  0  0  0  0  0  0  0  0  0  0  0
   33.5560   29.2760   35.6210 C   0  0  0  0  0  0  0  0  0  0  0  0
   32.2270   29.5150   35.1950 N   0  0  0  0  0  0  0  0  0  0  0  0
   34.5130   29.3470   34.6800 N   0  0  0  0  0  0  0  0  0  0  0  0
   35.8080   29.1340   34.9960 C   0  0  0  0  0  0  0  0  0  0  0  0
   36.8020   29.1680   34.2260 O   0  0  0  0  0  0  0  0  0  0  0  0
   36.9916   24.2475   42.7241 H   0  0  0  0  0  0  0  0  0  0  0  0
   35.1320   23.7821   38.1249 H   0  0  0  0  0  0  0  0  0  0  0  0
   37.1412   31.7381   41.1176 H   0  0  0  0  0  0  0  0  0  0  0  0
   38.6867   30.1703   42.2809 H   0  0  0  0  0  0  0  0  0  0  0  0
   34.4384   28.5689   40.3753 H   0  0  0  0  0  0  0  0  0  0  0  0
   38.8611   28.4727   44.3551 H   0  0  0  0  0  0  0  0  0  0  0  0
   37.8699   27.0695   44.6889 H   0  0  0  0  0  0  0  0  0  0  0  0
   40.7521   27.1561   43.5549 H   0  0  0  0  0  0  0  0  0  0  0  0
   40.2496   26.2346   44.9235 H   0  0  0  0  0  0  0  0  0  0  0  0
   40.2600   24.9835   42.5673 H   0  0  0  0  0  0  0  0  0  0  0  0
   38.7753   24.7804   43.4707 H   0  0  0  0  0  0  0  0  0  0  0  0
   39.3898   26.6472   41.1460 H   0  0  0  0  0  0  0  0  0  0  0  0
   37.4294   26.7947   35.6262 H   0  0  0  0  0  0  0  0  0  0  0  0
   38.9299   27.1341   36.6179 H   0  0  0  0  0  0  0  0  0  0  0  0
   37.5060   28.8819   37.7981 H   0  0  0  0  0  0  0  0  0  0  0  0
   38.1053   29.2116   36.1138 H   0  0  0  0  0  0  0  0  0  0  0  0
   35.4421   28.5331   38.2936 H   0  0  0  0  0  0  0  0  0  0  0  0
   33.0286   28.9331   37.6998 H   0  0  0  0  0  0  0  0  0  0  0  0
   32.0339   29.7302   34.2064 H   0  0  0  0  0  0  0  0  0  0  0  0
   31.4533   29.4737   35.8737 H   0  0  0  0  0  0  0  0  0  0  0  0
  1  2  1  0
  1 20  1  0
  3  2  2  0
  4  9  2  0
  4  3  1  0
  5  4  1  0
  6  7  1  0
  6  5  2  0
  7  8  2  0
  8  9  1  0
  9  1  1  0
 10 11  2  0
 11 12  1  0
 12 16  1  0
 13 12  2  0
 14 13  1  0
 15 14  2  0
 15 10  1  0
 16 17  1  0
 18 17  1  0
 19 18  1  0
 20 16  1  0
 20 19  1  0
 21 22  1  0
 21  7  1  0
 23 22  1  0
 23 24  1  0
 25 24  2  0
 26 25  1  0
 27 26  1  0
 28 29  1  0
 28 26  2  0
 29 23  1  0
 30 29  2  0
  2 31  1  0
  5 32  1  0
 10 33  1  0
 11 34  1  0
 14 35  1  0
 17 36  1  0
 17 37  1  0
 18 38  1  0
 18 39  1  0
 19 40  1  0
 19 41  1  0
 20 42  1  6
 21 43  1  0
 21 44  1  0
 22 45  1  0
 22 46  1  0
 24 47  1  0
 25 48  1  0
 27 49  1  0
 27 50  1  0
M  ISO  8  31  14  32  14  33  14  34  14  35  14  36  13  37  13  38  13
M  ISO  8  39  13  40  13  41  13  42  13  43   8  44   8  45   8  46   8
M  ISO  2  47  14  48  14
M  END
>  <minimizedAffinity>  (1) 
-5.81386757

>  <minimizedRMSD>  (1) 
1.26983261

$$$$
