
     RDKit          3D

 49 53  0  0  1  0  0  0  0  0999 V2000
   38.0560   25.1930   41.1790 N   0  0  0  0  0  0  0  0  0  0  0  0
   37.1040   24.4000   41.7510 C   0  0  0  0  0  0  0  0  0  0  0  0
   36.2460   23.9000   40.8700 N   0  0  0  0  0  0  0  0  0  0  0  0
   36.6380   24.3730   39.6790 C   0  0  0  0  0  0  0  0  0  0  0  0
   36.0980   24.1680   38.4130 C   0  0  0  0  0  0  0  0  0  0  0  0
   36.7170   24.7840   37.3850 N   0  0  0  0  0  0  0  0  0  0  0  0
   37.8170   25.5680   37.5880 C   0  0  0  0  0  0  0  0  0  0  0  0
   38.3360   25.7630   38.8210 N   0  0  0  0  0  0  0  0  0  0  0  0
   37.7470   25.1650   39.8790 C   0  0  0  0  0  0  0  0  0  0  0  0
   37.4740   30.3370   41.5140 C   0  0  0  0  0  0  0  0  0  0  0  0
   38.3440   29.3820   42.0430 C   0  0  0  0  0  0  0  0  0  0  0  0
   37.9310   28.0550   42.1230 C   0  0  0  0  0  0  0  0  0  0  0  0
   36.6910   27.7760   41.6730 N   0  0  0  0  0  0  0  0  0  0  0  0
   35.8520   28.7000   41.1620 C   0  0  0  0  0  0  0  0  0  0  0  0
   36.2520   29.9770   41.0870 N   0  0  0  0  0  0  0  0  0  0  0  0
   38.7290   26.9990   42.6410 N   0  0  0  0  0  0  0  0  0  0  0  0
   39.2780   26.8780   43.9850 C   0  0  0  0  0  0  0  0  0  0  0  0
   40.4690   25.9610   43.7840 C   0  0  0  0  0  0  0  0  0  0  0  0
   39.8540   24.9740   42.8290 C   0  0  0  0  0  0  0  0  0  0  0  0
   39.1140   25.8690   41.8810 C   0  0  1  0  0  0  0  0  0  0  0  0
   38.4720   26.2300   36.4430 C   0  0  0  0  0  0  0  0  0  0  0  0
   39.3480   27.3840   36.8090 C   0  0  0  0  0  0  0  0  0  0  0  0
   38.6450   28.6440   37.0170 C   0  0  0  0  0  0  0  0  0  0  0  0
   39.2580   29.5710   37.8590 C   0  0  0  0  0  0  0  0  0  0  0  0
   38.6960   30.8090   38.1410 C   0  0  0  0  0  0  0  0  0  0  0  0
   37.4820   31.1180   37.5560 C   0  0  0  0  0  0  0  0  0  0  0  0
   36.9010   30.1800   36.7290 C   0  0  0  0  0  0  0  0  0  0  0  0
   37.4260   28.9570   36.4310 C   0  0  0  0  0  0  0  0  0  0  0  0
   37.0529   24.1961   42.8307 H   0  0  0  0  0  0  0  0  0  0  0  0
   35.2113   23.5357   38.2584 H   0  0  0  0  0  0  0  0  0  0  0  0
   37.7902   31.3884   41.4465 H   0  0  0  0  0  0  0  0  0  0  0  0
   39.3449   29.6749   42.3928 H   0  0  0  0  0  0  0  0  0  0  0  0
   34.8510   28.4090   40.8108 H   0  0  0  0  0  0  0  0  0  0  0  0
   39.5940   27.8576   44.3730 H   0  0  0  0  0  0  0  0  0  0  0  0
   38.5527   26.4934   44.7172 H   0  0  0  0  0  0  0  0  0  0  0  0
   41.3240   26.4889   43.3365 H   0  0  0  0  0  0  0  0  0  0  0  0
   40.8904   25.5276   44.7030 H   0  0  0  0  0  0  0  0  0  0  0  0
   40.6263   24.3907   42.3061 H   0  0  0  0  0  0  0  0  0  0  0  0
   39.2145   24.2252   43.3192 H   0  0  0  0  0  0  0  0  0  0  0  0
   39.7459   26.1991   41.0433 H   0  0  0  0  0  0  0  0  0  0  0  0
   37.6879   26.5964   35.7641 H   0  0  0  0  0  0  0  0  0  0  0  0
   39.1263   25.4766   35.9801 H   0  0  0  0  0  0  0  0  0  0  0  0
   39.8774   27.1301   37.7392 H   0  0  0  0  0  0  0  0  0  0  0  0
   40.0226   27.5434   35.9549 H   0  0  0  0  0  0  0  0  0  0  0  0
   40.2237   29.3117   38.3174 H   0  0  0  0  0  0  0  0  0  0  0  0
   39.2011   31.5219   38.8093 H   0  0  0  0  0  0  0  0  0  0  0  0
   36.9932   32.0852   37.7450 H   0  0  0  0  0  0  0  0  0  0  0  0
   35.9346   30.4394   36.2720 H   0  0  0  0  0  0  0  0  0  0  0  0
   36.9098   28.2543   35.7604 H   0  0  0  0  0  0  0  0  0  0  0  0
  1  2  1  0
  1 20  1  0
  3  2  2  0
  4  9  2  0
  4  3  1  0
  5  4  1  0
  6  7  1  0
  6  5  2  0
  7  8  2  0
  8  9  1  0
  9  1  1  0
 10 11  2  0
 11 12  1  0
 12 16  1  0
 13 12  2  0
 14 13  1  0
 15 14  2  0
 15 10  1  0
 16 17  1  0
 18 17  1  0
 19 18  1  0
 20 16  1  0
 20 19  1  0
 21 22  1  0
 21  7  1  0
 22 23  1  0
 23 24  2  0
 24 25  1  0
 26 25  2  0
 27 26  1  0
 28 27  2  0
 28 23  1  0
  2 29  1  0
  5 30  1  0
 10 31  1  0
 11 32  1  0
 14 33  1  0
 17 34  1  0
 17 35  1  0
 18 36  1  0
 18 37  1  0
 19 38  1  0
 19 39  1  0
 20 40  1  6
 21 41  1  0
 21 42  1  0
 22 43  1  0
 22 44  1  0
 24 45  1  0
 25 46  1  0
 26 47  1  0
 27 48  1  0
 28 49  1  0
M  ISO  8  29  14  30  14  31  14  32  14  33  14  34  13  35  13  36  13
M  ISO  8  37  13  38  13  39  13  40  13  41   8  42   8  43   8  44   8
M  ISO  5  45  14  46  14  47  14  48  14  49  14
M  END
>  <minimizedAffinity>  (1) 
-5.69984865

>  <minimizedRMSD>  (1) 
2.31094098

$$$$
