
     RDKit          3D

 46 49  0  0  1  0  0  0  0  0999 V2000
   37.7560   27.5730   40.2030 N   0  0  0  0  0  0  0  0  0  0  0  0
   36.5100   27.0520   39.9680 C   0  0  0  0  0  0  0  0  0  0  0  0
   36.2130   26.9780   38.6730 N   0  0  0  0  0  0  0  0  0  0  0  0
   37.2840   27.4610   38.0310 C   0  0  0  0  0  0  0  0  0  0  0  0
   37.5220   27.6180   36.6690 C   0  0  0  0  0  0  0  0  0  0  0  0
   38.7110   28.1390   36.3260 N   0  0  0  0  0  0  0  0  0  0  0  0
   39.6440   28.4990   37.2620 C   0  0  0  0  0  0  0  0  0  0  0  0
   39.4060   28.3430   38.5820 N   0  0  0  0  0  0  0  0  0  0  0  0
   38.2270   27.8240   38.9780 C   0  0  0  0  0  0  0  0  0  0  0  0
   39.0920   32.4750   41.2180 C   0  0  0  0  0  0  0  0  0  0  0  0
   39.0300   31.2760   41.9270 C   0  0  0  0  0  0  0  0  0  0  0  0
   38.1880   30.2620   41.4910 C   0  0  0  0  0  0  0  0  0  0  0  0
   37.4660   30.5290   40.3730 N   0  0  0  0  0  0  0  0  0  0  0  0
   37.5220   31.6710   39.6940 C   0  0  0  0  0  0  0  0  0  0  0  0
   38.3440   32.6650   40.1170 N   0  0  0  0  0  0  0  0  0  0  0  0
   38.0450   29.0040   42.1330 N   0  0  0  0  0  0  0  0  0  0  0  0
   37.5920   28.7550   43.4950 C   0  0  0  0  0  0  0  0  0  0  0  0
   38.2110   27.4010   43.8070 C   0  0  0  0  0  0  0  0  0  0  0  0
   37.9560   26.7190   42.4890 C   0  0  0  0  0  0  0  0  0  0  0  0
   38.3400   27.7700   41.5030 C   0  0  1  0  0  0  0  0  0  0  0  0
   40.9340   29.0660   36.8290 C   0  0  0  0  0  0  0  0  0  0  0  0
   41.3470   30.2860   37.5900 C   0  0  0  0  0  0  0  0  0  0  0  0
   41.9450   31.3060   36.7870 N   0  0  0  0  0  0  0  0  0  0  0  0
   41.5740   32.6220   37.1940 C   0  0  0  0  0  0  0  0  0  0  0  0
   40.6190   32.9880   38.0100 N   0  0  0  0  0  0  0  0  0  0  0  0
   42.2610   33.7960   36.7170 N   0  0  0  0  0  0  0  0  0  0  0  0
   40.0200   32.2340   38.4480 H   0  0  0  0  0  0  0  0  0  0  0  0
   35.8266   26.7287   40.7670 H   0  0  0  0  0  0  0  0  0  0  0  0
   36.7758   27.3306   35.9136 H   0  0  0  0  0  0  0  0  0  0  0  0
   39.7617   33.2761   41.5640 H   0  0  0  0  0  0  0  0  0  0  0  0
   39.6454   31.1342   42.8276 H   0  0  0  0  0  0  0  0  0  0  0  0
   36.9051   31.8095   38.7938 H   0  0  0  0  0  0  0  0  0  0  0  0
   37.9611   29.5288   44.1842 H   0  0  0  0  0  0  0  0  0  0  0  0
   36.4974   28.7713   43.6023 H   0  0  0  0  0  0  0  0  0  0  0  0
   39.2853   27.4797   44.0301 H   0  0  0  0  0  0  0  0  0  0  0  0
   37.8072   26.8878   44.6922 H   0  0  0  0  0  0  0  0  0  0  0  0
   38.5824   25.8216   42.3779 H   0  0  0  0  0  0  0  0  0  0  0  0
   36.9215   26.3640   42.3715 H   0  0  0  0  0  0  0  0  0  0  0  0
   39.4109   27.7338   41.2545 H   0  0  0  0  0  0  0  0  0  0  0  0
   41.7107   28.2979   36.9585 H   0  0  0  0  0  0  0  0  0  0  0  0
   40.8119   29.3711   35.7792 H   0  0  0  0  0  0  0  0  0  0  0  0
   40.4544   30.7082   38.0747 H   0  0  0  0  0  0  0  0  0  0  0  0
   42.1127   29.9633   38.3108 H   0  0  0  0  0  0  0  0  0  0  0  0
   42.5773   31.1114   35.9975 H   0  0  0  0  0  0  0  0  0  0  0  0
   41.9645   34.7303   37.0333 H   0  0  0  0  0  0  0  0  0  0  0  0
   43.0484   33.7006   36.0599 H   0  0  0  0  0  0  0  0  0  0  0  0
  1 20  1  0
  2  1  1  0
  3  2  2  0
  4  3  1  0
  4  9  2  0
  5  4  1  0
  6  5  2  0
  6  7  1  0
  7  8  2  0
  8  9  1  0
  9  1  1  0
 10 11  2  0
 12 11  1  0
 12 16  1  0
 13 12  2  0
 14 15  2  0
 14 13  1  0
 15 10  1  0
 16 17  1  0
 17 18  1  0
 19 18  1  0
 20 16  1  0
 20 19  1  0
 21  7  1  0
 21 22  1  0
 23 24  1  0
 23 22  1  0
 24 25  2  0
 25 27  1  0
 26 24  1  0
  2 28  1  0
  5 29  1  0
 10 30  1  0
 11 31  1  0
 14 32  1  0
 17 33  1  0
 17 34  1  0
 18 35  1  0
 18 36  1  0
 19 37  1  0
 19 38  1  0
 20 39  1  6
 21 40  1  0
 21 41  1  0
 22 42  1  0
 22 43  1  0
 23 44  1  0
 26 45  1  0
 26 46  1  0
M  ISO  8  28  14  29  14  30  14  31  14  32  14  33  13  34  13  35  13
M  ISO  8  36  13  37  13  38  13  39  13  40   8  41   8  42   8  43   8
M  END
>  <minimizedAffinity>  (1) 
-5.66722536

>  <minimizedRMSD>  (1) 
4.34936428

$$$$
