
     RDKit          3D

 52 56  0  0  1  0  0  0  0  0999 V2000
   37.8790   25.4240   41.1730 N   0  0  0  0  0  0  0  0  0  0  0  0
   37.0440   24.4690   41.6650 C   0  0  0  0  0  0  0  0  0  0  0  0
   36.2250   23.9600   40.7500 N   0  0  0  0  0  0  0  0  0  0  0  0
   36.5250   24.5960   39.6120 C   0  0  0  0  0  0  0  0  0  0  0  0
   35.9760   24.4570   38.3340 C   0  0  0  0  0  0  0  0  0  0  0  0
   36.4920   25.2470   37.3730 N   0  0  0  0  0  0  0  0  0  0  0  0
   37.4900   26.1260   37.6460 C   0  0  0  0  0  0  0  0  0  0  0  0
   38.0300   26.2690   38.8790 N   0  0  0  0  0  0  0  0  0  0  0  0
   37.5510   25.5040   39.8730 C   0  0  0  0  0  0  0  0  0  0  0  0
   37.1020   30.5570   41.3250 C   0  0  0  0  0  0  0  0  0  0  0  0
   37.9690   29.6470   41.9310 C   0  0  0  0  0  0  0  0  0  0  0  0
   37.6030   28.3060   42.0250 C   0  0  0  0  0  0  0  0  0  0  0  0
   36.3970   27.9800   41.5050 N   0  0  0  0  0  0  0  0  0  0  0  0
   35.5700   28.8480   40.9280 C   0  0  0  0  0  0  0  0  0  0  0  0
   35.9220   30.1540   40.8340 N   0  0  0  0  0  0  0  0  0  0  0  0
   38.4030   27.2840   42.6200 N   0  0  0  0  0  0  0  0  0  0  0  0
   38.8640   27.2280   44.0030 C   0  0  0  0  0  0  0  0  0  0  0  0
   40.1010   26.3430   43.8980 C   0  0  0  0  0  0  0  0  0  0  0  0
   39.5750   25.3140   42.9400 C   0  0  0  0  0  0  0  0  0  0  0  0
   38.8660   26.1470   41.9140 C   0  0  1  0  0  0  0  0  0  0  0  0
   38.0360   26.9860   36.5480 C   0  0  0  0  0  0  0  0  0  0  0  0
   36.9980   27.5490   35.6500 C   0  0  0  0  0  0  0  0  0  0  0  0
   36.8320   29.0490   35.7280 C   0  0  0  0  0  0  0  0  0  0  0  0
   36.5210   29.4660   37.1720 C   0  0  0  0  0  0  0  0  0  0  0  0
   35.0530   29.1990   37.3540 C   0  0  0  0  0  0  0  0  0  0  0  0
   34.4800   28.9440   35.9790 C   0  0  0  0  0  0  0  0  0  0  0  0
   35.5370   29.4200   35.0370 C   0  0  0  0  0  0  0  0  0  0  0  0
   37.0464   24.1492   42.7175 H   0  0  0  0  0  0  0  0  0  0  0  0
   35.1670   23.7417   38.1247 H   0  0  0  0  0  0  0  0  0  0  0  0
   37.3900   31.6159   41.2495 H   0  0  0  0  0  0  0  0  0  0  0  0
   38.9355   29.9863   42.3320 H   0  0  0  0  0  0  0  0  0  0  0  0
   34.6035   28.5071   40.5284 H   0  0  0  0  0  0  0  0  0  0  0  0
   39.1215   28.2296   44.3779 H   0  0  0  0  0  0  0  0  0  0  0  0
   38.1075   26.8459   44.7042 H   0  0  0  0  0  0  0  0  0  0  0  0
   40.9634   26.8873   43.4857 H   0  0  0  0  0  0  0  0  0  0  0  0
   40.4825   25.9493   44.8516 H   0  0  0  0  0  0  0  0  0  0  0  0
   40.3957   24.7395   42.4856 H   0  0  0  0  0  0  0  0  0  0  0  0
   38.9256   24.5657   43.4179 H   0  0  0  0  0  0  0  0  0  0  0  0
   39.5335   26.4635   41.0989 H   0  0  0  0  0  0  0  0  0  0  0  0
   38.5882   27.8207   37.0045 H   0  0  0  0  0  0  0  0  0  0  0  0
   38.6777   26.3422   35.9285 H   0  0  0  0  0  0  0  0  0  0  0  0
   36.0347   27.0851   35.9087 H   0  0  0  0  0  0  0  0  0  0  0  0
   37.3269   27.3288   34.6237 H   0  0  0  0  0  0  0  0  0  0  0  0
   37.7423   29.5059   35.3125 H   0  0  0  0  0  0  0  0  0  0  0  0
   37.1122   28.8685   37.8815 H   0  0  0  0  0  0  0  0  0  0  0  0
   36.7723   30.5207   37.3577 H   0  0  0  0  0  0  0  0  0  0  0  0
   34.9054   28.3173   37.9949 H   0  0  0  0  0  0  0  0  0  0  0  0
   34.5542   30.0524   37.8366 H   0  0  0  0  0  0  0  0  0  0  0  0
   34.2836   27.8716   35.8327 H   0  0  0  0  0  0  0  0  0  0  0  0
   33.5204   29.4591   35.8245 H   0  0  0  0  0  0  0  0  0  0  0  0
   35.4693   30.5080   34.8898 H   0  0  0  0  0  0  0  0  0  0  0  0
   35.4464   28.9733   34.0359 H   0  0  0  0  0  0  0  0  0  0  0  0
  1  2  1  0
  1 20  1  0
  3  2  2  0
  4  9  2  0
  4  3  1  0
  5  4  1  0
  6  7  1  0
  6  5  2  0
  7  8  2  0
  8  9  1  0
  9  1  1  0
 10 11  2  0
 11 12  1  0
 12 16  1  0
 13 12  2  0
 14 13  1  0
 15 14  2  0
 15 10  1  0
 16 17  1  0
 18 17  1  0
 19 18  1  0
 20 16  1  0
 20 19  1  0
 21  7  1  0
 22 23  1  0
 22 21  1  0
 23 24  1  0
 24 25  1  0
 26 25  1  0
 27 23  1  0
 27 26  1  0
  2 28  1  0
  5 29  1  0
 10 30  1  0
 11 31  1  0
 14 32  1  0
 17 33  1  0
 17 34  1  0
 18 35  1  0
 18 36  1  0
 19 37  1  0
 19 38  1  0
 20 39  1  6
 21 40  1  0
 21 41  1  0
 22 42  1  0
 22 43  1  0
 23 44  1  0
 24 45  1  0
 24 46  1  0
 25 47  1  0
 25 48  1  0
 26 49  1  0
 26 50  1  0
 27 51  1  0
 27 52  1  0
M  ISO  8  28  14  29  14  30  14  31  14  32  14  33  13  34  13  35  13
M  ISO  8  36  13  37  13  38  13  39  13  40   8  41   8  42   8  43   8
M  ISO  8  44  13  45  13  46  13  47  13  48  13  49  13  50  13  51  13
M  ISO  1  52  13
M  END
>  <minimizedAffinity>  (1) 
-5.62421036

>  <minimizedRMSD>  (1) 
1.5832659

$$$$
