
     RDKit          3D

 47 51  0  0  1  0  0  0  0  0999 V2000
   37.9040   25.5390   41.1320 N   0  0  0  0  0  0  0  0  0  0  0  0
   36.9590   24.6600   41.6010 C   0  0  0  0  0  0  0  0  0  0  0  0
   36.2700   24.0630   40.6320 N   0  0  0  0  0  0  0  0  0  0  0  0
   36.7710   24.5560   39.4930 C   0  0  0  0  0  0  0  0  0  0  0  0
   36.4230   24.2810   38.1600 C   0  0  0  0  0  0  0  0  0  0  0  0
   37.1190   24.9470   37.2100 N   0  0  0  0  0  0  0  0  0  0  0  0
   38.0970   25.8290   37.5310 C   0  0  0  0  0  0  0  0  0  0  0  0
   38.4230   26.0870   38.8130 N   0  0  0  0  0  0  0  0  0  0  0  0
   37.7750   25.4620   39.8040 C   0  0  0  0  0  0  0  0  0  0  0  0
   36.8330   30.6160   41.1450 C   0  0  0  0  0  0  0  0  0  0  0  0
   37.7060   29.7640   41.8370 C   0  0  0  0  0  0  0  0  0  0  0  0
   37.3960   28.4000   41.9160 C   0  0  0  0  0  0  0  0  0  0  0  0
   36.2610   28.0030   41.3090 N   0  0  0  0  0  0  0  0  0  0  0  0
   35.4390   28.8290   40.6530 C   0  0  0  0  0  0  0  0  0  0  0  0
   35.7290   30.1340   40.5730 N   0  0  0  0  0  0  0  0  0  0  0  0
   38.2040   27.4400   42.5910 N   0  0  0  0  0  0  0  0  0  0  0  0
   38.5620   27.4220   44.0020 C   0  0  0  0  0  0  0  0  0  0  0  0
   39.8490   26.6190   44.0130 C   0  0  0  0  0  0  0  0  0  0  0  0
   39.4650   25.5390   43.0250 C   0  0  0  0  0  0  0  0  0  0  0  0
   38.7920   26.3240   41.9470 C   0  0  1  0  0  0  0  0  0  0  0  0
   38.8290   26.5330   36.4590 C   0  0  0  0  0  0  0  0  0  0  0  0
   38.6400   28.0180   36.4570 C   0  0  0  0  0  0  0  0  0  0  0  0
   37.2940   28.4460   36.0550 C   0  0  0  0  0  0  0  0  0  0  0  0
   36.3530   28.7610   37.0210 C   0  0  0  0  0  0  0  0  0  0  0  0
   35.0520   29.1760   36.7210 C   0  0  0  0  0  0  0  0  0  0  0  0
   34.6770   29.2800   35.4190 N   0  0  0  0  0  0  0  0  0  0  0  0
   35.6040   28.9710   34.4940 C   0  0  0  0  0  0  0  0  0  0  0  0
   36.8750   28.5660   34.7810 N   0  0  0  0  0  0  0  0  0  0  0  0
   36.7887   24.4686   42.6708 H   0  0  0  0  0  0  0  0  0  0  0  0
   35.6291   23.5643   37.9030 H   0  0  0  0  0  0  0  0  0  0  0  0
   37.0606   31.6898   41.0735 H   0  0  0  0  0  0  0  0  0  0  0  0
   38.6174   30.1595   42.3091 H   0  0  0  0  0  0  0  0  0  0  0  0
   34.5264   28.4373   40.1800 H   0  0  0  0  0  0  0  0  0  0  0  0
   38.7277   28.4410   44.3816 H   0  0  0  0  0  0  0  0  0  0  0  0
   37.7776   26.9956   44.6445 H   0  0  0  0  0  0  0  0  0  0  0  0
   40.7073   27.2113   43.6632 H   0  0  0  0  0  0  0  0  0  0  0  0
   40.1741   26.2613   45.0011 H   0  0  0  0  0  0  0  0  0  0  0  0
   40.3529   25.0147   42.6418 H   0  0  0  0  0  0  0  0  0  0  0  0
   38.8329   24.7492   43.4570 H   0  0  0  0  0  0  0  0  0  0  0  0
   39.5119   26.6745   41.1927 H   0  0  0  0  0  0  0  0  0  0  0  0
   39.9020   26.3224   36.5787 H   0  0  0  0  0  0  0  0  0  0  0  0
   38.4246   26.1626   35.5055 H   0  0  0  0  0  0  0  0  0  0  0  0
   38.8338   28.3932   37.4727 H   0  0  0  0  0  0  0  0  0  0  0  0
   39.3405   28.4280   35.7145 H   0  0  0  0  0  0  0  0  0  0  0  0
   36.6441   28.6806   38.0787 H   0  0  0  0  0  0  0  0  0  0  0  0
   34.3425   29.4148   37.5270 H   0  0  0  0  0  0  0  0  0  0  0  0
   35.3179   29.0502   33.4348 H   0  0  0  0  0  0  0  0  0  0  0  0
  1  2  1  0
  1 20  1  0
  3  2  2  0
  4  9  2  0
  4  3  1  0
  5  4  1  0
  6  7  1  0
  6  5  2  0
  7  8  2  0
  8  9  1  0
  9  1  1  0
 10 11  2  0
 11 12  1  0
 12 16  1  0
 13 12  2  0
 14 13  1  0
 15 14  2  0
 15 10  1  0
 16 17  1  0
 17 18  1  0
 19 18  1  0
 20 16  1  0
 20 19  1  0
 21  7  1  0
 22 21  1  0
 23 22  1  0
 23 24  2  0
 25 24  1  0
 26 25  2  0
 27 28  2  0
 27 26  1  0
 28 23  1  0
  2 29  1  0
  5 30  1  0
 10 31  1  0
 11 32  1  0
 14 33  1  0
 17 34  1  0
 17 35  1  0
 18 36  1  0
 18 37  1  0
 19 38  1  0
 19 39  1  0
 20 40  1  6
 21 41  1  0
 21 42  1  0
 22 43  1  0
 22 44  1  0
 24 45  1  0
 25 46  1  0
 27 47  1  0
M  ISO  8  29  14  30  14  31  14  32  14  33  14  34  13  35  13  36  13
M  ISO  8  37  13  38  13  39  13  40  13  41   8  42   8  43   8  44   8
M  ISO  3  45  14  46  14  47  14
M  END
>  <minimizedAffinity>  (1) 
-5.46140194

>  <minimizedRMSD>  (1) 
1.05030048

$$$$
