
     RDKit          3D

 40 43  0  0  1  0  0  0  0  0999 V2000
   36.7910   30.7190   41.1860 C   0  0  0  0  0  0  0  0  0  0  0  0
   37.6400   29.8360   41.8590 C   0  0  0  0  0  0  0  0  0  0  0  0
   37.3210   28.4790   41.8960 C   0  0  0  0  0  0  0  0  0  0  0  0
   36.1920   28.1140   41.2650 N   0  0  0  0  0  0  0  0  0  0  0  0
   35.3790   28.9610   40.6210 C   0  0  0  0  0  0  0  0  0  0  0  0
   35.6840   30.2710   40.5830 N   0  0  0  0  0  0  0  0  0  0  0  0
   38.1060   27.4910   42.5470 N   0  0  0  0  0  0  0  0  0  0  0  0
   38.4490   27.4270   43.9590 C   0  0  0  0  0  0  0  0  0  0  0  0
   39.7370   26.6060   43.9470 C   0  0  0  0  0  0  0  0  0  0  0  0
   39.3450   25.5660   42.9330 C   0  0  0  0  0  0  0  0  0  0  0  0
   38.6860   26.3810   41.8720 C   0  0  1  0  0  0  0  0  0  0  0  0
   37.8010   25.6330   41.0230 N   0  0  0  0  0  0  0  0  0  0  0  0
   36.9520   24.6550   41.4440 C   0  0  0  0  0  0  0  0  0  0  0  0
   36.2400   24.1180   40.4540 N   0  0  0  0  0  0  0  0  0  0  0  0
   36.6290   24.7570   39.3530 C   0  0  0  0  0  0  0  0  0  0  0  0
   36.2230   24.6100   38.0290 C   0  0  0  0  0  0  0  0  0  0  0  0
   36.8080   25.4130   37.1200 N   0  0  0  0  0  0  0  0  0  0  0  0
   37.7570   26.3310   37.4730 C   0  0  0  0  0  0  0  0  0  0  0  0
   38.1450   26.4680   38.7620 N   0  0  0  0  0  0  0  0  0  0  0  0
   37.5980   25.6970   39.7050 C   0  0  0  0  0  0  0  0  0  0  0  0
   38.3830   27.1950   36.4530 C   0  0  0  0  0  0  0  0  0  0  0  0
   37.4130   28.1310   35.7850 C   0  0  0  0  0  0  0  0  0  0  0  0
   36.9430   29.4510   36.9380 S   0  0  0  0  0  0  0  0  0  0  0  0
   37.0350   31.7911   41.1519 H   0  0  0  0  0  0  0  0  0  0  0  0
   38.5495   30.2073   42.3539 H   0  0  0  0  0  0  0  0  0  0  0  0
   34.4693   28.5889   40.1271 H   0  0  0  0  0  0  0  0  0  0  0  0
   38.6213   28.4316   44.3726 H   0  0  0  0  0  0  0  0  0  0  0  0
   37.6560   26.9913   44.5845 H   0  0  0  0  0  0  0  0  0  0  0  0
   40.6014   27.1999   43.6154 H   0  0  0  0  0  0  0  0  0  0  0  0
   40.0581   26.2160   44.9242 H   0  0  0  0  0  0  0  0  0  0  0  0
   40.2283   25.0414   42.5400 H   0  0  0  0  0  0  0  0  0  0  0  0
   38.6991   24.7756   43.3431 H   0  0  0  0  0  0  0  0  0  0  0  0
   39.4132   26.7396   41.1286 H   0  0  0  0  0  0  0  0  0  0  0  0
   36.8631   24.3404   42.4943 H   0  0  0  0  0  0  0  0  0  0  0  0
   35.4601   23.8724   37.7393 H   0  0  0  0  0  0  0  0  0  0  0  0
   39.1679   27.7941   36.9378 H   0  0  0  0  0  0  0  0  0  0  0  0
   38.7867   26.5343   35.6717 H   0  0  0  0  0  0  0  0  0  0  0  0
   37.8855   28.5736   34.8957 H   0  0  0  0  0  0  0  0  0  0  0  0
   36.5143   27.5715   35.4863 H   0  0  0  0  0  0  0  0  0  0  0  0
   37.1000   29.0100   38.2255 H   0  0  0  0  0  0  0  0  0  0  0  0
  1  2  2  0
  2  3  1  0
  3  7  1  0
  4  3  2  0
  5  4  1  0
  6  5  2  0
  6  1  1  0
  7  8  1  0
  9  8  1  0
 10  9  1  0
 11  7  1  0
 11 10  1  0
 12 13  1  0
 12 11  1  0
 14 13  2  0
 15 20  2  0
 15 14  1  0
 16 15  1  0
 17 18  1  0
 17 16  2  0
 18 19  2  0
 19 20  1  0
 20 12  1  0
 21 18  1  0
 22 21  1  0
 22 23  1  0
  1 24  1  0
  2 25  1  0
  5 26  1  0
  8 27  1  0
  8 28  1  0
  9 29  1  0
  9 30  1  0
 10 31  1  0
 10 32  1  0
 11 33  1  6
 13 34  1  0
 16 35  1  0
 21 36  1  0
 21 37  1  0
 22 38  1  0
 22 39  1  0
 23 40  1  0
M  ISO  8  24  14  25  14  26  14  27  13  28  13  29  13  30  13  31  13
M  ISO  8  32  13  33  13  34  14  35  14  36   8  37   8  38   8  39   8
M  ISO  1  40  11
M  END
>  <minimizedAffinity>  (1) 
-4.96407843

>  <minimizedRMSD>  (1) 
0.27004689

$$$$
