
     RDKit          3D

 22 23  0  0  0  0  0  0  0  0999 V2000
   37.9450   32.4820   40.1370 C   0  0  0  0  0  0  0  0  0  0  0  0
   36.8480   32.1110   39.4380 N   0  0  0  0  0  0  0  0  0  0  0  0
   36.3180   31.0560   39.9760 O   0  0  0  0  0  0  0  0  0  0  0  0
   37.0110   30.6900   41.0190 C   0  0  0  0  0  0  0  0  0  0  0  0
   38.0360   31.5740   41.1320 N   0  0  0  0  0  0  0  0  0  0  0  0
   36.8150   29.5890   41.9290 N   0  0  0  0  0  0  0  0  0  0  0  0
   37.6920   29.3300   43.0440 C   0  0  0  0  0  0  0  0  0  0  0  0
   38.9260   29.6370   42.8170 N   0  0  0  0  0  0  0  0  0  0  0  0
   37.0240   28.7780   44.1960 N   0  0  0  0  0  0  0  0  0  0  0  0
   39.6300   29.4860   43.5600 H   0  0  0  0  0  0  0  0  0  0  0  0
   39.7840   35.7890   40.1840 C   0  0  0  0  0  0  0  0  0  0  0  0
   38.7470   34.8810   40.4100 C   0  0  0  0  0  0  0  0  0  0  0  0
   38.9070   33.5660   39.9900 C   0  0  0  0  0  0  0  0  0  0  0  0
   40.0680   33.2540   39.3850 N   0  0  0  0  0  0  0  0  0  0  0  0
   41.0680   34.1380   39.1680 C   0  0  0  0  0  0  0  0  0  0  0  0
   40.9190   35.4270   39.5760 N   0  0  0  0  0  0  0  0  0  0  0  0
   36.0137   28.9601   41.7760 H   0  0  0  0  0  0  0  0  0  0  0  0
   37.5617   28.5568   45.0462 H   0  0  0  0  0  0  0  0  0  0  0  0
   36.0090   28.6048   44.1689 H   0  0  0  0  0  0  0  0  0  0  0  0
   39.6639   36.8310   40.5153 H   0  0  0  0  0  0  0  0  0  0  0  0
   37.8213   35.2007   40.9109 H   0  0  0  0  0  0  0  0  0  0  0  0
   41.9931   33.8178   38.6663 H   0  0  0  0  0  0  0  0  0  0  0  0
  1  5  1  0
  2  3  1  0
  2  1  2  0
  3  4  1  0
  4  5  2  0
  4  6  1  0
  6  7  1  0
  7  9  1  0
  8  7  2  0
  8 10  1  0
 11 12  2  0
 13  1  1  0
 13 12  1  0
 14 13  2  0
 15 14  1  0
 15 16  2  0
 16 11  1  0
  6 17  1  0
  9 18  1  0
  9 19  1  0
 11 20  1  0
 12 21  1  0
 15 22  1  0
M  ISO  3  20  14  21  14  22  14
M  END
>  <minimizedAffinity>  (1) 
-5.42226171

>  <minimizedRMSD>  (1) 
3.73959565

$$$$
