
     RDKit          3D

 31 33  0  0  0  0  0  0  0  0999 V2000
   38.1570   32.3590   40.6090 C   0  0  0  0  0  0  0  0  0  0  0  0
   36.8540   32.1880   40.3410 N   0  0  0  0  0  0  0  0  0  0  0  0
   36.4680   31.0120   40.7580 O   0  0  0  0  0  0  0  0  0  0  0  0
   37.4670   30.3730   41.3040 C   0  0  0  0  0  0  0  0  0  0  0  0
   38.5300   31.2050   41.2170 N   0  0  0  0  0  0  0  0  0  0  0  0
   41.2330   34.4870   40.0130 C   0  0  0  0  0  0  0  0  0  0  0  0
   40.4880   33.3240   40.2260 C   0  0  0  0  0  0  0  0  0  0  0  0
   39.1120   33.4540   40.3780 C   0  0  0  0  0  0  0  0  0  0  0  0
   38.5600   34.7030   40.3130 N   0  0  0  0  0  0  0  0  0  0  0  0
   39.3300   35.7970   40.1040 C   0  0  0  0  0  0  0  0  0  0  0  0
   40.6710   35.6900   39.9530 N   0  0  0  0  0  0  0  0  0  0  0  0
   37.4330   29.0160   41.8930 C   0  0  0  0  0  0  0  0  0  0  0  0
   38.5640   28.1860   41.3200 C   0  0  0  0  0  0  0  0  0  0  0  0
   38.5230   26.8170   41.9770 C   0  0  0  0  0  0  0  0  0  0  0  0
   38.8290   27.0520   43.4580 C   0  0  0  0  0  0  0  0  0  0  0  0
   37.5980   27.7490   44.0270 C   0  0  0  0  0  0  0  0  0  0  0  0
   37.5810   29.1390   43.3820 C   0  0  0  0  0  0  0  0  0  0  0  0
   42.3230   34.4039   39.8907 H   0  0  0  0  0  0  0  0  0  0  0  0
   40.9741   32.3383   40.2719 H   0  0  0  0  0  0  0  0  0  0  0  0
   38.8579   36.7894   40.0561 H   0  0  0  0  0  0  0  0  0  0  0  0
   36.4799   28.5204   41.6563 H   0  0  0  0  0  0  0  0  0  0  0  0
   38.4364   28.0818   40.2324 H   0  0  0  0  0  0  0  0  0  0  0  0
   39.5310   28.6733   41.5136 H   0  0  0  0  0  0  0  0  0  0  0  0
   37.5267   26.3660   41.8592 H   0  0  0  0  0  0  0  0  0  0  0  0
   39.2483   26.1281   41.5195 H   0  0  0  0  0  0  0  0  0  0  0  0
   38.9992   26.0941   43.9713 H   0  0  0  0  0  0  0  0  0  0  0  0
   39.7378   27.6566   43.5943 H   0  0  0  0  0  0  0  0  0  0  0  0
   36.6858   27.1926   43.7657 H   0  0  0  0  0  0  0  0  0  0  0  0
   37.6332   27.8085   45.1248 H   0  0  0  0  0  0  0  0  0  0  0  0
   38.5230   29.6583   43.6122 H   0  0  0  0  0  0  0  0  0  0  0  0
   36.7306   29.7107   43.7820 H   0  0  0  0  0  0  0  0  0  0  0  0
  1  5  1  0
  2  1  2  0
  2  3  1  0
  3  4  1  0
  4 12  1  0
  5  4  2  0
  6  7  2  0
  7  8  1  0
  8  1  1  0
  9  8  2  0
 10  9  1  0
 11  6  1  0
 11 10  2  0
 12 17  1  0
 13 12  1  0
 13 14  1  0
 14 15  1  0
 15 16  1  0
 17 16  1  0
  6 18  1  0
  7 19  1  0
 10 20  1  0
 12 21  1  0
 13 22  1  0
 13 23  1  0
 14 24  1  0
 14 25  1  0
 15 26  1  0
 15 27  1  0
 16 28  1  0
 16 29  1  0
 17 30  1  0
 17 31  1  0
M  ISO  8  18  14  19  14  20  14  21  13  22  13  23  13  24  13  25  13
M  ISO  6  26  13  27  13  28  13  29  13  30  13  31  13
M  END
>  <minimizedAffinity>  (1) 
-5.31640339

>  <minimizedRMSD>  (1) 
3.56476665

$$$$
