
     RDKit          3D

 28 30  0  0  0  0  0  0  0  0999 V2000
   38.0110   32.1450   40.5470 C   0  0  0  0  0  0  0  0  0  0  0  0
   36.7710   31.8140   40.1420 N   0  0  0  0  0  0  0  0  0  0  0  0
   36.3640   30.7550   40.7710 O   0  0  0  0  0  0  0  0  0  0  0  0
   37.2900   30.3470   41.6000 C   0  0  0  0  0  0  0  0  0  0  0  0
   38.3200   31.2100   41.4660 N   0  0  0  0  0  0  0  0  0  0  0  0
   40.9380   34.2340   39.3660 C   0  0  0  0  0  0  0  0  0  0  0  0
   40.2040   33.0690   39.6370 C   0  0  0  0  0  0  0  0  0  0  0  0
   38.9390   33.2180   40.1900 C   0  0  0  0  0  0  0  0  0  0  0  0
   38.5110   34.4740   40.4260 N   0  0  0  0  0  0  0  0  0  0  0  0
   39.2350   35.5800   40.1580 C   0  0  0  0  0  0  0  0  0  0  0  0
   40.4750   35.4530   39.6160 N   0  0  0  0  0  0  0  0  0  0  0  0
   37.2710   29.2040   42.5070 C   0  0  0  0  0  0  0  0  0  0  0  0
   36.6970   27.9450   41.8470 C   0  0  0  0  0  0  0  0  0  0  0  0
   36.9120   26.9740   43.0160 C   0  0  0  0  0  0  0  0  0  0  0  0
   38.2810   27.3720   43.5590 C   0  0  0  0  0  0  0  0  0  0  0  0
   38.6300   28.6990   42.8720 C   0  0  0  0  0  0  0  0  0  0  0  0
   41.9415   34.1327   38.9270 H   0  0  0  0  0  0  0  0  0  0  0  0
   40.6163   32.0728   39.4190 H   0  0  0  0  0  0  0  0  0  0  0  0
   38.8251   36.5771   40.3764 H   0  0  0  0  0  0  0  0  0  0  0  0
   36.6950   29.5992   43.3568 H   0  0  0  0  0  0  0  0  0  0  0  0
   35.6336   28.0577   41.5891 H   0  0  0  0  0  0  0  0  0  0  0  0
   37.1499   27.6536   40.8879 H   0  0  0  0  0  0  0  0  0  0  0  0
   36.1326   27.1012   43.7818 H   0  0  0  0  0  0  0  0  0  0  0  0
   36.8610   25.9180   42.7121 H   0  0  0  0  0  0  0  0  0  0  0  0
   38.2371   27.5048   44.6501 H   0  0  0  0  0  0  0  0  0  0  0  0
   39.0378   26.5994   43.3583 H   0  0  0  0  0  0  0  0  0  0  0  0
   39.2535   28.5392   41.9800 H   0  0  0  0  0  0  0  0  0  0  0  0
   39.2155   29.3900   43.4963 H   0  0  0  0  0  0  0  0  0  0  0  0
  1  5  1  0
  2  1  2  0
  2  3  1  0
  3  4  1  0
  4 12  1  0
  5  4  2  0
  6 11  2  0
  6  7  1  0
  7  8  2  0
  8  9  1  0
  8  1  1  0
 10  9  2  0
 11 10  1  0
 12 16  1  0
 13 12  1  0
 13 14  1  0
 14 15  1  0
 16 15  1  0
  6 17  1  0
  7 18  1  0
 10 19  1  0
 12 20  1  0
 13 21  1  0
 13 22  1  0
 14 23  1  0
 14 24  1  0
 15 25  1  0
 15 26  1  0
 16 27  1  0
 16 28  1  0
M  ISO  8  17  14  18  14  19  14  20  13  21  13  22  13  23  13  24  13
M  ISO  4  25  13  26  13  27  13  28  13
M  END
>  <minimizedAffinity>  (1) 
-5.29171515

>  <minimizedRMSD>  (1) 
3.46742177

$$$$
