
     RDKit          3D

 23 25  0  0  0  0  0  0  0  0999 V2000
   38.1970   32.5990   40.5300 C   0  0  0  0  0  0  0  0  0  0  0  0
   36.9270   32.4150   40.1140 N   0  0  0  0  0  0  0  0  0  0  0  0
   36.5030   31.2550   40.5210 O   0  0  0  0  0  0  0  0  0  0  0  0
   37.4350   30.6340   41.2030 C   0  0  0  0  0  0  0  0  0  0  0  0
   38.5060   31.4740   41.2140 N   0  0  0  0  0  0  0  0  0  0  0  0
   41.3090   34.7210   40.2090 C   0  0  0  0  0  0  0  0  0  0  0  0
   40.5570   33.5560   40.3710 C   0  0  0  0  0  0  0  0  0  0  0  0
   39.1650   33.6930   40.3740 C   0  0  0  0  0  0  0  0  0  0  0  0
   38.6220   34.9380   40.2230 N   0  0  0  0  0  0  0  0  0  0  0  0
   39.4030   36.0310   40.0710 C   0  0  0  0  0  0  0  0  0  0  0  0
   40.7550   35.9290   40.0620 N   0  0  0  0  0  0  0  0  0  0  0  0
   37.4810   29.3360   41.8670 C   0  0  0  0  0  0  0  0  0  0  0  0
   37.9540   29.1330   43.1520 C   0  0  0  0  0  0  0  0  0  0  0  0
   37.9460   27.8710   43.6630 C   0  0  0  0  0  0  0  0  0  0  0  0
   37.4880   26.8080   42.9470 N   0  0  0  0  0  0  0  0  0  0  0  0
   37.0300   27.0410   41.6860 C   0  0  0  0  0  0  0  0  0  0  0  0
   37.0220   28.2710   41.1500 N   0  0  0  0  0  0  0  0  0  0  0  0
   42.4061   34.6416   40.2020 H   0  0  0  0  0  0  0  0  0  0  0  0
   41.0378   32.5739   40.4910 H   0  0  0  0  0  0  0  0  0  0  0  0
   38.9341   37.0190   39.9527 H   0  0  0  0  0  0  0  0  0  0  0  0
   38.3297   29.9765   43.7498 H   0  0  0  0  0  0  0  0  0  0  0  0
   38.3205   27.7058   44.6840 H   0  0  0  0  0  0  0  0  0  0  0  0
   36.6556   26.1961   41.0893 H   0  0  0  0  0  0  0  0  0  0  0  0
  1  5  1  0
  2  3  1  0
  2  1  2  0
  3  4  1  0
  4  5  2  0
  4 12  1  0
  6  7  2  0
  7  8  1  0
  8  1  1  0
  9  8  2  0
 10  9  1  0
 11 10  2  0
 11  6  1  0
 12 13  2  0
 13 14  1  0
 15 14  2  0
 16 15  1  0
 17 16  2  0
 17 12  1  0
  6 18  1  0
  7 19  1  0
 10 20  1  0
 13 21  1  0
 14 22  1  0
 16 23  1  0
M  ISO  6  18  14  19  14  20  14  21  14  22  14  23  14
M  END
>  <minimizedAffinity>  (1) 
-5.16319799

>  <minimizedRMSD>  (1) 
3.90789247

$$$$
