
     RDKit          3D

 28 30  0  0  0  0  0  0  0  0999 V2000
   38.3700   32.9050   40.2270 C   0  0  0  0  0  0  0  0  0  0  0  0
   37.0600   32.7200   39.9950 N   0  0  0  0  0  0  0  0  0  0  0  0
   36.6890   31.5410   40.3690 O   0  0  0  0  0  0  0  0  0  0  0  0
   37.7240   30.8890   40.8620 C   0  0  0  0  0  0  0  0  0  0  0  0
   38.7540   31.7430   40.7690 N   0  0  0  0  0  0  0  0  0  0  0  0
   37.7450   29.5660   41.3830 N   0  0  0  0  0  0  0  0  0  0  0  0
   37.5040   29.2330   42.7760 C   0  0  0  0  0  0  0  0  0  0  0  0
   38.7190   28.4020   43.2090 C   0  0  0  0  0  0  0  0  0  0  0  0
   38.6570   27.2140   42.4770 O   0  0  0  0  0  0  0  0  0  0  0  0
   38.9330   27.4200   41.1470 C   0  0  0  0  0  0  0  0  0  0  0  0
   38.0220   28.4530   40.4950 C   0  0  0  0  0  0  0  0  0  0  0  0
   41.3220   35.1110   39.3770 C   0  0  0  0  0  0  0  0  0  0  0  0
   40.5900   33.9280   39.5350 C   0  0  0  0  0  0  0  0  0  0  0  0
   39.2820   34.0280   40.0000 C   0  0  0  0  0  0  0  0  0  0  0  0
   38.7950   35.2600   40.2730 N   0  0  0  0  0  0  0  0  0  0  0  0
   39.5350   36.3770   40.1050 C   0  0  0  0  0  0  0  0  0  0  0  0
   40.8010   36.3050   39.6580 N   0  0  0  0  0  0  0  0  0  0  0  0
   37.4262   30.1471   43.3829 H   0  0  0  0  0  0  0  0  0  0  0  0
   36.5614   28.6818   42.9090 H   0  0  0  0  0  0  0  0  0  0  0  0
   39.6506   28.9415   42.9829 H   0  0  0  0  0  0  0  0  0  0  0  0
   38.7076   28.2078   44.2917 H   0  0  0  0  0  0  0  0  0  0  0  0
   39.9735   27.7651   41.0558 H   0  0  0  0  0  0  0  0  0  0  0  0
   38.7659   26.4647   40.6280 H   0  0  0  0  0  0  0  0  0  0  0  0
   38.5107   28.8356   39.5868 H   0  0  0  0  0  0  0  0  0  0  0  0
   37.0672   27.9626   40.2545 H   0  0  0  0  0  0  0  0  0  0  0  0
   42.3574   35.0532   39.0102 H   0  0  0  0  0  0  0  0  0  0  0  0
   41.0348   32.9500   39.2990 H   0  0  0  0  0  0  0  0  0  0  0  0
   39.0963   37.3587   40.3369 H   0  0  0  0  0  0  0  0  0  0  0  0
  1  5  1  0
  2  1  2  0
  2  3  1  0
  3  4  1  0
  4  6  1  0
  5  4  2  0
  6  7  1  0
  7  8  1  0
  9  8  1  0
 10  9  1  0
 11 10  1  0
 11  6  1  0
 12 13  2  0
 12 17  1  0
 13 14  1  0
 14  1  1  0
 14 15  2  0
 16 15  1  0
 17 16  2  0
  7 18  1  0
  7 19  1  0
  8 20  1  0
  8 21  1  0
 10 22  1  0
 10 23  1  0
 11 24  1  0
 11 25  1  0
 12 26  1  0
 13 27  1  0
 16 28  1  0
M  ISO  8  18  13  19  13  20  13  21  13  22  13  23  13  24  13  25  13
M  ISO  3  26  14  27  14  28  14
M  END
>  <minimizedAffinity>  (1) 
-5.13810539

>  <minimizedRMSD>  (1) 
4.31992245

$$$$
