
     RDKit          3D

 22 24  0  0  0  0  0  0  0  0999 V2000
   38.3180   32.4020   40.6830 C   0  0  0  0  0  0  0  0  0  0  0  0
   37.0290   32.1330   40.4340 N   0  0  0  0  0  0  0  0  0  0  0  0
   36.7340   30.9530   40.9090 O   0  0  0  0  0  0  0  0  0  0  0  0
   37.7720   30.4040   41.4740 C   0  0  0  0  0  0  0  0  0  0  0  0
   38.7500   31.3100   41.3280 N   0  0  0  0  0  0  0  0  0  0  0  0
   37.8620   29.1300   42.1060 N   0  0  0  0  0  0  0  0  0  0  0  0
   37.9450   27.9560   41.4530 C   0  0  0  0  0  0  0  0  0  0  0  0
   38.0120   27.0110   42.4570 C   0  0  0  0  0  0  0  0  0  0  0  0
   37.9700   27.6180   43.6580 N   0  0  0  0  0  0  0  0  0  0  0  0
   37.8760   28.9620   43.4550 C   0  0  0  0  0  0  0  0  0  0  0  0
   41.2280   34.6930   39.9150 C   0  0  0  0  0  0  0  0  0  0  0  0
   40.5670   33.4850   40.1780 C   0  0  0  0  0  0  0  0  0  0  0  0
   39.1920   33.5450   40.3930 C   0  0  0  0  0  0  0  0  0  0  0  0
   38.5720   34.7620   40.3370 N   0  0  0  0  0  0  0  0  0  0  0  0
   39.2590   35.8920   40.0810 C   0  0  0  0  0  0  0  0  0  0  0  0
   40.6000   35.8670   39.8660 N   0  0  0  0  0  0  0  0  0  0  0  0
   37.9568   27.7878   40.3660 H   0  0  0  0  0  0  0  0  0  0  0  0
   38.0883   25.9250   42.2994 H   0  0  0  0  0  0  0  0  0  0  0  0
   37.8226   29.7478   44.2229 H   0  0  0  0  0  0  0  0  0  0  0  0
   42.3140   34.6705   39.7413 H   0  0  0  0  0  0  0  0  0  0  0  0
   41.1113   32.5298   40.2131 H   0  0  0  0  0  0  0  0  0  0  0  0
   38.7243   36.8526   40.0454 H   0  0  0  0  0  0  0  0  0  0  0  0
  1  5  1  0
  2  1  2  0
  2  3  1  0
  3  4  1  0
  4  6  1  0
  5  4  2  0
  6 10  1  0
  7  6  1  0
  7  8  2  0
  8  9  1  0
 10  9  2  0
 11 12  2  0
 12 13  1  0
 13  1  1  0
 14 13  2  0
 15 14  1  0
 16 11  1  0
 16 15  2  0
  7 17  1  0
  8 18  1  0
 10 19  1  0
 11 20  1  0
 12 21  1  0
 15 22  1  0
M  ISO  6  17  14  18  14  19  14  20  14  21  14  22  14
M  END
>  <minimizedAffinity>  (1) 
-5.02900124

>  <minimizedRMSD>  (1) 
3.56475043

$$$$
