
     RDKit          3D

 18 19  0  0  0  0  0  0  0  0999 V2000
   39.4150   33.2860   40.7510 C   0  0  0  0  0  0  0  0  0  0  0  0
   38.8940   32.0320   41.1200 C   0  0  0  0  0  0  0  0  0  0  0  0
   37.6080   31.7220   40.6770 C   0  0  0  0  0  0  0  0  0  0  0  0
   36.9300   32.6360   39.9190 N   0  0  0  0  0  0  0  0  0  0  0  0
   37.4910   33.8290   39.5970 C   0  0  0  0  0  0  0  0  0  0  0  0
   38.7290   34.1590   40.0090 N   0  0  0  0  0  0  0  0  0  0  0  0
   36.8900   30.4750   40.9520 C   0  0  0  0  0  0  0  0  0  0  0  0
   35.8240   29.8750   40.3850 N   0  0  0  0  0  0  0  0  0  0  0  0
   35.5540   28.7610   40.9890 O   0  0  0  0  0  0  0  0  0  0  0  0
   36.4150   28.5770   41.9690 C   0  0  0  0  0  0  0  0  0  0  0  0
   37.2580   29.6430   41.9550 N   0  0  0  0  0  0  0  0  0  0  0  0
   36.5990   27.5140   42.9740 C   0  0  0  0  0  0  0  0  0  0  0  0
   37.2570   26.4620   42.8060 O   0  0  0  0  0  0  0  0  0  0  0  0
   36.0370   27.5960   44.2310 O   0  0  0  0  0  0  0  0  0  0  0  0
   40.4266   33.5577   41.0868 H   0  0  0  0  0  0  0  0  0  0  0  0
   39.4757   31.3265   41.7315 H   0  0  0  0  0  0  0  0  0  0  0  0
   36.9205   34.5430   38.9849 H   0  0  0  0  0  0  0  0  0  0  0  0
   36.1781   26.8662   44.8849 H   0  0  0  0  0  0  0  0  0  0  0  0
  1  2  2  0
  3  7  1  0
  3  2  1  0
  4  3  2  0
  5  4  1  0
  5  6  2  0
  6  1  1  0
  7 11  1  0
  8  7  2  0
  8  9  1  0
  9 10  1  0
 10 12  1  0
 11 10  2  0
 12 14  1  0
 13 12  2  0
  1 15  1  0
  2 16  1  0
  5 17  1  0
 14 18  1  0
M  ISO  4  15  14  16  14  17  14  18   3
M  END
>  <minimizedAffinity>  (1) 
-4.321383

>  <minimizedRMSD>  (1) 
1.83034265

$$$$
