
     RDKit          3D

 30 32  0  0  0  0  0  0  0  0999 V2000
   38.5940   30.1610   40.7380 C   0  0  0  0  0  0  0  0  0  0  0  0
   38.1890   30.5910   39.5290 N   0  0  0  0  0  0  0  0  0  0  0  0
   39.0350   31.4520   39.0600 O   0  0  0  0  0  0  0  0  0  0  0  0
   40.0270   31.6360   39.9200 C   0  0  0  0  0  0  0  0  0  0  0  0
   39.7410   30.8250   40.9650 N   0  0  0  0  0  0  0  0  0  0  0  0
   41.1630   32.4980   39.7930 N   0  0  0  0  0  0  0  0  0  0  0  0
   42.2330   32.1340   38.9250 C   0  0  0  0  0  0  0  0  0  0  0  0
   43.5590   32.7370   39.2250 C   0  0  0  0  0  0  0  0  0  0  0  0
   43.5220   33.9580   40.1010 C   0  0  0  0  0  0  0  0  0  0  0  0
   42.5340   33.7930   41.2490 C   0  0  0  0  0  0  0  0  0  0  0  0
   41.1590   33.7210   40.5740 C   0  0  0  0  0  0  0  0  0  0  0  0
   37.4420   28.3260   43.8330 C   0  0  0  0  0  0  0  0  0  0  0  0
   38.0340   29.3630   43.0890 C   0  0  0  0  0  0  0  0  0  0  0  0
   38.0360   29.2130   41.6970 C   0  0  0  0  0  0  0  0  0  0  0  0
   37.4720   28.0850   41.1680 N   0  0  0  0  0  0  0  0  0  0  0  0
   36.9160   27.1200   41.9340 C   0  0  0  0  0  0  0  0  0  0  0  0
   36.9020   27.2440   43.2740 N   0  0  0  0  0  0  0  0  0  0  0  0
   41.9525   32.4321   37.9040 H   0  0  0  0  0  0  0  0  0  0  0  0
   42.3658   31.0506   39.0615 H   0  0  0  0  0  0  0  0  0  0  0  0
   44.1734   31.9756   39.7278 H   0  0  0  0  0  0  0  0  0  0  0  0
   43.9710   33.0657   38.2595 H   0  0  0  0  0  0  0  0  0  0  0  0
   44.5261   34.1307   40.5158 H   0  0  0  0  0  0  0  0  0  0  0  0
   43.1988   34.8123   39.4881 H   0  0  0  0  0  0  0  0  0  0  0  0
   42.7403   32.8684   41.8081 H   0  0  0  0  0  0  0  0  0  0  0  0
   42.5982   34.6175   41.9743 H   0  0  0  0  0  0  0  0  0  0  0  0
   41.0078   34.5923   39.9198 H   0  0  0  0  0  0  0  0  0  0  0  0
   40.3451   33.7250   41.3140 H   0  0  0  0  0  0  0  0  0  0  0  0
   37.4241   28.4128   44.9294 H   0  0  0  0  0  0  0  0  0  0  0  0
   38.4728   30.2463   43.5760 H   0  0  0  0  0  0  0  0  0  0  0  0
   36.4738   26.2309   41.4608 H   0  0  0  0  0  0  0  0  0  0  0  0
  1  5  1  0
  1 14  1  0
  2  1  2  0
  3  2  1  0
  3  4  1  0
  4  5  2  0
  6  4  1  0
  6 11  1  0
  7  8  1  0
  7  6  1  0
  8  9  1  0
  9 10  1  0
 11 10  1  0
 13 12  2  0
 14 13  1  0
 15 14  2  0
 15 16  1  0
 16 17  2  0
 17 12  1  0
  7 18  1  0
  7 19  1  0
  8 20  1  0
  8 21  1  0
  9 22  1  0
  9 23  1  0
 10 24  1  0
 10 25  1  0
 11 26  1  0
 11 27  1  0
 12 28  1  0
 13 29  1  0
 16 30  1  0
M  ISO  8  18  13  19  13  20  13  21  13  22  13  23  13  24  13  25  13
M  ISO  5  26  13  27  13  28  14  29  14  30  14
M  END
>  <minimizedAffinity>  (1) 
-4.06902552

>  <minimizedRMSD>  (1) 
7.04347992

$$$$
