
     RDKit          3D

 17 18  0  0  0  0  0  0  0  0999 V2000
   39.3720   33.1990   40.6920 C   0  0  0  0  0  0  0  0  0  0  0  0
   39.0040   31.9490   41.2000 C   0  0  0  0  0  0  0  0  0  0  0  0
   37.7580   31.4530   40.8360 C   0  0  0  0  0  0  0  0  0  0  0  0
   36.9840   32.2020   40.0220 N   0  0  0  0  0  0  0  0  0  0  0  0
   37.3640   33.4060   39.5470 C   0  0  0  0  0  0  0  0  0  0  0  0
   38.5840   33.9090   39.8920 N   0  0  0  0  0  0  0  0  0  0  0  0
   37.1820   30.1680   41.2570 C   0  0  0  0  0  0  0  0  0  0  0  0
   36.3450   29.2940   40.6820 N   0  0  0  0  0  0  0  0  0  0  0  0
   36.1280   28.2890   41.4630 O   0  0  0  0  0  0  0  0  0  0  0  0
   36.7970   28.4370   42.5810 C   0  0  0  0  0  0  0  0  0  0  0  0
   37.4610   29.6180   42.4560 N   0  0  0  0  0  0  0  0  0  0  0  0
   36.9390   27.6520   43.7940 C   0  0  0  0  0  0  0  0  0  0  0  0
   36.6590   28.0020   44.9690 O   0  0  0  0  0  0  0  0  0  0  0  0
   40.3543   33.6113   40.9661 H   0  0  0  0  0  0  0  0  0  0  0  0
   39.6744   31.3809   41.8616 H   0  0  0  0  0  0  0  0  0  0  0  0
   36.6953   33.9776   38.8867 H   0  0  0  0  0  0  0  0  0  0  0  0
   37.3373   26.6340   43.6712 H   0  0  0  0  0  0  0  0  0  0  0  0
  1  2  2  0
  3  2  1  0
  3  7  1  0
  4  3  2  0
  5  6  2  0
  5  4  1  0
  6  1  1  0
  7 11  1  0
  8  7  2  0
  8  9  1  0
  9 10  1  0
 10 12  1  0
 11 10  2  0
 12 13  2  0
  1 14  1  0
  2 15  1  0
  5 16  1  0
 12 17  1  0
M  ISO  4  14  14  15  14  16  14  17   6
M  END
>  <minimizedAffinity>  (1) 
-3.90732217

>  <minimizedRMSD>  (1) 
1.2447052

$$$$
