
     RDKit          3D

 18 19  0  0  0  0  0  0  0  0999 V2000
   39.4090   33.2090   40.7040 C   0  0  0  0  0  0  0  0  0  0  0  0
   39.0330   31.9510   41.2250 C   0  0  0  0  0  0  0  0  0  0  0  0
   37.7470   31.4980   40.8730 C   0  0  0  0  0  0  0  0  0  0  0  0
   36.9950   32.2880   40.0800 N   0  0  0  0  0  0  0  0  0  0  0  0
   37.3980   33.4810   39.6080 C   0  0  0  0  0  0  0  0  0  0  0  0
   38.6230   33.9430   39.9270 N   0  0  0  0  0  0  0  0  0  0  0  0
   37.1700   30.2340   41.3040 C   0  0  0  0  0  0  0  0  0  0  0  0
   36.2050   29.4410   40.7800 N   0  0  0  0  0  0  0  0  0  0  0  0
   36.0370   28.4010   41.5370 O   0  0  0  0  0  0  0  0  0  0  0  0
   36.8460   28.4470   42.5600 C   0  0  0  0  0  0  0  0  0  0  0  0
   37.5450   29.5820   42.4110 N   0  0  0  0  0  0  0  0  0  0  0  0
   37.0690   27.5380   43.7090 C   0  0  0  0  0  0  0  0  0  0  0  0
   40.4057   33.6006   40.9557 H   0  0  0  0  0  0  0  0  0  0  0  0
   39.7040   31.3611   41.8667 H   0  0  0  0  0  0  0  0  0  0  0  0
   36.7320   34.0759   38.9657 H   0  0  0  0  0  0  0  0  0  0  0  0
   36.9326   28.0940   44.6483 H   0  0  0  0  0  0  0  0  0  0  0  0
   36.3477   26.7086   43.6658 H   0  0  0  0  0  0  0  0  0  0  0  0
   38.0922   27.1366   43.6658 H   0  0  0  0  0  0  0  0  0  0  0  0
  1  2  2  0
  3  2  1  0
  3  7  1  0
  4  3  2  0
  5  6  2  0
  5  4  1  0
  6  1  1  0
  7 11  1  0
  8  7  2  0
  8  9  1  0
  9 10  1  0
 10 12  1  0
 11 10  2  0
  1 13  1  0
  2 14  1  0
  5 15  1  0
 12 16  1  0
 12 17  1  0
 12 18  1  0
M  ISO  6  13  14  14  14  15  14  16   8  17   8  18   8
M  END
>  <minimizedAffinity>  (1) 
-3.87104774

>  <minimizedRMSD>  (1) 
1.18586719

$$$$
