
     RDKit          3D

 16 17  0  0  0  0  0  0  0  0999 V2000
   39.4780   33.3300   40.7370 C   0  0  0  0  0  0  0  0  0  0  0  0
   38.9680   32.0700   41.1160 C   0  0  0  0  0  0  0  0  0  0  0  0
   37.6680   31.7730   40.6880 C   0  0  0  0  0  0  0  0  0  0  0  0
   36.9870   32.6790   39.9580 N   0  0  0  0  0  0  0  0  0  0  0  0
   37.5280   33.8800   39.6210 C   0  0  0  0  0  0  0  0  0  0  0  0
   38.7760   34.2060   40.0120 N   0  0  0  0  0  0  0  0  0  0  0  0
   36.9570   30.5210   40.9750 C   0  0  0  0  0  0  0  0  0  0  0  0
   35.7720   30.0220   40.5510 N   0  0  0  0  0  0  0  0  0  0  0  0
   35.5680   28.8610   41.0880 O   0  0  0  0  0  0  0  0  0  0  0  0
   36.5800   28.5400   41.8720 C   0  0  0  0  0  0  0  0  0  0  0  0
   37.4610   29.5760   41.8100 N   0  0  0  0  0  0  0  0  0  0  0  0
   36.9640   27.1330   42.8980 S   0  0  0  0  0  0  0  0  0  0  0  0
   40.4962   33.6026   41.0516 H   0  0  0  0  0  0  0  0  0  0  0  0
   39.5586   31.3606   41.7143 H   0  0  0  0  0  0  0  0  0  0  0  0
   36.9412   34.5929   39.0231 H   0  0  0  0  0  0  0  0  0  0  0  0
   36.8667   27.4896   44.2172 H   0  0  0  0  0  0  0  0  0  0  0  0
  1  2  2  0
  3  7  1  0
  3  2  1  0
  4  3  2  0
  5  4  1  0
  5  6  2  0
  6  1  1  0
  7 11  1  0
  8  7  2  0
  8  9  1  0
  9 10  1  0
 10 12  1  0
 11 10  2  0
  1 13  1  0
  2 14  1  0
  5 15  1  0
 12 16  1  0
M  ISO  4  13  14  14  14  15  14  16  11
M  END
>  <minimizedAffinity>  (1) 
-3.64555883

>  <minimizedRMSD>  (1) 
1.72749817

$$$$
