
     RDKit          3D

 13 13  0  0  0  0  0  0  0  0999 V2000
   39.1370   28.3770   43.1380 C   0  0  0  0  0  0  0  0  0  0  0  0
   38.3750   27.2130   43.3950 C   0  0  0  0  0  0  0  0  0  0  0  0
   37.0540   27.1820   42.9260 C   0  0  0  0  0  0  0  0  0  0  0  0
   36.5810   28.2640   42.2530 N   0  0  0  0  0  0  0  0  0  0  0  0
   37.3440   29.3490   42.0320 C   0  0  0  0  0  0  0  0  0  0  0  0
   38.6050   29.4090   42.4680 N   0  0  0  0  0  0  0  0  0  0  0  0
   36.8450   30.5130   41.3130 C   0  0  0  0  0  0  0  0  0  0  0  0
   37.5380   31.2110   40.5280 O   0  0  0  0  0  0  0  0  0  0  0  0
   35.5640   31.0230   41.3800 O   0  0  0  0  0  0  0  0  0  0  0  0
   40.1769   28.4358   43.4917 H   0  0  0  0  0  0  0  0  0  0  0  0
   38.8041   26.3617   43.9438 H   0  0  0  0  0  0  0  0  0  0  0  0
   36.4157   26.3030   43.0986 H   0  0  0  0  0  0  0  0  0  0  0  0
   35.3214   31.8230   40.8497 H   0  0  0  0  0  0  0  0  0  0  0  0
  1  2  2  0
  3  2  1  0
  4  3  2  0
  5  4  1  0
  5  6  2  0
  6  1  1  0
  7  9  1  0
  7  5  1  0
  8  7  2  0
  1 10  1  0
  2 11  1  0
  3 12  1  0
  9 13  1  0
M  ISO  4  10  14  11  14  12  14  13   3
M  END
>  <minimizedAffinity>  (1) 
-3.61059618

>  <minimizedRMSD>  (1) 
1.35625648

$$$$
