
     RDKit          3D

 23 25  0  0  0  0  0  0  0  0999 V2000
   37.1330   30.3400   37.3630 C   0  0  0  0  0  0  0  0  0  0  0  0
   37.5120   31.6040   37.6420 N   0  0  0  0  0  0  0  0  0  0  0  0
   37.8550   31.7000   38.8950 O   0  0  0  0  0  0  0  0  0  0  0  0
   37.7230   30.5470   39.4800 C   0  0  0  0  0  0  0  0  0  0  0  0
   37.2710   29.6830   38.5310 N   0  0  0  0  0  0  0  0  0  0  0  0
   36.0540   29.4460   33.8540 C   0  0  0  0  0  0  0  0  0  0  0  0
   36.5210   30.2450   34.8930 C   0  0  0  0  0  0  0  0  0  0  0  0
   36.6610   29.6720   36.1540 C   0  0  0  0  0  0  0  0  0  0  0  0
   36.3320   28.3530   36.3060 N   0  0  0  0  0  0  0  0  0  0  0  0
   35.8810   27.6170   35.2610 C   0  0  0  0  0  0  0  0  0  0  0  0
   35.7410   28.1600   34.0390 N   0  0  0  0  0  0  0  0  0  0  0  0
   37.9910   30.2000   40.8670 C   0  0  0  0  0  0  0  0  0  0  0  0
   38.8740   30.7660   41.6880 N   0  0  0  0  0  0  0  0  0  0  0  0
   38.8150   30.1680   42.8550 O   0  0  0  0  0  0  0  0  0  0  0  0
   37.9110   29.2160   42.8300 C   0  0  0  0  0  0  0  0  0  0  0  0
   37.3850   29.2260   41.5810 N   0  0  0  0  0  0  0  0  0  0  0  0
   37.5540   28.3310   43.9330 C   0  0  0  0  0  0  0  0  0  0  0  0
   38.1870   27.2650   44.0440 O   0  0  0  0  0  0  0  0  0  0  0  0
   36.5490   28.6870   44.8080 O   0  0  0  0  0  0  0  0  0  0  0  0
   35.9392   29.8852   32.8521 H   0  0  0  0  0  0  0  0  0  0  0  0
   36.7731   31.3021   34.7224 H   0  0  0  0  0  0  0  0  0  0  0  0
   35.6254   26.5583   35.4152 H   0  0  0  0  0  0  0  0  0  0  0  0
   36.3079   28.0852   45.5562 H   0  0  0  0  0  0  0  0  0  0  0  0
  1  2  2  0
  1  5  1  0
  2  3  1  0
  3  4  1  0
  4 12  1  0
  5  4  2  0
  6 11  2  0
  6  7  1  0
  7  8  2  0
  8  9  1  0
  8  1  1  0
 10  9  2  0
 11 10  1  0
 12 16  1  0
 12 13  2  0
 13 14  1  0
 15 14  1  0
 15 17  1  0
 16 15  2  0
 17 18  2  0
 17 19  1  0
  6 20  1  0
  7 21  1  0
 10 22  1  0
 19 23  1  0
M  ISO  4  20  14  21  14  22  14  23   3
M  END
>  <minimizedAffinity>  (1) 
-4.52350092

>  <minimizedRMSD>  (1) 
3.16970277

$$$$
