
     RDKit          3D

 34 37  0  0  0  0  0  0  0  0999 V2000
   37.9940   28.2430   41.7360 C   0  0  0  0  0  0  0  0  0  0  0  0
   37.6900   28.5020   43.0060 N   0  0  0  0  0  0  0  0  0  0  0  0
   38.3560   29.5700   43.3910 O   0  0  0  0  0  0  0  0  0  0  0  0
   39.0930   30.0170   42.3920 C   0  0  0  0  0  0  0  0  0  0  0  0
   38.8790   29.1910   41.3340 N   0  0  0  0  0  0  0  0  0  0  0  0
   37.2320   25.1830   39.9940 C   0  0  0  0  0  0  0  0  0  0  0  0
   36.2880   26.0450   39.5070 N   0  0  0  0  0  0  0  0  0  0  0  0
   36.4670   27.2220   40.0810 O   0  0  0  0  0  0  0  0  0  0  0  0
   37.4860   27.1610   40.9180 C   0  0  0  0  0  0  0  0  0  0  0  0
   37.9670   25.9000   40.8710 N   0  0  0  0  0  0  0  0  0  0  0  0
   38.2320   21.5490   40.2030 C   0  0  0  0  0  0  0  0  0  0  0  0
   38.0100   22.8480   40.6200 C   0  0  0  0  0  0  0  0  0  0  0  0
   37.5180   23.7770   39.7290 C   0  0  0  0  0  0  0  0  0  0  0  0
   37.2660   23.3710   38.4490 N   0  0  0  0  0  0  0  0  0  0  0  0
   37.4960   22.0840   38.0680 C   0  0  0  0  0  0  0  0  0  0  0  0
   37.9730   21.1890   38.9370 N   0  0  0  0  0  0  0  0  0  0  0  0
   39.9940   31.1840   42.3780 C   0  0  0  0  0  0  0  0  0  0  0  0
   39.4490   32.1880   41.4770 N   0  0  0  0  0  0  0  0  0  0  0  0
   39.8180   33.3810   40.8580 C   0  0  0  0  0  0  0  0  0  0  0  0
   38.8150   34.3430   40.7430 C   0  0  0  0  0  0  0  0  0  0  0  0
   39.0640   35.5870   40.1520 C   0  0  0  0  0  0  0  0  0  0  0  0
   40.3680   35.7100   39.7290 C   0  0  0  0  0  0  0  0  0  0  0  0
   41.3890   34.8030   39.8140 C   0  0  0  0  0  0  0  0  0  0  0  0
   41.0840   33.6130   40.3980 N   0  0  0  0  0  0  0  0  0  0  0  0
   38.6234   20.8060   40.9135 H   0  0  0  0  0  0  0  0  0  0  0  0
   38.2252   23.1390   41.6588 H   0  0  0  0  0  0  0  0  0  0  0  0
   37.2865   21.7780   37.0324 H   0  0  0  0  0  0  0  0  0  0  0  0
   40.0731   31.6019   43.3924 H   0  0  0  0  0  0  0  0  0  0  0  0
   40.9941   30.8792   42.0360 H   0  0  0  0  0  0  0  0  0  0  0  0
   38.4853   31.9379   41.2130 H   0  0  0  0  0  0  0  0  0  0  0  0
   37.8078   34.1196   41.1245 H   0  0  0  0  0  0  0  0  0  0  0  0
   38.3052   36.3753   40.0387 H   0  0  0  0  0  0  0  0  0  0  0  0
   40.6248   36.6701   39.2575 H   0  0  0  0  0  0  0  0  0  0  0  0
   42.3970   35.0232   39.4326 H   0  0  0  0  0  0  0  0  0  0  0  0
  1  2  2  0
  2  3  1  0
  4  3  1  0
  5  1  1  0
  5  4  2  0
  6 10  1  0
  7  6  2  0
  7  8  1  0
  8  9  1  0
  9  1  1  0
 10  9  2  0
 11 12  2  0
 13  6  1  0
 13 12  1  0
 14 13  2  0
 15 14  1  0
 15 16  2  0
 16 11  1  0
 17  4  1  0
 18 17  1  0
 19 18  1  0
 20 19  2  0
 21 20  1  0
 22 23  1  0
 22 21  2  0
 23 24  2  0
 24 19  1  0
 11 25  1  0
 12 26  1  0
 15 27  1  0
 17 28  1  0
 17 29  1  0
 18 30  1  0
 20 31  1  0
 21 32  1  0
 22 33  1  0
 23 34  1  0
M  ISO  8  25  14  26  14  27  14  28   8  29   8  31  14  32  14  33  14
M  ISO  1  34  14
M  END
>  <minimizedAffinity>  (1) 
-5.01750326

>  <minimizedRMSD>  (1) 
5.52872086

$$$$
