
     RDKit          3D

 35 38  0  0  0  0  0  0  0  0999 V2000
   36.7610   26.3330   40.5130 C   0  0  0  0  0  0  0  0  0  0  0  0
   37.0140   25.2640   41.2690 N   0  0  0  0  0  0  0  0  0  0  0  0
   37.1010   25.6450   42.5210 O   0  0  0  0  0  0  0  0  0  0  0  0
   36.9150   26.9370   42.6190 C   0  0  0  0  0  0  0  0  0  0  0  0
   36.6980   27.3830   41.3490 N   0  0  0  0  0  0  0  0  0  0  0  0
   36.2620   27.0890   37.0300 C   0  0  0  0  0  0  0  0  0  0  0  0
   36.4270   25.7360   37.0150 N   0  0  0  0  0  0  0  0  0  0  0  0
   36.6210   25.3330   38.2510 O   0  0  0  0  0  0  0  0  0  0  0  0
   36.5900   26.3610   39.0740 C   0  0  0  0  0  0  0  0  0  0  0  0
   36.3690   27.4450   38.3250 N   0  0  0  0  0  0  0  0  0  0  0  0
   36.5250   29.5290   34.1530 C   0  0  0  0  0  0  0  0  0  0  0  0
   36.9280   28.6020   35.0970 C   0  0  0  0  0  0  0  0  0  0  0  0
   36.0170   28.0760   35.9710 C   0  0  0  0  0  0  0  0  0  0  0  0
   34.7080   28.4940   35.8800 N   0  0  0  0  0  0  0  0  0  0  0  0
   34.3490   29.4090   34.9380 C   0  0  0  0  0  0  0  0  0  0  0  0
   35.2490   29.9190   34.0850 N   0  0  0  0  0  0  0  0  0  0  0  0
   36.9250   27.7850   43.8260 C   0  0  0  0  0  0  0  0  0  0  0  0
   37.4310   29.1070   43.4700 N   0  0  0  0  0  0  0  0  0  0  0  0
   38.7940   29.3250   43.1310 C   0  0  0  0  0  0  0  0  0  0  0  0
   39.7470   28.3020   43.1740 C   0  0  0  0  0  0  0  0  0  0  0  0
   41.0720   28.5050   42.8470 C   0  0  0  0  0  0  0  0  0  0  0  0
   41.5110   29.7450   42.4570 C   0  0  0  0  0  0  0  0  0  0  0  0
   40.6090   30.7880   42.3990 C   0  0  0  0  0  0  0  0  0  0  0  0
   39.2930   30.5470   42.7330 C   0  0  0  0  0  0  0  0  0  0  0  0
   37.2615   29.9488   33.4521 H   0  0  0  0  0  0  0  0  0  0  0  0
   37.9811   28.2878   35.1448 H   0  0  0  0  0  0  0  0  0  0  0  0
   33.3006   29.7361   34.8755 H   0  0  0  0  0  0  0  0  0  0  0  0
   35.9029   27.8752   44.2226 H   0  0  0  0  0  0  0  0  0  0  0  0
   37.5700   27.3331   44.5940 H   0  0  0  0  0  0  0  0  0  0  0  0
   36.7809   29.9059   43.4643 H   0  0  0  0  0  0  0  0  0  0  0  0
   39.4273   27.2952   43.4808 H   0  0  0  0  0  0  0  0  0  0  0  0
   41.7818   27.6663   42.8994 H   0  0  0  0  0  0  0  0  0  0  0  0
   42.5670   29.9056   42.1942 H   0  0  0  0  0  0  0  0  0  0  0  0
   40.9339   31.7931   42.0920 H   0  0  0  0  0  0  0  0  0  0  0  0
   38.5901   31.3913   42.6779 H   0  0  0  0  0  0  0  0  0  0  0  0
  1  2  2  0
  1  5  1  0
  2  3  1  0
  3  4  1  0
  4 17  1  0
  5  4  2  0
  6 10  1  0
  7  6  2  0
  7  8  1  0
  8  9  1  0
  9  1  1  0
 10  9  2  0
 11 12  2  0
 12 13  1  0
 13  6  1  0
 14 13  2  0
 15 14  1  0
 16 11  1  0
 16 15  2  0
 18 17  1  0
 19 20  2  0
 19 18  1  0
 21 20  1  0
 22 21  2  0
 23 22  1  0
 23 24  2  0
 24 19  1  0
 11 25  1  0
 12 26  1  0
 15 27  1  0
 17 28  1  0
 17 29  1  0
 18 30  1  0
 20 31  1  0
 21 32  1  0
 22 33  1  0
 23 34  1  0
 24 35  1  0
M  ISO  8  25  14  26  14  27  14  28   8  29   8  31  14  32  14  33  14
M  ISO  2  34  14  35  14
M  END
>  <minimizedAffinity>  (1) 
-4.68466759

>  <minimizedRMSD>  (1) 
0.861618161

$$$$
