
     RDKit          3D

 41 44  0  0  1  0  0  0  0  0999 V2000
   39.8350   31.6760   39.6860 C   0  0  0  0  0  0  0  0  0  0  0  0
   39.4550   30.5680   40.5000 C   0  0  0  0  0  0  0  0  0  0  0  0
   38.1980   30.5700   41.0350 C   0  0  0  0  0  0  0  0  0  0  0  0
   37.3570   31.6280   40.7710 N   0  0  0  0  0  0  0  0  0  0  0  0
   37.7510   32.6680   39.9920 C   0  0  0  0  0  0  0  0  0  0  0  0
   38.9970   32.6860   39.4490 N   0  0  0  0  0  0  0  0  0  0  0  0
   36.8290   33.7300   39.7580 N   0  0  0  0  0  0  0  0  0  0  0  0
   37.7350   29.5200   41.8500 N   0  0  0  0  0  0  0  0  0  0  0  0
   38.4260   29.2040   43.0740 C   0  0  0  0  0  0  0  0  0  0  0  0
   37.4290   28.4660   43.9770 C   0  0  0  0  0  0  0  0  0  0  0  0
   36.8720   27.2960   43.3880 N   0  0  0  0  0  0  0  0  0  0  0  0
   36.7570   27.3360   41.9680 C   0  0  0  0  0  0  0  0  0  0  0  0
   36.5690   28.7470   41.4780 C   0  0  2  0  0  0  0  0  0  0  0  0
   36.2140   28.8240   40.0480 C   0  0  0  0  0  0  0  0  0  0  0  0
   34.9140   29.1170   39.6580 C   0  0  0  0  0  0  0  0  0  0  0  0
   34.4940   29.2090   38.3620 C   0  0  0  0  0  0  0  0  0  0  0  0
   35.4520   28.9910   37.4420 N   0  0  0  0  0  0  0  0  0  0  0  0
   36.7110   28.7060   37.7870 C   0  0  0  0  0  0  0  0  0  0  0  0
   37.1350   28.6140   39.0760 N   0  0  0  0  0  0  0  0  0  0  0  0
   37.7590   28.4680   36.7340 C   0  0  0  0  0  0  0  0  0  0  0  0
   37.3990   28.2900   35.3240 C   0  0  0  0  0  0  0  0  0  0  0  0
   37.6510   27.0460   36.1200 C   0  0  0  0  0  0  0  0  0  0  0  0
   40.8420   31.6979   39.2438 H   0  0  0  0  0  0  0  0  0  0  0  0
   40.1518   29.7385   40.6908 H   0  0  0  0  0  0  0  0  0  0  0  0
   37.1036   34.5303   39.1707 H   0  0  0  0  0  0  0  0  0  0  0  0
   35.8883   33.6969   40.1763 H   0  0  0  0  0  0  0  0  0  0  0  0
   39.2923   28.5598   42.8628 H   0  0  0  0  0  0  0  0  0  0  0  0
   38.7948   30.1179   43.5627 H   0  0  0  0  0  0  0  0  0  0  0  0
   37.9495   28.1741   44.9011 H   0  0  0  0  0  0  0  0  0  0  0  0
   36.5942   29.1579   44.1622 H   0  0  0  0  0  0  0  0  0  0  0  0
   37.4704   26.4958   43.6382 H   0  0  0  0  0  0  0  0  0  0  0  0
   37.6723   26.9199   41.5218 H   0  0  0  0  0  0  0  0  0  0  0  0
   35.8784   26.7439   41.6723 H   0  0  0  0  0  0  0  0  0  0  0  0
   35.6921   29.1933   41.9697 H   0  0  0  0  0  0  0  0  0  0  0  0
   34.1693   29.2871   40.4495 H   0  0  0  0  0  0  0  0  0  0  0  0
   33.4539   29.4430   38.0910 H   0  0  0  0  0  0  0  0  0  0  0  0
   38.5045   29.1158   37.2184 H   0  0  0  0  0  0  0  0  0  0  0  0
   38.1135   28.5858   34.5417 H   0  0  0  0  0  0  0  0  0  0  0  0
   36.5583   28.6379   34.7058 H   0  0  0  0  0  0  0  0  0  0  0  0
   36.8180   26.3823   36.3950 H   0  0  0  0  0  0  0  0  0  0  0  0
   38.3083   26.1684   36.0324 H   0  0  0  0  0  0  0  0  0  0  0  0
  1  2  2  0
  2  3  1  0
  3  8  1  0
  4  3  2  0
  5  4  1  0
  6  1  1  0
  6  5  2  0
  7  5  1  0
  8  9  1  0
  9 10  1  0
 11 10  1  0
 12 11  1  0
 13  8  1  0
 13 12  1  0
 14 13  1  0
 15 14  2  0
 16 15  1  0
 17 18  1  0
 17 16  2  0
 18 19  2  0
 19 14  1  0
 20 18  1  0
 21 22  1  0
 21 20  1  0
 22 20  1  0
  1 23  1  0
  2 24  1  0
  7 25  1  0
  7 26  1  0
  9 27  1  0
  9 28  1  0
 10 29  1  0
 10 30  1  0
 11 31  1  0
 12 32  1  0
 12 33  1  0
 13 34  1  1
 15 35  1  0
 16 36  1  0
 20 37  1  0
 21 38  1  0
 21 39  1  0
 22 40  1  0
 22 41  1  0
M  ISO  8  23  14  24  14  27  13  28  13  29  13  30  13  31   5  32  13
M  ISO  8  33  13  34  13  35  14  36  14  37  13  38  13  39  13  40  13
M  ISO  1  41  13
M  END
>  <minimizedAffinity>  (1) 
-5.65086842

>  <minimizedRMSD>  (1) 
0.777300775

$$$$
