
     RDKit          3D

 38 41  0  0  0  0  0  0  0  0999 V2000
   37.0090   27.3010   41.7070 C   0  0  0  0  0  0  0  0  0  0  0  0
   37.2560   27.9570   42.8310 N   0  0  0  0  0  0  0  0  0  0  0  0
   36.9580   29.2180   42.6630 O   0  0  0  0  0  0  0  0  0  0  0  0
   36.5110   29.4300   41.4380 C   0  0  0  0  0  0  0  0  0  0  0  0
   36.5500   28.2200   40.8540 N   0  0  0  0  0  0  0  0  0  0  0  0
   37.3100   23.9470   40.4080 C   0  0  0  0  0  0  0  0  0  0  0  0
   37.6110   23.7920   41.7220 N   0  0  0  0  0  0  0  0  0  0  0  0
   37.5330   24.9650   42.3090 O   0  0  0  0  0  0  0  0  0  0  0  0
   37.1970   25.8850   41.4510 C   0  0  0  0  0  0  0  0  0  0  0  0
   37.0520   25.2770   40.2570 N   0  0  0  0  0  0  0  0  0  0  0  0
   37.9330   21.9280   37.2850 C   0  0  0  0  0  0  0  0  0  0  0  0
   38.1730   22.8520   38.2790 C   0  0  0  0  0  0  0  0  0  0  0  0
   37.2330   23.0170   39.2740 C   0  0  0  0  0  0  0  0  0  0  0  0
   36.0810   22.2570   39.2530 N   0  0  0  0  0  0  0  0  0  0  0  0
   35.9140   21.3620   38.2380 C   0  0  0  0  0  0  0  0  0  0  0  0
   36.8220   21.1950   37.2640 N   0  0  0  0  0  0  0  0  0  0  0  0
   36.0680   30.6890   40.8250 C   0  0  0  0  0  0  0  0  0  0  0  0
   37.1770   31.6110   40.7900 N   0  0  0  0  0  0  0  0  0  0  0  0
   37.5550   32.1340   39.5340 C   0  0  0  0  0  0  0  0  0  0  0  0
   37.2590   33.6140   39.3810 C   0  0  0  0  0  0  0  0  0  0  0  0
   38.3200   34.2840   40.2260 C   0  0  0  0  0  0  0  0  0  0  0  0
   39.5550   33.4470   39.9890 C   0  0  0  0  0  0  0  0  0  0  0  0
   39.0960   32.0920   39.5050 C   0  0  0  0  0  0  0  0  0  0  0  0
   38.6791   21.7927   36.4881 H   0  0  0  0  0  0  0  0  0  0  0  0
   39.0980   23.4472   38.2785 H   0  0  0  0  0  0  0  0  0  0  0  0
   34.9985   20.7525   38.2166 H   0  0  0  0  0  0  0  0  0  0  0  0
   35.7161   30.4965   39.8007 H   0  0  0  0  0  0  0  0  0  0  0  0
   35.2454   31.1198   41.4147 H   0  0  0  0  0  0  0  0  0  0  0  0
   36.9336   32.4084   41.3949 H   0  0  0  0  0  0  0  0  0  0  0  0
   37.0194   31.5571   38.7657 H   0  0  0  0  0  0  0  0  0  0  0  0
   37.3429   33.9236   38.3288 H   0  0  0  0  0  0  0  0  0  0  0  0
   36.2377   33.8778   39.6930 H   0  0  0  0  0  0  0  0  0  0  0  0
   38.4822   35.3220   39.9001 H   0  0  0  0  0  0  0  0  0  0  0  0
   38.0430   34.3400   41.2891 H   0  0  0  0  0  0  0  0  0  0  0  0
   40.1911   33.9225   39.2279 H   0  0  0  0  0  0  0  0  0  0  0  0
   40.1423   33.3506   40.9141 H   0  0  0  0  0  0  0  0  0  0  0  0
   39.4700   31.3006   40.1712 H   0  0  0  0  0  0  0  0  0  0  0  0
   39.4756   31.8731   38.4960 H   0  0  0  0  0  0  0  0  0  0  0  0
  1  2  2  0
  3  2  1  0
  4  3  1  0
  5  4  2  0
  5  1  1  0
  6  7  2  0
  7  8  1  0
  9  1  1  0
  9  8  1  0
 10  6  1  0
 10  9  2  0
 11 12  2  0
 12 13  1  0
 13  6  1  0
 14 13  2  0
 15 14  1  0
 16 11  1  0
 16 15  2  0
 17  4  1  0
 18 17  1  0
 19 18  1  0
 20 19  1  0
 20 21  1  0
 22 21  1  0
 23 19  1  0
 23 22  1  0
 11 24  1  0
 12 25  1  0
 15 26  1  0
 17 27  1  0
 17 28  1  0
 18 29  1  0
 19 30  1  0
 20 31  1  0
 20 32  1  0
 21 33  1  0
 21 34  1  0
 22 35  1  0
 22 36  1  0
 23 37  1  0
 23 38  1  0
M  ISO  8  24  14  25  14  26  14  27   8  28   8  29   5  30  13  31  13
M  ISO  7  32  13  33  13  34  13  35  13  36  13  37  13  38  13
M  END
>  <minimizedAffinity>  (1) 
-4.59602118

>  <minimizedRMSD>  (1) 
4.96605158

$$$$
