
     RDKit          3D

 33 36  0  0  0  0  0  0  0  0999 V2000
   36.8950   26.1790   40.6030 C   0  0  0  0  0  0  0  0  0  0  0  0
   37.3890   25.1090   41.2590 N   0  0  0  0  0  0  0  0  0  0  0  0
   37.6830   25.4780   42.4680 O   0  0  0  0  0  0  0  0  0  0  0  0
   37.4050   26.7550   42.6460 C   0  0  0  0  0  0  0  0  0  0  0  0
   36.9030   27.2070   41.4640 N   0  0  0  0  0  0  0  0  0  0  0  0
   35.9660   26.9460   37.1980 C   0  0  0  0  0  0  0  0  0  0  0  0
   35.6740   25.6110   37.2980 N   0  0  0  0  0  0  0  0  0  0  0  0
   35.9730   25.2070   38.5110 O   0  0  0  0  0  0  0  0  0  0  0  0
   36.4440   26.1990   39.2140 C   0  0  0  0  0  0  0  0  0  0  0  0
   36.4490   27.2890   38.4170 N   0  0  0  0  0  0  0  0  0  0  0  0
   36.5420   29.2510   34.2680 C   0  0  0  0  0  0  0  0  0  0  0  0
   36.8300   28.3210   35.2630 C   0  0  0  0  0  0  0  0  0  0  0  0
   35.8420   27.9110   36.1050 C   0  0  0  0  0  0  0  0  0  0  0  0
   34.5980   28.4400   35.9340 N   0  0  0  0  0  0  0  0  0  0  0  0
   34.3420   29.3430   34.9590 C   0  0  0  0  0  0  0  0  0  0  0  0
   35.3140   29.7420   34.1350 N   0  0  0  0  0  0  0  0  0  0  0  0
   37.5700   27.6120   43.8500 C   0  0  0  0  0  0  0  0  0  0  0  0
   37.1810   28.9860   43.4840 N   0  0  0  0  0  0  0  0  0  0  0  0
   38.0080   29.8230   42.6850 C   0  0  0  0  0  0  0  0  0  0  0  0
   39.3510   30.1210   42.7180 C   0  0  0  0  0  0  0  0  0  0  0  0
   39.8780   30.9970   41.7950 C   0  0  0  0  0  0  0  0  0  0  0  0
   39.1030   31.5720   40.8550 N   0  0  0  0  0  0  0  0  0  0  0  0
   37.7920   31.2680   40.8410 C   0  0  0  0  0  0  0  0  0  0  0  0
   37.2450   30.4200   41.7220 N   0  0  0  0  0  0  0  0  0  0  0  0
   37.3382   29.5827   33.5854 H   0  0  0  0  0  0  0  0  0  0  0  0
   37.8490   27.9202   35.3682 H   0  0  0  0  0  0  0  0  0  0  0  0
   33.3268   29.7508   34.8446 H   0  0  0  0  0  0  0  0  0  0  0  0
   36.9250   27.2445   44.6618 H   0  0  0  0  0  0  0  0  0  0  0  0
   38.6134   27.5885   44.1974 H   0  0  0  0  0  0  0  0  0  0  0  0
   36.2786   29.3528   43.8187 H   0  0  0  0  0  0  0  0  0  0  0  0
   40.0005   29.6618   43.4778 H   0  0  0  0  0  0  0  0  0  0  0  0
   40.9522   31.2316   41.8260 H   0  0  0  0  0  0  0  0  0  0  0  0
   37.1474   31.7319   40.0799 H   0  0  0  0  0  0  0  0  0  0  0  0
  1  2  2  0
  1  5  1  0
  2  3  1  0
  3  4  1  0
  4 17  1  0
  5  4  2  0
  6  7  2  0
  6 10  1  0
  7  8  1  0
  8  9  1  0
  9  1  1  0
 10  9  2  0
 11 12  2  0
 12 13  1  0
 13  6  1  0
 14 13  2  0
 15 14  1  0
 16 11  1  0
 16 15  2  0
 18 17  1  0
 19 20  2  0
 19 18  1  0
 21 20  1  0
 22 21  2  0
 23 22  1  0
 23 24  2  0
 24 19  1  0
 11 25  1  0
 12 26  1  0
 15 27  1  0
 17 28  1  0
 17 29  1  0
 18 30  1  0
 20 31  1  0
 21 32  1  0
 23 33  1  0
M  ISO  8  25  14  26  14  27  14  28   8  29   8  31  14  32  14  33  14
M  END
>  <minimizedAffinity>  (1) 
-4.58269882

>  <minimizedRMSD>  (1) 
0.87338531

$$$$
