
     RDKit          3D

 29 31  0  0  0  0  0  0  0  0999 V2000
   38.2850   26.5320   42.2190 C   0  0  0  0  0  0  0  0  0  0  0  0
   39.0660   26.5960   43.2910 N   0  0  0  0  0  0  0  0  0  0  0  0
   39.3080   27.8500   43.5710 O   0  0  0  0  0  0  0  0  0  0  0  0
   38.7060   28.6350   42.7110 C   0  0  0  0  0  0  0  0  0  0  0  0
   38.0660   27.8030   41.8660 N   0  0  0  0  0  0  0  0  0  0  0  0
   36.6320   24.0270   40.2250 C   0  0  0  0  0  0  0  0  0  0  0  0
   37.4440   23.2920   41.0270 N   0  0  0  0  0  0  0  0  0  0  0  0
   38.1120   24.0990   41.8160 O   0  0  0  0  0  0  0  0  0  0  0  0
   37.7670   25.3480   41.5580 C   0  0  0  0  0  0  0  0  0  0  0  0
   36.8530   25.3240   40.5780 N   0  0  0  0  0  0  0  0  0  0  0  0
   34.2940   24.0040   37.2650 C   0  0  0  0  0  0  0  0  0  0  0  0
   35.1990   24.5120   38.1880 C   0  0  0  0  0  0  0  0  0  0  0  0
   35.6790   23.6740   39.1720 C   0  0  0  0  0  0  0  0  0  0  0  0
   35.2510   22.3650   39.2150 N   0  0  0  0  0  0  0  0  0  0  0  0
   34.3590   21.9320   38.2770 C   0  0  0  0  0  0  0  0  0  0  0  0
   33.8890   22.7300   37.3230 N   0  0  0  0  0  0  0  0  0  0  0  0
   38.7140   30.1100   42.6600 C   0  0  0  0  0  0  0  0  0  0  0  0
   38.2280   30.5170   41.3490 N   0  0  0  0  0  0  0  0  0  0  0  0
   36.9900   31.0890   41.0080 C   0  0  0  0  0  0  0  0  0  0  0  0
   36.8730   32.3640   40.3900 N   0  0  0  0  0  0  0  0  0  0  0  0
   35.9330   30.4940   41.2370 O   0  0  0  0  0  0  0  0  0  0  0  0
   33.9036   24.6600   36.4730 H   0  0  0  0  0  0  0  0  0  0  0  0
   35.5260   25.5610   38.1351 H   0  0  0  0  0  0  0  0  0  0  0  0
   34.0172   20.8870   38.3115 H   0  0  0  0  0  0  0  0  0  0  0  0
   38.0567   30.5143   43.4439 H   0  0  0  0  0  0  0  0  0  0  0  0
   39.7317   30.4928   42.8263 H   0  0  0  0  0  0  0  0  0  0  0  0
   38.8794   30.3653   40.5657 H   0  0  0  0  0  0  0  0  0  0  0  0
   37.7186   32.9106   40.1729 H   0  0  0  0  0  0  0  0  0  0  0  0
   35.9427   32.7411   40.1594 H   0  0  0  0  0  0  0  0  0  0  0  0
  1  2  2  0
  2  3  1  0
  4  3  1  0
  5  1  1  0
  5  4  2  0
  6 10  1  0
  6  7  2  0
  7  8  1  0
  9  8  1  0
  9  1  1  0
 10  9  2  0
 11 16  2  0
 11 12  1  0
 12 13  2  0
 13 14  1  0
 13  6  1  0
 15 14  2  0
 16 15  1  0
 17  4  1  0
 18 17  1  0
 19 21  2  0
 19 18  1  0
 20 19  1  0
 11 22  1  0
 12 23  1  0
 15 24  1  0
 17 25  1  0
 17 26  1  0
 18 27  1  0
 20 28  1  0
 20 29  1  0
M  ISO  5  22  14  23  14  24  14  25   8  26   8
M  END
>  <minimizedAffinity>  (1) 
-4.48617649

>  <minimizedRMSD>  (1) 
4.30968904

$$$$
