
     RDKit          3D

 32 35  0  0  0  0  0  0  0  0999 V2000
   37.0680   26.0120   40.8660 C   0  0  0  0  0  0  0  0  0  0  0  0
   37.9640   25.3330   41.5780 N   0  0  0  0  0  0  0  0  0  0  0  0
   38.1710   25.9600   42.7100 O   0  0  0  0  0  0  0  0  0  0  0  0
   37.4380   27.0420   42.7730 C   0  0  0  0  0  0  0  0  0  0  0  0
   36.7290   27.0880   41.6020 N   0  0  0  0  0  0  0  0  0  0  0  0
   35.5980   25.8580   37.5860 C   0  0  0  0  0  0  0  0  0  0  0  0
   36.0250   24.5740   37.7860 N   0  0  0  0  0  0  0  0  0  0  0  0
   36.5880   24.5070   38.9680 O   0  0  0  0  0  0  0  0  0  0  0  0
   36.5520   25.6700   39.5490 C   0  0  0  0  0  0  0  0  0  0  0  0
   35.9450   26.5160   38.7100 N   0  0  0  0  0  0  0  0  0  0  0  0
   34.5830   27.2990   34.2380 C   0  0  0  0  0  0  0  0  0  0  0  0
   35.3580   26.6370   35.1840 C   0  0  0  0  0  0  0  0  0  0  0  0
   34.9110   26.5190   36.4740 C   0  0  0  0  0  0  0  0  0  0  0  0
   33.7000   27.0620   36.7900 N   0  0  0  0  0  0  0  0  0  0  0  0
   32.9770   27.6990   35.8370 C   0  0  0  0  0  0  0  0  0  0  0  0
   33.4100   27.8170   34.5770 N   0  0  0  0  0  0  0  0  0  0  0  0
   37.3580   28.0340   43.8520 C   0  0  0  0  0  0  0  0  0  0  0  0
   37.7920   29.3180   43.3220 N   0  0  0  0  0  0  0  0  0  0  0  0
   37.2200   29.9670   42.2200 C   0  0  0  0  0  0  0  0  0  0  0  0
   38.2450   30.4870   41.4090 C   0  0  0  0  0  0  0  0  0  0  0  0
   37.7190   31.1170   40.3380 N   0  0  0  0  0  0  0  0  0  0  0  0
   36.3730   31.0110   40.4470 C   0  0  0  0  0  0  0  0  0  0  0  0
   36.0840   30.3210   41.5760 N   0  0  0  0  0  0  0  0  0  0  0  0
   34.9446   27.3935   33.2034 H   0  0  0  0  0  0  0  0  0  0  0  0
   36.3295   26.2082   34.8969 H   0  0  0  0  0  0  0  0  0  0  0  0
   32.0032   28.1327   36.1083 H   0  0  0  0  0  0  0  0  0  0  0  0
   36.3212   28.1107   44.2113 H   0  0  0  0  0  0  0  0  0  0  0  0
   38.0001   27.7334   44.6930 H   0  0  0  0  0  0  0  0  0  0  0  0
   38.5798   29.7853   43.7930 H   0  0  0  0  0  0  0  0  0  0  0  0
   39.3209   30.3935   41.6179 H   0  0  0  0  0  0  0  0  0  0  0  0
   35.6375   31.4174   39.7371 H   0  0  0  0  0  0  0  0  0  0  0  0
   35.1321   30.0970   41.8993 H   0  0  0  0  0  0  0  0  0  0  0  0
  1  2  2  0
  1  5  1  0
  2  3  1  0
  3  4  1  0
  4 17  1  0
  5  4  2  0
  6  7  2  0
  6 10  1  0
  7  8  1  0
  8  9  1  0
  9  1  1  0
 10  9  2  0
 11 16  2  0
 11 12  1  0
 12 13  2  0
 13 14  1  0
 13  6  1  0
 15 14  2  0
 16 15  1  0
 18 17  1  0
 19 18  1  0
 20 19  2  0
 21 22  2  0
 21 20  1  0
 22 23  1  0
 23 19  1  0
 11 24  1  0
 12 25  1  0
 15 26  1  0
 17 27  1  0
 17 28  1  0
 18 29  1  0
 20 30  1  0
 22 31  1  0
 23 32  1  0
M  ISO  8  24  14  25  14  26  14  27   8  28   8  30  14  31  14  32   9
M  END
>  <minimizedAffinity>  (1) 
-4.45489168

>  <minimizedRMSD>  (1) 
1.55066884

$$$$
