
     RDKit          3D

 37 39  0  0  0  0  0  0  0  0999 V2000
   35.5730   27.6420   38.5350 C   0  0  0  0  0  0  0  0  0  0  0  0
   36.0960   26.5290   39.1080 N   0  0  0  0  0  0  0  0  0  0  0  0
   36.8940   26.8980   40.0870 O   0  0  0  0  0  0  0  0  0  0  0  0
   36.9120   28.2150   40.1730 C   0  0  0  0  0  0  0  0  0  0  0  0
   36.1030   28.6770   39.2230 N   0  0  0  0  0  0  0  0  0  0  0  0
   33.5360   29.0300   35.6680 C   0  0  0  0  0  0  0  0  0  0  0  0
   34.4660   28.9830   36.6990 C   0  0  0  0  0  0  0  0  0  0  0  0
   34.6440   27.8490   37.4270 C   0  0  0  0  0  0  0  0  0  0  0  0
   33.8670   26.7520   37.1030 N   0  0  0  0  0  0  0  0  0  0  0  0
   32.9690   26.8240   36.0930 C   0  0  0  0  0  0  0  0  0  0  0  0
   32.8050   27.9330   35.3920 N   0  0  0  0  0  0  0  0  0  0  0  0
   37.6770   28.9980   41.1320 C   0  0  0  0  0  0  0  0  0  0  0  0
   37.6640   28.8950   42.4560 N   0  0  0  0  0  0  0  0  0  0  0  0
   38.4930   29.7820   42.9530 O   0  0  0  0  0  0  0  0  0  0  0  0
   39.0540   30.4690   41.9990 C   0  0  0  0  0  0  0  0  0  0  0  0
   38.5490   29.9870   40.8180 N   0  0  0  0  0  0  0  0  0  0  0  0
   40.0380   31.5600   42.0560 C   0  0  0  0  0  0  0  0  0  0  0  0
   39.4840   32.7620   41.4920 N   0  0  0  0  0  0  0  0  0  0  0  0
   40.2590   33.3020   40.4220 C   0  0  0  0  0  0  0  0  0  0  0  0
   39.8360   34.7820   40.2370 C   0  0  0  0  0  0  0  0  0  0  0  0
   40.0730   32.6910   39.0730 C   0  0  0  0  0  0  0  0  0  0  0  0
   41.7110   33.2360   40.8290 C   0  0  0  0  0  0  0  0  0  0  0  0
   33.3983   29.9520   35.0841 H   0  0  0  0  0  0  0  0  0  0  0  0
   35.0664   29.8755   36.9293 H   0  0  0  0  0  0  0  0  0  0  0  0
   32.3617   25.9397   35.8497 H   0  0  0  0  0  0  0  0  0  0  0  0
   40.3143   31.7450   43.1045 H   0  0  0  0  0  0  0  0  0  0  0  0
   40.9275   31.2702   41.4774 H   0  0  0  0  0  0  0  0  0  0  0  0
   38.5410   32.5499   41.1361 H   0  0  0  0  0  0  0  0  0  0  0  0
   39.7019   35.2510   41.2229 H   0  0  0  0  0  0  0  0  0  0  0  0
   40.6165   35.3194   39.6784 H   0  0  0  0  0  0  0  0  0  0  0  0
   38.8894   34.8257   39.6784 H   0  0  0  0  0  0  0  0  0  0  0  0
   39.7543   31.6442   39.1854 H   0  0  0  0  0  0  0  0  0  0  0  0
   39.3046   33.2508   38.5197 H   0  0  0  0  0  0  0  0  0  0  0  0
   41.0230   32.7277   38.5197 H   0  0  0  0  0  0  0  0  0  0  0  0
   41.7844   33.2327   41.9265 H   0  0  0  0  0  0  0  0  0  0  0  0
   42.1626   32.3164   40.4285 H   0  0  0  0  0  0  0  0  0  0  0  0
   42.2442   34.1108   40.4285 H   0  0  0  0  0  0  0  0  0  0  0  0
  1  2  2  0
  1  5  1  0
  2  3  1  0
  3  4  1  0
  4 12  1  0
  5  4  2  0
  6  7  2  0
  7  8  1  0
  8  1  1  0
  9  8  2  0
 10  9  1  0
 11  6  1  0
 11 10  2  0
 12 13  2  0
 13 14  1  0
 15 17  1  0
 15 14  1  0
 16 12  1  0
 16 15  2  0
 18 17  1  0
 19 22  1  0
 19 18  1  0
 20 19  1  0
 21 19  1  0
  6 23  1  0
  7 24  1  0
 10 25  1  0
 17 26  1  0
 17 27  1  0
 18 28  1  0
 20 29  1  0
 20 30  1  0
 20 31  1  0
 21 32  1  0
 21 33  1  0
 21 34  1  0
 22 35  1  0
 22 36  1  0
 22 37  1  0
M  ISO  8  23  14  24  14  25  14  26   8  27   8  28   5  29   8  30   8
M  ISO  7  31   8  32   8  33   8  34   8  35   8  36   8  37   8
M  END
>  <minimizedAffinity>  (1) 
-4.0565362

>  <minimizedRMSD>  (1) 
3.60125399

$$$$
