
     RDKit          3D

 31 33  0  0  0  0  0  0  0  0999 V2000
   36.0070   27.0140   37.3830 C   0  0  0  0  0  0  0  0  0  0  0  0
   35.7620   25.6830   37.5430 N   0  0  0  0  0  0  0  0  0  0  0  0
   36.0490   25.3470   38.7780 O   0  0  0  0  0  0  0  0  0  0  0  0
   36.4720   26.3850   39.4490 C   0  0  0  0  0  0  0  0  0  0  0  0
   36.4500   27.4240   38.5910 N   0  0  0  0  0  0  0  0  0  0  0  0
   36.5900   29.1920   34.3590 C   0  0  0  0  0  0  0  0  0  0  0  0
   36.8820   28.3140   35.3940 C   0  0  0  0  0  0  0  0  0  0  0  0
   35.8740   27.9260   36.2490 C   0  0  0  0  0  0  0  0  0  0  0  0
   34.6200   28.4190   36.0490 N   0  0  0  0  0  0  0  0  0  0  0  0
   34.3870   29.2740   35.0220 C   0  0  0  0  0  0  0  0  0  0  0  0
   35.3490   29.6540   34.1950 N   0  0  0  0  0  0  0  0  0  0  0  0
   36.8880   26.4380   40.8310 C   0  0  0  0  0  0  0  0  0  0  0  0
   37.6180   25.5190   41.4790 N   0  0  0  0  0  0  0  0  0  0  0  0
   37.7870   25.9320   42.7170 O   0  0  0  0  0  0  0  0  0  0  0  0
   37.1910   27.0940   42.9070 C   0  0  0  0  0  0  0  0  0  0  0  0
   36.6230   27.4180   41.7260 N   0  0  0  0  0  0  0  0  0  0  0  0
   37.1440   27.8870   44.1430 C   0  0  0  0  0  0  0  0  0  0  0  0
   37.3890   29.2980   43.7690 N   0  0  0  0  0  0  0  0  0  0  0  0
   38.7370   29.3510   43.2210 C   0  0  0  0  0  0  0  0  0  0  0  0
   38.9050   30.3980   42.1640 C   0  0  0  0  0  0  0  0  0  0  0  0
   37.3867   29.5088   33.6698 H   0  0  0  0  0  0  0  0  0  0  0  0
   37.9050   27.9331   35.5296 H   0  0  0  0  0  0  0  0  0  0  0  0
   33.3692   29.6631   34.8717 H   0  0  0  0  0  0  0  0  0  0  0  0
   36.1558   27.7889   44.6161 H   0  0  0  0  0  0  0  0  0  0  0  0
   37.9010   27.5366   44.8600 H   0  0  0  0  0  0  0  0  0  0  0  0
   36.7049   29.6028   43.0619 H   0  0  0  0  0  0  0  0  0  0  0  0
   39.4389   29.5659   44.0402 H   0  0  0  0  0  0  0  0  0  0  0  0
   38.9361   28.3771   42.7500 H   0  0  0  0  0  0  0  0  0  0  0  0
   39.0621   31.3773   42.6397 H   0  0  0  0  0  0  0  0  0  0  0  0
   39.7749   30.1507   41.5379 H   0  0  0  0  0  0  0  0  0  0  0  0
   38.0013   30.4352   41.5379 H   0  0  0  0  0  0  0  0  0  0  0  0
  1  2  2  0
  1  5  1  0
  2  3  1  0
  3  4  1  0
  4 12  1  0
  5  4  2  0
  6  7  2  0
  7  8  1  0
  8  1  1  0
  9  8  2  0
 10  9  1  0
 11  6  1  0
 11 10  2  0
 12 13  2  0
 12 16  1  0
 13 14  1  0
 14 15  1  0
 15 17  1  0
 16 15  2  0
 18 17  1  0
 19 18  1  0
 20 19  1  0
  6 21  1  0
  7 22  1  0
 10 23  1  0
 17 24  1  0
 17 25  1  0
 18 26  1  0
 19 27  1  0
 19 28  1  0
 20 29  1  0
 20 30  1  0
 20 31  1  0
M  ISO  8  21  14  22  14  23  14  24   8  25   8  26   5  27   8  28   8
M  ISO  3  29   8  30   8  31   8
M  END
>  <minimizedAffinity>  (1) 
-3.97023845

>  <minimizedRMSD>  (1) 
0.1920522

$$$$
