
     RDKit          3D

 32 35  0  0  0  0  0  0  0  0999 V2000
   36.1300   26.3040   36.7760 C   0  0  0  0  0  0  0  0  0  0  0  0
   35.7710   24.9930   36.6120 N   0  0  0  0  0  0  0  0  0  0  0  0
   36.2370   24.3040   37.6310 O   0  0  0  0  0  0  0  0  0  0  0  0
   36.8780   25.0880   38.4490 C   0  0  0  0  0  0  0  0  0  0  0  0
   36.8220   26.3310   37.9350 N   0  0  0  0  0  0  0  0  0  0  0  0
   36.4330   29.3530   34.5670 C   0  0  0  0  0  0  0  0  0  0  0  0
   36.8170   28.2320   35.2880 C   0  0  0  0  0  0  0  0  0  0  0  0
   35.8930   27.5060   35.9700 C   0  0  0  0  0  0  0  0  0  0  0  0
   34.5780   27.9100   35.9280 N   0  0  0  0  0  0  0  0  0  0  0  0
   34.2370   29.0170   35.2100 C   0  0  0  0  0  0  0  0  0  0  0  0
   35.1440   29.7220   34.5460 N   0  0  0  0  0  0  0  0  0  0  0  0
   37.5400   24.7310   39.6870 C   0  0  0  0  0  0  0  0  0  0  0  0
   37.8260   23.4840   40.1120 N   0  0  0  0  0  0  0  0  0  0  0  0
   38.4260   23.5830   41.2770 O   0  0  0  0  0  0  0  0  0  0  0  0
   38.5460   24.8370   41.6340 C   0  0  0  0  0  0  0  0  0  0  0  0
   37.9870   25.5730   40.6340 N   0  0  0  0  0  0  0  0  0  0  0  0
   39.1550   25.3720   42.8640 C   0  0  0  0  0  0  0  0  0  0  0  0
   39.0350   26.8380   42.8140 N   0  0  0  0  0  0  0  0  0  0  0  0
   38.2010   27.3730   43.8420 C   0  0  0  0  0  0  0  0  0  0  0  0
   36.7480   27.5130   43.4720 C   0  0  0  0  0  0  0  0  0  0  0  0
   37.5630   28.7590   43.5120 C   0  0  0  0  0  0  0  0  0  0  0  0
   37.1834   29.9374   34.0143 H   0  0  0  0  0  0  0  0  0  0  0  0
   37.8744   27.9294   35.3077 H   0  0  0  0  0  0  0  0  0  0  0  0
   33.1840   29.3338   35.1802 H   0  0  0  0  0  0  0  0  0  0  0  0
   38.6260   24.9815   43.7459 H   0  0  0  0  0  0  0  0  0  0  0  0
   40.2106   25.0714   42.9368 H   0  0  0  0  0  0  0  0  0  0  0  0
   39.9756   27.2463   42.9109 H   0  0  0  0  0  0  0  0  0  0  0  0
   38.7644   26.9405   44.6820 H   0  0  0  0  0  0  0  0  0  0  0  0
   35.9754   27.3459   44.2369 H   0  0  0  0  0  0  0  0  0  0  0  0
   36.1090   27.0460   42.7081 H   0  0  0  0  0  0  0  0  0  0  0  0
   37.8236   29.2789   42.5783 H   0  0  0  0  0  0  0  0  0  0  0  0
   37.4868   29.7283   44.0264 H   0  0  0  0  0  0  0  0  0  0  0  0
  1  5  1  0
  2  1  2  0
  2  3  1  0
  3  4  1  0
  4 12  1  0
  5  4  2  0
  6  7  2  0
  7  8  1  0
  8  1  1  0
  9  8  2  0
 10  9  1  0
 11  6  1  0
 11 10  2  0
 12 13  2  0
 12 16  1  0
 13 14  1  0
 14 15  1  0
 15 17  1  0
 16 15  2  0
 18 17  1  0
 18 19  1  0
 20 21  1  0
 20 19  1  0
 21 19  1  0
  6 22  1  0
  7 23  1  0
 10 24  1  0
 17 25  1  0
 17 26  1  0
 18 27  1  0
 19 28  1  0
 20 29  1  0
 20 30  1  0
 21 31  1  0
 21 32  1  0
M  ISO  8  22  14  23  14  24  14  25   8  26   8  27   5  28  13  29  13
M  ISO  3  30  13  31  13  32  13
M  END
>  <minimizedAffinity>  (1) 
-3.57704854

>  <minimizedRMSD>  (1) 
2.14054918

$$$$
