
     RDKit          3D

 28 30  0  0  0  0  0  0  0  0999 V2000
   35.8670   26.8780   37.2880 C   0  0  0  0  0  0  0  0  0  0  0  0
   35.4130   25.6020   37.4440 N   0  0  0  0  0  0  0  0  0  0  0  0
   35.7550   25.1740   38.6410 O   0  0  0  0  0  0  0  0  0  0  0  0
   36.4130   26.1140   39.2780 C   0  0  0  0  0  0  0  0  0  0  0  0
   36.4900   27.1700   38.4560 N   0  0  0  0  0  0  0  0  0  0  0  0
   36.5710   29.1860   34.3870 C   0  0  0  0  0  0  0  0  0  0  0  0
   36.8140   28.2580   35.3840 C   0  0  0  0  0  0  0  0  0  0  0  0
   35.7880   27.8460   36.1910 C   0  0  0  0  0  0  0  0  0  0  0  0
   34.5420   28.3700   35.9880 N   0  0  0  0  0  0  0  0  0  0  0  0
   34.3470   29.2790   34.9970 C   0  0  0  0  0  0  0  0  0  0  0  0
   35.3490   29.6840   34.2040 N   0  0  0  0  0  0  0  0  0  0  0  0
   36.9570   26.0290   40.6170 C   0  0  0  0  0  0  0  0  0  0  0  0
   37.1320   24.9370   41.3560 N   0  0  0  0  0  0  0  0  0  0  0  0
   37.6460   25.2610   42.5040 O   0  0  0  0  0  0  0  0  0  0  0  0
   37.8260   26.5720   42.5650 C   0  0  0  0  0  0  0  0  0  0  0  0
   37.3900   27.0470   41.3750 N   0  0  0  0  0  0  0  0  0  0  0  0
   38.3800   27.3670   43.6750 C   0  0  0  0  0  0  0  0  0  0  0  0
   39.3460   28.3200   43.1020 N   0  0  0  0  0  0  0  0  0  0  0  0
   38.7750   29.6350   43.0520 C   0  0  0  0  0  0  0  0  0  0  0  0
   37.3958   29.5162   33.7384 H   0  0  0  0  0  0  0  0  0  0  0  0
   37.8267   27.8533   35.5274 H   0  0  0  0  0  0  0  0  0  0  0  0
   33.3401   29.6936   34.8414 H   0  0  0  0  0  0  0  0  0  0  0  0
   37.5725   27.9126   44.1851 H   0  0  0  0  0  0  0  0  0  0  0  0
   38.8722   26.7133   44.4102 H   0  0  0  0  0  0  0  0  0  0  0  0
   40.1932   28.3391   43.6875 H   0  0  0  0  0  0  0  0  0  0  0  0
   38.6147   30.0043   44.0757 H   0  0  0  0  0  0  0  0  0  0  0  0
   39.4601   30.3123   42.5210 H   0  0  0  0  0  0  0  0  0  0  0  0
   37.8124   29.5968   42.5210 H   0  0  0  0  0  0  0  0  0  0  0  0
  1  2  2  0
  1  5  1  0
  2  3  1  0
  3  4  1  0
  4 12  1  0
  5  4  2  0
  6  7  2  0
  7  8  1  0
  8  1  1  0
  9  8  2  0
 10  9  1  0
 11  6  1  0
 11 10  2  0
 12 13  2  0
 12 16  1  0
 13 14  1  0
 14 15  1  0
 15 17  1  0
 16 15  2  0
 18 17  1  0
 19 18  1  0
  6 20  1  0
  7 21  1  0
 10 22  1  0
 17 23  1  0
 17 24  1  0
 18 25  1  0
 19 26  1  0
 19 27  1  0
 19 28  1  0
M  ISO  8  20  14  21  14  22  14  23   8  24   8  25   5  26   8  27   8
M  ISO  1  28   8
M  END
>  <minimizedAffinity>  (1) 
-3.412714

>  <minimizedRMSD>  (1) 
0.967461526

$$$$
