
     RDKit          3D

 12 12  0  0  0  0  0  0  0  0999 V2000
   36.9810   29.6210   41.7800 C   0  0  0  0  0  0  0  0  0  0  0  0
   36.3360   28.3790   41.6510 C   0  0  0  0  0  0  0  0  0  0  0  0
   36.8960   27.2830   42.3170 C   0  0  0  0  0  0  0  0  0  0  0  0
   38.0260   27.4770   43.0470 N   0  0  0  0  0  0  0  0  0  0  0  0
   38.6150   28.6950   43.1430 C   0  0  0  0  0  0  0  0  0  0  0  0
   38.0930   29.7550   42.5130 N   0  0  0  0  0  0  0  0  0  0  0  0
   36.3430   30.6960   41.0660 C   0  0  0  0  0  0  0  0  0  0  0  0
   36.8810   31.7580   40.6760 O   0  0  0  0  0  0  0  0  0  0  0  0
   35.4226   28.2721   41.0474 H   0  0  0  0  0  0  0  0  0  0  0  0
   36.4324   26.2876   42.2512 H   0  0  0  0  0  0  0  0  0  0  0  0
   39.5291   28.8130   43.7434 H   0  0  0  0  0  0  0  0  0  0  0  0
   35.2737   30.5722   40.8397 H   0  0  0  0  0  0  0  0  0  0  0  0
  1  6  2  0
  2  1  1  0
  2  3  2  0
  3  4  1  0
  4  5  2  0
  6  5  1  0
  7  1  1  0
  8  7  2  0
  2  9  1  0
  3 10  1  0
  5 11  1  0
  7 12  1  0
M  ISO  4   9  14  10  14  11  14  12   6
M  END
>  <minimizedAffinity>  (1) 
-2.78299308

>  <minimizedRMSD>  (1) 
3.03717446

$$$$
