
     RDKit          3D

 19 20  0  0  0  0  0  0  0  0999 V2000
   39.2370   27.6540   42.8900 C   0  0  0  0  0  0  0  0  0  0  0  0
   38.1680   28.3900   43.4240 C   0  0  0  0  0  0  0  0  0  0  0  0
   36.8960   27.8180   43.3680 C   0  0  0  0  0  0  0  0  0  0  0  0
   36.7510   26.5850   42.8040 N   0  0  0  0  0  0  0  0  0  0  0  0
   37.8080   25.9130   42.3030 C   0  0  0  0  0  0  0  0  0  0  0  0
   39.0230   26.4540   42.3530 N   0  0  0  0  0  0  0  0  0  0  0  0
   40.5300   28.2670   42.9630 C   0  0  0  0  0  0  0  0  0  0  0  0
   40.7700   29.4950   42.7810 O   0  0  0  0  0  0  0  0  0  0  0  0
   41.7780   27.5160   43.2700 C   0  0  0  0  0  0  0  0  0  0  0  0
   41.9870   27.0300   44.7040 C   0  0  0  0  0  0  0  0  0  0  0  0
   42.8390   28.0920   44.1330 C   0  0  0  0  0  0  0  0  0  0  0  0
   38.3269   29.3825   43.8709 H   0  0  0  0  0  0  0  0  0  0  0  0
   36.0243   28.3534   43.7724 H   0  0  0  0  0  0  0  0  0  0  0  0
   37.6659   24.9191   41.8537 H   0  0  0  0  0  0  0  0  0  0  0  0
   41.7678   27.0751   42.2623 H   0  0  0  0  0  0  0  0  0  0  0  0
   41.2489   27.2729   45.4826 H   0  0  0  0  0  0  0  0  0  0  0  0
   42.1656   26.0555   45.1820 H   0  0  0  0  0  0  0  0  0  0  0  0
   43.8954   27.8810   43.9104 H   0  0  0  0  0  0  0  0  0  0  0  0
   43.0999   29.1139   44.4454 H   0  0  0  0  0  0  0  0  0  0  0  0
  1  7  1  0
  1  2  2  0
  3  2  1  0
  4  3  2  0
  5  6  2  0
  5  4  1  0
  6  1  1  0
  7  9  1  0
  8  7  2  0
  9 11  1  0
  9 10  1  0
 11 10  1  0
  2 12  1  0
  3 13  1  0
  5 14  1  0
  9 15  1  0
 10 16  1  0
 10 17  1  0
 11 18  1  0
 11 19  1  0
M  ISO  8  12  14  13  14  14  14  15  13  16  13  17  13  18  13  19  13
M  END
>  <minimizedAffinity>  (1) 
-2.98531175

>  <minimizedRMSD>  (1) 
5.54319143

$$$$
