
     RDKit          3D

 28 29  0  0  0  0  0  0  0  0999 V2000
   39.7660   30.1440   41.1410 C   0  0  0  0  0  0  0  0  0  0  0  0
   40.8200   30.0570   40.4610 O   0  0  0  0  0  0  0  0  0  0  0  0
   39.2310   29.2080   42.0950 C   0  0  0  0  0  0  0  0  0  0  0  0
   37.9550   29.4610   42.5720 C   0  0  0  0  0  0  0  0  0  0  0  0
   37.4050   28.5770   43.4980 C   0  0  0  0  0  0  0  0  0  0  0  0
   38.1530   27.5180   43.8820 N   0  0  0  0  0  0  0  0  0  0  0  0
   39.3960   27.3120   43.3900 C   0  0  0  0  0  0  0  0  0  0  0  0
   39.9670   28.1400   42.4930 N   0  0  0  0  0  0  0  0  0  0  0  0
   39.1650   31.3640   40.8020 O   0  0  0  0  0  0  0  0  0  0  0  0
   37.1230   33.3660   40.1860 N   0  0  0  0  0  0  0  0  0  0  0  0
   38.2460   34.2480   40.0710 C   0  0  0  0  0  0  0  0  0  0  0  0
   39.5750   33.5550   40.1380 C   0  0  0  0  0  0  0  0  0  0  0  0
   39.5120   32.1180   39.6640 C   0  0  0  0  0  0  0  0  0  0  0  0
   38.4000   32.0400   38.6170 C   0  0  0  0  0  0  0  0  0  0  0  0
   37.1040   32.2340   39.3420 C   0  0  0  0  0  0  0  0  0  0  0  0
   37.3893   30.3393   42.2277 H   0  0  0  0  0  0  0  0  0  0  0  0
   36.3949   28.7355   43.9036 H   0  0  0  0  0  0  0  0  0  0  0  0
   39.9627   26.4347   43.7354 H   0  0  0  0  0  0  0  0  0  0  0  0
   37.0923   33.0282   41.1586 H   0  0  0  0  0  0  0  0  0  0  0  0
   38.1960   34.9804   40.8902 H   0  0  0  0  0  0  0  0  0  0  0  0
   38.1816   34.7179   39.0785 H   0  0  0  0  0  0  0  0  0  0  0  0
   40.2893   34.1027   39.5056 H   0  0  0  0  0  0  0  0  0  0  0  0
   39.8893   33.5426   41.1921 H   0  0  0  0  0  0  0  0  0  0  0  0
   40.4516   31.7525   39.2241 H   0  0  0  0  0  0  0  0  0  0  0  0
   38.4137   31.0570   38.1235 H   0  0  0  0  0  0  0  0  0  0  0  0
   38.5355   32.8081   37.8414 H   0  0  0  0  0  0  0  0  0  0  0  0
   36.3003   32.3591   38.6014 H   0  0  0  0  0  0  0  0  0  0  0  0
   36.9370   31.3484   39.9727 H   0  0  0  0  0  0  0  0  0  0  0  0
  1  3  1  0
  2  1  2  0
  3  8  1  0
  3  4  2  0
  4  5  1  0
  5  6  2  0
  7  6  1  0
  8  7  2  0
  9  1  1  0
 11 12  1  0
 11 10  1  0
 13 12  1  0
 13  9  1  0
 14 15  1  0
 14 13  1  0
 15 10  1  0
  4 16  1  0
  5 17  1  0
  7 18  1  0
 10 19  1  0
 11 20  1  0
 11 21  1  0
 12 22  1  0
 12 23  1  0
 13 24  1  0
 14 25  1  0
 14 26  1  0
 15 27  1  0
 15 28  1  0
M  ISO  8  16  14  17  14  18  14  19   5  20  13  21  13  22  13  23  13
M  ISO  5  24  13  25  13  26  13  27  13  28  13
M  END
>  <minimizedAffinity>  (1) 
-4.17825174

>  <minimizedRMSD>  (1) 
2.80603218

$$$$
