
     RDKit          3D

 42 45  0  0  1  0  0  0  0  0999 V2000
   39.1450   30.4420   39.0320 C   0  0  2  0  0  0  0  0  0  0  0  0
   38.9410   31.3000   37.7430 C   0  0  0  0  0  0  0  0  0  0  0  0
   37.5270   31.7260   37.6470 C   0  0  0  0  0  0  0  0  0  0  0  0
   36.7920   30.6240   38.3500 C   0  0  0  0  0  0  0  0  0  0  0  0
   37.7780   30.0430   39.3300 C   0  0  1  0  0  0  0  0  0  0  0  0
   37.4890   28.6950   39.8390 C   0  0  0  0  0  0  0  0  0  0  0  0
   37.2290   27.5670   39.0380 C   0  0  0  0  0  0  0  0  0  0  0  0
   36.9340   26.2880   39.4450 C   0  0  0  0  0  0  0  0  0  0  0  0
   36.8850   26.0720   40.8040 C   0  0  0  0  0  0  0  0  0  0  0  0
   37.1200   27.0900   41.6690 C   0  0  0  0  0  0  0  0  0  0  0  0
   37.0640   26.8160   43.0180 C   0  0  0  0  0  0  0  0  0  0  0  0
   37.3030   27.8120   43.9480 C   0  0  0  0  0  0  0  0  0  0  0  0
   37.5960   29.0800   43.4880 C   0  0  0  0  0  0  0  0  0  0  0  0
   37.6400   29.3030   42.1320 C   0  0  0  0  0  0  0  0  0  0  0  0
   37.4070   28.3310   41.1870 C   0  0  0  0  0  0  0  0  0  0  0  0
   39.6790   31.2090   40.0290 O   0  0  0  0  0  0  0  0  0  0  0  0
   40.7500   32.1220   39.8780 C   0  0  0  0  0  0  0  0  0  0  0  0
   41.7840   31.5690   39.4450 O   0  0  0  0  0  0  0  0  0  0  0  0
   40.5970   33.5300   40.2030 C   0  0  0  0  0  0  0  0  0  0  0  0
   39.2530   33.9780   40.1430 C   0  0  0  0  0  0  0  0  0  0  0  0
   39.0210   35.3290   40.4420 C   0  0  0  0  0  0  0  0  0  0  0  0
   40.1020   36.1090   40.7680 N   0  0  0  0  0  0  0  0  0  0  0  0
   41.3590   35.6250   40.8080 C   0  0  0  0  0  0  0  0  0  0  0  0
   41.5940   34.3410   40.5260 N   0  0  0  0  0  0  0  0  0  0  0  0
   39.8351   29.5926   38.9212 H   0  0  0  0  0  0  0  0  0  0  0  0
   39.5883   32.1882   37.7885 H   0  0  0  0  0  0  0  0  0  0  0  0
   39.2014   30.6985   36.8596 H   0  0  0  0  0  0  0  0  0  0  0  0
   37.3699   32.6905   38.1521 H   0  0  0  0  0  0  0  0  0  0  0  0
   37.1904   31.8783   36.6109 H   0  0  0  0  0  0  0  0  0  0  0  0
   35.9144   31.0239   38.8791 H   0  0  0  0  0  0  0  0  0  0  0  0
   36.4228   29.8651   37.6445 H   0  0  0  0  0  0  0  0  0  0  0  0
   37.6093   30.5336   40.3000 H   0  0  0  0  0  0  0  0  0  0  0  0
   37.2667   27.7296   37.9507 H   0  0  0  0  0  0  0  0  0  0  0  0
   36.7469   25.4794   38.7231 H   0  0  0  0  0  0  0  0  0  0  0  0
   36.6540   25.0683   41.1903 H   0  0  0  0  0  0  0  0  0  0  0  0
   36.8274   25.7971   43.3584 H   0  0  0  0  0  0  0  0  0  0  0  0
   37.2606   27.5989   45.0263 H   0  0  0  0  0  0  0  0  0  0  0  0
   37.7913   29.8994   44.1954 H   0  0  0  0  0  0  0  0  0  0  0  0
   37.8755   30.3189   41.7821 H   0  0  0  0  0  0  0  0  0  0  0  0
   38.4309   33.2982   39.8746 H   0  0  0  0  0  0  0  0  0  0  0  0
   38.0049   35.7496   40.4159 H   0  0  0  0  0  0  0  0  0  0  0  0
   42.1942   36.2897   41.0738 H   0  0  0  0  0  0  0  0  0  0  0  0
  1  5  1  0
  1 16  1  0
  2  1  1  0
  3  2  1  0
  3  4  1  0
  4  5  1  0
  5  6  1  0
  6 15  2  0
  7  8  2  0
  7  6  1  0
  8  9  1  0
  9 10  2  0
 10 11  1  0
 11 12  2  0
 13 12  1  0
 14 13  2  0
 15 10  1  0
 15 14  1  0
 17 16  1  0
 17 19  1  0
 18 17  2  0
 19 24  1  0
 20 19  2  0
 20 21  1  0
 21 22  2  0
 22 23  1  0
 24 23  2  0
  1 25  1  6
  2 26  1  0
  2 27  1  0
  3 28  1  0
  3 29  1  0
  4 30  1  0
  4 31  1  0
  5 32  1  1
  7 33  1  0
  8 34  1  0
  9 35  1  0
 11 36  1  0
 12 37  1  0
 13 38  1  0
 14 39  1  0
 20 40  1  0
 21 41  1  0
 23 42  1  0
M  ISO  8  25  13  26  13  27  13  28  13  29  13  30  13  31  13  32  13
M  ISO  8  33  14  34  14  35  14  36  14  37  14  38  14  39  14  40  14
M  ISO  2  41  14  42  14
M  END
>  <minimizedAffinity>  (1) 
-6.14790106

>  <minimizedRMSD>  (1) 
6.88312721

$$$$
