
     RDKit          3D

 39 41  0  0  1  0  0  0  0  0999 V2000
   36.7310   29.7070   41.3120 C   0  0  2  0  0  0  0  0  0  0  0  0
   35.5560   28.7550   40.9240 C   0  0  0  0  0  0  0  0  0  0  0  0
   35.5750   28.5490   39.4490 C   0  0  0  0  0  0  0  0  0  0  0  0
   36.0680   29.8940   38.9870 C   0  0  0  0  0  0  0  0  0  0  0  0
   37.0370   30.3650   40.0510 C   0  0  1  0  0  0  0  0  0  0  0  0
   37.0850   31.8790   40.1240 C   0  0  0  0  0  0  0  0  0  0  0  0
   37.3470   32.3740   38.7160 C   0  0  0  0  0  0  0  0  0  0  0  0
   38.7830   32.0050   38.4230 C   0  0  0  0  0  0  0  0  0  0  0  0
   39.4610   32.1240   39.7520 C   0  0  0  0  0  0  0  0  0  0  0  0
   38.3810   32.2710   40.7990 C   0  0  0  0  0  0  0  0  0  0  0  0
   37.8110   29.0090   41.7480 O   0  0  0  0  0  0  0  0  0  0  0  0
   37.8600   28.2360   42.9440 C   0  0  0  0  0  0  0  0  0  0  0  0
   37.3840   28.8410   43.9270 O   0  0  0  0  0  0  0  0  0  0  0  0
   38.4140   26.8920   42.9450 C   0  0  0  0  0  0  0  0  0  0  0  0
   37.5960   25.9510   42.2630 C   0  0  0  0  0  0  0  0  0  0  0  0
   38.0630   24.6170   42.2290 C   0  0  0  0  0  0  0  0  0  0  0  0
   39.2480   24.3380   42.8460 N   0  0  0  0  0  0  0  0  0  0  0  0
   39.9810   25.2830   43.4800 C   0  0  0  0  0  0  0  0  0  0  0  0
   39.5550   26.5410   43.5200 N   0  0  0  0  0  0  0  0  0  0  0  0
   36.4709   30.3971   42.1281 H   0  0  0  0  0  0  0  0  0  0  0  0
   35.6790   27.7883   41.4343 H   0  0  0  0  0  0  0  0  0  0  0  0
   34.5971   29.2003   41.2278 H   0  0  0  0  0  0  0  0  0  0  0  0
   36.2659   27.7430   39.1610 H   0  0  0  0  0  0  0  0  0  0  0  0
   34.6104   28.2430   39.0178 H   0  0  0  0  0  0  0  0  0  0  0  0
   36.5787   29.8025   38.0171 H   0  0  0  0  0  0  0  0  0  0  0  0
   35.2393   30.6044   38.8506 H   0  0  0  0  0  0  0  0  0  0  0  0
   38.0629   30.0705   39.7851 H   0  0  0  0  0  0  0  0  0  0  0  0
   36.1728   32.2561   40.6095 H   0  0  0  0  0  0  0  0  0  0  0  0
   36.6697   31.8819   38.0025 H   0  0  0  0  0  0  0  0  0  0  0  0
   37.1753   33.4566   38.6238 H   0  0  0  0  0  0  0  0  0  0  0  0
   38.8526   30.9768   38.0383 H   0  0  0  0  0  0  0  0  0  0  0  0
   39.2385   32.6466   37.6543 H   0  0  0  0  0  0  0  0  0  0  0  0
   40.0579   31.2218   39.9517 H   0  0  0  0  0  0  0  0  0  0  0  0
   40.1369   32.9917   39.7668 H   0  0  0  0  0  0  0  0  0  0  0  0
   38.3288   33.3122   41.1499 H   0  0  0  0  0  0  0  0  0  0  0  0
   38.5838   31.6394   41.6765 H   0  0  0  0  0  0  0  0  0  0  0  0
   36.6492   26.2451   41.7866 H   0  0  0  0  0  0  0  0  0  0  0  0
   37.4889   23.8282   41.7209 H   0  0  0  0  0  0  0  0  0  0  0  0
   40.9307   25.0091   43.9628 H   0  0  0  0  0  0  0  0  0  0  0  0
  1 11  1  0
  2  1  1  0
  3  2  1  0
  4  3  1  0
  4  5  1  0
  5  6  1  0
  5  1  1  0
  6 10  1  0
  7  6  1  0
  8  7  1  0
  8  9  1  0
  9 10  1  0
 11 12  1  0
 12 14  1  0
 12 13  2  0
 14 19  1  0
 15 14  2  0
 16 15  1  0
 16 17  2  0
 17 18  1  0
 18 19  2  0
  1 20  1  1
  2 21  1  0
  2 22  1  0
  3 23  1  0
  3 24  1  0
  4 25  1  0
  4 26  1  0
  5 27  1  6
  6 28  1  0
  7 29  1  0
  7 30  1  0
  8 31  1  0
  8 32  1  0
  9 33  1  0
  9 34  1  0
 10 35  1  0
 10 36  1  0
 15 37  1  0
 16 38  1  0
 18 39  1  0
M  ISO  8  20  13  21  13  22  13  23  13  24  13  25  13  26  13  27  13
M  ISO  8  28  13  29  13  30  13  31  13  32  13  33  13  34  13  35  13
M  ISO  4  36  13  37  14  38  14  39  14
M  END
>  <minimizedAffinity>  (1) 
-5.07157564

>  <minimizedRMSD>  (1) 
1.01138806

$$$$
