
     RDKit          3D

 35 36  0  0  1  0  0  0  0  0999 V2000
   36.9750   29.9690   41.4950 C   0  0  2  0  0  0  0  0  0  0  0  0
   35.7170   29.2150   40.9540 C   0  0  0  0  0  0  0  0  0  0  0  0
   35.7710   29.1550   39.4760 C   0  0  0  0  0  0  0  0  0  0  0  0
   36.5460   30.3880   39.1160 C   0  0  0  0  0  0  0  0  0  0  0  0
   37.4190   30.7060   40.3190 C   0  0  1  0  0  0  0  0  0  0  0  0
   37.4350   32.2050   40.4380 C   0  0  0  0  0  0  0  0  0  0  0  0
   38.7370   32.7600   40.9140 C   0  0  0  0  0  0  0  0  0  0  0  0
   37.1730   32.8100   39.0660 C   0  0  0  0  0  0  0  0  0  0  0  0
   37.9270   29.0980   41.9170 O   0  0  0  0  0  0  0  0  0  0  0  0
   37.7710   28.1610   42.9770 C   0  0  0  0  0  0  0  0  0  0  0  0
   37.3310   28.6910   44.0220 O   0  0  0  0  0  0  0  0  0  0  0  0
   38.0990   26.7660   42.8020 C   0  0  0  0  0  0  0  0  0  0  0  0
   37.0350   26.0030   42.2500 C   0  0  0  0  0  0  0  0  0  0  0  0
   37.2480   24.6330   42.0420 C   0  0  0  0  0  0  0  0  0  0  0  0
   38.4720   24.1240   42.3890 N   0  0  0  0  0  0  0  0  0  0  0  0
   39.4520   24.8940   42.9120 C   0  0  0  0  0  0  0  0  0  0  0  0
   39.2530   26.1980   43.1100 N   0  0  0  0  0  0  0  0  0  0  0  0
   36.7670   30.6081   42.3658 H   0  0  0  0  0  0  0  0  0  0  0  0
   35.6993   28.1934   41.3614 H   0  0  0  0  0  0  0  0  0  0  0  0
   34.8082   29.7513   41.2647 H   0  0  0  0  0  0  0  0  0  0  0  0
   36.2915   28.2476   39.1360 H   0  0  0  0  0  0  0  0  0  0  0  0
   34.7766   29.1159   39.0073 H   0  0  0  0  0  0  0  0  0  0  0  0
   37.1708   30.2007   38.2302 H   0  0  0  0  0  0  0  0  0  0  0  0
   35.8761   31.2262   38.8739 H   0  0  0  0  0  0  0  0  0  0  0  0
   38.4597   30.3683   40.2054 H   0  0  0  0  0  0  0  0  0  0  0  0
   36.6631   32.4600   41.1791 H   0  0  0  0  0  0  0  0  0  0  0  0
   38.7526   32.7666   42.0139 H   0  0  0  0  0  0  0  0  0  0  0  0
   39.5610   32.1349   40.5394 H   0  0  0  0  0  0  0  0  0  0  0  0
   38.8566   33.7873   40.5394 H   0  0  0  0  0  0  0  0  0  0  0  0
   36.7384   33.8135   39.1847 H   0  0  0  0  0  0  0  0  0  0  0  0
   38.1198   32.8838   38.5109 H   0  0  0  0  0  0  0  0  0  0  0  0
   36.4714   32.1699   38.5109 H   0  0  0  0  0  0  0  0  0  0  0  0
   36.0739   26.4727   41.9938 H   0  0  0  0  0  0  0  0  0  0  0  0
   36.4625   23.9912   41.6165 H   0  0  0  0  0  0  0  0  0  0  0  0
   40.4197   24.4425   43.1760 H   0  0  0  0  0  0  0  0  0  0  0  0
  1  9  1  0
  2  1  1  0
  3  2  1  0
  4  3  1  0
  4  5  1  0
  5  6  1  0
  5  1  1  0
  6  7  1  0
  8  6  1  0
  9 10  1  0
 10 11  2  0
 12 10  1  0
 12 17  1  0
 13 12  2  0
 14 13  1  0
 14 15  2  0
 15 16  1  0
 16 17  2  0
  1 18  1  1
  2 19  1  0
  2 20  1  0
  3 21  1  0
  3 22  1  0
  4 23  1  0
  4 24  1  0
  5 25  1  6
  6 26  1  0
  7 27  1  0
  7 28  1  0
  7 29  1  0
  8 30  1  0
  8 31  1  0
  8 32  1  0
 13 33  1  0
 14 34  1  0
 16 35  1  0
M  ISO  8  18  13  19  13  20  13  21  13  22  13  23  13  24  13  25  13
M  ISO  8  26   8  27   8  28   8  29   8  30   8  31   8  32   8  33  14
M  ISO  2  34  14  35  14
M  END
>  <minimizedAffinity>  (1) 
-4.7871232

>  <minimizedRMSD>  (1) 
0.79869628

$$$$
