
     RDKit          3D

 38 39  0  0  1  0  0  0  0  0999 V2000
   35.9440   29.4370   40.4530 C   0  0  2  0  0  0  0  0  0  0  0  0
   34.5310   29.1410   39.8790 C   0  0  0  0  0  0  0  0  0  0  0  0
   34.6510   28.7670   38.4410 C   0  0  0  0  0  0  0  0  0  0  0  0
   35.8340   29.5990   38.0250 C   0  0  0  0  0  0  0  0  0  0  0  0
   36.7320   29.6860   39.2440 C   0  0  1  0  0  0  0  0  0  0  0  0
   37.5410   30.9590   39.2500 C   0  0  0  0  0  0  0  0  0  0  0  0
   37.0610   32.0080   40.1940 C   0  0  0  0  0  0  0  0  0  0  0  0
   38.9900   30.6510   39.5670 C   0  0  0  0  0  0  0  0  0  0  0  0
   37.5530   31.5790   37.8670 C   0  0  0  0  0  0  0  0  0  0  0  0
   36.4600   28.3500   41.1100 O   0  0  0  0  0  0  0  0  0  0  0  0
   37.3740   28.4360   42.2020 C   0  0  0  0  0  0  0  0  0  0  0  0
   37.3940   29.5760   42.7250 O   0  0  0  0  0  0  0  0  0  0  0  0
   38.1620   27.2900   42.6150 C   0  0  0  0  0  0  0  0  0  0  0  0
   37.7620   26.0790   41.9920 C   0  0  0  0  0  0  0  0  0  0  0  0
   38.4700   24.9170   42.3440 C   0  0  0  0  0  0  0  0  0  0  0  0
   39.4870   25.0350   43.2560 N   0  0  0  0  0  0  0  0  0  0  0  0
   39.8200   26.2190   43.8160 C   0  0  0  0  0  0  0  0  0  0  0  0
   39.1560   27.3270   43.4900 N   0  0  0  0  0  0  0  0  0  0  0  0
   35.9390   30.2628   41.1797 H   0  0  0  0  0  0  0  0  0  0  0  0
   34.0742   28.3108   40.4376 H   0  0  0  0  0  0  0  0  0  0  0  0
   33.8996   30.0366   39.9750 H   0  0  0  0  0  0  0  0  0  0  0  0
   34.8501   27.6921   38.3185 H   0  0  0  0  0  0  0  0  0  0  0  0
   33.7411   28.9450   37.8490 H   0  0  0  0  0  0  0  0  0  0  0  0
   36.3662   29.1172   37.1916 H   0  0  0  0  0  0  0  0  0  0  0  0
   35.5242   30.5966   37.6803 H   0  0  0  0  0  0  0  0  0  0  0  0
   37.4947   28.8941   39.2109 H   0  0  0  0  0  0  0  0  0  0  0  0
   37.2162   31.6688   41.2288 H   0  0  0  0  0  0  0  0  0  0  0  0
   37.6230   32.9384   40.0249 H   0  0  0  0  0  0  0  0  0  0  0  0
   35.9896   32.1909   40.0249 H   0  0  0  0  0  0  0  0  0  0  0  0
   39.1284   30.6216   40.6579 H   0  0  0  0  0  0  0  0  0  0  0  0
   39.2601   29.6754   39.1367 H   0  0  0  0  0  0  0  0  0  0  0  0
   39.6336   31.4324   39.1367 H   0  0  0  0  0  0  0  0  0  0  0  0
   37.5742   32.6751   37.9567 H   0  0  0  0  0  0  0  0  0  0  0  0
   38.4447   31.2385   37.3203 H   0  0  0  0  0  0  0  0  0  0  0  0
   36.6488   31.2733   37.3203 H   0  0  0  0  0  0  0  0  0  0  0  0
   36.9355   26.0512   41.2667 H   0  0  0  0  0  0  0  0  0  0  0  0
   38.2159   23.9426   41.9013 H   0  0  0  0  0  0  0  0  0  0  0  0
   40.6430   26.2681   44.5442 H   0  0  0  0  0  0  0  0  0  0  0  0
  1 10  1  0
  2  1  1  0
  3  2  1  0
  4  3  1  0
  4  5  1  0
  5  6  1  0
  5  1  1  0
  6  8  1  0
  6  7  1  0
  9  6  1  0
 10 11  1  0
 11 13  1  0
 11 12  2  0
 13 18  2  0
 14 15  2  0
 14 13  1  0
 15 16  1  0
 16 17  2  0
 18 17  1  0
  1 19  1  1
  2 20  1  0
  2 21  1  0
  3 22  1  0
  3 23  1  0
  4 24  1  0
  4 25  1  0
  5 26  1  6
  7 27  1  0
  7 28  1  0
  7 29  1  0
  8 30  1  0
  8 31  1  0
  8 32  1  0
  9 33  1  0
  9 34  1  0
  9 35  1  0
 14 36  1  0
 15 37  1  0
 17 38  1  0
M  ISO  8  19  13  20  13  21  13  22  13  23  13  24  13  25  13  26  13
M  ISO  8  27   8  28   8  29   8  30   8  31   8  32   8  33   8  34   8
M  ISO  4  35   8  36  14  37  14  38  14
M  END
>  <minimizedAffinity>  (1) 
-4.77574873

>  <minimizedRMSD>  (1) 
1.89538217

$$$$
