
     RDKit          3D

 36 38  0  0  1  0  0  0  0  0999 V2000
   39.9290   31.8130   39.9120 C   0  0  0  0  0  0  0  0  0  0  0  0
   39.5380   30.6750   40.6750 C   0  0  0  0  0  0  0  0  0  0  0  0
   38.2380   30.6180   41.1080 C   0  0  0  0  0  0  0  0  0  0  0  0
   37.3840   31.6470   40.7900 N   0  0  0  0  0  0  0  0  0  0  0  0
   37.7810   32.7120   40.0650 C   0  0  0  0  0  0  0  0  0  0  0  0
   39.0660   32.7980   39.6200 N   0  0  0  0  0  0  0  0  0  0  0  0
   36.8520   33.7450   39.7670 N   0  0  0  0  0  0  0  0  0  0  0  0
   37.7580   29.5400   41.8660 N   0  0  0  0  0  0  0  0  0  0  0  0
   38.3730   29.2240   43.1360 C   0  0  0  0  0  0  0  0  0  0  0  0
   37.3380   28.4440   43.9530 C   0  0  0  0  0  0  0  0  0  0  0  0
   36.8730   27.2540   43.2990 N   0  0  0  0  0  0  0  0  0  0  0  0
   36.8570   27.3180   41.8820 C   0  0  0  0  0  0  0  0  0  0  0  0
   36.6530   28.7300   41.4020 C   0  0  2  0  0  0  0  0  0  0  0  0
   36.4100   28.8130   39.9420 C   0  0  0  0  0  0  0  0  0  0  0  0
   35.1500   29.1790   39.4700 C   0  0  0  0  0  0  0  0  0  0  0  0
   34.8490   29.2790   38.1370 C   0  0  0  0  0  0  0  0  0  0  0  0
   35.8430   29.0020   37.2900 N   0  0  0  0  0  0  0  0  0  0  0  0
   37.0670   28.6460   37.7280 C   0  0  0  0  0  0  0  0  0  0  0  0
   37.3750   28.5450   39.0420 N   0  0  0  0  0  0  0  0  0  0  0  0
   38.1380   28.3480   36.8080 C   0  0  0  0  0  0  0  0  0  0  0  0
   37.9810   28.1160   35.5670 O   0  0  0  0  0  0  0  0  0  0  0  0
   40.9661   31.8860   39.5527 H   0  0  0  0  0  0  0  0  0  0  0  0
   40.2525   29.8718   40.9081 H   0  0  0  0  0  0  0  0  0  0  0  0
   37.1494   34.5612   39.2135 H   0  0  0  0  0  0  0  0  0  0  0  0
   35.8812   33.6777   40.1045 H   0  0  0  0  0  0  0  0  0  0  0  0
   39.2712   28.6089   42.9782 H   0  0  0  0  0  0  0  0  0  0  0  0
   38.6795   30.1399   43.6625 H   0  0  0  0  0  0  0  0  0  0  0  0
   37.7945   28.1587   44.9123 H   0  0  0  0  0  0  0  0  0  0  0  0
   36.4669   29.1024   44.0858 H   0  0  0  0  0  0  0  0  0  0  0  0
   37.4872   26.4754   43.5771 H   0  0  0  0  0  0  0  0  0  0  0  0
   37.8160   26.9428   41.4952 H   0  0  0  0  0  0  0  0  0  0  0  0
   36.0226   26.7020   41.5154 H   0  0  0  0  0  0  0  0  0  0  0  0
   35.7273   29.1354   41.8365 H   0  0  0  0  0  0  0  0  0  0  0  0
   34.3596   29.3980   40.2030 H   0  0  0  0  0  0  0  0  0  0  0  0
   33.8481   29.5701   37.7858 H   0  0  0  0  0  0  0  0  0  0  0  0
   39.1624   28.3194   37.2079 H   0  0  0  0  0  0  0  0  0  0  0  0
  1  2  2  0
  2  3  1  0
  3  8  1  0
  4  3  2  0
  5  4  1  0
  6  1  1  0
  6  5  2  0
  7  5  1  0
  8  9  1  0
  9 10  1  0
 11 10  1  0
 12 11  1  0
 13  8  1  0
 13 12  1  0
 14 13  1  0
 15 14  2  0
 16 15  1  0
 17 18  1  0
 17 16  2  0
 18 19  2  0
 19 14  1  0
 20 18  1  0
 21 20  2  0
  1 22  1  0
  2 23  1  0
  7 24  1  0
  7 25  1  0
  9 26  1  0
  9 27  1  0
 10 28  1  0
 10 29  1  0
 11 30  1  0
 12 31  1  0
 12 32  1  0
 13 33  1  1
 15 34  1  0
 16 35  1  0
 20 36  1  0
M  ISO  8  22  14  23  14  26  13  27  13  28  13  29  13  30   5  31  13
M  ISO  5  32  13  33  13  34  14  35  14  36   6
M  END
>  <minimizedAffinity>  (1) 
-5.49325228

>  <minimizedRMSD>  (1) 
0.30600825

$$$$
