
     RDKit          3D

 32 33  0  0  1  0  0  0  0  0999 V2000
   36.8310   29.7220   41.4130 C   0  0  2  0  0  0  0  0  0  0  0  0
   35.6760   28.8220   40.8930 C   0  0  0  0  0  0  0  0  0  0  0  0
   35.7570   28.7140   39.4140 C   0  0  0  0  0  0  0  0  0  0  0  0
   36.3810   30.0230   39.0210 C   0  0  0  0  0  0  0  0  0  0  0  0
   37.2060   30.4770   40.2150 C   0  0  1  0  0  0  0  0  0  0  0  0
   37.8960   28.9800   41.8500 O   0  0  0  0  0  0  0  0  0  0  0  0
   37.8560   28.1370   43.0030 C   0  0  0  0  0  0  0  0  0  0  0  0
   37.3090   28.6900   43.9850 O   0  0  0  0  0  0  0  0  0  0  0  0
   38.4010   26.8000   42.9770 C   0  0  0  0  0  0  0  0  0  0  0  0
   37.5950   25.8710   42.2700 C   0  0  0  0  0  0  0  0  0  0  0  0
   38.0490   24.5400   42.2020 C   0  0  0  0  0  0  0  0  0  0  0  0
   39.2260   24.2400   42.8170 N   0  0  0  0  0  0  0  0  0  0  0  0
   39.9600   25.1640   43.4800 C   0  0  0  0  0  0  0  0  0  0  0  0
   39.5340   26.4210   43.5460 N   0  0  0  0  0  0  0  0  0  0  0  0
   36.9920   31.9690   40.4560 C   0  0  0  0  0  0  0  0  0  0  0  0
   37.2240   32.7890   39.2260 C   0  0  0  0  0  0  0  0  0  0  0  0
   36.5327   30.3444   42.2695 H   0  0  0  0  0  0  0  0  0  0  0  0
   35.7633   27.8201   41.3387 H   0  0  0  0  0  0  0  0  0  0  0  0
   34.7103   29.2671   41.1748 H   0  0  0  0  0  0  0  0  0  0  0  0
   36.3899   27.8664   39.1122 H   0  0  0  0  0  0  0  0  0  0  0  0
   34.7831   28.5336   38.9355 H   0  0  0  0  0  0  0  0  0  0  0  0
   37.0268   29.8882   38.1408 H   0  0  0  0  0  0  0  0  0  0  0  0
   35.6158   30.7678   38.7569 H   0  0  0  0  0  0  0  0  0  0  0  0
   38.2687   30.2919   39.9993 H   0  0  0  0  0  0  0  0  0  0  0  0
   36.6524   26.1785   41.7936 H   0  0  0  0  0  0  0  0  0  0  0  0
   37.4724   23.7688   41.6701 H   0  0  0  0  0  0  0  0  0  0  0  0
   40.9056   24.8755   43.9624 H   0  0  0  0  0  0  0  0  0  0  0  0
   35.9573   32.1265   40.7946 H   0  0  0  0  0  0  0  0  0  0  0  0
   37.7203   32.2921   41.2144 H   0  0  0  0  0  0  0  0  0  0  0  0
   37.5129   33.8102   39.5152 H   0  0  0  0  0  0  0  0  0  0  0  0
   38.0290   32.3353   38.6293 H   0  0  0  0  0  0  0  0  0  0  0  0
   36.3006   32.8243   38.6293 H   0  0  0  0  0  0  0  0  0  0  0  0
  1  6  1  0
  2  1  1  0
  3  2  1  0
  4  3  1  0
  4  5  1  0
  5 15  1  0
  5  1  1  0
  6  7  1  0
  7  8  2  0
  9  7  1  0
  9 14  1  0
 10  9  2  0
 11 10  1  0
 11 12  2  0
 12 13  1  0
 13 14  2  0
 16 15  1  0
  1 17  1  1
  2 18  1  0
  2 19  1  0
  3 20  1  0
  3 21  1  0
  4 22  1  0
  4 23  1  0
  5 24  1  6
 10 25  1  0
 11 26  1  0
 13 27  1  0
 15 28  1  0
 15 29  1  0
 16 30  1  0
 16 31  1  0
 16 32  1  0
M  ISO  8  17  13  18  13  19  13  20  13  21  13  22  13  23  13  24  13
M  ISO  8  25  14  26  14  27  14  28   8  29   8  30   8  31   8  32   8
M  END
>  <minimizedAffinity>  (1) 
-4.53512955

>  <minimizedRMSD>  (1) 
0.638989091

$$$$
