
     RDKit          3D

 29 30  0  0  1  0  0  0  0  0999 V2000
   36.6140   29.8580   41.8330 C   0  0  2  0  0  0  0  0  0  0  0  0
   35.8450   28.9210   40.8530 C   0  0  0  0  0  0  0  0  0  0  0  0
   36.2360   29.2500   39.4540 C   0  0  0  0  0  0  0  0  0  0  0  0
   36.5320   30.7220   39.5420 C   0  0  0  0  0  0  0  0  0  0  0  0
   36.9870   30.9760   40.9700 C   0  0  2  0  0  0  0  0  0  0  0  0
   38.4860   31.1630   40.8660 C   0  0  0  0  0  0  0  0  0  0  0  0
   39.1360   32.1440   41.3510 O   0  0  0  0  0  0  0  0  0  0  0  0
   39.3890   30.3170   40.2390 O   0  0  0  0  0  0  0  0  0  0  0  0
   37.7220   29.2560   42.3420 O   0  0  0  0  0  0  0  0  0  0  0  0
   37.7090   28.2850   43.3880 C   0  0  0  0  0  0  0  0  0  0  0  0
   37.0400   28.6580   44.3780 O   0  0  0  0  0  0  0  0  0  0  0  0
   38.4020   27.0260   43.2560 C   0  0  0  0  0  0  0  0  0  0  0  0
   37.7300   26.0900   42.4270 C   0  0  0  0  0  0  0  0  0  0  0  0
   38.3240   24.8340   42.2400 C   0  0  0  0  0  0  0  0  0  0  0  0
   39.5150   24.5940   42.8750 N   0  0  0  0  0  0  0  0  0  0  0  0
   40.1140   25.5200   43.6560 C   0  0  0  0  0  0  0  0  0  0  0  0
   39.5520   26.7120   43.8330 N   0  0  0  0  0  0  0  0  0  0  0  0
   36.0157   30.1468   42.7097 H   0  0  0  0  0  0  0  0  0  0  0  0
   36.0998   27.8731   41.0696 H   0  0  0  0  0  0  0  0  0  0  0  0
   34.7615   29.0644   40.9777 H   0  0  0  0  0  0  0  0  0  0  0  0
   35.4124   29.0505   38.7527 H   0  0  0  0  0  0  0  0  0  0  0  0
   37.0805   28.6523   39.0804 H   0  0  0  0  0  0  0  0  0  0  0  0
   37.3282   30.9943   38.8335 H   0  0  0  0  0  0  0  0  0  0  0  0
   35.6479   31.3255   39.2886 H   0  0  0  0  0  0  0  0  0  0  0  0
   36.5124   31.8579   41.4250 H   0  0  0  0  0  0  0  0  0  0  0  0
   40.3536   30.5398   40.2324 H   0  0  0  0  0  0  0  0  0  0  0  0
   36.7732   26.3423   41.9464 H   0  0  0  0  0  0  0  0  0  0  0  0
   37.8515   24.0687   41.6067 H   0  0  0  0  0  0  0  0  0  0  0  0
   41.0702   25.2867   44.1472 H   0  0  0  0  0  0  0  0  0  0  0  0
  1  9  1  0
  2  1  1  0
  3  4  1  0
  3  2  1  0
  4  5  1  0
  5  1  1  0
  6  5  1  0
  6  7  2  0
  8  6  1  0
  9 10  1  0
 10 11  2  0
 12 10  1  0
 12 17  1  0
 13 12  2  0
 14 13  1  0
 14 15  2  0
 15 16  1  0
 16 17  2  0
  1 18  1  1
  2 19  1  0
  2 20  1  0
  3 21  1  0
  3 22  1  0
  4 23  1  0
  4 24  1  0
  5 25  1  1
  8 26  1  0
 13 27  1  0
 14 28  1  0
 16 29  1  0
M  ISO  8  18  13  19  13  20  13  21  13  22  13  23  13  24  13  25  13
M  ISO  4  26   3  27  14  28  14  29  14
M  END
>  <minimizedAffinity>  (1) 
-4.43787622

>  <minimizedRMSD>  (1) 
0.373138249

$$$$
