
     RDKit          3D

 29 30  0  0  1  0  0  0  0  0999 V2000
   36.8560   29.7270   41.4090 C   0  0  2  0  0  0  0  0  0  0  0  0
   35.6930   28.8290   40.9060 C   0  0  0  0  0  0  0  0  0  0  0  0
   35.7800   28.6810   39.4310 C   0  0  0  0  0  0  0  0  0  0  0  0
   36.4130   29.9800   39.0100 C   0  0  0  0  0  0  0  0  0  0  0  0
   37.2250   30.4620   40.2010 C   0  0  1  0  0  0  0  0  0  0  0  0
   36.9450   31.9670   40.3730 C   0  0  0  0  0  0  0  0  0  0  0  0
   37.9130   28.9910   41.8650 O   0  0  0  0  0  0  0  0  0  0  0  0
   37.8610   28.1440   43.0120 C   0  0  0  0  0  0  0  0  0  0  0  0
   37.3060   28.6900   43.9900 O   0  0  0  0  0  0  0  0  0  0  0  0
   38.4040   26.7960   42.9870 C   0  0  0  0  0  0  0  0  0  0  0  0
   37.6010   25.8700   42.2780 C   0  0  0  0  0  0  0  0  0  0  0  0
   38.0450   24.5450   42.1990 C   0  0  0  0  0  0  0  0  0  0  0  0
   39.2300   24.2430   42.8180 N   0  0  0  0  0  0  0  0  0  0  0  0
   39.9550   25.1700   43.4810 C   0  0  0  0  0  0  0  0  0  0  0  0
   39.5420   26.4310   43.5610 N   0  0  0  0  0  0  0  0  0  0  0  0
   36.5679   30.3649   42.2576 H   0  0  0  0  0  0  0  0  0  0  0  0
   35.7650   27.8381   41.3782 H   0  0  0  0  0  0  0  0  0  0  0  0
   34.7318   29.2940   41.1704 H   0  0  0  0  0  0  0  0  0  0  0  0
   36.4107   27.8233   39.1541 H   0  0  0  0  0  0  0  0  0  0  0  0
   34.8085   28.4909   38.9513 H   0  0  0  0  0  0  0  0  0  0  0  0
   37.0684   29.8208   38.1410 H   0  0  0  0  0  0  0  0  0  0  0  0
   35.6532   30.7196   38.7173 H   0  0  0  0  0  0  0  0  0  0  0  0
   38.2976   30.2882   40.0297 H   0  0  0  0  0  0  0  0  0  0  0  0
   36.8995   32.2114   41.4445 H   0  0  0  0  0  0  0  0  0  0  0  0
   37.7508   32.5464   39.8986 H   0  0  0  0  0  0  0  0  0  0  0  0
   35.9848   32.2179   39.8986 H   0  0  0  0  0  0  0  0  0  0  0  0
   36.6584   26.1820   41.8045 H   0  0  0  0  0  0  0  0  0  0  0  0
   37.4671   23.7781   41.6625 H   0  0  0  0  0  0  0  0  0  0  0  0
   40.9003   24.8774   43.9614 H   0  0  0  0  0  0  0  0  0  0  0  0
  1  7  1  0
  2  1  1  0
  3  2  1  0
  4  3  1  0
  4  5  1  0
  5  6  1  0
  5  1  1  0
  7  8  1  0
  8  9  2  0
 10  8  1  0
 10 15  1  0
 11 10  2  0
 12 11  1  0
 12 13  2  0
 13 14  1  0
 14 15  2  0
  1 16  1  1
  2 17  1  0
  2 18  1  0
  3 19  1  0
  3 20  1  0
  4 21  1  0
  4 22  1  0
  5 23  1  6
  6 24  1  0
  6 25  1  0
  6 26  1  0
 11 27  1  0
 12 28  1  0
 14 29  1  0
M  ISO  8  16  13  17  13  18  13  19  13  20  13  21  13  22  13  23  13
M  ISO  6  24   8  25   8  26   8  27  14  28  14  29  14
M  END
>  <minimizedAffinity>  (1) 
-4.32200718

>  <minimizedRMSD>  (1) 
0.527980685

$$$$
