
     RDKit          3D

 27 28  0  0  1  0  0  0  0  0999 V2000
   36.7690   29.8430   41.8050 C   0  0  2  0  0  0  0  0  0  0  0  0
   35.7660   29.0320   40.9280 C   0  0  0  0  0  0  0  0  0  0  0  0
   36.0780   29.2740   39.4910 C   0  0  0  0  0  0  0  0  0  0  0  0
   36.5260   30.7110   39.5430 C   0  0  0  0  0  0  0  0  0  0  0  0
   37.2150   30.8830   40.8870 C   0  0  2  0  0  0  0  0  0  0  0  0
   39.0090   30.7280   40.4930 S   0  0  0  0  0  0  0  0  0  0  0  0
   37.8210   29.0870   42.2110 O   0  0  0  0  0  0  0  0  0  0  0  0
   37.7560   28.1190   43.2590 C   0  0  0  0  0  0  0  0  0  0  0  0
   37.1540   28.5390   44.2740 O   0  0  0  0  0  0  0  0  0  0  0  0
   38.3440   26.8020   43.0900 C   0  0  0  0  0  0  0  0  0  0  0  0
   37.5330   25.9210   42.3210 C   0  0  0  0  0  0  0  0  0  0  0  0
   38.0560   24.6080   42.1510 C   0  0  0  0  0  0  0  0  0  0  0  0
   39.2570   24.2990   42.7180 N   0  0  0  0  0  0  0  0  0  0  0  0
   39.9580   25.1940   43.4290 C   0  0  0  0  0  0  0  0  0  0  0  0
   39.5020   26.4260   43.6090 N   0  0  0  0  0  0  0  0  0  0  0  0
   36.3141   30.2202   42.7328 H   0  0  0  0  0  0  0  0  0  0  0  0
   35.8632   27.9594   41.1516 H   0  0  0  0  0  0  0  0  0  0  0  0
   34.7364   29.3524   41.1455 H   0  0  0  0  0  0  0  0  0  0  0  0
   35.1884   29.1491   38.8561 H   0  0  0  0  0  0  0  0  0  0  0  0
   36.8149   28.5804   39.0598 H   0  0  0  0  0  0  0  0  0  0  0  0
   37.2279   30.9231   38.7230 H   0  0  0  0  0  0  0  0  0  0  0  0
   35.6783   31.4031   39.4317 H   0  0  0  0  0  0  0  0  0  0  0  0
   36.9901   31.8408   41.3790 H   0  0  0  0  0  0  0  0  0  0  0  0
   39.7285   30.6658   41.6572 H   0  0  0  0  0  0  0  0  0  0  0  0
   36.5706   26.2324   41.8888 H   0  0  0  0  0  0  0  0  0  0  0  0
   37.5007   23.8554   41.5720 H   0  0  0  0  0  0  0  0  0  0  0  0
   40.9234   24.9025   43.8684 H   0  0  0  0  0  0  0  0  0  0  0  0
  1  7  1  0
  2  1  1  0
  3  4  1  0
  3  2  1  0
  4  5  1  0
  5  1  1  0
  6  5  1  0
  7  8  1  0
  8  9  2  0
 10  8  1  0
 10 15  1  0
 11 10  2  0
 12 11  1  0
 12 13  2  0
 13 14  1  0
 14 15  2  0
  1 16  1  1
  2 17  1  0
  2 18  1  0
  3 19  1  0
  3 20  1  0
  4 21  1  0
  4 22  1  0
  5 23  1  1
  6 24  1  0
 11 25  1  0
 12 26  1  0
 14 27  1  0
M  ISO  8  16  13  17  13  18  13  19  13  20  13  21  13  22  13  23  13
M  ISO  4  24  11  25  14  26  14  27  14
M  END
>  <minimizedAffinity>  (1) 
-4.23805141

>  <minimizedRMSD>  (1) 
0.0499476045

$$$$
