
     RDKit          3D

 47 51  0  0  1  0  0  0  0  0999 V2000
   38.0640   29.1450   40.6170 C   0  0  2  0  0  0  0  0  0  0  0  0
   37.2060   29.4330   39.2590 C   0  0  0  0  0  0  0  0  0  0  0  0
   35.8700   29.8960   39.6240 C   0  0  0  0  0  0  0  0  0  0  0  0
   35.6350   29.0970   40.8580 C   0  0  0  0  0  0  0  0  0  0  0  0
   36.9960   29.0350   41.5480 C   0  0  1  0  0  0  0  0  0  0  0  0
   37.1010   27.8650   42.4840 C   0  0  0  0  0  0  0  0  0  0  0  0
   38.3530   27.6130   43.2030 C   0  0  0  0  0  0  0  0  0  0  0  0
   37.2110   28.2000   43.9900 C   0  0  0  0  0  0  0  0  0  0  0  0
   38.7880   30.2370   40.8350 O   0  0  0  0  0  0  0  0  0  0  0  0
   40.1680   30.4050   40.4650 C   0  0  0  0  0  0  0  0  0  0  0  0
   40.8910   29.4420   40.6340 O   0  0  0  0  0  0  0  0  0  0  0  0
   40.5440   31.7090   39.9180 C   0  0  0  0  0  0  0  0  0  0  0  0
   40.7500   31.7250   38.5000 C   0  0  0  0  0  0  0  0  0  0  0  0
   41.1290   32.9370   37.9140 C   0  0  0  0  0  0  0  0  0  0  0  0
   41.2750   34.0140   38.7390 N   0  0  0  0  0  0  0  0  0  0  0  0
   41.0760   33.9670   40.0640 C   0  0  0  0  0  0  0  0  0  0  0  0
   40.7130   32.8080   40.6300 N   0  0  0  0  0  0  0  0  0  0  0  0
   41.2590   35.1750   40.8640 C   0  0  0  0  0  0  0  0  0  0  0  0
   40.4030   36.2580   40.8580 C   0  0  0  0  0  0  0  0  0  0  0  0
   40.9220   37.1360   41.7130 N   0  0  0  0  0  0  0  0  0  0  0  0
   42.0610   36.6850   42.2710 C   0  0  0  0  0  0  0  0  0  0  0  0
   42.9710   37.1700   43.1850 C   0  0  0  0  0  0  0  0  0  0  0  0
   44.0920   36.4430   43.5770 C   0  0  0  0  0  0  0  0  0  0  0  0
   44.2990   35.1950   43.0310 C   0  0  0  0  0  0  0  0  0  0  0  0
   43.4030   34.6710   42.1050 C   0  0  0  0  0  0  0  0  0  0  0  0
   42.2950   35.4290   41.7400 C   0  0  0  0  0  0  0  0  0  0  0  0
   38.7484   28.2839   40.6290 H   0  0  0  0  0  0  0  0  0  0  0  0
   37.1264   28.5069   38.6708 H   0  0  0  0  0  0  0  0  0  0  0  0
   37.7125   30.2028   38.6582 H   0  0  0  0  0  0  0  0  0  0  0  0
   35.8568   30.9763   39.8308 H   0  0  0  0  0  0  0  0  0  0  0  0
   35.1090   29.7649   38.8406 H   0  0  0  0  0  0  0  0  0  0  0  0
   34.8950   29.5913   41.5046 H   0  0  0  0  0  0  0  0  0  0  0  0
   35.2367   28.0962   40.6350 H   0  0  0  0  0  0  0  0  0  0  0  0
   37.0893   29.9194   42.1954 H   0  0  0  0  0  0  0  0  0  0  0  0
   36.4543   27.2424   41.8482 H   0  0  0  0  0  0  0  0  0  0  0  0
   38.6686   26.5770   43.3958 H   0  0  0  0  0  0  0  0  0  0  0  0
   39.3987   27.9128   43.0395 H   0  0  0  0  0  0  0  0  0  0  0  0
   37.2463   29.2466   44.3268 H   0  0  0  0  0  0  0  0  0  0  0  0
   36.6587   27.9351   44.9037 H   0  0  0  0  0  0  0  0  0  0  0  0
   40.6149   30.8168   37.8943 H   0  0  0  0  0  0  0  0  0  0  0  0
   41.3025   33.0188   36.8309 H   0  0  0  0  0  0  0  0  0  0  0  0
   39.4816   36.3719   40.2680 H   0  0  0  0  0  0  0  0  0  0  0  0
   40.5017   38.0526   41.9230 H   0  0  0  0  0  0  0  0  0  0  0  0
   42.8060   38.1666   43.6203 H   0  0  0  0  0  0  0  0  0  0  0  0
   44.7999   36.8577   44.3097 H   0  0  0  0  0  0  0  0  0  0  0  0
   45.1801   34.6082   43.3299 H   0  0  0  0  0  0  0  0  0  0  0  0
   43.5676   33.6746   41.6689 H   0  0  0  0  0  0  0  0  0  0  0  0
  1  9  1  0
  1  5  1  0
  2  3  1  0
  2  1  1  0
  3  4  1  0
  4  5  1  0
  5  6  1  0
  6  7  1  0
  6  8  1  0
  7  8  1  0
 10 11  2  0
 10  9  1  0
 12 10  1  0
 12 17  1  0
 13 12  2  0
 14 13  1  0
 14 15  2  0
 15 16  1  0
 16 17  2  0
 16 18  1  0
 18 26  1  0
 19 18  2  0
 19 20  1  0
 20 21  1  0
 21 22  2  0
 22 23  1  0
 24 23  2  0
 25 24  1  0
 26 25  2  0
 26 21  1  0
  1 27  1  6
  2 28  1  0
  2 29  1  0
  3 30  1  0
  3 31  1  0
  4 32  1  0
  4 33  1  0
  5 34  1  1
  6 35  1  0
  7 36  1  0
  7 37  1  0
  8 38  1  0
  8 39  1  0
 13 40  1  0
 14 41  1  0
 19 42  1  0
 20 43  1  0
 22 44  1  0
 23 45  1  0
 24 46  1  0
 25 47  1  0
M  ISO  8  27  13  28  13  29  13  30  13  31  13  32  13  33  13  34  13
M  ISO  8  35  13  36  13  37  13  38  13  39  13  40  14  41  14  42  14
M  ISO  5  43   9  44  14  45  14  46  14  47  14
M  END
>  <minimizedAffinity>  (1) 
-6.67331696

>  <minimizedRMSD>  (1) 
1.60513043

$$$$
