
     RDKit          3D

 47 50  0  0  1  0  0  0  0  0999 V2000
   37.7300   28.9750   40.5130 C   0  0  2  0  0  0  0  0  0  0  0  0
   36.8810   29.4090   39.1860 C   0  0  0  0  0  0  0  0  0  0  0  0
   35.5440   29.8330   39.5890 C   0  0  0  0  0  0  0  0  0  0  0  0
   35.2990   28.9160   40.7340 C   0  0  0  0  0  0  0  0  0  0  0  0
   36.6560   28.7780   41.4210 C   0  0  1  0  0  0  0  0  0  0  0  0
   36.7470   27.5200   42.2380 C   0  0  0  0  0  0  0  0  0  0  0  0
   37.9560   27.2380   43.0140 C   0  0  0  0  0  0  0  0  0  0  0  0
   36.7410   27.6970   43.7740 C   0  0  0  0  0  0  0  0  0  0  0  0
   38.4600   30.0320   40.8410 O   0  0  0  0  0  0  0  0  0  0  0  0
   39.2830   30.7900   39.9390 C   0  0  0  0  0  0  0  0  0  0  0  0
   39.8870   30.1470   39.0980 O   0  0  0  0  0  0  0  0  0  0  0  0
   39.2960   32.2460   40.1280 C   0  0  0  0  0  0  0  0  0  0  0  0
   38.0530   32.8890   39.8320 C   0  0  0  0  0  0  0  0  0  0  0  0
   38.0080   34.2850   39.9700 C   0  0  0  0  0  0  0  0  0  0  0  0
   39.1440   34.9230   40.3740 N   0  0  0  0  0  0  0  0  0  0  0  0
   40.2960   34.2650   40.6410 C   0  0  0  0  0  0  0  0  0  0  0  0
   40.3420   32.9520   40.5120 N   0  0  0  0  0  0  0  0  0  0  0  0
   41.4400   35.0200   41.0610 N   0  0  0  0  0  0  0  0  0  0  0  0
   41.3130   36.4580   41.1790 C   0  0  0  0  0  0  0  0  0  0  0  0
   42.0370   36.9990   42.3790 C   0  0  0  0  0  0  0  0  0  0  0  0
   42.8830   36.0070   43.0100 N   0  0  0  0  0  0  0  0  0  0  0  0
   43.6170   35.2190   42.0650 C   0  0  0  0  0  0  0  0  0  0  0  0
   42.6720   34.3080   41.3460 C   0  0  0  0  0  0  0  0  0  0  0  0
   38.4077   28.1114   40.4432 H   0  0  0  0  0  0  0  0  0  0  0  0
   36.8042   28.5513   38.5016 H   0  0  0  0  0  0  0  0  0  0  0  0
   37.3929   30.2375   38.6745 H   0  0  0  0  0  0  0  0  0  0  0  0
   35.5303   30.8870   39.9034 H   0  0  0  0  0  0  0  0  0  0  0  0
   34.7881   29.7807   38.7916 H   0  0  0  0  0  0  0  0  0  0  0  0
   34.5577   29.3464   41.4234 H   0  0  0  0  0  0  0  0  0  0  0  0
   34.8974   27.9447   40.4094 H   0  0  0  0  0  0  0  0  0  0  0  0
   36.7522   29.5936   42.1528 H   0  0  0  0  0  0  0  0  0  0  0  0
   36.1712   26.9460   41.4970 H   0  0  0  0  0  0  0  0  0  0  0  0
   38.3018   26.1992   43.1206 H   0  0  0  0  0  0  0  0  0  0  0  0
   38.9965   27.5904   42.9572 H   0  0  0  0  0  0  0  0  0  0  0  0
   36.7090   28.7025   44.2189 H   0  0  0  0  0  0  0  0  0  0  0  0
   36.1405   27.3173   44.6138 H   0  0  0  0  0  0  0  0  0  0  0  0
   37.1715   32.3149   39.5105 H   0  0  0  0  0  0  0  0  0  0  0  0
   37.0861   34.8467   39.7591 H   0  0  0  0  0  0  0  0  0  0  0  0
   41.7297   36.9251   40.2745 H   0  0  0  0  0  0  0  0  0  0  0  0
   40.2448   36.6923   41.2973 H   0  0  0  0  0  0  0  0  0  0  0  0
   42.6630   37.8458   42.0612 H   0  0  0  0  0  0  0  0  0  0  0  0
   41.2800   37.3093   43.1143 H   0  0  0  0  0  0  0  0  0  0  0  0
   43.5526   36.4898   43.6260 H   0  0  0  0  0  0  0  0  0  0  0  0
   44.1131   35.8812   41.3401 H   0  0  0  0  0  0  0  0  0  0  0  0
   44.3770   34.6230   42.5914 H   0  0  0  0  0  0  0  0  0  0  0  0
   42.4533   33.4339   41.9769 H   0  0  0  0  0  0  0  0  0  0  0  0
   43.1296   33.9732   40.4034 H   0  0  0  0  0  0  0  0  0  0  0  0
  1  9  1  0
  1  5  1  0
  2  3  1  0
  2  1  1  0
  3  4  1  0
  4  5  1  0
  5  6  1  0
  6  7  1  0
  6  8  1  0
  7  8  1  0
 10 12  1  0
 10  9  1  0
 11 10  2  0
 12 17  2  0
 13 14  2  0
 13 12  1  0
 14 15  1  0
 15 16  2  0
 16 18  1  0
 17 16  1  0
 18 19  1  0
 18 23  1  0
 19 20  1  0
 20 21  1  0
 22 21  1  0
 23 22  1  0
  1 24  1  6
  2 25  1  0
  2 26  1  0
  3 27  1  0
  3 28  1  0
  4 29  1  0
  4 30  1  0
  5 31  1  1
  6 32  1  0
  7 33  1  0
  7 34  1  0
  8 35  1  0
  8 36  1  0
 13 37  1  0
 14 38  1  0
 19 39  1  0
 19 40  1  0
 20 41  1  0
 20 42  1  0
 21 43  1  0
 22 44  1  0
 22 45  1  0
 23 46  1  0
 23 47  1  0
M  ISO  8  24  13  25  13  26  13  27  13  28  13  29  13  30  13  31  13
M  ISO  8  32  13  33  13  34  13  35  13  36  13  37  14  38  14  39  13
M  ISO  8  40  13  41  13  42  13  43   5  44  13  45  13  46  13  47  13
M  END
>  <minimizedAffinity>  (1) 
-6.3462038

>  <minimizedRMSD>  (1) 
0.961393833

$$$$
