
     RDKit          3D

 45 48  0  0  1  0  0  0  0  0999 V2000
   37.9160   29.0130   41.0100 C   0  0  2  0  0  0  0  0  0  0  0  0
   37.1700   29.2680   39.5760 C   0  0  0  0  0  0  0  0  0  0  0  0
   35.7580   29.5600   39.8110 C   0  0  0  0  0  0  0  0  0  0  0  0
   35.4890   28.7170   41.0030 C   0  0  0  0  0  0  0  0  0  0  0  0
   36.7680   28.7860   41.8300 C   0  0  1  0  0  0  0  0  0  0  0  0
   36.9000   27.6130   42.7630 C   0  0  0  0  0  0  0  0  0  0  0  0
   38.1020   27.4650   43.5840 C   0  0  0  0  0  0  0  0  0  0  0  0
   36.8730   27.9410   44.2760 C   0  0  0  0  0  0  0  0  0  0  0  0
   38.4980   30.1690   41.3210 O   0  0  0  0  0  0  0  0  0  0  0  0
   39.4540   30.8590   40.4990 C   0  0  0  0  0  0  0  0  0  0  0  0
   40.2560   30.1550   39.9060 O   0  0  0  0  0  0  0  0  0  0  0  0
   39.3650   32.3150   40.4480 C   0  0  0  0  0  0  0  0  0  0  0  0
   38.0760   32.8080   40.0450 C   0  0  0  0  0  0  0  0  0  0  0  0
   37.9170   34.1970   39.9450 C   0  0  0  0  0  0  0  0  0  0  0  0
   38.9970   34.9780   40.2370 N   0  0  0  0  0  0  0  0  0  0  0  0
   40.1860   34.4820   40.6100 C   0  0  0  0  0  0  0  0  0  0  0  0
   40.3350   33.1660   40.7040 N   0  0  0  0  0  0  0  0  0  0  0  0
   41.2650   35.3650   40.8970 N   0  0  0  0  0  0  0  0  0  0  0  0
   41.2290   36.7970   41.1370 C   0  0  0  0  0  0  0  0  0  0  0  0
   42.0150   36.8540   42.4510 C   0  0  0  0  0  0  0  0  0  0  0  0
   43.0190   35.7290   42.3130 C   0  0  0  0  0  0  0  0  0  0  0  0
   42.6660   34.9970   41.0120 C   0  0  0  0  0  0  0  0  0  0  0  0
   38.6723   28.2168   41.0733 H   0  0  0  0  0  0  0  0  0  0  0  0
   37.2598   28.3679   38.9500 H   0  0  0  0  0  0  0  0  0  0  0  0
   37.6413   30.1185   39.0618 H   0  0  0  0  0  0  0  0  0  0  0  0
   35.5964   30.6267   40.0258 H   0  0  0  0  0  0  0  0  0  0  0  0
   35.1030   29.3528   38.9519 H   0  0  0  0  0  0  0  0  0  0  0  0
   34.6372   29.1149   41.5740 H   0  0  0  0  0  0  0  0  0  0  0  0
   35.2287   27.6840   40.7290 H   0  0  0  0  0  0  0  0  0  0  0  0
   36.6989   29.6664   42.4859 H   0  0  0  0  0  0  0  0  0  0  0  0
   36.3624   26.9449   42.0740 H   0  0  0  0  0  0  0  0  0  0  0  0
   38.4886   26.4581   43.8001 H   0  0  0  0  0  0  0  0  0  0  0  0
   39.1270   27.8562   43.5047 H   0  0  0  0  0  0  0  0  0  0  0  0
   36.7953   28.9835   44.6183 H   0  0  0  0  0  0  0  0  0  0  0  0
   36.2794   27.6212   45.1451 H   0  0  0  0  0  0  0  0  0  0  0  0
   37.2459   32.1211   39.8235 H   0  0  0  0  0  0  0  0  0  0  0  0
   36.9572   34.6409   39.6423 H   0  0  0  0  0  0  0  0  0  0  0  0
   41.7291   37.3600   40.3351 H   0  0  0  0  0  0  0  0  0  0  0  0
   40.2228   37.2400   41.1741 H   0  0  0  0  0  0  0  0  0  0  0  0
   42.5235   37.8230   42.5630 H   0  0  0  0  0  0  0  0  0  0  0  0
   41.3734   36.7485   43.3383 H   0  0  0  0  0  0  0  0  0  0  0  0
   44.0402   36.1340   42.2575 H   0  0  0  0  0  0  0  0  0  0  0  0
   42.9813   35.0501   43.1776 H   0  0  0  0  0  0  0  0  0  0  0  0
   42.7973   33.9089   41.1057 H   0  0  0  0  0  0  0  0  0  0  0  0
   43.2899   35.2596   40.1450 H   0  0  0  0  0  0  0  0  0  0  0  0
  1  9  1  0
  1  5  1  0
  2  3  1  0
  2  1  1  0
  3  4  1  0
  4  5  1  0
  5  6  1  0
  6  7  1  0
  6  8  1  0
  7  8  1  0
 10  9  1  0
 11 10  2  0
 12 10  1  0
 12 17  1  0
 13 12  2  0
 14 13  1  0
 14 15  2  0
 15 16  1  0
 16 17  2  0
 16 18  1  0
 18 22  1  0
 18 19  1  0
 19 20  1  0
 21 20  1  0
 22 21  1  0
  1 23  1  6
  2 24  1  0
  2 25  1  0
  3 26  1  0
  3 27  1  0
  4 28  1  0
  4 29  1  0
  5 30  1  1
  6 31  1  0
  7 32  1  0
  7 33  1  0
  8 34  1  0
  8 35  1  0
 13 36  1  0
 14 37  1  0
 19 38  1  0
 19 39  1  0
 20 40  1  0
 20 41  1  0
 21 42  1  0
 21 43  1  0
 22 44  1  0
 22 45  1  0
M  ISO  8  23  13  24  13  25  13  26  13  27  13  28  13  29  13  30  13
M  ISO  8  31  13  32  13  33  13  34  13  35  13  36  14  37  14  38  13
M  ISO  7  39  13  40  13  41  13  42  13  43  13  44  13  45  13
M  END
>  <minimizedAffinity>  (1) 
-6.19279146

>  <minimizedRMSD>  (1) 
0.467591435

$$$$
