
     RDKit          3D

 48 51  0  0  1  0  0  0  0  0999 V2000
   37.7910   29.2150   40.5670 C   0  0  2  0  0  0  0  0  0  0  0  0
   36.9670   29.6480   39.2150 C   0  0  0  0  0  0  0  0  0  0  0  0
   35.5790   29.9300   39.5700 C   0  0  0  0  0  0  0  0  0  0  0  0
   35.3560   28.9810   40.6880 C   0  0  0  0  0  0  0  0  0  0  0  0
   36.6920   28.9100   41.4180 C   0  0  1  0  0  0  0  0  0  0  0  0
   36.8490   27.6290   42.1900 C   0  0  0  0  0  0  0  0  0  0  0  0
   38.0320   27.4260   43.0310 C   0  0  0  0  0  0  0  0  0  0  0  0
   36.7560   27.7460   43.7320 C   0  0  0  0  0  0  0  0  0  0  0  0
   38.4220   30.3130   40.9590 O   0  0  0  0  0  0  0  0  0  0  0  0
   39.4480   30.9970   40.2220 C   0  0  0  0  0  0  0  0  0  0  0  0
   40.1550   30.2980   39.5200 O   0  0  0  0  0  0  0  0  0  0  0  0
   39.5310   32.4460   40.3840 C   0  0  0  0  0  0  0  0  0  0  0  0
   38.3520   33.1540   39.9630 C   0  0  0  0  0  0  0  0  0  0  0  0
   38.3690   34.5510   40.0620 C   0  0  0  0  0  0  0  0  0  0  0  0
   39.5010   35.1390   40.5480 N   0  0  0  0  0  0  0  0  0  0  0  0
   40.5800   34.4440   40.9300 C   0  0  0  0  0  0  0  0  0  0  0  0
   40.5750   33.1070   40.8410 N   0  0  0  0  0  0  0  0  0  0  0  0
   41.7350   35.1080   41.4300 N   0  0  0  0  0  0  0  0  0  0  0  0
   41.8300   36.5490   41.5580 C   0  0  0  0  0  0  0  0  0  0  0  0
   42.4210   36.8280   42.9220 C   0  0  0  0  0  0  0  0  0  0  0  0
   43.8650   36.3830   42.9220 C   0  0  0  0  0  0  0  0  0  0  0  0
   44.1140   35.2840   41.9410 C   0  0  0  0  0  0  0  0  0  0  0  0
   42.9110   34.3680   41.8510 C   0  0  0  0  0  0  0  0  0  0  0  0
   38.5298   28.4027   40.5022 H   0  0  0  0  0  0  0  0  0  0  0  0
   37.0005   28.8263   38.4844 H   0  0  0  0  0  0  0  0  0  0  0  0
   37.4257   30.5450   38.7733 H   0  0  0  0  0  0  0  0  0  0  0  0
   35.4527   30.9725   39.8976 H   0  0  0  0  0  0  0  0  0  0  0  0
   34.8718   29.8116   38.7359 H   0  0  0  0  0  0  0  0  0  0  0  0
   34.5680   29.3529   41.3593 H   0  0  0  0  0  0  0  0  0  0  0  0
   35.0267   27.9936   40.3322 H   0  0  0  0  0  0  0  0  0  0  0  0
   36.6919   29.7060   42.1773 H   0  0  0  0  0  0  0  0  0  0  0  0
   36.3668   27.0372   41.3980 H   0  0  0  0  0  0  0  0  0  0  0  0
   38.4626   26.4181   43.1247 H   0  0  0  0  0  0  0  0  0  0  0  0
   39.0377   27.8713   43.0456 H   0  0  0  0  0  0  0  0  0  0  0  0
   36.6135   28.7274   44.2081 H   0  0  0  0  0  0  0  0  0  0  0  0
   36.1514   27.2833   44.5259 H   0  0  0  0  0  0  0  0  0  0  0  0
   37.4712   32.6191   39.5782 H   0  0  0  0  0  0  0  0  0  0  0  0
   37.5002   35.1535   39.7586 H   0  0  0  0  0  0  0  0  0  0  0  0
   42.4824   36.9569   40.7719 H   0  0  0  0  0  0  0  0  0  0  0  0
   40.8421   37.0209   41.4516 H   0  0  0  0  0  0  0  0  0  0  0  0
   42.3653   37.9054   43.1367 H   0  0  0  0  0  0  0  0  0  0  0  0
   41.8593   36.2814   43.6938 H   0  0  0  0  0  0  0  0  0  0  0  0
   44.5009   37.2419   42.6615 H   0  0  0  0  0  0  0  0  0  0  0  0
   44.1020   36.0012   43.9260 H   0  0  0  0  0  0  0  0  0  0  0  0
   44.3108   35.7208   40.9508 H   0  0  0  0  0  0  0  0  0  0  0  0
   44.9820   34.6979   42.2773 H   0  0  0  0  0  0  0  0  0  0  0  0
   42.7225   33.9210   42.8382 H   0  0  0  0  0  0  0  0  0  0  0  0
   43.1189   33.5817   41.1104 H   0  0  0  0  0  0  0  0  0  0  0  0
  1  9  1  0
  1  5  1  0
  2  3  1  0
  2  1  1  0
  3  4  1  0
  4  5  1  0
  5  6  1  0
  6  7  1  0
  6  8  1  0
  7  8  1  0
 10 12  1  0
 10  9  1  0
 11 10  2  0
 12 17  2  0
 13 14  2  0
 13 12  1  0
 14 15  1  0
 15 16  2  0
 16 18  1  0
 17 16  1  0
 18 19  1  0
 18 23  1  0
 19 20  1  0
 20 21  1  0
 22 21  1  0
 23 22  1  0
  1 24  1  6
  2 25  1  0
  2 26  1  0
  3 27  1  0
  3 28  1  0
  4 29  1  0
  4 30  1  0
  5 31  1  1
  6 32  1  0
  7 33  1  0
  7 34  1  0
  8 35  1  0
  8 36  1  0
 13 37  1  0
 14 38  1  0
 19 39  1  0
 19 40  1  0
 20 41  1  0
 20 42  1  0
 21 43  1  0
 21 44  1  0
 22 45  1  0
 22 46  1  0
 23 47  1  0
 23 48  1  0
M  ISO  8  24  13  25  13  26  13  27  13  28  13  29  13  30  13  31  13
M  ISO  8  32  13  33  13  34  13  35  13  36  13  37  14  38  14  39  13
M  ISO  8  40  13  41  13  42  13  43  13  44  13  45  13  46  13  47  13
M  ISO  1  48  13
M  END
>  <minimizedAffinity>  (1) 
-5.96757698

>  <minimizedRMSD>  (1) 
1.08336675

$$$$
