
     RDKit          3D

 40 43  0  0  1  0  0  0  0  0999 V2000
   39.0710   28.0580   41.7450 C   0  0  2  0  0  0  0  0  0  0  0  0
   39.6440   27.1010   40.5390 C   0  0  0  0  0  0  0  0  0  0  0  0
   38.5510   26.2760   40.0230 C   0  0  0  0  0  0  0  0  0  0  0  0
   37.7650   26.0520   41.2610 C   0  0  0  0  0  0  0  0  0  0  0  0
   37.8630   27.3630   42.0340 C   0  0  1  0  0  0  0  0  0  0  0  0
   37.5920   27.1730   43.5010 C   0  0  0  0  0  0  0  0  0  0  0  0
   37.2640   28.3270   44.3390 C   0  0  0  0  0  0  0  0  0  0  0  0
   36.1330   27.4280   43.9620 C   0  0  0  0  0  0  0  0  0  0  0  0
   38.8300   29.2320   41.1750 O   0  0  0  0  0  0  0  0  0  0  0  0
   39.0640   30.5140   41.7810 C   0  0  0  0  0  0  0  0  0  0  0  0
   39.6270   30.4990   42.8620 O   0  0  0  0  0  0  0  0  0  0  0  0
   38.6110   31.6920   41.0390 C   0  0  0  0  0  0  0  0  0  0  0  0
   37.4310   31.4670   40.2500 C   0  0  0  0  0  0  0  0  0  0  0  0
   36.9540   32.5440   39.4900 C   0  0  0  0  0  0  0  0  0  0  0  0
   37.6390   33.7210   39.5540 N   0  0  0  0  0  0  0  0  0  0  0  0
   38.7420   33.8880   40.3080 C   0  0  0  0  0  0  0  0  0  0  0  0
   39.1960   32.8710   41.0290 N   0  0  0  0  0  0  0  0  0  0  0  0
   39.4620   35.1560   40.3650 C   0  0  0  0  0  0  0  0  0  0  0  0
   40.7250   35.5480   40.7930 C   0  0  0  0  0  0  0  0  0  0  0  0
   40.7450   36.9180   40.5550 C   0  0  0  0  0  0  0  0  0  0  0  0
   39.5200   37.2930   40.0050 C   0  0  0  0  0  0  0  0  0  0  0  0
   38.7920   36.2030   39.9130 O   0  0  0  0  0  0  0  0  0  0  0  0
   39.6997   28.2298   42.6311 H   0  0  0  0  0  0  0  0  0  0  0  0
   40.0456   27.7287   39.7298 H   0  0  0  0  0  0  0  0  0  0  0  0
   40.4451   26.4548   40.9272 H   0  0  0  0  0  0  0  0  0  0  0  0
   37.9641   26.8111   39.2619 H   0  0  0  0  0  0  0  0  0  0  0  0
   38.8750   25.3552   39.5159 H   0  0  0  0  0  0  0  0  0  0  0  0
   36.7167   25.8243   41.0174 H   0  0  0  0  0  0  0  0  0  0  0  0
   38.1455   25.1998   41.8433 H   0  0  0  0  0  0  0  0  0  0  0  0
   37.0589   28.0252   41.6806 H   0  0  0  0  0  0  0  0  0  0  0  0
   38.3314   26.3624   43.5803 H   0  0  0  0  0  0  0  0  0  0  0  0
   37.6094   28.3527   45.3831 H   0  0  0  0  0  0  0  0  0  0  0  0
   37.4375   29.4088   44.2409 H   0  0  0  0  0  0  0  0  0  0  0  0
   35.3717   27.7626   43.2419 H   0  0  0  0  0  0  0  0  0  0  0  0
   35.3604   26.8583   44.4991 H   0  0  0  0  0  0  0  0  0  0  0  0
   36.9237   30.4910   40.2428 H   0  0  0  0  0  0  0  0  0  0  0  0
   36.0563   32.4428   38.8624 H   0  0  0  0  0  0  0  0  0  0  0  0
   41.5219   34.9214   41.2199 H   0  0  0  0  0  0  0  0  0  0  0  0
   41.5873   37.5934   40.7657 H   0  0  0  0  0  0  0  0  0  0  0  0
   39.2201   38.3080   39.7052 H   0  0  0  0  0  0  0  0  0  0  0  0
  1  5  1  0
  2  1  1  0
  3  2  1  0
  3  4  1  0
  4  5  1  0
  5  6  1  0
  6  8  1  0
  6  7  1  0
  8  7  1  0
  9  1  1  0
  9 10  1  0
 10 11  2  0
 12 10  1  0
 13 12  2  0
 14 15  2  0
 14 13  1  0
 15 16  1  0
 16 18  1  0
 16 17  2  0
 17 12  1  0
 18 19  2  0
 20 19  1  0
 21 20  2  0
 22 21  1  0
 22 18  1  0
  1 23  1  1
  2 24  1  0
  2 25  1  0
  3 26  1  0
  3 27  1  0
  4 28  1  0
  4 29  1  0
  5 30  1  6
  6 31  1  0
  7 32  1  0
  7 33  1  0
  8 34  1  0
  8 35  1  0
 13 36  1  0
 14 37  1  0
 19 38  1  0
 20 39  1  0
 21 40  1  0
M  ISO  8  23  13  24  13  25  13  26  13  27  13  28  13  29  13  30  13
M  ISO  8  31  13  32  13  33  13  34  13  35  13  36  14  37  14  38  14
M  ISO  2  39  14  40  14
M  END
>  <minimizedAffinity>  (1) 
-5.73768997

>  <minimizedRMSD>  (1) 
2.19405651

$$$$
