
     RDKit          3D

 36 38  0  0  1  0  0  0  0  0999 V2000
   37.9610   29.2610   41.2060 C   0  0  2  0  0  0  0  0  0  0  0  0
   37.3350   29.4430   39.7010 C   0  0  0  0  0  0  0  0  0  0  0  0
   35.8800   29.5510   39.7930 C   0  0  0  0  0  0  0  0  0  0  0  0
   35.5990   28.6720   40.9550 C   0  0  0  0  0  0  0  0  0  0  0  0
   36.7790   28.8760   41.8990 C   0  0  1  0  0  0  0  0  0  0  0  0
   36.9590   27.7170   42.8380 C   0  0  0  0  0  0  0  0  0  0  0  0
   38.1570   27.6340   43.6740 C   0  0  0  0  0  0  0  0  0  0  0  0
   36.8920   28.0440   44.3510 C   0  0  0  0  0  0  0  0  0  0  0  0
   38.3630   30.4720   41.5630 O   0  0  0  0  0  0  0  0  0  0  0  0
   39.4320   31.2130   40.9590 C   0  0  0  0  0  0  0  0  0  0  0  0
   40.4590   30.5890   40.7500 O   0  0  0  0  0  0  0  0  0  0  0  0
   39.1790   32.6220   40.6520 C   0  0  0  0  0  0  0  0  0  0  0  0
   37.8710   32.8780   40.1140 C   0  0  0  0  0  0  0  0  0  0  0  0
   37.5650   34.1990   39.7650 C   0  0  0  0  0  0  0  0  0  0  0  0
   38.5250   35.1460   39.9590 N   0  0  0  0  0  0  0  0  0  0  0  0
   39.7470   34.8590   40.4710 C   0  0  0  0  0  0  0  0  0  0  0  0
   40.0400   33.6090   40.8020 N   0  0  0  0  0  0  0  0  0  0  0  0
   40.7710   35.9180   40.6700 C   0  0  0  0  0  0  0  0  0  0  0  0
   40.4530   36.6450   41.7950 F   0  0  0  0  0  0  0  0  0  0  0  0
   42.0440   35.3810   40.7210 F   0  0  0  0  0  0  0  0  0  0  0  0
   40.7370   36.7790   39.5670 F   0  0  0  0  0  0  0  0  0  0  0  0
   38.7996   28.5648   41.3548 H   0  0  0  0  0  0  0  0  0  0  0  0
   37.6006   28.5715   39.0847 H   0  0  0  0  0  0  0  0  0  0  0  0
   37.7438   30.3540   39.2394 H   0  0  0  0  0  0  0  0  0  0  0  0
   35.5640   30.5869   39.9854 H   0  0  0  0  0  0  0  0  0  0  0  0
   35.3471   29.2679   38.8733 H   0  0  0  0  0  0  0  0  0  0  0  0
   34.6581   28.9657   41.4433 H   0  0  0  0  0  0  0  0  0  0  0  0
   35.4847   27.6190   40.6583 H   0  0  0  0  0  0  0  0  0  0  0  0
   36.5410   29.7319   42.5477 H   0  0  0  0  0  0  0  0  0  0  0  0
   36.4658   27.0207   42.1438 H   0  0  0  0  0  0  0  0  0  0  0  0
   38.5946   26.6495   43.8958 H   0  0  0  0  0  0  0  0  0  0  0  0
   39.1604   28.0797   43.6076 H   0  0  0  0  0  0  0  0  0  0  0  0
   36.7531   29.0809   44.6910 H   0  0  0  0  0  0  0  0  0  0  0  0
   36.3045   27.6931   45.2122 H   0  0  0  0  0  0  0  0  0  0  0  0
   37.1389   32.0677   39.9816 H   0  0  0  0  0  0  0  0  0  0  0  0
   36.5820   34.4634   39.3480 H   0  0  0  0  0  0  0  0  0  0  0  0
  1  9  1  0
  1  5  1  0
  2  3  1  0
  2  1  1  0
  3  4  1  0
  4  5  1  0
  5  6  1  0
  6  7  1  0
  6  8  1  0
  7  8  1  0
 10  9  1  0
 11 10  2  0
 12 17  1  0
 12 10  1  0
 13 12  2  0
 14 15  2  0
 14 13  1  0
 15 16  1  0
 16 18  1  0
 16 17  2  0
 18 20  1  0
 18 19  1  0
 21 18  1  0
  1 22  1  6
  2 23  1  0
  2 24  1  0
  3 25  1  0
  3 26  1  0
  4 27  1  0
  4 28  1  0
  5 29  1  1
  6 30  1  0
  7 31  1  0
  7 32  1  0
  8 33  1  0
  8 34  1  0
 13 35  1  0
 14 36  1  0
M  ISO  8  22  13  23  13  24  13  25  13  26  13  27  13  28  13  29  13
M  ISO  7  30  13  31  13  32  13  33  13  34  13  35  14  36  14
M  END
>  <minimizedAffinity>  (1) 
-5.69793463

>  <minimizedRMSD>  (1) 
0.377816916

$$$$
