
     RDKit          3D

 39 42  0  0  1  0  0  0  0  0999 V2000
   38.2850   28.1700   41.1850 C   0  0  2  0  0  0  0  0  0  0  0  0
   38.6030   27.5380   39.7110 C   0  0  0  0  0  0  0  0  0  0  0  0
   37.4260   26.8220   39.2330 C   0  0  0  0  0  0  0  0  0  0  0  0
   36.8910   26.2820   40.5120 C   0  0  0  0  0  0  0  0  0  0  0  0
   37.1590   27.3770   41.5400 C   0  0  1  0  0  0  0  0  0  0  0  0
   37.1940   26.8390   42.9430 C   0  0  0  0  0  0  0  0  0  0  0  0
   37.7410   27.6580   44.0270 C   0  0  0  0  0  0  0  0  0  0  0  0
   36.2490   27.5230   43.9610 C   0  0  0  0  0  0  0  0  0  0  0  0
   37.9420   29.4340   40.9700 O   0  0  0  0  0  0  0  0  0  0  0  0
   38.6270   30.5810   41.5010 C   0  0  0  0  0  0  0  0  0  0  0  0
   39.3680   30.3720   42.4470 O   0  0  0  0  0  0  0  0  0  0  0  0
   38.3670   31.8670   40.8420 C   0  0  0  0  0  0  0  0  0  0  0  0
   37.2150   31.8720   39.9960 C   0  0  0  0  0  0  0  0  0  0  0  0
   36.9250   33.0650   39.3190 C   0  0  0  0  0  0  0  0  0  0  0  0
   37.7570   34.1270   39.5180 N   0  0  0  0  0  0  0  0  0  0  0  0
   38.8360   34.0750   40.3300 C   0  0  0  0  0  0  0  0  0  0  0  0
   39.1120   32.9460   40.9710 N   0  0  0  0  0  0  0  0  0  0  0  0
   39.6380   35.2410   40.4670 N   0  0  0  0  0  0  0  0  0  0  0  0
   40.8280   35.4310   41.0490 C   0  0  0  0  0  0  0  0  0  0  0  0
   41.1740   36.7410   40.9090 N   0  0  0  0  0  0  0  0  0  0  0  0
   40.1620   37.3450   40.2250 C   0  0  0  0  0  0  0  0  0  0  0  0
   39.2430   36.3890   39.9740 N   0  0  0  0  0  0  0  0  0  0  0  0
   39.0820   28.1623   41.9431 H   0  0  0  0  0  0  0  0  0  0  0  0
   38.8514   28.3478   39.0092 H   0  0  0  0  0  0  0  0  0  0  0  0
   39.4542   26.8449   39.7816 H   0  0  0  0  0  0  0  0  0  0  0  0
   36.7085   27.5003   38.7481 H   0  0  0  0  0  0  0  0  0  0  0  0
   37.6356   26.0594   38.4684 H   0  0  0  0  0  0  0  0  0  0  0  0
   35.8121   26.0849   40.4282 H   0  0  0  0  0  0  0  0  0  0  0  0
   37.3627   25.3278   40.7894 H   0  0  0  0  0  0  0  0  0  0  0  0
   36.3044   28.0695   41.5266 H   0  0  0  0  0  0  0  0  0  0  0  0
   37.3901   25.8147   42.5931 H   0  0  0  0  0  0  0  0  0  0  0  0
   38.2929   27.1738   44.8461 H   0  0  0  0  0  0  0  0  0  0  0  0
   38.4256   28.5185   44.0582 H   0  0  0  0  0  0  0  0  0  0  0  0
   35.6254   28.3763   43.6560 H   0  0  0  0  0  0  0  0  0  0  0  0
   35.4515   27.1974   44.6451 H   0  0  0  0  0  0  0  0  0  0  0  0
   36.5834   30.9787   39.8811 H   0  0  0  0  0  0  0  0  0  0  0  0
   36.0554   33.1418   38.6497 H   0  0  0  0  0  0  0  0  0  0  0  0
   41.4261   34.6591   41.5553 H   0  0  0  0  0  0  0  0  0  0  0  0
   40.1052   38.4044   39.9343 H   0  0  0  0  0  0  0  0  0  0  0  0
  1  5  1  0
  2  1  1  0
  3  2  1  0
  3  4  1  0
  4  5  1  0
  5  6  1  0
  6  8  1  0
  6  7  1  0
  8  7  1  0
  9  1  1  0
  9 10  1  0
 10 11  2  0
 12 17  1  0
 12 10  1  0
 13 12  2  0
 14 15  2  0
 14 13  1  0
 15 16  1  0
 16 18  1  0
 16 17  2  0
 18 19  1  0
 20 19  2  0
 21 20  1  0
 22 21  2  0
 22 18  1  0
  1 23  1  1
  2 24  1  0
  2 25  1  0
  3 26  1  0
  3 27  1  0
  4 28  1  0
  4 29  1  0
  5 30  1  1
  6 31  1  0
  7 32  1  0
  7 33  1  0
  8 34  1  0
  8 35  1  0
 13 36  1  0
 14 37  1  0
 19 38  1  0
 21 39  1  0
M  ISO  8  23  13  24  13  25  13  26  13  27  13  28  13  29  13  30  13
M  ISO  8  31  13  32  13  33  13  34  13  35  13  36  14  37  14  38  14
M  ISO  1  39  14
M  END
>  <minimizedAffinity>  (1) 
-5.68936253

>  <minimizedRMSD>  (1) 
1.72189772

$$$$
