
     RDKit          3D

 42 44  0  0  1  0  0  0  0  0999 V2000
   37.9200   29.1300   41.2300 C   0  0  2  0  0  0  0  0  0  0  0  0
   37.3130   29.2790   39.7130 C   0  0  0  0  0  0  0  0  0  0  0  0
   35.8590   29.4110   39.7890 C   0  0  0  0  0  0  0  0  0  0  0  0
   35.5590   28.5560   40.9660 C   0  0  0  0  0  0  0  0  0  0  0  0
   36.7260   28.7800   41.9230 C   0  0  1  0  0  0  0  0  0  0  0  0
   36.8820   27.6440   42.8940 C   0  0  0  0  0  0  0  0  0  0  0  0
   38.0900   27.5490   43.7180 C   0  0  0  0  0  0  0  0  0  0  0  0
   36.8430   28.0210   44.3980 C   0  0  0  0  0  0  0  0  0  0  0  0
   38.3310   30.3490   41.5670 O   0  0  0  0  0  0  0  0  0  0  0  0
   39.2920   31.1330   40.8410 C   0  0  0  0  0  0  0  0  0  0  0  0
   40.3180   30.5550   40.5210 O   0  0  0  0  0  0  0  0  0  0  0  0
   38.9390   32.5230   40.5560 C   0  0  0  0  0  0  0  0  0  0  0  0
   37.6960   32.6810   39.8530 C   0  0  0  0  0  0  0  0  0  0  0  0
   37.3020   33.9830   39.5240 C   0  0  0  0  0  0  0  0  0  0  0  0
   38.1270   35.0040   39.8940 N   0  0  0  0  0  0  0  0  0  0  0  0
   39.2820   34.8180   40.5500 C   0  0  0  0  0  0  0  0  0  0  0  0
   39.6550   33.5820   40.8610 N   0  0  0  0  0  0  0  0  0  0  0  0
   40.1440   35.9680   40.9290 C   0  0  0  0  0  0  0  0  0  0  0  0
   39.8480   37.1750   40.0290 C   0  0  0  0  0  0  0  0  0  0  0  0
   41.6090   35.6290   40.9030 C   0  0  0  0  0  0  0  0  0  0  0  0
   38.7492   28.4276   41.4002 H   0  0  0  0  0  0  0  0  0  0  0  0
   37.5713   28.3867   39.1239 H   0  0  0  0  0  0  0  0  0  0  0  0
   37.7406   30.1695   39.2292 H   0  0  0  0  0  0  0  0  0  0  0  0
   35.5563   30.4546   39.9599 H   0  0  0  0  0  0  0  0  0  0  0  0
   35.3283   29.1209   38.8702 H   0  0  0  0  0  0  0  0  0  0  0  0
   34.6112   28.8606   41.4338 H   0  0  0  0  0  0  0  0  0  0  0  0
   35.4475   27.4970   40.6903 H   0  0  0  0  0  0  0  0  0  0  0  0
   36.4898   29.6553   42.5459 H   0  0  0  0  0  0  0  0  0  0  0  0
   36.3592   26.9416   42.2281 H   0  0  0  0  0  0  0  0  0  0  0  0
   38.4996   26.5586   43.9656 H   0  0  0  0  0  0  0  0  0  0  0  0
   39.1060   27.9603   43.6254 H   0  0  0  0  0  0  0  0  0  0  0  0
   36.7404   29.0719   44.7063 H   0  0  0  0  0  0  0  0  0  0  0  0
   36.2554   27.7161   45.2765 H   0  0  0  0  0  0  0  0  0  0  0  0
   37.0777   31.8120   39.5837 H   0  0  0  0  0  0  0  0  0  0  0  0
   36.3616   34.1757   38.9868 H   0  0  0  0  0  0  0  0  0  0  0  0
   39.9000   36.2256   41.9702 H   0  0  0  0  0  0  0  0  0  0  0  0
   39.6324   38.0542   40.6539 H   0  0  0  0  0  0  0  0  0  0  0  0
   40.7220   37.3820   39.3940 H   0  0  0  0  0  0  0  0  0  0  0  0
   38.9774   36.9541   39.3940 H   0  0  0  0  0  0  0  0  0  0  0  0
   41.9836   35.5423   41.9336 H   0  0  0  0  0  0  0  0  0  0  0  0
   41.7550   34.6733   40.3782 H   0  0  0  0  0  0  0  0  0  0  0  0
   42.1599   36.4234   40.3782 H   0  0  0  0  0  0  0  0  0  0  0  0
  1  9  1  0
  1  5  1  0
  2  3  1  0
  2  1  1  0
  3  4  1  0
  4  5  1  0
  5  6  1  0
  6  7  1  0
  6  8  1  0
  7  8  1  0
 10  9  1  0
 11 10  2  0
 12 10  1  0
 12 17  1  0
 13 12  2  0
 14 13  1  0
 14 15  2  0
 15 16  1  0
 16 17  2  0
 16 18  1  0
 19 18  1  0
 20 18  1  0
  1 21  1  6
  2 22  1  0
  2 23  1  0
  3 24  1  0
  3 25  1  0
  4 26  1  0
  4 27  1  0
  5 28  1  1
  6 29  1  0
  7 30  1  0
  7 31  1  0
  8 32  1  0
  8 33  1  0
 13 34  1  0
 14 35  1  0
 18 36  1  0
 19 37  1  0
 19 38  1  0
 19 39  1  0
 20 40  1  0
 20 41  1  0
 20 42  1  0
M  ISO  8  21  13  22  13  23  13  24  13  25  13  26  13  27  13  28  13
M  ISO  8  29  13  30  13  31  13  32  13  33  13  34  14  35  14  36   8
M  ISO  6  37   8  38   8  39   8  40   8  41   8  42   8
M  END
>  <minimizedAffinity>  (1) 
-5.48611164

>  <minimizedRMSD>  (1) 
0.677065372

$$$$
