
     RDKit          3D

 38 41  0  0  1  0  0  0  0  0999 V2000
   37.6950   28.8350   40.5710 C   0  0  2  0  0  0  0  0  0  0  0  0
   36.8430   29.1970   39.2140 C   0  0  0  0  0  0  0  0  0  0  0  0
   35.4990   29.6250   39.5890 C   0  0  0  0  0  0  0  0  0  0  0  0
   35.2580   28.8030   40.8000 C   0  0  0  0  0  0  0  0  0  0  0  0
   36.6140   28.7100   41.4900 C   0  0  1  0  0  0  0  0  0  0  0  0
   36.7100   27.5090   42.3900 C   0  0  0  0  0  0  0  0  0  0  0  0
   37.9440   27.2560   43.1400 C   0  0  0  0  0  0  0  0  0  0  0  0
   36.7950   27.8020   43.9100 C   0  0  0  0  0  0  0  0  0  0  0  0
   38.4230   29.9140   40.8190 O   0  0  0  0  0  0  0  0  0  0  0  0
   39.0750   30.7310   39.8360 C   0  0  0  0  0  0  0  0  0  0  0  0
   39.6870   30.1320   38.9690 O   0  0  0  0  0  0  0  0  0  0  0  0
   38.9330   32.1800   39.9680 C   0  0  0  0  0  0  0  0  0  0  0  0
   37.6730   32.6890   39.5000 C   0  0  0  0  0  0  0  0  0  0  0  0
   37.4720   34.0740   39.5600 C   0  0  0  0  0  0  0  0  0  0  0  0
   38.4830   34.8400   40.0560 N   0  0  0  0  0  0  0  0  0  0  0  0
   39.6600   34.3160   40.4890 C   0  0  0  0  0  0  0  0  0  0  0  0
   39.8440   33.0040   40.4300 N   0  0  0  0  0  0  0  0  0  0  0  0
   40.7000   35.1970   41.0090 C   0  0  0  0  0  0  0  0  0  0  0  0
   42.0020   34.9190   41.1450 N   0  0  0  0  0  0  0  0  0  0  0  0
   42.6050   35.9620   41.6460 O   0  0  0  0  0  0  0  0  0  0  0  0
   41.7340   36.9300   41.8490 C   0  0  0  0  0  0  0  0  0  0  0  0
   40.5190   36.4690   41.4530 N   0  0  0  0  0  0  0  0  0  0  0  0
   38.3656   27.9630   40.5652 H   0  0  0  0  0  0  0  0  0  0  0  0
   36.7793   28.3064   38.5715 H   0  0  0  0  0  0  0  0  0  0  0  0
   37.3483   30.0060   38.6661 H   0  0  0  0  0  0  0  0  0  0  0  0
   35.4687   30.7001   39.8198 H   0  0  0  0  0  0  0  0  0  0  0  0
   34.7470   29.4913   38.7975 H   0  0  0  0  0  0  0  0  0  0  0  0
   34.5223   29.2895   41.4573 H   0  0  0  0  0  0  0  0  0  0  0  0
   34.8517   27.8113   40.5521 H   0  0  0  0  0  0  0  0  0  0  0  0
   36.7034   29.5793   42.1581 H   0  0  0  0  0  0  0  0  0  0  0  0
   36.0862   26.8984   41.7206 H   0  0  0  0  0  0  0  0  0  0  0  0
   38.2677   26.2193   43.3143 H   0  0  0  0  0  0  0  0  0  0  0  0
   38.9887   27.5747   43.0097 H   0  0  0  0  0  0  0  0  0  0  0  0
   36.8134   28.8390   44.2765 H   0  0  0  0  0  0  0  0  0  0  0  0
   36.2301   27.5048   44.8059 H   0  0  0  0  0  0  0  0  0  0  0  0
   36.8955   32.0161   39.1093 H   0  0  0  0  0  0  0  0  0  0  0  0
   36.5299   34.5274   39.2182 H   0  0  0  0  0  0  0  0  0  0  0  0
   41.9506   37.9261   42.2623 H   0  0  0  0  0  0  0  0  0  0  0  0
  1  9  1  0
  1  5  1  0
  2  3  1  0
  2  1  1  0
  3  4  1  0
  4  5  1  0
  5  6  1  0
  6  7  1  0
  6  8  1  0
  7  8  1  0
 10 12  1  0
 10  9  1  0
 11 10  2  0
 12 17  2  0
 13 14  2  0
 13 12  1  0
 14 15  1  0
 15 16  2  0
 16 18  1  0
 17 16  1  0
 18 19  2  0
 18 22  1  0
 19 20  1  0
 20 21  1  0
 22 21  2  0
  1 23  1  6
  2 24  1  0
  2 25  1  0
  3 26  1  0
  3 27  1  0
  4 28  1  0
  4 29  1  0
  5 30  1  1
  6 31  1  0
  7 32  1  0
  7 33  1  0
  8 34  1  0
  8 35  1  0
 13 36  1  0
 14 37  1  0
 21 38  1  0
M  ISO  8  23  13  24  13  25  13  26  13  27  13  28  13  29  13  30  13
M  ISO  8  31  13  32  13  33  13  34  13  35  13  36  14  37  14  38  14
M  END
>  <minimizedAffinity>  (1) 
-5.38320971

>  <minimizedRMSD>  (1) 
0.98355478

$$$$
