
     RDKit          3D

 39 42  0  0  1  0  0  0  0  0999 V2000
   38.0370   29.3490   41.0200 C   0  0  2  0  0  0  0  0  0  0  0  0
   37.3300   29.6760   39.5740 C   0  0  0  0  0  0  0  0  0  0  0  0
   35.9030   29.8990   39.7760 C   0  0  0  0  0  0  0  0  0  0  0  0
   35.6240   28.9720   40.9020 C   0  0  0  0  0  0  0  0  0  0  0  0
   36.8750   29.0210   41.7720 C   0  0  1  0  0  0  0  0  0  0  0  0
   37.0180   27.7920   42.6270 C   0  0  0  0  0  0  0  0  0  0  0  0
   38.2330   27.5920   43.4180 C   0  0  0  0  0  0  0  0  0  0  0  0
   37.0180   28.0270   44.1600 C   0  0  0  0  0  0  0  0  0  0  0  0
   38.5680   30.4970   41.4140 O   0  0  0  0  0  0  0  0  0  0  0  0
   39.9710   30.7880   41.5070 C   0  0  0  0  0  0  0  0  0  0  0  0
   40.6810   29.8610   41.8590 O   0  0  0  0  0  0  0  0  0  0  0  0
   40.3960   32.1450   41.1650 C   0  0  0  0  0  0  0  0  0  0  0  0
   39.3880   32.9230   40.4970 C   0  0  0  0  0  0  0  0  0  0  0  0
   39.7300   34.2260   40.1110 C   0  0  0  0  0  0  0  0  0  0  0  0
   40.9900   34.6600   40.3960 N   0  0  0  0  0  0  0  0  0  0  0  0
   41.9060   33.9000   41.0230 C   0  0  0  0  0  0  0  0  0  0  0  0
   41.5790   32.6670   41.3890 N   0  0  0  0  0  0  0  0  0  0  0  0
   43.2370   34.4340   41.2960 C   0  0  0  0  0  0  0  0  0  0  0  0
   43.4300   35.3450   42.4260 C   0  0  0  0  0  0  0  0  0  0  0  0
   45.2170   35.7280   42.3530 S   0  0  0  0  0  0  0  0  0  0  0  0
   45.4130   34.6090   40.8280 C   0  0  0  0  0  0  0  0  0  0  0  0
   44.3620   34.2060   40.6370 N   0  0  0  0  0  0  0  0  0  0  0  0
   38.8193   28.5773   41.0702 H   0  0  0  0  0  0  0  0  0  0  0  0
   37.4763   28.8251   38.8924 H   0  0  0  0  0  0  0  0  0  0  0  0
   37.7857   30.5761   39.1356 H   0  0  0  0  0  0  0  0  0  0  0  0
   35.6930   30.9430   40.0516 H   0  0  0  0  0  0  0  0  0  0  0  0
   35.2870   29.7224   38.8820 H   0  0  0  0  0  0  0  0  0  0  0  0
   34.7442   29.3079   41.4705 H   0  0  0  0  0  0  0  0  0  0  0  0
   35.4028   27.9525   40.5531 H   0  0  0  0  0  0  0  0  0  0  0  0
   36.7524   29.8507   42.4838 H   0  0  0  0  0  0  0  0  0  0  0  0
   36.4672   27.1685   41.9073 H   0  0  0  0  0  0  0  0  0  0  0  0
   38.6203   26.5730   43.5654 H   0  0  0  0  0  0  0  0  0  0  0  0
   39.2575   27.9858   43.3452 H   0  0  0  0  0  0  0  0  0  0  0  0
   36.9495   29.0467   44.5669 H   0  0  0  0  0  0  0  0  0  0  0  0
   36.4387   27.6557   45.0182 H   0  0  0  0  0  0  0  0  0  0  0  0
   38.3877   32.5115   40.2968 H   0  0  0  0  0  0  0  0  0  0  0  0
   39.0069   34.8756   39.5961 H   0  0  0  0  0  0  0  0  0  0  0  0
   42.6816   35.7105   43.1446 H   0  0  0  0  0  0  0  0  0  0  0  0
   46.3305   34.3979   40.2591 H   0  0  0  0  0  0  0  0  0  0  0  0
  1  9  1  0
  1  5  1  0
  2  3  1  0
  2  1  1  0
  3  4  1  0
  4  5  1  0
  5  6  1  0
  6  7  1  0
  6  8  1  0
  7  8  1  0
  9 10  1  0
 10 11  2  0
 12 17  1  0
 12 10  1  0
 13 12  2  0
 14 15  2  0
 14 13  1  0
 15 16  1  0
 16 18  1  0
 16 17  2  0
 18 19  2  0
 20 19  1  0
 21 20  1  0
 22 21  2  0
 22 18  1  0
  1 23  1  6
  2 24  1  0
  2 25  1  0
  3 26  1  0
  3 27  1  0
  4 28  1  0
  4 29  1  0
  5 30  1  1
  6 31  1  0
  7 32  1  0
  7 33  1  0
  8 34  1  0
  8 35  1  0
 13 36  1  0
 14 37  1  0
 19 38  1  0
 21 39  1  0
M  ISO  8  23  13  24  13  25  13  26  13  27  13  28  13  29  13  30  13
M  ISO  8  31  13  32  13  33  13  34  13  35  13  36  14  37  14  38  14
M  ISO  1  39  14
M  END
>  <minimizedAffinity>  (1) 
-5.29495382

>  <minimizedRMSD>  (1) 
1.79114985

$$$$
