
     RDKit          3D

 35 37  0  0  1  0  0  0  0  0999 V2000
   37.9310   29.2030   41.2860 C   0  0  2  0  0  0  0  0  0  0  0  0
   37.3720   29.3490   39.7500 C   0  0  0  0  0  0  0  0  0  0  0  0
   35.9150   29.4380   39.7780 C   0  0  0  0  0  0  0  0  0  0  0  0
   35.5940   28.5730   40.9420 C   0  0  0  0  0  0  0  0  0  0  0  0
   36.7230   28.8150   41.9350 C   0  0  1  0  0  0  0  0  0  0  0  0
   36.8810   27.6720   42.8990 C   0  0  0  0  0  0  0  0  0  0  0  0
   38.0880   27.5740   43.7230 C   0  0  0  0  0  0  0  0  0  0  0  0
   36.8450   28.0450   44.4040 C   0  0  0  0  0  0  0  0  0  0  0  0
   38.3020   30.4260   41.6390 O   0  0  0  0  0  0  0  0  0  0  0  0
   39.3540   31.1930   41.0370 C   0  0  0  0  0  0  0  0  0  0  0  0
   40.4170   30.6140   40.8970 O   0  0  0  0  0  0  0  0  0  0  0  0
   39.0430   32.5690   40.6520 C   0  0  0  0  0  0  0  0  0  0  0  0
   37.7300   32.7360   40.0880 C   0  0  0  0  0  0  0  0  0  0  0  0
   37.3690   34.0240   39.6710 C   0  0  0  0  0  0  0  0  0  0  0  0
   38.2840   35.0190   39.8300 N   0  0  0  0  0  0  0  0  0  0  0  0
   39.5040   34.8230   40.3640 C   0  0  0  0  0  0  0  0  0  0  0  0
   39.8480   33.6050   40.7590 N   0  0  0  0  0  0  0  0  0  0  0  0
   40.4740   35.8900   40.5290 C   0  0  0  0  0  0  0  0  0  0  0  0
   40.7330   36.7280   39.6350 O   0  0  0  0  0  0  0  0  0  0  0  0
   38.7703   28.5201   41.4840 H   0  0  0  0  0  0  0  0  0  0  0  0
   37.6761   28.4703   39.1623 H   0  0  0  0  0  0  0  0  0  0  0  0
   37.7897   30.2559   39.2884 H   0  0  0  0  0  0  0  0  0  0  0  0
   35.5776   30.4724   39.9396 H   0  0  0  0  0  0  0  0  0  0  0  0
   35.4265   29.1326   38.8409 H   0  0  0  0  0  0  0  0  0  0  0  0
   34.6260   28.8576   41.3801 H   0  0  0  0  0  0  0  0  0  0  0  0
   35.5119   27.5131   40.6594 H   0  0  0  0  0  0  0  0  0  0  0  0
   36.4411   29.6775   42.5568 H   0  0  0  0  0  0  0  0  0  0  0  0
   36.3592   26.9717   42.2302 H   0  0  0  0  0  0  0  0  0  0  0  0
   38.4965   26.5825   43.9682 H   0  0  0  0  0  0  0  0  0  0  0  0
   39.1044   27.9846   43.6310 H   0  0  0  0  0  0  0  0  0  0  0  0
   36.7443   29.0953   44.7152 H   0  0  0  0  0  0  0  0  0  0  0  0
   36.2581   27.7385   45.2824 H   0  0  0  0  0  0  0  0  0  0  0  0
   37.0377   31.8870   39.9882 H   0  0  0  0  0  0  0  0  0  0  0  0
   36.3810   34.2240   39.2307 H   0  0  0  0  0  0  0  0  0  0  0  0
   41.0085   35.9665   41.4874 H   0  0  0  0  0  0  0  0  0  0  0  0
  1  9  1  0
  1  5  1  0
  2  3  1  0
  2  1  1  0
  3  4  1  0
  4  5  1  0
  5  6  1  0
  6  7  1  0
  6  8  1  0
  7  8  1  0
 10  9  1  0
 11 10  2  0
 12 17  1  0
 12 10  1  0
 13 12  2  0
 14 15  2  0
 14 13  1  0
 15 16  1  0
 16 18  1  0
 16 17  2  0
 19 18  2  0
  1 20  1  6
  2 21  1  0
  2 22  1  0
  3 23  1  0
  3 24  1  0
  4 25  1  0
  4 26  1  0
  5 27  1  1
  6 28  1  0
  7 29  1  0
  7 30  1  0
  8 31  1  0
  8 32  1  0
 13 33  1  0
 14 34  1  0
 18 35  1  0
M  ISO  8  20  13  21  13  22  13  23  13  24  13  25  13  26  13  27  13
M  ISO  8  28  13  29  13  30  13  31  13  32  13  33  14  34  14  35   6
M  END
>  <minimizedAffinity>  (1) 
-5.10920429

>  <minimizedRMSD>  (1) 
0.469018072

$$$$
