
     RDKit          3D

 34 36  0  0  1  0  0  0  0  0999 V2000
   37.9670   29.2700   41.1710 C   0  0  2  0  0  0  0  0  0  0  0  0
   37.3150   29.4550   39.6810 C   0  0  0  0  0  0  0  0  0  0  0  0
   35.8680   29.5660   39.7970 C   0  0  0  0  0  0  0  0  0  0  0  0
   35.6040   28.6810   40.9600 C   0  0  0  0  0  0  0  0  0  0  0  0
   36.7980   28.8850   41.8880 C   0  0  1  0  0  0  0  0  0  0  0  0
   36.9930   27.7240   42.8200 C   0  0  0  0  0  0  0  0  0  0  0  0
   38.2020   27.6410   43.6450 C   0  0  0  0  0  0  0  0  0  0  0  0
   36.9320   28.0400   44.3330 C   0  0  0  0  0  0  0  0  0  0  0  0
   38.3770   30.4820   41.5330 O   0  0  0  0  0  0  0  0  0  0  0  0
   39.4260   31.2260   40.8940 C   0  0  0  0  0  0  0  0  0  0  0  0
   40.4450   30.6050   40.6400 O   0  0  0  0  0  0  0  0  0  0  0  0
   39.1550   32.6400   40.6110 C   0  0  0  0  0  0  0  0  0  0  0  0
   37.8640   32.8940   40.0590 C   0  0  0  0  0  0  0  0  0  0  0  0
   37.5510   34.2210   39.7330 C   0  0  0  0  0  0  0  0  0  0  0  0
   38.5020   35.1710   39.9690 N   0  0  0  0  0  0  0  0  0  0  0  0
   39.7140   34.8810   40.4960 C   0  0  0  0  0  0  0  0  0  0  0  0
   40.0070   33.6300   40.8020 N   0  0  0  0  0  0  0  0  0  0  0  0
   40.9120   36.1950   40.7750 S   0  0  0  0  0  0  0  0  0  0  0  0
   38.8087   28.5729   41.2954 H   0  0  0  0  0  0  0  0  0  0  0  0
   37.5676   28.5836   39.0590 H   0  0  0  0  0  0  0  0  0  0  0  0
   37.7173   30.3663   39.2143 H   0  0  0  0  0  0  0  0  0  0  0  0
   35.5580   30.6017   39.9998 H   0  0  0  0  0  0  0  0  0  0  0  0
   35.3191   29.2892   38.8848 H   0  0  0  0  0  0  0  0  0  0  0  0
   34.6694   28.9708   41.4625 H   0  0  0  0  0  0  0  0  0  0  0  0
   35.4868   27.6288   40.6614 H   0  0  0  0  0  0  0  0  0  0  0  0
   36.5728   29.7377   42.5454 H   0  0  0  0  0  0  0  0  0  0  0  0
   36.4984   27.0290   42.1255 H   0  0  0  0  0  0  0  0  0  0  0  0
   38.6470   26.6576   43.8567 H   0  0  0  0  0  0  0  0  0  0  0  0
   39.2029   28.0919   43.5749 H   0  0  0  0  0  0  0  0  0  0  0  0
   36.7881   29.0737   44.6805 H   0  0  0  0  0  0  0  0  0  0  0  0
   36.3510   27.6795   45.1946 H   0  0  0  0  0  0  0  0  0  0  0  0
   37.1423   32.0801   39.8956 H   0  0  0  0  0  0  0  0  0  0  0  0
   36.5743   34.4869   39.3026 H   0  0  0  0  0  0  0  0  0  0  0  0
   41.0811   36.3804   42.1218 H   0  0  0  0  0  0  0  0  0  0  0  0
  1  9  1  0
  1  5  1  0
  2  3  1  0
  2  1  1  0
  3  4  1  0
  4  5  1  0
  5  6  1  0
  6  7  1  0
  6  8  1  0
  7  8  1  0
 10  9  1  0
 11 10  2  0
 12 17  1  0
 12 10  1  0
 13 12  2  0
 14 15  2  0
 14 13  1  0
 15 16  1  0
 16 18  1  0
 16 17  2  0
  1 19  1  6
  2 20  1  0
  2 21  1  0
  3 22  1  0
  3 23  1  0
  4 24  1  0
  4 25  1  0
  5 26  1  1
  6 27  1  0
  7 28  1  0
  7 29  1  0
  8 30  1  0
  8 31  1  0
 13 32  1  0
 14 33  1  0
 18 34  1  0
M  ISO  8  19  13  20  13  21  13  22  13  23  13  24  13  25  13  26  13
M  ISO  8  27  13  28  13  29  13  30  13  31  13  32  14  33  14  34  11
M  END
>  <minimizedAffinity>  (1) 
-5.03166103

>  <minimizedRMSD>  (1) 
0.258900762

$$$$
