
     RDKit          3D

 18 19  0  0  0  0  0  0  0  0999 V2000
   38.0310   30.1580   41.7430 C   0  0  0  0  0  0  0  0  0  0  0  0
   38.0140   28.8040   42.1100 C   0  0  0  0  0  0  0  0  0  0  0  0
   36.8650   28.0770   41.8070 C   0  0  0  0  0  0  0  0  0  0  0  0
   35.8320   28.7060   41.1820 N   0  0  0  0  0  0  0  0  0  0  0  0
   35.8940   30.0240   40.8470 C   0  0  0  0  0  0  0  0  0  0  0  0
   36.9920   30.7370   41.1300 N   0  0  0  0  0  0  0  0  0  0  0  0
   39.0960   28.1300   42.7680 C   0  0  0  0  0  0  0  0  0  0  0  0
   40.3930   28.5980   42.7470 C   0  0  0  0  0  0  0  0  0  0  0  0
   41.4670   27.9680   43.3760 C   0  0  0  0  0  0  0  0  0  0  0  0
   41.1950   26.8120   44.0500 N   0  0  0  0  0  0  0  0  0  0  0  0
   39.9260   26.3470   44.0750 C   0  0  0  0  0  0  0  0  0  0  0  0
   38.9190   26.9850   43.4550 N   0  0  0  0  0  0  0  0  0  0  0  0
   38.9238   30.7608   41.9655 H   0  0  0  0  0  0  0  0  0  0  0  0
   36.7935   27.0110   42.0687 H   0  0  0  0  0  0  0  0  0  0  0  0
   35.0418   30.5038   40.3435 H   0  0  0  0  0  0  0  0  0  0  0  0
   40.5940   29.5297   42.1979 H   0  0  0  0  0  0  0  0  0  0  0  0
   42.4848   28.3828   43.3312 H   0  0  0  0  0  0  0  0  0  0  0  0
   39.7108   25.4163   44.6205 H   0  0  0  0  0  0  0  0  0  0  0  0
  1  2  2  0
  2  7  1  0
  3  2  1  0
  4  3  2  0
  5  6  2  0
  5  4  1  0
  6  1  1  0
  7 12  1  0
  8  7  2  0
  8  9  1  0
  9 10  2  0
 10 11  1  0
 12 11  2  0
  1 13  1  0
  3 14  1  0
  5 15  1  0
  8 16  1  0
  9 17  1  0
 11 18  1  0
M  ISO  6  13  14  14  14  15  14  16  14  17  14  18  14
M  END
>  <minimizedAffinity>  (1) 
-3.53113437

>  <minimizedRMSD>  (1) 
2.83499813

$$$$
