
     RDKit          3D

 50 54  0  0  1  0  0  0  0  0999 V2000
   39.4340   32.3190   40.7790 C   0  0  0  0  0  0  0  0  0  0  0  0
   38.0890   32.7150   40.4260 C   0  0  0  0  0  0  0  0  0  0  0  0
   37.8770   34.0460   40.0680 C   0  0  0  0  0  0  0  0  0  0  0  0
   38.9620   34.8770   40.0800 N   0  0  0  0  0  0  0  0  0  0  0  0
   40.2000   34.4710   40.4150 C   0  0  0  0  0  0  0  0  0  0  0  0
   40.3980   33.2110   40.7540 N   0  0  0  0  0  0  0  0  0  0  0  0
   41.2840   35.4870   40.3810 C   0  0  0  0  0  0  0  0  0  0  0  0
   42.5660   34.8040   40.3480 N   0  0  0  0  0  0  0  0  0  0  0  0
   43.1750   34.0090   39.4530 C   0  0  0  0  0  0  0  0  0  0  0  0
   44.3810   33.6260   39.9090 N   0  0  0  0  0  0  0  0  0  0  0  0
   44.5610   34.1840   41.1280 C   0  0  0  0  0  0  0  0  0  0  0  0
   45.5860   34.1440   42.0510 C   0  0  0  0  0  0  0  0  0  0  0  0
   46.6330   33.4830   41.8320 O   0  0  0  0  0  0  0  0  0  0  0  0
   45.5000   34.8140   43.2240 N   0  0  0  0  0  0  0  0  0  0  0  0
   44.3870   35.5260   43.4750 C   0  0  0  0  0  0  0  0  0  0  0  0
   44.1150   36.2950   44.6520 N   0  0  0  0  0  0  0  0  0  0  0  0
   43.3690   35.5850   42.5950 N   0  0  0  0  0  0  0  0  0  0  0  0
   43.4150   34.9290   41.4090 C   0  0  0  0  0  0  0  0  0  0  0  0
   39.5870   30.8890   41.1230 C   0  0  0  0  0  0  0  0  0  0  0  0
   40.5600   30.2080   41.0050 O   0  0  0  0  0  0  0  0  0  0  0  0
   38.3870   30.2810   41.6540 O   0  0  0  0  0  0  0  0  0  0  0  0
   37.9480   29.0860   41.3620 C   0  0  2  0  0  0  0  0  0  0  0  0
   37.3830   29.3020   39.7950 C   0  0  0  0  0  0  0  0  0  0  0  0
   35.9640   29.5120   39.8220 C   0  0  0  0  0  0  0  0  0  0  0  0
   35.5570   28.6720   40.9660 C   0  0  0  0  0  0  0  0  0  0  0  0
   36.7250   28.7890   41.9600 C   0  0  1  0  0  0  0  0  0  0  0  0
   36.7630   27.6190   42.8980 C   0  0  0  0  0  0  0  0  0  0  0  0
   37.8820   27.4750   43.8220 C   0  0  0  0  0  0  0  0  0  0  0  0
   36.5930   27.9230   44.4120 C   0  0  0  0  0  0  0  0  0  0  0  0
   37.2610   31.9909   40.4394 H   0  0  0  0  0  0  0  0  0  0  0  0
   36.8782   34.4118   39.7877 H   0  0  0  0  0  0  0  0  0  0  0  0
   41.1756   36.1131   39.4831 H   0  0  0  0  0  0  0  0  0  0  0  0
   41.2245   36.1266   41.2740 H   0  0  0  0  0  0  0  0  0  0  0  0
   42.7477   33.7128   38.4836 H   0  0  0  0  0  0  0  0  0  0  0  0
   46.2690   34.7793   43.9084 H   0  0  0  0  0  0  0  0  0  0  0  0
   43.2242   36.8046   44.7398 H   0  0  0  0  0  0  0  0  0  0  0  0
   44.8102   36.3386   45.4108 H   0  0  0  0  0  0  0  0  0  0  0  0
   38.7265   28.3497   41.6104 H   0  0  0  0  0  0  0  0  0  0  0  0
   37.6097   28.4070   39.1970 H   0  0  0  0  0  0  0  0  0  0  0  0
   37.8744   30.1777   39.3459 H   0  0  0  0  0  0  0  0  0  0  0  0
   35.7188   30.5703   39.9947 H   0  0  0  0  0  0  0  0  0  0  0  0
   35.4576   29.2572   38.8793 H   0  0  0  0  0  0  0  0  0  0  0  0
   34.6255   29.0486   41.4137 H   0  0  0  0  0  0  0  0  0  0  0  0
   35.3586   27.6307   40.6724 H   0  0  0  0  0  0  0  0  0  0  0  0
   36.5269   29.6754   42.5806 H   0  0  0  0  0  0  0  0  0  0  0  0
   36.2868   26.9589   42.1581 H   0  0  0  0  0  0  0  0  0  0  0  0
   38.2622   26.4698   44.0564 H   0  0  0  0  0  0  0  0  0  0  0  0
   38.9036   27.8823   43.8408 H   0  0  0  0  0  0  0  0  0  0  0  0
   36.4703   28.9585   44.7623 H   0  0  0  0  0  0  0  0  0  0  0  0
   35.9292   27.5820   45.2201 H   0  0  0  0  0  0  0  0  0  0  0  0
  1 19  1  0
  2  1  2  0
  3  4  2  0
  3  2  1  0
  4  5  1  0
  5  6  2  0
  6  1  1  0
  7  5  1  0
  8  7  1  0
  8 18  1  0
  9 10  2  0
  9  8  1  0
 10 11  1  0
 11 18  2  0
 11 12  1  0
 12 14  1  0
 13 12  2  0
 14 15  1  0
 15 16  1  0
 17 15  2  0
 18 17  1  0
 19 21  1  0
 20 19  2  0
 22 21  1  0
 22 26  1  0
 23 24  1  0
 23 22  1  0
 24 25  1  0
 25 26  1  0
 26 27  1  0
 27 28  1  0
 27 29  1  0
 28 29  1  0
  2 30  1  0
  3 31  1  0
  7 32  1  0
  7 33  1  0
  9 34  1  0
 14 35  1  0
 16 36  1  0
 16 37  1  0
 22 38  1  6
 23 39  1  0
 23 40  1  0
 24 41  1  0
 24 42  1  0
 25 43  1  0
 25 44  1  0
 26 45  1  1
 27 46  1  0
 28 47  1  0
 28 48  1  0
 29 49  1  0
 29 50  1  0
M  ISO  8  30  14  31  14  32   8  33   8  34  14  35   9  38  13  39  13
M  ISO  8  40  13  41  13  42  13  43  13  44  13  45  13  46  13  47  13
M  ISO  3  48  13  49  13  50  13
M  END
>  <minimizedAffinity>  (1) 
-6.62109709

>  <minimizedRMSD>  (1) 
3.57973504

$$$$
