
     RDKit          3D

 45 48  0  0  1  0  0  0  0  0999 V2000
   37.9700   29.0860   41.3150 C   0  0  2  0  0  0  0  0  0  0  0  0
   37.3820   29.2890   39.7510 C   0  0  0  0  0  0  0  0  0  0  0  0
   35.9640   29.5120   39.8020 C   0  0  0  0  0  0  0  0  0  0  0  0
   35.5720   28.6830   40.9550 C   0  0  0  0  0  0  0  0  0  0  0  0
   36.7540   28.8050   41.9330 C   0  0  1  0  0  0  0  0  0  0  0  0
   36.7950   27.6510   42.8870 C   0  0  0  0  0  0  0  0  0  0  0  0
   37.9650   27.4710   43.7450 C   0  0  0  0  0  0  0  0  0  0  0  0
   36.7420   27.9890   44.4050 C   0  0  0  0  0  0  0  0  0  0  0  0
   38.4250   30.2790   41.5780 O   0  0  0  0  0  0  0  0  0  0  0  0
   39.6390   30.8600   41.0630 C   0  0  0  0  0  0  0  0  0  0  0  0
   40.5960   30.1570   40.9540 O   0  0  0  0  0  0  0  0  0  0  0  0
   39.5270   32.2940   40.7190 C   0  0  0  0  0  0  0  0  0  0  0  0
   38.1710   32.7630   40.5310 C   0  0  0  0  0  0  0  0  0  0  0  0
   37.9950   34.1000   40.1710 C   0  0  0  0  0  0  0  0  0  0  0  0
   39.1170   34.8660   40.0250 N   0  0  0  0  0  0  0  0  0  0  0  0
   40.3600   34.3840   40.2120 C   0  0  0  0  0  0  0  0  0  0  0  0
   40.5360   33.1180   40.5530 N   0  0  0  0  0  0  0  0  0  0  0  0
   41.4990   35.3290   40.0060 C   0  0  0  0  0  0  0  0  0  0  0  0
   42.1940   35.6930   41.2430 C   0  0  0  0  0  0  0  0  0  0  0  0
   41.8190   36.7330   42.0680 C   0  0  0  0  0  0  0  0  0  0  0  0
   42.5340   37.0180   43.2330 C   0  0  0  0  0  0  0  0  0  0  0  0
   43.6460   36.2360   43.5610 C   0  0  0  0  0  0  0  0  0  0  0  0
   43.9840   35.2070   42.7050 C   0  0  0  0  0  0  0  0  0  0  0  0
   43.2780   34.9360   41.5710 N   0  0  0  0  0  0  0  0  0  0  0  0
   38.7445   28.3465   41.5666 H   0  0  0  0  0  0  0  0  0  0  0  0
   37.5908   28.3852   39.1598 H   0  0  0  0  0  0  0  0  0  0  0  0
   37.8743   30.1535   39.2817 H   0  0  0  0  0  0  0  0  0  0  0  0
   35.7310   30.5733   39.9736 H   0  0  0  0  0  0  0  0  0  0  0  0
   35.4383   29.2573   38.8699 H   0  0  0  0  0  0  0  0  0  0  0  0
   34.6472   29.0646   41.4124 H   0  0  0  0  0  0  0  0  0  0  0  0
   35.3680   27.6399   40.6716 H   0  0  0  0  0  0  0  0  0  0  0  0
   36.5708   29.7008   42.5445 H   0  0  0  0  0  0  0  0  0  0  0  0
   36.2407   27.0024   42.1927 H   0  0  0  0  0  0  0  0  0  0  0  0
   38.3127   26.4533   43.9762 H   0  0  0  0  0  0  0  0  0  0  0  0
   39.0033   27.8302   43.6908 H   0  0  0  0  0  0  0  0  0  0  0  0
   36.6911   29.0351   44.7412 H   0  0  0  0  0  0  0  0  0  0  0  0
   36.1180   27.6936   45.2614 H   0  0  0  0  0  0  0  0  0  0  0  0
   37.3109   32.0908   40.6668 H   0  0  0  0  0  0  0  0  0  0  0  0
   36.9914   34.5209   40.0109 H   0  0  0  0  0  0  0  0  0  0  0  0
   42.2238   34.8563   39.3268 H   0  0  0  0  0  0  0  0  0  0  0  0
   41.0764   36.2557   39.5904 H   0  0  0  0  0  0  0  0  0  0  0  0
   40.9447   37.3462   41.8045 H   0  0  0  0  0  0  0  0  0  0  0  0
   42.2260   37.8483   43.8855 H   0  0  0  0  0  0  0  0  0  0  0  0
   44.2318   36.4342   44.4707 H   0  0  0  0  0  0  0  0  0  0  0  0
   44.8562   34.5821   42.9473 H   0  0  0  0  0  0  0  0  0  0  0  0
  1  9  1  0
  1  5  1  0
  2  3  1  0
  2  1  1  0
  3  4  1  0
  4  5  1  0
  5  6  1  0
  6  7  1  0
  6  8  1  0
  7  8  1  0
 10  9  1  0
 11 10  2  0
 12 10  1  0
 13 12  2  0
 14 13  1  0
 15 14  2  0
 15 16  1  0
 16 17  2  0
 17 12  1  0
 18 16  1  0
 18 19  1  0
 19 24  1  0
 19 20  2  0
 20 21  1  0
 21 22  2  0
 23 22  1  0
 24 23  2  0
  1 25  1  6
  2 26  1  0
  2 27  1  0
  3 28  1  0
  3 29  1  0
  4 30  1  0
  4 31  1  0
  5 32  1  1
  6 33  1  0
  7 34  1  0
  7 35  1  0
  8 36  1  0
  8 37  1  0
 13 38  1  0
 14 39  1  0
 18 40  1  0
 18 41  1  0
 20 42  1  0
 21 43  1  0
 22 44  1  0
 23 45  1  0
M  ISO  8  25  13  26  13  27  13  28  13  29  13  30  13  31  13  32  13
M  ISO  8  33  13  34  13  35  13  36  13  37  13  38  14  39  14  40   8
M  ISO  5  41   8  42  14  43  14  44  14  45  14
M  END
>  <minimizedAffinity>  (1) 
-6.27293777

>  <minimizedRMSD>  (1) 
1.2751826

$$$$
