
     RDKit          3D

 43 45  0  0  1  0  0  0  0  0999 V2000
   38.2000   30.4770   41.6760 O   0  0  0  0  0  0  0  0  0  0  0  0
   37.8590   29.2580   41.3480 C   0  0  2  0  0  0  0  0  0  0  0  0
   37.3100   29.4720   39.7740 C   0  0  0  0  0  0  0  0  0  0  0  0
   35.8750   29.5730   39.7810 C   0  0  0  0  0  0  0  0  0  0  0  0
   35.5130   28.6740   40.8930 C   0  0  0  0  0  0  0  0  0  0  0  0
   36.6510   28.8540   41.9130 C   0  0  1  0  0  0  0  0  0  0  0  0
   36.7600   27.6680   42.8230 C   0  0  0  0  0  0  0  0  0  0  0  0
   37.9320   27.5320   43.6880 C   0  0  0  0  0  0  0  0  0  0  0  0
   36.6710   27.9370   44.3500 C   0  0  0  0  0  0  0  0  0  0  0  0
   39.5450   31.0000   41.7040 C   0  0  0  0  0  0  0  0  0  0  0  0
   40.4060   30.3190   42.1710 O   0  0  0  0  0  0  0  0  0  0  0  0
   39.6780   32.3520   41.1230 C   0  0  0  0  0  0  0  0  0  0  0  0
   38.4270   32.9540   40.7180 C   0  0  0  0  0  0  0  0  0  0  0  0
   38.4770   34.2190   40.1220 C   0  0  0  0  0  0  0  0  0  0  0  0
   39.7120   34.7900   39.9690 N   0  0  0  0  0  0  0  0  0  0  0  0
   40.8500   34.1890   40.3640 C   0  0  0  0  0  0  0  0  0  0  0  0
   40.8070   32.9930   40.9280 N   0  0  0  0  0  0  0  0  0  0  0  0
   42.1210   34.9320   40.1290 C   0  0  0  0  0  0  0  0  0  0  0  0
   42.6470   35.4170   41.4100 N   0  0  0  0  0  0  0  0  0  0  0  0
   42.0070   36.5540   42.0010 C   0  0  0  0  0  0  0  0  0  0  0  0
   41.3280   37.4120   41.2970 N   0  0  0  0  0  0  0  0  0  0  0  0
   42.1570   36.6940   43.4150 N   0  0  0  0  0  0  0  0  0  0  0  0
   40.8620   38.2380   41.7280 H   0  0  0  0  0  0  0  0  0  0  0  0
   38.6856   28.5760   41.5963 H   0  0  0  0  0  0  0  0  0  0  0  0
   37.6150   28.6129   39.1584 H   0  0  0  0  0  0  0  0  0  0  0  0
   37.7423   30.3925   39.3547 H   0  0  0  0  0  0  0  0  0  0  0  0
   35.5473   30.6045   39.9774 H   0  0  0  0  0  0  0  0  0  0  0  0
   35.4056   29.3063   38.8226 H   0  0  0  0  0  0  0  0  0  0  0  0
   34.5471   28.9656   41.3312 H   0  0  0  0  0  0  0  0  0  0  0  0
   35.4003   27.6289   40.5690 H   0  0  0  0  0  0  0  0  0  0  0  0
   36.3748   29.7075   42.5496 H   0  0  0  0  0  0  0  0  0  0  0  0
   36.2561   27.0135   42.0966 H   0  0  0  0  0  0  0  0  0  0  0  0
   38.3461   26.5316   43.8821 H   0  0  0  0  0  0  0  0  0  0  0  0
   38.9439   27.9625   43.6624 H   0  0  0  0  0  0  0  0  0  0  0  0
   36.5453   28.9623   44.7281 H   0  0  0  0  0  0  0  0  0  0  0  0
   36.0601   27.5639   45.1853 H   0  0  0  0  0  0  0  0  0  0  0  0
   37.4694   32.4354   40.8731 H   0  0  0  0  0  0  0  0  0  0  0  0
   37.5627   34.7330   39.7904 H   0  0  0  0  0  0  0  0  0  0  0  0
   42.8566   34.2616   39.6606 H   0  0  0  0  0  0  0  0  0  0  0  0
   41.9289   35.7868   39.4638 H   0  0  0  0  0  0  0  0  0  0  0  0
   43.4470   34.9568   41.8674 H   0  0  0  0  0  0  0  0  0  0  0  0
   41.7216   37.4899   43.9028 H   0  0  0  0  0  0  0  0  0  0  0  0
   42.7005   35.9990   43.9465 H   0  0  0  0  0  0  0  0  0  0  0  0
  1 10  1  0
  2  1  1  0
  2  6  1  0
  3  4  1  0
  3  2  1  0
  4  5  1  0
  5  6  1  0
  6  7  1  0
  7  8  1  0
  7  9  1  0
  8  9  1  0
 10 11  2  0
 12 10  1  0
 13 12  2  0
 14 13  1  0
 15 14  2  0
 15 16  1  0
 16 17  2  0
 17 12  1  0
 18 16  1  0
 18 19  1  0
 19 20  1  0
 20 22  1  0
 21 23  1  0
 21 20  2  0
  2 24  1  6
  3 25  1  0
  3 26  1  0
  4 27  1  0
  4 28  1  0
  5 29  1  0
  5 30  1  0
  6 31  1  1
  7 32  1  0
  8 33  1  0
  8 34  1  0
  9 35  1  0
  9 36  1  0
 13 37  1  0
 14 38  1  0
 18 39  1  0
 18 40  1  0
 19 41  1  0
 22 42  1  0
 22 43  1  0
M  ISO  8  24  13  25  13  26  13  27  13  28  13  29  13  30  13  31  13
M  ISO  8  32  13  33  13  34  13  35  13  36  13  37  14  38  14  39   8
M  ISO  1  40   8
M  END
>  <minimizedAffinity>  (1) 
-6.23654842

>  <minimizedRMSD>  (1) 
1.23688531

$$$$
