
     RDKit          3D

 51 54  0  0  1  0  0  0  0  0999 V2000
   37.8110   29.2790   41.3470 C   0  0  2  0  0  0  0  0  0  0  0  0
   37.2610   29.5250   39.7790 C   0  0  0  0  0  0  0  0  0  0  0  0
   35.8250   29.5740   39.7790 C   0  0  0  0  0  0  0  0  0  0  0  0
   35.4930   28.6240   40.8560 C   0  0  0  0  0  0  0  0  0  0  0  0
   36.6150   28.8130   41.8920 C   0  0  1  0  0  0  0  0  0  0  0  0
   36.7630   27.6060   42.7650 C   0  0  0  0  0  0  0  0  0  0  0  0
   37.8950   27.5190   43.6860 C   0  0  0  0  0  0  0  0  0  0  0  0
   36.5740   27.8140   44.2950 C   0  0  0  0  0  0  0  0  0  0  0  0
   38.1060   30.4970   41.7150 O   0  0  0  0  0  0  0  0  0  0  0  0
   39.4330   31.0290   41.9000 C   0  0  0  0  0  0  0  0  0  0  0  0
   40.2030   30.4030   42.5630 O   0  0  0  0  0  0  0  0  0  0  0  0
   39.6700   32.3190   41.2120 C   0  0  0  0  0  0  0  0  0  0  0  0
   38.4720   32.9780   40.7430 C   0  0  0  0  0  0  0  0  0  0  0  0
   38.6270   34.1880   40.0650 C   0  0  0  0  0  0  0  0  0  0  0  0
   39.9000   34.6590   39.8980 N   0  0  0  0  0  0  0  0  0  0  0  0
   40.9840   34.0100   40.3530 C   0  0  0  0  0  0  0  0  0  0  0  0
   40.8420   32.8730   40.9900 N   0  0  0  0  0  0  0  0  0  0  0  0
   42.3190   34.6330   40.1050 C   0  0  0  0  0  0  0  0  0  0  0  0
   42.8380   35.3790   41.1910 N   0  0  0  0  0  0  0  0  0  0  0  0
   43.6940   34.6850   42.0980 C   0  0  0  0  0  0  0  0  0  0  0  0
   44.4920   35.7740   42.8060 C   0  0  0  0  0  0  0  0  0  0  0  0
   43.5080   36.5060   43.6820 C   0  0  0  0  0  0  0  0  0  0  0  0
   42.3080   37.0150   42.9510 C   0  0  0  0  0  0  0  0  0  0  0  0
   41.8740   36.2440   41.7780 C   0  0  0  0  0  0  0  0  0  0  0  0
   38.6605   28.6194   41.5780 H   0  0  0  0  0  0  0  0  0  0  0  0
   37.6000   28.6984   39.1373 H   0  0  0  0  0  0  0  0  0  0  0  0
   37.6610   30.4747   39.3941 H   0  0  0  0  0  0  0  0  0  0  0  0
   35.4584   30.5852   40.0093 H   0  0  0  0  0  0  0  0  0  0  0  0
   35.3700   29.3256   38.8088 H   0  0  0  0  0  0  0  0  0  0  0  0
   34.5130   28.8611   41.2958 H   0  0  0  0  0  0  0  0  0  0  0  0
   35.4260   27.5872   40.4948 H   0  0  0  0  0  0  0  0  0  0  0  0
   36.3016   29.6330   42.5548 H   0  0  0  0  0  0  0  0  0  0  0  0
   36.3468   26.9445   41.9909 H   0  0  0  0  0  0  0  0  0  0  0  0
   38.3674   26.5427   43.8692 H   0  0  0  0  0  0  0  0  0  0  0  0
   38.8743   28.0181   43.7281 H   0  0  0  0  0  0  0  0  0  0  0  0
   36.3576   28.8141   44.6986 H   0  0  0  0  0  0  0  0  0  0  0  0
   35.9482   27.3710   45.0838 H   0  0  0  0  0  0  0  0  0  0  0  0
   37.4764   32.5425   40.9139 H   0  0  0  0  0  0  0  0  0  0  0  0
   37.7582   34.7418   39.6796 H   0  0  0  0  0  0  0  0  0  0  0  0
   43.0328   33.8299   39.8696 H   0  0  0  0  0  0  0  0  0  0  0  0
   42.1790   35.3458   39.2790 H   0  0  0  0  0  0  0  0  0  0  0  0
   43.1013   34.1079   42.8230 H   0  0  0  0  0  0  0  0  0  0  0  0
   44.3471   33.9674   41.5799 H   0  0  0  0  0  0  0  0  0  0  0  0
   45.2896   35.3271   43.4176 H   0  0  0  0  0  0  0  0  0  0  0  0
   44.9742   36.4526   42.0870 H   0  0  0  0  0  0  0  0  0  0  0  0
   43.1675   35.8182   44.4700 H   0  0  0  0  0  0  0  0  0  0  0  0
   44.0323   37.3847   44.0858 H   0  0  0  0  0  0  0  0  0  0  0  0
   41.4696   37.0394   43.6627 H   0  0  0  0  0  0  0  0  0  0  0  0
   42.6049   37.9982   42.5571 H   0  0  0  0  0  0  0  0  0  0  0  0
   41.5558   36.9609   41.0068 H   0  0  0  0  0  0  0  0  0  0  0  0
   41.0766   35.5816   42.1458 H   0  0  0  0  0  0  0  0  0  0  0  0
  1  9  1  0
  1  5  1  0
  2  3  1  0
  2  1  1  0
  3  4  1  0
  4  5  1  0
  5  6  1  0
  6  7  1  0
  6  8  1  0
  7  8  1  0
  9 10  1  0
 10 11  2  0
 12 10  1  0
 13 12  2  0
 14 13  1  0
 15 14  2  0
 15 16  1  0
 16 17  2  0
 17 12  1  0
 18 16  1  0
 18 19  1  0
 19 24  1  0
 19 20  1  0
 20 21  1  0
 21 22  1  0
 23 22  1  0
 24 23  1  0
  1 25  1  6
  2 26  1  0
  2 27  1  0
  3 28  1  0
  3 29  1  0
  4 30  1  0
  4 31  1  0
  5 32  1  1
  6 33  1  0
  7 34  1  0
  7 35  1  0
  8 36  1  0
  8 37  1  0
 13 38  1  0
 14 39  1  0
 18 40  1  0
 18 41  1  0
 20 42  1  0
 20 43  1  0
 21 44  1  0
 21 45  1  0
 22 46  1  0
 22 47  1  0
 23 48  1  0
 23 49  1  0
 24 50  1  0
 24 51  1  0
M  ISO  8  25  13  26  13  27  13  28  13  29  13  30  13  31  13  32  13
M  ISO  8  33  13  34  13  35  13  36  13  37  13  38  14  39  14  40   8
M  ISO  8  41   8  42  13  43  13  44  13  45  13  46  13  47  13  48  13
M  ISO  3  49  13  50  13  51  13
M  END
>  <minimizedAffinity>  (1) 
-6.17553711

>  <minimizedRMSD>  (1) 
1.52349889

$$$$
