
     RDKit          3D

 50 53  0  0  1  0  0  0  0  0999 V2000
   37.9720   29.2990   41.0140 C   0  0  2  0  0  0  0  0  0  0  0  0
   37.2080   29.5610   39.5400 C   0  0  0  0  0  0  0  0  0  0  0  0
   35.8020   29.7700   39.7610 C   0  0  0  0  0  0  0  0  0  0  0  0
   35.5540   28.8770   40.9120 C   0  0  0  0  0  0  0  0  0  0  0  0
   36.8360   28.9780   41.7580 C   0  0  1  0  0  0  0  0  0  0  0  0
   36.9980   27.7880   42.6520 C   0  0  0  0  0  0  0  0  0  0  0  0
   38.2250   27.6350   43.4350 C   0  0  0  0  0  0  0  0  0  0  0  0
   37.0120   28.0470   44.1830 C   0  0  0  0  0  0  0  0  0  0  0  0
   38.4410   30.4900   41.2840 O   0  0  0  0  0  0  0  0  0  0  0  0
   39.6460   31.0650   40.7390 C   0  0  0  0  0  0  0  0  0  0  0  0
   40.5510   30.3330   40.4710 O   0  0  0  0  0  0  0  0  0  0  0  0
   39.5980   32.5320   40.5720 C   0  0  0  0  0  0  0  0  0  0  0  0
   38.2810   33.0560   40.2900 C   0  0  0  0  0  0  0  0  0  0  0  0
   38.1620   34.4330   40.0810 C   0  0  0  0  0  0  0  0  0  0  0  0
   39.3110   35.1800   40.1630 N   0  0  0  0  0  0  0  0  0  0  0  0
   40.5130   34.6470   40.4290 C   0  0  0  0  0  0  0  0  0  0  0  0
   40.6250   33.3420   40.6260 N   0  0  0  0  0  0  0  0  0  0  0  0
   41.6740   35.5810   40.4990 C   0  0  0  0  0  0  0  0  0  0  0  0
   42.1870   35.5870   41.8330 N   0  0  0  0  0  0  0  0  0  0  0  0
   41.9170   36.7020   42.6280 C   0  0  0  0  0  0  0  0  0  0  0  0
   43.0680   37.2940   43.3760 C   0  0  0  0  0  0  0  0  0  0  0  0
   43.7840   36.2290   44.0690 N   0  0  0  0  0  0  0  0  0  0  0  0
   44.3430   35.3830   43.0470 C   0  0  0  0  0  0  0  0  0  0  0  0
   43.3590   34.8370   42.0730 C   0  0  0  0  0  0  0  0  0  0  0  0
   38.7770   28.5593   41.1355 H   0  0  0  0  0  0  0  0  0  0  0  0
   37.3512   28.6841   38.8915 H   0  0  0  0  0  0  0  0  0  0  0  0
   37.6397   30.4490   39.0552 H   0  0  0  0  0  0  0  0  0  0  0  0
   35.5852   30.8190   40.0112 H   0  0  0  0  0  0  0  0  0  0  0  0
   35.1720   29.5601   38.8840 H   0  0  0  0  0  0  0  0  0  0  0  0
   34.6802   29.2170   41.4873 H   0  0  0  0  0  0  0  0  0  0  0  0
   35.3363   27.8442   40.6022 H   0  0  0  0  0  0  0  0  0  0  0  0
   36.7131   29.8439   42.4251 H   0  0  0  0  0  0  0  0  0  0  0  0
   36.4415   27.1427   41.9564 H   0  0  0  0  0  0  0  0  0  0  0  0
   38.6419   26.6296   43.5943 H   0  0  0  0  0  0  0  0  0  0  0  0
   39.2371   28.0564   43.3446 H   0  0  0  0  0  0  0  0  0  0  0  0
   36.9209   29.0707   44.5752 H   0  0  0  0  0  0  0  0  0  0  0  0
   36.4541   27.6734   45.0543 H   0  0  0  0  0  0  0  0  0  0  0  0
   37.4033   32.3947   40.2415 H   0  0  0  0  0  0  0  0  0  0  0  0
   37.1898   34.8980   39.8604 H   0  0  0  0  0  0  0  0  0  0  0  0
   42.4583   35.2471   39.8038 H   0  0  0  0  0  0  0  0  0  0  0  0
   41.3522   36.5952   40.2202 H   0  0  0  0  0  0  0  0  0  0  0  0
   41.5077   37.4856   41.9734 H   0  0  0  0  0  0  0  0  0  0  0  0
   41.2262   36.3404   43.4040 H   0  0  0  0  0  0  0  0  0  0  0  0
   43.7467   37.7961   42.6708 H   0  0  0  0  0  0  0  0  0  0  0  0
   42.6975   38.0283   44.1064 H   0  0  0  0  0  0  0  0  0  0  0  0
   44.5342   36.6255   44.6529 H   0  0  0  0  0  0  0  0  0  0  0  0
   45.0867   35.9697   42.4878 H   0  0  0  0  0  0  0  0  0  0  0  0
   44.7727   34.5149   43.5684 H   0  0  0  0  0  0  0  0  0  0  0  0
   43.0467   33.8484   42.4408 H   0  0  0  0  0  0  0  0  0  0  0  0
   43.8913   34.8378   41.1104 H   0  0  0  0  0  0  0  0  0  0  0  0
  1  9  1  0
  1  5  1  0
  2  3  1  0
  2  1  1  0
  3  4  1  0
  4  5  1  0
  5  6  1  0
  6  7  1  0
  6  8  1  0
  7  8  1  0
 10  9  1  0
 11 10  2  0
 12 17  1  0
 12 10  1  0
 13 12  2  0
 14 15  2  0
 14 13  1  0
 15 16  1  0
 16 18  1  0
 16 17  2  0
 18 19  1  0
 19 24  1  0
 19 20  1  0
 20 21  1  0
 21 22  1  0
 23 22  1  0
 24 23  1  0
  1 25  1  6
  2 26  1  0
  2 27  1  0
  3 28  1  0
  3 29  1  0
  4 30  1  0
  4 31  1  0
  5 32  1  1
  6 33  1  0
  7 34  1  0
  7 35  1  0
  8 36  1  0
  8 37  1  0
 13 38  1  0
 14 39  1  0
 18 40  1  0
 18 41  1  0
 20 42  1  0
 20 43  1  0
 21 44  1  0
 21 45  1  0
 22 46  1  0
 23 47  1  0
 23 48  1  0
 24 49  1  0
 24 50  1  0
M  ISO  8  25  13  26  13  27  13  28  13  29  13  30  13  31  13  32  13
M  ISO  8  33  13  34  13  35  13  36  13  37  13  38  14  39  14  40   8
M  ISO  8  41   8  42  13  43  13  44  13  45  13  46   5  47  13  48  13
M  ISO  2  49  13  50  13
M  END
>  <minimizedAffinity>  (1) 
-6.06030893

>  <minimizedRMSD>  (1) 
1.05263209

$$$$
