
     RDKit          3D

 44 47  0  0  1  0  0  0  0  0999 V2000
   38.1310   28.8270   41.5570 C   0  0  2  0  0  0  0  0  0  0  0  0
   38.2020   28.6390   39.8910 C   0  0  0  0  0  0  0  0  0  0  0  0
   36.8990   28.2970   39.3920 C   0  0  0  0  0  0  0  0  0  0  0  0
   36.3470   27.5020   40.5030 C   0  0  0  0  0  0  0  0  0  0  0  0
   36.9240   28.1610   41.7690 C   0  0  1  0  0  0  0  0  0  0  0  0
   36.9400   27.2090   42.9240 C   0  0  0  0  0  0  0  0  0  0  0  0
   37.9090   27.4040   44.0030 C   0  0  0  0  0  0  0  0  0  0  0  0
   36.5030   27.7670   44.3070 C   0  0  0  0  0  0  0  0  0  0  0  0
   38.0270   30.1260   41.6730 O   0  0  0  0  0  0  0  0  0  0  0  0
   39.1330   31.0530   41.7330 C   0  0  0  0  0  0  0  0  0  0  0  0
   40.1090   30.7350   42.3370 O   0  0  0  0  0  0  0  0  0  0  0  0
   38.9040   32.3130   41.0060 C   0  0  0  0  0  0  0  0  0  0  0  0
   37.5930   32.4290   40.4060 C   0  0  0  0  0  0  0  0  0  0  0  0
   37.3120   33.5820   39.6650 C   0  0  0  0  0  0  0  0  0  0  0  0
   38.3010   34.5170   39.5630 N   0  0  0  0  0  0  0  0  0  0  0  0
   39.5160   34.3690   40.1410 C   0  0  0  0  0  0  0  0  0  0  0  0
   39.7780   33.2810   40.8390 N   0  0  0  0  0  0  0  0  0  0  0  0
   40.4960   35.4680   39.9430 C   0  0  0  0  0  0  0  0  0  0  0  0
   41.8060   34.8850   39.5920 C   0  0  0  0  0  0  0  0  0  0  0  0
   42.0420   34.6590   38.2450 C   0  0  0  0  0  0  0  0  0  0  0  0
   43.2250   34.1140   37.7390 C   0  0  0  0  0  0  0  0  0  0  0  0
   44.1510   33.8110   38.6680 N   0  0  0  0  0  0  0  0  0  0  0  0
   43.9180   34.0320   39.9720 C   0  0  0  0  0  0  0  0  0  0  0  0
   42.7750   34.5570   40.4480 N   0  0  0  0  0  0  0  0  0  0  0  0
   38.9303   28.4698   42.2230 H   0  0  0  0  0  0  0  0  0  0  0  0
   38.5360   29.5801   39.4297 H   0  0  0  0  0  0  0  0  0  0  0  0
   38.9122   27.8366   39.6424 H   0  0  0  0  0  0  0  0  0  0  0  0
   36.2938   29.1962   39.2042 H   0  0  0  0  0  0  0  0  0  0  0  0
   36.9174   27.7637   38.4301 H   0  0  0  0  0  0  0  0  0  0  0  0
   35.2480   27.5484   40.5064 H   0  0  0  0  0  0  0  0  0  0  0  0
   36.6104   26.4367   40.4276 H   0  0  0  0  0  0  0  0  0  0  0  0
   36.2328   28.9698   42.0486 H   0  0  0  0  0  0  0  0  0  0  0  0
   36.6617   26.3611   42.2809 H   0  0  0  0  0  0  0  0  0  0  0  0
   38.3572   26.5259   44.4910 H   0  0  0  0  0  0  0  0  0  0  0  0
   38.8622   27.9485   44.0734 H   0  0  0  0  0  0  0  0  0  0  0  0
   36.2113   28.8221   44.4146 H   0  0  0  0  0  0  0  0  0  0  0  0
   35.7624   27.4938   45.0731 H   0  0  0  0  0  0  0  0  0  0  0  0
   36.8408   31.6358   40.5284 H   0  0  0  0  0  0  0  0  0  0  0  0
   36.3337   33.7290   39.1841 H   0  0  0  0  0  0  0  0  0  0  0  0
   40.1545   36.1248   39.1294 H   0  0  0  0  0  0  0  0  0  0  0  0
   40.5866   36.0568   40.8677 H   0  0  0  0  0  0  0  0  0  0  0  0
   41.2492   34.9250   37.5303 H   0  0  0  0  0  0  0  0  0  0  0  0
   43.3872   33.9455   36.6641 H   0  0  0  0  0  0  0  0  0  0  0  0
   44.7070   33.7686   40.6918 H   0  0  0  0  0  0  0  0  0  0  0  0
  1  9  1  0
  1  5  1  0
  2  1  1  0
  3  2  1  0
  3  4  1  0
  4  5  1  0
  5  6  1  0
  6  7  1  0
  6  8  1  0
  7  8  1  0
  9 10  1  0
 10 11  2  0
 12 10  1  0
 13 12  2  0
 14 13  1  0
 15 14  2  0
 15 16  1  0
 16 17  2  0
 17 12  1  0
 18 16  1  0
 19 18  1  0
 19 24  1  0
 20 19  2  0
 21 20  1  0
 21 22  2  0
 22 23  1  0
 23 24  2  0
  1 25  1  1
  2 26  1  0
  2 27  1  0
  3 28  1  0
  3 29  1  0
  4 30  1  0
  4 31  1  0
  5 32  1  1
  6 33  1  0
  7 34  1  0
  7 35  1  0
  8 36  1  0
  8 37  1  0
 13 38  1  0
 14 39  1  0
 18 40  1  0
 18 41  1  0
 20 42  1  0
 21 43  1  0
 23 44  1  0
M  ISO  8  25  13  26  13  27  13  28  13  29  13  30  13  31  13  32  13
M  ISO  8  33  13  34  13  35  13  36  13  37  13  38  14  39  14  40   8
M  ISO  4  41   8  42  14  43  14  44  14
M  END
>  <minimizedAffinity>  (1) 
-5.50663519

>  <minimizedRMSD>  (1) 
1.67337346

$$$$
