
     RDKit          3D

 17 18  0  0  0  0  0  0  0  0999 V2000
   37.8150   30.1340   41.7360 C   0  0  0  0  0  0  0  0  0  0  0  0
   37.6540   28.7750   42.0450 C   0  0  0  0  0  0  0  0  0  0  0  0
   36.4830   28.1420   41.6310 C   0  0  0  0  0  0  0  0  0  0  0  0
   35.5450   28.8710   40.9440 N   0  0  0  0  0  0  0  0  0  0  0  0
   35.7440   30.1860   40.6670 C   0  0  0  0  0  0  0  0  0  0  0  0
   36.8730   30.8040   41.0640 N   0  0  0  0  0  0  0  0  0  0  0  0
   38.6630   28.0150   42.7770 C   0  0  0  0  0  0  0  0  0  0  0  0
   40.0060   28.3880   42.8050 C   0  0  0  0  0  0  0  0  0  0  0  0
   40.6630   27.4420   43.5900 C   0  0  0  0  0  0  0  0  0  0  0  0
   39.6920   26.5570   43.9910 C   0  0  0  0  0  0  0  0  0  0  0  0
   38.5470   26.9250   43.4980 O   0  0  0  0  0  0  0  0  0  0  0  0
   38.7302   30.6564   42.0514 H   0  0  0  0  0  0  0  0  0  0  0  0
   36.3139   27.0776   41.8510 H   0  0  0  0  0  0  0  0  0  0  0  0
   34.9779   30.7499   40.1147 H   0  0  0  0  0  0  0  0  0  0  0  0
   40.4582   29.2577   42.3058 H   0  0  0  0  0  0  0  0  0  0  0  0
   41.7345   27.4107   43.8367 H   0  0  0  0  0  0  0  0  0  0  0  0
   39.8573   25.6760   44.6286 H   0  0  0  0  0  0  0  0  0  0  0  0
  1  2  2  0
  2  7  1  0
  3  2  1  0
  4  3  2  0
  5  4  1  0
  5  6  2  0
  6  1  1  0
  7  8  2  0
  7 11  1  0
  8  9  1  0
  9 10  2  0
 11 10  1  0
  1 12  1  0
  3 13  1  0
  5 14  1  0
  8 15  1  0
  9 16  1  0
 10 17  1  0
M  ISO  6  12  14  13  14  14  14  15  14  16  14  17  14
M  END
>  <minimizedAffinity>  (1) 
-3.49707007

>  <minimizedRMSD>  (1) 
2.46307039

$$$$
