
     RDKit          3D

 49 52  0  0  1  0  0  0  0  0999 V2000
   37.8560   28.5900   40.6280 C   0  0  2  0  0  0  0  0  0  0  0  0
   37.0200   28.9150   39.2070 C   0  0  0  0  0  0  0  0  0  0  0  0
   35.7920   29.5920   39.5190 C   0  0  0  0  0  0  0  0  0  0  0  0
   35.4360   28.9860   40.8150 C   0  0  0  0  0  0  0  0  0  0  0  0
   36.7880   28.7500   41.5110 C   0  0  1  0  0  0  0  0  0  0  0  0
   36.6840   27.6840   42.5580 C   0  0  0  0  0  0  0  0  0  0  0  0
   37.9010   27.1760   43.1890 C   0  0  0  0  0  0  0  0  0  0  0  0
   37.0610   28.0830   44.0130 C   0  0  0  0  0  0  0  0  0  0  0  0
   38.7060   29.5810   40.6630 O   0  0  0  0  0  0  0  0  0  0  0  0
   40.0970   29.5170   40.2820 C   0  0  0  0  0  0  0  0  0  0  0  0
   40.7570   28.6210   40.7120 O   0  0  0  0  0  0  0  0  0  0  0  0
   40.5230   30.6040   39.3750 C   0  0  0  0  0  0  0  0  0  0  0  0
   40.9490   30.1650   38.0660 C   0  0  0  0  0  0  0  0  0  0  0  0
   41.3900   31.1380   37.1690 C   0  0  0  0  0  0  0  0  0  0  0  0
   41.3870   32.4370   37.5970 N   0  0  0  0  0  0  0  0  0  0  0  0
   40.9820   32.8050   38.8270 C   0  0  0  0  0  0  0  0  0  0  0  0
   40.5630   31.8820   39.6790 N   0  0  0  0  0  0  0  0  0  0  0  0
   41.0270   34.2510   39.1670 C   0  0  0  0  0  0  0  0  0  0  0  0
   40.6170   34.5160   40.5130 N   0  0  0  0  0  0  0  0  0  0  0  0
   39.2470   34.8930   40.6630 C   0  0  0  0  0  0  0  0  0  0  0  0
   38.9500   36.2010   40.0080 C   0  0  0  0  0  0  0  0  0  0  0  0
   40.0720   36.9580   39.7170 O   0  0  0  0  0  0  0  0  0  0  0  0
   41.0280   36.9310   40.7330 C   0  0  0  0  0  0  0  0  0  0  0  0
   41.4640   35.5360   41.0710 C   0  0  0  0  0  0  0  0  0  0  0  0
   38.3974   27.6467   40.7923 H   0  0  0  0  0  0  0  0  0  0  0  0
   36.7969   27.9709   38.6885 H   0  0  0  0  0  0  0  0  0  0  0  0
   37.6360   29.5533   38.5565 H   0  0  0  0  0  0  0  0  0  0  0  0
   35.9453   30.6772   39.6127 H   0  0  0  0  0  0  0  0  0  0  0  0
   35.0150   29.4844   38.7479 H   0  0  0  0  0  0  0  0  0  0  0  0
   34.8084   29.6699   41.4053 H   0  0  0  0  0  0  0  0  0  0  0  0
   34.8563   28.0583   40.6991 H   0  0  0  0  0  0  0  0  0  0  0  0
   37.0397   29.6787   42.0440 H   0  0  0  0  0  0  0  0  0  0  0  0
   35.8238   27.2173   42.0557 H   0  0  0  0  0  0  0  0  0  0  0  0
   37.9663   26.1107   43.4554 H   0  0  0  0  0  0  0  0  0  0  0  0
   38.9622   27.1843   42.8995 H   0  0  0  0  0  0  0  0  0  0  0  0
   37.4012   29.1041   44.2402 H   0  0  0  0  0  0  0  0  0  0  0  0
   36.5754   28.0360   44.9989 H   0  0  0  0  0  0  0  0  0  0  0  0
   40.9264   29.1013   37.7867 H   0  0  0  0  0  0  0  0  0  0  0  0
   41.7271   30.8709   36.1566 H   0  0  0  0  0  0  0  0  0  0  0  0
   42.0581   34.6112   39.0360 H   0  0  0  0  0  0  0  0  0  0  0  0
   40.3257   34.7712   38.4980 H   0  0  0  0  0  0  0  0  0  0  0  0
   38.6137   34.1168   40.2087 H   0  0  0  0  0  0  0  0  0  0  0  0
   39.0401   34.9977   41.7383 H   0  0  0  0  0  0  0  0  0  0  0  0
   38.4147   36.0022   39.0678 H   0  0  0  0  0  0  0  0  0  0  0  0
   38.3523   36.7843   40.7239 H   0  0  0  0  0  0  0  0  0  0  0  0
   41.9068   37.5064   40.4065 H   0  0  0  0  0  0  0  0  0  0  0  0
   40.5723   37.3676   41.6340 H   0  0  0  0  0  0  0  0  0  0  0  0
   41.4640   35.4274   42.1656 H   0  0  0  0  0  0  0  0  0  0  0  0
   42.4649   35.3970   40.6364 H   0  0  0  0  0  0  0  0  0  0  0  0
  1  9  1  0
  1  5  1  0
  2  3  1  0
  2  1  1  0
  3  4  1  0
  4  5  1  0
  5  6  1  0
  6  7  1  0
  6  8  1  0
  7  8  1  0
 10  9  1  0
 10 11  2  0
 12 17  1  0
 12 10  1  0
 13 12  2  0
 14 15  2  0
 14 13  1  0
 15 16  1  0
 16 18  1  0
 16 17  2  0
 18 19  1  0
 19 20  1  0
 19 24  1  0
 21 20  1  0
 22 21  1  0
 22 23  1  0
 23 24  1  0
  1 25  1  6
  2 26  1  0
  2 27  1  0
  3 28  1  0
  3 29  1  0
  4 30  1  0
  4 31  1  0
  5 32  1  1
  6 33  1  0
  7 34  1  0
  7 35  1  0
  8 36  1  0
  8 37  1  0
 13 38  1  0
 14 39  1  0
 18 40  1  0
 18 41  1  0
 20 42  1  0
 20 43  1  0
 21 44  1  0
 21 45  1  0
 23 46  1  0
 23 47  1  0
 24 48  1  0
 24 49  1  0
M  ISO  8  25  13  26  13  27  13  28  13  29  13  30  13  31  13  32  13
M  ISO  8  33  13  34  13  35  13  36  13  37  13  38  14  39  14  40   8
M  ISO  8  41   8  42  13  43  13  44  13  45  13  46  13  47  13  48  13
M  ISO  1  49  13
M  END
>  <minimizedAffinity>  (1) 
-5.37196922

>  <minimizedRMSD>  (1) 
2.43518114

$$$$
