
     RDKit          3D

 17 18  0  0  0  0  0  0  0  0999 V2000
   38.5490   28.8820   43.0870 C   0  0  0  0  0  0  0  0  0  0  0  0
   39.1420   27.5960   43.1810 C   0  0  0  0  0  0  0  0  0  0  0  0
   38.3770   26.4890   42.8170 C   0  0  0  0  0  0  0  0  0  0  0  0
   37.0990   26.6980   42.3900 N   0  0  0  0  0  0  0  0  0  0  0  0
   36.5710   27.9370   42.3140 C   0  0  0  0  0  0  0  0  0  0  0  0
   37.2800   29.0240   42.6570 N   0  0  0  0  0  0  0  0  0  0  0  0
   40.5130   27.4000   43.6430 C   0  0  0  0  0  0  0  0  0  0  0  0
   41.5930   28.1480   43.2170 C   0  0  0  0  0  0  0  0  0  0  0  0
   42.6760   27.6710   43.8640 N   0  0  0  0  0  0  0  0  0  0  0  0
   42.2520   26.6560   44.6620 C   0  0  0  0  0  0  0  0  0  0  0  0
   40.9290   26.4820   44.5340 N   0  0  0  0  0  0  0  0  0  0  0  0
   39.1313   29.7719   43.3681 H   0  0  0  0  0  0  0  0  0  0  0  0
   38.7938   25.4725   42.8728 H   0  0  0  0  0  0  0  0  0  0  0  0
   35.5357   28.0594   41.9629 H   0  0  0  0  0  0  0  0  0  0  0  0
   41.5736   28.9735   42.4903 H   0  0  0  0  0  0  0  0  0  0  0  0
   42.9025   26.0612   45.3200 H   0  0  0  0  0  0  0  0  0  0  0  0
   40.3474   25.7849   45.0205 H   0  0  0  0  0  0  0  0  0  0  0  0
  1  2  2  0
  2  7  1  0
  3  2  1  0
  4  3  2  0
  5  4  1  0
  5  6  2  0
  6  1  1  0
  7 11  1  0
  8  7  2  0
  8  9  1  0
  9 10  2  0
 11 10  1  0
  1 12  1  0
  3 13  1  0
  5 14  1  0
  8 15  1  0
 10 16  1  0
 11 17  1  0
M  ISO  6  12  14  13  14  14  14  15  14  16  14  17   9
M  END
>  <minimizedAffinity>  (1) 
-3.49383974

>  <minimizedRMSD>  (1) 
2.91255474

$$$$
