
     RDKit          3D

 29 29  0  0  0  0  0  0  0  0999 V2000
   40.5930   26.8580   42.9700 C   0  0  0  0  0  0  0  0  0  0  0  0
   43.4140   29.0200   44.3430 C   0  0  0  0  0  0  0  0  0  0  0  0
   42.4110   28.5870   43.4650 C   0  0  0  0  0  0  0  0  0  0  0  0
   41.6820   27.4330   43.7920 C   0  0  0  0  0  0  0  0  0  0  0  0
   42.0000   26.7980   44.9570 N   0  0  0  0  0  0  0  0  0  0  0  0
   42.9700   27.2300   45.7910 C   0  0  0  0  0  0  0  0  0  0  0  0
   43.6670   28.3370   45.4760 N   0  0  0  0  0  0  0  0  0  0  0  0
   40.1620   25.5970   43.7030 C   0  0  0  0  0  0  0  0  0  0  0  0
   41.0360   26.5790   41.5700 C   0  0  0  0  0  0  0  0  0  0  0  0
   39.3940   27.7690   42.9420 C   0  0  0  0  0  0  0  0  0  0  0  0
   38.3090   27.3830   43.7750 N   0  0  0  0  0  0  0  0  0  0  0  0
   37.2620   28.3470   43.9730 C   0  0  0  0  0  0  0  0  0  0  0  0
   37.0020   29.3160   43.1390 N   0  0  0  0  0  0  0  0  0  0  0  0
   36.4120   28.3230   45.1120 N   0  0  0  0  0  0  0  0  0  0  0  0
   37.5340   29.4690   42.2600 H   0  0  0  0  0  0  0  0  0  0  0  0
   43.9973   29.9219   44.1057 H   0  0  0  0  0  0  0  0  0  0  0  0
   42.1994   29.1405   42.5382 H   0  0  0  0  0  0  0  0  0  0  0  0
   43.1884   26.6820   46.7194 H   0  0  0  0  0  0  0  0  0  0  0  0
   40.2197   25.7660   44.7884 H   0  0  0  0  0  0  0  0  0  0  0  0
   39.1274   25.3470   43.4254 H   0  0  0  0  0  0  0  0  0  0  0  0
   40.8271   24.7660   43.4254 H   0  0  0  0  0  0  0  0  0  0  0  0
   41.9666   25.9929   41.5898 H   0  0  0  0  0  0  0  0  0  0  0  0
   40.2551   26.0094   41.0449 H   0  0  0  0  0  0  0  0  0  0  0  0
   41.2123   27.5294   41.0449 H   0  0  0  0  0  0  0  0  0  0  0  0
   39.7226   28.7704   43.2569 H   0  0  0  0  0  0  0  0  0  0  0  0
   39.0107   27.7298   41.9117 H   0  0  0  0  0  0  0  0  0  0  0  0
   38.2747   26.4534   44.2172 H   0  0  0  0  0  0  0  0  0  0  0  0
   35.6724   29.0321   45.2177 H   0  0  0  0  0  0  0  0  0  0  0  0
   36.5356   27.5965   45.8316 H   0  0  0  0  0  0  0  0  0  0  0  0
  1  8  1  0
  1  4  1  0
  2  7  2  0
  3  4  2  0
  3  2  1  0
  4  5  1  0
  5  6  2  0
  7  6  1  0
  9  1  1  0
 10  1  1  0
 10 11  1  0
 11 12  1  0
 12 14  1  0
 13 12  2  0
 15 13  1  0
  2 16  1  0
  3 17  1  0
  6 18  1  0
  8 19  1  0
  8 20  1  0
  8 21  1  0
  9 22  1  0
  9 23  1  0
  9 24  1  0
 10 25  1  0
 10 26  1  0
 11 27  1  0
 14 28  1  0
 14 29  1  0
M  ISO  8  16  14  17  14  18  14  19   8  20   8  21   8  22   8  23   8
M  ISO  3  24   8  25   8  26   8
M  END
>  <minimizedAffinity>  (1) 
-4.43044853

>  <minimizedRMSD>  (1) 
4.98728085

$$$$
