
     RDKit          3D

 37 38  0  0  0  0  0  0  0  0999 V2000
   37.9780   27.5040   42.7980 C   0  0  0  0  0  0  0  0  0  0  0  0
   38.9910   30.9120   41.4990 C   0  0  0  0  0  0  0  0  0  0  0  0
   39.1310   29.6560   42.1010 C   0  0  0  0  0  0  0  0  0  0  0  0
   38.0120   28.8550   42.2230 C   0  0  0  0  0  0  0  0  0  0  0  0
   36.8220   29.3440   41.7440 N   0  0  0  0  0  0  0  0  0  0  0  0
   36.7110   30.5580   41.1670 C   0  0  0  0  0  0  0  0  0  0  0  0
   37.7920   31.3360   41.0460 N   0  0  0  0  0  0  0  0  0  0  0  0
   36.5760   27.3470   43.4310 C   0  0  0  0  0  0  0  0  0  0  0  0
   39.0360   27.3380   43.8690 C   0  0  0  0  0  0  0  0  0  0  0  0
   38.0900   26.4160   41.8030 C   0  0  0  0  0  0  0  0  0  0  0  0
   36.9350   25.7460   41.3680 N   0  0  0  0  0  0  0  0  0  0  0  0
   36.6760   26.1340   39.9690 C   0  0  0  0  0  0  0  0  0  0  0  0
   37.5310   25.3070   39.0670 C   0  0  0  0  0  0  0  0  0  0  0  0
   36.9100   23.9200   39.0010 C   0  0  0  0  0  0  0  0  0  0  0  0
   36.1770   23.7090   40.2790 C   0  0  0  0  0  0  0  0  0  0  0  0
   36.8810   24.3280   41.4970 C   0  0  0  0  0  0  0  0  0  0  0  0
   39.8712   31.5633   41.3935 H   0  0  0  0  0  0  0  0  0  0  0  0
   40.1099   29.3145   42.4686 H   0  0  0  0  0  0  0  0  0  0  0  0
   35.7354   30.9067   40.7975 H   0  0  0  0  0  0  0  0  0  0  0  0
   36.6655   27.3570   44.5273 H   0  0  0  0  0  0  0  0  0  0  0  0
   35.9326   28.1787   43.1080 H   0  0  0  0  0  0  0  0  0  0  0  0
   36.1325   26.3936   43.1080 H   0  0  0  0  0  0  0  0  0  0  0  0
   38.5676   27.4115   44.8616 H   0  0  0  0  0  0  0  0  0  0  0  0
   39.5152   26.3537   43.7616 H   0  0  0  0  0  0  0  0  0  0  0  0
   39.7936   28.1283   43.7616 H   0  0  0  0  0  0  0  0  0  0  0  0
   38.5624   26.8493   40.9091 H   0  0  0  0  0  0  0  0  0  0  0  0
   38.6500   25.6362   42.3400 H   0  0  0  0  0  0  0  0  0  0  0  0
   35.6159   25.9640   39.7297 H   0  0  0  0  0  0  0  0  0  0  0  0
   36.9122   27.1993   39.8298 H   0  0  0  0  0  0  0  0  0  0  0  0
   37.5609   25.7542   38.0624 H   0  0  0  0  0  0  0  0  0  0  0  0
   38.5616   25.2544   39.4478 H   0  0  0  0  0  0  0  0  0  0  0  0
   36.2137   23.8581   38.1517 H   0  0  0  0  0  0  0  0  0  0  0  0
   37.6833   23.1504   38.8609 H   0  0  0  0  0  0  0  0  0  0  0  0
   35.1784   24.1610   40.1867 H   0  0  0  0  0  0  0  0  0  0  0  0
   36.1284   22.6234   40.4496 H   0  0  0  0  0  0  0  0  0  0  0  0
   37.9044   23.9305   41.5657 H   0  0  0  0  0  0  0  0  0  0  0  0
   36.3161   24.0722   42.4056 H   0  0  0  0  0  0  0  0  0  0  0  0
  1  8  1  0
  1  9  1  0
  2  3  2  0
  3  4  1  0
  4  1  1  0
  5  4  2  0
  6  5  1  0
  7  6  2  0
  7  2  1  0
 10  1  1  0
 11 16  1  0
 11 10  1  0
 12 11  1  0
 13 12  1  0
 14 13  1  0
 14 15  1  0
 15 16  1  0
  2 17  1  0
  3 18  1  0
  6 19  1  0
  8 20  1  0
  8 21  1  0
  8 22  1  0
  9 23  1  0
  9 24  1  0
  9 25  1  0
 10 26  1  0
 10 27  1  0
 12 28  1  0
 12 29  1  0
 13 30  1  0
 13 31  1  0
 14 32  1  0
 14 33  1  0
 15 34  1  0
 15 35  1  0
 16 36  1  0
 16 37  1  0
M  ISO  8  17  14  18  14  19  14  20   8  21   8  22   8  23   8  24   8
M  ISO  8  25   8  26   8  27   8  28  13  29  13  30  13  31  13  32  13
M  ISO  5  33  13  34  13  35  13  36  13  37  13
M  END
>  <minimizedAffinity>  (1) 
-4.23013878

>  <minimizedRMSD>  (1) 
3.95553136

$$$$
