
     RDKit          3D

 32 33  0  0  0  0  0  0  0  0999 V2000
   38.2300   25.3150   42.0700 C   0  0  0  0  0  0  0  0  0  0  0  0
   38.3600   28.9390   43.2390 C   0  0  0  0  0  0  0  0  0  0  0  0
   38.7130   27.5760   43.1320 C   0  0  0  0  0  0  0  0  0  0  0  0
   37.9800   26.7500   42.2830 C   0  0  0  0  0  0  0  0  0  0  0  0
   36.9520   27.3170   41.5980 N   0  0  0  0  0  0  0  0  0  0  0  0
   36.6300   28.6280   41.7140 C   0  0  0  0  0  0  0  0  0  0  0  0
   37.3280   29.4260   42.5260 N   0  0  0  0  0  0  0  0  0  0  0  0
   36.8950   24.6270   42.3280 C   0  0  0  0  0  0  0  0  0  0  0  0
   39.3150   24.8010   42.9700 C   0  0  0  0  0  0  0  0  0  0  0  0
   38.5980   25.0210   40.6330 C   0  0  0  0  0  0  0  0  0  0  0  0
   37.8770   23.8420   40.1040 C   0  0  0  0  0  0  0  0  0  0  0  0
   36.6970   23.9890   39.4030 C   0  0  0  0  0  0  0  0  0  0  0  0
   35.9680   22.9470   38.8800 C   0  0  0  0  0  0  0  0  0  0  0  0
   36.4400   21.6430   39.0610 C   0  0  0  0  0  0  0  0  0  0  0  0
   37.6210   21.5150   39.7630 C   0  0  0  0  0  0  0  0  0  0  0  0
   38.3640   22.5460   40.2950 C   0  0  0  0  0  0  0  0  0  0  0  0
   38.9292   29.6033   43.9059 H   0  0  0  0  0  0  0  0  0  0  0  0
   39.5560   27.1717   43.7116 H   0  0  0  0  0  0  0  0  0  0  0  0
   35.7885   29.0375   41.1358 H   0  0  0  0  0  0  0  0  0  0  0  0
   36.7299   24.5419   43.4122 H   0  0  0  0  0  0  0  0  0  0  0  0
   36.0843   25.2196   41.8790 H   0  0  0  0  0  0  0  0  0  0  0  0
   36.9072   23.6229   41.8790 H   0  0  0  0  0  0  0  0  0  0  0  0
   39.0180   24.9417   44.0197 H   0  0  0  0  0  0  0  0  0  0  0  0
   39.4767   23.7306   42.7750 H   0  0  0  0  0  0  0  0  0  0  0  0
   40.2457   25.3539   42.7750 H   0  0  0  0  0  0  0  0  0  0  0  0
   38.3469   25.8965   40.0163 H   0  0  0  0  0  0  0  0  0  0  0  0
   39.6757   24.8034   40.5969 H   0  0  0  0  0  0  0  0  0  0  0  0
   36.3138   25.0091   39.2525 H   0  0  0  0  0  0  0  0  0  0  0  0
   35.0335   23.1350   38.3310 H   0  0  0  0  0  0  0  0  0  0  0  0
   35.9006   20.7694   38.6663 H   0  0  0  0  0  0  0  0  0  0  0  0
   38.0049   20.4950   39.9117 H   0  0  0  0  0  0  0  0  0  0  0  0
   39.2979   22.3578   40.8450 H   0  0  0  0  0  0  0  0  0  0  0  0
  1  4  1  0
  1  8  1  0
  1  9  1  0
  3  2  2  0
  4  3  1  0
  5  6  1  0
  5  4  2  0
  6  7  2  0
  7  2  1  0
 10  1  1  0
 11 16  1  0
 11 10  1  0
 12 11  2  0
 13 14  2  0
 13 12  1  0
 14 15  1  0
 15 16  2  0
  2 17  1  0
  3 18  1  0
  6 19  1  0
  8 20  1  0
  8 21  1  0
  8 22  1  0
  9 23  1  0
  9 24  1  0
  9 25  1  0
 10 26  1  0
 10 27  1  0
 12 28  1  0
 13 29  1  0
 14 30  1  0
 15 31  1  0
 16 32  1  0
M  ISO  8  17  14  18  14  19  14  20   8  21   8  22   8  23   8  24   8
M  ISO  8  25   8  26   8  27   8  28  14  29  14  30  14  31  14  32  14
M  END
>  <minimizedAffinity>  (1) 
-4.17541265

>  <minimizedRMSD>  (1) 
2.25393558

$$$$
