
     RDKit          3D

 36 37  0  0  1  0  0  0  0  0999 V2000
   38.9610   25.0130   42.1010 C   0  0  0  0  0  0  0  0  0  0  0  0
   38.6310   28.6340   43.1620 C   0  0  0  0  0  0  0  0  0  0  0  0
   39.2550   27.4490   42.7090 C   0  0  0  0  0  0  0  0  0  0  0  0
   38.4830   26.3180   42.5630 C   0  0  0  0  0  0  0  0  0  0  0  0
   37.1460   26.4010   42.8690 N   0  0  0  0  0  0  0  0  0  0  0  0
   36.5680   27.5420   43.3000 C   0  0  0  0  0  0  0  0  0  0  0  0
   37.2920   28.6440   43.4470 N   0  0  0  0  0  0  0  0  0  0  0  0
   37.7030   24.1780   41.7940 C   0  0  0  0  0  0  0  0  0  0  0  0
   39.7880   24.3150   43.1720 C   0  0  0  0  0  0  0  0  0  0  0  0
   39.7440   25.0460   40.8400 C   0  0  0  0  0  0  0  0  0  0  0  0
   38.9920   25.1160   39.6070 N   0  0  0  0  0  0  0  0  0  0  0  0
   38.3960   26.4580   39.6070 C   0  0  0  0  0  0  0  0  0  0  0  0
   37.2580   26.5410   38.6120 C   0  0  0  0  0  0  0  0  0  0  0  0
   36.1290   25.7370   39.0500 N   0  0  0  0  0  0  0  0  0  0  0  0
   36.5760   24.8470   40.1030 C   0  0  0  0  0  0  0  0  0  0  0  0
   37.8880   24.1620   39.7830 C   0  0  0  0  0  0  0  0  0  0  0  0
   39.2240   29.5521   43.2860 H   0  0  0  0  0  0  0  0  0  0  0  0
   40.3305   27.4309   42.4789 H   0  0  0  0  0  0  0  0  0  0  0  0
   35.4925   27.5583   43.5303 H   0  0  0  0  0  0  0  0  0  0  0  0
   37.2315   23.8650   42.7372 H   0  0  0  0  0  0  0  0  0  0  0  0
   36.9930   24.7847   41.2128 H   0  0  0  0  0  0  0  0  0  0  0  0
   37.9864   23.2881   41.2128 H   0  0  0  0  0  0  0  0  0  0  0  0
   39.4297   24.6174   44.1671 H   0  0  0  0  0  0  0  0  0  0  0  0
   39.6866   23.2253   43.0614 H   0  0  0  0  0  0  0  0  0  0  0  0
   40.8452   24.5980   43.0614 H   0  0  0  0  0  0  0  0  0  0  0  0
   40.4012   25.9272   40.8794 H   0  0  0  0  0  0  0  0  0  0  0  0
   40.2693   24.0803   40.8022 H   0  0  0  0  0  0  0  0  0  0  0  0
   38.0123   26.6821   40.6132 H   0  0  0  0  0  0  0  0  0  0  0  0
   39.1685   27.1868   39.3206 H   0  0  0  0  0  0  0  0  0  0  0  0
   37.6054   26.1729   37.6354 H   0  0  0  0  0  0  0  0  0  0  0  0
   36.9345   27.5894   38.5333 H   0  0  0  0  0  0  0  0  0  0  0  0
   35.3837   26.3512   39.4079 H   0  0  0  0  0  0  0  0  0  0  0  0
   36.7022   25.4319   41.0260 H   0  0  0  0  0  0  0  0  0  0  0  0
   35.8140   24.0616   40.2148 H   0  0  0  0  0  0  0  0  0  0  0  0
   37.7679   23.5860   38.8536 H   0  0  0  0  0  0  0  0  0  0  0  0
   38.1411   23.5105   40.6324 H   0  0  0  0  0  0  0  0  0  0  0  0
  1  8  1  0
  1  4  1  0
  1  9  1  0
  2  7  2  0
  3  2  1  0
  4  3  2  0
  4  5  1  0
  5  6  2  0
  6  7  1  0
 10  1  1  0
 11 12  1  0
 11 16  1  0
 11 10  1  0
 13 14  1  0
 13 12  1  0
 14 15  1  0
 16 15  1  0
  2 17  1  0
  3 18  1  0
  6 19  1  0
  8 20  1  0
  8 21  1  0
  8 22  1  0
  9 23  1  0
  9 24  1  0
  9 25  1  0
 10 26  1  0
 10 27  1  0
 12 28  1  0
 12 29  1  0
 13 30  1  0
 13 31  1  0
 14 32  1  0
 15 33  1  0
 15 34  1  0
 16 35  1  0
 16 36  1  0
M  ISO  8  17  14  18  14  19  14  20   8  21   8  22   8  23   8  24   8
M  ISO  8  25   8  26   8  27   8  28  13  29  13  30  13  31  13  32   5
M  ISO  4  33  13  34  13  35  13  36  13
M  END
>  <minimizedAffinity>  (1) 
-3.82253766

>  <minimizedRMSD>  (1) 
0.777593493

$$$$
