
     RDKit          3D

 29 30  0  0  0  0  0  0  0  0999 V2000
   38.2340   25.2100   42.0150 C   0  0  0  0  0  0  0  0  0  0  0  0
   38.4660   28.8160   43.2140 C   0  0  0  0  0  0  0  0  0  0  0  0
   38.8110   27.4560   43.0740 C   0  0  0  0  0  0  0  0  0  0  0  0
   37.9980   26.6480   42.2620 C   0  0  0  0  0  0  0  0  0  0  0  0
   36.9350   27.2290   41.6660 N   0  0  0  0  0  0  0  0  0  0  0  0
   36.6220   28.5240   41.8100 C   0  0  0  0  0  0  0  0  0  0  0  0
   37.3860   29.3080   42.5800 N   0  0  0  0  0  0  0  0  0  0  0  0
   36.9030   24.5200   42.2560 C   0  0  0  0  0  0  0  0  0  0  0  0
   39.3150   24.6530   42.9170 C   0  0  0  0  0  0  0  0  0  0  0  0
   38.6050   24.9390   40.5880 C   0  0  0  0  0  0  0  0  0  0  0  0
   37.8770   23.8370   39.9540 C   0  0  0  0  0  0  0  0  0  0  0  0
   38.5320   22.6010   40.0140 C   0  0  0  0  0  0  0  0  0  0  0  0
   37.7230   21.6810   39.3800 C   0  0  0  0  0  0  0  0  0  0  0  0
   36.6180   22.3930   38.9620 C   0  0  0  0  0  0  0  0  0  0  0  0
   36.7500   23.6460   39.3190 O   0  0  0  0  0  0  0  0  0  0  0  0
   39.0812   29.4762   43.8430 H   0  0  0  0  0  0  0  0  0  0  0  0
   39.6913   27.0398   43.5858 H   0  0  0  0  0  0  0  0  0  0  0  0
   35.7419   28.9404   41.2981 H   0  0  0  0  0  0  0  0  0  0  0  0
   36.7277   24.4291   43.3381 H   0  0  0  0  0  0  0  0  0  0  0  0
   36.0952   25.1129   41.8022 H   0  0  0  0  0  0  0  0  0  0  0  0
   36.9219   23.5181   41.8022 H   0  0  0  0  0  0  0  0  0  0  0  0
   39.0276   24.8011   43.9684 H   0  0  0  0  0  0  0  0  0  0  0  0
   39.4400   23.5782   42.7190 H   0  0  0  0  0  0  0  0  0  0  0  0
   40.2628   25.1750   42.7190 H   0  0  0  0  0  0  0  0  0  0  0  0
   38.4130   25.8530   40.0068 H   0  0  0  0  0  0  0  0  0  0  0  0
   39.6636   24.6401   40.5987 H   0  0  0  0  0  0  0  0  0  0  0  0
   39.5085   22.4011   40.4794 H   0  0  0  0  0  0  0  0  0  0  0  0
   37.9177   20.6077   39.2380 H   0  0  0  0  0  0  0  0  0  0  0  0
   35.7606   21.9741   38.4148 H   0  0  0  0  0  0  0  0  0  0  0  0
  1  8  1  0
  1  4  1  0
  1  9  1  0
  3  2  2  0
  4  3  1  0
  5  6  1  0
  5  4  2  0
  6  7  2  0
  7  2  1  0
 10  1  1  0
 11 12  2  0
 11 10  1  0
 13 12  1  0
 14 15  1  0
 14 13  2  0
 15 11  1  0
  2 16  1  0
  3 17  1  0
  6 18  1  0
  8 19  1  0
  8 20  1  0
  8 21  1  0
  9 22  1  0
  9 23  1  0
  9 24  1  0
 10 25  1  0
 10 26  1  0
 12 27  1  0
 13 28  1  0
 14 29  1  0
M  ISO  8  16  14  17  14  18  14  19   8  20   8  21   8  22   8  23   8
M  ISO  6  24   8  25   8  26   8  27  14  28  14  29  14
M  END
>  <minimizedAffinity>  (1) 
-3.76779199

>  <minimizedRMSD>  (1) 
1.84904182

$$$$
