
     RDKit          3D

 27 28  0  0  0  0  0  0  0  0999 V2000
   38.4550   25.2050   42.1880 C   0  0  0  0  0  0  0  0  0  0  0  0
   39.4780   28.8500   42.6350 C   0  0  0  0  0  0  0  0  0  0  0  0
   39.5710   27.5000   42.2510 C   0  0  0  0  0  0  0  0  0  0  0  0
   38.5070   26.6370   42.5270 C   0  0  0  0  0  0  0  0  0  0  0  0
   37.4290   27.1770   43.1630 N   0  0  0  0  0  0  0  0  0  0  0  0
   37.3510   28.4740   43.5270 C   0  0  0  0  0  0  0  0  0  0  0  0
   38.3710   29.3090   43.2650 N   0  0  0  0  0  0  0  0  0  0  0  0
   37.0040   24.7910   42.3720 C   0  0  0  0  0  0  0  0  0  0  0  0
   39.3980   24.4020   43.0460 C   0  0  0  0  0  0  0  0  0  0  0  0
   38.8020   24.9640   40.7370 C   0  0  0  0  0  0  0  0  0  0  0  0
   38.0700   23.8170   40.1620 C   0  0  0  0  0  0  0  0  0  0  0  0
   38.4280   22.5230   40.3940 N   0  0  0  0  0  0  0  0  0  0  0  0
   37.6080   21.7240   39.7620 O   0  0  0  0  0  0  0  0  0  0  0  0
   36.7130   22.4220   39.1120 C   0  0  0  0  0  0  0  0  0  0  0  0
   36.9940   23.7320   39.3570 N   0  0  0  0  0  0  0  0  0  0  0  0
   40.3101   29.5372   42.4221 H   0  0  0  0  0  0  0  0  0  0  0  0
   40.4708   27.1279   41.7394 H   0  0  0  0  0  0  0  0  0  0  0  0
   36.4519   28.8482   44.0385 H   0  0  0  0  0  0  0  0  0  0  0  0
   36.7747   24.7256   43.4458 H   0  0  0  0  0  0  0  0  0  0  0  0
   36.3472   25.5376   41.9017 H   0  0  0  0  0  0  0  0  0  0  0  0
   36.8401   23.8102   41.9017 H   0  0  0  0  0  0  0  0  0  0  0  0
   39.1778   24.5895   44.1073 H   0  0  0  0  0  0  0  0  0  0  0  0
   39.2700   23.3313   42.8285 H   0  0  0  0  0  0  0  0  0  0  0  0
   40.4346   24.6990   42.8285 H   0  0  0  0  0  0  0  0  0  0  0  0
   38.5521   25.8667   40.1602 H   0  0  0  0  0  0  0  0  0  0  0  0
   39.8765   24.7343   40.6846 H   0  0  0  0  0  0  0  0  0  0  0  0
   35.8951   22.0288   38.4904 H   0  0  0  0  0  0  0  0  0  0  0  0
  1  8  1  0
  1  4  1  0
  1  9  1  0
  2  7  2  0
  3  4  2  0
  3  2  1  0
  4  5  1  0
  5  6  2  0
  7  6  1  0
 10  1  1  0
 11 12  2  0
 11 10  1  0
 13 12  1  0
 14 15  2  0
 14 13  1  0
 15 11  1  0
  2 16  1  0
  3 17  1  0
  6 18  1  0
  8 19  1  0
  8 20  1  0
  8 21  1  0
  9 22  1  0
  9 23  1  0
  9 24  1  0
 10 25  1  0
 10 26  1  0
 14 27  1  0
M  ISO  8  16  14  17  14  18  14  19   8  20   8  21   8  22   8  23   8
M  ISO  4  24   8  25   8  26   8  27  14
M  END
>  <minimizedAffinity>  (1) 
-3.66041827

>  <minimizedRMSD>  (1) 
2.07286382

$$$$
