
     RDKit          3D

 29 30  0  0  0  0  0  0  0  0999 V2000
   38.5420   25.1030   42.0980 C   0  0  0  0  0  0  0  0  0  0  0  0
   38.4580   28.7250   43.2700 C   0  0  0  0  0  0  0  0  0  0  0  0
   38.9350   27.3980   43.1170 C   0  0  0  0  0  0  0  0  0  0  0  0
   38.1770   26.5140   42.3480 C   0  0  0  0  0  0  0  0  0  0  0  0
   37.0340   26.9860   41.7990 N   0  0  0  0  0  0  0  0  0  0  0  0
   36.5860   28.2450   41.9470 C   0  0  0  0  0  0  0  0  0  0  0  0
   37.3080   29.1080   42.6870 N   0  0  0  0  0  0  0  0  0  0  0  0
   37.2330   24.3280   42.1750 C   0  0  0  0  0  0  0  0  0  0  0  0
   39.5440   24.6030   43.0880 C   0  0  0  0  0  0  0  0  0  0  0  0
   39.0570   24.9000   40.6870 C   0  0  0  0  0  0  0  0  0  0  0  0
   38.5360   23.6540   40.0520 C   0  0  0  0  0  0  0  0  0  0  0  0
   39.4200   23.1410   38.9250 C   0  0  0  0  0  0  0  0  0  0  0  0
   38.1000   23.7170   38.5780 C   0  0  0  0  0  0  0  0  0  0  0  0
   39.0327   29.4461   43.8698 H   0  0  0  0  0  0  0  0  0  0  0  0
   39.8741   27.0754   43.5903 H   0  0  0  0  0  0  0  0  0  0  0  0
   35.6466   28.5644   41.4722 H   0  0  0  0  0  0  0  0  0  0  0  0
   36.9630   24.1681   43.2293 H   0  0  0  0  0  0  0  0  0  0  0  0
   36.4378   24.9009   41.6757 H   0  0  0  0  0  0  0  0  0  0  0  0
   37.3529   23.3552   41.6757 H   0  0  0  0  0  0  0  0  0  0  0  0
   39.1752   24.7871   44.1078 H   0  0  0  0  0  0  0  0  0  0  0  0
   39.6961   23.5233   42.9424 H   0  0  0  0  0  0  0  0  0  0  0  0
   40.4981   25.1306   42.9424 H   0  0  0  0  0  0  0  0  0  0  0  0
   38.7506   25.7607   40.0744 H   0  0  0  0  0  0  0  0  0  0  0  0
   40.1516   24.8078   40.7453 H   0  0  0  0  0  0  0  0  0  0  0  0
   38.0699   23.2658   40.9697 H   0  0  0  0  0  0  0  0  0  0  0  0
   40.3389   23.6853   38.6616 H   0  0  0  0  0  0  0  0  0  0  0  0
   39.9194   22.1835   38.7155 H   0  0  0  0  0  0  0  0  0  0  0  0
   38.0430   24.6877   38.0637 H   0  0  0  0  0  0  0  0  0  0  0  0
   37.2247   23.3641   38.0129 H   0  0  0  0  0  0  0  0  0  0  0  0
  1  8  1  0
  1  4  1  0
  1  9  1  0
  3  2  2  0
  4  3  1  0
  5  6  1  0
  5  4  2  0
  6  7  2  0
  7  2  1  0
 10  1  1  0
 11 10  1  0
 12 11  1  0
 13 12  1  0
 13 11  1  0
  2 14  1  0
  3 15  1  0
  6 16  1  0
  8 17  1  0
  8 18  1  0
  8 19  1  0
  9 20  1  0
  9 21  1  0
  9 22  1  0
 10 23  1  0
 10 24  1  0
 11 25  1  0
 12 26  1  0
 12 27  1  0
 13 28  1  0
 13 29  1  0
M  ISO  8  14  14  15  14  16  14  17   8  18   8  19   8  20   8  21   8
M  ISO  8  22   8  23   8  24   8  25  13  26  13  27  13  28  13  29  13
M  END
>  <minimizedAffinity>  (1) 
-3.48164153

>  <minimizedRMSD>  (1) 
1.43293381

$$$$
