
     RDKit          3D

 23 23  0  0  0  0  0  0  0  0999 V2000
   38.6250   25.1100   42.0990 C   0  0  0  0  0  0  0  0  0  0  0  0
   38.4270   28.6990   43.3040 C   0  0  0  0  0  0  0  0  0  0  0  0
   38.9320   27.3920   43.1390 C   0  0  0  0  0  0  0  0  0  0  0  0
   38.2250   26.5030   42.3520 C   0  0  0  0  0  0  0  0  0  0  0  0
   37.0700   26.9400   41.7760 N   0  0  0  0  0  0  0  0  0  0  0  0
   36.6060   28.1930   41.9490 C   0  0  0  0  0  0  0  0  0  0  0  0
   37.2690   29.0700   42.7020 N   0  0  0  0  0  0  0  0  0  0  0  0
   37.3220   24.2910   42.1180 C   0  0  0  0  0  0  0  0  0  0  0  0
   39.5870   24.5960   43.1320 C   0  0  0  0  0  0  0  0  0  0  0  0
   39.1990   24.9290   40.7230 C   0  0  0  0  0  0  0  0  0  0  0  0
   40.5940   25.1580   40.7680 O   0  0  0  0  0  0  0  0  0  0  0  0
   38.9759   29.4223   43.9250 H   0  0  0  0  0  0  0  0  0  0  0  0
   39.8695   27.0868   43.6269 H   0  0  0  0  0  0  0  0  0  0  0  0
   35.6673   28.4961   41.4622 H   0  0  0  0  0  0  0  0  0  0  0  0
   37.0224   24.1027   43.1595 H   0  0  0  0  0  0  0  0  0  0  0  0
   36.5282   24.8529   41.6040 H   0  0  0  0  0  0  0  0  0  0  0  0
   37.4841   23.3321   41.6040 H   0  0  0  0  0  0  0  0  0  0  0  0
   39.1928   24.8066   44.1371 H   0  0  0  0  0  0  0  0  0  0  0  0
   39.7130   23.5103   43.0076 H   0  0  0  0  0  0  0  0  0  0  0  0
   40.5596   25.0947   43.0076 H   0  0  0  0  0  0  0  0  0  0  0  0
   38.7306   25.6450   40.0317 H   0  0  0  0  0  0  0  0  0  0  0  0
   39.0034   23.9049   40.3724 H   0  0  0  0  0  0  0  0  0  0  0  0
   40.8902   25.2066   41.7114 H   0  0  0  0  0  0  0  0  0  0  0  0
  1  8  1  0
  1  4  1  0
  1  9  1  0
  3  2  2  0
  4  3  1  0
  5  6  1  0
  5  4  2  0
  6  7  2  0
  7  2  1  0
 10 11  1  0
 10  1  1  0
  2 12  1  0
  3 13  1  0
  6 14  1  0
  8 15  1  0
  8 16  1  0
  8 17  1  0
  9 18  1  0
  9 19  1  0
  9 20  1  0
 10 21  1  0
 10 22  1  0
 11 23  1  0
M  ISO  8  12  14  13  14  14  14  15   8  16   8  17   8  18   8  19   8
M  ISO  4  20   8  21   8  22   8  23   3
M  END
>  <minimizedAffinity>  (1) 
-3.29339194

>  <minimizedRMSD>  (1) 
0.199638277

$$$$
