
     RDKit          3D

 23 24  0  0  0  0  0  0  0  0999 V2000
   37.5060   30.1300   41.7450 C   0  0  0  0  0  0  0  0  0  0  0  0
   37.6150   28.7290   41.8570 C   0  0  0  0  0  0  0  0  0  0  0  0
   36.6250   27.9340   41.2620 C   0  0  0  0  0  0  0  0  0  0  0  0
   35.6120   28.5730   40.6070 N   0  0  0  0  0  0  0  0  0  0  0  0
   35.5360   29.9120   40.5170 C   0  0  0  0  0  0  0  0  0  0  0  0
   36.4820   30.6830   41.0850 N   0  0  0  0  0  0  0  0  0  0  0  0
   38.6730   28.1240   42.5400 N   0  0  0  0  0  0  0  0  0  0  0  0
   38.5230   27.3920   43.7720 C   0  0  0  0  0  0  0  0  0  0  0  0
   39.5670   26.2830   43.7590 C   0  0  0  0  0  0  0  0  0  0  0  0
   40.8640   26.7550   43.6740 O   0  0  0  0  0  0  0  0  0  0  0  0
   40.9550   28.0460   43.2010 C   0  0  0  0  0  0  0  0  0  0  0  0
   40.0080   28.2210   42.0060 C   0  0  0  0  0  0  0  0  0  0  0  0
   38.2699   30.7745   42.2045 H   0  0  0  0  0  0  0  0  0  0  0  0
   36.6632   26.8362   41.3208 H   0  0  0  0  0  0  0  0  0  0  0  0
   34.6986   30.3789   39.9778 H   0  0  0  0  0  0  0  0  0  0  0  0
   38.6904   28.0588   44.6307 H   0  0  0  0  0  0  0  0  0  0  0  0
   37.5086   26.9761   43.8613 H   0  0  0  0  0  0  0  0  0  0  0  0
   39.4678   25.6990   44.6859 H   0  0  0  0  0  0  0  0  0  0  0  0
   39.3828   25.6720   42.8630 H   0  0  0  0  0  0  0  0  0  0  0  0
   40.6730   28.7494   43.9984 H   0  0  0  0  0  0  0  0  0  0  0  0
   41.9884   28.2478   42.8825 H   0  0  0  0  0  0  0  0  0  0  0  0
   40.1807   27.4292   41.2622 H   0  0  0  0  0  0  0  0  0  0  0  0
   40.1708   29.1842   41.5004 H   0  0  0  0  0  0  0  0  0  0  0  0
  1  2  2  0
  2  7  1  0
  3  2  1  0
  4  3  2  0
  5  4  1  0
  5  6  2  0
  6  1  1  0
  7  8  1  0
  9  8  1  0
 10  9  1  0
 11 10  1  0
 12  7  1  0
 12 11  1  0
  1 13  1  0
  3 14  1  0
  5 15  1  0
  8 16  1  0
  8 17  1  0
  9 18  1  0
  9 19  1  0
 11 20  1  0
 11 21  1  0
 12 22  1  0
 12 23  1  0
M  ISO  8  13  14  14  14  15  14  16  13  17  13  18  13  19  13  20  13
M  ISO  3  21  13  22  13  23  13
M  END
>  <minimizedAffinity>  (1) 
-3.27818656

>  <minimizedRMSD>  (1) 
2.83495283

$$$$
