
     RDKit          3D

 32 33  0  0  0  0  0  0  0  0999 V2000
   36.4080   29.5700   40.5440 C   0  0  0  0  0  0  0  0  0  0  0  0
   37.9460   27.9480   43.6230 C   0  0  0  0  0  0  0  0  0  0  0  0
   37.3720   28.8960   42.7860 C   0  0  0  0  0  0  0  0  0  0  0  0
   37.0230   28.6090   41.4790 C   0  0  0  0  0  0  0  0  0  0  0  0
   37.2800   27.3420   41.0640 N   0  0  0  0  0  0  0  0  0  0  0  0
   37.8390   26.4130   41.8700 C   0  0  0  0  0  0  0  0  0  0  0  0
   38.1660   26.7140   43.1300 N   0  0  0  0  0  0  0  0  0  0  0  0
   34.9810   29.0530   40.3450 C   0  0  0  0  0  0  0  0  0  0  0  0
   37.1580   29.5670   39.2200 C   0  0  0  0  0  0  0  0  0  0  0  0
   36.3260   30.9480   41.0970 C   0  0  0  0  0  0  0  0  0  0  0  0
   37.3860   31.8590   40.6420 C   0  0  0  0  0  0  0  0  0  0  0  0
   37.3400   32.9370   39.7800 C   0  0  0  0  0  0  0  0  0  0  0  0
   38.5880   33.5180   39.6390 C   0  0  0  0  0  0  0  0  0  0  0  0
   39.3840   32.7730   40.4300 N   0  0  0  0  0  0  0  0  0  0  0  0
   38.6730   31.8140   41.0060 N   0  0  0  0  0  0  0  0  0  0  0  0
   40.8090   32.9730   40.6350 C   0  0  0  0  0  0  0  0  0  0  0  0
   41.1500   34.2630   40.9090 F   0  0  0  0  0  0  0  0  0  0  0  0
   41.5390   32.5720   39.5270 F   0  0  0  0  0  0  0  0  0  0  0  0
   41.2720   32.1740   41.6840 F   0  0  0  0  0  0  0  0  0  0  0  0
   38.2137   28.1981   44.6602 H   0  0  0  0  0  0  0  0  0  0  0  0
   37.1890   29.9083   43.1754 H   0  0  0  0  0  0  0  0  0  0  0  0
   38.0266   25.3996   41.4854 H   0  0  0  0  0  0  0  0  0  0  0  0
   34.5124   28.8832   41.3256 H   0  0  0  0  0  0  0  0  0  0  0  0
   34.3966   29.7966   39.7832 H   0  0  0  0  0  0  0  0  0  0  0  0
   35.0085   28.1077   39.7832 H   0  0  0  0  0  0  0  0  0  0  0  0
   38.2411   29.5627   39.4121 H   0  0  0  0  0  0  0  0  0  0  0  0
   36.8839   28.6699   38.6454 H   0  0  0  0  0  0  0  0  0  0  0  0
   36.8911   30.4662   38.6454 H   0  0  0  0  0  0  0  0  0  0  0  0
   35.3566   31.3773   40.8036 H   0  0  0  0  0  0  0  0  0  0  0  0
   36.4466   30.8522   42.1862 H   0  0  0  0  0  0  0  0  0  0  0  0
   36.4299   33.2881   39.2717 H   0  0  0  0  0  0  0  0  0  0  0  0
   38.8656   34.3866   39.0238 H   0  0  0  0  0  0  0  0  0  0  0  0
  1 10  1  0
  1  4  1  0
  3  2  2  0
  4  3  1  0
  5  4  2  0
  5  6  1  0
  6  7  2  0
  7  2  1  0
  8  1  1  0
  9  1  1  0
 11 15  2  0
 11 10  1  0
 12 11  1  0
 13 12  2  0
 13 14  1  0
 14 16  1  0
 14 15  1  0
 16 17  1  0
 16 19  1  0
 18 16  1  0
  2 20  1  0
  3 21  1  0
  6 22  1  0
  8 23  1  0
  8 24  1  0
  8 25  1  0
  9 26  1  0
  9 27  1  0
  9 28  1  0
 10 29  1  0
 10 30  1  0
 12 31  1  0
 13 32  1  0
M  ISO  8  20  14  21  14  22  14  23   8  24   8  25   8  26   8  27   8
M  ISO  5  28   8  29   8  30   8  31  14  32  14
M  END
>  <minimizedAffinity>  (1) 
-4.72880459

>  <minimizedRMSD>  (1) 
6.81530237

$$$$
