
     RDKit          3D

 35 36  0  0  0  0  0  0  0  0999 V2000
   36.0070   29.4180   40.1880 C   0  0  0  0  0  0  0  0  0  0  0  0
   36.9480   26.9440   42.8920 C   0  0  0  0  0  0  0  0  0  0  0  0
   36.5580   28.1030   42.2330 C   0  0  0  0  0  0  0  0  0  0  0  0
   36.4180   28.1990   40.8730 C   0  0  0  0  0  0  0  0  0  0  0  0
   36.6870   27.0720   40.1840 N   0  0  0  0  0  0  0  0  0  0  0  0
   37.0690   25.9260   40.7870 C   0  0  0  0  0  0  0  0  0  0  0  0
   37.1970   25.8600   42.1140 N   0  0  0  0  0  0  0  0  0  0  0  0
   34.5300   29.1830   39.8230 C   0  0  0  0  0  0  0  0  0  0  0  0
   36.7950   29.5700   38.8800 C   0  0  0  0  0  0  0  0  0  0  0  0
   36.0910   30.6630   40.9740 C   0  0  0  0  0  0  0  0  0  0  0  0
   37.3730   31.3930   40.8310 C   0  0  0  0  0  0  0  0  0  0  0  0
   37.6280   32.6550   40.3210 C   0  0  0  0  0  0  0  0  0  0  0  0
   38.9700   32.9550   40.3720 C   0  0  0  0  0  0  0  0  0  0  0  0
   39.5190   31.8650   40.9170 N   0  0  0  0  0  0  0  0  0  0  0  0
   38.5880   30.9580   41.1830 N   0  0  0  0  0  0  0  0  0  0  0  0
   40.9380   31.6690   41.1920 C   0  0  0  0  0  0  0  0  0  0  0  0
   41.5650   32.7730   41.6860 F   0  0  0  0  0  0  0  0  0  0  0  0
   41.6170   31.2730   40.0430 F   0  0  0  0  0  0  0  0  0  0  0  0
   41.1300   30.6300   42.1010 F   0  0  0  0  0  0  0  0  0  0  0  0
   39.6020   34.1900   39.9240 C   0  0  0  0  0  0  0  0  0  0  0  0
   39.3740   35.3080   40.4450 O   0  0  0  0  0  0  0  0  0  0  0  0
   40.5000   34.1530   38.8710 O   0  0  0  0  0  0  0  0  0  0  0  0
   37.0497   26.9067   43.9867 H   0  0  0  0  0  0  0  0  0  0  0  0
   36.3491   28.9971   42.8388 H   0  0  0  0  0  0  0  0  0  0  0  0
   37.2775   25.0349   40.1766 H   0  0  0  0  0  0  0  0  0  0  0  0
   33.9354   29.0884   40.7436 H   0  0  0  0  0  0  0  0  0  0  0  0
   34.1585   30.0333   39.2323 H   0  0  0  0  0  0  0  0  0  0  0  0
   34.4408   28.2594   39.2323 H   0  0  0  0  0  0  0  0  0  0  0  0
   37.8513   29.7737   39.1098 H   0  0  0  0  0  0  0  0  0  0  0  0
   36.7194   28.6407   38.2963 H   0  0  0  0  0  0  0  0  0  0  0  0
   36.3792   30.4045   38.2963 H   0  0  0  0  0  0  0  0  0  0  0  0
   35.2779   31.3294   40.6505 H   0  0  0  0  0  0  0  0  0  0  0  0
   36.0122   30.3719   42.0319 H   0  0  0  0  0  0  0  0  0  0  0  0
   36.8560   33.3315   39.9255 H   0  0  0  0  0  0  0  0  0  0  0  0
   40.9336   34.9871   38.5606 H   0  0  0  0  0  0  0  0  0  0  0  0
  1  4  1  0
  1 10  1  0
  3  2  2  0
  4  3  1  0
  5  6  1  0
  5  4  2  0
  6  7  2  0
  7  2  1  0
  8  1  1  0
  9  1  1  0
 11 10  1  0
 11 15  2  0
 12 13  2  0
 12 11  1  0
 13 14  1  0
 14 15  1  0
 14 16  1  0
 16 17  1  0
 16 19  1  0
 18 16  1  0
 20 13  1  0
 20 21  2  0
 22 20  1  0
  2 23  1  0
  3 24  1  0
  6 25  1  0
  8 26  1  0
  8 27  1  0
  8 28  1  0
  9 29  1  0
  9 30  1  0
  9 31  1  0
 10 32  1  0
 10 33  1  0
 12 34  1  0
 22 35  1  0
M  ISO  8  23  14  24  14  25  14  26   8  27   8  28   8  29   8  30   8
M  ISO  5  31   8  32   8  33   8  34  14  35   3
M  END
>  <minimizedAffinity>  (1) 
-5.19018316

>  <minimizedRMSD>  (1) 
1.21089888

$$$$
