
     RDKit          3D

 34 35  0  0  0  0  0  0  0  0999 V2000
   36.3410   29.6400   40.4490 C   0  0  0  0  0  0  0  0  0  0  0  0
   37.6660   27.7820   43.4670 C   0  0  0  0  0  0  0  0  0  0  0  0
   37.1960   28.7860   42.6300 C   0  0  0  0  0  0  0  0  0  0  0  0
   36.8370   28.5850   41.3230 C   0  0  0  0  0  0  0  0  0  0  0  0
   36.9650   27.3200   40.8750 N   0  0  0  0  0  0  0  0  0  0  0  0
   37.4170   26.3190   41.6590 C   0  0  0  0  0  0  0  0  0  0  0  0
   37.7620   26.5410   42.9290 N   0  0  0  0  0  0  0  0  0  0  0  0
   34.8990   29.2140   40.1060 C   0  0  0  0  0  0  0  0  0  0  0  0
   37.1390   29.6710   39.1420 C   0  0  0  0  0  0  0  0  0  0  0  0
   36.2880   30.9940   41.0300 C   0  0  0  0  0  0  0  0  0  0  0  0
   37.4760   31.8280   40.7440 C   0  0  0  0  0  0  0  0  0  0  0  0
   37.5720   33.0440   40.0750 C   0  0  0  0  0  0  0  0  0  0  0  0
   38.8730   33.4840   40.0290 C   0  0  0  0  0  0  0  0  0  0  0  0
   39.5580   32.5300   40.6710 N   0  0  0  0  0  0  0  0  0  0  0  0
   38.7490   31.5730   41.0840 N   0  0  0  0  0  0  0  0  0  0  0  0
   40.9990   32.5270   40.8950 C   0  0  0  0  0  0  0  0  0  0  0  0
   41.5120   33.7640   41.1780 F   0  0  0  0  0  0  0  0  0  0  0  0
   41.6820   32.0280   39.8000 F   0  0  0  0  0  0  0  0  0  0  0  0
   41.3270   31.6780   41.9500 F   0  0  0  0  0  0  0  0  0  0  0  0
   39.3350   34.6760   39.4280 N   0  0  0  0  0  0  0  0  0  0  0  0
   37.9457   27.9831   44.5117 H   0  0  0  0  0  0  0  0  0  0  0  0
   37.1067   29.8025   43.0407 H   0  0  0  0  0  0  0  0  0  0  0  0
   37.5025   25.3036   41.2446 H   0  0  0  0  0  0  0  0  0  0  0  0
   34.3350   29.0474   41.0356 H   0  0  0  0  0  0  0  0  0  0  0  0
   34.4123   30.0067   39.5189 H   0  0  0  0  0  0  0  0  0  0  0  0
   34.9212   28.2840   39.5189 H   0  0  0  0  0  0  0  0  0  0  0  0
   38.2143   29.7128   39.3699 H   0  0  0  0  0  0  0  0  0  0  0  0
   36.9227   28.7638   38.5587 H   0  0  0  0  0  0  0  0  0  0  0  0
   36.8530   30.5587   38.5587 H   0  0  0  0  0  0  0  0  0  0  0  0
   35.4023   31.5070   40.6271 H   0  0  0  0  0  0  0  0  0  0  0  0
   36.2493   30.8661   42.1219 H   0  0  0  0  0  0  0  0  0  0  0  0
   36.7177   33.5831   39.6396 H   0  0  0  0  0  0  0  0  0  0  0  0
   40.3378   34.9098   39.4520 H   0  0  0  0  0  0  0  0  0  0  0  0
   38.6690   35.3114   38.9657 H   0  0  0  0  0  0  0  0  0  0  0  0
  1 10  1  0
  1  4  1  0
  3  2  2  0
  4  3  1  0
  5  4  2  0
  5  6  1  0
  6  7  2  0
  7  2  1  0
  8  1  1  0
  9  1  1  0
 11 10  1  0
 11 15  2  0
 12 11  1  0
 13 12  2  0
 13 14  1  0
 14 16  1  0
 14 15  1  0
 16 17  1  0
 16 19  1  0
 18 16  1  0
 20 13  1  0
  2 21  1  0
  3 22  1  0
  6 23  1  0
  8 24  1  0
  8 25  1  0
  8 26  1  0
  9 27  1  0
  9 28  1  0
  9 29  1  0
 10 30  1  0
 10 31  1  0
 12 32  1  0
 20 33  1  0
 20 34  1  0
M  ISO  8  21  14  22  14  23  14  24   8  25   8  26   8  27   8  28   8
M  ISO  4  29   8  30   8  31   8  32  14
M  END
>  <minimizedAffinity>  (1) 
-5.05706453

>  <minimizedRMSD>  (1) 
0.423266441

$$$$
