
     RDKit          3D

 41 42  0  0  0  0  0  0  0  0999 V2000
   36.0450   29.4060   40.2600 C   0  0  0  0  0  0  0  0  0  0  0  0
   36.8210   26.9020   42.9910 C   0  0  0  0  0  0  0  0  0  0  0  0
   36.4630   28.0690   42.3230 C   0  0  0  0  0  0  0  0  0  0  0  0
   36.4250   28.1830   40.9580 C   0  0  0  0  0  0  0  0  0  0  0  0
   36.7650   27.0720   40.2740 N   0  0  0  0  0  0  0  0  0  0  0  0
   37.1180   25.9230   40.8880 C   0  0  0  0  0  0  0  0  0  0  0  0
   37.1460   25.8360   42.2180 N   0  0  0  0  0  0  0  0  0  0  0  0
   34.5550   29.2080   39.9200 C   0  0  0  0  0  0  0  0  0  0  0  0
   36.8130   29.5260   38.9390 C   0  0  0  0  0  0  0  0  0  0  0  0
   36.1770   30.6570   41.0290 C   0  0  0  0  0  0  0  0  0  0  0  0
   37.5300   31.2480   41.0070 C   0  0  0  0  0  0  0  0  0  0  0  0
   37.9680   32.4690   40.5050 C   0  0  0  0  0  0  0  0  0  0  0  0
   39.3210   32.6360   40.6870 C   0  0  0  0  0  0  0  0  0  0  0  0
   39.7010   31.4970   41.3080 N   0  0  0  0  0  0  0  0  0  0  0  0
   38.6560   30.7070   41.4860 N   0  0  0  0  0  0  0  0  0  0  0  0
   41.0540   31.1740   41.7250 C   0  0  0  0  0  0  0  0  0  0  0  0
   41.6410   32.1300   42.4950 F   0  0  0  0  0  0  0  0  0  0  0  0
   41.8790   30.9490   40.6220 F   0  0  0  0  0  0  0  0  0  0  0  0
   41.0700   29.9820   42.4480 F   0  0  0  0  0  0  0  0  0  0  0  0
   40.1430   33.7960   40.2880 C   0  0  0  0  0  0  0  0  0  0  0  0
   39.3560   35.0870   40.2990 C   0  0  0  0  0  0  0  0  0  0  0  0
   40.8040   33.6380   38.9600 C   0  0  0  0  0  0  0  0  0  0  0  0
   36.8395   26.8469   44.0895 H   0  0  0  0  0  0  0  0  0  0  0  0
   36.1953   28.9500   42.9248 H   0  0  0  0  0  0  0  0  0  0  0  0
   37.3866   25.0452   40.2819 H   0  0  0  0  0  0  0  0  0  0  0  0
   33.9737   29.1307   40.8506 H   0  0  0  0  0  0  0  0  0  0  0  0
   34.1956   30.0663   39.3333 H   0  0  0  0  0  0  0  0  0  0  0  0
   34.4322   28.2856   39.3333 H   0  0  0  0  0  0  0  0  0  0  0  0
   37.8798   29.6927   39.1489 H   0  0  0  0  0  0  0  0  0  0  0  0
   36.6938   28.5983   38.3600 H   0  0  0  0  0  0  0  0  0  0  0  0
   36.4165   30.3731   38.3600 H   0  0  0  0  0  0  0  0  0  0  0  0
   35.4736   31.3928   40.6120 H   0  0  0  0  0  0  0  0  0  0  0  0
   35.9624   30.4043   42.0778 H   0  0  0  0  0  0  0  0  0  0  0  0
   37.3133   33.2094   40.0222 H   0  0  0  0  0  0  0  0  0  0  0  0
   40.9333   33.8429   41.0517 H   0  0  0  0  0  0  0  0  0  0  0  0
   39.1691   35.3936   41.3387 H   0  0  0  0  0  0  0  0  0  0  0  0
   39.9301   35.8708   39.7831 H   0  0  0  0  0  0  0  0  0  0  0  0
   38.3963   34.9358   39.7831 H   0  0  0  0  0  0  0  0  0  0  0  0
   41.8644   33.3845   39.1061 H   0  0  0  0  0  0  0  0  0  0  0  0
   40.3087   32.8329   38.3974 H   0  0  0  0  0  0  0  0  0  0  0  0
   40.7263   34.5800   38.3974 H   0  0  0  0  0  0  0  0  0  0  0  0
  1  4  1  0
  1 10  1  0
  3  2  2  0
  4  3  1  0
  5  6  1  0
  5  4  2  0
  6  7  2  0
  7  2  1  0
  8  1  1  0
  9  1  1  0
 11 10  1  0
 11 15  2  0
 12 13  2  0
 12 11  1  0
 13 14  1  0
 14 15  1  0
 14 16  1  0
 16 19  1  0
 16 17  1  0
 18 16  1  0
 20 21  1  0
 20 13  1  0
 22 20  1  0
  2 23  1  0
  3 24  1  0
  6 25  1  0
  8 26  1  0
  8 27  1  0
  8 28  1  0
  9 29  1  0
  9 30  1  0
  9 31  1  0
 10 32  1  0
 10 33  1  0
 12 34  1  0
 20 35  1  0
 21 36  1  0
 21 37  1  0
 21 38  1  0
 22 39  1  0
 22 40  1  0
 22 41  1  0
M  ISO  8  23  14  24  14  25  14  26   8  27   8  28   8  29   8  30   8
M  ISO  8  31   8  32   8  33   8  34  14  35   8  36   8  37   8  38   8
M  ISO  3  39   8  40   8  41   8
M  END
>  <minimizedAffinity>  (1) 
-5.0093646

>  <minimizedRMSD>  (1) 
1.5845114

$$$$
