
     RDKit          3D

 34 35  0  0  0  0  0  0  0  0999 V2000
   36.0570   29.4790   40.2000 C   0  0  0  0  0  0  0  0  0  0  0  0
   37.0760   27.0900   42.9500 C   0  0  0  0  0  0  0  0  0  0  0  0
   36.6720   28.2300   42.2630 C   0  0  0  0  0  0  0  0  0  0  0  0
   36.4840   28.2790   40.9060 C   0  0  0  0  0  0  0  0  0  0  0  0
   36.7190   27.1260   40.2480 N   0  0  0  0  0  0  0  0  0  0  0  0
   37.1120   26.0000   40.8770 C   0  0  0  0  0  0  0  0  0  0  0  0
   37.2890   25.9770   42.2010 N   0  0  0  0  0  0  0  0  0  0  0  0
   34.5850   29.2100   39.8310 C   0  0  0  0  0  0  0  0  0  0  0  0
   36.8300   29.6270   38.8870 C   0  0  0  0  0  0  0  0  0  0  0  0
   36.1220   30.7400   40.9560 C   0  0  0  0  0  0  0  0  0  0  0  0
   37.3710   31.5130   40.7610 C   0  0  0  0  0  0  0  0  0  0  0  0
   37.5590   32.8130   40.3310 C   0  0  0  0  0  0  0  0  0  0  0  0
   38.8890   33.1450   40.2900 C   0  0  0  0  0  0  0  0  0  0  0  0
   39.5050   32.0330   40.7000 N   0  0  0  0  0  0  0  0  0  0  0  0
   38.6230   31.0820   40.9760 N   0  0  0  0  0  0  0  0  0  0  0  0
   40.9500   31.8520   40.8400 C   0  0  0  0  0  0  0  0  0  0  0  0
   41.5500   32.8170   41.6080 F   0  0  0  0  0  0  0  0  0  0  0  0
   41.5770   31.8330   39.6120 F   0  0  0  0  0  0  0  0  0  0  0  0
   41.2410   30.6210   41.4250 F   0  0  0  0  0  0  0  0  0  0  0  0
   39.4550   34.4140   39.8890 C   0  0  0  0  0  0  0  0  0  0  0  0
   38.8830   35.5180   40.0560 O   0  0  0  0  0  0  0  0  0  0  0  0
   37.2155   27.0898   44.0411 H   0  0  0  0  0  0  0  0  0  0  0  0
   36.4926   29.1471   42.8433 H   0  0  0  0  0  0  0  0  0  0  0  0
   37.2896   25.0862   40.2910 H   0  0  0  0  0  0  0  0  0  0  0  0
   33.9905   29.1014   40.7501 H   0  0  0  0  0  0  0  0  0  0  0  0
   34.1955   30.0518   39.2397 H   0  0  0  0  0  0  0  0  0  0  0  0
   34.5184   28.2848   39.2397 H   0  0  0  0  0  0  0  0  0  0  0  0
   37.8888   29.8297   39.1057 H   0  0  0  0  0  0  0  0  0  0  0  0
   36.7472   28.6967   38.3059 H   0  0  0  0  0  0  0  0  0  0  0  0
   36.4094   30.4609   38.3059 H   0  0  0  0  0  0  0  0  0  0  0  0
   35.2762   31.3706   40.6446 H   0  0  0  0  0  0  0  0  0  0  0  0
   36.0878   30.4668   42.0210 H   0  0  0  0  0  0  0  0  0  0  0  0
   36.7426   33.4969   40.0557 H   0  0  0  0  0  0  0  0  0  0  0  0
   40.4450   34.4110   39.4095 H   0  0  0  0  0  0  0  0  0  0  0  0
  1  4  1  0
  1 10  1  0
  3  2  2  0
  4  3  1  0
  5  6  1  0
  5  4  2  0
  6  7  2  0
  7  2  1  0
  8  1  1  0
  9  1  1  0
 11 10  1  0
 11 15  2  0
 12 11  1  0
 13 12  2  0
 13 14  1  0
 14 16  1  0
 14 15  1  0
 16 19  1  0
 16 17  1  0
 18 16  1  0
 20 21  2  0
 20 13  1  0
  2 22  1  0
  3 23  1  0
  6 24  1  0
  8 25  1  0
  8 26  1  0
  8 27  1  0
  9 28  1  0
  9 29  1  0
  9 30  1  0
 10 31  1  0
 10 32  1  0
 12 33  1  0
 20 34  1  0
M  ISO  8  22  14  23  14  24  14  25   8  26   8  27   8  28   8  29   8
M  ISO  5  30   8  31   8  32   8  33  14  34   6
M  END
>  <minimizedAffinity>  (1) 
-4.88724995

>  <minimizedRMSD>  (1) 
1.01701331

$$$$
