
     RDKit          3D

 33 34  0  0  0  0  0  0  0  0999 V2000
   35.9800   29.4720   40.0710 C   0  0  0  0  0  0  0  0  0  0  0  0
   36.9710   26.9400   42.7050 C   0  0  0  0  0  0  0  0  0  0  0  0
   36.5520   28.1090   42.0800 C   0  0  0  0  0  0  0  0  0  0  0  0
   36.4220   28.2440   40.7220 C   0  0  0  0  0  0  0  0  0  0  0  0
   36.7310   27.1490   40.0000 N   0  0  0  0  0  0  0  0  0  0  0  0
   37.1410   25.9960   40.5710 C   0  0  0  0  0  0  0  0  0  0  0  0
   37.2590   25.8900   41.8960 N   0  0  0  0  0  0  0  0  0  0  0  0
   34.4910   29.2220   39.7530 C   0  0  0  0  0  0  0  0  0  0  0  0
   36.7190   29.6660   38.7440 C   0  0  0  0  0  0  0  0  0  0  0  0
   36.0720   30.7020   40.8770 C   0  0  0  0  0  0  0  0  0  0  0  0
   37.3510   31.4290   40.7390 C   0  0  0  0  0  0  0  0  0  0  0  0
   37.6000   32.7470   40.3680 C   0  0  0  0  0  0  0  0  0  0  0  0
   38.9470   33.0200   40.3660 C   0  0  0  0  0  0  0  0  0  0  0  0
   39.5100   31.8650   40.7350 N   0  0  0  0  0  0  0  0  0  0  0  0
   38.5840   30.9460   40.9500 N   0  0  0  0  0  0  0  0  0  0  0  0
   40.9390   31.6250   40.8870 C   0  0  0  0  0  0  0  0  0  0  0  0
   41.5450   32.4500   41.7820 F   0  0  0  0  0  0  0  0  0  0  0  0
   41.6000   31.7640   39.6640 F   0  0  0  0  0  0  0  0  0  0  0  0
   41.1820   30.3100   41.2740 F   0  0  0  0  0  0  0  0  0  0  0  0
   39.7390   34.5750   39.9570 S   0  0  0  0  0  0  0  0  0  0  0  0
   37.0641   26.8702   43.7988 H   0  0  0  0  0  0  0  0  0  0  0  0
   36.3107   28.9763   42.7121 H   0  0  0  0  0  0  0  0  0  0  0  0
   37.3812   25.1315   39.9346 H   0  0  0  0  0  0  0  0  0  0  0  0
   33.9264   29.1272   40.6923 H   0  0  0  0  0  0  0  0  0  0  0  0
   34.0938   30.0660   39.1700 H   0  0  0  0  0  0  0  0  0  0  0  0
   34.3913   28.2945   39.1700 H   0  0  0  0  0  0  0  0  0  0  0  0
   37.7653   29.9407   38.9437 H   0  0  0  0  0  0  0  0  0  0  0  0
   36.6894   28.7296   38.1675 H   0  0  0  0  0  0  0  0  0  0  0  0
   36.2333   30.4671   38.1675 H   0  0  0  0  0  0  0  0  0  0  0  0
   35.2586   31.3759   40.5701 H   0  0  0  0  0  0  0  0  0  0  0  0
   35.9991   30.3929   41.9302 H   0  0  0  0  0  0  0  0  0  0  0  0
   36.8187   33.4769   40.1094 H   0  0  0  0  0  0  0  0  0  0  0  0
   40.0746   35.2338   41.1104 H   0  0  0  0  0  0  0  0  0  0  0  0
  1  4  1  0
  1 10  1  0
  3  2  2  0
  4  3  1  0
  5  6  1  0
  5  4  2  0
  6  7  2  0
  7  2  1  0
  8  1  1  0
  9  1  1  0
 11 10  1  0
 11 15  2  0
 12 11  1  0
 13 12  2  0
 13 14  1  0
 14 16  1  0
 14 15  1  0
 16 19  1  0
 16 17  1  0
 18 16  1  0
 20 13  1  0
  2 21  1  0
  3 22  1  0
  6 23  1  0
  8 24  1  0
  8 25  1  0
  8 26  1  0
  9 27  1  0
  9 28  1  0
  9 29  1  0
 10 30  1  0
 10 31  1  0
 12 32  1  0
 20 33  1  0
M  ISO  8  21  14  22  14  23  14  24   8  25   8  26   8  27   8  28   8
M  ISO  5  29   8  30   8  31   8  32  14  33  11
M  END
>  <minimizedAffinity>  (1) 
-4.70123291

>  <minimizedRMSD>  (1) 
1.22980213

$$$$
