
     RDKit          3D

 16 16  0  0  0  0  0  0  0  0999 V2000
   38.1740   29.6350   42.5910 C   0  0  0  0  0  0  0  0  0  0  0  0
   37.2980   28.5320   42.7610 C   0  0  0  0  0  0  0  0  0  0  0  0
   36.3760   28.3100   41.7380 C   0  0  0  0  0  0  0  0  0  0  0  0
   36.3630   29.1380   40.6590 N   0  0  0  0  0  0  0  0  0  0  0  0
   37.2170   30.1750   40.5410 C   0  0  0  0  0  0  0  0  0  0  0  0
   38.1270   30.4240   41.5120 N   0  0  0  0  0  0  0  0  0  0  0  0
   37.4300   27.7270   43.9810 C   0  0  0  0  0  0  0  0  0  0  0  0
   36.4850   28.1300   45.0900 C   0  0  0  0  0  0  0  0  0  0  0  0
   38.9172   29.8486   43.3733 H   0  0  0  0  0  0  0  0  0  0  0  0
   35.6657   27.4726   41.8034 H   0  0  0  0  0  0  0  0  0  0  0  0
   37.1740   30.8214   39.6520 H   0  0  0  0  0  0  0  0  0  0  0  0
   37.2335   26.6756   43.7244 H   0  0  0  0  0  0  0  0  0  0  0  0
   38.4505   27.8877   44.3589 H   0  0  0  0  0  0  0  0  0  0  0  0
   36.9556   27.9293   46.0638 H   0  0  0  0  0  0  0  0  0  0  0  0
   36.2582   29.2031   45.0066 H   0  0  0  0  0  0  0  0  0  0  0  0
   35.5536   27.5508   45.0066 H   0  0  0  0  0  0  0  0  0  0  0  0
  1  2  2  0
  2  7  1  0
  3  2  1  0
  4  3  2  0
  5  4  1  0
  5  6  2  0
  6  1  1  0
  7  8  1  0
  1  9  1  0
  3 10  1  0
  5 11  1  0
  7 12  1  0
  7 13  1  0
  8 14  1  0
  8 15  1  0
  8 16  1  0
M  ISO  8   9  14  10  14  11  14  12   8  13   8  14   8  15   8  16   8
M  END
>  <minimizedAffinity>  (1) 
-3.01766038

>  <minimizedRMSD>  (1) 
1.27698529

$$$$
