
     RDKit          3D

 39 41  0  0  0  0  0  0  0  0999 V2000
   36.0700   29.5090   40.2030 C   0  0  0  0  0  0  0  0  0  0  0  0
   37.0980   27.1230   42.9550 C   0  0  0  0  0  0  0  0  0  0  0  0
   36.6930   28.2630   42.2670 C   0  0  0  0  0  0  0  0  0  0  0  0
   36.4980   28.3100   40.9120 C   0  0  0  0  0  0  0  0  0  0  0  0
   36.7280   27.1550   40.2580 N   0  0  0  0  0  0  0  0  0  0  0  0
   37.1220   26.0300   40.8890 C   0  0  0  0  0  0  0  0  0  0  0  0
   37.3040   26.0090   42.2070 N   0  0  0  0  0  0  0  0  0  0  0  0
   34.5850   29.2520   39.8740 C   0  0  0  0  0  0  0  0  0  0  0  0
   36.8260   29.6410   38.8780 C   0  0  0  0  0  0  0  0  0  0  0  0
   36.1570   30.7740   40.9510 C   0  0  0  0  0  0  0  0  0  0  0  0
   37.4120   31.5260   40.7420 C   0  0  0  0  0  0  0  0  0  0  0  0
   37.6120   32.8300   40.3010 C   0  0  0  0  0  0  0  0  0  0  0  0
   38.9510   33.1440   40.2460 C   0  0  0  0  0  0  0  0  0  0  0  0
   39.5590   32.0130   40.6610 N   0  0  0  0  0  0  0  0  0  0  0  0
   38.6600   31.0850   40.9440 N   0  0  0  0  0  0  0  0  0  0  0  0
   40.9950   31.8250   40.7810 C   0  0  0  0  0  0  0  0  0  0  0  0
   41.5920   32.6350   41.6880 F   0  0  0  0  0  0  0  0  0  0  0  0
   41.6300   32.0310   39.5570 F   0  0  0  0  0  0  0  0  0  0  0  0
   41.2870   30.5060   41.1160 F   0  0  0  0  0  0  0  0  0  0  0  0
   39.5610   34.4230   39.8310 C   0  0  0  0  0  0  0  0  0  0  0  0
   39.9640   35.4060   40.9480 C   0  0  0  0  0  0  0  0  0  0  0  0
   38.8890   35.7180   39.9780 C   0  0  0  0  0  0  0  0  0  0  0  0
   37.2433   27.1245   44.0454 H   0  0  0  0  0  0  0  0  0  0  0  0
   36.5190   29.1817   42.8463 H   0  0  0  0  0  0  0  0  0  0  0  0
   37.2958   25.1146   40.3044 H   0  0  0  0  0  0  0  0  0  0  0  0
   34.0141   29.1532   40.8090 H   0  0  0  0  0  0  0  0  0  0  0  0
   34.1878   30.0948   39.2892 H   0  0  0  0  0  0  0  0  0  0  0  0
   34.4942   28.3248   39.2892 H   0  0  0  0  0  0  0  0  0  0  0  0
   37.8911   29.8270   39.0805 H   0  0  0  0  0  0  0  0  0  0  0  0
   36.7195   28.7107   38.3008 H   0  0  0  0  0  0  0  0  0  0  0  0
   36.4105   30.4802   38.3008 H   0  0  0  0  0  0  0  0  0  0  0  0
   35.3176   31.4141   40.6417 H   0  0  0  0  0  0  0  0  0  0  0  0
   36.1260   30.5086   42.0180 H   0  0  0  0  0  0  0  0  0  0  0  0
   36.8019   33.5231   40.0302 H   0  0  0  0  0  0  0  0  0  0  0  0
   40.0327   33.9168   38.9758 H   0  0  0  0  0  0  0  0  0  0  0  0
   39.7185   35.1854   41.9973 H   0  0  0  0  0  0  0  0  0  0  0  0
   40.8962   35.8893   41.2757 H   0  0  0  0  0  0  0  0  0  0  0  0
   39.0518   36.5011   39.2229 H   0  0  0  0  0  0  0  0  0  0  0  0
   37.8363   36.0197   40.0822 H   0  0  0  0  0  0  0  0  0  0  0  0
  1  4  1  0
  1 10  1  0
  3  2  2  0
  4  3  1  0
  5  6  1  0
  5  4  2  0
  6  7  2  0
  7  2  1  0
  8  1  1  0
  9  1  1  0
 11 15  2  0
 11 10  1  0
 12 11  1  0
 13 12  2  0
 13 14  1  0
 14 16  1  0
 14 15  1  0
 16 19  1  0
 16 17  1  0
 18 16  1  0
 20 22  1  0
 20 13  1  0
 20 21  1  0
 22 21  1  0
  2 23  1  0
  3 24  1  0
  6 25  1  0
  8 26  1  0
  8 27  1  0
  8 28  1  0
  9 29  1  0
  9 30  1  0
  9 31  1  0
 10 32  1  0
 10 33  1  0
 12 34  1  0
 20 35  1  0
 21 36  1  0
 21 37  1  0
 22 38  1  0
 22 39  1  0
M  ISO  8  23  14  24  14  25  14  26   8  27   8  28   8  29   8  30   8
M  ISO  8  31   8  32   8  33   8  34  14  35  13  36  13  37  13  38  13
M  ISO  1  39  13
M  END
>  <minimizedAffinity>  (1) 
-5.17535067

>  <minimizedRMSD>  (1) 
1.12161326

$$$$
