
     RDKit          3D

 50 53  0  0  1  0  0  0  0  0999 V2000
   39.0040   29.3900   41.9640 C   0  0  0  0  0  0  0  0  0  0  0  0
   39.1660   30.7640   41.8060 C   0  0  0  0  0  0  0  0  0  0  0  0
   39.4960   31.0780   40.5010 C   0  0  0  0  0  0  0  0  0  0  0  0
   39.5300   29.8890   39.8840 N   0  0  0  0  0  0  0  0  0  0  0  0
   39.2470   28.9180   40.7280 N   0  0  0  0  0  0  0  0  0  0  0  0
   39.7540   32.4340   39.9460 C   0  0  2  0  0  0  0  0  0  0  0  0
   41.2400   32.7780   39.6410 C   0  0  0  0  0  0  0  0  0  0  0  0
   40.4360   33.4910   40.6700 C   0  0  1  0  0  0  0  0  0  0  0  0
   40.0580   34.8780   40.4700 N   0  0  0  0  0  0  0  0  0  0  0  0
   38.8440   35.1510   39.9590 C   0  0  0  0  0  0  0  0  0  0  0  0
   38.5120   36.4790   39.7810 C   0  0  0  0  0  0  0  0  0  0  0  0
   39.4590   37.4160   40.1450 C   0  0  0  0  0  0  0  0  0  0  0  0
   39.1710   38.7930   39.9830 N   0  0  0  0  0  0  0  0  0  0  0  0
   40.6760   37.0910   40.6590 N   0  0  0  0  0  0  0  0  0  0  0  0
   40.9870   35.7830   40.8280 C   0  0  0  0  0  0  0  0  0  0  0  0
   42.1010   35.4460   41.3000 O   0  0  0  0  0  0  0  0  0  0  0  0
   39.8470   29.6870   38.4910 C   0  0  0  0  0  0  0  0  0  0  0  0
   41.1410   29.9590   38.1550 F   0  0  0  0  0  0  0  0  0  0  0  0
   39.0500   30.4550   37.6670 F   0  0  0  0  0  0  0  0  0  0  0  0
   39.5990   28.3630   38.1160 F   0  0  0  0  0  0  0  0  0  0  0  0
   38.6460   28.6180   43.1790 C   0  0  0  0  0  0  0  0  0  0  0  0
   37.5230   27.6930   42.9950 C   0  0  0  0  0  0  0  0  0  0  0  0
   39.3330   24.4270   42.4990 C   0  0  0  0  0  0  0  0  0  0  0  0
   39.0190   25.7380   42.8440 C   0  0  0  0  0  0  0  0  0  0  0  0
   37.8130   26.3280   42.6220 C   0  0  0  0  0  0  0  0  0  0  0  0
   36.9090   25.5410   42.0280 N   0  0  0  0  0  0  0  0  0  0  0  0
   37.1510   24.2660   41.6690 C   0  0  0  0  0  0  0  0  0  0  0  0
   38.3350   23.7150   41.8970 N   0  0  0  0  0  0  0  0  0  0  0  0
   36.7600   27.5830   44.3400 C   0  0  0  0  0  0  0  0  0  0  0  0
   36.5260   28.3160   41.9970 C   0  0  0  0  0  0  0  0  0  0  0  0
   39.0471   31.5019   42.6130 H   0  0  0  0  0  0  0  0  0  0  0  0
   38.7864   32.4047   39.4236 H   0  0  0  0  0  0  0  0  0  0  0  0
   42.0449   32.0901   39.9392 H   0  0  0  0  0  0  0  0  0  0  0  0
   41.8253   33.0594   38.7532 H   0  0  0  0  0  0  0  0  0  0  0  0
   40.5890   33.6940   41.7402 H   0  0  0  0  0  0  0  0  0  0  0  0
   38.1425   34.3466   39.6931 H   0  0  0  0  0  0  0  0  0  0  0  0
   37.5372   36.7774   39.3679 H   0  0  0  0  0  0  0  0  0  0  0  0
   39.8700   39.5004   40.2512 H   0  0  0  0  0  0  0  0  0  0  0  0
   38.2625   39.0872   39.5970 H   0  0  0  0  0  0  0  0  0  0  0  0
   39.5258   28.0350   43.4888 H   0  0  0  0  0  0  0  0  0  0  0  0
   38.3311   29.3502   43.9370 H   0  0  0  0  0  0  0  0  0  0  0  0
   40.3231   23.9913   42.6986 H   0  0  0  0  0  0  0  0  0  0  0  0
   39.8007   26.3399   43.3305 H   0  0  0  0  0  0  0  0  0  0  0  0
   36.3597   23.6767   41.1825 H   0  0  0  0  0  0  0  0  0  0  0  0
   37.4701   27.6854   45.1738 H   0  0  0  0  0  0  0  0  0  0  0  0
   36.0061   28.3817   44.4003 H   0  0  0  0  0  0  0  0  0  0  0  0
   36.2624   26.6038   44.4003 H   0  0  0  0  0  0  0  0  0  0  0  0
   35.7198   28.8198   42.5503 H   0  0  0  0  0  0  0  0  0  0  0  0
   37.0495   29.0480   41.3644 H   0  0  0  0  0  0  0  0  0  0  0  0
   36.0976   27.5246   41.3644 H   0  0  0  0  0  0  0  0  0  0  0  0
  1 21  1  0
  2  1  1  0
  3  2  2  0
  4  3  1  0
  4  5  1  0
  5  1  2  0
  6  3  1  0
  6  8  1  0
  7  6  1  0
  7  8  1  0
  9  8  1  0
  9 15  1  0
 10  9  1  0
 11 10  2  0
 11 12  1  0
 12 14  2  0
 13 12  1  0
 14 15  1  0
 15 16  2  0
 17  4  1  0
 18 17  1  0
 19 17  1  0
 20 17  1  0
 22 21  1  0
 22 29  1  0
 23 24  2  0
 25 24  1  0
 25 22  1  0
 26 25  2  0
 27 28  2  0
 27 26  1  0
 28 23  1  0
 30 22  1  0
  2 31  1  0
  6 32  1  6
  7 33  1  0
  7 34  1  0
  8 35  1  1
 10 36  1  0
 11 37  1  0
 13 38  1  0
 13 39  1  0
 21 40  1  0
 21 41  1  0
 23 42  1  0
 24 43  1  0
 27 44  1  0
 29 45  1  0
 29 46  1  0
 29 47  1  0
 30 48  1  0
 30 49  1  0
 30 50  1  0
M  ISO  8  31  14  32  13  33  13  34  13  35  13  36  14  37  14  40   8
M  ISO  8  41   8  42  14  43  14  44  14  45   8  46   8  47   8  48   8
M  ISO  2  49   8  50   8
M  END
>  <minimizedAffinity>  (1) 
-5.9909687

>  <minimizedRMSD>  (1) 
3.18416238

$$$$
