
     RDKit          3D

 45 48  0  0  1  0  0  0  0  0999 V2000
   36.1620   29.8150   40.3820 C   0  0  0  0  0  0  0  0  0  0  0  0
   36.9810   30.8210   39.8750 C   0  0  0  0  0  0  0  0  0  0  0  0
   38.1130   30.9840   40.6510 C   0  0  0  0  0  0  0  0  0  0  0  0
   37.9690   30.0760   41.6230 N   0  0  0  0  0  0  0  0  0  0  0  0
   36.8390   29.3970   41.4680 N   0  0  0  0  0  0  0  0  0  0  0  0
   39.2110   31.9580   40.4320 C   0  0  2  0  0  0  0  0  0  0  0  0
   38.9550   33.4050   40.9460 C   0  0  0  0  0  0  0  0  0  0  0  0
   39.1530   33.0690   39.5040 C   0  0  1  0  0  0  0  0  0  0  0  0
   40.3920   33.5630   38.9270 N   0  0  0  0  0  0  0  0  0  0  0  0
   41.0710   34.6500   39.3390 C   0  0  0  0  0  0  0  0  0  0  0  0
   42.1840   34.8120   38.5680 N   0  0  0  0  0  0  0  0  0  0  0  0
   42.1790   33.8040   37.6710 C   0  0  0  0  0  0  0  0  0  0  0  0
   41.0810   33.0510   37.9010 N   0  0  0  0  0  0  0  0  0  0  0  0
   38.9000   29.8630   42.7040 C   0  0  0  0  0  0  0  0  0  0  0  0
   39.3290   31.0060   43.3120 F   0  0  0  0  0  0  0  0  0  0  0  0
   40.0270   29.1810   42.2880 F   0  0  0  0  0  0  0  0  0  0  0  0
   38.3360   29.0610   43.6960 F   0  0  0  0  0  0  0  0  0  0  0  0
   34.8700   29.2960   39.8820 C   0  0  0  0  0  0  0  0  0  0  0  0
   34.9260   28.7380   38.5210 C   0  0  0  0  0  0  0  0  0  0  0  0
   36.5740   25.3840   38.9680 C   0  0  0  0  0  0  0  0  0  0  0  0
   36.2440   26.7330   39.0970 C   0  0  0  0  0  0  0  0  0  0  0  0
   35.2560   27.3360   38.3740 C   0  0  0  0  0  0  0  0  0  0  0  0
   34.6000   26.5420   37.5040 N   0  0  0  0  0  0  0  0  0  0  0  0
   34.8910   25.2350   37.3510 C   0  0  0  0  0  0  0  0  0  0  0  0
   35.8560   24.6590   38.0620 N   0  0  0  0  0  0  0  0  0  0  0  0
   33.5290   28.8740   37.8850 C   0  0  0  0  0  0  0  0  0  0  0  0
   35.8820   29.5920   37.6710 C   0  0  0  0  0  0  0  0  0  0  0  0
   36.7560   31.4097   38.9735 H   0  0  0  0  0  0  0  0  0  0  0  0
   39.9456   31.1491   40.5586 H   0  0  0  0  0  0  0  0  0  0  0  0
   37.9631   33.6979   41.3207 H   0  0  0  0  0  0  0  0  0  0  0  0
   39.4178   34.0847   41.6767 H   0  0  0  0  0  0  0  0  0  0  0  0
   38.5733   33.2231   38.5819 H   0  0  0  0  0  0  0  0  0  0  0  0
   40.7737   35.3066   40.1699 H   0  0  0  0  0  0  0  0  0  0  0  0
   42.9344   33.6268   36.8913 H   0  0  0  0  0  0  0  0  0  0  0  0
   34.5296   28.5039   40.5651 H   0  0  0  0  0  0  0  0  0  0  0  0
   34.1810   30.1526   39.8426 H   0  0  0  0  0  0  0  0  0  0  0  0
   37.3746   24.9265   39.5678 H   0  0  0  0  0  0  0  0  0  0  0  0
   36.8089   27.3419   39.8182 H   0  0  0  0  0  0  0  0  0  0  0  0
   34.3211   24.6350   36.6263 H   0  0  0  0  0  0  0  0  0  0  0  0
   32.7706   28.9478   38.6783 H   0  0  0  0  0  0  0  0  0  0  0  0
   33.4966   29.7795   37.2613 H   0  0  0  0  0  0  0  0  0  0  0  0
   33.3226   27.9917   37.2613 H   0  0  0  0  0  0  0  0  0  0  0  0
   36.5373   30.1774   38.3327 H   0  0  0  0  0  0  0  0  0  0  0  0
   36.4945   28.9349   37.0362 H   0  0  0  0  0  0  0  0  0  0  0  0
   35.2978   30.2745   37.0362 H   0  0  0  0  0  0  0  0  0  0  0  0
  1  5  2  0
  2  1  1  0
  2  3  2  0
  3  4  1  0
  4 14  1  0
  5  4  1  0
  6  3  1  0
  6  7  1  0
  8  6  1  0
  8  7  1  0
  9 10  1  0
  9  8  1  0
 11 10  2  0
 12 13  2  0
 12 11  1  0
 13  9  1  0
 14 15  1  0
 14 17  1  0
 16 14  1  0
 18  1  1  0
 19 18  1  0
 20 21  2  0
 22 19  1  0
 22 21  1  0
 23 22  2  0
 24 23  1  0
 24 25  2  0
 25 20  1  0
 26 19  1  0
 27 19  1  0
  2 28  1  0
  6 29  1  1
  7 30  1  0
  7 31  1  0
  8 32  1  6
 10 33  1  0
 12 34  1  0
 18 35  1  0
 18 36  1  0
 20 37  1  0
 21 38  1  0
 24 39  1  0
 26 40  1  0
 26 41  1  0
 26 42  1  0
 27 43  1  0
 27 44  1  0
 27 45  1  0
M  ISO  8  28  14  29  13  30  13  31  13  32  13  33  14  34  14  35   8
M  ISO  8  36   8  37  14  38  14  39  14  40   8  41   8  42   8  43   8
M  ISO  2  44   8  45   8
M  END
>  <minimizedAffinity>  (1) 
-5.58983135

>  <minimizedRMSD>  (1) 
3.32555032

$$$$
