
     RDKit          3D

 41 43  0  0  1  0  0  0  0  0999 V2000
   36.0340   30.6570   40.5980 C   0  0  0  0  0  0  0  0  0  0  0  0
   37.2540   31.3180   40.0780 C   0  0  0  0  0  0  0  0  0  0  0  0
   37.6910   32.6270   40.2600 C   0  0  0  0  0  0  0  0  0  0  0  0
   38.8810   32.8490   39.5940 C   0  0  0  0  0  0  0  0  0  0  0  0
   39.1520   31.6710   39.0170 N   0  0  0  0  0  0  0  0  0  0  0  0
   38.2130   30.7880   39.2960 N   0  0  0  0  0  0  0  0  0  0  0  0
   39.6600   34.1160   39.5540 C   0  0  2  0  0  0  0  0  0  0  0  0
   40.8030   34.2600   40.5910 C   0  0  0  0  0  0  0  0  0  0  0  0
   39.6010   35.1370   40.5850 C   0  0  1  0  0  0  0  0  0  0  0  0
   39.6710   36.5450   40.1100 C   0  0  0  0  0  0  0  0  0  0  0  0
   40.6590   36.9190   39.4810 O   0  0  0  0  0  0  0  0  0  0  0  0
   40.3130   31.3900   38.2080 C   0  0  0  0  0  0  0  0  0  0  0  0
   41.5030   31.4950   38.8680 F   0  0  0  0  0  0  0  0  0  0  0  0
   40.3900   32.2270   37.1120 F   0  0  0  0  0  0  0  0  0  0  0  0
   40.2450   30.1020   37.6770 F   0  0  0  0  0  0  0  0  0  0  0  0
   35.7600   29.3430   39.9880 C   0  0  0  0  0  0  0  0  0  0  0  0
   37.0370   26.9930   42.6440 C   0  0  0  0  0  0  0  0  0  0  0  0
   36.5330   28.1170   41.9810 C   0  0  0  0  0  0  0  0  0  0  0  0
   36.2810   28.1690   40.6460 C   0  0  0  0  0  0  0  0  0  0  0  0
   36.5540   27.0390   39.9840 N   0  0  0  0  0  0  0  0  0  0  0  0
   37.0370   25.9310   40.5590 C   0  0  0  0  0  0  0  0  0  0  0  0
   37.2760   25.9010   41.8640 N   0  0  0  0  0  0  0  0  0  0  0  0
   34.2280   29.1330   39.9750 C   0  0  0  0  0  0  0  0  0  0  0  0
   36.2000   29.3750   38.5120 C   0  0  0  0  0  0  0  0  0  0  0  0
   36.1514   30.5175   41.6828 H   0  0  0  0  0  0  0  0  0  0  0  0
   35.1852   31.3094   40.3453 H   0  0  0  0  0  0  0  0  0  0  0  0
   37.1595   33.3842   40.8551 H   0  0  0  0  0  0  0  0  0  0  0  0
   39.5256   34.1591   38.4631 H   0  0  0  0  0  0  0  0  0  0  0  0
   40.9392   33.5054   41.3797 H   0  0  0  0  0  0  0  0  0  0  0  0
   41.8928   34.4053   40.5573 H   0  0  0  0  0  0  0  0  0  0  0  0
   38.8997   35.4080   41.3879 H   0  0  0  0  0  0  0  0  0  0  0  0
   38.8478   37.2439   40.3192 H   0  0  0  0  0  0  0  0  0  0  0  0
   37.2285   26.9906   43.7272 H   0  0  0  0  0  0  0  0  0  0  0  0
   36.3272   29.0173   42.5786 H   0  0  0  0  0  0  0  0  0  0  0  0
   37.2371   25.0398   39.9460 H   0  0  0  0  0  0  0  0  0  0  0  0
   33.8561   29.0820   41.0090 H   0  0  0  0  0  0  0  0  0  0  0  0
   33.7471   29.9736   39.4534 H   0  0  0  0  0  0  0  0  0  0  0  0
   33.9910   28.1940   39.4534 H   0  0  0  0  0  0  0  0  0  0  0  0
   37.2958   29.4547   38.4577 H   0  0  0  0  0  0  0  0  0  0  0  0
   35.8744   28.4508   38.0122 H   0  0  0  0  0  0  0  0  0  0  0  0
   35.7441   30.2424   38.0122 H   0  0  0  0  0  0  0  0  0  0  0  0
  2  3  1  0
  2  1  1  0
  4  3  2  0
  5  6  1  0
  5  4  1  0
  6  2  2  0
  7  4  1  0
  7  9  1  0
  7  8  1  0
  9  8  1  0
 10  9  1  0
 11 10  2  0
 12 13  1  0
 12  5  1  0
 14 12  1  0
 15 12  1  0
 16  1  1  0
 16 19  1  0
 18 17  2  0
 19 18  1  0
 20 21  1  0
 20 19  2  0
 21 22  2  0
 22 17  1  0
 23 16  1  0
 24 16  1  0
  1 25  1  0
  1 26  1  0
  3 27  1  0
  7 28  1  6
  8 29  1  0
  8 30  1  0
  9 31  1  1
 10 32  1  0
 17 33  1  0
 18 34  1  0
 21 35  1  0
 23 36  1  0
 23 37  1  0
 23 38  1  0
 24 39  1  0
 24 40  1  0
 24 41  1  0
M  ISO  8  25   8  26   8  27  14  28  13  29  13  30  13  31  13  32   6
M  ISO  8  33  14  34  14  35  14  36   8  37   8  38   8  39   8  40   8
M  ISO  1  41   8
M  END
>  <minimizedAffinity>  (1) 
-5.36354542

>  <minimizedRMSD>  (1) 
1.53921092

$$$$
