
     RDKit          3D

 42 44  0  0  1  0  0  0  0  0999 V2000
   36.1480   30.7080   40.8470 C   0  0  0  0  0  0  0  0  0  0  0  0
   37.4120   31.3820   40.4880 C   0  0  0  0  0  0  0  0  0  0  0  0
   37.6850   32.7380   40.3430 C   0  0  0  0  0  0  0  0  0  0  0  0
   39.0050   32.9470   39.9860 C   0  0  0  0  0  0  0  0  0  0  0  0
   39.5180   31.7120   39.9210 N   0  0  0  0  0  0  0  0  0  0  0  0
   38.6010   30.8170   40.2090 N   0  0  0  0  0  0  0  0  0  0  0  0
   39.6680   34.2560   39.7460 C   0  0  2  0  0  0  0  0  0  0  0  0
   40.7250   34.6950   40.7970 C   0  0  0  0  0  0  0  0  0  0  0  0
   39.4560   35.4370   40.5640 C   0  0  1  0  0  0  0  0  0  0  0  0
   39.4320   36.7780   39.8770 C   0  0  0  0  0  0  0  0  0  0  0  0
   40.8890   31.4020   39.5930 C   0  0  0  0  0  0  0  0  0  0  0  0
   41.7990   31.7650   40.5430 F   0  0  0  0  0  0  0  0  0  0  0  0
   41.2850   32.0010   38.4130 F   0  0  0  0  0  0  0  0  0  0  0  0
   41.0490   30.0280   39.3840 F   0  0  0  0  0  0  0  0  0  0  0  0
   35.9110   29.4450   40.1310 C   0  0  0  0  0  0  0  0  0  0  0  0
   37.0360   26.9310   42.6970 C   0  0  0  0  0  0  0  0  0  0  0  0
   36.5890   28.1040   42.0880 C   0  0  0  0  0  0  0  0  0  0  0  0
   36.3750   28.2190   40.7470 C   0  0  0  0  0  0  0  0  0  0  0  0
   36.6230   27.1090   40.0230 N   0  0  0  0  0  0  0  0  0  0  0  0
   37.0560   25.9570   40.5770 C   0  0  0  0  0  0  0  0  0  0  0  0
   37.2590   25.8610   41.8780 N   0  0  0  0  0  0  0  0  0  0  0  0
   34.3890   29.2470   39.9810 C   0  0  0  0  0  0  0  0  0  0  0  0
   36.4740   29.5680   38.7060 C   0  0  0  0  0  0  0  0  0  0  0  0
   36.1659   30.4943   41.9259 H   0  0  0  0  0  0  0  0  0  0  0  0
   35.3345   31.3904   40.5598 H   0  0  0  0  0  0  0  0  0  0  0  0
   36.9472   33.5400   40.4927 H   0  0  0  0  0  0  0  0  0  0  0  0
   39.5996   34.0892   38.6609 H   0  0  0  0  0  0  0  0  0  0  0  0
   40.8702   34.1133   41.7192 H   0  0  0  0  0  0  0  0  0  0  0  0
   41.7985   34.9347   40.7928 H   0  0  0  0  0  0  0  0  0  0  0  0
   38.6693   35.7748   41.2546 H   0  0  0  0  0  0  0  0  0  0  0  0
   39.4177   37.5770   40.6329 H   0  0  0  0  0  0  0  0  0  0  0  0
   40.3284   36.8840   39.2483 H   0  0  0  0  0  0  0  0  0  0  0  0
   38.5324   36.8519   39.2483 H   0  0  0  0  0  0  0  0  0  0  0  0
   37.2007   26.8709   43.7829 H   0  0  0  0  0  0  0  0  0  0  0  0
   36.3994   28.9817   42.7233 H   0  0  0  0  0  0  0  0  0  0  0  0
   37.2428   25.0841   39.9343 H   0  0  0  0  0  0  0  0  0  0  0  0
   33.9271   29.1869   40.9775 H   0  0  0  0  0  0  0  0  0  0  0  0
   33.9613   30.0971   39.4292 H   0  0  0  0  0  0  0  0  0  0  0  0
   34.1930   28.3158   39.4292 H   0  0  0  0  0  0  0  0  0  0  0  0
   37.5476   29.8025   38.7549 H   0  0  0  0  0  0  0  0  0  0  0  0
   36.3304   28.6173   38.1717 H   0  0  0  0  0  0  0  0  0  0  0  0
   35.9470   30.3722   38.1717 H   0  0  0  0  0  0  0  0  0  0  0  0
  2  1  1  0
  3  2  1  0
  4  3  2  0
  5  4  1  0
  5  6  1  0
  6  2  2  0
  7  4  1  0
  7  9  1  0
  7  8  1  0
  9  8  1  0
 10  9  1  0
 11  5  1  0
 11 12  1  0
 13 11  1  0
 14 11  1  0
 15 18  1  0
 15  1  1  0
 17 16  2  0
 18 17  1  0
 19 20  1  0
 19 18  2  0
 20 21  2  0
 21 16  1  0
 22 15  1  0
 23 15  1  0
  1 24  1  0
  1 25  1  0
  3 26  1  0
  7 27  1  6
  8 28  1  0
  8 29  1  0
  9 30  1  1
 10 31  1  0
 10 32  1  0
 10 33  1  0
 16 34  1  0
 17 35  1  0
 20 36  1  0
 22 37  1  0
 22 38  1  0
 22 39  1  0
 23 40  1  0
 23 41  1  0
 23 42  1  0
M  ISO  8  24   8  25   8  26  14  27  13  28  13  29  13  30  13  31   8
M  ISO  8  32   8  33   8  34  14  35  14  36  14  37   8  38   8  39   8
M  ISO  3  40   8  41   8  42   8
M  END
>  <minimizedAffinity>  (1) 
-5.29263735

>  <minimizedRMSD>  (1) 
0.770164967

$$$$
