
     RDKit          3D

 45 47  0  0  1  0  0  0  0  0999 V2000
   36.0280   30.5650   40.7930 C   0  0  0  0  0  0  0  0  0  0  0  0
   37.3130   31.2210   40.4510 C   0  0  0  0  0  0  0  0  0  0  0  0
   37.6080   32.5770   40.3310 C   0  0  0  0  0  0  0  0  0  0  0  0
   38.9310   32.7700   39.9860 C   0  0  0  0  0  0  0  0  0  0  0  0
   39.4220   31.5260   39.9030 N   0  0  0  0  0  0  0  0  0  0  0  0
   38.4910   30.6320   40.1710 N   0  0  0  0  0  0  0  0  0  0  0  0
   39.6200   34.0680   39.7700 C   0  0  2  0  0  0  0  0  0  0  0  0
   40.6700   34.4770   40.8400 C   0  0  0  0  0  0  0  0  0  0  0  0
   39.4150   35.2430   40.5990 C   0  0  1  0  0  0  0  0  0  0  0  0
   39.4140   36.5970   39.9390 C   0  0  0  0  0  0  0  0  0  0  0  0
   40.6500   37.3920   40.2070 C   0  0  0  0  0  0  0  0  0  0  0  0
   40.7890   31.1940   39.5770 C   0  0  0  0  0  0  0  0  0  0  0  0
   41.6930   31.4900   40.5560 F   0  0  0  0  0  0  0  0  0  0  0  0
   41.2170   31.8370   38.4330 F   0  0  0  0  0  0  0  0  0  0  0  0
   40.9150   29.8300   39.3050 F   0  0  0  0  0  0  0  0  0  0  0  0
   35.8020   29.2910   40.1000 C   0  0  0  0  0  0  0  0  0  0  0  0
   36.9870   26.8200   42.6840 C   0  0  0  0  0  0  0  0  0  0  0  0
   36.5220   27.9710   42.0540 C   0  0  0  0  0  0  0  0  0  0  0  0
   36.2850   28.0780   40.7140 C   0  0  0  0  0  0  0  0  0  0  0  0
   36.5360   26.9650   40.0010 N   0  0  0  0  0  0  0  0  0  0  0  0
   36.9870   25.8250   40.5680 C   0  0  0  0  0  0  0  0  0  0  0  0
   37.2100   25.7450   41.8700 N   0  0  0  0  0  0  0  0  0  0  0  0
   34.2770   29.0780   39.9740 C   0  0  0  0  0  0  0  0  0  0  0  0
   36.3390   29.4050   38.6590 C   0  0  0  0  0  0  0  0  0  0  0  0
   36.0144   30.3759   41.8765 H   0  0  0  0  0  0  0  0  0  0  0  0
   35.2279   31.2476   40.4705 H   0  0  0  0  0  0  0  0  0  0  0  0
   36.8820   33.3879   40.4902 H   0  0  0  0  0  0  0  0  0  0  0  0
   39.5652   33.9145   38.6821 H   0  0  0  0  0  0  0  0  0  0  0  0
   40.7935   33.8820   41.7569 H   0  0  0  0  0  0  0  0  0  0  0  0
   41.7472   34.6992   40.8528 H   0  0  0  0  0  0  0  0  0  0  0  0
   38.6230   35.5848   41.2816 H   0  0  0  0  0  0  0  0  0  0  0  0
   38.5478   37.1645   40.3101 H   0  0  0  0  0  0  0  0  0  0  0  0
   39.3678   36.4274   38.8531 H   0  0  0  0  0  0  0  0  0  0  0  0
   40.7969   37.4865   41.2930 H   0  0  0  0  0  0  0  0  0  0  0  0
   41.5175   36.8821   39.7626 H   0  0  0  0  0  0  0  0  0  0  0  0
   40.5458   38.3928   39.7626 H   0  0  0  0  0  0  0  0  0  0  0  0
   37.1639   26.7783   43.7689 H   0  0  0  0  0  0  0  0  0  0  0  0
   36.3324   28.8557   42.6795 H   0  0  0  0  0  0  0  0  0  0  0  0
   37.1727   24.9451   39.9345 H   0  0  0  0  0  0  0  0  0  0  0  0
   33.8313   29.0157   40.9777 H   0  0  0  0  0  0  0  0  0  0  0  0
   33.8327   29.9228   39.4273 H   0  0  0  0  0  0  0  0  0  0  0  0
   34.0812   28.1438   39.4273 H   0  0  0  0  0  0  0  0  0  0  0  0
   37.4147   29.6334   38.6856 H   0  0  0  0  0  0  0  0  0  0  0  0
   36.1792   28.4529   38.1317 H   0  0  0  0  0  0  0  0  0  0  0  0
   35.8062   30.2100   38.1317 H   0  0  0  0  0  0  0  0  0  0  0  0
  2  1  1  0
  3  2  1  0
  4  3  2  0
  5  4  1  0
  5  6  1  0
  6  2  2  0
  7  4  1  0
  7  9  1  0
  7  8  1  0
  9  8  1  0
 10 11  1  0
 10  9  1  0
 12  5  1  0
 12 13  1  0
 14 12  1  0
 15 12  1  0
 16 19  1  0
 16  1  1  0
 18 17  2  0
 19 18  1  0
 20 21  1  0
 20 19  2  0
 21 22  2  0
 22 17  1  0
 23 16  1  0
 24 16  1  0
  1 25  1  0
  1 26  1  0
  3 27  1  0
  7 28  1  6
  8 29  1  0
  8 30  1  0
  9 31  1  1
 10 32  1  0
 10 33  1  0
 11 34  1  0
 11 35  1  0
 11 36  1  0
 17 37  1  0
 18 38  1  0
 21 39  1  0
 23 40  1  0
 23 41  1  0
 23 42  1  0
 24 43  1  0
 24 44  1  0
 24 45  1  0
M  ISO  8  25   8  26   8  27  14  28  13  29  13  30  13  31  13  32   8
M  ISO  8  33   8  34   8  35   8  36   8  37  14  38  14  39  14  40   8
M  ISO  5  41   8  42   8  43   8  44   8  45   8
M  END
>  <minimizedAffinity>  (1) 
-5.13058662

>  <minimizedRMSD>  (1) 
0.920203686

$$$$
