
     RDKit          3D

 40 42  0  0  1  0  0  0  0  0999 V2000
   36.1680   30.7310   40.8070 C   0  0  0  0  0  0  0  0  0  0  0  0
   37.4330   31.3850   40.4070 C   0  0  0  0  0  0  0  0  0  0  0  0
   37.7640   32.7350   40.3610 C   0  0  0  0  0  0  0  0  0  0  0  0
   39.0570   32.9240   39.9150 C   0  0  0  0  0  0  0  0  0  0  0  0
   39.5030   31.6810   39.6950 N   0  0  0  0  0  0  0  0  0  0  0  0
   38.5670   30.7970   39.9780 N   0  0  0  0  0  0  0  0  0  0  0  0
   39.7580   34.2200   39.7410 C   0  0  2  0  0  0  0  0  0  0  0  0
   40.9010   34.5300   40.7430 C   0  0  0  0  0  0  0  0  0  0  0  0
   39.6510   35.3380   40.6580 C   0  0  1  0  0  0  0  0  0  0  0  0
   39.6530   36.9960   39.9660 S   0  0  0  0  0  0  0  0  0  0  0  0
   40.8240   31.3430   39.2220 C   0  0  0  0  0  0  0  0  0  0  0  0
   41.8190   31.5610   40.1320 F   0  0  0  0  0  0  0  0  0  0  0  0
   41.1590   32.0530   38.0860 F   0  0  0  0  0  0  0  0  0  0  0  0
   40.8880   30.0030   38.8410 F   0  0  0  0  0  0  0  0  0  0  0  0
   35.9090   29.4560   40.1200 C   0  0  0  0  0  0  0  0  0  0  0  0
   37.0410   26.9520   42.6940 C   0  0  0  0  0  0  0  0  0  0  0  0
   36.5860   28.1200   42.0720 C   0  0  0  0  0  0  0  0  0  0  0  0
   36.3790   28.2390   40.7350 C   0  0  0  0  0  0  0  0  0  0  0  0
   36.6450   27.1380   40.0190 N   0  0  0  0  0  0  0  0  0  0  0  0
   37.0840   25.9940   40.5730 C   0  0  0  0  0  0  0  0  0  0  0  0
   37.2790   25.8950   41.8740 N   0  0  0  0  0  0  0  0  0  0  0  0
   34.3750   29.2740   40.0070 C   0  0  0  0  0  0  0  0  0  0  0  0
   36.4190   29.5580   38.6680 C   0  0  0  0  0  0  0  0  0  0  0  0
   36.2053   30.5391   41.8895 H   0  0  0  0  0  0  0  0  0  0  0  0
   35.3538   31.4149   40.5253 H   0  0  0  0  0  0  0  0  0  0  0  0
   37.0815   33.5498   40.6443 H   0  0  0  0  0  0  0  0  0  0  0  0
   39.6096   34.1441   38.6537 H   0  0  0  0  0  0  0  0  0  0  0  0
   41.0823   33.8708   41.6047 H   0  0  0  0  0  0  0  0  0  0  0  0
   41.9815   34.7270   40.6814 H   0  0  0  0  0  0  0  0  0  0  0  0
   38.9239   35.6486   41.4227 H   0  0  0  0  0  0  0  0  0  0  0  0
   39.6541   37.9149   40.9821 H   0  0  0  0  0  0  0  0  0  0  0  0
   37.1966   26.8931   43.7813 H   0  0  0  0  0  0  0  0  0  0  0  0
   36.3834   28.9963   42.7053 H   0  0  0  0  0  0  0  0  0  0  0  0
   37.2842   25.1247   39.9295 H   0  0  0  0  0  0  0  0  0  0  0  0
   33.9367   29.2220   41.0146 H   0  0  0  0  0  0  0  0  0  0  0  0
   33.9436   30.1273   39.4631 H   0  0  0  0  0  0  0  0  0  0  0  0
   34.1552   28.3435   39.4631 H   0  0  0  0  0  0  0  0  0  0  0  0
   37.4976   29.7737   38.6725 H   0  0  0  0  0  0  0  0  0  0  0  0
   36.2377   28.6058   38.1479 H   0  0  0  0  0  0  0  0  0  0  0  0
   35.8854   30.3672   38.1479 H   0  0  0  0  0  0  0  0  0  0  0  0
  2  1  1  0
  3  2  1  0
  4  3  2  0
  5  4  1  0
  5  6  1  0
  6  2  2  0
  7  4  1  0
  7  9  1  0
  7  8  1  0
  9  8  1  0
 10  9  1  0
 11  5  1  0
 11 12  1  0
 13 11  1  0
 14 11  1  0
 15 18  1  0
 15  1  1  0
 17 16  2  0
 18 17  1  0
 19 20  1  0
 19 18  2  0
 20 21  2  0
 21 16  1  0
 22 15  1  0
 23 15  1  0
  1 24  1  0
  1 25  1  0
  3 26  1  0
  7 27  1  6
  8 28  1  0
  8 29  1  0
  9 30  1  1
 10 31  1  0
 16 32  1  0
 17 33  1  0
 20 34  1  0
 22 35  1  0
 22 36  1  0
 22 37  1  0
 23 38  1  0
 23 39  1  0
 23 40  1  0
M  ISO  8  24   8  25   8  26  14  27  13  28  13  29  13  30  13  31  11
M  ISO  8  32  14  33  14  34  14  35   8  36   8  37   8  38   8  39   8
M  ISO  1  40   8
M  END
>  <minimizedAffinity>  (1) 
-5.10782385

>  <minimizedRMSD>  (1) 
0.990453362

$$$$
