
     RDKit          3D

 12 12  0  0  0  0  0  0  0  0999 V2000
   38.2020   29.4970   42.6620 C   0  0  0  0  0  0  0  0  0  0  0  0
   37.7160   28.2000   42.8840 C   0  0  0  0  0  0  0  0  0  0  0  0
   36.5710   27.7890   42.2020 C   0  0  0  0  0  0  0  0  0  0  0  0
   35.9710   28.6590   41.3510 N   0  0  0  0  0  0  0  0  0  0  0  0
   36.4630   29.9100   41.1560 C   0  0  0  0  0  0  0  0  0  0  0  0
   37.5760   30.3190   41.8150 N   0  0  0  0  0  0  0  0  0  0  0  0
   38.4220   27.3690   43.7960 N   0  0  0  0  0  0  0  0  0  0  0  0
   39.1047   29.8397   43.1889 H   0  0  0  0  0  0  0  0  0  0  0  0
   36.1621   26.7788   42.3511 H   0  0  0  0  0  0  0  0  0  0  0  0
   35.9564   30.5949   40.4602 H   0  0  0  0  0  0  0  0  0  0  0  0
   38.0918   26.4112   43.9816 H   0  0  0  0  0  0  0  0  0  0  0  0
   39.2638   27.7247   44.2712 H   0  0  0  0  0  0  0  0  0  0  0  0
  1  2  2  0
  2  7  1  0
  3  2  1  0
  4  3  2  0
  5  4  1  0
  5  6  2  0
  6  1  1  0
  1  8  1  0
  3  9  1  0
  5 10  1  0
  7 11  1  0
  7 12  1  0
M  ISO  3   8  14   9  14  10  14
M  END
>  <minimizedAffinity>  (1) 
-2.36589861

>  <minimizedRMSD>  (1) 
0.826914251

$$$$
