
     RDKit          3D

 47 50  0  0  1  0  0  0  0  0999 V2000
   37.1920   29.7980   39.2490 C   0  0  0  0  0  0  0  0  0  0  0  0
   37.6340   31.0420   39.6790 C   0  0  0  0  0  0  0  0  0  0  0  0
   38.9140   31.3040   39.2210 C   0  0  0  0  0  0  0  0  0  0  0  0
   39.2270   30.2080   38.5170 N   0  0  0  0  0  0  0  0  0  0  0  0
   38.2370   29.3410   38.5310 N   0  0  0  0  0  0  0  0  0  0  0  0
   39.7260   32.5230   39.4750 C   0  0  2  0  0  0  0  0  0  0  0  0
   40.8120   32.4130   40.5760 C   0  0  0  0  0  0  0  0  0  0  0  0
   39.6390   33.3140   40.6910 C   0  0  1  0  0  0  0  0  0  0  0  0
   39.8080   34.7890   40.5210 C   0  0  0  0  0  0  0  0  0  0  0  0
   40.9780   35.4300   40.8710 C   0  0  0  0  0  0  0  0  0  0  0  0
   41.0670   36.7940   40.6890 C   0  0  0  0  0  0  0  0  0  0  0  0
   40.0450   37.5070   40.1830 N   0  0  0  0  0  0  0  0  0  0  0  0
   38.9030   36.8830   39.8420 C   0  0  0  0  0  0  0  0  0  0  0  0
   38.8060   35.5320   40.0180 N   0  0  0  0  0  0  0  0  0  0  0  0
   40.4840   29.9910   37.8390 C   0  0  0  0  0  0  0  0  0  0  0  0
   41.5370   29.7150   38.6650 F   0  0  0  0  0  0  0  0  0  0  0  0
   40.8540   31.0820   37.0780 F   0  0  0  0  0  0  0  0  0  0  0  0
   40.3810   28.9250   36.9410 F   0  0  0  0  0  0  0  0  0  0  0  0
   35.8950   29.1250   39.4950 C   0  0  0  0  0  0  0  0  0  0  0  0
   35.2330   28.6280   38.2870 C   0  0  0  0  0  0  0  0  0  0  0  0
   36.2460   25.0020   38.3580 C   0  0  0  0  0  0  0  0  0  0  0  0
   36.1670   26.3720   38.5990 C   0  0  0  0  0  0  0  0  0  0  0  0
   35.2780   27.2130   38.0050 C   0  0  0  0  0  0  0  0  0  0  0  0
   34.4260   26.6410   37.1220 N   0  0  0  0  0  0  0  0  0  0  0  0
   34.4780   25.3090   36.8660 C   0  0  0  0  0  0  0  0  0  0  0  0
   35.3480   24.5090   37.4530 N   0  0  0  0  0  0  0  0  0  0  0  0
   33.7270   28.9640   38.3840 C   0  0  0  0  0  0  0  0  0  0  0  0
   35.7540   29.4300   37.0740 C   0  0  0  0  0  0  0  0  0  0  0  0
   37.0440   31.7299   40.3024 H   0  0  0  0  0  0  0  0  0  0  0  0
   39.6530   32.7911   38.4107 H   0  0  0  0  0  0  0  0  0  0  0  0
   40.8845   31.5096   41.1995 H   0  0  0  0  0  0  0  0  0  0  0  0
   41.9054   32.5227   40.6265 H   0  0  0  0  0  0  0  0  0  0  0  0
   38.8918   33.4416   41.4881 H   0  0  0  0  0  0  0  0  0  0  0  0
   41.8242   34.8638   41.2875 H   0  0  0  0  0  0  0  0  0  0  0  0
   41.9974   37.3120   40.9646 H   0  0  0  0  0  0  0  0  0  0  0  0
   38.0587   37.4531   39.4270 H   0  0  0  0  0  0  0  0  0  0  0  0
   36.0720   28.2717   40.1662 H   0  0  0  0  0  0  0  0  0  0  0  0
   35.2262   29.8818   39.9309 H   0  0  0  0  0  0  0  0  0  0  0  0
   36.9825   24.3595   38.8627 H   0  0  0  0  0  0  0  0  0  0  0  0
   36.8745   26.8047   39.3217 H   0  0  0  0  0  0  0  0  0  0  0  0
   33.7687   24.8806   36.1425 H   0  0  0  0  0  0  0  0  0  0  0  0
   33.4333   29.0295   39.4421 H   0  0  0  0  0  0  0  0  0  0  0  0
   33.5337   29.9274   37.8895 H   0  0  0  0  0  0  0  0  0  0  0  0
   33.1425   28.1742   37.8895 H   0  0  0  0  0  0  0  0  0  0  0  0
   36.3213   30.3033   37.4282 H   0  0  0  0  0  0  0  0  0  0  0  0
   36.4090   28.7896   36.4650 H   0  0  0  0  0  0  0  0  0  0  0  0
   34.9027   29.7682   36.4650 H   0  0  0  0  0  0  0  0  0  0  0  0
  1 19  1  0
  1  2  1  0
  3  6  1  0
  3  2  2  0
  4  5  1  0
  4  3  1  0
  5  1  2  0
  6  7  1  0
  6  8  1  0
  7  8  1  0
  9  8  1  0
  9 10  2  0
 11 10  1  0
 12 11  2  0
 13 14  2  0
 13 12  1  0
 14  9  1  0
 15  4  1  0
 15 16  1  0
 17 15  1  0
 18 15  1  0
 20 27  1  0
 20 19  1  0
 21 22  2  0
 23 20  1  0
 23 22  1  0
 24 23  2  0
 25 24  1  0
 25 26  2  0
 26 21  1  0
 28 20  1  0
  2 29  1  0
  6 30  1  6
  7 31  1  0
  7 32  1  0
  8 33  1  1
 10 34  1  0
 11 35  1  0
 13 36  1  0
 19 37  1  0
 19 38  1  0
 21 39  1  0
 22 40  1  0
 25 41  1  0
 27 42  1  0
 27 43  1  0
 27 44  1  0
 28 45  1  0
 28 46  1  0
 28 47  1  0
M  ISO  8  29  14  30  13  31  13  32  13  33  13  34  14  35  14  36  14
M  ISO  8  37   8  38   8  39  14  40  14  41  14  42   8  43   8  44   8
M  ISO  3  45   8  46   8  47   8
M  END
>  <minimizedAffinity>  (1) 
-4.87513733

>  <minimizedRMSD>  (1) 
3.30702972

$$$$
