
     RDKit          3D

 53 56  0  0  1  0  0  0  0  0999 V2000
   36.9900   29.9660   40.3080 C   0  0  1  0  0  0  0  0  0  0  0  0
   37.6670   28.2240   43.5850 C   0  0  0  0  0  0  0  0  0  0  0  0
   37.4690   29.2140   42.6170 C   0  0  0  0  0  0  0  0  0  0  0  0
   37.1790   28.9700   41.3200 C   0  0  0  0  0  0  0  0  0  0  0  0
   37.0940   27.6800   41.0370 N   0  0  0  0  0  0  0  0  0  0  0  0
   37.2650   26.6660   41.8820 C   0  0  0  0  0  0  0  0  0  0  0  0
   37.5520   26.9430   43.1600 N   0  0  0  0  0  0  0  0  0  0  0  0
   35.6000   29.6180   39.6890 C   0  0  0  0  0  0  0  0  0  0  0  0
   36.8550   31.3810   40.7680 C   0  0  0  0  0  0  0  0  0  0  0  0
   38.0950   32.1690   40.6280 C   0  0  0  0  0  0  0  0  0  0  0  0
   38.2580   33.5170   40.3090 C   0  0  0  0  0  0  0  0  0  0  0  0
   39.5940   33.8600   40.2540 C   0  0  0  0  0  0  0  0  0  0  0  0
   40.2230   32.7260   40.5410 N   0  0  0  0  0  0  0  0  0  0  0  0
   39.3760   31.7440   40.7600 N   0  0  0  0  0  0  0  0  0  0  0  0
   40.1730   35.2020   39.9510 C   0  0  2  0  0  0  0  0  0  0  0  0
   40.7010   35.9870   41.2060 C   0  0  0  0  0  0  0  0  0  0  0  0
   39.5730   36.4510   40.3230 C   0  0  1  0  0  0  0  0  0  0  0  0
   39.7730   37.5090   39.4350 O   0  0  0  0  0  0  0  0  0  0  0  0
   41.6570   32.5690   40.6030 C   0  0  0  0  0  0  0  0  0  0  0  0
   42.2550   33.2380   41.6220 F   0  0  0  0  0  0  0  0  0  0  0  0
   42.2770   32.9850   39.4410 F   0  0  0  0  0  0  0  0  0  0  0  0
   42.0100   31.2190   40.7080 F   0  0  0  0  0  0  0  0  0  0  0  0
   38.0220   29.9260   39.2100 C   0  0  0  0  0  0  0  0  0  0  0  0
   37.5830   29.7030   37.8730 N   0  0  0  0  0  0  0  0  0  0  0  0
   37.3430   28.4690   37.3290 C   0  0  0  0  0  0  0  0  0  0  0  0
   36.9560   28.1870   36.0500 C   0  0  0  0  0  0  0  0  0  0  0  0
   36.7260   26.7970   35.5810 C   0  0  0  0  0  0  0  0  0  0  0  0
   36.7820   29.2500   35.1920 C   0  0  0  0  0  0  0  0  0  0  0  0
   36.4270   29.0190   34.0120 O   0  0  0  0  0  0  0  0  0  0  0  0
   37.0040   30.4850   35.6690 N   0  0  0  0  0  0  0  0  0  0  0  0
   37.3830   30.6560   36.9460 C   0  0  0  0  0  0  0  0  0  0  0  0
   37.5540   31.8640   37.2460 O   0  0  0  0  0  0  0  0  0  0  0  0
   37.9024   28.4713   44.6307 H   0  0  0  0  0  0  0  0  0  0  0  0
   37.5553   30.2639   42.9335 H   0  0  0  0  0  0  0  0  0  0  0  0
   37.1727   25.6251   41.5385 H   0  0  0  0  0  0  0  0  0  0  0  0
   34.8745   29.4364   40.4956 H   0  0  0  0  0  0  0  0  0  0  0  0
   35.2548   30.4574   39.0676 H   0  0  0  0  0  0  0  0  0  0  0  0
   35.6911   28.7149   39.0676 H   0  0  0  0  0  0  0  0  0  0  0  0
   36.0660   31.8658   40.1743 H   0  0  0  0  0  0  0  0  0  0  0  0
   36.6123   31.3496   41.8404 H   0  0  0  0  0  0  0  0  0  0  0  0
   37.4291   34.2164   40.1250 H   0  0  0  0  0  0  0  0  0  0  0  0
   40.5358   34.8386   38.9782 H   0  0  0  0  0  0  0  0  0  0  0  0
   40.5032   35.6186   42.2234 H   0  0  0  0  0  0  0  0  0  0  0  0
   41.6638   36.3876   41.5561 H   0  0  0  0  0  0  0  0  0  0  0  0
   38.5511   36.7790   40.5640 H   0  0  0  0  0  0  0  0  0  0  0  0
   39.9306   38.3427   39.9451 H   0  0  0  0  0  0  0  0  0  0  0  0
   38.5473   30.8924   39.2225 H   0  0  0  0  0  0  0  0  0  0  0  0
   38.6313   29.0408   39.4448 H   0  0  0  0  0  0  0  0  0  0  0  0
   37.4773   27.6068   37.9987 H   0  0  0  0  0  0  0  0  0  0  0  0
   36.6157   26.1306   36.4492 H   0  0  0  0  0  0  0  0  0  0  0  0
   35.8098   26.7620   34.9732 H   0  0  0  0  0  0  0  0  0  0  0  0
   37.5820   26.4687   34.9732 H   0  0  0  0  0  0  0  0  0  0  0  0
   36.8835   31.3028   35.0546 H   0  0  0  0  0  0  0  0  0  0  0  0
  1 23  1  6
  1  9  1  0
  1  4  1  0
  3  2  2  0
  4  3  1  0
  5  4  2  0
  5  6  1  0
  6  7  2  0
  7  2  1  0
  8  1  1  0
 10 14  2  0
 10  9  1  0
 11 10  1  0
 12 11  2  0
 12 13  1  0
 13 19  1  0
 13 14  1  0
 15 12  1  0
 15 17  1  0
 15 16  1  0
 17 16  1  0
 18 17  1  0
 19 22  1  0
 19 20  1  0
 21 19  1  0
 24 23  1  0
 25 24  1  0
 26 25  2  0
 27 26  1  0
 28 30  1  0
 28 26  1  0
 29 28  2  0
 30 31  1  0
 31 32  2  0
 31 24  1  0
  2 33  1  0
  3 34  1  0
  6 35  1  0
  8 36  1  0
  8 37  1  0
  8 38  1  0
  9 39  1  0
  9 40  1  0
 11 41  1  0
 15 42  1  6
 16 43  1  0
 16 44  1  0
 17 45  1  1
 18 46  1  0
 23 47  1  0
 23 48  1  0
 25 49  1  0
 27 50  1  0
 27 51  1  0
 27 52  1  0
 30 53  1  0
M  ISO  8  33  14  34  14  35  14  36   8  37   8  38   8  39   8  40   8
M  ISO  8  41  14  42  13  43  13  44  13  45  13  46   3  47   8  48   8
M  ISO  5  49  14  50   8  51   8  52   8  53   9
M  END
>  <minimizedAffinity>  (1) 
-6.12412357

>  <minimizedRMSD>  (1) 
2.04238796

$$$$
