
     RDKit          3D

 54 57  0  0  1  0  0  0  0  0999 V2000
   36.4800   29.5370   40.0230 C   0  0  1  0  0  0  0  0  0  0  0  0
   36.8240   27.4450   43.1230 C   0  0  0  0  0  0  0  0  0  0  0  0
   36.6390   28.5100   42.2280 C   0  0  0  0  0  0  0  0  0  0  0  0
   36.6770   28.4060   40.8840 C   0  0  0  0  0  0  0  0  0  0  0  0
   36.9130   27.1760   40.4160 N   0  0  0  0  0  0  0  0  0  0  0  0
   37.0990   26.1110   41.2090 C   0  0  0  0  0  0  0  0  0  0  0  0
   37.0580   26.2350   42.5450 N   0  0  0  0  0  0  0  0  0  0  0  0
   35.1400   29.2280   39.2890 C   0  0  0  0  0  0  0  0  0  0  0  0
   36.3570   30.8820   40.5780 C   0  0  0  0  0  0  0  0  0  0  0  0
   37.6100   31.6770   40.4850 C   0  0  0  0  0  0  0  0  0  0  0  0
   37.7880   33.0200   40.2240 C   0  0  0  0  0  0  0  0  0  0  0  0
   39.1190   33.3800   40.1950 C   0  0  0  0  0  0  0  0  0  0  0  0
   39.7520   32.2300   40.4460 N   0  0  0  0  0  0  0  0  0  0  0  0
   38.8950   31.2510   40.6140 N   0  0  0  0  0  0  0  0  0  0  0  0
   39.6930   34.7220   39.9400 C   0  0  2  0  0  0  0  0  0  0  0  0
   40.3220   35.4240   41.1930 C   0  0  0  0  0  0  0  0  0  0  0  0
   39.1470   35.9600   40.4230 C   0  0  1  0  0  0  0  0  0  0  0  0
   39.3070   37.0660   39.5800 O   0  0  0  0  0  0  0  0  0  0  0  0
   41.1830   32.0780   40.5310 C   0  0  0  0  0  0  0  0  0  0  0  0
   41.7380   32.6200   41.6580 F   0  0  0  0  0  0  0  0  0  0  0  0
   41.8290   32.6470   39.4630 F   0  0  0  0  0  0  0  0  0  0  0  0
   41.5400   30.7370   40.4980 F   0  0  0  0  0  0  0  0  0  0  0  0
   37.5460   29.5440   38.9070 C   0  0  0  0  0  0  0  0  0  0  0  0
   37.2140   29.4530   37.6010 N   0  0  0  0  0  0  0  0  0  0  0  0
   37.0580   30.3970   36.6210 C   0  0  0  0  0  0  0  0  0  0  0  0
   36.4630   29.8000   35.3190 C   0  0  0  0  0  0  0  0  0  0  0  0
   37.3390   28.7990   34.8110 N   0  0  0  0  0  0  0  0  0  0  0  0
   37.4200   27.7470   35.8400 C   0  0  0  0  0  0  0  0  0  0  0  0
   38.0490   28.3590   37.0430 C   0  0  0  0  0  0  0  0  0  0  0  0
   36.7828   27.5785   44.2141 H   0  0  0  0  0  0  0  0  0  0  0  0
   36.4485   29.5055   42.6554 H   0  0  0  0  0  0  0  0  0  0  0  0
   37.2873   25.1247   40.7598 H   0  0  0  0  0  0  0  0  0  0  0  0
   34.3489   29.0456   40.0313 H   0  0  0  0  0  0  0  0  0  0  0  0
   34.8609   30.0854   38.6589 H   0  0  0  0  0  0  0  0  0  0  0  0
   35.2645   28.3350   38.6589 H   0  0  0  0  0  0  0  0  0  0  0  0
   35.5653   31.4140   40.0302 H   0  0  0  0  0  0  0  0  0  0  0  0
   36.1216   30.7715   41.6468 H   0  0  0  0  0  0  0  0  0  0  0  0
   36.9604   33.7252   40.0575 H   0  0  0  0  0  0  0  0  0  0  0  0
   39.9774   34.4085   38.9247 H   0  0  0  0  0  0  0  0  0  0  0  0
   40.1880   35.0013   42.1997 H   0  0  0  0  0  0  0  0  0  0  0  0
   41.3158   35.7863   41.4948 H   0  0  0  0  0  0  0  0  0  0  0  0
   38.1528   36.2936   40.7552 H   0  0  0  0  0  0  0  0  0  0  0  0
   39.4252   37.8830   40.1264 H   0  0  0  0  0  0  0  0  0  0  0  0
   38.1027   30.4862   39.0185 H   0  0  0  0  0  0  0  0  0  0  0  0
   38.0685   28.5916   39.0800 H   0  0  0  0  0  0  0  0  0  0  0  0
   36.3828   31.1828   36.9908 H   0  0  0  0  0  0  0  0  0  0  0  0
   38.0524   30.8020   36.3821 H   0  0  0  0  0  0  0  0  0  0  0  0
   35.4818   29.3525   35.5360 H   0  0  0  0  0  0  0  0  0  0  0  0
   36.3454   30.5977   34.5708 H   0  0  0  0  0  0  0  0  0  0  0  0
   36.9635   28.4101   33.9343 H   0  0  0  0  0  0  0  0  0  0  0  0
   36.4121   27.3813   36.0859 H   0  0  0  0  0  0  0  0  0  0  0  0
   38.0119   26.8924   35.4805 H   0  0  0  0  0  0  0  0  0  0  0  0
   38.1797   27.5826   37.8112 H   0  0  0  0  0  0  0  0  0  0  0  0
   39.0185   28.7846   36.7449 H   0  0  0  0  0  0  0  0  0  0  0  0
  1 23  1  6
  1  9  1  0
  1  4  1  0
  3  2  2  0
  4  3  1  0
  5  4  2  0
  5  6  1  0
  6  7  2  0
  7  2  1  0
  8  1  1  0
 10  9  1  0
 10 14  2  0
 11 10  1  0
 12 11  2  0
 12 13  1  0
 13 19  1  0
 13 14  1  0
 15 12  1  0
 15 17  1  0
 15 16  1  0
 17 16  1  0
 18 17  1  0
 19 20  1  0
 21 19  1  0
 22 19  1  0
 24 23  1  0
 25 24  1  0
 26 25  1  0
 27 26  1  0
 27 28  1  0
 28 29  1  0
 29 24  1  0
  2 30  1  0
  3 31  1  0
  6 32  1  0
  8 33  1  0
  8 34  1  0
  8 35  1  0
  9 36  1  0
  9 37  1  0
 11 38  1  0
 15 39  1  6
 16 40  1  0
 16 41  1  0
 17 42  1  1
 18 43  1  0
 23 44  1  0
 23 45  1  0
 25 46  1  0
 25 47  1  0
 26 48  1  0
 26 49  1  0
 27 50  1  0
 28 51  1  0
 28 52  1  0
 29 53  1  0
 29 54  1  0
M  ISO  8  30  14  31  14  32  14  33   8  34   8  35   8  36   8  37   8
M  ISO  8  38  14  39  13  40  13  41  13  42  13  43   3  44   8  45   8
M  ISO  8  46  13  47  13  48  13  49  13  50   5  51  13  52  13  53  13
M  ISO  1  54  13
M  END
>  <minimizedAffinity>  (1) 
-5.67348528

>  <minimizedRMSD>  (1) 
1.54156566

$$$$
