
     RDKit          3D

 28 29  0  0  0  0  0  0  0  0999 V2000
   39.2510   30.0540   42.6810 C   0  0  0  0  0  0  0  0  0  0  0  0
   38.6890   28.7710   42.6330 C   0  0  0  0  0  0  0  0  0  0  0  0
   37.7630   28.5000   41.6140 C   0  0  0  0  0  0  0  0  0  0  0  0
   37.4640   29.4810   40.7390 N   0  0  0  0  0  0  0  0  0  0  0  0
   38.0250   30.7060   40.8160 C   0  0  0  0  0  0  0  0  0  0  0  0
   38.9150   30.9960   41.7810 N   0  0  0  0  0  0  0  0  0  0  0  0
   37.1390   27.2240   41.4810 N   0  0  0  0  0  0  0  0  0  0  0  0
   36.9010   26.3870   42.6640 C   0  0  0  0  0  0  0  0  0  0  0  0
   37.0790   24.9530   42.2020 C   0  0  0  0  0  0  0  0  0  0  0  0
   38.1830   24.9080   41.1690 C   0  0  0  0  0  0  0  0  0  0  0  0
   37.6660   25.5430   39.8950 C   0  0  0  0  0  0  0  0  0  0  0  0
   36.7110   26.6800   40.2390 C   0  0  0  0  0  0  0  0  0  0  0  0
   37.5360   31.6200   39.7400 C   0  0  0  0  0  0  0  0  0  0  0  0
   38.5220   31.8700   38.8130 F   0  0  0  0  0  0  0  0  0  0  0  0
   37.0820   32.7920   40.2900 F   0  0  0  0  0  0  0  0  0  0  0  0
   36.4320   31.0440   39.1100 F   0  0  0  0  0  0  0  0  0  0  0  0
   39.9799   30.2952   43.4687 H   0  0  0  0  0  0  0  0  0  0  0  0
   38.9646   28.0020   43.3696 H   0  0  0  0  0  0  0  0  0  0  0  0
   37.6270   26.6270   43.4548 H   0  0  0  0  0  0  0  0  0  0  0  0
   35.8974   26.5548   43.0819 H   0  0  0  0  0  0  0  0  0  0  0  0
   37.3487   24.3190   43.0595 H   0  0  0  0  0  0  0  0  0  0  0  0
   36.1409   24.5821   41.7633 H   0  0  0  0  0  0  0  0  0  0  0  0
   39.0578   25.4658   41.5345 H   0  0  0  0  0  0  0  0  0  0  0  0
   38.4835   23.8669   40.9795 H   0  0  0  0  0  0  0  0  0  0  0  0
   37.1344   24.7866   39.2990 H   0  0  0  0  0  0  0  0  0  0  0  0
   38.5128   25.9408   39.3164 H   0  0  0  0  0  0  0  0  0  0  0  0
   36.7464   27.4523   39.4565 H   0  0  0  0  0  0  0  0  0  0  0  0
   35.6757   26.3146   40.3075 H   0  0  0  0  0  0  0  0  0  0  0  0
  2  1  2  0
  3  2  1  0
  4  5  1  0
  4  3  2  0
  5  6  2  0
  6  1  1  0
  7  3  1  0
  7  8  1  0
  9  8  1  0
 10  9  1  0
 11 12  1  0
 11 10  1  0
 12  7  1  0
 13 15  1  0
 13  5  1  0
 14 13  1  0
 16 13  1  0
  1 17  1  0
  2 18  1  0
  8 19  1  0
  8 20  1  0
  9 21  1  0
  9 22  1  0
 10 23  1  0
 10 24  1  0
 11 25  1  0
 11 26  1  0
 12 27  1  0
 12 28  1  0
M  ISO  8  17  14  18  14  19  13  20  13  21  13  22  13  23  13  24  13
M  ISO  4  25  13  26  13  27  13  28  13
M  END
>  <minimizedAffinity>  (1) 
-4.36385822

>  <minimizedRMSD>  (1) 
2.42045498

$$$$
