
     RDKit          3D

 42 45  0  0  1  0  0  0  0  0999 V2000
   40.0350   31.4400   42.1920 C   0  0  0  0  0  0  0  0  0  0  0  0
   39.2990   30.3500   42.6570 C   0  0  0  0  0  0  0  0  0  0  0  0
   38.1030   30.0140   41.9980 C   0  0  0  0  0  0  0  0  0  0  0  0
   37.7570   30.7770   40.9580 N   0  0  0  0  0  0  0  0  0  0  0  0
   38.4690   31.8190   40.5170 C   0  0  0  0  0  0  0  0  0  0  0  0
   39.6150   32.1560   41.1340 N   0  0  0  0  0  0  0  0  0  0  0  0
   37.2830   28.9140   42.3720 N   0  0  0  0  0  0  0  0  0  0  0  0
   37.2570   28.5060   43.8050 C   0  0  0  0  0  0  0  0  0  0  0  0
   37.1390   27.0010   43.8130 C   0  0  0  0  0  0  0  0  0  0  0  0
   37.9020   26.4460   42.6290 C   0  0  0  0  0  0  0  0  0  0  0  0
   37.1420   26.7910   41.3740 C   0  0  0  0  0  0  0  0  0  0  0  0
   36.4890   28.1590   41.5200 C   0  0  2  0  0  0  0  0  0  0  0  0
   35.9210   28.6310   40.2780 C   0  0  0  0  0  0  0  0  0  0  0  0
   34.6090   29.0800   40.0320 C   0  0  0  0  0  0  0  0  0  0  0  0
   34.3930   29.4260   38.7740 N   0  0  0  0  0  0  0  0  0  0  0  0
   35.5280   29.2410   38.0770 C   0  0  0  0  0  0  0  0  0  0  0  0
   35.8600   29.4290   36.7550 C   0  0  0  0  0  0  0  0  0  0  0  0
   37.1230   29.1470   36.2870 C   0  0  0  0  0  0  0  0  0  0  0  0
   38.0660   28.6680   37.1700 C   0  0  0  0  0  0  0  0  0  0  0  0
   37.6970   28.4960   38.4630 C   0  0  0  0  0  0  0  0  0  0  0  0
   36.4540   28.7560   39.0050 C   0  0  0  0  0  0  0  0  0  0  0  0
   37.8600   32.4820   39.3250 C   0  0  0  0  0  0  0  0  0  0  0  0
   38.5090   32.1180   38.1570 F   0  0  0  0  0  0  0  0  0  0  0  0
   37.8960   33.8340   39.4820 F   0  0  0  0  0  0  0  0  0  0  0  0
   36.5240   32.1370   39.2440 F   0  0  0  0  0  0  0  0  0  0  0  0
   40.9716   31.7176   42.6976 H   0  0  0  0  0  0  0  0  0  0  0  0
   39.6470   29.7654   43.5213 H   0  0  0  0  0  0  0  0  0  0  0  0
   38.1845   28.8183   44.3072 H   0  0  0  0  0  0  0  0  0  0  0  0
   36.4190   28.9764   44.3403 H   0  0  0  0  0  0  0  0  0  0  0  0
   37.5630   26.6018   44.7462 H   0  0  0  0  0  0  0  0  0  0  0  0
   36.0807   26.7085   43.7463 H   0  0  0  0  0  0  0  0  0  0  0  0
   38.9063   26.8931   42.5907 H   0  0  0  0  0  0  0  0  0  0  0  0
   38.0057   25.3549   42.7220 H   0  0  0  0  0  0  0  0  0  0  0  0
   36.3643   26.0329   41.1991 H   0  0  0  0  0  0  0  0  0  0  0  0
   37.8397   26.8128   40.5238 H   0  0  0  0  0  0  0  0  0  0  0  0
   35.5308   28.2026   42.0585 H   0  0  0  0  0  0  0  0  0  0  0  0
   33.8364   29.1375   40.8129 H   0  0  0  0  0  0  0  0  0  0  0  0
   33.5038   29.7784   38.3919 H   0  0  0  0  0  0  0  0  0  0  0  0
   35.1003   29.8125   36.0580 H   0  0  0  0  0  0  0  0  0  0  0  0
   37.3751   29.3012   35.2274 H   0  0  0  0  0  0  0  0  0  0  0  0
   39.0872   28.4323   36.8359 H   0  0  0  0  0  0  0  0  0  0  0  0
   38.4652   28.1105   39.1495 H   0  0  0  0  0  0  0  0  0  0  0  0
  1  2  2  0
  3  7  1  0
  3  2  1  0
  4  3  2  0
  5  4  1  0
  5  6  2  0
  6  1  1  0
  7  8  1  0
  8  9  1  0
 10  9  1  0
 11 12  1  0
 11 10  1  0
 12  7  1  0
 13 12  1  0
 14 13  2  0
 15 14  1  0
 16 15  1  0
 16 21  2  0
 17 16  1  0
 18 17  2  0
 18 19  1  0
 19 20  2  0
 20 21  1  0
 21 13  1  0
 22 24  1  0
 22  5  1  0
 23 22  1  0
 25 22  1  0
  1 26  1  0
  2 27  1  0
  8 28  1  0
  8 29  1  0
  9 30  1  0
  9 31  1  0
 10 32  1  0
 10 33  1  0
 11 34  1  0
 11 35  1  0
 12 36  1  1
 14 37  1  0
 15 38  1  0
 17 39  1  0
 18 40  1  0
 19 41  1  0
 20 42  1  0
M  ISO  8  26  14  27  14  28  13  29  13  30  13  31  13  32  13  33  13
M  ISO  8  34  13  35  13  36  13  37  14  38   9  39  14  40  14  41  14
M  ISO  1  42  14
M  END
>  <minimizedAffinity>  (1) 
-6.17143726

>  <minimizedRMSD>  (1) 
1.63910818

$$$$
