
     RDKit          3D

 31 32  0  0  1  0  0  0  0  0999 V2000
   40.7310   30.8280   42.3060 C   0  0  0  0  0  0  0  0  0  0  0  0
   39.7720   29.8590   42.5900 C   0  0  0  0  0  0  0  0  0  0  0  0
   38.4540   30.0730   42.1290 C   0  0  0  0  0  0  0  0  0  0  0  0
   38.2190   31.1970   41.4480 N   0  0  0  0  0  0  0  0  0  0  0  0
   39.1580   32.1160   41.1870 C   0  0  0  0  0  0  0  0  0  0  0  0
   40.4210   31.9390   41.6130 N   0  0  0  0  0  0  0  0  0  0  0  0
   37.4120   29.1400   42.3700 N   0  0  0  0  0  0  0  0  0  0  0  0
   37.4130   28.3300   43.5870 C   0  0  0  0  0  0  0  0  0  0  0  0
   36.8520   26.9690   43.1860 C   0  0  0  0  0  0  0  0  0  0  0  0
   37.2670   26.6530   41.7770 C   0  0  0  0  0  0  0  0  0  0  0  0
   36.5370   27.5750   40.8200 C   0  0  0  0  0  0  0  0  0  0  0  0
   36.3310   28.9170   41.4970 C   0  0  2  0  0  0  0  0  0  0  0  0
   38.6320   33.2760   40.4090 C   0  0  0  0  0  0  0  0  0  0  0  0
   39.3090   33.4170   39.2080 F   0  0  0  0  0  0  0  0  0  0  0  0
   38.7170   34.4200   41.1450 F   0  0  0  0  0  0  0  0  0  0  0  0
   37.2900   33.0880   40.1420 F   0  0  0  0  0  0  0  0  0  0  0  0
   35.9570   29.8860   40.4700 C   0  0  0  0  0  0  0  0  0  0  0  0
   35.8350   31.1140   41.1540 F   0  0  0  0  0  0  0  0  0  0  0  0
   34.7700   29.7370   39.8370 F   0  0  0  0  0  0  0  0  0  0  0  0
   37.0490   30.1100   39.6560 F   0  0  0  0  0  0  0  0  0  0  0  0
   41.7637   30.6821   42.6556 H   0  0  0  0  0  0  0  0  0  0  0  0
   40.0332   28.9532   43.1569 H   0  0  0  0  0  0  0  0  0  0  0  0
   38.4371   28.2225   43.9739 H   0  0  0  0  0  0  0  0  0  0  0  0
   36.8117   28.7957   44.3817 H   0  0  0  0  0  0  0  0  0  0  0  0
   37.2421   26.1968   43.8653 H   0  0  0  0  0  0  0  0  0  0  0  0
   35.7540   26.9914   43.2491 H   0  0  0  0  0  0  0  0  0  0  0  0
   38.3522   26.7993   41.6721 H   0  0  0  0  0  0  0  0  0  0  0  0
   37.0156   25.6076   41.5449 H   0  0  0  0  0  0  0  0  0  0  0  0
   35.5615   27.1392   40.5582 H   0  0  0  0  0  0  0  0  0  0  0  0
   37.1287   27.7060   39.9020 H   0  0  0  0  0  0  0  0  0  0  0  0
   35.4813   28.9992   42.1907 H   0  0  0  0  0  0  0  0  0  0  0  0
  1  2  2  0
  3  7  1  0
  3  2  1  0
  4  3  2  0
  5  4  1  0
  5  6  2  0
  6  1  1  0
  7  8  1  0
  9  8  1  0
 10  9  1  0
 11 12  1  0
 11 10  1  0
 12  7  1  0
 13 15  1  0
 13  5  1  0
 14 13  1  0
 16 13  1  0
 17 18  1  0
 17 12  1  0
 19 17  1  0
 20 17  1  0
  1 21  1  0
  2 22  1  0
  8 23  1  0
  8 24  1  0
  9 25  1  0
  9 26  1  0
 10 27  1  0
 10 28  1  0
 11 29  1  0
 11 30  1  0
 12 31  1  1
M  ISO  8  21  14  22  14  23  13  24  13  25  13  26  13  27  13  28  13
M  ISO  3  29  13  30  13  31  13
M  END
>  <minimizedAffinity>  (1) 
-5.86140919

>  <minimizedRMSD>  (1) 
2.31188226

$$$$
