
     RDKit          3D

 39 41  0  0  1  0  0  0  0  0999 V2000
   39.7400   31.0670   42.6830 C   0  0  0  0  0  0  0  0  0  0  0  0
   38.9970   29.8870   42.7500 C   0  0  0  0  0  0  0  0  0  0  0  0
   38.1230   29.5880   41.7070 C   0  0  0  0  0  0  0  0  0  0  0  0
   38.0380   30.4580   40.6790 N   0  0  0  0  0  0  0  0  0  0  0  0
   38.7630   31.5920   40.6320 C   0  0  0  0  0  0  0  0  0  0  0  0
   39.6130   31.9010   41.6280 N   0  0  0  0  0  0  0  0  0  0  0  0
   37.3090   28.4140   41.6680 N   0  0  0  0  0  0  0  0  0  0  0  0
   36.8640   27.8090   42.9470 C   0  0  0  0  0  0  0  0  0  0  0  0
   36.8550   26.3090   42.7180 C   0  0  0  0  0  0  0  0  0  0  0  0
   38.0050   25.9590   41.8170 C   0  0  0  0  0  0  0  0  0  0  0  0
   37.6850   26.4480   40.4300 C   0  0  0  0  0  0  0  0  0  0  0  0
   36.8700   27.7520   40.5180 C   0  0  2  0  0  0  0  0  0  0  0  0
   36.8850   28.4040   39.2520 N   0  0  0  0  0  0  0  0  0  0  0  0
   37.8930   28.3570   38.3630 C   0  0  0  0  0  0  0  0  0  0  0  0
   37.9170   28.9370   37.1110 C   0  0  0  0  0  0  0  0  0  0  0  0
   36.7810   29.6520   36.7140 C   0  0  0  0  0  0  0  0  0  0  0  0
   36.8060   30.2480   35.4250 N   0  0  0  0  0  0  0  0  0  0  0  0
   35.7470   29.7210   37.5860 N   0  0  0  0  0  0  0  0  0  0  0  0
   35.8130   29.1180   38.7970 C   0  0  0  0  0  0  0  0  0  0  0  0
   34.8050   29.2320   39.5480 O   0  0  0  0  0  0  0  0  0  0  0  0
   38.5000   32.3910   39.3960 C   0  0  0  0  0  0  0  0  0  0  0  0
   39.2990   31.9610   38.3480 F   0  0  0  0  0  0  0  0  0  0  0  0
   38.7080   33.7180   39.6420 F   0  0  0  0  0  0  0  0  0  0  0  0
   37.1620   32.2760   39.0550 F   0  0  0  0  0  0  0  0  0  0  0  0
   40.4354   31.3200   43.4969 H   0  0  0  0  0  0  0  0  0  0  0  0
   39.0995   29.2072   43.6087 H   0  0  0  0  0  0  0  0  0  0  0  0
   37.5627   28.0681   43.7561 H   0  0  0  0  0  0  0  0  0  0  0  0
   35.8710   28.1777   43.2437 H   0  0  0  0  0  0  0  0  0  0  0  0
   36.9640   25.7859   43.6795 H   0  0  0  0  0  0  0  0  0  0  0  0
   35.9055   26.0036   42.2542 H   0  0  0  0  0  0  0  0  0  0  0  0
   38.9229   26.4445   42.1799 H   0  0  0  0  0  0  0  0  0  0  0  0
   38.1615   24.8702   41.8081 H   0  0  0  0  0  0  0  0  0  0  0  0
   37.0979   25.6843   39.8988 H   0  0  0  0  0  0  0  0  0  0  0  0
   38.6210   26.6379   39.8842 H   0  0  0  0  0  0  0  0  0  0  0  0
   35.7865   27.6443   40.6745 H   0  0  0  0  0  0  0  0  0  0  0  0
   38.7912   27.7985   38.6650 H   0  0  0  0  0  0  0  0  0  0  0  0
   38.7927   28.8414   36.4522 H   0  0  0  0  0  0  0  0  0  0  0  0
   35.9929   30.7839   35.0896 H   0  0  0  0  0  0  0  0  0  0  0  0
   37.6372   30.1443   34.8257 H   0  0  0  0  0  0  0  0  0  0  0  0
  1  2  2  0
  3  2  1  0
  4  3  2  0
  5  4  1  0
  5  6  2  0
  6  1  1  0
  7  3  1  0
  7  8  1  0
  9  8  1  0
 10  9  1  0
 11 12  1  0
 11 10  1  0
 12  7  1  0
 13 12  1  0
 14 13  1  0
 15 14  2  0
 16 15  1  0
 16 18  2  0
 17 16  1  0
 18 19  1  0
 19 13  1  0
 19 20  2  0
 21 23  1  0
 21  5  1  0
 22 21  1  0
 24 21  1  0
  1 25  1  0
  2 26  1  0
  8 27  1  0
  8 28  1  0
  9 29  1  0
  9 30  1  0
 10 31  1  0
 10 32  1  0
 11 33  1  0
 11 34  1  0
 12 35  1  1
 14 36  1  0
 15 37  1  0
 17 38  1  0
 17 39  1  0
M  ISO  8  25  14  26  14  27  13  28  13  29  13  30  13  31  13  32  13
M  ISO  5  33  13  34  13  35  13  36  14  37  14
M  END
>  <minimizedAffinity>  (1) 
-5.83279371

>  <minimizedRMSD>  (1) 
1.24683762

$$$$
