
     RDKit          3D

 35 37  0  0  1  0  0  0  0  0999 V2000
   39.9340   31.2160   42.3530 C   0  0  0  0  0  0  0  0  0  0  0  0
   39.1500   30.0960   42.6540 C   0  0  0  0  0  0  0  0  0  0  0  0
   37.9570   29.9130   41.9560 C   0  0  0  0  0  0  0  0  0  0  0  0
   37.6320   30.8230   41.0330 N   0  0  0  0  0  0  0  0  0  0  0  0
   38.3880   31.8960   40.7480 C   0  0  0  0  0  0  0  0  0  0  0  0
   39.5470   32.0950   41.4100 N   0  0  0  0  0  0  0  0  0  0  0  0
   37.1020   28.8100   42.1940 N   0  0  0  0  0  0  0  0  0  0  0  0
   37.0070   28.2000   43.5260 C   0  0  0  0  0  0  0  0  0  0  0  0
   36.8240   26.7050   43.3030 C   0  0  0  0  0  0  0  0  0  0  0  0
   37.5770   26.2860   42.0740 C   0  0  0  0  0  0  0  0  0  0  0  0
   36.8680   26.8640   40.8530 C   0  0  0  0  0  0  0  0  0  0  0  0
   36.2840   28.2020   41.2090 C   0  0  2  0  0  0  0  0  0  0  0  0
   37.8020   32.7550   39.6800 C   0  0  0  0  0  0  0  0  0  0  0  0
   37.6830   34.0630   40.1040 F   0  0  0  0  0  0  0  0  0  0  0  0
   36.5890   32.2610   39.2860 F   0  0  0  0  0  0  0  0  0  0  0  0
   38.6100   32.7140   38.5560 F   0  0  0  0  0  0  0  0  0  0  0  0
   35.9600   28.9800   39.9940 C   0  0  0  0  0  0  0  0  0  0  0  0
   34.4980   29.2350   39.6470 C   0  0  0  0  0  0  0  0  0  0  0  0
   35.3450   28.4170   38.7510 C   0  0  0  0  0  0  0  0  0  0  0  0
   40.8778   31.3797   42.8937 H   0  0  0  0  0  0  0  0  0  0  0  0
   39.4678   29.3770   43.4234 H   0  0  0  0  0  0  0  0  0  0  0  0
   37.9276   28.3894   44.0975 H   0  0  0  0  0  0  0  0  0  0  0  0
   36.1687   28.6229   44.0991 H   0  0  0  0  0  0  0  0  0  0  0  0
   37.2089   26.1546   44.1742 H   0  0  0  0  0  0  0  0  0  0  0  0
   35.7548   26.4823   43.1714 H   0  0  0  0  0  0  0  0  0  0  0  0
   38.6071   26.6690   42.1211 H   0  0  0  0  0  0  0  0  0  0  0  0
   37.6096   25.1885   42.0072 H   0  0  0  0  0  0  0  0  0  0  0  0
   36.0634   26.1833   40.5381 H   0  0  0  0  0  0  0  0  0  0  0  0
   37.5871   26.9817   40.0290 H   0  0  0  0  0  0  0  0  0  0  0  0
   35.2980   28.1166   41.6892 H   0  0  0  0  0  0  0  0  0  0  0  0
   36.8735   29.5633   40.1817 H   0  0  0  0  0  0  0  0  0  0  0  0
   33.7009   28.7593   40.2372 H   0  0  0  0  0  0  0  0  0  0  0  0
   33.8711   30.1304   39.5238 H   0  0  0  0  0  0  0  0  0  0  0  0
   35.1685   27.3341   38.6719 H   0  0  0  0  0  0  0  0  0  0  0  0
   35.5975   28.4605   37.6813 H   0  0  0  0  0  0  0  0  0  0  0  0
  1  2  2  0
  3  7  1  0
  3  2  1  0
  4  3  2  0
  5  4  1  0
  5  6  2  0
  6  1  1  0
  7  8  1  0
  9  8  1  0
 10  9  1  0
 11 12  1  0
 11 10  1  0
 12  7  1  0
 13 14  1  0
 13  5  1  0
 15 13  1  0
 16 13  1  0
 17 12  1  0
 18 17  1  0
 19 18  1  0
 19 17  1  0
  1 20  1  0
  2 21  1  0
  8 22  1  0
  8 23  1  0
  9 24  1  0
  9 25  1  0
 10 26  1  0
 10 27  1  0
 11 28  1  0
 11 29  1  0
 12 30  1  1
 17 31  1  0
 18 32  1  0
 18 33  1  0
 19 34  1  0
 19 35  1  0
M  ISO  8  20  14  21  14  22  13  23  13  24  13  25  13  26  13  27  13
M  ISO  8  28  13  29  13  30  13  31  13  32  13  33  13  34  13  35  13
M  END
>  <minimizedAffinity>  (1) 
-5.62210703

>  <minimizedRMSD>  (1) 
1.84995401

$$$$
