
     RDKit          3D

 17 18  0  0  0  0  0  0  0  0999 V2000
   38.1140   29.1600   43.3890 C   0  0  0  0  0  0  0  0  0  0  0  0
   37.4600   28.0350   43.9660 C   0  0  0  0  0  0  0  0  0  0  0  0
   36.4990   27.3830   43.1960 C   0  0  0  0  0  0  0  0  0  0  0  0
   36.2390   27.8550   41.9410 N   0  0  0  0  0  0  0  0  0  0  0  0
   36.8790   28.9220   41.4320 C   0  0  0  0  0  0  0  0  0  0  0  0
   37.8090   29.5670   42.1560 N   0  0  0  0  0  0  0  0  0  0  0  0
   36.5760   29.3870   40.1050 N   0  0  0  0  0  0  0  0  0  0  0  0
   35.6520   28.8000   39.2940 C   0  0  0  0  0  0  0  0  0  0  0  0
   35.6970   29.5640   38.1480 C   0  0  0  0  0  0  0  0  0  0  0  0
   36.5980   30.5620   38.2550 N   0  0  0  0  0  0  0  0  0  0  0  0
   37.1440   30.4340   39.5000 C   0  0  0  0  0  0  0  0  0  0  0  0
   38.8793   29.6996   43.9663 H   0  0  0  0  0  0  0  0  0  0  0  0
   37.7043   27.6929   44.9825 H   0  0  0  0  0  0  0  0  0  0  0  0
   35.9618   26.5077   43.5901 H   0  0  0  0  0  0  0  0  0  0  0  0
   35.0202   27.9244   39.5040 H   0  0  0  0  0  0  0  0  0  0  0  0
   35.0763   29.3828   37.2581 H   0  0  0  0  0  0  0  0  0  0  0  0
   37.9201   31.0831   39.9317 H   0  0  0  0  0  0  0  0  0  0  0  0
  1  2  2  0
  3  2  1  0
  4  3  2  0
  5  4  1  0
  5  6  2  0
  6  1  1  0
  7  5  1  0
  8  7  1  0
  9 10  1  0
  9  8  2  0
 10 11  2  0
 11  7  1  0
  1 12  1  0
  2 13  1  0
  3 14  1  0
  8 15  1  0
  9 16  1  0
 11 17  1  0
M  ISO  6  12  14  13  14  14  14  15  14  16  14  17  14
M  END
>  <minimizedAffinity>  (1) 
-3.44159865

>  <minimizedRMSD>  (1) 
0.671061754

$$$$
