
     RDKit          3D

 40 42  0  0  1  0  0  0  0  0999 V2000
   38.9680   30.0670   42.7010 C   0  0  0  0  0  0  0  0  0  0  0  0
   39.4300   28.7540   42.8180 C   0  0  0  0  0  0  0  0  0  0  0  0
   38.7490   27.7350   42.1590 C   0  0  0  0  0  0  0  0  0  0  0  0
   37.6650   28.0740   41.4330 N   0  0  0  0  0  0  0  0  0  0  0  0
   37.2310   29.3460   41.3290 C   0  0  0  0  0  0  0  0  0  0  0  0
   37.8710   30.3410   41.9540 N   0  0  0  0  0  0  0  0  0  0  0  0
   39.1610   26.3860   42.2410 N   0  0  0  0  0  0  0  0  0  0  0  0
   39.8320   25.8440   43.4110 C   0  0  0  0  0  0  0  0  0  0  0  0
   40.8880   24.8710   42.9070 C   0  0  0  0  0  0  0  0  0  0  0  0
   41.3820   25.2940   41.5670 C   0  0  0  0  0  0  0  0  0  0  0  0
   40.2800   25.1550   40.5500 C   0  0  0  0  0  0  0  0  0  0  0  0
   38.9540   25.4260   41.1940 C   0  0  1  0  0  0  0  0  0  0  0  0
   38.3120   24.3010   41.7790 N   0  0  0  0  0  0  0  0  0  0  0  0
   38.3040   23.0970   41.0140 C   0  0  0  0  0  0  0  0  0  0  0  0
   37.2160   23.1730   39.9970 C   0  0  0  0  0  0  0  0  0  0  0  0
   36.3670   24.3160   40.4920 C   0  0  0  0  0  0  0  0  0  0  0  0
   36.8900   24.5590   41.9140 C   0  0  0  0  0  0  0  0  0  0  0  0
   36.0090   29.4580   40.4660 C   0  0  0  0  0  0  0  0  0  0  0  0
   36.2390   28.9870   39.2050 F   0  0  0  0  0  0  0  0  0  0  0  0
   35.5910   30.7710   40.4330 F   0  0  0  0  0  0  0  0  0  0  0  0
   34.9600   28.7440   41.0510 F   0  0  0  0  0  0  0  0  0  0  0  0
   39.4967   30.8818   43.2173 H   0  0  0  0  0  0  0  0  0  0  0  0
   40.3205   28.5285   43.4231 H   0  0  0  0  0  0  0  0  0  0  0  0
   40.3073   26.6544   43.9832 H   0  0  0  0  0  0  0  0  0  0  0  0
   39.1160   25.3373   44.0748 H   0  0  0  0  0  0  0  0  0  0  0  0
   41.7300   24.8506   43.6145 H   0  0  0  0  0  0  0  0  0  0  0  0
   40.4415   23.8691   42.8242 H   0  0  0  0  0  0  0  0  0  0  0  0
   41.7069   26.3440   41.6123 H   0  0  0  0  0  0  0  0  0  0  0  0
   42.2291   24.6563   41.2742 H   0  0  0  0  0  0  0  0  0  0  0  0
   40.2858   24.1329   40.1433 H   0  0  0  0  0  0  0  0  0  0  0  0
   40.4430   25.8792   39.7383 H   0  0  0  0  0  0  0  0  0  0  0  0
   38.2961   25.7721   40.3832 H   0  0  0  0  0  0  0  0  0  0  0  0
   39.2732   22.9753   40.5083 H   0  0  0  0  0  0  0  0  0  0  0  0
   38.1317   22.2370   41.6778 H   0  0  0  0  0  0  0  0  0  0  0  0
   36.6389   22.2371   39.9650 H   0  0  0  0  0  0  0  0  0  0  0  0
   37.5897   23.3228   38.9733 H   0  0  0  0  0  0  0  0  0  0  0  0
   36.5045   25.2088   39.8643 H   0  0  0  0  0  0  0  0  0  0  0  0
   35.2899   24.0944   40.4630 H   0  0  0  0  0  0  0  0  0  0  0  0
   36.4272   23.8649   42.6309 H   0  0  0  0  0  0  0  0  0  0  0  0
   36.6631   25.5650   42.2967 H   0  0  0  0  0  0  0  0  0  0  0  0
  1  2  2  0
  3  7  1  0
  3  2  1  0
  4  3  2  0
  5  4  1  0
  5  6  2  0
  6  1  1  0
  7  8  1  0
  9  8  1  0
 10  9  1  0
 11 12  1  0
 11 10  1  0
 12 13  1  0
 12  7  1  0
 13 14  1  0
 13 17  1  0
 15 16  1  0
 15 14  1  0
 16 17  1  0
 18 21  1  0
 18  5  1  0
 19 18  1  0
 20 18  1  0
  1 22  1  0
  2 23  1  0
  8 24  1  0
  8 25  1  0
  9 26  1  0
  9 27  1  0
 10 28  1  0
 10 29  1  0
 11 30  1  0
 11 31  1  0
 12 32  1  6
 14 33  1  0
 14 34  1  0
 15 35  1  0
 15 36  1  0
 16 37  1  0
 16 38  1  0
 17 39  1  0
 17 40  1  0
M  ISO  8  22  14  23  14  24  13  25  13  26  13  27  13  28  13  29  13
M  ISO  8  30  13  31  13  32  13  33  13  34  13  35  13  36  13  37  13
M  ISO  3  38  13  39  13  40  13
M  END
>  <minimizedAffinity>  (1) 
-5.30369043

>  <minimizedRMSD>  (1) 
2.71182966

$$$$
