
     RDKit          3D

 31 32  0  0  1  0  0  0  0  0999 V2000
   41.7660   31.2200   42.6160 C   0  0  0  0  0  0  0  0  0  0  0  0
   40.6380   30.3930   42.7180 C   0  0  0  0  0  0  0  0  0  0  0  0
   39.5740   30.6090   41.8470 C   0  0  0  0  0  0  0  0  0  0  0  0
   39.6850   31.6020   40.9500 N   0  0  0  0  0  0  0  0  0  0  0  0
   40.7800   32.3880   40.8680 C   0  0  0  0  0  0  0  0  0  0  0  0
   41.8150   32.2040   41.6910 N   0  0  0  0  0  0  0  0  0  0  0  0
   38.3960   29.8090   41.8900 N   0  0  0  0  0  0  0  0  0  0  0  0
   37.9170   29.2140   43.1290 C   0  0  0  0  0  0  0  0  0  0  0  0
   37.3180   27.8790   42.7550 C   0  0  0  0  0  0  0  0  0  0  0  0
   38.1190   27.2900   41.6110 C   0  0  0  0  0  0  0  0  0  0  0  0
   37.8050   28.0850   40.3650 C   0  0  0  0  0  0  0  0  0  0  0  0
   37.6110   29.5420   40.7260 C   0  0  1  0  0  0  0  0  0  0  0  0
   40.6680   33.4220   39.7930 C   0  0  0  0  0  0  0  0  0  0  0  0
   41.8240   33.4690   39.0310 F   0  0  0  0  0  0  0  0  0  0  0  0
   40.4010   34.6450   40.3350 F   0  0  0  0  0  0  0  0  0  0  0  0
   39.5750   33.1150   38.9730 F   0  0  0  0  0  0  0  0  0  0  0  0
   36.2010   29.9180   40.9200 C   0  0  0  0  0  0  0  0  0  0  0  0
   35.2150   29.2070   40.5960 O   0  0  0  0  0  0  0  0  0  0  0  0
   35.5400   31.0280   41.4520 O   0  0  0  0  0  0  0  0  0  0  0  0
   42.6180   31.0664   43.2946 H   0  0  0  0  0  0  0  0  0  0  0  0
   40.5950   29.5912   43.4699 H   0  0  0  0  0  0  0  0  0  0  0  0
   38.7517   29.0734   43.8315 H   0  0  0  0  0  0  0  0  0  0  0  0
   37.1761   29.8603   43.6223 H   0  0  0  0  0  0  0  0  0  0  0  0
   37.3553   27.2011   43.6205 H   0  0  0  0  0  0  0  0  0  0  0  0
   36.2696   28.0112   42.4493 H   0  0  0  0  0  0  0  0  0  0  0  0
   39.1940   27.3556   41.8350 H   0  0  0  0  0  0  0  0  0  0  0  0
   37.8573   26.2315   41.4657 H   0  0  0  0  0  0  0  0  0  0  0  0
   36.8843   27.6963   39.9054 H   0  0  0  0  0  0  0  0  0  0  0  0
   38.6394   27.9934   39.6541 H   0  0  0  0  0  0  0  0  0  0  0  0
   37.9454   30.1628   39.8817 H   0  0  0  0  0  0  0  0  0  0  0  0
   34.5505   31.0511   41.4744 H   0  0  0  0  0  0  0  0  0  0  0  0
  1  2  2  0
  3  7  1  0
  3  2  1  0
  4  3  2  0
  5  4  1  0
  5  6  2  0
  6  1  1  0
  7  8  1  0
  9  8  1  0
 10  9  1  0
 11 12  1  0
 11 10  1  0
 12 17  1  0
 12  7  1  0
 13 15  1  0
 13  5  1  0
 14 13  1  0
 16 13  1  0
 17 19  1  0
 18 17  2  0
  1 20  1  0
  2 21  1  0
  8 22  1  0
  8 23  1  0
  9 24  1  0
  9 25  1  0
 10 26  1  0
 10 27  1  0
 11 28  1  0
 11 29  1  0
 12 30  1  6
 19 31  1  0
M  ISO  8  20  14  21  14  22  13  23  13  24  13  25  13  26  13  27  13
M  ISO  4  28  13  29  13  30  13  31   3
M  END
>  <minimizedAffinity>  (1) 
-5.24204111

>  <minimizedRMSD>  (1) 
3.29250813

$$$$
