
     RDKit          3D

 44 46  0  0  1  0  0  0  0  0999 V2000
   39.6700   30.7880   42.6910 C   0  0  0  0  0  0  0  0  0  0  0  0
   38.9930   29.5950   42.3770 C   0  0  0  0  0  0  0  0  0  0  0  0
   38.2210   29.5770   41.2220 C   0  0  0  0  0  0  0  0  0  0  0  0
   38.1410   30.6870   40.4480 N   0  0  0  0  0  0  0  0  0  0  0  0
   38.8120   31.8160   40.7900 C   0  0  0  0  0  0  0  0  0  0  0  0
   39.5680   31.8730   41.8960 N   0  0  0  0  0  0  0  0  0  0  0  0
   37.5110   28.4040   40.8260 N   0  0  0  0  0  0  0  0  0  0  0  0
   37.0050   27.4580   41.7950 C   0  0  0  0  0  0  0  0  0  0  0  0
   37.1180   26.0760   41.1940 C   0  0  0  0  0  0  0  0  0  0  0  0
   38.3530   26.0390   40.3340 C   0  0  0  0  0  0  0  0  0  0  0  0
   38.0790   26.8850   39.1030 C   0  0  0  0  0  0  0  0  0  0  0  0
   37.2670   28.0870   39.4630 C   0  0  1  0  0  0  0  0  0  0  0  0
   35.8690   28.1170   38.9850 C   0  0  0  0  0  0  0  0  0  0  0  0
   35.1260   29.3150   39.5280 C   0  0  0  0  0  0  0  0  0  0  0  0
   33.6550   29.2540   39.1710 C   0  0  0  0  0  0  0  0  0  0  0  0
   33.4270   28.7080   37.7890 C   0  0  0  0  0  0  0  0  0  0  0  0
   34.6500   28.9910   36.9440 C   0  0  0  0  0  0  0  0  0  0  0  0
   35.8950   28.3430   37.4740 C   0  0  0  0  0  0  0  0  0  0  0  0
   38.5840   32.9140   39.7940 C   0  0  0  0  0  0  0  0  0  0  0  0
   39.6750   33.0400   38.9490 F   0  0  0  0  0  0  0  0  0  0  0  0
   38.3420   34.0870   40.4390 F   0  0  0  0  0  0  0  0  0  0  0  0
   37.4590   32.6230   39.0270 F   0  0  0  0  0  0  0  0  0  0  0  0
   40.2912   30.8365   43.5975 H   0  0  0  0  0  0  0  0  0  0  0  0
   39.0722   28.7082   43.0230 H   0  0  0  0  0  0  0  0  0  0  0  0
   37.5997   27.5141   42.7186 H   0  0  0  0  0  0  0  0  0  0  0  0
   35.9575   27.6848   42.0427 H   0  0  0  0  0  0  0  0  0  0  0  0
   37.1991   25.3266   41.9951 H   0  0  0  0  0  0  0  0  0  0  0  0
   36.2267   25.8491   40.5906 H   0  0  0  0  0  0  0  0  0  0  0  0
   39.2093   26.4500   40.8889 H   0  0  0  0  0  0  0  0  0  0  0  0
   38.5938   25.0048   40.0470 H   0  0  0  0  0  0  0  0  0  0  0  0
   37.5273   26.2832   38.3658 H   0  0  0  0  0  0  0  0  0  0  0  0
   39.0382   27.2179   38.6798 H   0  0  0  0  0  0  0  0  0  0  0  0
   37.6180   28.9392   38.8625 H   0  0  0  0  0  0  0  0  0  0  0  0
   35.3884   27.1780   39.2970 H   0  0  0  0  0  0  0  0  0  0  0  0
   35.2291   29.3354   40.6230 H   0  0  0  0  0  0  0  0  0  0  0  0
   35.5559   30.2238   39.0815 H   0  0  0  0  0  0  0  0  0  0  0  0
   33.1411   28.6065   39.8967 H   0  0  0  0  0  0  0  0  0  0  0  0
   33.2587   30.2798   39.1979 H   0  0  0  0  0  0  0  0  0  0  0  0
   33.2588   27.6223   37.8437 H   0  0  0  0  0  0  0  0  0  0  0  0
   32.5440   29.1859   37.3397 H   0  0  0  0  0  0  0  0  0  0  0  0
   34.8086   30.0790   36.9111 H   0  0  0  0  0  0  0  0  0  0  0  0
   34.4621   28.5715   35.9446 H   0  0  0  0  0  0  0  0  0  0  0  0
   36.0184   27.3688   36.9784 H   0  0  0  0  0  0  0  0  0  0  0  0
   36.7303   29.0271   37.2636 H   0  0  0  0  0  0  0  0  0  0  0  0
  2  1  2  0
  3  2  1  0
  4  5  1  0
  4  3  2  0
  5  6  2  0
  6  1  1  0
  7  3  1  0
  7  8  1  0
  9  8  1  0
 10  9  1  0
 11 12  1  0
 11 10  1  0
 12  7  1  0
 13 12  1  0
 13 14  1  0
 15 14  1  0
 16 15  1  0
 17 18  1  0
 17 16  1  0
 18 13  1  0
 19 21  1  0
 19  5  1  0
 20 19  1  0
 22 19  1  0
  1 23  1  0
  2 24  1  0
  8 25  1  0
  8 26  1  0
  9 27  1  0
  9 28  1  0
 10 29  1  0
 10 30  1  0
 11 31  1  0
 11 32  1  0
 12 33  1  6
 13 34  1  0
 14 35  1  0
 14 36  1  0
 15 37  1  0
 15 38  1  0
 16 39  1  0
 16 40  1  0
 17 41  1  0
 17 42  1  0
 18 43  1  0
 18 44  1  0
M  ISO  8  23  14  24  14  25  13  26  13  27  13  28  13  29  13  30  13
M  ISO  8  31  13  32  13  33  13  34  13  35  13  36  13  37  13  38  13
M  ISO  6  39  13  40  13  41  13  42  13  43  13  44  13
M  END
>  <minimizedAffinity>  (1) 
-5.23567581

>  <minimizedRMSD>  (1) 
1.73146701

$$$$
