
     RDKit          3D

 41 43  0  0  1  0  0  0  0  0999 V2000
   39.6010   30.8980   42.6650 C   0  0  0  0  0  0  0  0  0  0  0  0
   38.9550   29.6720   42.4790 C   0  0  0  0  0  0  0  0  0  0  0  0
   38.1640   29.5230   41.3480 C   0  0  0  0  0  0  0  0  0  0  0  0
   38.0510   30.5570   40.4800 N   0  0  0  0  0  0  0  0  0  0  0  0
   38.6900   31.7280   40.6910 C   0  0  0  0  0  0  0  0  0  0  0  0
   39.4650   31.9000   41.7840 N   0  0  0  0  0  0  0  0  0  0  0  0
   37.4570   28.3110   41.0580 N   0  0  0  0  0  0  0  0  0  0  0  0
   36.9540   27.4530   42.1250 C   0  0  0  0  0  0  0  0  0  0  0  0
   37.1410   26.0290   41.6630 C   0  0  0  0  0  0  0  0  0  0  0  0
   38.3610   25.9320   40.7640 C   0  0  0  0  0  0  0  0  0  0  0  0
   38.0190   26.6430   39.4730 C   0  0  0  0  0  0  0  0  0  0  0  0
   37.1970   27.8610   39.7380 C   0  0  1  0  0  0  0  0  0  0  0  0
   35.7560   27.7740   39.3470 C   0  0  0  0  0  0  0  0  0  0  0  0
   35.5680   26.9480   38.0980 C   0  0  0  0  0  0  0  0  0  0  0  0
   34.2670   27.4710   37.5060 C   0  0  0  0  0  0  0  0  0  0  0  0
   34.0880   28.8620   38.0600 C   0  0  0  0  0  0  0  0  0  0  0  0
   35.3550   29.1550   38.8010 C   0  0  0  0  0  0  0  0  0  0  0  0
   38.4270   32.7210   39.6200 C   0  0  0  0  0  0  0  0  0  0  0  0
   39.6060   33.0930   38.9900 F   0  0  0  0  0  0  0  0  0  0  0  0
   37.7930   33.8130   40.1270 F   0  0  0  0  0  0  0  0  0  0  0  0
   37.5590   32.1660   38.6780 F   0  0  0  0  0  0  0  0  0  0  0  0
   40.2341   31.0438   43.5526 H   0  0  0  0  0  0  0  0  0  0  0  0
   39.0697   28.8531   43.2045 H   0  0  0  0  0  0  0  0  0  0  0  0
   37.5210   27.6283   43.0511 H   0  0  0  0  0  0  0  0  0  0  0  0
   35.8952   27.6641   42.3356 H   0  0  0  0  0  0  0  0  0  0  0  0
   37.2803   25.3772   42.5381 H   0  0  0  0  0  0  0  0  0  0  0  0
   36.2508   25.7116   41.1001 H   0  0  0  0  0  0  0  0  0  0  0  0
   39.2236   26.4166   41.2447 H   0  0  0  0  0  0  0  0  0  0  0  0
   38.6255   24.8812   40.5744 H   0  0  0  0  0  0  0  0  0  0  0  0
   37.4514   25.9593   38.8246 H   0  0  0  0  0  0  0  0  0  0  0  0
   38.9543   26.9498   38.9819 H   0  0  0  0  0  0  0  0  0  0  0  0
   37.5220   28.6487   39.0424 H   0  0  0  0  0  0  0  0  0  0  0  0
   35.2086   27.3871   40.2191 H   0  0  0  0  0  0  0  0  0  0  0  0
   36.4043   27.0987   37.3995 H   0  0  0  0  0  0  0  0  0  0  0  0
   35.5364   25.8680   38.3043 H   0  0  0  0  0  0  0  0  0  0  0  0
   33.4255   26.8291   37.8055 H   0  0  0  0  0  0  0  0  0  0  0  0
   34.2980   27.4761   36.4064 H   0  0  0  0  0  0  0  0  0  0  0  0
   33.9415   29.5860   37.2449 H   0  0  0  0  0  0  0  0  0  0  0  0
   33.2045   28.9348   38.7112 H   0  0  0  0  0  0  0  0  0  0  0  0
   36.1263   29.5534   38.1254 H   0  0  0  0  0  0  0  0  0  0  0  0
   35.2349   29.9162   39.5860 H   0  0  0  0  0  0  0  0  0  0  0  0
  2  1  2  0
  3  2  1  0
  4  5  1  0
  4  3  2  0
  5  6  2  0
  6  1  1  0
  7  3  1  0
  7  8  1  0
  9  8  1  0
 10  9  1  0
 11 12  1  0
 11 10  1  0
 12  7  1  0
 13 12  1  0
 14 13  1  0
 15 16  1  0
 15 14  1  0
 16 17  1  0
 17 13  1  0
 18 20  1  0
 18  5  1  0
 19 18  1  0
 21 18  1  0
  1 22  1  0
  2 23  1  0
  8 24  1  0
  8 25  1  0
  9 26  1  0
  9 27  1  0
 10 28  1  0
 10 29  1  0
 11 30  1  0
 11 31  1  0
 12 32  1  6
 13 33  1  0
 14 34  1  0
 14 35  1  0
 15 36  1  0
 15 37  1  0
 16 38  1  0
 16 39  1  0
 17 40  1  0
 17 41  1  0
M  ISO  8  22  14  23  14  24  13  25  13  26  13  27  13  28  13  29  13
M  ISO  8  30  13  31  13  32  13  33  13  34  13  35  13  36  13  37  13
M  ISO  4  38  13  39  13  40  13  41  13
M  END
>  <minimizedAffinity>  (1) 
-5.16650629

>  <minimizedRMSD>  (1) 
1.60025632

$$$$
