
     RDKit          3D

 30 31  0  0  1  0  0  0  0  0999 V2000
   40.2880   29.5950   39.1690 C   0  0  0  0  0  0  0  0  0  0  0  0
   40.1690   28.8380   40.3440 C   0  0  0  0  0  0  0  0  0  0  0  0
   38.9640   28.8780   41.0410 C   0  0  0  0  0  0  0  0  0  0  0  0
   37.9690   29.6440   40.5520 N   0  0  0  0  0  0  0  0  0  0  0  0
   38.1090   30.3620   39.4210 C   0  0  0  0  0  0  0  0  0  0  0  0
   39.2520   30.3460   38.7280 N   0  0  0  0  0  0  0  0  0  0  0  0
   38.7570   28.1440   42.2370 N   0  0  0  0  0  0  0  0  0  0  0  0
   39.8550   27.8620   43.1530 C   0  0  0  0  0  0  0  0  0  0  0  0
   39.6100   26.4740   43.7180 C   0  0  0  0  0  0  0  0  0  0  0  0
   38.9400   25.6210   42.6670 C   0  0  0  0  0  0  0  0  0  0  0  0
   37.5300   26.1220   42.4810 C   0  0  0  0  0  0  0  0  0  0  0  0
   37.4890   27.6260   42.6450 C   0  0  1  0  0  0  0  0  0  0  0  0
   36.8620   31.1330   39.0830 C   0  0  0  0  0  0  0  0  0  0  0  0
   36.0900   30.4290   38.1740 F   0  0  0  0  0  0  0  0  0  0  0  0
   37.1860   32.3580   38.5880 F   0  0  0  0  0  0  0  0  0  0  0  0
   36.1210   31.3520   40.2360 F   0  0  0  0  0  0  0  0  0  0  0  0
   37.1170   28.0580   44.0160 C   0  0  0  0  0  0  0  0  0  0  0  0
   36.0860   27.4330   44.3000 O   0  0  0  0  0  0  0  0  0  0  0  0
   41.2303   29.5781   38.6018 H   0  0  0  0  0  0  0  0  0  0  0  0
   41.0085   28.2266   40.7066 H   0  0  0  0  0  0  0  0  0  0  0  0
   40.8137   27.8877   42.6142 H   0  0  0  0  0  0  0  0  0  0  0  0
   39.9015   28.6123   43.9560 H   0  0  0  0  0  0  0  0  0  0  0  0
   40.5695   26.0188   44.0045 H   0  0  0  0  0  0  0  0  0  0  0  0
   38.9624   26.5449   44.6043 H   0  0  0  0  0  0  0  0  0  0  0  0
   39.4908   25.6986   41.7180 H   0  0  0  0  0  0  0  0  0  0  0  0
   38.9299   24.5674   42.9830 H   0  0  0  0  0  0  0  0  0  0  0  0
   36.8757   25.6557   43.2323 H   0  0  0  0  0  0  0  0  0  0  0  0
   37.1840   25.8595   41.4704 H   0  0  0  0  0  0  0  0  0  0  0  0
   36.6908   28.0353   42.0083 H   0  0  0  0  0  0  0  0  0  0  0  0
   37.6479   28.7839   44.6494 H   0  0  0  0  0  0  0  0  0  0  0  0
  1  2  2  0
  2  3  1  0
  3  7  1  0
  4  3  2  0
  5  4  1  0
  6  1  1  0
  6  5  2  0
  7 12  1  0
  7  8  1  0
  8  9  1  0
 10  9  1  0
 11 12  1  0
 11 10  1  0
 12 17  1  0
 13  5  1  0
 13 16  1  0
 14 13  1  0
 15 13  1  0
 17 18  2  0
  1 19  1  0
  2 20  1  0
  8 21  1  0
  8 22  1  0
  9 23  1  0
  9 24  1  0
 10 25  1  0
 10 26  1  0
 11 27  1  0
 11 28  1  0
 12 29  1  6
 17 30  1  0
M  ISO  8  19  14  20  14  21  13  22  13  23  13  24  13  25  13  26  13
M  ISO  4  27  13  28  13  29  13  30   6
M  END
>  <minimizedAffinity>  (1) 
-4.9047718

>  <minimizedRMSD>  (1) 
2.71671295

$$$$
