
     RDKit          3D

 30 31  0  0  1  0  0  0  0  0999 V2000
   39.2720   30.0540   42.6800 C   0  0  0  0  0  0  0  0  0  0  0  0
   38.6920   28.7720   42.6250 C   0  0  0  0  0  0  0  0  0  0  0  0
   37.7660   28.4980   41.6260 C   0  0  0  0  0  0  0  0  0  0  0  0
   37.4670   29.4880   40.7500 N   0  0  0  0  0  0  0  0  0  0  0  0
   38.0280   30.7080   40.8160 C   0  0  0  0  0  0  0  0  0  0  0  0
   38.9330   30.9970   41.7810 N   0  0  0  0  0  0  0  0  0  0  0  0
   37.1420   27.2300   41.5090 N   0  0  0  0  0  0  0  0  0  0  0  0
   36.9010   26.3840   42.6690 C   0  0  0  0  0  0  0  0  0  0  0  0
   37.0770   24.9520   42.2120 C   0  0  0  0  0  0  0  0  0  0  0  0
   38.1670   24.9110   41.1600 C   0  0  0  0  0  0  0  0  0  0  0  0
   37.6480   25.5580   39.8950 C   0  0  0  0  0  0  0  0  0  0  0  0
   36.7050   26.6850   40.2630 C   0  0  2  0  0  0  0  0  0  0  0  0
   37.5380   31.6230   39.7440 C   0  0  0  0  0  0  0  0  0  0  0  0
   38.5140   31.8840   38.8190 F   0  0  0  0  0  0  0  0  0  0  0  0
   37.0670   32.7840   40.2960 F   0  0  0  0  0  0  0  0  0  0  0  0
   36.4240   31.0350   39.1210 F   0  0  0  0  0  0  0  0  0  0  0  0
   36.5800   27.6860   39.2350 N   0  0  0  0  0  0  0  0  0  0  0  0
   40.0079   30.2868   43.4637 H   0  0  0  0  0  0  0  0  0  0  0  0
   38.9672   28.0011   43.3599 H   0  0  0  0  0  0  0  0  0  0  0  0
   37.6230   26.6186   43.4650 H   0  0  0  0  0  0  0  0  0  0  0  0
   35.8909   26.5474   43.0728 H   0  0  0  0  0  0  0  0  0  0  0  0
   37.3636   24.3225   43.0674 H   0  0  0  0  0  0  0  0  0  0  0  0
   36.1340   24.5731   41.7911 H   0  0  0  0  0  0  0  0  0  0  0  0
   39.0496   25.4596   41.5206 H   0  0  0  0  0  0  0  0  0  0  0  0
   38.4514   23.8680   40.9568 H   0  0  0  0  0  0  0  0  0  0  0  0
   37.1107   24.8104   39.2931 H   0  0  0  0  0  0  0  0  0  0  0  0
   38.4907   25.9568   39.3112 H   0  0  0  0  0  0  0  0  0  0  0  0
   35.6864   26.2825   40.3652 H   0  0  0  0  0  0  0  0  0  0  0  0
   36.4643   28.6124   39.6701 H   0  0  0  0  0  0  0  0  0  0  0  0
   37.4277   27.6849   38.6499 H   0  0  0  0  0  0  0  0  0  0  0  0
  2  1  2  0
  3  2  1  0
  4  5  1  0
  4  3  2  0
  5  6  2  0
  6  1  1  0
  7  3  1  0
  7  8  1  0
  9  8  1  0
 10  9  1  0
 11 12  1  0
 11 10  1  0
 12  7  1  0
 13 15  1  0
 13  5  1  0
 14 13  1  0
 16 13  1  0
 17 12  1  0
  1 18  1  0
  2 19  1  0
  8 20  1  0
  8 21  1  0
  9 22  1  0
  9 23  1  0
 10 24  1  0
 10 25  1  0
 11 26  1  0
 11 27  1  0
 12 28  1  1
 17 29  1  0
 17 30  1  0
M  ISO  8  18  14  19  14  20  13  21  13  22  13  23  13  24  13  25  13
M  ISO  5  26  13  27  13  28  13  29   5  30   5
M  END
>  <minimizedAffinity>  (1) 
-4.53189135

>  <minimizedRMSD>  (1) 
0.0155461309

$$$$
