
     RDKit          3D

 29 30  0  0  1  0  0  0  0  0999 V2000
   37.6350   29.3780   42.7740 C   0  0  0  0  0  0  0  0  0  0  0  0
   37.6510   27.9910   42.6060 C   0  0  0  0  0  0  0  0  0  0  0  0
   37.3500   27.4650   41.3530 C   0  0  0  0  0  0  0  0  0  0  0  0
   37.0550   28.3230   40.3570 N   0  0  0  0  0  0  0  0  0  0  0  0
   37.0420   29.6560   40.5350 C   0  0  0  0  0  0  0  0  0  0  0  0
   37.3320   30.1910   41.7420 N   0  0  0  0  0  0  0  0  0  0  0  0
   37.3440   26.0700   41.1070 N   0  0  0  0  0  0  0  0  0  0  0  0
   36.9890   25.1110   42.1420 C   0  0  0  0  0  0  0  0  0  0  0  0
   37.8690   23.8830   41.9190 C   0  0  0  0  0  0  0  0  0  0  0  0
   39.2160   24.3340   41.3950 C   0  0  0  0  0  0  0  0  0  0  0  0
   39.0160   24.8110   39.9750 C   0  0  0  0  0  0  0  0  0  0  0  0
   37.6760   25.4910   39.8420 C   0  0  1  0  0  0  0  0  0  0  0  0
   36.6880   30.4000   39.2870 C   0  0  0  0  0  0  0  0  0  0  0  0
   37.6990   30.2920   38.3470 F   0  0  0  0  0  0  0  0  0  0  0  0
   36.4490   31.7090   39.5720 F   0  0  0  0  0  0  0  0  0  0  0  0
   35.5200   29.8760   38.7540 F   0  0  0  0  0  0  0  0  0  0  0  0
   36.3960   24.4300   39.1750 S   0  0  0  0  0  0  0  0  0  0  0  0
   37.8718   29.8106   43.7572 H   0  0  0  0  0  0  0  0  0  0  0  0
   37.8968   27.3273   43.4481 H   0  0  0  0  0  0  0  0  0  0  0  0
   37.1795   25.5388   43.1373 H   0  0  0  0  0  0  0  0  0  0  0  0
   35.9219   24.8490   42.0910 H   0  0  0  0  0  0  0  0  0  0  0  0
   38.0033   23.3472   42.8703 H   0  0  0  0  0  0  0  0  0  0  0  0
   37.3922   23.2098   41.1913 H   0  0  0  0  0  0  0  0  0  0  0  0
   39.6044   25.1550   42.0155 H   0  0  0  0  0  0  0  0  0  0  0  0
   39.9402   23.5067   41.4268 H   0  0  0  0  0  0  0  0  0  0  0  0
   39.8130   25.5229   39.7144 H   0  0  0  0  0  0  0  0  0  0  0  0
   39.0507   23.9464   39.2958 H   0  0  0  0  0  0  0  0  0  0  0  0
   37.7491   26.2905   39.0900 H   0  0  0  0  0  0  0  0  0  0  0  0
   35.6994   23.8526   40.2037 H   0  0  0  0  0  0  0  0  0  0  0  0
  2  1  2  0
  3  2  1  0
  4  5  1  0
  4  3  2  0
  5  6  2  0
  6  1  1  0
  7  3  1  0
  7  8  1  0
  9  8  1  0
 10  9  1  0
 11 10  1  0
 12 11  1  0
 12  7  1  0
 13 15  1  0
 13  5  1  0
 14 13  1  0
 16 13  1  0
 17 12  1  0
  1 18  1  0
  2 19  1  0
  8 20  1  0
  8 21  1  0
  9 22  1  0
  9 23  1  0
 10 24  1  0
 10 25  1  0
 11 26  1  0
 11 27  1  0
 12 28  1  6
 17 29  1  0
M  ISO  8  18  14  19  14  20  13  21  13  22  13  23  13  24  13  25  13
M  ISO  4  26  13  27  13  28  13  29  11
M  END
>  <minimizedAffinity>  (1) 
-4.37152719

>  <minimizedRMSD>  (1) 
1.55348229

$$$$
