
     RDKit          3D

 35 39  0  0  0  0  0  0  0  0999 V2000
   37.7380   28.7540   43.5300 C   0  0  0  0  0  0  0  0  0  0  0  0
   37.9230   27.3910   43.2910 C   0  0  0  0  0  0  0  0  0  0  0  0
   37.6620   26.9190   41.9950 C   0  0  0  0  0  0  0  0  0  0  0  0
   37.2530   27.8040   41.0600 N   0  0  0  0  0  0  0  0  0  0  0  0
   37.0860   29.1140   41.3280 C   0  0  0  0  0  0  0  0  0  0  0  0
   37.3330   29.5730   42.5710 N   0  0  0  0  0  0  0  0  0  0  0  0
   37.7740   25.6010   41.5170 N   0  0  0  0  0  0  0  0  0  0  0  0
   37.0890   24.5820   41.9930 C   0  0  0  0  0  0  0  0  0  0  0  0
   37.4610   23.4740   41.2920 N   0  0  0  0  0  0  0  0  0  0  0  0
   38.3910   23.8290   40.3740 C   0  0  0  0  0  0  0  0  0  0  0  0
   39.1270   23.1780   39.3990 C   0  0  0  0  0  0  0  0  0  0  0  0
   38.9530   21.9440   39.2610 O   0  0  0  0  0  0  0  0  0  0  0  0
   39.9880   23.8790   38.6460 N   0  0  0  0  0  0  0  0  0  0  0  0
   40.1630   25.2120   38.8120 C   0  0  0  0  0  0  0  0  0  0  0  0
   41.0890   25.9720   38.0130 N   0  0  0  0  0  0  0  0  0  0  0  0
   39.4540   25.8510   39.7530 N   0  0  0  0  0  0  0  0  0  0  0  0
   38.5970   25.1950   40.5140 C   0  0  0  0  0  0  0  0  0  0  0  0
   40.5550   22.1980   34.2540 N   0  0  0  0  0  0  0  0  0  0  0  0
   39.2790   22.5330   34.4850 C   0  0  0  0  0  0  0  0  0  0  0  0
   39.2370   22.9840   35.7280 N   0  0  0  0  0  0  0  0  0  0  0  0
   40.4090   22.9770   36.3590 C   0  0  0  0  0  0  0  0  0  0  0  0
   40.8020   23.3470   37.6140 C   0  0  0  0  0  0  0  0  0  0  0  0
   42.1090   23.1530   37.7960 N   0  0  0  0  0  0  0  0  0  0  0  0
   42.9800   22.6660   36.9160 C   0  0  0  0  0  0  0  0  0  0  0  0
   42.5520   22.3070   35.6710 N   0  0  0  0  0  0  0  0  0  0  0  0
   41.2240   22.4660   35.3790 C   0  0  0  0  0  0  0  0  0  0  0  0
   37.9326   29.1560   44.5353 H   0  0  0  0  0  0  0  0  0  0  0  0
   38.2606   26.7125   44.0883 H   0  0  0  0  0  0  0  0  0  0  0  0
   36.7508   29.8031   40.5388 H   0  0  0  0  0  0  0  0  0  0  0  0
   36.3510   24.6185   42.8079 H   0  0  0  0  0  0  0  0  0  0  0  0
   41.1938   26.9846   38.1695 H   0  0  0  0  0  0  0  0  0  0  0  0
   41.6466   25.5030   37.2849 H   0  0  0  0  0  0  0  0  0  0  0  0
   40.9434   21.8107   33.3822 H   0  0  0  0  0  0  0  0  0  0  0  0
   38.4362   22.4499   33.7830 H   0  0  0  0  0  0  0  0  0  0  0  0
   44.0392   22.5534   37.1905 H   0  0  0  0  0  0  0  0  0  0  0  0
  2  1  2  0
  3  2  1  0
  4  5  1  0
  4  3  2  0
  5  6  2  0
  6  1  1  0
  7  8  1  0
  7  3  1  0
  9  8  2  0
 10 17  2  0
 10  9  1  0
 11 10  1  0
 12 11  2  0
 13 14  1  0
 13 11  1  0
 14 16  2  0
 15 14  1  0
 16 17  1  0
 17  7  1  0
 18 19  1  0
 18 26  1  0
 19 20  2  0
 20 21  1  0
 21 22  2  0
 22 23  1  0
 22 13  1  0
 24 23  2  0
 25 24  1  0
 26 25  2  0
 26 21  1  0
  1 27  1  0
  2 28  1  0
  5 29  1  0
  8 30  1  0
 15 31  1  0
 15 32  1  0
 18 33  1  0
 19 34  1  0
 24 35  1  0
M  ISO  7  27  14  28  14  29  14  30  14  33   9  34  14  35  14
M  END
>  <minimizedAffinity>  (1) 
-4.33217859

>  <minimizedRMSD>  (1) 
0.31343472

$$$$
