
     RDKit          3D

 39 42  0  0  0  0  0  0  0  0999 V2000
   37.7540   28.7580   43.5250 C   0  0  0  0  0  0  0  0  0  0  0  0
   37.9430   27.3770   43.2920 C   0  0  0  0  0  0  0  0  0  0  0  0
   37.6660   26.9210   41.9970 C   0  0  0  0  0  0  0  0  0  0  0  0
   37.2390   27.7910   41.0380 N   0  0  0  0  0  0  0  0  0  0  0  0
   37.0730   29.1010   41.3110 C   0  0  0  0  0  0  0  0  0  0  0  0
   37.3340   29.5710   42.5560 N   0  0  0  0  0  0  0  0  0  0  0  0
   37.7770   25.5970   41.5190 N   0  0  0  0  0  0  0  0  0  0  0  0
   37.1050   24.5720   41.9960 C   0  0  0  0  0  0  0  0  0  0  0  0
   37.4680   23.4700   41.2940 N   0  0  0  0  0  0  0  0  0  0  0  0
   38.3830   23.8370   40.3690 C   0  0  0  0  0  0  0  0  0  0  0  0
   39.0880   23.1630   39.3980 C   0  0  0  0  0  0  0  0  0  0  0  0
   38.9240   21.9250   39.2520 O   0  0  0  0  0  0  0  0  0  0  0  0
   39.9590   23.8820   38.6150 N   0  0  0  0  0  0  0  0  0  0  0  0
   40.1300   25.2040   38.7800 C   0  0  0  0  0  0  0  0  0  0  0  0
   41.0270   25.9370   37.9710 N   0  0  0  0  0  0  0  0  0  0  0  0
   39.4370   25.8510   39.7290 N   0  0  0  0  0  0  0  0  0  0  0  0
   38.5770   25.1920   40.5140 C   0  0  0  0  0  0  0  0  0  0  0  0
   42.2230   22.9310   35.1710 N   0  0  0  0  0  0  0  0  0  0  0  0
   40.8070   22.7020   35.2380 C   0  0  0  0  0  0  0  0  0  0  0  0
   40.1430   23.5950   36.2630 C   0  0  0  0  0  0  0  0  0  0  0  0
   40.6480   23.1070   37.6350 C   0  0  0  0  0  0  0  0  0  0  0  0
   42.0820   22.9990   37.5740 C   0  0  0  0  0  0  0  0  0  0  0  0
   42.6990   23.6630   36.3330 C   0  0  0  0  0  0  0  0  0  0  0  0
   37.9573   29.1696   44.5246 H   0  0  0  0  0  0  0  0  0  0  0  0
   38.2889   26.6972   44.0846 H   0  0  0  0  0  0  0  0  0  0  0  0
   36.7263   29.7877   40.5247 H   0  0  0  0  0  0  0  0  0  0  0  0
   36.3765   24.6031   42.8196 H   0  0  0  0  0  0  0  0  0  0  0  0
   41.1413   26.9503   38.1163 H   0  0  0  0  0  0  0  0  0  0  0  0
   41.5666   25.4581   37.2359 H   0  0  0  0  0  0  0  0  0  0  0  0
   42.7072   22.0231   35.1258 H   0  0  0  0  0  0  0  0  0  0  0  0
   40.3662   22.9039   34.2506 H   0  0  0  0  0  0  0  0  0  0  0  0
   40.6428   21.6562   35.5370 H   0  0  0  0  0  0  0  0  0  0  0  0
   40.4301   24.6443   36.1002 H   0  0  0  0  0  0  0  0  0  0  0  0
   39.0463   23.5448   36.1940 H   0  0  0  0  0  0  0  0  0  0  0  0
   40.4057   22.0830   37.9556 H   0  0  0  0  0  0  0  0  0  0  0  0
   42.5047   23.4770   38.4700 H   0  0  0  0  0  0  0  0  0  0  0  0
   42.3216   21.9269   37.5177 H   0  0  0  0  0  0  0  0  0  0  0  0
   43.7966   23.6134   36.3858 H   0  0  0  0  0  0  0  0  0  0  0  0
   42.4086   24.7223   36.2725 H   0  0  0  0  0  0  0  0  0  0  0  0
  2  1  2  0
  3  2  1  0
  4  5  1  0
  4  3  2  0
  5  6  2  0
  6  1  1  0
  7  8  1  0
  7  3  1  0
  9  8  2  0
 10 17  2  0
 10  9  1  0
 11 10  1  0
 12 11  2  0
 13 14  1  0
 13 11  1  0
 14 16  2  0
 15 14  1  0
 16 17  1  0
 17  7  1  0
 18 19  1  0
 18 23  1  0
 19 20  1  0
 20 21  1  0
 21 13  1  0
 22 21  1  0
 23 22  1  0
  1 24  1  0
  2 25  1  0
  5 26  1  0
  8 27  1  0
 15 28  1  0
 15 29  1  0
 18 30  1  0
 19 31  1  0
 19 32  1  0
 20 33  1  0
 20 34  1  0
 21 35  1  0
 22 36  1  0
 22 37  1  0
 23 38  1  0
 23 39  1  0
M  ISO  8  24  14  25  14  26  14  27  14  30   5  31  13  32  13  33  13
M  ISO  6  34  13  35  13  36  13  37  13  38  13  39  13
M  END
>  <minimizedAffinity>  (1) 
-4.26281595

>  <minimizedRMSD>  (1) 
0.488888443

$$$$
