
     RDKit          3D

 34 37  0  0  1  0  0  0  0  0999 V2000
   37.6520   28.7100   43.5660 C   0  0  0  0  0  0  0  0  0  0  0  0
   37.7990   27.3490   43.3130 C   0  0  0  0  0  0  0  0  0  0  0  0
   37.6250   26.9110   41.9950 C   0  0  0  0  0  0  0  0  0  0  0  0
   37.3270   27.8230   41.0470 N   0  0  0  0  0  0  0  0  0  0  0  0
   37.1910   29.1350   41.3200 C   0  0  0  0  0  0  0  0  0  0  0  0
   37.3570   29.5640   42.5950 N   0  0  0  0  0  0  0  0  0  0  0  0
   37.7230   25.5920   41.4990 N   0  0  0  0  0  0  0  0  0  0  0  0
   36.9630   24.5910   41.8900 C   0  0  0  0  0  0  0  0  0  0  0  0
   37.3460   23.4850   41.1970 N   0  0  0  0  0  0  0  0  0  0  0  0
   38.3670   23.8230   40.3620 C   0  0  0  0  0  0  0  0  0  0  0  0
   39.1520   23.1610   39.4360 C   0  0  0  0  0  0  0  0  0  0  0  0
   38.9360   21.9350   39.2560 O   0  0  0  0  0  0  0  0  0  0  0  0
   40.1010   23.8530   38.7750 N   0  0  0  0  0  0  0  0  0  0  0  0
   40.3150   25.1640   38.9820 C   0  0  0  0  0  0  0  0  0  0  0  0
   41.3230   25.8840   38.2770 N   0  0  0  0  0  0  0  0  0  0  0  0
   39.5640   25.8180   39.8750 N   0  0  0  0  0  0  0  0  0  0  0  0
   38.6150   25.1830   40.5520 C   0  0  0  0  0  0  0  0  0  0  0  0
   40.6330   23.6950   36.5000 N   0  0  0  0  0  0  0  0  0  0  0  0
   41.8420   24.1270   35.8800 C   0  0  0  0  0  0  0  0  0  0  0  0
   42.9770   23.9390   36.8530 C   0  0  0  0  0  0  0  0  0  0  0  0
   42.3910   23.2500   38.0550 C   0  0  0  0  0  0  0  0  0  0  0  0
   40.9270   23.1610   37.8020 C   0  0  1  0  0  0  0  0  0  0  0  0
   37.7831   29.0847   44.5919 H   0  0  0  0  0  0  0  0  0  0  0  0
   38.0432   26.6428   44.1202 H   0  0  0  0  0  0  0  0  0  0  0  0
   36.9485   29.8488   40.5189 H   0  0  0  0  0  0  0  0  0  0  0  0
   36.1619   24.6401   42.6422 H   0  0  0  0  0  0  0  0  0  0  0  0
   41.4613   26.8883   38.4592 H   0  0  0  0  0  0  0  0  0  0  0  0
   41.9132   25.4000   37.5854 H   0  0  0  0  0  0  0  0  0  0  0  0
   39.6944   23.7560   36.0802 H   0  0  0  0  0  0  0  0  0  0  0  0
   41.9313   24.5305   34.8606 H   0  0  0  0  0  0  0  0  0  0  0  0
   44.0244   24.2444   36.7125 H   0  0  0  0  0  0  0  0  0  0  0  0
   42.8216   22.2440   38.1669 H   0  0  0  0  0  0  0  0  0  0  0  0
   42.6075   23.8017   38.9817 H   0  0  0  0  0  0  0  0  0  0  0  0
   40.6795   22.0920   37.8791 H   0  0  0  0  0  0  0  0  0  0  0  0
  2  1  2  0
  3  2  1  0
  4  5  1  0
  4  3  2  0
  5  6  2  0
  6  1  1  0
  7  8  1  0
  7  3  1  0
  9  8  2  0
 10 17  2  0
 10  9  1  0
 11 10  1  0
 12 11  2  0
 13 14  1  0
 13 11  1  0
 14 16  2  0
 15 14  1  0
 16 17  1  0
 17  7  1  0
 18 22  1  0
 19 18  1  0
 19 20  2  0
 20 21  1  0
 22 21  1  0
 22 13  1  0
  1 23  1  0
  2 24  1  0
  5 25  1  0
  8 26  1  0
 15 27  1  0
 15 28  1  0
 18 29  1  0
 19 30  1  0
 20 31  1  0
 21 32  1  0
 21 33  1  0
 22 34  1  6
M  ISO  8  23  14  24  14  25  14  26  14  30  13  31  13  32  13  33  13
M  ISO  1  34  13
M  END
>  <minimizedAffinity>  (1) 
-4.2037611

>  <minimizedRMSD>  (1) 
0.464842707

$$$$
