
     RDKit          3D

 31 34  0  0  0  0  0  0  0  0999 V2000
   37.7800   28.7530   43.4880 C   0  0  0  0  0  0  0  0  0  0  0  0
   38.0010   27.3870   43.2530 C   0  0  0  0  0  0  0  0  0  0  0  0
   37.6740   26.9180   41.9710 C   0  0  0  0  0  0  0  0  0  0  0  0
   37.1780   27.7680   41.0470 N   0  0  0  0  0  0  0  0  0  0  0  0
   36.9840   29.0790   41.3270 C   0  0  0  0  0  0  0  0  0  0  0  0
   37.2910   29.5520   42.5500 N   0  0  0  0  0  0  0  0  0  0  0  0
   37.8030   25.5950   41.4890 N   0  0  0  0  0  0  0  0  0  0  0  0
   37.1740   24.5490   41.9990 C   0  0  0  0  0  0  0  0  0  0  0  0
   37.5470   23.4580   41.2760 N   0  0  0  0  0  0  0  0  0  0  0  0
   38.4150   23.8450   40.3140 C   0  0  0  0  0  0  0  0  0  0  0  0
   39.1190   23.2100   39.3020 C   0  0  0  0  0  0  0  0  0  0  0  0
   38.9900   21.9680   39.1540 O   0  0  0  0  0  0  0  0  0  0  0  0
   39.9260   23.9610   38.5050 N   0  0  0  0  0  0  0  0  0  0  0  0
   40.0710   25.2870   38.6540 C   0  0  0  0  0  0  0  0  0  0  0  0
   40.9190   26.0510   37.8150 N   0  0  0  0  0  0  0  0  0  0  0  0
   39.3900   25.9110   39.6350 N   0  0  0  0  0  0  0  0  0  0  0  0
   38.5870   25.2090   40.4410 C   0  0  0  0  0  0  0  0  0  0  0  0
   40.6310   23.2610   37.4760 C   0  0  0  0  0  0  0  0  0  0  0  0
   40.4520   23.0830   36.1420 C   0  0  0  0  0  0  0  0  0  0  0  0
   41.4590   22.3170   35.7270 N   0  0  0  0  0  0  0  0  0  0  0  0
   42.2690   22.0100   36.7750 C   0  0  0  0  0  0  0  0  0  0  0  0
   41.7530   22.6010   37.8780 N   0  0  0  0  0  0  0  0  0  0  0  0
   38.0189   29.1717   44.4768 H   0  0  0  0  0  0  0  0  0  0  0  0
   38.4073   26.7219   44.0292 H   0  0  0  0  0  0  0  0  0  0  0  0
   36.5777   29.7539   40.5593 H   0  0  0  0  0  0  0  0  0  0  0  0
   36.4778   24.5591   42.8506 H   0  0  0  0  0  0  0  0  0  0  0  0
   41.0058   27.0672   37.9586 H   0  0  0  0  0  0  0  0  0  0  0  0
   41.4488   25.5903   37.0614 H   0  0  0  0  0  0  0  0  0  0  0  0
   39.6368   23.4907   35.5262 H   0  0  0  0  0  0  0  0  0  0  0  0
   43.1788   21.3931   36.7339 H   0  0  0  0  0  0  0  0  0  0  0  0
   42.1340   22.5598   38.8341 H   0  0  0  0  0  0  0  0  0  0  0  0
  2  1  2  0
  3  2  1  0
  4  5  1  0
  4  3  2  0
  5  6  2  0
  6  1  1  0
  7  3  1  0
  7  8  1  0
  9  8  2  0
 10 17  2  0
 10  9  1  0
 11 10  1  0
 12 11  2  0
 13 14  1  0
 13 11  1  0
 14 16  2  0
 15 14  1  0
 16 17  1  0
 17  7  1  0
 18 22  1  0
 18 13  1  0
 19 18  2  0
 20 19  1  0
 20 21  2  0
 21 22  1  0
  1 23  1  0
  2 24  1  0
  5 25  1  0
  8 26  1  0
 15 27  1  0
 15 28  1  0
 19 29  1  0
 21 30  1  0
 22 31  1  0
M  ISO  7  23  14  24  14  25  14  26  14  29  14  30  14  31   9
M  END
>  <minimizedAffinity>  (1) 
-4.10034323

>  <minimizedRMSD>  (1) 
0.159219578

$$$$
