
     RDKit          3D

 31 34  0  0  0  0  0  0  0  0999 V2000
   37.8060   28.7260   43.5340 C   0  0  0  0  0  0  0  0  0  0  0  0
   37.9780   27.3710   43.2610 C   0  0  0  0  0  0  0  0  0  0  0  0
   37.7030   26.8820   41.9950 C   0  0  0  0  0  0  0  0  0  0  0  0
   37.2650   27.7740   41.0550 N   0  0  0  0  0  0  0  0  0  0  0  0
   37.1010   29.0840   41.3280 C   0  0  0  0  0  0  0  0  0  0  0  0
   37.3720   29.5480   42.5610 N   0  0  0  0  0  0  0  0  0  0  0  0
   37.8000   25.5780   41.5010 N   0  0  0  0  0  0  0  0  0  0  0  0
   37.1120   24.5510   42.0030 C   0  0  0  0  0  0  0  0  0  0  0  0
   37.4510   23.4490   41.2830 N   0  0  0  0  0  0  0  0  0  0  0  0
   38.3430   23.8010   40.3430 C   0  0  0  0  0  0  0  0  0  0  0  0
   39.0400   23.1460   39.3350 C   0  0  0  0  0  0  0  0  0  0  0  0
   38.8600   21.9070   39.1800 O   0  0  0  0  0  0  0  0  0  0  0  0
   39.8910   23.8750   38.5540 N   0  0  0  0  0  0  0  0  0  0  0  0
   40.0880   25.1870   38.7100 C   0  0  0  0  0  0  0  0  0  0  0  0
   40.9770   25.9140   37.8850 N   0  0  0  0  0  0  0  0  0  0  0  0
   39.4110   25.8190   39.6880 N   0  0  0  0  0  0  0  0  0  0  0  0
   38.5720   25.1690   40.4770 C   0  0  0  0  0  0  0  0  0  0  0  0
   40.5880   23.1320   37.5190 C   0  0  0  0  0  0  0  0  0  0  0  0
   41.1320   21.7750   37.7730 C   0  0  0  0  0  0  0  0  0  0  0  0
   42.0450   22.9490   37.5680 C   0  0  0  0  0  0  0  0  0  0  0  0
   38.0233   29.1211   44.5373 H   0  0  0  0  0  0  0  0  0  0  0  0
   38.3316   26.6906   44.0497 H   0  0  0  0  0  0  0  0  0  0  0  0
   36.7468   29.7709   40.5452 H   0  0  0  0  0  0  0  0  0  0  0  0
   36.4027   24.5890   42.8429 H   0  0  0  0  0  0  0  0  0  0  0  0
   41.1058   26.9253   38.0322 H   0  0  0  0  0  0  0  0  0  0  0  0
   41.4958   25.4323   37.1369 H   0  0  0  0  0  0  0  0  0  0  0  0
   39.8854   23.5539   36.7853 H   0  0  0  0  0  0  0  0  0  0  0  0
   41.0345   21.3177   38.7687 H   0  0  0  0  0  0  0  0  0  0  0  0
   41.0137   20.7839   37.3107 H   0  0  0  0  0  0  0  0  0  0  0  0
   42.6408   23.0284   36.6467 H   0  0  0  0  0  0  0  0  0  0  0  0
   42.8678   23.4041   38.1390 H   0  0  0  0  0  0  0  0  0  0  0  0
  2  1  2  0
  3  2  1  0
  4  5  1  0
  4  3  2  0
  5  6  2  0
  6  1  1  0
  7  3  1  0
  7  8  1  0
  9  8  2  0
 10 17  2  0
 10  9  1  0
 11 10  1  0
 12 11  2  0
 13 14  1  0
 13 11  1  0
 14 16  2  0
 15 14  1  0
 16 17  1  0
 17  7  1  0
 18 20  1  0
 18 19  1  0
 18 13  1  0
 20 19  1  0
  1 21  1  0
  2 22  1  0
  5 23  1  0
  8 24  1  0
 15 25  1  0
 15 26  1  0
 18 27  1  0
 19 28  1  0
 19 29  1  0
 20 30  1  0
 20 31  1  0
M  ISO  8  21  14  22  14  23  14  24  14  27  13  28  13  29  13  30  13
M  ISO  1  31  13
M  END
>  <minimizedAffinity>  (1) 
-4.07101631

>  <minimizedRMSD>  (1) 
0.122201957

$$$$
