
     RDKit          3D

 30 32  0  0  0  0  0  0  0  0999 V2000
   42.2850   32.6410   38.9650 C   0  0  0  0  0  0  0  0  0  0  0  0
   41.2450   32.3030   39.8270 C   0  0  0  0  0  0  0  0  0  0  0  0
   40.2870   31.4150   39.3850 C   0  0  0  0  0  0  0  0  0  0  0  0
   40.3970   30.9020   38.1200 N   0  0  0  0  0  0  0  0  0  0  0  0
   41.4170   31.2470   37.3070 C   0  0  0  0  0  0  0  0  0  0  0  0
   42.3460   32.1080   37.7320 N   0  0  0  0  0  0  0  0  0  0  0  0
   39.1490   30.9280   40.0680 N   0  0  0  0  0  0  0  0  0  0  0  0
   38.1790   31.6850   40.5190 C   0  0  0  0  0  0  0  0  0  0  0  0
   37.2700   30.8830   41.1070 N   0  0  0  0  0  0  0  0  0  0  0  0
   37.6890   29.6000   41.0160 C   0  0  0  0  0  0  0  0  0  0  0  0
   37.2030   28.3770   41.4180 C   0  0  0  0  0  0  0  0  0  0  0  0
   36.0950   28.3380   42.0320 O   0  0  0  0  0  0  0  0  0  0  0  0
   37.9370   27.2650   41.1360 N   0  0  0  0  0  0  0  0  0  0  0  0
   39.1050   27.3150   40.4880 C   0  0  0  0  0  0  0  0  0  0  0  0
   39.8400   26.1460   40.2100 N   0  0  0  0  0  0  0  0  0  0  0  0
   39.5850   28.5080   40.0920 N   0  0  0  0  0  0  0  0  0  0  0  0
   38.9090   29.6160   40.3430 C   0  0  0  0  0  0  0  0  0  0  0  0
   37.3660   26.0100   41.5860 C   0  0  0  0  0  0  0  0  0  0  0  0
   36.6820   26.1260   42.7600 F   0  0  0  0  0  0  0  0  0  0  0  0
   38.4410   25.1460   41.8540 F   0  0  0  0  0  0  0  0  0  0  0  0
   36.5680   25.4280   40.5940 F   0  0  0  0  0  0  0  0  0  0  0  0
   38.0110   33.1330   40.4500 C   0  0  0  0  0  0  0  0  0  0  0  0
   37.3120   33.7170   39.5820 O   0  0  0  0  0  0  0  0  0  0  0  0
   38.6150   34.0060   41.3440 O   0  0  0  0  0  0  0  0  0  0  0  0
   43.0608   33.3478   39.2945 H   0  0  0  0  0  0  0  0  0  0  0  0
   41.1889   32.7344   40.8373 H   0  0  0  0  0  0  0  0  0  0  0  0
   41.4836   30.8199   36.2955 H   0  0  0  0  0  0  0  0  0  0  0  0
   40.7379   26.2091   39.7092 H   0  0  0  0  0  0  0  0  0  0  0  0
   39.4796   25.2281   40.5075 H   0  0  0  0  0  0  0  0  0  0  0  0
   38.4712   34.9816   41.2569 H   0  0  0  0  0  0  0  0  0  0  0  0
  1  2  2  0
  3  2  1  0
  3  7  1  0
  4  3  2  0
  5  6  2  0
  5  4  1  0
  6  1  1  0
  7 17  1  0
  7  8  1  0
  8  9  2  0
 10  9  1  0
 10 11  1  0
 11 12  2  0
 13 11  1  0
 13 18  1  0
 14 13  1  0
 15 14  1  0
 16 17  1  0
 16 14  2  0
 17 10  2  0
 18 20  1  0
 18 19  1  0
 21 18  1  0
 22  8  1  0
 22 24  1  0
 23 22  2  0
  1 25  1  0
  2 26  1  0
  5 27  1  0
 15 28  1  0
 15 29  1  0
 24 30  1  0
M  ISO  4  25  14  26  14  27  14  30   3
M  END
>  <minimizedAffinity>  (1) 
-5.64798975

>  <minimizedRMSD>  (1) 
6.56306124

$$$$
