
     RDKit          3D

 43 46  0  0  0  0  0  0  0  0999 V2000
   37.0810   28.0260   43.5560 C   0  0  0  0  0  0  0  0  0  0  0  0
   38.4020   28.3890   43.3080 C   0  0  0  0  0  0  0  0  0  0  0  0
   38.8040   28.5290   41.9850 C   0  0  0  0  0  0  0  0  0  0  0  0
   37.8840   28.3030   41.0130 N   0  0  0  0  0  0  0  0  0  0  0  0
   36.6120   27.9530   41.2800 C   0  0  0  0  0  0  0  0  0  0  0  0
   36.2230   27.8170   42.5550 N   0  0  0  0  0  0  0  0  0  0  0  0
   40.0680   28.8840   41.4740 N   0  0  0  0  0  0  0  0  0  0  0  0
   41.1680   28.1840   41.6900 C   0  0  0  0  0  0  0  0  0  0  0  0
   42.1790   28.8130   41.0540 N   0  0  0  0  0  0  0  0  0  0  0  0
   41.7010   29.9150   40.4380 C   0  0  0  0  0  0  0  0  0  0  0  0
   42.2330   30.9280   39.6570 C   0  0  0  0  0  0  0  0  0  0  0  0
   43.4630   30.8990   39.4040 O   0  0  0  0  0  0  0  0  0  0  0  0
   41.3950   31.8960   39.2080 N   0  0  0  0  0  0  0  0  0  0  0  0
   40.0920   31.9160   39.4830 C   0  0  0  0  0  0  0  0  0  0  0  0
   39.2360   32.9430   39.0000 N   0  0  0  0  0  0  0  0  0  0  0  0
   39.5580   30.9330   40.2460 N   0  0  0  0  0  0  0  0  0  0  0  0
   40.3310   29.9670   40.7060 C   0  0  0  0  0  0  0  0  0  0  0  0
   41.4190   26.9220   42.4600 C   0  0  0  0  0  0  0  0  0  0  0  0
   41.3680   25.7290   41.5190 C   0  0  0  0  0  0  0  0  0  0  0  0
   39.9460   25.3150   41.3100 C   0  0  0  0  0  0  0  0  0  0  0  0
   39.5060   24.5270   42.5480 C   0  0  0  0  0  0  0  0  0  0  0  0
   40.0610   25.2240   43.7430 C   0  0  0  0  0  0  0  0  0  0  0  0
   40.3680   26.6920   43.5200 C   0  0  0  0  0  0  0  0  0  0  0  0
   42.0160   32.9270   38.3960 C   0  0  0  0  0  0  0  0  0  0  0  0
   43.2090   32.5330   37.8720 F   0  0  0  0  0  0  0  0  0  0  0  0
   42.2640   34.0140   39.2240 F   0  0  0  0  0  0  0  0  0  0  0  0
   41.1540   33.3460   37.3660 F   0  0  0  0  0  0  0  0  0  0  0  0
   36.7384   27.9094   44.5948 H   0  0  0  0  0  0  0  0  0  0  0  0
   39.1069   28.5600   44.1350 H   0  0  0  0  0  0  0  0  0  0  0  0
   35.8993   27.7804   40.4601 H   0  0  0  0  0  0  0  0  0  0  0  0
   38.2325   32.9283   39.2315 H   0  0  0  0  0  0  0  0  0  0  0  0
   39.6193   33.7019   38.4185 H   0  0  0  0  0  0  0  0  0  0  0  0
   42.4061   27.0270   42.9340 H   0  0  0  0  0  0  0  0  0  0  0  0
   41.8145   26.0058   40.5525 H   0  0  0  0  0  0  0  0  0  0  0  0
   41.9310   24.8926   41.9588 H   0  0  0  0  0  0  0  0  0  0  0  0
   39.3107   26.2045   41.1862 H   0  0  0  0  0  0  0  0  0  0  0  0
   39.8528   24.6964   40.4052 H   0  0  0  0  0  0  0  0  0  0  0  0
   38.4078   24.4999   42.6053 H   0  0  0  0  0  0  0  0  0  0  0  0
   39.8726   23.4911   42.4985 H   0  0  0  0  0  0  0  0  0  0  0  0
   39.3282   25.1451   44.5596 H   0  0  0  0  0  0  0  0  0  0  0  0
   41.0170   24.7337   43.9790 H   0  0  0  0  0  0  0  0  0  0  0  0
   40.7253   27.1229   44.4669 H   0  0  0  0  0  0  0  0  0  0  0  0
   39.4412   27.1724   43.1733 H   0  0  0  0  0  0  0  0  0  0  0  0
  2  1  2  0
  3  2  1  0
  4  5  1  0
  4  3  2  0
  5  6  2  0
  6  1  1  0
  7  8  1  0
  7  3  1  0
  8 18  1  0
  9  8  2  0
 10 17  2  0
 10  9  1  0
 11 10  1  0
 12 11  2  0
 13 14  1  0
 13 11  1  0
 14 16  2  0
 15 14  1  0
 16 17  1  0
 17  7  1  0
 18 23  1  0
 19 18  1  0
 20 19  1  0
 20 21  1  0
 21 22  1  0
 23 22  1  0
 24 13  1  0
 24 26  1  0
 25 24  1  0
 27 24  1  0
  1 28  1  0
  2 29  1  0
  5 30  1  0
 15 31  1  0
 15 32  1  0
 18 33  1  0
 19 34  1  0
 19 35  1  0
 20 36  1  0
 20 37  1  0
 21 38  1  0
 21 39  1  0
 22 40  1  0
 22 41  1  0
 23 42  1  0
 23 43  1  0
M  ISO  8  28  14  29  14  30  14  33  13  34  13  35  13  36  13  37  13
M  ISO  6  38  13  39  13  40  13  41  13  42  13  43  13
M  END
>  <minimizedAffinity>  (1) 
-5.55987263

>  <minimizedRMSD>  (1) 
6.61830997

$$$$
