
     RDKit          3D

 36 38  0  0  0  0  0  0  0  0999 V2000
   39.6520   32.1040   41.5020 C   0  0  0  0  0  0  0  0  0  0  0  0
   39.3930   30.7440   41.3680 C   0  0  0  0  0  0  0  0  0  0  0  0
   38.2520   30.3480   40.6950 C   0  0  0  0  0  0  0  0  0  0  0  0
   37.4340   31.3160   40.1940 N   0  0  0  0  0  0  0  0  0  0  0  0
   37.7060   32.6290   40.3360 C   0  0  0  0  0  0  0  0  0  0  0  0
   38.8190   33.0050   40.9930 N   0  0  0  0  0  0  0  0  0  0  0  0
   37.7830   29.0440   40.4350 N   0  0  0  0  0  0  0  0  0  0  0  0
   37.4820   28.1720   41.3760 C   0  0  0  0  0  0  0  0  0  0  0  0
   37.0700   27.0410   40.7740 N   0  0  0  0  0  0  0  0  0  0  0  0
   37.1190   27.2220   39.4230 C   0  0  0  0  0  0  0  0  0  0  0  0
   36.8300   26.4480   38.3130 C   0  0  0  0  0  0  0  0  0  0  0  0
   36.4140   25.2780   38.4860 O   0  0  0  0  0  0  0  0  0  0  0  0
   37.0150   27.0010   37.0830 N   0  0  0  0  0  0  0  0  0  0  0  0
   37.4590   28.2460   36.9110 C   0  0  0  0  0  0  0  0  0  0  0  0
   37.6420   28.8010   35.6130 N   0  0  0  0  0  0  0  0  0  0  0  0
   37.7430   29.0090   37.9800 N   0  0  0  0  0  0  0  0  0  0  0  0
   37.5820   28.5210   39.2000 C   0  0  0  0  0  0  0  0  0  0  0  0
   36.6940   26.1430   35.9610 C   0  0  0  0  0  0  0  0  0  0  0  0
   36.0160   25.0190   36.3250 F   0  0  0  0  0  0  0  0  0  0  0  0
   37.9030   25.7090   35.4190 F   0  0  0  0  0  0  0  0  0  0  0  0
   35.9920   26.8450   34.9680 F   0  0  0  0  0  0  0  0  0  0  0  0
   37.5260   28.2470   42.8640 C   0  0  0  0  0  0  0  0  0  0  0  0
   38.8310   27.6580   43.3930 C   0  0  0  0  0  0  0  0  0  0  0  0
   36.4020   27.4390   43.4600 C   0  0  0  0  0  0  0  0  0  0  0  0
   40.5552   32.4367   42.0345 H   0  0  0  0  0  0  0  0  0  0  0  0
   40.0827   29.9978   41.7894 H   0  0  0  0  0  0  0  0  0  0  0  0
   37.0250   33.3855   39.9190 H   0  0  0  0  0  0  0  0  0  0  0  0
   37.9866   29.7661   35.5095 H   0  0  0  0  0  0  0  0  0  0  0  0
   37.4299   28.2375   34.7773 H   0  0  0  0  0  0  0  0  0  0  0  0
   37.4391   29.3074   43.1435 H   0  0  0  0  0  0  0  0  0  0  0  0
   38.8169   27.6644   44.4929 H   0  0  0  0  0  0  0  0  0  0  0  0
   38.9388   26.6240   43.0337 H   0  0  0  0  0  0  0  0  0  0  0  0
   39.6778   28.2612   43.0337 H   0  0  0  0  0  0  0  0  0  0  0  0
   36.4616   27.4818   44.5576 H   0  0  0  0  0  0  0  0  0  0  0  0
   35.4378   27.8520   43.1287 H   0  0  0  0  0  0  0  0  0  0  0  0
   36.4863   26.3935   43.1287 H   0  0  0  0  0  0  0  0  0  0  0  0
  2  1  2  0
  3  2  1  0
  4  5  1  0
  4  3  2  0
  5  6  2  0
  6  1  1  0
  7  3  1  0
  7  8  1  0
  8 22  1  0
  9  8  2  0
 10  9  1  0
 11 12  2  0
 11 10  1  0
 13 11  1  0
 14 13  1  0
 14 16  2  0
 15 14  1  0
 16 17  1  0
 17 10  2  0
 17  7  1  0
 18 19  1  0
 18 13  1  0
 20 18  1  0
 21 18  1  0
 22 23  1  0
 22 24  1  0
  1 25  1  0
  2 26  1  0
  5 27  1  0
 15 28  1  0
 15 29  1  0
 22 30  1  0
 23 31  1  0
 23 32  1  0
 23 33  1  0
 24 34  1  0
 24 35  1  0
 24 36  1  0
M  ISO  8  25  14  26  14  27  14  30   8  31   8  32   8  33   8  34   8
M  ISO  2  35   8  36   8
M  END
>  <minimizedAffinity>  (1) 
-5.23098516

>  <minimizedRMSD>  (1) 
4.45896244

$$$$
