
     RDKit          3D

 29 31  0  0  1  0  0  0  0  0999 V2000
   37.4870   31.0320   40.9140 C   0  0  0  0  0  0  0  0  0  0  0  0
   36.3260   30.7710   40.1960 C   0  0  0  0  0  0  0  0  0  0  0  0
   35.8700   29.5970   40.7330 C   0  0  0  0  0  0  0  0  0  0  0  0
   36.7000   29.1640   41.7190 N   0  0  0  0  0  0  0  0  0  0  0  0
   37.6930   30.0510   41.8250 N   0  0  0  0  0  0  0  0  0  0  0  0
   39.7040   32.2260   40.9040 C   0  0  0  0  0  0  0  0  0  0  0  0
   38.3280   32.2070   40.6830 C   0  0  0  0  0  0  0  0  0  0  0  0
   37.7080   33.3750   40.2140 C   0  0  0  0  0  0  0  0  0  0  0  0
   38.4980   34.4820   39.9980 N   0  0  0  0  0  0  0  0  0  0  0  0
   39.8480   34.4390   40.2360 C   0  0  0  0  0  0  0  0  0  0  0  0
   40.4400   33.3150   40.6850 N   0  0  0  0  0  0  0  0  0  0  0  0
   37.0140   26.7860   41.9070 N   0  0  0  0  0  0  0  0  0  0  0  0
   38.3940   26.5840   42.2480 C   0  0  0  0  0  0  0  0  0  0  0  0
   38.6170   27.2790   43.5730 C   0  0  0  0  0  0  0  0  0  0  0  0
   37.4470   28.2070   43.7680 C   0  0  0  0  0  0  0  0  0  0  0  0
   36.6100   27.9920   42.5440 C   0  0  1  0  0  0  0  0  0  0  0  0
   35.8788   31.3672   39.3869 H   0  0  0  0  0  0  0  0  0  0  0  0
   34.9568   29.0753   40.4107 H   0  0  0  0  0  0  0  0  0  0  0  0
   40.1976   31.3139   41.2705 H   0  0  0  0  0  0  0  0  0  0  0  0
   36.6248   33.4055   40.0248 H   0  0  0  0  0  0  0  0  0  0  0  0
   40.4576   35.3371   40.0574 H   0  0  0  0  0  0  0  0  0  0  0  0
   36.9091   26.8711   40.8859 H   0  0  0  0  0  0  0  0  0  0  0  0
   38.6085   25.5092   42.3421 H   0  0  0  0  0  0  0  0  0  0  0  0
   39.0585   26.9888   41.4705 H   0  0  0  0  0  0  0  0  0  0  0  0
   38.6573   26.5410   44.3877 H   0  0  0  0  0  0  0  0  0  0  0  0
   39.5689   27.8303   43.5792 H   0  0  0  0  0  0  0  0  0  0  0  0
   36.8861   27.9442   44.6770 H   0  0  0  0  0  0  0  0  0  0  0  0
   37.7534   29.2559   43.8941 H   0  0  0  0  0  0  0  0  0  0  0  0
   35.5450   27.8605   42.7856 H   0  0  0  0  0  0  0  0  0  0  0  0
  1  5  2  0
  2  3  2  0
  2  1  1  0
  3  4  1  0
  4  5  1  0
  7  6  2  0
  7  1  1  0
  8  7  1  0
  9  8  2  0
  9 10  1  0
 10 11  2  0
 11  6  1  0
 12 13  1  0
 12 16  1  0
 13 14  1  0
 14 15  1  0
 16  4  1  0
 16 15  1  0
  2 17  1  0
  3 18  1  0
  6 19  1  0
  8 20  1  0
 10 21  1  0
 12 22  1  0
 13 23  1  0
 13 24  1  0
 14 25  1  0
 14 26  1  0
 15 27  1  0
 15 28  1  0
 16 29  1  1
M  ISO  8  17  14  18  14  19  14  20  14  21  14  22   5  23  13  24  13
M  ISO  5  25  13  26  13  27  13  28  13  29  13
M  END
>  <minimizedAffinity>  (1) 
-4.91597176

>  <minimizedRMSD>  (1) 
4.72713566

$$$$
