
     RDKit          3D

 28 30  0  0  0  0  0  0  0  0999 V2000
   37.9450   28.8690   43.3850 C   0  0  0  0  0  0  0  0  0  0  0  0
   38.0680   27.5080   43.1380 C   0  0  0  0  0  0  0  0  0  0  0  0
   37.9160   27.0510   41.8450 C   0  0  0  0  0  0  0  0  0  0  0  0
   37.6490   27.9730   40.8750 N   0  0  0  0  0  0  0  0  0  0  0  0
   37.5340   29.2870   41.1340 C   0  0  0  0  0  0  0  0  0  0  0  0
   37.6820   29.7280   42.3850 N   0  0  0  0  0  0  0  0  0  0  0  0
   37.9940   25.7340   41.3500 N   0  0  0  0  0  0  0  0  0  0  0  0
   37.1980   24.7520   41.7500 C   0  0  0  0  0  0  0  0  0  0  0  0
   37.5510   23.6430   41.0750 N   0  0  0  0  0  0  0  0  0  0  0  0
   38.5790   23.9390   40.2460 C   0  0  0  0  0  0  0  0  0  0  0  0
   39.3450   23.2420   39.3320 C   0  0  0  0  0  0  0  0  0  0  0  0
   39.1090   22.0210   39.1510 O   0  0  0  0  0  0  0  0  0  0  0  0
   40.3290   23.9240   38.6670 N   0  0  0  0  0  0  0  0  0  0  0  0
   40.5730   25.2140   38.8630 C   0  0  0  0  0  0  0  0  0  0  0  0
   41.6000   25.8860   38.1560 N   0  0  0  0  0  0  0  0  0  0  0  0
   39.8320   25.8990   39.7510 N   0  0  0  0  0  0  0  0  0  0  0  0
   38.8650   25.2920   40.4240 C   0  0  0  0  0  0  0  0  0  0  0  0
   41.0870   23.1220   37.7260 C   0  0  0  0  0  0  0  0  0  0  0  0
   40.7510   21.8060   37.7390 F   0  0  0  0  0  0  0  0  0  0  0  0
   42.4270   23.1810   38.1330 F   0  0  0  0  0  0  0  0  0  0  0  0
   41.0130   23.6460   36.4280 F   0  0  0  0  0  0  0  0  0  0  0  0
   36.1490   24.6990   42.6760 O   0  0  0  0  0  0  0  0  0  0  0  0
   38.0641   29.2485   44.4106 H   0  0  0  0  0  0  0  0  0  0  0  0
   38.2827   26.8071   43.9581 H   0  0  0  0  0  0  0  0  0  0  0  0
   37.3192   29.9947   40.3197 H   0  0  0  0  0  0  0  0  0  0  0  0
   41.7710   26.8876   38.3247 H   0  0  0  0  0  0  0  0  0  0  0  0
   42.1758   25.3731   37.4731 H   0  0  0  0  0  0  0  0  0  0  0  0
   35.6698   23.8470   42.8329 H   0  0  0  0  0  0  0  0  0  0  0  0
  2  1  2  0
  3  2  1  0
  4  5  1  0
  4  3  2  0
  5  6  2  0
  6  1  1  0
  7  8  1  0
  7  3  1  0
  8 22  1  0
  9  8  2  0
 10 17  2  0
 10  9  1  0
 11 10  1  0
 12 11  2  0
 13 14  1  0
 13 11  1  0
 14 16  2  0
 15 14  1  0
 16 17  1  0
 17  7  1  0
 18 19  1  0
 18 20  1  0
 18 13  1  0
 21 18  1  0
  1 23  1  0
  2 24  1  0
  5 25  1  0
 15 26  1  0
 15 27  1  0
 22 28  1  0
M  ISO  4  23  14  24  14  25  14  28   3
M  END
>  <minimizedAffinity>  (1) 
-4.20909977

>  <minimizedRMSD>  (1) 
0.351213843

$$$$
