
     RDKit          3D

 48 53  0  0  1  0  0  0  0  0999 V2000
   42.9960   30.6000   36.8370 C   0  0  0  0  0  0  0  0  0  0  0  0
   42.3060   30.5870   38.0570 C   0  0  0  0  0  0  0  0  0  0  0  0
   41.5210   29.4880   38.3210 C   0  0  0  0  0  0  0  0  0  0  0  0
   41.4760   28.4970   37.3750 N   0  0  0  0  0  0  0  0  0  0  0  0
   42.1470   28.5410   36.2230 C   0  0  0  0  0  0  0  0  0  0  0  0
   42.9070   29.5950   35.9570 N   0  0  0  0  0  0  0  0  0  0  0  0
   40.7250   29.2060   39.4450 N   0  0  0  0  0  0  0  0  0  0  0  0
   39.7180   29.9610   39.8220 C   0  0  0  0  0  0  0  0  0  0  0  0
   39.1640   29.3970   40.9320 N   0  0  0  0  0  0  0  0  0  0  0  0
   39.8530   28.2710   41.2380 C   0  0  0  0  0  0  0  0  0  0  0  0
   39.7770   27.3030   42.2160 C   0  0  0  0  0  0  0  0  0  0  0  0
   38.8790   27.3910   43.0910 O   0  0  0  0  0  0  0  0  0  0  0  0
   40.6810   26.2940   42.1860 N   0  0  0  0  0  0  0  0  0  0  0  0
   41.6450   26.2050   41.2420 C   0  0  0  0  0  0  0  0  0  0  0  0
   42.5760   25.1360   41.2360 N   0  0  0  0  0  0  0  0  0  0  0  0
   41.7350   27.1350   40.2840 N   0  0  0  0  0  0  0  0  0  0  0  0
   40.8680   28.1510   40.2680 C   0  0  0  0  0  0  0  0  0  0  0  0
   39.1540   31.2560   39.2840 C   0  0  1  0  0  0  0  0  0  0  0  0
   37.6130   31.2850   39.2560 C   0  0  0  0  0  0  0  0  0  0  0  0
   38.4110   32.1400   40.1730 C   0  0  2  0  0  0  0  0  0  0  0  0
   38.5140   33.6100   40.0210 C   0  0  0  0  0  0  0  0  0  0  0  0
   37.3490   34.2110   39.5260 C   0  0  0  0  0  0  0  0  0  0  0  0
   37.5860   35.5530   39.4600 N   0  0  0  0  0  0  0  0  0  0  0  0
   38.8300   35.8390   39.8840 C   0  0  0  0  0  0  0  0  0  0  0  0
   39.6430   36.9400   40.0530 C   0  0  0  0  0  0  0  0  0  0  0  0
   40.9410   36.7970   40.5410 C   0  0  0  0  0  0  0  0  0  0  0  0
   41.4770   35.5520   40.8770 C   0  0  0  0  0  0  0  0  0  0  0  0
   40.6580   34.4410   40.7070 C   0  0  0  0  0  0  0  0  0  0  0  0
   39.3910   34.6280   40.2270 C   0  0  0  0  0  0  0  0  0  0  0  0
   40.5530   25.3040   43.2380 C   0  0  0  0  0  0  0  0  0  0  0  0
   39.8630   25.7710   44.3190 F   0  0  0  0  0  0  0  0  0  0  0  0
   41.8540   25.0380   43.7020 F   0  0  0  0  0  0  0  0  0  0  0  0
   40.0060   24.1160   42.7520 F   0  0  0  0  0  0  0  0  0  0  0  0
   43.6316   31.4645   36.5946 H   0  0  0  0  0  0  0  0  0  0  0  0
   42.3884   31.4188   38.7721 H   0  0  0  0  0  0  0  0  0  0  0  0
   42.0710   27.7133   35.5024 H   0  0  0  0  0  0  0  0  0  0  0  0
   43.3018   25.0892   40.5066 H   0  0  0  0  0  0  0  0  0  0  0  0
   42.5267   24.4060   41.9610 H   0  0  0  0  0  0  0  0  0  0  0  0
   39.9886   31.4259   38.5879 H   0  0  0  0  0  0  0  0  0  0  0  0
   37.0799   31.7298   38.4028 H   0  0  0  0  0  0  0  0  0  0  0  0
   36.8047   30.5467   39.3639 H   0  0  0  0  0  0  0  0  0  0  0  0
   38.3763   32.2952   41.2614 H   0  0  0  0  0  0  0  0  0  0  0  0
   36.4182   33.6973   39.2437 H   0  0  0  0  0  0  0  0  0  0  0  0
   36.9050   36.2519   39.1304 H   0  0  0  0  0  0  0  0  0  0  0  0
   39.2635   37.9410   39.8002 H   0  0  0  0  0  0  0  0  0  0  0  0
   41.5639   37.6950   40.6656 H   0  0  0  0  0  0  0  0  0  0  0  0
   42.5036   35.4543   41.2599 H   0  0  0  0  0  0  0  0  0  0  0  0
   41.0217   33.4326   40.9535 H   0  0  0  0  0  0  0  0  0  0  0  0
  1  2  2  0
  2  3  1  0
  3  7  1  0
  4  3  2  0
  5  4  1  0
  6  5  2  0
  6  1  1  0
  7  8  1  0
  7 17  1  0
  8  9  2  0
  9 10  1  0
 10 11  1  0
 11 12  2  0
 13 11  1  0
 13 30  1  0
 14 13  1  0
 15 14  1  0
 16 14  2  0
 17 16  1  0
 17 10  2  0
 18  8  1  0
 18 20  1  0
 19 18  1  0
 19 20  1  0
 21 20  1  0
 21 29  1  0
 22 21  2  0
 23 22  1  0
 23 24  1  0
 24 25  2  0
 24 29  1  0
 25 26  1  0
 26 27  2  0
 28 27  1  0
 29 28  2  0
 30 32  1  0
 30 31  1  0
 33 30  1  0
  1 34  1  0
  2 35  1  0
  5 36  1  0
 15 37  1  0
 15 38  1  0
 18 39  1  6
 19 40  1  0
 19 41  1  0
 20 42  1  1
 22 43  1  0
 23 44  1  0
 25 45  1  0
 26 46  1  0
 27 47  1  0
 28 48  1  0
M  ISO  8  34  14  35  14  36  14  39  13  40  13  41  13  42  13  43  14
M  ISO  5  44   9  45  14  46  14  47  14  48  14
M  END
>  <minimizedAffinity>  (1) 
-6.89535284

>  <minimizedRMSD>  (1) 
1.82082772

$$$$
