
     RDKit          3D

 41 45  0  0  1  0  0  0  0  0999 V2000
   43.8610   33.3860   40.8490 C   0  0  0  0  0  0  0  0  0  0  0  0
   42.5230   33.1990   41.2290 C   0  0  0  0  0  0  0  0  0  0  0  0
   41.9110   32.0220   40.8520 C   0  0  0  0  0  0  0  0  0  0  0  0
   42.6520   31.1200   40.1340 N   0  0  0  0  0  0  0  0  0  0  0  0
   43.9300   31.3330   39.7880 C   0  0  0  0  0  0  0  0  0  0  0  0
   44.5240   32.4690   40.1510 N   0  0  0  0  0  0  0  0  0  0  0  0
   40.5960   31.5790   41.0950 N   0  0  0  0  0  0  0  0  0  0  0  0
   39.5320   32.2250   40.6650 C   0  0  0  0  0  0  0  0  0  0  0  0
   38.4400   31.5190   41.0700 N   0  0  0  0  0  0  0  0  0  0  0  0
   38.8560   30.4270   41.7600 C   0  0  0  0  0  0  0  0  0  0  0  0
   38.2430   29.3680   42.4010 C   0  0  0  0  0  0  0  0  0  0  0  0
   36.9860   29.3080   42.4050 O   0  0  0  0  0  0  0  0  0  0  0  0
   39.0300   28.4380   42.9990 N   0  0  0  0  0  0  0  0  0  0  0  0
   40.3710   28.5120   42.9900 C   0  0  0  0  0  0  0  0  0  0  0  0
   41.1660   27.5150   43.6270 N   0  0  0  0  0  0  0  0  0  0  0  0
   40.9780   29.5300   42.3750 N   0  0  0  0  0  0  0  0  0  0  0  0
   40.2460   30.4730   41.7700 C   0  0  0  0  0  0  0  0  0  0  0  0
   39.3570   33.5110   39.9000 C   0  0  1  0  0  0  0  0  0  0  0  0
   37.9340   34.0900   40.0120 C   0  0  0  0  0  0  0  0  0  0  0  0
   39.1490   34.7560   40.6160 C   0  0  2  0  0  0  0  0  0  0  0  0
   39.4700   36.0970   40.0520 C   0  0  0  0  0  0  0  0  0  0  0  0
   40.4810   36.8990   40.8710 C   0  0  0  0  0  0  0  0  0  0  0  0
   40.8000   36.4110   39.4790 C   0  0  0  0  0  0  0  0  0  0  0  0
   38.3170   27.3540   43.6530 C   0  0  0  0  0  0  0  0  0  0  0  0
   37.3560   27.7840   44.5080 F   0  0  0  0  0  0  0  0  0  0  0  0
   39.2660   26.6760   44.4400 F   0  0  0  0  0  0  0  0  0  0  0  0
   37.8090   26.4470   42.7100 F   0  0  0  0  0  0  0  0  0  0  0  0
   44.3745   34.3154   41.1361 H   0  0  0  0  0  0  0  0  0  0  0  0
   41.9822   33.9633   41.8064 H   0  0  0  0  0  0  0  0  0  0  0  0
   44.4824   30.5773   39.2102 H   0  0  0  0  0  0  0  0  0  0  0  0
   42.1933   27.5873   43.6105 H   0  0  0  0  0  0  0  0  0  0  0  0
   40.7131   26.7223   44.1038 H   0  0  0  0  0  0  0  0  0  0  0  0
   40.0619   33.2292   39.1040 H   0  0  0  0  0  0  0  0  0  0  0  0
   37.4373   34.5257   39.1326 H   0  0  0  0  0  0  0  0  0  0  0  0
   36.9570   33.7371   40.3738 H   0  0  0  0  0  0  0  0  0  0  0  0
   39.4975   35.0679   41.6116 H   0  0  0  0  0  0  0  0  0  0  0  0
   38.4527   36.2208   39.6524 H   0  0  0  0  0  0  0  0  0  0  0  0
   40.3170   37.9704   41.0589 H   0  0  0  0  0  0  0  0  0  0  0  0
   40.9433   36.8019   41.8644 H   0  0  0  0  0  0  0  0  0  0  0  0
   41.5373   35.6070   39.3380 H   0  0  0  0  0  0  0  0  0  0  0  0
   41.1437   36.8964   38.5537 H   0  0  0  0  0  0  0  0  0  0  0  0
  1  2  2  0
  3  7  1  0
  3  2  1  0
  4  3  2  0
  5  4  1  0
  5  6  2  0
  6  1  1  0
  7 17  1  0
  8  9  2  0
  8  7  1  0
  9 10  1  0
 10 17  2  0
 10 11  1  0
 11 12  2  0
 11 13  1  0
 13 24  1  0
 14 13  1  0
 14 15  1  0
 16 14  2  0
 17 16  1  0
 18 19  1  0
 18 20  1  0
 18  8  1  0
 19 20  1  0
 21 20  1  0
 21 22  1  0
 23 21  1  0
 23 22  1  0
 24 26  1  0
 24 25  1  0
 27 24  1  0
  1 28  1  0
  2 29  1  0
  5 30  1  0
 15 31  1  0
 15 32  1  0
 18 33  1  6
 19 34  1  0
 19 35  1  0
 20 36  1  1
 21 37  1  0
 22 38  1  0
 22 39  1  0
 23 40  1  0
 23 41  1  0
M  ISO  8  28  14  29  14  30  14  33  13  34  13  35  13  36  13  37  13
M  ISO  4  38  13  39  13  40  13  41  13
M  END
>  <minimizedAffinity>  (1) 
-6.88700056

>  <minimizedRMSD>  (1) 
2.64844584

$$$$
