
     RDKit          3D

 42 46  0  0  1  0  0  0  0  0999 V2000
   42.7130   30.5100   37.9500 C   0  0  0  0  0  0  0  0  0  0  0  0
   41.7080   30.5200   38.9300 C   0  0  0  0  0  0  0  0  0  0  0  0
   40.6170   29.7040   38.7190 C   0  0  0  0  0  0  0  0  0  0  0  0
   40.5950   28.9470   37.5770 N   0  0  0  0  0  0  0  0  0  0  0  0
   41.5730   28.9630   36.6650 C   0  0  0  0  0  0  0  0  0  0  0  0
   42.6290   29.7490   36.8610 N   0  0  0  0  0  0  0  0  0  0  0  0
   39.4730   29.5150   39.5280 N   0  0  0  0  0  0  0  0  0  0  0  0
   38.6470   30.4830   39.8300 C   0  0  0  0  0  0  0  0  0  0  0  0
   37.6650   29.9540   40.6090 N   0  0  0  0  0  0  0  0  0  0  0  0
   37.9080   28.6290   40.7820 C   0  0  0  0  0  0  0  0  0  0  0  0
   37.2980   27.5890   41.4470 C   0  0  0  0  0  0  0  0  0  0  0  0
   36.2380   27.8210   42.0890 O   0  0  0  0  0  0  0  0  0  0  0  0
   37.8710   26.3590   41.3780 N   0  0  0  0  0  0  0  0  0  0  0  0
   39.0020   26.1210   40.6910 C   0  0  0  0  0  0  0  0  0  0  0  0
   39.5690   24.8250   40.6400 N   0  0  0  0  0  0  0  0  0  0  0  0
   39.6110   27.1200   40.0380 N   0  0  0  0  0  0  0  0  0  0  0  0
   39.0890   28.3470   40.0730 C   0  0  0  0  0  0  0  0  0  0  0  0
   38.6310   31.9610   39.5070 C   0  0  1  0  0  0  0  0  0  0  0  0
   37.3930   32.6910   40.0630 C   0  0  0  0  0  0  0  0  0  0  0  0
   38.7880   32.9350   40.5750 C   0  0  2  0  0  0  0  0  0  0  0  0
   39.4830   34.2020   40.2050 C   0  0  0  0  0  0  0  0  0  0  0  0
   38.9640   35.4650   40.4380 C   0  0  0  0  0  0  0  0  0  0  0  0
   39.7300   36.5410   40.0370 C   0  0  0  0  0  0  0  0  0  0  0  0
   40.9300   36.4170   39.4450 N   0  0  0  0  0  0  0  0  0  0  0  0
   41.4050   35.1760   39.2350 C   0  0  0  0  0  0  0  0  0  0  0  0
   40.6950   34.0720   39.6090 N   0  0  0  0  0  0  0  0  0  0  0  0
   37.1740   25.3130   42.1020 C   0  0  0  0  0  0  0  0  0  0  0  0
   36.4050   25.7850   43.1170 F   0  0  0  0  0  0  0  0  0  0  0  0
   38.1720   24.5260   42.7160 F   0  0  0  0  0  0  0  0  0  0  0  0
   36.4460   24.4950   41.2350 F   0  0  0  0  0  0  0  0  0  0  0  0
   43.5969   31.1505   38.0861 H   0  0  0  0  0  0  0  0  0  0  0  0
   41.7875   31.1514   39.8272 H   0  0  0  0  0  0  0  0  0  0  0  0
   41.5055   28.3347   35.7646 H   0  0  0  0  0  0  0  0  0  0  0  0
   40.4361   24.6628   40.1083 H   0  0  0  0  0  0  0  0  0  0  0  0
   39.1145   24.0442   41.1346 H   0  0  0  0  0  0  0  0  0  0  0  0
   39.1377   31.8376   38.5385 H   0  0  0  0  0  0  0  0  0  0  0  0
   36.8779   33.4541   39.4611 H   0  0  0  0  0  0  0  0  0  0  0  0
   36.4262   32.3982   40.4983 H   0  0  0  0  0  0  0  0  0  0  0  0
   39.2223   32.9217   41.5855 H   0  0  0  0  0  0  0  0  0  0  0  0
   37.9855   35.6042   40.9208 H   0  0  0  0  0  0  0  0  0  0  0  0
   39.3373   37.5536   40.2113 H   0  0  0  0  0  0  0  0  0  0  0  0
   42.3851   35.0485   38.7522 H   0  0  0  0  0  0  0  0  0  0  0  0
  1  2  2  0
  3  2  1  0
  3  7  1  0
  4  3  2  0
  5  6  2  0
  5  4  1  0
  6  1  1  0
  7  8  1  0
  7 17  1  0
  8  9  2  0
  9 10  1  0
 10 11  1  0
 11 12  2  0
 13 11  1  0
 13 27  1  0
 14 13  1  0
 15 14  1  0
 16 17  1  0
 16 14  2  0
 17 10  2  0
 18  8  1  0
 18 19  1  0
 18 20  1  0
 19 20  1  0
 21 22  2  0
 21 20  1  0
 23 22  1  0
 24 23  2  0
 25 24  1  0
 25 26  2  0
 26 21  1  0
 27 29  1  0
 27 28  1  0
 30 27  1  0
  1 31  1  0
  2 32  1  0
  5 33  1  0
 15 34  1  0
 15 35  1  0
 18 36  1  6
 19 37  1  0
 19 38  1  0
 20 39  1  1
 22 40  1  0
 23 41  1  0
 25 42  1  0
M  ISO  8  31  14  32  14  33  14  36  13  37  13  38  13  39  13  40  14
M  ISO  2  41  14  42  14
M  END
>  <minimizedAffinity>  (1) 
-6.80246544

>  <minimizedRMSD>  (1) 
2.33492351

$$$$
