
     RDKit          3D

 20 21  0  0  0  0  0  0  0  0999 V2000
   37.6880   31.5590   40.7980 C   0  0  0  0  0  0  0  0  0  0  0  0
   36.9180   31.8580   39.6630 C   0  0  0  0  0  0  0  0  0  0  0  0
   37.3210   33.1410   39.3400 C   0  0  0  0  0  0  0  0  0  0  0  0
   38.2500   33.5780   40.2000 N   0  0  0  0  0  0  0  0  0  0  0  0
   38.4770   32.6180   41.0910 N   0  0  0  0  0  0  0  0  0  0  0  0
   38.5330   29.8730   42.4510 C   0  0  0  0  0  0  0  0  0  0  0  0
   37.6000   30.2880   41.5030 C   0  0  0  0  0  0  0  0  0  0  0  0
   36.5300   29.4380   41.2190 C   0  0  0  0  0  0  0  0  0  0  0  0
   36.4460   28.2400   41.8820 N   0  0  0  0  0  0  0  0  0  0  0  0
   37.3890   27.8840   42.8020 C   0  0  0  0  0  0  0  0  0  0  0  0
   38.4400   28.7090   43.0860 N   0  0  0  0  0  0  0  0  0  0  0  0
   38.9170   34.8570   40.2030 C   0  0  0  0  0  0  0  0  0  0  0  0
   40.0950   34.8240   39.4790 F   0  0  0  0  0  0  0  0  0  0  0  0
   39.1400   35.2180   41.5120 F   0  0  0  0  0  0  0  0  0  0  0  0
   38.1330   35.8410   39.5890 F   0  0  0  0  0  0  0  0  0  0  0  0
   36.1751   31.2259   39.1544 H   0  0  0  0  0  0  0  0  0  0  0  0
   36.9314   33.7233   38.4920 H   0  0  0  0  0  0  0  0  0  0  0  0
   39.3803   30.5350   42.6831 H   0  0  0  0  0  0  0  0  0  0  0  0
   35.7688   29.7232   40.4779 H   0  0  0  0  0  0  0  0  0  0  0  0
   37.3015   26.9188   43.3223 H   0  0  0  0  0  0  0  0  0  0  0  0
  1  5  2  0
  1  7  1  0
  2  1  1  0
  3  2  2  0
  3  4  1  0
  4 12  1  0
  4  5  1  0
  6 11  2  0
  7  6  1  0
  8  7  2  0
  8  9  1  0
  9 10  2  0
 10 11  1  0
 12 14  1  0
 13 12  1  0
 15 12  1  0
  2 16  1  0
  3 17  1  0
  6 18  1  0
  8 19  1  0
 10 20  1  0
M  ISO  5  16  14  17  14  18  14  19  14  20  14
M  END
>  <minimizedAffinity>  (1) 
-4.72863388

>  <minimizedRMSD>  (1) 
7.86280727

$$$$
