
     RDKit          3D

 44 48  0  0  1  0  0  0  0  0999 V2000
   42.6310   31.4540   37.0060 C   0  0  0  0  0  0  0  0  0  0  0  0
   41.8780   31.5030   38.1840 C   0  0  0  0  0  0  0  0  0  0  0  0
   41.1860   30.3690   38.5420 C   0  0  0  0  0  0  0  0  0  0  0  0
   41.2860   29.2800   37.7190 N   0  0  0  0  0  0  0  0  0  0  0  0
   42.0150   29.2630   36.5990 C   0  0  0  0  0  0  0  0  0  0  0  0
   42.6870   30.3590   36.2480 N   0  0  0  0  0  0  0  0  0  0  0  0
   40.3560   30.1360   39.6640 N   0  0  0  0  0  0  0  0  0  0  0  0
   39.2700   30.8230   39.9100 C   0  0  0  0  0  0  0  0  0  0  0  0
   38.7340   30.3360   41.0390 N   0  0  0  0  0  0  0  0  0  0  0  0
   39.4980   29.3240   41.5090 C   0  0  0  0  0  0  0  0  0  0  0  0
   39.4540   28.4710   42.5900 C   0  0  0  0  0  0  0  0  0  0  0  0
   38.5090   28.5720   43.4110 O   0  0  0  0  0  0  0  0  0  0  0  0
   40.4540   27.5500   42.7120 N   0  0  0  0  0  0  0  0  0  0  0  0
   41.4660   27.4500   41.8240 C   0  0  0  0  0  0  0  0  0  0  0  0
   42.4850   26.4820   41.9810 N   0  0  0  0  0  0  0  0  0  0  0  0
   41.5130   28.2790   40.7710 N   0  0  0  0  0  0  0  0  0  0  0  0
   40.5610   29.1950   40.6060 C   0  0  0  0  0  0  0  0  0  0  0  0
   38.6210   31.9710   39.1980 C   0  0  1  0  0  0  0  0  0  0  0  0
   38.4650   31.7760   37.6810 C   0  0  0  0  0  0  0  0  0  0  0  0
   37.3010   31.8380   38.6030 C   0  0  1  0  0  0  0  0  0  0  0  0
   36.4030   30.6900   38.7430 C   0  0  0  0  0  0  0  0  0  0  0  0
   36.2690   29.8570   37.6300 C   0  0  0  0  0  0  0  0  0  0  0  0
   35.4650   28.7130   37.6030 C   0  0  0  0  0  0  0  0  0  0  0  0
   34.7590   28.3840   38.7420 C   0  0  0  0  0  0  0  0  0  0  0  0
   34.8700   29.1810   39.8500 C   0  0  0  0  0  0  0  0  0  0  0  0
   35.6660   30.2900   39.8370 C   0  0  0  0  0  0  0  0  0  0  0  0
   40.3480   26.6840   43.8690 C   0  0  0  0  0  0  0  0  0  0  0  0
   39.1490   26.7680   44.5030 F   0  0  0  0  0  0  0  0  0  0  0  0
   41.3350   27.0940   44.7710 F   0  0  0  0  0  0  0  0  0  0  0  0
   40.6310   25.3530   43.5220 F   0  0  0  0  0  0  0  0  0  0  0  0
   43.1942   32.3465   36.6957 H   0  0  0  0  0  0  0  0  0  0  0  0
   41.8406   32.4133   38.8004 H   0  0  0  0  0  0  0  0  0  0  0  0
   42.0597   28.3576   35.9760 H   0  0  0  0  0  0  0  0  0  0  0  0
   43.2486   26.4218   41.2924 H   0  0  0  0  0  0  0  0  0  0  0  0
   42.4635   25.8372   42.7839 H   0  0  0  0  0  0  0  0  0  0  0  0
   39.0534   32.7096   39.8890 H   0  0  0  0  0  0  0  0  0  0  0  0
   38.7518   30.8245   37.2094 H   0  0  0  0  0  0  0  0  0  0  0  0
   38.7884   32.3109   36.7759 H   0  0  0  0  0  0  0  0  0  0  0  0
   36.3955   32.4549   38.7001 H   0  0  0  0  0  0  0  0  0  0  0  0
   36.8296   30.1164   36.7198 H   0  0  0  0  0  0  0  0  0  0  0  0
   35.3972   28.0919   36.6977 H   0  0  0  0  0  0  0  0  0  0  0  0
   34.1149   27.4925   38.7597 H   0  0  0  0  0  0  0  0  0  0  0  0
   34.3108   28.9244   40.7619 H   0  0  0  0  0  0  0  0  0  0  0  0
   35.7224   30.8989   40.7514 H   0  0  0  0  0  0  0  0  0  0  0  0
  1  2  2  0
  2  3  1  0
  3  7  1  0
  4  3  2  0
  5  4  1  0
  6  5  2  0
  6  1  1  0
  7  8  1  0
  7 17  1  0
  8  9  2  0
  9 10  1  0
 10 11  1  0
 11 13  1  0
 11 12  2  0
 13 27  1  0
 14 15  1  0
 14 13  1  0
 16 14  2  0
 17 16  1  0
 17 10  2  0
 18  8  1  0
 19 20  1  0
 19 18  1  0
 20 21  1  0
 20 18  1  0
 21 26  1  0
 22 21  2  0
 23 22  1  0
 23 24  2  0
 24 25  1  0
 26 25  2  0
 27 28  1  0
 27 29  1  0
 30 27  1  0
  1 31  1  0
  2 32  1  0
  5 33  1  0
 15 34  1  0
 15 35  1  0
 18 36  1  6
 19 37  1  0
 19 38  1  0
 20 39  1  6
 22 40  1  0
 23 41  1  0
 24 42  1  0
 25 43  1  0
 26 44  1  0
M  ISO  8  31  14  32  14  33  14  36  13  37  13  38  13  39  13  40  14
M  ISO  4  41  14  42  14  43  14  44  14
M  END
>  <minimizedAffinity>  (1) 
-6.4718709

>  <minimizedRMSD>  (1) 
1.90427673

$$$$
