
     RDKit          3D

 44 48  0  0  1  0  0  0  0  0999 V2000
   42.6350   31.4560   37.0090 C   0  0  0  0  0  0  0  0  0  0  0  0
   41.8780   31.5130   38.1930 C   0  0  0  0  0  0  0  0  0  0  0  0
   41.1800   30.3760   38.5430 C   0  0  0  0  0  0  0  0  0  0  0  0
   41.2760   29.2870   37.7160 N   0  0  0  0  0  0  0  0  0  0  0  0
   42.0060   29.2710   36.5970 C   0  0  0  0  0  0  0  0  0  0  0  0
   42.6840   30.3630   36.2500 N   0  0  0  0  0  0  0  0  0  0  0  0
   40.3560   30.1470   39.6580 N   0  0  0  0  0  0  0  0  0  0  0  0
   39.2720   30.8340   39.9110 C   0  0  0  0  0  0  0  0  0  0  0  0
   38.7300   30.3460   41.0410 N   0  0  0  0  0  0  0  0  0  0  0  0
   39.4840   29.3340   41.5100 C   0  0  0  0  0  0  0  0  0  0  0  0
   39.4430   28.4750   42.5870 C   0  0  0  0  0  0  0  0  0  0  0  0
   38.4960   28.5780   43.4080 O   0  0  0  0  0  0  0  0  0  0  0  0
   40.4380   27.5490   42.7060 N   0  0  0  0  0  0  0  0  0  0  0  0
   41.4530   27.4480   41.8160 C   0  0  0  0  0  0  0  0  0  0  0  0
   42.4660   26.4760   41.9720 N   0  0  0  0  0  0  0  0  0  0  0  0
   41.5020   28.2760   40.7690 N   0  0  0  0  0  0  0  0  0  0  0  0
   40.5540   29.1990   40.6050 C   0  0  0  0  0  0  0  0  0  0  0  0
   38.6200   31.9900   39.2090 C   0  0  1  0  0  0  0  0  0  0  0  0
   38.4540   31.8030   37.6900 C   0  0  0  0  0  0  0  0  0  0  0  0
   37.2970   31.8550   38.6090 C   0  0  1  0  0  0  0  0  0  0  0  0
   36.4080   30.6960   38.7580 C   0  0  0  0  0  0  0  0  0  0  0  0
   36.2970   29.8570   37.6440 C   0  0  0  0  0  0  0  0  0  0  0  0
   35.5090   28.7000   37.6130 C   0  0  0  0  0  0  0  0  0  0  0  0
   34.7990   28.3680   38.7490 C   0  0  0  0  0  0  0  0  0  0  0  0
   34.8890   29.1760   39.8620 C   0  0  0  0  0  0  0  0  0  0  0  0
   35.6750   30.3040   39.8530 C   0  0  0  0  0  0  0  0  0  0  0  0
   40.3320   26.6800   43.8610 C   0  0  0  0  0  0  0  0  0  0  0  0
   39.1390   26.7840   44.5060 F   0  0  0  0  0  0  0  0  0  0  0  0
   41.3280   27.0980   44.7650 F   0  0  0  0  0  0  0  0  0  0  0  0
   40.6130   25.3590   43.5220 F   0  0  0  0  0  0  0  0  0  0  0  0
   43.2057   32.3440   36.6996 H   0  0  0  0  0  0  0  0  0  0  0  0
   41.8442   32.4222   38.8112 H   0  0  0  0  0  0  0  0  0  0  0  0
   42.0463   28.3676   35.9708 H   0  0  0  0  0  0  0  0  0  0  0  0
   43.2306   26.4141   41.2846 H   0  0  0  0  0  0  0  0  0  0  0  0
   42.4401   25.8292   42.7731 H   0  0  0  0  0  0  0  0  0  0  0  0
   39.0533   32.7246   39.9037 H   0  0  0  0  0  0  0  0  0  0  0  0
   38.7420   30.8552   37.2117 H   0  0  0  0  0  0  0  0  0  0  0  0
   38.7716   32.3453   36.7872 H   0  0  0  0  0  0  0  0  0  0  0  0
   36.3886   32.4685   38.7002 H   0  0  0  0  0  0  0  0  0  0  0  0
   36.8625   30.1221   36.7385 H   0  0  0  0  0  0  0  0  0  0  0  0
   35.4573   28.0741   36.7099 H   0  0  0  0  0  0  0  0  0  0  0  0
   34.1675   27.4675   38.7660 H   0  0  0  0  0  0  0  0  0  0  0  0
   34.3246   28.9149   40.7693 H   0  0  0  0  0  0  0  0  0  0  0  0
   35.7194   30.9206   40.7629 H   0  0  0  0  0  0  0  0  0  0  0  0
  1  2  2  0
  2  3  1  0
  3  7  1  0
  4  3  2  0
  5  4  1  0
  6  5  2  0
  6  1  1  0
  7  8  1  0
  7 17  1  0
  8  9  2  0
  9 10  1  0
 10 11  1  0
 11 13  1  0
 11 12  2  0
 13 27  1  0
 14 15  1  0
 14 13  1  0
 16 14  2  0
 17 16  1  0
 17 10  2  0
 18  8  1  0
 19 20  1  0
 19 18  1  0
 20 21  1  0
 20 18  1  0
 21 26  1  0
 22 21  2  0
 23 22  1  0
 23 24  2  0
 24 25  1  0
 26 25  2  0
 27 28  1  0
 27 29  1  0
 30 27  1  0
  1 31  1  0
  2 32  1  0
  5 33  1  0
 15 34  1  0
 15 35  1  0
 18 36  1  6
 19 37  1  0
 19 38  1  0
 20 39  1  6
 22 40  1  0
 23 41  1  0
 24 42  1  0
 25 43  1  0
 26 44  1  0
M  ISO  8  31  14  32  14  33  14  36  13  37  13  38  13  39  13  40  14
M  ISO  4  41  14  42  14  43  14  44  14
M  END
>  <minimizedAffinity>  (1) 
-6.46950626

>  <minimizedRMSD>  (1) 
1.85474455

$$$$
