
     RDKit          3D

 43 46  0  0  1  0  0  0  0  0999 V2000
   43.0950   31.3680   37.5110 C   0  0  0  0  0  0  0  0  0  0  0  0
   42.2970   31.5390   38.6380 C   0  0  0  0  0  0  0  0  0  0  0  0
   41.2010   30.7250   38.8020 C   0  0  0  0  0  0  0  0  0  0  0  0
   40.9730   29.7900   37.8260 N   0  0  0  0  0  0  0  0  0  0  0  0
   41.7570   29.6450   36.7500 C   0  0  0  0  0  0  0  0  0  0  0  0
   42.8160   30.4360   36.6010 N   0  0  0  0  0  0  0  0  0  0  0  0
   40.2470   30.6870   39.8290 N   0  0  0  0  0  0  0  0  0  0  0  0
   39.4720   31.7130   40.1260 C   0  0  0  0  0  0  0  0  0  0  0  0
   38.6730   31.3250   41.1550 N   0  0  0  0  0  0  0  0  0  0  0  0
   38.9650   30.0480   41.4880 C   0  0  0  0  0  0  0  0  0  0  0  0
   38.5090   29.1430   42.4210 C   0  0  0  0  0  0  0  0  0  0  0  0
   37.5890   29.4940   43.2110 O   0  0  0  0  0  0  0  0  0  0  0  0
   39.0710   27.9110   42.4530 N   0  0  0  0  0  0  0  0  0  0  0  0
   40.0560   27.5440   41.6060 C   0  0  0  0  0  0  0  0  0  0  0  0
   40.6230   26.2500   41.6630 N   0  0  0  0  0  0  0  0  0  0  0  0
   40.5090   28.4130   40.6950 N   0  0  0  0  0  0  0  0  0  0  0  0
   39.9890   29.6380   40.6230 C   0  0  0  0  0  0  0  0  0  0  0  0
   39.3760   33.1160   39.5680 C   0  0  1  0  0  0  0  0  0  0  0  0
   38.0960   33.8540   40.0090 C   0  0  0  0  0  0  0  0  0  0  0  0
   39.4750   34.2530   40.4710 C   0  0  2  0  0  0  0  0  0  0  0  0
   40.0800   35.5330   39.9520 C   0  0  0  0  0  0  0  0  0  0  0  0
   40.4070   36.5180   41.0470 C   0  0  0  0  0  0  0  0  0  0  0  0
   41.3200   35.1660   39.1600 C   0  0  0  0  0  0  0  0  0  0  0  0
   38.5450   27.0110   43.4560 C   0  0  0  0  0  0  0  0  0  0  0  0
   37.6530   27.6030   44.2960 F   0  0  0  0  0  0  0  0  0  0  0  0
   39.6320   26.6260   44.2590 F   0  0  0  0  0  0  0  0  0  0  0  0
   38.0090   25.8550   42.8670 F   0  0  0  0  0  0  0  0  0  0  0  0
   43.9732   32.0149   37.3687 H   0  0  0  0  0  0  0  0  0  0  0  0
   42.5384   32.3108   39.3837 H   0  0  0  0  0  0  0  0  0  0  0  0
   41.5271   28.8781   35.9956 H   0  0  0  0  0  0  0  0  0  0  0  0
   41.3739   25.9875   41.0087 H   0  0  0  0  0  0  0  0  0  0  0  0
   40.2852   25.5699   42.3589 H   0  0  0  0  0  0  0  0  0  0  0  0
   39.8912   32.8708   38.6276 H   0  0  0  0  0  0  0  0  0  0  0  0
   37.5417   34.4838   39.2976 H   0  0  0  0  0  0  0  0  0  0  0  0
   37.1452   33.5792   40.4890 H   0  0  0  0  0  0  0  0  0  0  0  0
   39.9280   34.4065   41.4616 H   0  0  0  0  0  0  0  0  0  0  0  0
   39.3428   36.0429   39.3144 H   0  0  0  0  0  0  0  0  0  0  0  0
   40.2493   36.0430   42.0266 H   0  0  0  0  0  0  0  0  0  0  0  0
   41.4575   36.8316   40.9564 H   0  0  0  0  0  0  0  0  0  0  0  0
   39.7527   37.3976   40.9564 H   0  0  0  0  0  0  0  0  0  0  0  0
   42.1392   34.9235   39.8529 H   0  0  0  0  0  0  0  0  0  0  0  0
   41.1052   34.2929   38.5263 H   0  0  0  0  0  0  0  0  0  0  0  0
   41.6150   36.0153   38.5263 H   0  0  0  0  0  0  0  0  0  0  0  0
  1  2  2  0
  2  3  1  0
  3  7  1  0
  4  3  2  0
  5  4  1  0
  6  5  2  0
  6  1  1  0
  7  8  1  0
  7 17  1  0
  8  9  2  0
  9 10  1  0
 10 11  1  0
 11 13  1  0
 11 12  2  0
 13 24  1  0
 14 15  1  0
 14 13  1  0
 16 14  2  0
 17 16  1  0
 17 10  2  0
 18 19  1  0
 18  8  1  0
 18 20  1  0
 19 20  1  0
 21 20  1  0
 21 22  1  0
 23 21  1  0
 24 26  1  0
 24 25  1  0
 27 24  1  0
  1 28  1  0
  2 29  1  0
  5 30  1  0
 15 31  1  0
 15 32  1  0
 18 33  1  6
 19 34  1  0
 19 35  1  0
 20 36  1  1
 21 37  1  0
 22 38  1  0
 22 39  1  0
 22 40  1  0
 23 41  1  0
 23 42  1  0
 23 43  1  0
M  ISO  8  28  14  29  14  30  14  33  13  34  13  35  13  36  13  37   8
M  ISO  6  38   8  39   8  40   8  41   8  42   8  43   8
M  END
>  <minimizedAffinity>  (1) 
-6.2802453

>  <minimizedRMSD>  (1) 
1.73533428

$$$$
