
     RDKit          3D

 27 29  0  0  0  0  0  0  0  0999 V2000
   38.6640   27.9420   41.9660 C   0  0  0  0  0  0  0  0  0  0  0  0
   39.5090   28.4590   42.9420 C   0  0  0  0  0  0  0  0  0  0  0  0
   39.5220   29.8150   42.7060 C   0  0  0  0  0  0  0  0  0  0  0  0
   38.7410   30.1080   41.6590 N   0  0  0  0  0  0  0  0  0  0  0  0
   38.2280   28.9760   41.2190 N   0  0  0  0  0  0  0  0  0  0  0  0
   37.1350   25.9920   42.2690 C   0  0  0  0  0  0  0  0  0  0  0  0
   38.3590   26.5240   41.8440 C   0  0  0  0  0  0  0  0  0  0  0  0
   39.2980   25.6690   41.2930 C   0  0  0  0  0  0  0  0  0  0  0  0
   39.0030   24.3400   41.1830 N   0  0  0  0  0  0  0  0  0  0  0  0
   37.7940   23.8570   41.6110 C   0  0  0  0  0  0  0  0  0  0  0  0
   36.8580   24.6890   42.1550 N   0  0  0  0  0  0  0  0  0  0  0  0
   38.3330   31.2600   40.9260 C   0  0  0  0  0  0  0  0  0  0  0  0
   37.3160   31.2290   39.9920 C   0  0  0  0  0  0  0  0  0  0  0  0
   37.0000   32.4030   39.3370 C   0  0  0  0  0  0  0  0  0  0  0  0
   37.6920   33.5760   39.6180 C   0  0  0  0  0  0  0  0  0  0  0  0
   38.7190   33.6040   40.5630 C   0  0  0  0  0  0  0  0  0  0  0  0
   39.0470   32.4200   41.2320 C   0  0  0  0  0  0  0  0  0  0  0  0
   40.0469   27.9075   43.7272 H   0  0  0  0  0  0  0  0  0  0  0  0
   40.0914   30.5510   43.2925 H   0  0  0  0  0  0  0  0  0  0  0  0
   36.3823   26.6635   42.7078 H   0  0  0  0  0  0  0  0  0  0  0  0
   40.2688   26.0548   40.9484 H   0  0  0  0  0  0  0  0  0  0  0  0
   37.5745   22.7834   41.5149 H   0  0  0  0  0  0  0  0  0  0  0  0
   36.7737   30.2966   39.7762 H   0  0  0  0  0  0  0  0  0  0  0  0
   36.1949   32.4103   38.5874 H   0  0  0  0  0  0  0  0  0  0  0  0
   37.4247   34.5003   39.0849 H   0  0  0  0  0  0  0  0  0  0  0  0
   39.2593   34.5379   40.7772 H   0  0  0  0  0  0  0  0  0  0  0  0
   39.8504   32.4033   41.9832 H   0  0  0  0  0  0  0  0  0  0  0  0
  1  2  1  0
  3  2  2  0
  4  3  1  0
  5  4  1  0
  5  1  2  0
  7  1  1  0
  7  6  2  0
  8  7  1  0
  9  8  2  0
  9 10  1  0
 10 11  2  0
 11  6  1  0
 12 17  1  0
 12  4  1  0
 13 12  2  0
 14 15  2  0
 14 13  1  0
 15 16  1  0
 16 17  2  0
  2 18  1  0
  3 19  1  0
  6 20  1  0
  8 21  1  0
 10 22  1  0
 13 23  1  0
 14 24  1  0
 15 25  1  0
 16 26  1  0
 17 27  1  0
M  ISO  8  18  14  19  14  20  14  21  14  22  14  23  14  24  14  25  14
M  ISO  2  26  14  27  14
M  END
>  <minimizedAffinity>  (1) 
-4.64679098

>  <minimizedRMSD>  (1) 
7.43142366

$$$$
