
     RDKit          3D

 36 39  0  0  1  0  0  0  0  0999 V2000
   42.9920   31.7680   37.6610 C   0  0  0  0  0  0  0  0  0  0  0  0
   42.1530   31.8710   38.7730 C   0  0  0  0  0  0  0  0  0  0  0  0
   41.1470   30.9350   38.9050 C   0  0  0  0  0  0  0  0  0  0  0  0
   41.0310   29.9680   37.9440 N   0  0  0  0  0  0  0  0  0  0  0  0
   41.8610   29.9060   36.8890 C   0  0  0  0  0  0  0  0  0  0  0  0
   42.8330   30.8040   36.7550 N   0  0  0  0  0  0  0  0  0  0  0  0
   40.1710   30.8120   39.9220 N   0  0  0  0  0  0  0  0  0  0  0  0
   39.2940   31.7460   40.1910 C   0  0  0  0  0  0  0  0  0  0  0  0
   38.5240   31.2850   41.2160 N   0  0  0  0  0  0  0  0  0  0  0  0
   38.9440   30.0540   41.5690 C   0  0  0  0  0  0  0  0  0  0  0  0
   38.5700   29.1130   42.5070 C   0  0  0  0  0  0  0  0  0  0  0  0
   37.6060   29.3740   43.2780 O   0  0  0  0  0  0  0  0  0  0  0  0
   39.2580   27.9470   42.5580 N   0  0  0  0  0  0  0  0  0  0  0  0
   40.2850   27.6760   41.7340 C   0  0  0  0  0  0  0  0  0  0  0  0
   40.9830   26.4470   41.8060 N   0  0  0  0  0  0  0  0  0  0  0  0
   40.6580   28.5810   40.8210 N   0  0  0  0  0  0  0  0  0  0  0  0
   40.0150   29.7450   40.7270 C   0  0  0  0  0  0  0  0  0  0  0  0
   39.0520   33.1210   39.6180 C   0  0  1  0  0  0  0  0  0  0  0  0
   37.5620   33.5310   39.6530 C   0  0  0  0  0  0  0  0  0  0  0  0
   38.6250   34.2060   40.4870 C   0  0  2  0  0  0  0  0  0  0  0  0
   39.0140   35.6220   40.1470 C   0  0  0  0  0  0  0  0  0  0  0  0
   40.1690   35.6610   39.7060 O   0  0  0  0  0  0  0  0  0  0  0  0
   38.8160   27.0030   43.5610 C   0  0  0  0  0  0  0  0  0  0  0  0
   37.8470   27.5060   44.3790 F   0  0  0  0  0  0  0  0  0  0  0  0
   39.9160   26.7380   44.3820 F   0  0  0  0  0  0  0  0  0  0  0  0
   38.4010   25.7970   42.9700 F   0  0  0  0  0  0  0  0  0  0  0  0
   43.8028   32.4997   37.5302 H   0  0  0  0  0  0  0  0  0  0  0  0
   42.2891   32.6696   39.5171 H   0  0  0  0  0  0  0  0  0  0  0  0
   41.7367   29.1131   36.1367 H   0  0  0  0  0  0  0  0  0  0  0  0
   41.7669   26.2616   41.1641 H   0  0  0  0  0  0  0  0  0  0  0  0
   40.7071   25.7380   42.5003 H   0  0  0  0  0  0  0  0  0  0  0  0
   39.8632   33.0469   38.8787 H   0  0  0  0  0  0  0  0  0  0  0  0
   37.1063   34.0537   38.7992 H   0  0  0  0  0  0  0  0  0  0  0  0
   36.6022   33.0280   39.8419 H   0  0  0  0  0  0  0  0  0  0  0  0
   38.7439   34.4043   41.5624 H   0  0  0  0  0  0  0  0  0  0  0  0
   38.3616   36.4986   40.2734 H   0  0  0  0  0  0  0  0  0  0  0  0
  1  2  2  0
  2  3  1  0
  3  7  1  0
  4  3  2  0
  5  4  1  0
  6  5  2  0
  6  1  1  0
  7  8  1  0
  7 17  1  0
  8  9  2  0
  9 10  1  0
 10 11  1  0
 11 13  1  0
 11 12  2  0
 13 23  1  0
 14 15  1  0
 14 13  1  0
 16 14  2  0
 17 16  1  0
 17 10  2  0
 18 19  1  0
 18  8  1  0
 18 20  1  0
 19 20  1  0
 21 20  1  0
 22 21  2  0
 23 24  1  0
 23 25  1  0
 26 23  1  0
  1 27  1  0
  2 28  1  0
  5 29  1  0
 15 30  1  0
 15 31  1  0
 18 32  1  6
 19 33  1  0
 19 34  1  0
 20 35  1  1
 21 36  1  0
M  ISO  8  27  14  28  14  29  14  32  13  33  13  34  13  35  13  36   6
M  END
>  <minimizedAffinity>  (1) 
-6.10543966

>  <minimizedRMSD>  (1) 
1.03717542

$$$$
