
     RDKit          3D

 49 53  0  0  1  0  0  0  0  0999 V2000
   42.6730   30.9530   37.1220 C   0  0  0  0  0  0  0  0  0  0  0  0
   41.9870   31.0630   38.3400 C   0  0  0  0  0  0  0  0  0  0  0  0
   41.0980   30.0630   38.6660 C   0  0  0  0  0  0  0  0  0  0  0  0
   40.9520   29.0360   37.7720 N   0  0  0  0  0  0  0  0  0  0  0  0
   41.6210   28.9590   36.6190 C   0  0  0  0  0  0  0  0  0  0  0  0
   42.4760   29.9200   36.3040 N   0  0  0  0  0  0  0  0  0  0  0  0
   40.2850   29.9180   39.8070 N   0  0  0  0  0  0  0  0  0  0  0  0
   39.3650   30.7900   40.1480 C   0  0  0  0  0  0  0  0  0  0  0  0
   38.7770   30.3310   41.2850 N   0  0  0  0  0  0  0  0  0  0  0  0
   39.3530   29.1590   41.6400 C   0  0  0  0  0  0  0  0  0  0  0  0
   39.1900   28.2530   42.6640 C   0  0  0  0  0  0  0  0  0  0  0  0
   38.3110   28.4760   43.5400 O   0  0  0  0  0  0  0  0  0  0  0  0
   39.9900   27.1530   42.6790 N   0  0  0  0  0  0  0  0  0  0  0  0
   40.9210   26.9270   41.7390 C   0  0  0  0  0  0  0  0  0  0  0  0
   41.7350   25.7700   41.7840 N   0  0  0  0  0  0  0  0  0  0  0  0
   41.0900   27.8000   40.7400 N   0  0  0  0  0  0  0  0  0  0  0  0
   40.3310   28.8920   40.6810 C   0  0  0  0  0  0  0  0  0  0  0  0
   38.9300   32.1030   39.5400 C   0  0  1  0  0  0  0  0  0  0  0  0
   37.6150   32.6400   40.1330 C   0  0  0  0  0  0  0  0  0  0  0  0
   38.9460   33.3160   40.3430 C   0  0  2  0  0  0  0  0  0  0  0  0
   39.2700   34.5180   39.5620 N   0  0  0  0  0  0  0  0  0  0  0  0
   40.7230   34.4710   39.4250 C   0  0  0  0  0  0  0  0  0  0  0  0
   41.3320   35.8480   39.2760 C   0  0  0  0  0  0  0  0  0  0  0  0
   41.1710   36.5840   40.5900 C   0  0  0  0  0  0  0  0  0  0  0  0
   39.8730   36.1820   41.2410 C   0  0  0  0  0  0  0  0  0  0  0  0
   38.8360   35.7130   40.2430 C   0  0  0  0  0  0  0  0  0  0  0  0
   39.7600   26.2460   43.7830 C   0  0  0  0  0  0  0  0  0  0  0  0
   38.8990   26.7240   44.7120 F   0  0  0  0  0  0  0  0  0  0  0  0
   40.9990   26.0970   44.4400 F   0  0  0  0  0  0  0  0  0  0  0  0
   39.3620   24.9840   43.3190 F   0  0  0  0  0  0  0  0  0  0  0  0
   43.3896   31.7369   36.8356 H   0  0  0  0  0  0  0  0  0  0  0  0
   42.1531   31.9182   39.0116 H   0  0  0  0  0  0  0  0  0  0  0  0
   41.4640   28.1083   35.9395 H   0  0  0  0  0  0  0  0  0  0  0  0
   42.4450   25.6112   41.0549 H   0  0  0  0  0  0  0  0  0  0  0  0
   41.6174   25.0869   42.5458 H   0  0  0  0  0  0  0  0  0  0  0  0
   39.3418   31.8705   38.5468 H   0  0  0  0  0  0  0  0  0  0  0  0
   36.8543   33.0956   39.4820 H   0  0  0  0  0  0  0  0  0  0  0  0
   36.8134   32.2462   40.7752 H   0  0  0  0  0  0  0  0  0  0  0  0
   39.4496   33.6632   41.2573 H   0  0  0  0  0  0  0  0  0  0  0  0
   41.1471   33.9919   40.3198 H   0  0  0  0  0  0  0  0  0  0  0  0
   40.9562   33.9002   38.5140 H   0  0  0  0  0  0  0  0  0  0  0  0
   42.4000   35.7576   39.0288 H   0  0  0  0  0  0  0  0  0  0  0  0
   40.8285   36.3997   38.4684 H   0  0  0  0  0  0  0  0  0  0  0  0
   42.0085   36.3300   41.2565 H   0  0  0  0  0  0  0  0  0  0  0  0
   41.1642   37.6678   40.4022 H   0  0  0  0  0  0  0  0  0  0  0  0
   40.0736   35.3648   41.9495 H   0  0  0  0  0  0  0  0  0  0  0  0
   39.4674   37.0706   41.7468 H   0  0  0  0  0  0  0  0  0  0  0  0
   38.6671   36.5074   39.5011 H   0  0  0  0  0  0  0  0  0  0  0  0
   37.9071   35.4860   40.7868 H   0  0  0  0  0  0  0  0  0  0  0  0
  1  2  2  0
  2  3  1  0
  3  7  1  0
  4  3  2  0
  5  4  1  0
  6  5  2  0
  6  1  1  0
  7  8  1  0
  7 17  1  0
  8  9  2  0
  9 10  1  0
 10 11  1  0
 11 13  1  0
 11 12  2  0
 13 27  1  0
 14 15  1  0
 14 13  1  0
 16 14  2  0
 17 16  1  0
 17 10  2  0
 18 19  1  0
 18  8  1  0
 18 20  1  0
 19 20  1  0
 21 26  1  0
 21 20  1  0
 22 21  1  0
 23 22  1  0
 23 24  1  0
 24 25  1  0
 26 25  1  0
 27 29  1  0
 27 28  1  0
 30 27  1  0
  1 31  1  0
  2 32  1  0
  5 33  1  0
 15 34  1  0
 15 35  1  0
 18 36  1  6
 19 37  1  0
 19 38  1  0
 20 39  1  1
 22 40  1  0
 22 41  1  0
 23 42  1  0
 23 43  1  0
 24 44  1  0
 24 45  1  0
 25 46  1  0
 25 47  1  0
 26 48  1  0
 26 49  1  0
M  ISO  8  31  14  32  14  33  14  36  13  37  13  38  13  39  13  40  13
M  ISO  8  41  13  42  13  43  13  44  13  45  13  46  13  47  13  48  13
M  ISO  1  49  13
M  END
>  <minimizedAffinity>  (1) 
-6.05743933

>  <minimizedRMSD>  (1) 
1.35738254

$$$$
