
     RDKit          3D

 40 44  0  0  1  0  0  0  0  0999 V2000
   43.1000   31.1430   37.3960 C   0  0  0  0  0  0  0  0  0  0  0  0
   42.4130   31.2680   38.6020 C   0  0  0  0  0  0  0  0  0  0  0  0
   41.3440   30.4310   38.8290 C   0  0  0  0  0  0  0  0  0  0  0  0
   41.0340   29.5310   37.8460 N   0  0  0  0  0  0  0  0  0  0  0  0
   41.7120   29.4330   36.6970 C   0  0  0  0  0  0  0  0  0  0  0  0
   42.7440   30.2430   36.4800 N   0  0  0  0  0  0  0  0  0  0  0  0
   40.4880   30.3460   39.9470 N   0  0  0  0  0  0  0  0  0  0  0  0
   39.7410   31.3400   40.3520 C   0  0  0  0  0  0  0  0  0  0  0  0
   39.0470   30.9050   41.4390 N   0  0  0  0  0  0  0  0  0  0  0  0
   39.3870   29.6260   41.6920 C   0  0  0  0  0  0  0  0  0  0  0  0
   39.0300   28.6790   42.6360 C   0  0  0  0  0  0  0  0  0  0  0  0
   38.1900   28.9830   43.5190 O   0  0  0  0  0  0  0  0  0  0  0  0
   39.6140   27.4510   42.5600 N   0  0  0  0  0  0  0  0  0  0  0  0
   40.5090   27.1320   41.6150 C   0  0  0  0  0  0  0  0  0  0  0  0
   41.0960   25.8470   41.5630 N   0  0  0  0  0  0  0  0  0  0  0  0
   40.8670   28.0400   40.6920 N   0  0  0  0  0  0  0  0  0  0  0  0
   40.3230   29.2630   40.7220 C   0  0  0  0  0  0  0  0  0  0  0  0
   39.5740   32.7600   39.8630 C   0  0  1  0  0  0  0  0  0  0  0  0
   38.1060   33.1550   39.6240 C   0  0  0  0  0  0  0  0  0  0  0  0
   38.9430   33.7530   40.7190 C   0  0  2  0  0  0  0  0  0  0  0  0
   39.4180   35.1690   40.5630 C   0  0  0  0  0  0  0  0  0  0  0  0
   38.6160   36.0690   39.8740 C   0  0  0  0  0  0  0  0  0  0  0  0
   39.6200   37.6480   39.9550 S   0  0  0  0  0  0  0  0  0  0  0  0
   40.9660   36.7390   40.9390 C   0  0  0  0  0  0  0  0  0  0  0  0
   40.5430   35.7030   41.0120 N   0  0  0  0  0  0  0  0  0  0  0  0
   39.2010   26.5070   43.5760 C   0  0  0  0  0  0  0  0  0  0  0  0
   38.3570   27.0510   44.5040 F   0  0  0  0  0  0  0  0  0  0  0  0
   40.3720   26.1700   44.3020 F   0  0  0  0  0  0  0  0  0  0  0  0
   38.6880   25.3480   43.0160 F   0  0  0  0  0  0  0  0  0  0  0  0
   43.9567   31.8031   37.1954 H   0  0  0  0  0  0  0  0  0  0  0  0
   42.7163   32.0142   39.3511 H   0  0  0  0  0  0  0  0  0  0  0  0
   41.4191   28.6906   35.9401 H   0  0  0  0  0  0  0  0  0  0  0  0
   41.7819   25.6235   40.8278 H   0  0  0  0  0  0  0  0  0  0  0  0
   40.8378   25.1343   42.2603 H   0  0  0  0  0  0  0  0  0  0  0  0
   40.5204   32.7604   39.3023 H   0  0  0  0  0  0  0  0  0  0  0  0
   37.8257   33.7547   38.7455 H   0  0  0  0  0  0  0  0  0  0  0  0
   37.1425   32.6284   39.5584 H   0  0  0  0  0  0  0  0  0  0  0  0
   38.7957   33.8580   41.8040 H   0  0  0  0  0  0  0  0  0  0  0  0
   37.6381   35.8979   39.4003 H   0  0  0  0  0  0  0  0  0  0  0  0
   41.9155   37.1282   41.3351 H   0  0  0  0  0  0  0  0  0  0  0  0
  1  2  2  0
  2  3  1  0
  3  7  1  0
  4  3  2  0
  5  4  1  0
  6  5  2  0
  6  1  1  0
  7  8  1  0
  7 17  1  0
  8  9  2  0
  9 10  1  0
 10 11  1  0
 11 12  2  0
 13 11  1  0
 13 26  1  0
 14 13  1  0
 15 14  1  0
 16 17  1  0
 16 14  2  0
 17 10  2  0
 18  8  1  0
 18 20  1  0
 19 18  1  0
 19 20  1  0
 21 20  1  0
 21 25  1  0
 22 23  1  0
 22 21  2  0
 23 24  1  0
 24 25  2  0
 26 28  1  0
 26 27  1  0
 29 26  1  0
  1 30  1  0
  2 31  1  0
  5 32  1  0
 15 33  1  0
 15 34  1  0
 18 35  1  6
 19 36  1  0
 19 37  1  0
 20 38  1  1
 22 39  1  0
 24 40  1  0
M  ISO  8  30  14  31  14  32  14  35  13  36  13  37  13  38  13  39  14
M  ISO  1  40  14
M  END
>  <minimizedAffinity>  (1) 
-5.88036919

>  <minimizedRMSD>  (1) 
1.46400869

$$$$
