
     RDKit          3D

 24 26  0  0  0  0  0  0  0  0999 V2000
   38.8450   30.4800   41.8720 C   0  0  0  0  0  0  0  0  0  0  0  0
   40.0460   29.7640   41.9490 C   0  0  0  0  0  0  0  0  0  0  0  0
   39.7880   28.6450   42.7230 C   0  0  0  0  0  0  0  0  0  0  0  0
   38.4710   28.7400   43.0660 C   0  0  0  0  0  0  0  0  0  0  0  0
   37.9310   29.8180   42.5610 O   0  0  0  0  0  0  0  0  0  0  0  0
   39.8270   32.5910   40.9470 C   0  0  0  0  0  0  0  0  0  0  0  0
   38.7350   31.7260   41.1320 C   0  0  0  0  0  0  0  0  0  0  0  0
   37.5080   32.0960   40.5760 C   0  0  0  0  0  0  0  0  0  0  0  0
   37.4120   33.2690   39.8810 N   0  0  0  0  0  0  0  0  0  0  0  0
   38.4880   34.0750   39.7250 C   0  0  0  0  0  0  0  0  0  0  0  0
   39.6880   33.7320   40.2590 N   0  0  0  0  0  0  0  0  0  0  0  0
   37.8120   27.6970   43.9140 C   0  0  0  0  0  0  0  0  0  0  0  0
   36.6500   28.0080   44.7480 C   0  0  0  0  0  0  0  0  0  0  0  0
   36.3830   27.2610   43.4850 C   0  0  0  0  0  0  0  0  0  0  0  0
   41.0057   30.0368   41.4858 H   0  0  0  0  0  0  0  0  0  0  0  0
   40.4944   27.8492   43.0018 H   0  0  0  0  0  0  0  0  0  0  0  0
   40.8070   32.3282   41.3719 H   0  0  0  0  0  0  0  0  0  0  0  0
   36.6267   31.4489   40.6965 H   0  0  0  0  0  0  0  0  0  0  0  0
   38.3895   35.0146   39.1616 H   0  0  0  0  0  0  0  0  0  0  0  0
   38.7806   27.2187   44.1215 H   0  0  0  0  0  0  0  0  0  0  0  0
   36.5263   27.4970   45.7142 H   0  0  0  0  0  0  0  0  0  0  0  0
   36.2521   28.9408   45.1742 H   0  0  0  0  0  0  0  0  0  0  0  0
   35.8795   27.7554   42.6412 H   0  0  0  0  0  0  0  0  0  0  0  0
   35.8910   26.3158   43.2119 H   0  0  0  0  0  0  0  0  0  0  0  0
  1  2  2  0
  1  5  1  0
  2  3  1  0
  3  4  2  0
  4 12  1  0
  5  4  1  0
  6  7  2  0
  7  1  1  0
  8  7  1  0
  9  8  2  0
 10  9  1  0
 10 11  2  0
 11  6  1  0
 12 13  1  0
 14 12  1  0
 14 13  1  0
  2 15  1  0
  3 16  1  0
  6 17  1  0
  8 18  1  0
 10 19  1  0
 12 20  1  0
 13 21  1  0
 13 22  1  0
 14 23  1  0
 14 24  1  0
M  ISO  8  15  14  16  14  17  14  18  14  19  14  20  13  21  13  22  13
M  ISO  2  23  13  24  13
M  END
>  <minimizedAffinity>  (1) 
-4.58517981

>  <minimizedRMSD>  (1) 
3.79944849

$$$$
