
     RDKit          3D

 20 21  0  0  0  0  0  0  0  0999 V2000
   38.7420   28.2110   42.3190 C   0  0  0  0  0  0  0  0  0  0  0  0
   39.6160   29.2450   42.6740 C   0  0  0  0  0  0  0  0  0  0  0  0
   39.0230   30.4280   42.2650 C   0  0  0  0  0  0  0  0  0  0  0  0
   37.8370   30.0690   41.6890 C   0  0  0  0  0  0  0  0  0  0  0  0
   37.7080   28.7750   41.7390 O   0  0  0  0  0  0  0  0  0  0  0  0
   40.1610   26.4070   43.3040 C   0  0  0  0  0  0  0  0  0  0  0  0
   39.0280   26.8100   42.5900 C   0  0  0  0  0  0  0  0  0  0  0  0
   38.1580   25.8320   42.1320 C   0  0  0  0  0  0  0  0  0  0  0  0
   38.4360   24.5160   42.3940 N   0  0  0  0  0  0  0  0  0  0  0  0
   39.5420   24.1660   43.0880 C   0  0  0  0  0  0  0  0  0  0  0  0
   40.3960   25.1090   43.5380 N   0  0  0  0  0  0  0  0  0  0  0  0
   36.8960   31.0360   41.1200 C   0  0  0  0  0  0  0  0  0  0  0  0
   37.3630   31.9530   40.3750 O   0  0  0  0  0  0  0  0  0  0  0  0
   35.5320   31.0050   41.3500 O   0  0  0  0  0  0  0  0  0  0  0  0
   40.5868   29.1386   43.1803 H   0  0  0  0  0  0  0  0  0  0  0  0
   39.4238   31.4459   42.3800 H   0  0  0  0  0  0  0  0  0  0  0  0
   40.8666   27.1638   43.6774 H   0  0  0  0  0  0  0  0  0  0  0  0
   37.2565   26.1090   41.5658 H   0  0  0  0  0  0  0  0  0  0  0  0
   39.7475   23.1039   43.2875 H   0  0  0  0  0  0  0  0  0  0  0  0
   34.9448   31.6868   40.9372 H   0  0  0  0  0  0  0  0  0  0  0  0
  1  7  1  0
  1  2  2  0
  3  2  1  0
  4  5  1  0
  4  3  2  0
  5  1  1  0
  6 11  2  0
  7  6  1  0
  8  9  1  0
  8  7  2  0
  9 10  2  0
 10 11  1  0
 12 14  1  0
 12  4  1  0
 13 12  2  0
  2 15  1  0
  3 16  1  0
  6 17  1  0
  8 18  1  0
 10 19  1  0
 14 20  1  0
M  ISO  6  15  14  16  14  17  14  18  14  19  14  20   3
M  END
>  <minimizedAffinity>  (1) 
-4.43855715

>  <minimizedRMSD>  (1) 
5.50149107

$$$$
