
     RDKit          3D

 26 27  0  0  0  0  0  0  0  0999 V2000
   38.1560   30.2050   41.5980 C   0  0  0  0  0  0  0  0  0  0  0  0
   38.7730   29.8070   42.7890 C   0  0  0  0  0  0  0  0  0  0  0  0
   38.4190   28.4850   42.9890 C   0  0  0  0  0  0  0  0  0  0  0  0
   37.6240   28.1550   41.9320 C   0  0  0  0  0  0  0  0  0  0  0  0
   37.4810   29.1650   41.1350 O   0  0  0  0  0  0  0  0  0  0  0  0
   39.4640   32.2980   41.2120 C   0  0  0  0  0  0  0  0  0  0  0  0
   38.2800   31.5490   41.0300 C   0  0  0  0  0  0  0  0  0  0  0  0
   37.2180   32.0990   40.3070 C   0  0  0  0  0  0  0  0  0  0  0  0
   37.3660   33.3560   39.7950 N   0  0  0  0  0  0  0  0  0  0  0  0
   38.5130   34.0530   39.9840 C   0  0  0  0  0  0  0  0  0  0  0  0
   39.5490   33.5260   40.6860 N   0  0  0  0  0  0  0  0  0  0  0  0
   37.0380   26.7800   41.7980 C   0  0  0  0  0  0  0  0  0  0  0  0
   37.9290   25.7270   42.4050 C   0  0  0  0  0  0  0  0  0  0  0  0
   36.8350   26.4200   40.3400 C   0  0  0  0  0  0  0  0  0  0  0  0
   39.4128   30.4233   43.4377 H   0  0  0  0  0  0  0  0  0  0  0  0
   38.7166   27.8359   43.8257 H   0  0  0  0  0  0  0  0  0  0  0  0
   40.3067   31.8767   41.7797 H   0  0  0  0  0  0  0  0  0  0  0  0
   36.2868   31.5337   40.1544 H   0  0  0  0  0  0  0  0  0  0  0  0
   38.6063   35.0641   39.5610 H   0  0  0  0  0  0  0  0  0  0  0  0
   36.0762   26.8027   42.3313 H   0  0  0  0  0  0  0  0  0  0  0  0
   37.8760   25.7897   43.5019 H   0  0  0  0  0  0  0  0  0  0  0  0
   37.5951   24.7312   42.0781 H   0  0  0  0  0  0  0  0  0  0  0  0
   38.9663   25.8915   42.0781 H   0  0  0  0  0  0  0  0  0  0  0  0
   36.2958   25.4638   40.2701 H   0  0  0  0  0  0  0  0  0  0  0  0
   36.2486   27.2086   39.8458 H   0  0  0  0  0  0  0  0  0  0  0  0
   37.8133   26.3263   39.8458 H   0  0  0  0  0  0  0  0  0  0  0  0
  1  2  2  0
  2  3  1  0
  4  3  2  0
  5  1  1  0
  5  4  1  0
  7  6  2  0
  7  1  1  0
  8  7  1  0
  9 10  1  0
  9  8  2  0
 10 11  2  0
 11  6  1  0
 12  4  1  0
 12 13  1  0
 14 12  1  0
  2 15  1  0
  3 16  1  0
  6 17  1  0
  8 18  1  0
 10 19  1  0
 12 20  1  0
 13 21  1  0
 13 22  1  0
 13 23  1  0
 14 24  1  0
 14 25  1  0
 14 26  1  0
M  ISO  8  15  14  16  14  17  14  18  14  19  14  20   8  21   8  22   8
M  ISO  4  23   8  24   8  25   8  26   8
M  END
>  <minimizedAffinity>  (1) 
-4.11516476

>  <minimizedRMSD>  (1) 
3.84365892

$$$$
