
     RDKit          3D

 19 20  0  0  0  0  0  0  0  0999 V2000
   37.6410   29.0740   42.1600 C   0  0  0  0  0  0  0  0  0  0  0  0
   37.6630   28.9230   43.5470 C   0  0  0  0  0  0  0  0  0  0  0  0
   37.4800   27.5770   43.8210 C   0  0  0  0  0  0  0  0  0  0  0  0
   37.3570   26.9910   42.5950 C   0  0  0  0  0  0  0  0  0  0  0  0
   37.4530   27.8780   41.6340 O   0  0  0  0  0  0  0  0  0  0  0  0
   36.7760   30.9940   40.8010 C   0  0  0  0  0  0  0  0  0  0  0  0
   37.8060   30.3690   41.5180 C   0  0  0  0  0  0  0  0  0  0  0  0
   39.0230   31.0310   41.6050 C   0  0  0  0  0  0  0  0  0  0  0  0
   39.1650   32.2470   40.9970 N   0  0  0  0  0  0  0  0  0  0  0  0
   38.1490   32.8160   40.3160 C   0  0  0  0  0  0  0  0  0  0  0  0
   36.9690   32.1880   40.2230 N   0  0  0  0  0  0  0  0  0  0  0  0
   37.1470   25.6000   42.2060 C   0  0  0  0  0  0  0  0  0  0  0  0
   36.8860   25.1290   41.0680 O   0  0  0  0  0  0  0  0  0  0  0  0
   37.8004   29.7252   44.2870 H   0  0  0  0  0  0  0  0  0  0  0  0
   37.4423   27.0899   44.8066 H   0  0  0  0  0  0  0  0  0  0  0  0
   35.7979   30.4987   40.7117 H   0  0  0  0  0  0  0  0  0  0  0  0
   39.8626   30.5826   42.1563 H   0  0  0  0  0  0  0  0  0  0  0  0
   38.2893   33.7961   39.8368 H   0  0  0  0  0  0  0  0  0  0  0  0
   37.2278   24.8624   43.0181 H   0  0  0  0  0  0  0  0  0  0  0  0
  1  2  2  0
  2  3  1  0
  4  3  2  0
  5  1  1  0
  5  4  1  0
  6  7  2  0
  7  8  1  0
  7  1  1  0
  9  8  2  0
 10  9  1  0
 11 10  2  0
 11  6  1  0
 12  4  1  0
 13 12  2  0
  2 14  1  0
  3 15  1  0
  6 16  1  0
  8 17  1  0
 10 18  1  0
 12 19  1  0
M  ISO  6  14  14  15  14  16  14  17  14  18  14  19   6
M  END
>  <minimizedAffinity>  (1) 
-3.89212322

>  <minimizedRMSD>  (1) 
3.19197154

$$$$
