
     RDKit          3D

 23 24  0  0  0  0  0  0  0  0999 V2000
   37.0950   30.4250   41.0880 C   0  0  0  0  0  0  0  0  0  0  0  0
   35.9710   29.9170   40.4030 C   0  0  0  0  0  0  0  0  0  0  0  0
   35.7470   28.7070   41.0420 C   0  0  0  0  0  0  0  0  0  0  0  0
   36.6590   28.5060   42.0290 N   0  0  0  0  0  0  0  0  0  0  0  0
   37.4540   29.5500   42.0330 N   0  0  0  0  0  0  0  0  0  0  0  0
   38.9830   32.0660   41.1740 C   0  0  0  0  0  0  0  0  0  0  0  0
   37.6880   31.7060   40.7360 C   0  0  0  0  0  0  0  0  0  0  0  0
   36.9870   32.6040   39.9580 C   0  0  0  0  0  0  0  0  0  0  0  0
   37.5570   33.8050   39.6340 N   0  0  0  0  0  0  0  0  0  0  0  0
   38.8160   34.1140   40.0800 C   0  0  0  0  0  0  0  0  0  0  0  0
   39.5260   33.2420   40.8500 N   0  0  0  0  0  0  0  0  0  0  0  0
   36.7950   27.3940   42.9340 C   0  0  0  0  0  0  0  0  0  0  0  0
   38.1410   27.5180   43.6120 C   0  0  0  0  0  0  0  0  0  0  0  0
   35.4120   30.3682   39.5700 H   0  0  0  0  0  0  0  0  0  0  0  0
   34.9402   28.0049   40.7847 H   0  0  0  0  0  0  0  0  0  0  0  0
   39.5559   31.3619   41.7953 H   0  0  0  0  0  0  0  0  0  0  0  0
   35.9766   32.3562   39.6005 H   0  0  0  0  0  0  0  0  0  0  0  0
   39.2612   35.0834   39.8115 H   0  0  0  0  0  0  0  0  0  0  0  0
   35.9924   27.4219   43.6857 H   0  0  0  0  0  0  0  0  0  0  0  0
   36.7235   26.4413   42.3888 H   0  0  0  0  0  0  0  0  0  0  0  0
   38.0043   27.5054   44.7034 H   0  0  0  0  0  0  0  0  0  0  0  0
   38.7813   26.6750   43.3129 H   0  0  0  0  0  0  0  0  0  0  0  0
   38.6165   28.4638   43.3129 H   0  0  0  0  0  0  0  0  0  0  0  0
  1  5  2  0
  2  3  2  0
  2  1  1  0
  3  4  1  0
  4  5  1  0
  4 12  1  0
  7  1  1  0
  7  6  2  0
  8  7  1  0
  9  8  2  0
  9 10  1  0
 10 11  2  0
 11  6  1  0
 12 13  1  0
  2 14  1  0
  3 15  1  0
  6 16  1  0
  8 17  1  0
 10 18  1  0
 12 19  1  0
 12 20  1  0
 13 21  1  0
 13 22  1  0
 13 23  1  0
M  ISO  8  14  14  15  14  16  14  17  14  18  14  19   8  20   8  21   8
M  ISO  2  22   8  23   8
M  END
>  <minimizedAffinity>  (1) 
-4.01072645

>  <minimizedRMSD>  (1) 
3.96050406

$$$$
