
     RDKit          3D

 39 41  0  0  0  0  0  0  0  0999 V2000
   38.3120   29.2040   41.4830 C   0  0  0  0  0  0  0  0  0  0  0  0
   36.9610   28.8480   41.4180 C   0  0  0  0  0  0  0  0  0  0  0  0
   36.8990   27.5110   41.7620 C   0  0  0  0  0  0  0  0  0  0  0  0
   38.2080   27.1290   42.0150 C   0  0  0  0  0  0  0  0  0  0  0  0
   38.9930   28.1360   41.8430 O   0  0  0  0  0  0  0  0  0  0  0  0
   37.9170   31.6590   41.1850 C   0  0  0  0  0  0  0  0  0  0  0  0
   38.7980   30.5430   41.1880 C   0  0  0  0  0  0  0  0  0  0  0  0
   40.1390   30.7720   40.9010 C   0  0  0  0  0  0  0  0  0  0  0  0
   40.5730   32.0440   40.6260 N   0  0  0  0  0  0  0  0  0  0  0  0
   39.6830   33.0710   40.6390 C   0  0  0  0  0  0  0  0  0  0  0  0
   38.3770   32.8890   40.9120 N   0  0  0  0  0  0  0  0  0  0  0  0
   40.2050   34.3600   40.3450 N   0  0  0  0  0  0  0  0  0  0  0  0
   39.2790   35.4280   40.0190 C   0  0  0  0  0  0  0  0  0  0  0  0
   40.0560   36.7260   39.9040 C   0  0  0  0  0  0  0  0  0  0  0  0
   41.0540   36.9360   40.9930 C   0  0  0  0  0  0  0  0  0  0  0  0
   41.8270   35.7250   41.3970 C   0  0  0  0  0  0  0  0  0  0  0  0
   41.6270   34.6480   40.3600 C   0  0  0  0  0  0  0  0  0  0  0  0
   38.5230   25.8000   42.4000 N   0  0  0  0  0  0  0  0  0  0  0  0
   39.6220   25.5940   43.2970 C   0  0  0  0  0  0  0  0  0  0  0  0
   39.8760   26.4190   44.2480 N   0  0  0  0  0  0  0  0  0  0  0  0
   40.4700   24.4340   43.1390 N   0  0  0  0  0  0  0  0  0  0  0  0
   39.2880   27.2470   44.3900 H   0  0  0  0  0  0  0  0  0  0  0  0
   36.1178   29.5006   41.1476 H   0  0  0  0  0  0  0  0  0  0  0  0
   35.9992   26.8812   41.8225 H   0  0  0  0  0  0  0  0  0  0  0  0
   36.8499   31.5125   41.4083 H   0  0  0  0  0  0  0  0  0  0  0  0
   40.8514   29.9339   40.8944 H   0  0  0  0  0  0  0  0  0  0  0  0
   38.7818   35.2080   39.0627 H   0  0  0  0  0  0  0  0  0  0  0  0
   38.5157   35.5161   40.8062 H   0  0  0  0  0  0  0  0  0  0  0  0
   40.5892   36.7255   38.9419 H   0  0  0  0  0  0  0  0  0  0  0  0
   39.3234   37.5428   39.9827 H   0  0  0  0  0  0  0  0  0  0  0  0
   41.7708   37.6982   40.6537 H   0  0  0  0  0  0  0  0  0  0  0  0
   40.4758   37.2354   41.8796 H   0  0  0  0  0  0  0  0  0  0  0  0
   42.8957   35.9758   41.4673 H   0  0  0  0  0  0  0  0  0  0  0  0
   41.4754   35.3686   42.3765 H   0  0  0  0  0  0  0  0  0  0  0  0
   42.1958   33.7466   40.6317 H   0  0  0  0  0  0  0  0  0  0  0  0
   41.9807   34.9734   39.3705 H   0  0  0  0  0  0  0  0  0  0  0  0
   37.9757   25.0034   42.0439 H   0  0  0  0  0  0  0  0  0  0  0  0
   41.2606   24.2826   43.7816 H   0  0  0  0  0  0  0  0  0  0  0  0
   40.2836   23.7588   42.3838 H   0  0  0  0  0  0  0  0  0  0  0  0
  1  5  1  0
  2  1  2  0
  2  3  1  0
  3  4  2  0
  4 18  1  0
  5  4  1  0
  6  7  2  0
  7  1  1  0
  8  7  1  0
  9 10  1  0
  9  8  2  0
 10 11  2  0
 11  6  1  0
 12 17  1  0
 12 10  1  0
 13 12  1  0
 14 13  1  0
 14 15  1  0
 15 16  1  0
 17 16  1  0
 18 19  1  0
 19 20  2  0
 20 22  1  0
 21 19  1  0
  2 23  1  0
  3 24  1  0
  6 25  1  0
  8 26  1  0
 13 27  1  0
 13 28  1  0
 14 29  1  0
 14 30  1  0
 15 31  1  0
 15 32  1  0
 16 33  1  0
 16 34  1  0
 17 35  1  0
 17 36  1  0
 18 37  1  0
 21 38  1  0
 21 39  1  0
M  ISO  8  23  14  24  14  25  14  26  14  27  13  28  13  29  13  30  13
M  ISO  6  31  13  32  13  33  13  34  13  35  13  36  13
M  END
>  <minimizedAffinity>  (1) 
-5.95179319

>  <minimizedRMSD>  (1) 
9.50519657

$$$$
