
     RDKit          3D

 37 39  0  0  0  0  0  0  0  0999 V2000
   37.4180   25.9360   42.1680 C   0  0  0  0  0  0  0  0  0  0  0  0
   37.5130   26.9940   41.2380 C   0  0  0  0  0  0  0  0  0  0  0  0
   37.1250   26.7450   39.9260 C   0  0  0  0  0  0  0  0  0  0  0  0
   36.6730   25.5000   39.5960 N   0  0  0  0  0  0  0  0  0  0  0  0
   36.5970   24.5090   40.5230 C   0  0  0  0  0  0  0  0  0  0  0  0
   36.9680   24.7320   41.7980 N   0  0  0  0  0  0  0  0  0  0  0  0
   36.0960   23.3200   39.9230 N   0  0  0  0  0  0  0  0  0  0  0  0
   34.8210   23.1440   39.5910 C   0  0  0  0  0  0  0  0  0  0  0  0
   34.4560   21.9450   39.0150 C   0  0  0  0  0  0  0  0  0  0  0  0
   33.0470   21.6660   38.6120 C   0  0  0  0  0  0  0  0  0  0  0  0
   35.4060   20.9740   38.7980 C   0  0  0  0  0  0  0  0  0  0  0  0
   35.1470   19.8400   38.2710 O   0  0  0  0  0  0  0  0  0  0  0  0
   36.7020   21.1840   39.1490 N   0  0  0  0  0  0  0  0  0  0  0  0
   37.0410   22.3720   39.7160 C   0  0  0  0  0  0  0  0  0  0  0  0
   38.2670   22.4840   40.0110 O   0  0  0  0  0  0  0  0  0  0  0  0
   38.0070   28.3080   41.6520 C   0  0  0  0  0  0  0  0  0  0  0  0
   38.5140   28.5850   42.9150 C   0  0  0  0  0  0  0  0  0  0  0  0
   38.8670   29.9260   42.8990 C   0  0  0  0  0  0  0  0  0  0  0  0
   38.5530   30.3870   41.6270 C   0  0  0  0  0  0  0  0  0  0  0  0
   38.0570   29.4200   40.9330 O   0  0  0  0  0  0  0  0  0  0  0  0
   38.7820   31.7370   41.2400 N   0  0  0  0  0  0  0  0  0  0  0  0
   37.8200   32.3940   40.4140 C   0  0  0  0  0  0  0  0  0  0  0  0
   36.5670   32.1670   40.5480 N   0  0  0  0  0  0  0  0  0  0  0  0
   38.2530   33.3370   39.4060 N   0  0  0  0  0  0  0  0  0  0  0  0
   36.2200   31.5000   41.2570 H   0  0  0  0  0  0  0  0  0  0  0  0
   37.7186   26.1044   43.2126 H   0  0  0  0  0  0  0  0  0  0  0  0
   37.1814   27.5386   39.1664 H   0  0  0  0  0  0  0  0  0  0  0  0
   34.0766   23.9337   39.7708 H   0  0  0  0  0  0  0  0  0  0  0  0
   32.4259   21.5430   39.5115 H   0  0  0  0  0  0  0  0  0  0  0  0
   32.6636   22.5057   38.0137 H   0  0  0  0  0  0  0  0  0  0  0  0
   33.0126   20.7436   38.0137 H   0  0  0  0  0  0  0  0  0  0  0  0
   37.4137   20.4569   38.9885 H   0  0  0  0  0  0  0  0  0  0  0  0
   38.6150   27.8837   43.7564 H   0  0  0  0  0  0  0  0  0  0  0  0
   39.3057   30.5057   43.7245 H   0  0  0  0  0  0  0  0  0  0  0  0
   39.6293   32.2331   41.5511 H   0  0  0  0  0  0  0  0  0  0  0  0
   39.2564   33.5338   39.2820 H   0  0  0  0  0  0  0  0  0  0  0  0
   37.5579   33.8116   38.8123 H   0  0  0  0  0  0  0  0  0  0  0  0
  2 16  1  0
  2  1  2  0
  3  2  1  0
  4  3  2  0
  4  5  1  0
  5  6  2  0
  6  1  1  0
  7  5  1  0
  8  7  1  0
  9  8  2  0
 10  9  1  0
 11  9  1  0
 11 13  1  0
 12 11  2  0
 13 14  1  0
 14  7  1  0
 14 15  2  0
 16 17  2  0
 18 17  1  0
 19 18  2  0
 20 19  1  0
 20 16  1  0
 21 19  1  0
 22 23  2  0
 22 21  1  0
 23 25  1  0
 24 22  1  0
  1 26  1  0
  3 27  1  0
  8 28  1  0
 10 29  1  0
 10 30  1  0
 10 31  1  0
 13 32  1  0
 17 33  1  0
 18 34  1  0
 21 35  1  0
 24 36  1  0
 24 37  1  0
M  ISO  8  26  14  27  14  28  14  29   8  30   8  31   8  32   9  33  14
M  ISO  1  34  14
M  END
>  <minimizedAffinity>  (1) 
-5.83115005

>  <minimizedRMSD>  (1) 
0.429046005

$$$$
