
     RDKit          3D

 40 42  0  0  0  0  0  0  0  0999 V2000
   38.9290   29.6330   41.7530 C   0  0  0  0  0  0  0  0  0  0  0  0
   40.0990   29.8650   42.5000 C   0  0  0  0  0  0  0  0  0  0  0  0
   40.3190   31.2320   42.4270 C   0  0  0  0  0  0  0  0  0  0  0  0
   39.2970   31.7430   41.6590 C   0  0  0  0  0  0  0  0  0  0  0  0
   38.5130   30.7870   41.2870 O   0  0  0  0  0  0  0  0  0  0  0  0
   38.6250   27.2700   42.5050 C   0  0  0  0  0  0  0  0  0  0  0  0
   38.3540   28.3070   41.5810 C   0  0  0  0  0  0  0  0  0  0  0  0
   37.5290   28.0300   40.5090 C   0  0  0  0  0  0  0  0  0  0  0  0
   36.9960   26.7870   40.3580 N   0  0  0  0  0  0  0  0  0  0  0  0
   37.2780   25.7980   41.2750 C   0  0  0  0  0  0  0  0  0  0  0  0
   38.0810   26.0490   42.3260 N   0  0  0  0  0  0  0  0  0  0  0  0
   36.6980   24.4410   41.1110 C   0  0  0  0  0  0  0  0  0  0  0  0
   36.0650   24.2070   39.7780 C   0  0  0  0  0  0  0  0  0  0  0  0
   36.2350   22.7430   39.4060 C   0  0  0  0  0  0  0  0  0  0  0  0
   37.6700   22.3320   39.2640 C   0  0  0  0  0  0  0  0  0  0  0  0
   38.6040   23.0990   40.1690 C   0  0  0  0  0  0  0  0  0  0  0  0
   37.8110   23.4470   41.4110 C   0  0  0  0  0  0  0  0  0  0  0  0
   39.1940   33.1380   41.3650 N   0  0  0  0  0  0  0  0  0  0  0  0
   38.2220   33.5770   40.4200 C   0  0  0  0  0  0  0  0  0  0  0  0
   37.0740   33.0120   40.3410 N   0  0  0  0  0  0  0  0  0  0  0  0
   38.5360   34.6800   39.5350 N   0  0  0  0  0  0  0  0  0  0  0  0
   36.8310   32.2280   40.9570 H   0  0  0  0  0  0  0  0  0  0  0  0
   40.7099   29.1193   43.0299 H   0  0  0  0  0  0  0  0  0  0  0  0
   41.1435   31.7946   42.8893 H   0  0  0  0  0  0  0  0  0  0  0  0
   39.2791   27.4597   43.3688 H   0  0  0  0  0  0  0  0  0  0  0  0
   37.3018   28.8167   39.7745 H   0  0  0  0  0  0  0  0  0  0  0  0
   35.8601   24.3159   41.8126 H   0  0  0  0  0  0  0  0  0  0  0  0
   34.9942   24.4538   39.8286 H   0  0  0  0  0  0  0  0  0  0  0  0
   36.5439   24.8437   39.0196 H   0  0  0  0  0  0  0  0  0  0  0  0
   35.7709   22.1269   40.1903 H   0  0  0  0  0  0  0  0  0  0  0  0
   35.7549   22.5968   38.4272 H   0  0  0  0  0  0  0  0  0  0  0  0
   37.7519   21.2617   39.5043 H   0  0  0  0  0  0  0  0  0  0  0  0
   37.9697   22.5487   38.2280 H   0  0  0  0  0  0  0  0  0  0  0  0
   39.4718   22.4772   40.4342 H   0  0  0  0  0  0  0  0  0  0  0  0
   38.9835   24.0045   39.6730 H   0  0  0  0  0  0  0  0  0  0  0  0
   38.4905   23.8874   42.1555 H   0  0  0  0  0  0  0  0  0  0  0  0
   37.3510   22.5236   41.7928 H   0  0  0  0  0  0  0  0  0  0  0  0
   39.8139   33.8166   41.8299 H   0  0  0  0  0  0  0  0  0  0  0  0
   37.8396   35.0041   38.8488 H   0  0  0  0  0  0  0  0  0  0  0  0
   39.4557   35.1402   39.5919 H   0  0  0  0  0  0  0  0  0  0  0  0
  1  2  2  0
  3  2  1  0
  4  3  2  0
  5  4  1  0
  5  1  1  0
  7  1  1  0
  7  6  2  0
  8  7  1  0
  9  8  2  0
  9 10  1  0
 10 11  2  0
 11  6  1  0
 12 10  1  0
 12 17  1  0
 13 12  1  0
 14 13  1  0
 15 14  1  0
 15 16  1  0
 16 17  1  0
 18  4  1  0
 19 18  1  0
 20 19  2  0
 20 22  1  0
 21 19  1  0
  2 23  1  0
  3 24  1  0
  6 25  1  0
  8 26  1  0
 12 27  1  0
 13 28  1  0
 13 29  1  0
 14 30  1  0
 14 31  1  0
 15 32  1  0
 15 33  1  0
 16 34  1  0
 16 35  1  0
 17 36  1  0
 17 37  1  0
 18 38  1  0
 21 39  1  0
 21 40  1  0
M  ISO  8  23  14  24  14  25  14  26  14  27  13  28  13  29  13  30  13
M  ISO  7  31  13  32  13  33  13  34  13  35  13  36  13  37  13
M  END
>  <minimizedAffinity>  (1) 
-5.767169

>  <minimizedRMSD>  (1) 
1.5827322

$$$$
