
     RDKit          3D

 37 39  0  0  0  0  0  0  0  0999 V2000
   39.0590   29.7400   41.8420 C   0  0  0  0  0  0  0  0  0  0  0  0
   40.2860   29.9970   42.4750 C   0  0  0  0  0  0  0  0  0  0  0  0
   40.4920   31.3600   42.3670 C   0  0  0  0  0  0  0  0  0  0  0  0
   39.3870   31.8490   41.6790 C   0  0  0  0  0  0  0  0  0  0  0  0
   38.5840   30.8820   41.3930 O   0  0  0  0  0  0  0  0  0  0  0  0
   39.0290   27.3190   42.4760 C   0  0  0  0  0  0  0  0  0  0  0  0
   38.4870   28.3990   41.7450 C   0  0  0  0  0  0  0  0  0  0  0  0
   37.3960   28.1660   40.9270 C   0  0  0  0  0  0  0  0  0  0  0  0
   36.8730   26.9060   40.8480 N   0  0  0  0  0  0  0  0  0  0  0  0
   37.4140   25.8850   41.5620 C   0  0  0  0  0  0  0  0  0  0  0  0
   38.4760   26.0930   42.3640 N   0  0  0  0  0  0  0  0  0  0  0  0
   36.8810   24.4950   41.5100 C   0  0  0  0  0  0  0  0  0  0  0  0
   38.0370   23.5210   41.5800 C   0  0  0  0  0  0  0  0  0  0  0  0
   37.7650   22.5520   40.4340 C   0  0  0  0  0  0  0  0  0  0  0  0
   37.1620   23.4790   39.4050 C   0  0  0  0  0  0  0  0  0  0  0  0
   36.1570   24.2540   40.2150 C   0  0  0  0  0  0  0  0  0  0  0  0
   39.2400   33.2410   41.3700 N   0  0  0  0  0  0  0  0  0  0  0  0
   38.2410   33.6360   40.4360 C   0  0  0  0  0  0  0  0  0  0  0  0
   37.1200   33.0400   40.3620 N   0  0  0  0  0  0  0  0  0  0  0  0
   38.4940   34.7400   39.5400 N   0  0  0  0  0  0  0  0  0  0  0  0
   36.8990   32.2500   41.0070 H   0  0  0  0  0  0  0  0  0  0  0  0
   40.9482   29.2635   42.9582 H   0  0  0  0  0  0  0  0  0  0  0  0
   41.3493   31.9360   42.7455 H   0  0  0  0  0  0  0  0  0  0  0  0
   39.8971   27.4762   43.1330 H   0  0  0  0  0  0  0  0  0  0  0  0
   36.9533   28.9879   40.3452 H   0  0  0  0  0  0  0  0  0  0  0  0
   36.1891   24.3554   42.3536 H   0  0  0  0  0  0  0  0  0  0  0  0
   38.9961   24.0399   41.4354 H   0  0  0  0  0  0  0  0  0  0  0  0
   38.1108   23.0172   42.5551 H   0  0  0  0  0  0  0  0  0  0  0  0
   38.6937   22.0909   40.0666 H   0  0  0  0  0  0  0  0  0  0  0  0
   37.1247   21.6996   40.7050 H   0  0  0  0  0  0  0  0  0  0  0  0
   36.6718   22.9134   38.5989 H   0  0  0  0  0  0  0  0  0  0  0  0
   37.9033   24.1157   38.8999 H   0  0  0  0  0  0  0  0  0  0  0  0
   35.9002   25.2036   39.7228 H   0  0  0  0  0  0  0  0  0  0  0  0
   35.2021   23.7234   40.3442 H   0  0  0  0  0  0  0  0  0  0  0  0
   39.8469   33.9435   41.8162 H   0  0  0  0  0  0  0  0  0  0  0  0
   37.7739   35.0290   38.8627 H   0  0  0  0  0  0  0  0  0  0  0  0
   39.3946   35.2384   39.5783 H   0  0  0  0  0  0  0  0  0  0  0  0
  1  2  2  0
  3  2  1  0
  4  3  2  0
  5  4  1  0
  5  1  1  0
  7  1  1  0
  7  6  2  0
  8  7  1  0
  9  8  2  0
  9 10  1  0
 10 11  2  0
 11  6  1  0
 12 10  1  0
 12 13  1  0
 14 13  1  0
 15 16  1  0
 15 14  1  0
 16 12  1  0
 17  4  1  0
 18 17  1  0
 19 18  2  0
 19 21  1  0
 20 18  1  0
  2 22  1  0
  3 23  1  0
  6 24  1  0
  8 25  1  0
 12 26  1  0
 13 27  1  0
 13 28  1  0
 14 29  1  0
 14 30  1  0
 15 31  1  0
 15 32  1  0
 16 33  1  0
 16 34  1  0
 17 35  1  0
 20 36  1  0
 20 37  1  0
M  ISO  8  22  14  23  14  24  14  25  14  26  13  27  13  28  13  29  13
M  ISO  5  30  13  31  13  32  13  33  13  34  13
M  END
>  <minimizedAffinity>  (1) 
-5.6686101

>  <minimizedRMSD>  (1) 
1.78606057

$$$$
