
     RDKit          3D

 31 32  0  0  0  0  0  0  0  0999 V2000
   38.3140   27.0900   42.1950 C   0  0  0  0  0  0  0  0  0  0  0  0
   38.2030   28.1760   41.2790 C   0  0  0  0  0  0  0  0  0  0  0  0
   37.5420   27.9840   40.0680 C   0  0  0  0  0  0  0  0  0  0  0  0
   37.0150   26.7650   39.7880 N   0  0  0  0  0  0  0  0  0  0  0  0
   37.1420   25.7540   40.6900 C   0  0  0  0  0  0  0  0  0  0  0  0
   37.7840   25.9000   41.8870 N   0  0  0  0  0  0  0  0  0  0  0  0
   36.5780   24.4870   40.3660 N   0  0  0  0  0  0  0  0  0  0  0  0
   37.3300   23.3080   40.5960 C   0  0  0  0  0  0  0  0  0  0  0  0
   38.3020   23.3440   41.4450 N   0  0  0  0  0  0  0  0  0  0  0  0
   36.9530   22.1400   39.8620 N   0  0  0  0  0  0  0  0  0  0  0  0
   38.8230   22.4350   41.5730 H   0  0  0  0  0  0  0  0  0  0  0  0
   38.7680   29.4880   41.6330 C   0  0  0  0  0  0  0  0  0  0  0  0
   39.6630   29.6970   42.6730 C   0  0  0  0  0  0  0  0  0  0  0  0
   39.9500   31.0460   42.6800 C   0  0  0  0  0  0  0  0  0  0  0  0
   39.2190   31.5870   41.6490 C   0  0  0  0  0  0  0  0  0  0  0  0
   38.5510   30.6560   41.0710 O   0  0  0  0  0  0  0  0  0  0  0  0
   39.2610   32.9810   41.3470 N   0  0  0  0  0  0  0  0  0  0  0  0
   38.3170   33.5110   40.4130 C   0  0  0  0  0  0  0  0  0  0  0  0
   37.1200   33.0680   40.3430 N   0  0  0  0  0  0  0  0  0  0  0  0
   38.7090   34.5730   39.5190 N   0  0  0  0  0  0  0  0  0  0  0  0
   36.8000   32.3170   40.9630 H   0  0  0  0  0  0  0  0  0  0  0  0
   38.8346   27.2294   43.1540 H   0  0  0  0  0  0  0  0  0  0  0  0
   37.4483   28.8100   39.3476 H   0  0  0  0  0  0  0  0  0  0  0  0
   35.6301   24.4280   39.9673 H   0  0  0  0  0  0  0  0  0  0  0  0
   37.4697   21.2590   39.9951 H   0  0  0  0  0  0  0  0  0  0  0  0
   36.1647   22.1798   39.2002 H   0  0  0  0  0  0  0  0  0  0  0  0
   40.0648   28.9357   43.3577 H   0  0  0  0  0  0  0  0  0  0  0  0
   40.6237   31.5783   43.3676 H   0  0  0  0  0  0  0  0  0  0  0  0
   39.9582   33.5938   41.7934 H   0  0  0  0  0  0  0  0  0  0  0  0
   38.0303   34.9561   38.8455 H   0  0  0  0  0  0  0  0  0  0  0  0
   39.6676   34.9483   39.5541 H   0  0  0  0  0  0  0  0  0  0  0  0
  2 12  1  0
  2  1  2  0
  3  2  1  0
  4  3  2  0
  4  5  1  0
  5  6  2  0
  6  1  1  0
  7  8  1  0
  7  5  1  0
  8  9  2  0
  9 11  1  0
 10  8  1  0
 12 13  2  0
 13 14  1  0
 15 14  2  0
 16 12  1  0
 16 15  1  0
 17 15  1  0
 18 17  1  0
 19 18  2  0
 19 21  1  0
 20 18  1  0
  1 22  1  0
  3 23  1  0
  7 24  1  0
 10 25  1  0
 10 26  1  0
 13 27  1  0
 14 28  1  0
 17 29  1  0
 20 30  1  0
 20 31  1  0
M  ISO  4  22  14  23  14  27  14  28  14
M  END
>  <minimizedAffinity>  (1) 
-5.50669432

>  <minimizedRMSD>  (1) 
1.442819

$$$$
