
     RDKit          3D

 36 38  0  0  0  0  0  0  0  0999 V2000
   38.6080   29.7030   41.3800 C   0  0  0  0  0  0  0  0  0  0  0  0
   39.4390   29.7580   42.4930 C   0  0  0  0  0  0  0  0  0  0  0  0
   39.8250   31.0830   42.6190 C   0  0  0  0  0  0  0  0  0  0  0  0
   39.2060   31.7590   41.5770 C   0  0  0  0  0  0  0  0  0  0  0  0
   38.5080   30.9280   40.8760 O   0  0  0  0  0  0  0  0  0  0  0  0
   37.9400   27.3340   41.6970 C   0  0  0  0  0  0  0  0  0  0  0  0
   37.9810   28.4830   40.8930 C   0  0  0  0  0  0  0  0  0  0  0  0
   37.4110   28.4140   39.6340 C   0  0  0  0  0  0  0  0  0  0  0  0
   36.8300   27.2570   39.2020 N   0  0  0  0  0  0  0  0  0  0  0  0
   36.8150   26.1550   40.0300 C   0  0  0  0  0  0  0  0  0  0  0  0
   37.3620   26.1950   41.2610 N   0  0  0  0  0  0  0  0  0  0  0  0
   36.1940   24.9830   39.5210 N   0  0  0  0  0  0  0  0  0  0  0  0
   36.0860   23.7390   40.2450 C   0  0  0  0  0  0  0  0  0  0  0  0
   34.8950   23.0790   39.5790 C   0  0  0  0  0  0  0  0  0  0  0  0
   35.1190   23.4370   38.1250 C   0  0  0  0  0  0  0  0  0  0  0  0
   35.5860   24.8650   38.2130 C   0  0  0  0  0  0  0  0  0  0  0  0
   39.3680   33.1600   41.3770 N   0  0  0  0  0  0  0  0  0  0  0  0
   38.5320   33.8310   40.4390 C   0  0  0  0  0  0  0  0  0  0  0  0
   37.3180   33.4940   40.2670 N   0  0  0  0  0  0  0  0  0  0  0  0
   39.0700   34.9220   39.6610 N   0  0  0  0  0  0  0  0  0  0  0  0
   36.8940   32.7190   40.8190 H   0  0  0  0  0  0  0  0  0  0  0  0
   39.7311   28.9195   43.1423 H   0  0  0  0  0  0  0  0  0  0  0  0
   40.4861   31.5109   43.3870 H   0  0  0  0  0  0  0  0  0  0  0  0
   38.3873   27.3620   42.7015 H   0  0  0  0  0  0  0  0  0  0  0  0
   37.4262   29.2966   38.9776 H   0  0  0  0  0  0  0  0  0  0  0  0
   36.9950   23.1305   40.1289 H   0  0  0  0  0  0  0  0  0  0  0  0
   35.9663   23.8705   41.3305 H   0  0  0  0  0  0  0  0  0  0  0  0
   34.9042   21.9894   39.7297 H   0  0  0  0  0  0  0  0  0  0  0  0
   33.9229   23.4078   39.9752 H   0  0  0  0  0  0  0  0  0  0  0  0
   34.1862   23.3581   37.5473 H   0  0  0  0  0  0  0  0  0  0  0  0
   35.8303   22.7723   37.6129 H   0  0  0  0  0  0  0  0  0  0  0  0
   36.3220   25.0799   37.4242 H   0  0  0  0  0  0  0  0  0  0  0  0
   34.7595   25.5780   38.0769 H   0  0  0  0  0  0  0  0  0  0  0  0
   40.0819   33.6821   41.9049 H   0  0  0  0  0  0  0  0  0  0  0  0
   38.4727   35.4129   38.9804 H   0  0  0  0  0  0  0  0  0  0  0  0
   40.0511   35.2094   39.7866 H   0  0  0  0  0  0  0  0  0  0  0  0
  1  2  2  0
  2  3  1  0
  4  3  2  0
  5  1  1  0
  5  4  1  0
  7  1  1  0
  7  6  2  0
  8  7  1  0
  9  8  2  0
  9 10  1  0
 10 11  2  0
 11  6  1  0
 12 10  1  0
 12 13  1  0
 14 13  1  0
 15 16  1  0
 15 14  1  0
 16 12  1  0
 17  4  1  0
 18 17  1  0
 19 18  2  0
 19 21  1  0
 20 18  1  0
  2 22  1  0
  3 23  1  0
  6 24  1  0
  8 25  1  0
 13 26  1  0
 13 27  1  0
 14 28  1  0
 14 29  1  0
 15 30  1  0
 15 31  1  0
 16 32  1  0
 16 33  1  0
 17 34  1  0
 20 35  1  0
 20 36  1  0
M  ISO  8  22  14  23  14  24  14  25  14  26  13  27  13  28  13  29  13
M  ISO  4  30  13  31  13  32  13  33  13
M  END
>  <minimizedAffinity>  (1) 
-5.49337912

>  <minimizedRMSD>  (1) 
1.87537551

$$$$
