
     RDKit          3D

 31 33  0  0  0  0  0  0  0  0999 V2000
   37.0260   30.0880   40.1900 C   0  0  0  0  0  0  0  0  0  0  0  0
   35.8020   29.8230   39.5710 C   0  0  0  0  0  0  0  0  0  0  0  0
   35.5800   28.4700   39.7590 C   0  0  0  0  0  0  0  0  0  0  0  0
   36.6640   27.9880   40.4700 C   0  0  0  0  0  0  0  0  0  0  0  0
   37.4820   28.9550   40.7010 O   0  0  0  0  0  0  0  0  0  0  0  0
   38.8820   31.5840   40.9280 C   0  0  0  0  0  0  0  0  0  0  0  0
   37.6590   31.4160   40.2370 C   0  0  0  0  0  0  0  0  0  0  0  0
   37.0900   32.5040   39.6220 C   0  0  0  0  0  0  0  0  0  0  0  0
   37.7270   33.7100   39.7010 N   0  0  0  0  0  0  0  0  0  0  0  0
   38.9000   33.8440   40.3730 C   0  0  0  0  0  0  0  0  0  0  0  0
   39.4730   32.7820   40.9830 N   0  0  0  0  0  0  0  0  0  0  0  0
   39.5550   35.1460   40.4390 C   0  0  0  0  0  0  0  0  0  0  0  0
   39.0450   36.3300   39.9410 C   0  0  0  0  0  0  0  0  0  0  0  0
   39.9800   37.3060   40.2150 C   0  0  0  0  0  0  0  0  0  0  0  0
   41.0090   36.6930   40.8610 C   0  0  0  0  0  0  0  0  0  0  0  0
   40.7060   35.4120   40.9670 O   0  0  0  0  0  0  0  0  0  0  0  0
   36.7550   26.6170   40.8350 N   0  0  0  0  0  0  0  0  0  0  0  0
   37.2330   26.2930   42.1440 C   0  0  0  0  0  0  0  0  0  0  0  0
   36.9490   27.0160   43.1670 N   0  0  0  0  0  0  0  0  0  0  0  0
   38.0600   25.1190   42.3300 N   0  0  0  0  0  0  0  0  0  0  0  0
   36.3630   27.8510   43.0610 H   0  0  0  0  0  0  0  0  0  0  0  0
   35.1523   30.5383   39.0455 H   0  0  0  0  0  0  0  0  0  0  0  0
   34.7116   27.8913   39.4111 H   0  0  0  0  0  0  0  0  0  0  0  0
   39.3508   30.7215   41.4243 H   0  0  0  0  0  0  0  0  0  0  0  0
   36.1398   32.4064   39.0764 H   0  0  0  0  0  0  0  0  0  0  0  0
   38.0822   36.4670   39.4269 H   0  0  0  0  0  0  0  0  0  0  0  0
   39.9079   38.3737   39.9605 H   0  0  0  0  0  0  0  0  0  0  0  0
   41.9263   37.1766   41.2281 H   0  0  0  0  0  0  0  0  0  0  0  0
   36.4836   25.8755   40.1736 H   0  0  0  0  0  0  0  0  0  0  0  0
   38.4086   24.8781   43.2688 H   0  0  0  0  0  0  0  0  0  0  0  0
   38.2997   24.5248   41.5235 H   0  0  0  0  0  0  0  0  0  0  0  0
  1  7  1  0
  1  5  1  0
  2  3  1  0
  2  1  2  0
  3  4  2  0
  4  5  1  0
  4 17  1  0
  6 11  2  0
  7  6  1  0
  8  9  1  0
  8  7  2  0
  9 10  2  0
 10 12  1  0
 10 11  1  0
 12 16  1  0
 13 14  1  0
 13 12  2  0
 14 15  2  0
 15 16  1  0
 17 18  1  0
 18 20  1  0
 18 19  2  0
 21 19  1  0
  2 22  1  0
  3 23  1  0
  6 24  1  0
  8 25  1  0
 13 26  1  0
 14 27  1  0
 15 28  1  0
 17 29  1  0
 20 30  1  0
 20 31  1  0
M  ISO  7  22  14  23  14  24  14  25  14  26  14  27  14  28  14
M  END
>  <minimizedAffinity>  (1) 
-5.40781307

>  <minimizedRMSD>  (1) 
9.17117977

$$$$
