
     RDKit          3D

 32 34  0  0  0  0  0  0  0  0999 V2000
   39.0100   29.4950   41.5910 C   0  0  0  0  0  0  0  0  0  0  0  0
   39.8780   29.7730   42.6520 C   0  0  0  0  0  0  0  0  0  0  0  0
   40.0360   31.1480   42.6660 C   0  0  0  0  0  0  0  0  0  0  0  0
   39.2640   31.6280   41.6260 C   0  0  0  0  0  0  0  0  0  0  0  0
   38.6820   30.6470   41.0210 O   0  0  0  0  0  0  0  0  0  0  0  0
   38.4080   27.1540   42.2190 C   0  0  0  0  0  0  0  0  0  0  0  0
   38.5820   28.1460   41.2320 C   0  0  0  0  0  0  0  0  0  0  0  0
   38.3390   27.8140   39.9190 C   0  0  0  0  0  0  0  0  0  0  0  0
   37.9390   26.5410   39.6110 N   0  0  0  0  0  0  0  0  0  0  0  0
   37.7800   25.6060   40.5890 C   0  0  0  0  0  0  0  0  0  0  0  0
   38.0160   25.9240   41.8770 N   0  0  0  0  0  0  0  0  0  0  0  0
   37.3510   24.2660   40.1950 C   0  0  0  0  0  0  0  0  0  0  0  0
   36.1410   24.0910   39.5770 C   0  0  0  0  0  0  0  0  0  0  0  0
   35.8270   22.7880   39.2450 C   0  0  0  0  0  0  0  0  0  0  0  0
   36.6510   21.7330   39.5030 N   0  0  0  0  0  0  0  0  0  0  0  0
   37.8320   21.9730   40.1140 C   0  0  0  0  0  0  0  0  0  0  0  0
   38.1670   23.2360   40.4520 N   0  0  0  0  0  0  0  0  0  0  0  0
   39.1820   33.0240   41.3340 N   0  0  0  0  0  0  0  0  0  0  0  0
   38.2000   33.4770   40.4220 C   0  0  0  0  0  0  0  0  0  0  0  0
   37.0360   32.9380   40.3500 N   0  0  0  0  0  0  0  0  0  0  0  0
   38.4810   34.5800   39.5280 N   0  0  0  0  0  0  0  0  0  0  0  0
   36.7890   32.1600   40.9730 H   0  0  0  0  0  0  0  0  0  0  0  0
   40.3409   29.0466   43.3361 H   0  0  0  0  0  0  0  0  0  0  0  0
   40.6503   31.7376   43.3624 H   0  0  0  0  0  0  0  0  0  0  0  0
   38.5961   27.3945   43.2758 H   0  0  0  0  0  0  0  0  0  0  0  0
   38.4648   28.5640   39.1242 H   0  0  0  0  0  0  0  0  0  0  0  0
   35.4654   24.9315   39.3600 H   0  0  0  0  0  0  0  0  0  0  0  0
   34.8654   22.5917   38.7483 H   0  0  0  0  0  0  0  0  0  0  0  0
   38.5180   21.1420   40.3352 H   0  0  0  0  0  0  0  0  0  0  0  0
   39.8279   33.6905   41.7806 H   0  0  0  0  0  0  0  0  0  0  0  0
   37.7604   34.9036   38.8670 H   0  0  0  0  0  0  0  0  0  0  0  0
   39.4016   35.0413   39.5528 H   0  0  0  0  0  0  0  0  0  0  0  0
  1  2  2  0
  2  3  1  0
  4  3  2  0
  5  1  1  0
  5  4  1  0
  7  1  1  0
  7  6  2  0
  8  7  1  0
  9  8  2  0
  9 10  1  0
 10 11  2  0
 11  6  1  0
 12 17  1  0
 12 10  1  0
 13 12  2  0
 14 15  2  0
 14 13  1  0
 15 16  1  0
 16 17  2  0
 18  4  1  0
 19 18  1  0
 20 19  2  0
 20 22  1  0
 21 19  1  0
  2 23  1  0
  3 24  1  0
  6 25  1  0
  8 26  1  0
 13 27  1  0
 14 28  1  0
 16 29  1  0
 18 30  1  0
 21 31  1  0
 21 32  1  0
M  ISO  7  23  14  24  14  25  14  26  14  27  14  28  14  29  14
M  END
>  <minimizedAffinity>  (1) 
-5.14839888

>  <minimizedRMSD>  (1) 
1.71400952

$$$$
