
     RDKit          3D

 31 33  0  0  0  0  0  0  0  0999 V2000
   37.9520   28.3270   41.5790 C   0  0  0  0  0  0  0  0  0  0  0  0
   38.4390   28.5690   42.8610 C   0  0  0  0  0  0  0  0  0  0  0  0
   38.8150   29.9050   42.8850 C   0  0  0  0  0  0  0  0  0  0  0  0
   38.5360   30.3950   41.6190 C   0  0  0  0  0  0  0  0  0  0  0  0
   38.0410   29.4570   40.8980 O   0  0  0  0  0  0  0  0  0  0  0  0
   37.4590   25.9150   42.0060 C   0  0  0  0  0  0  0  0  0  0  0  0
   37.4440   27.0260   41.1320 C   0  0  0  0  0  0  0  0  0  0  0  0
   36.9450   26.8590   39.8510 C   0  0  0  0  0  0  0  0  0  0  0  0
   36.4800   25.6330   39.4660 N   0  0  0  0  0  0  0  0  0  0  0  0
   36.5130   24.5940   40.3400 C   0  0  0  0  0  0  0  0  0  0  0  0
   37.0010   24.7300   41.6090 N   0  0  0  0  0  0  0  0  0  0  0  0
   35.9740   23.3270   39.7760 C   0  0  0  0  0  0  0  0  0  0  0  0
   34.6440   23.0380   39.5150 C   0  0  0  0  0  0  0  0  0  0  0  0
   34.3690   21.8190   38.9990 C   0  0  0  0  0  0  0  0  0  0  0  0
   35.3350   20.9080   38.7420 C   0  0  0  0  0  0  0  0  0  0  0  0
   36.8820   21.8630   39.2930 S   0  0  0  0  0  0  0  0  0  0  0  0
   38.7940   31.7530   41.2610 N   0  0  0  0  0  0  0  0  0  0  0  0
   37.8620   32.4340   40.4300 C   0  0  0  0  0  0  0  0  0  0  0  0
   36.6060   32.2220   40.5190 N   0  0  0  0  0  0  0  0  0  0  0  0
   38.3390   33.3930   39.4580 N   0  0  0  0  0  0  0  0  0  0  0  0
   36.2280   31.5450   41.1920 H   0  0  0  0  0  0  0  0  0  0  0  0
   38.5112   27.8471   43.6878 H   0  0  0  0  0  0  0  0  0  0  0  0
   39.2449   30.4593   43.7323 H   0  0  0  0  0  0  0  0  0  0  0  0
   37.8538   26.0312   43.0261 H   0  0  0  0  0  0  0  0  0  0  0  0
   36.9231   27.7059   39.1494 H   0  0  0  0  0  0  0  0  0  0  0  0
   33.8471   23.7683   39.7187 H   0  0  0  0  0  0  0  0  0  0  0  0
   33.3227   21.5590   38.7805 H   0  0  0  0  0  0  0  0  0  0  0  0
   35.2486   19.8927   38.3276 H   0  0  0  0  0  0  0  0  0  0  0  0
   39.6411   32.2316   41.5990 H   0  0  0  0  0  0  0  0  0  0  0  0
   39.3483   33.5787   39.3701 H   0  0  0  0  0  0  0  0  0  0  0  0
   37.6694   33.8903   38.8537 H   0  0  0  0  0  0  0  0  0  0  0  0
  1  2  2  0
  2  3  1  0
  4  3  2  0
  5  1  1  0
  5  4  1  0
  7  1  1  0
  7  6  2  0
  8  7  1  0
  9  8  2  0
  9 10  1  0
 10 11  2  0
 11  6  1  0
 12 10  1  0
 13 12  2  0
 14 13  1  0
 15 14  2  0
 15 16  1  0
 16 12  1  0
 17  4  1  0
 18 19  2  0
 18 17  1  0
 19 21  1  0
 20 18  1  0
  2 22  1  0
  3 23  1  0
  6 24  1  0
  8 25  1  0
 13 26  1  0
 14 27  1  0
 15 28  1  0
 17 29  1  0
 20 30  1  0
 20 31  1  0
M  ISO  7  22  14  23  14  24  14  25  14  26  14  27  14  28  14
M  END
>  <minimizedAffinity>  (1) 
-5.09061956

>  <minimizedRMSD>  (1) 
0.527808905

$$$$
