
     RDKit          3D

 29 31  0  0  0  0  0  0  0  0999 V2000
   38.6810   29.7260   41.4760 C   0  0  0  0  0  0  0  0  0  0  0  0
   39.5720   29.8240   42.5580 C   0  0  0  0  0  0  0  0  0  0  0  0
   39.9260   31.1560   42.6420 C   0  0  0  0  0  0  0  0  0  0  0  0
   39.2370   31.7930   41.6120 C   0  0  0  0  0  0  0  0  0  0  0  0
   38.5250   30.9330   40.9570 O   0  0  0  0  0  0  0  0  0  0  0  0
   38.5300   27.2480   41.5560 C   0  0  0  0  0  0  0  0  0  0  0  0
   38.0750   28.4760   41.0550 C   0  0  0  0  0  0  0  0  0  0  0  0
   37.0450   28.4530   40.1490 C   0  0  0  0  0  0  0  0  0  0  0  0
   36.4960   27.2690   39.7590 N   0  0  0  0  0  0  0  0  0  0  0  0
   36.9740   26.0810   40.2740 C   0  0  0  0  0  0  0  0  0  0  0  0
   37.9840   26.0920   41.1650 N   0  0  0  0  0  0  0  0  0  0  0  0
   36.3510   24.8400   39.8240 C   0  0  0  0  0  0  0  0  0  0  0  0
   36.1810   23.6100   40.3130 N   0  0  0  0  0  0  0  0  0  0  0  0
   35.5360   22.8770   39.4640 O   0  0  0  0  0  0  0  0  0  0  0  0
   35.2670   23.5940   38.4050 C   0  0  0  0  0  0  0  0  0  0  0  0
   35.7700   24.8350   38.6060 N   0  0  0  0  0  0  0  0  0  0  0  0
   39.3550   33.1970   41.3810 N   0  0  0  0  0  0  0  0  0  0  0  0
   38.5000   33.8170   40.4310 C   0  0  0  0  0  0  0  0  0  0  0  0
   37.2910   33.4380   40.2840 N   0  0  0  0  0  0  0  0  0  0  0  0
   39.0150   34.8980   39.6190 N   0  0  0  0  0  0  0  0  0  0  0  0
   36.9060   32.6720   40.8640 H   0  0  0  0  0  0  0  0  0  0  0  0
   39.9175   29.0055   43.2067 H   0  0  0  0  0  0  0  0  0  0  0  0
   40.6092   31.6178   43.3700 H   0  0  0  0  0  0  0  0  0  0  0  0
   39.3530   27.2355   42.2857 H   0  0  0  0  0  0  0  0  0  0  0  0
   36.6601   29.3966   39.7350 H   0  0  0  0  0  0  0  0  0  0  0  0
   34.7279   23.2505   37.5098 H   0  0  0  0  0  0  0  0  0  0  0  0
   40.0515   33.7535   41.8968 H   0  0  0  0  0  0  0  0  0  0  0  0
   38.4064   35.3568   38.9262 H   0  0  0  0  0  0  0  0  0  0  0  0
   39.9903   35.2088   39.7337 H   0  0  0  0  0  0  0  0  0  0  0  0
  1  2  2  0
  2  3  1  0
  4  3  2  0
  5  1  1  0
  5  4  1  0
  7  1  1  0
  7  6  2  0
  8  7  1  0
  9  8  2  0
  9 10  1  0
 10 11  2  0
 11  6  1  0
 12 10  1  0
 12 13  2  0
 14 13  1  0
 15 16  2  0
 15 14  1  0
 16 12  1  0
 17  4  1  0
 18 17  1  0
 19 18  2  0
 19 21  1  0
 20 18  1  0
  2 22  1  0
  3 23  1  0
  6 24  1  0
  8 25  1  0
 15 26  1  0
 17 27  1  0
 20 28  1  0
 20 29  1  0
M  ISO  5  22  14  23  14  24  14  25  14  26  14
M  END
>  <minimizedAffinity>  (1) 
-5.0572319

>  <minimizedRMSD>  (1) 
1.82171762

$$$$
