
     RDKit          3D

 26 27  0  0  0  0  0  0  0  0999 V2000
   39.1720   29.7740   41.8740 C   0  0  0  0  0  0  0  0  0  0  0  0
   40.5120   30.0380   42.1630 C   0  0  0  0  0  0  0  0  0  0  0  0
   40.6790   31.4050   41.9910 C   0  0  0  0  0  0  0  0  0  0  0  0
   39.4490   31.8920   41.6120 C   0  0  0  0  0  0  0  0  0  0  0  0
   38.5880   30.9240   41.5500 O   0  0  0  0  0  0  0  0  0  0  0  0
   39.0700   27.4730   42.8240 C   0  0  0  0  0  0  0  0  0  0  0  0
   38.5780   28.4500   41.9330 C   0  0  0  0  0  0  0  0  0  0  0  0
   37.5130   28.1010   41.1250 C   0  0  0  0  0  0  0  0  0  0  0  0
   36.9820   26.8540   41.2070 N   0  0  0  0  0  0  0  0  0  0  0  0
   37.4830   25.9390   42.0770 C   0  0  0  0  0  0  0  0  0  0  0  0
   38.5310   26.2500   42.8890 N   0  0  0  0  0  0  0  0  0  0  0  0
   36.8790   24.6270   42.1240 C   0  0  0  0  0  0  0  0  0  0  0  0
   37.4460   23.6560   41.5890 O   0  0  0  0  0  0  0  0  0  0  0  0
   39.2430   33.2770   41.3460 N   0  0  0  0  0  0  0  0  0  0  0  0
   38.2300   33.6610   40.4270 C   0  0  0  0  0  0  0  0  0  0  0  0
   37.1180   33.0210   40.3500 N   0  0  0  0  0  0  0  0  0  0  0  0
   38.4260   34.7880   39.5540 N   0  0  0  0  0  0  0  0  0  0  0  0
   36.9440   32.2160   40.9810 H   0  0  0  0  0  0  0  0  0  0  0  0
   41.2795   29.3104   42.4656 H   0  0  0  0  0  0  0  0  0  0  0  0
   41.6055   31.9815   42.1294 H   0  0  0  0  0  0  0  0  0  0  0  0
   39.9165   27.7225   43.4806 H   0  0  0  0  0  0  0  0  0  0  0  0
   37.0960   28.8320   40.4166 H   0  0  0  0  0  0  0  0  0  0  0  0
   35.9148   24.4856   42.6343 H   0  0  0  0  0  0  0  0  0  0  0  0
   39.8208   33.9899   41.8138 H   0  0  0  0  0  0  0  0  0  0  0  0
   37.6867   35.0601   38.8904 H   0  0  0  0  0  0  0  0  0  0  0  0
   39.3056   35.3226   39.5927 H   0  0  0  0  0  0  0  0  0  0  0  0
  1  7  1  0
  1  2  2  0
  3  2  1  0
  4  3  2  0
  5  4  1  0
  5  1  1  0
  6 11  2  0
  7  6  1  0
  8  9  1  0
  8  7  2  0
  9 10  2  0
 10 12  1  0
 10 11  1  0
 13 12  2  0
 14  4  1  0
 15 14  1  0
 16 15  2  0
 16 18  1  0
 17 15  1  0
  2 19  1  0
  3 20  1  0
  6 21  1  0
  8 22  1  0
 12 23  1  0
 14 24  1  0
 17 25  1  0
 17 26  1  0
M  ISO  5  19  14  20  14  21  14  22  14  23   6
M  END
>  <minimizedAffinity>  (1) 
-4.92983627

>  <minimizedRMSD>  (1) 
1.96369457

$$$$
