
     RDKit          3D

 27 28  0  0  0  0  0  0  0  0999 V2000
   38.1440   28.6520   41.6170 C   0  0  0  0  0  0  0  0  0  0  0  0
   38.7270   28.8920   42.8590 C   0  0  0  0  0  0  0  0  0  0  0  0
   39.0980   30.2230   42.8540 C   0  0  0  0  0  0  0  0  0  0  0  0
   38.7240   30.7180   41.6180 C   0  0  0  0  0  0  0  0  0  0  0  0
   38.1750   29.7820   40.9280 O   0  0  0  0  0  0  0  0  0  0  0  0
   37.5860   26.2660   42.1190 C   0  0  0  0  0  0  0  0  0  0  0  0
   37.6080   27.3460   41.2050 C   0  0  0  0  0  0  0  0  0  0  0  0
   37.1180   27.1550   39.9160 C   0  0  0  0  0  0  0  0  0  0  0  0
   36.6300   25.9220   39.5850 N   0  0  0  0  0  0  0  0  0  0  0  0
   36.6230   24.9050   40.4850 C   0  0  0  0  0  0  0  0  0  0  0  0
   37.0970   25.0820   41.7370 N   0  0  0  0  0  0  0  0  0  0  0  0
   36.1040   23.5600   40.1620 C   0  0  0  0  0  0  0  0  0  0  0  0
   38.9510   32.0700   41.2550 N   0  0  0  0  0  0  0  0  0  0  0  0
   38.0150   32.7240   40.3920 C   0  0  0  0  0  0  0  0  0  0  0  0
   36.7580   32.4790   40.4610 N   0  0  0  0  0  0  0  0  0  0  0  0
   38.4770   33.6830   39.4150 N   0  0  0  0  0  0  0  0  0  0  0  0
   36.3910   31.8070   41.1450 H   0  0  0  0  0  0  0  0  0  0  0  0
   38.8641   28.1694   43.6769 H   0  0  0  0  0  0  0  0  0  0  0  0
   39.5905   30.7761   43.6673 H   0  0  0  0  0  0  0  0  0  0  0  0
   37.9702   26.4004   43.1409 H   0  0  0  0  0  0  0  0  0  0  0  0
   37.1234   27.9751   39.1830 H   0  0  0  0  0  0  0  0  0  0  0  0
   35.8936   23.0147   41.0938 H   0  0  0  0  0  0  0  0  0  0  0  0
   35.1781   23.6553   39.5758 H   0  0  0  0  0  0  0  0  0  0  0  0
   36.8539   23.0086   39.5758 H   0  0  0  0  0  0  0  0  0  0  0  0
   39.7774   32.5739   41.6072 H   0  0  0  0  0  0  0  0  0  0  0  0
   39.4815   33.8977   39.3391 H   0  0  0  0  0  0  0  0  0  0  0  0
   37.8018   34.1519   38.7944 H   0  0  0  0  0  0  0  0  0  0  0  0
  1  2  2  0
  3  2  1  0
  4  3  2  0
  5  1  1  0
  5  4  1  0
  7  1  1  0
  7  6  2  0
  8  7  1  0
  9  8  2  0
  9 10  1  0
 10 11  2  0
 11  6  1  0
 12 10  1  0
 13  4  1  0
 14 15  2  0
 14 13  1  0
 15 17  1  0
 16 14  1  0
  2 18  1  0
  3 19  1  0
  6 20  1  0
  8 21  1  0
 12 22  1  0
 12 23  1  0
 12 24  1  0
 13 25  1  0
 16 26  1  0
 16 27  1  0
M  ISO  7  18  14  19  14  20  14  21  14  22   8  23   8  24   8
M  END
>  <minimizedAffinity>  (1) 
-4.71452618

>  <minimizedRMSD>  (1) 
0.51775521

$$$$
