
     RDKit          3D

 44 47  0  0  0  0  0  0  0  0999 V2000
   38.5800   27.2710   41.2330 C   0  0  0  0  0  0  0  0  0  0  0  0
   37.9930   28.5270   40.9490 C   0  0  0  0  0  0  0  0  0  0  0  0
   36.8320   28.5430   40.2320 C   0  0  0  0  0  0  0  0  0  0  0  0
   36.2520   27.3840   39.7980 N   0  0  0  0  0  0  0  0  0  0  0  0
   36.8630   26.1720   40.0980 C   0  0  0  0  0  0  0  0  0  0  0  0
   38.0100   26.1250   40.8060 N   0  0  0  0  0  0  0  0  0  0  0  0
   36.2700   24.9510   39.6580 N   0  0  0  0  0  0  0  0  0  0  0  0
   36.1710   23.7300   40.2270 N   0  0  0  0  0  0  0  0  0  0  0  0
   35.4760   22.9320   39.3910 C   0  0  0  0  0  0  0  0  0  0  0  0
   35.1350   23.6880   38.2700 C   0  0  0  0  0  0  0  0  0  0  0  0
   35.6460   24.9420   38.4640 C   0  0  0  0  0  0  0  0  0  0  0  0
   38.6320   29.7530   41.4110 C   0  0  0  0  0  0  0  0  0  0  0  0
   39.5080   29.8050   42.5180 C   0  0  0  0  0  0  0  0  0  0  0  0
   39.8950   31.1200   42.6340 C   0  0  0  0  0  0  0  0  0  0  0  0
   39.2390   31.7990   41.5970 C   0  0  0  0  0  0  0  0  0  0  0  0
   38.5130   30.9770   40.9050 O   0  0  0  0  0  0  0  0  0  0  0  0
   39.3940   33.2100   41.3860 N   0  0  0  0  0  0  0  0  0  0  0  0
   38.5640   33.8680   40.4490 C   0  0  0  0  0  0  0  0  0  0  0  0
   37.3310   33.5120   40.2800 N   0  0  0  0  0  0  0  0  0  0  0  0
   39.0950   34.9480   39.6640 N   0  0  0  0  0  0  0  0  0  0  0  0
   36.9410   32.7450   40.8220 H   0  0  0  0  0  0  0  0  0  0  0  0
   35.4470   25.8590   37.3930 N   0  0  0  0  0  0  0  0  0  0  0  0
   34.1180   26.3360   36.9750 C   0  0  0  0  0  0  0  0  0  0  0  0
   34.0710   27.8650   37.1670 C   0  0  0  0  0  0  0  0  0  0  0  0
   35.3700   28.3560   37.2520 O   0  0  0  0  0  0  0  0  0  0  0  0
   36.1350   27.8620   36.2150 C   0  0  0  0  0  0  0  0  0  0  0  0
   36.5000   26.4170   36.5720 C   0  0  0  0  0  0  0  0  0  0  0  0
   39.5152   27.2284   41.8106 H   0  0  0  0  0  0  0  0  0  0  0  0
   36.3543   29.5061   39.9991 H   0  0  0  0  0  0  0  0  0  0  0  0
   35.2236   21.8752   39.5625 H   0  0  0  0  0  0  0  0  0  0  0  0
   34.5638   23.3419   37.3960 H   0  0  0  0  0  0  0  0  0  0  0  0
   39.8176   28.9650   43.1571 H   0  0  0  0  0  0  0  0  0  0  0  0
   40.5764   31.5491   43.3834 H   0  0  0  0  0  0  0  0  0  0  0  0
   40.1038   33.7390   41.9126 H   0  0  0  0  0  0  0  0  0  0  0  0
   38.4951   35.4309   38.9800 H   0  0  0  0  0  0  0  0  0  0  0  0
   40.0755   35.2393   39.7853 H   0  0  0  0  0  0  0  0  0  0  0  0
   33.3410   25.8596   37.5909 H   0  0  0  0  0  0  0  0  0  0  0  0
   33.9376   26.0804   35.9204 H   0  0  0  0  0  0  0  0  0  0  0  0
   33.5582   28.3276   36.3108 H   0  0  0  0  0  0  0  0  0  0  0  0
   33.5244   28.1046   38.0910 H   0  0  0  0  0  0  0  0  0  0  0  0
   37.0482   28.4643   36.0998 H   0  0  0  0  0  0  0  0  0  0  0  0
   35.5803   27.9024   35.2659 H   0  0  0  0  0  0  0  0  0  0  0  0
   36.6046   25.8239   35.6515 H   0  0  0  0  0  0  0  0  0  0  0  0
   37.4526   26.3971   37.1217 H   0  0  0  0  0  0  0  0  0  0  0  0
  2  1  2  0
  2 12  1  0
  3  2  1  0
  4  5  1  0
  4  3  2  0
  5  6  2  0
  6  1  1  0
  7  5  1  0
  7  8  1  0
  9  8  2  0
 10 11  2  0
 10  9  1  0
 11  7  1  0
 12 13  2  0
 13 14  1  0
 15 14  2  0
 16 12  1  0
 16 15  1  0
 17 15  1  0
 18 17  1  0
 19 18  2  0
 19 21  1  0
 20 18  1  0
 22 11  1  0
 23 24  1  0
 23 22  1  0
 24 25  1  0
 26 27  1  0
 26 25  1  0
 27 22  1  0
  1 28  1  0
  3 29  1  0
  9 30  1  0
 10 31  1  0
 13 32  1  0
 14 33  1  0
 17 34  1  0
 20 35  1  0
 20 36  1  0
 23 37  1  0
 23 38  1  0
 24 39  1  0
 24 40  1  0
 26 41  1  0
 26 42  1  0
 27 43  1  0
 27 44  1  0
M  ISO  8  28  14  29  14  30  14  31  14  32  14  33  14  37  13  38  13
M  ISO  6  39  13  40  13  41  13  42  13  43  13  44  13
M  END
>  <minimizedAffinity>  (1) 
-5.84053135

>  <minimizedRMSD>  (1) 
0.305962026

$$$$
