
     RDKit          3D

 39 42  0  0  0  0  0  0  0  0999 V2000
   38.5590   27.2560   41.1780 C   0  0  0  0  0  0  0  0  0  0  0  0
   37.9930   28.5030   40.8990 C   0  0  0  0  0  0  0  0  0  0  0  0
   36.8230   28.5460   40.1670 C   0  0  0  0  0  0  0  0  0  0  0  0
   36.2500   27.3790   39.7370 N   0  0  0  0  0  0  0  0  0  0  0  0
   36.8470   26.1660   40.0370 C   0  0  0  0  0  0  0  0  0  0  0  0
   37.9910   26.1140   40.7530 N   0  0  0  0  0  0  0  0  0  0  0  0
   36.2280   24.9600   39.5880 N   0  0  0  0  0  0  0  0  0  0  0  0
   36.1360   23.7350   40.1820 N   0  0  0  0  0  0  0  0  0  0  0  0
   35.4440   22.9260   39.3970 C   0  0  0  0  0  0  0  0  0  0  0  0
   35.0920   23.6440   38.2910 C   0  0  0  0  0  0  0  0  0  0  0  0
   35.5930   24.9470   38.4080 C   0  0  0  0  0  0  0  0  0  0  0  0
   38.6120   29.7350   41.3650 C   0  0  0  0  0  0  0  0  0  0  0  0
   39.4600   29.7780   42.5010 C   0  0  0  0  0  0  0  0  0  0  0  0
   39.8460   31.1010   42.6230 C   0  0  0  0  0  0  0  0  0  0  0  0
   39.2190   31.7810   41.5680 C   0  0  0  0  0  0  0  0  0  0  0  0
   38.5100   30.9610   40.8550 O   0  0  0  0  0  0  0  0  0  0  0  0
   39.3880   33.1850   41.3730 N   0  0  0  0  0  0  0  0  0  0  0  0
   38.5500   33.8570   40.4410 C   0  0  0  0  0  0  0  0  0  0  0  0
   37.3230   33.5100   40.2570 N   0  0  0  0  0  0  0  0  0  0  0  0
   39.0840   34.9500   39.6840 N   0  0  0  0  0  0  0  0  0  0  0  0
   36.9210   32.7330   40.7910 H   0  0  0  0  0  0  0  0  0  0  0  0
   35.3350   25.8690   37.3130 C   0  0  0  0  0  0  0  0  0  0  0  0
   34.1080   26.4260   37.0760 C   0  0  0  0  0  0  0  0  0  0  0  0
   33.7690   27.3030   36.0730 C   0  0  0  0  0  0  0  0  0  0  0  0
   34.7910   27.6350   35.2370 N   0  0  0  0  0  0  0  0  0  0  0  0
   36.0200   27.1200   35.4170 C   0  0  0  0  0  0  0  0  0  0  0  0
   36.2310   26.2820   36.4210 N   0  0  0  0  0  0  0  0  0  0  0  0
   39.4916   27.2077   41.7593 H   0  0  0  0  0  0  0  0  0  0  0  0
   36.3538   29.5124   39.9306 H   0  0  0  0  0  0  0  0  0  0  0  0
   35.1984   21.8727   39.5978 H   0  0  0  0  0  0  0  0  0  0  0  0
   34.5073   23.2602   37.4419 H   0  0  0  0  0  0  0  0  0  0  0  0
   39.7496   28.9371   43.1483 H   0  0  0  0  0  0  0  0  0  0  0  0
   40.5079   31.5310   43.3891 H   0  0  0  0  0  0  0  0  0  0  0  0
   40.1058   33.7034   41.8992 H   0  0  0  0  0  0  0  0  0  0  0  0
   38.4887   35.4460   39.0054 H   0  0  0  0  0  0  0  0  0  0  0  0
   40.0632   35.2398   39.8184 H   0  0  0  0  0  0  0  0  0  0  0  0
   33.3010   26.1396   37.7665 H   0  0  0  0  0  0  0  0  0  0  0  0
   32.7519   27.7049   35.9552 H   0  0  0  0  0  0  0  0  0  0  0  0
   36.8415   27.3917   34.7377 H   0  0  0  0  0  0  0  0  0  0  0  0
  2  1  2  0
  2 12  1  0
  3  2  1  0
  4  5  1  0
  4  3  2  0
  5  6  2  0
  6  1  1  0
  7  5  1  0
  7  8  1  0
  9  8  2  0
 10 11  2  0
 10  9  1  0
 11  7  1  0
 12 13  2  0
 13 14  1  0
 15 14  2  0
 16 12  1  0
 16 15  1  0
 17 15  1  0
 18 17  1  0
 19 18  2  0
 19 21  1  0
 20 18  1  0
 22 11  1  0
 23 22  2  0
 24 23  1  0
 25 26  1  0
 25 24  2  0
 26 27  2  0
 27 22  1  0
  1 28  1  0
  3 29  1  0
  9 30  1  0
 10 31  1  0
 13 32  1  0
 14 33  1  0
 17 34  1  0
 20 35  1  0
 20 36  1  0
 23 37  1  0
 24 38  1  0
 26 39  1  0
M  ISO  8  28  14  29  14  30  14  31  14  32  14  33  14  37  14  38  14
M  ISO  1  39  14
M  END
>  <minimizedAffinity>  (1) 
-5.78577948

>  <minimizedRMSD>  (1) 
0.587026894

$$$$
