
     RDKit          3D

 44 47  0  0  0  0  0  0  0  0999 V2000
   38.5590   27.2650   41.2590 C   0  0  0  0  0  0  0  0  0  0  0  0
   37.9820   28.5150   40.9450 C   0  0  0  0  0  0  0  0  0  0  0  0
   36.8240   28.5470   40.2050 C   0  0  0  0  0  0  0  0  0  0  0  0
   36.2650   27.3710   39.7920 N   0  0  0  0  0  0  0  0  0  0  0  0
   36.8350   26.1710   40.1030 C   0  0  0  0  0  0  0  0  0  0  0  0
   37.9820   26.1200   40.8360 N   0  0  0  0  0  0  0  0  0  0  0  0
   36.2610   24.9400   39.6740 N   0  0  0  0  0  0  0  0  0  0  0  0
   36.1570   23.7310   40.2160 N   0  0  0  0  0  0  0  0  0  0  0  0
   35.5160   22.9100   39.3900 C   0  0  0  0  0  0  0  0  0  0  0  0
   35.1980   23.6350   38.2710 C   0  0  0  0  0  0  0  0  0  0  0  0
   35.6700   24.9330   38.4430 C   0  0  0  0  0  0  0  0  0  0  0  0
   38.6210   29.7400   41.4080 C   0  0  0  0  0  0  0  0  0  0  0  0
   39.4850   29.8050   42.5200 C   0  0  0  0  0  0  0  0  0  0  0  0
   39.8740   31.1170   42.6290 C   0  0  0  0  0  0  0  0  0  0  0  0
   39.2300   31.7920   41.5810 C   0  0  0  0  0  0  0  0  0  0  0  0
   38.5080   30.9660   40.8870 O   0  0  0  0  0  0  0  0  0  0  0  0
   39.3900   33.2010   41.3600 N   0  0  0  0  0  0  0  0  0  0  0  0
   38.5430   33.8550   40.4340 C   0  0  0  0  0  0  0  0  0  0  0  0
   37.3160   33.4990   40.2660 N   0  0  0  0  0  0  0  0  0  0  0  0
   39.0740   34.9470   39.6650 N   0  0  0  0  0  0  0  0  0  0  0  0
   36.9280   32.7290   40.8090 H   0  0  0  0  0  0  0  0  0  0  0  0
   35.4290   25.8830   37.3270 C   0  0  0  0  0  0  0  0  0  0  0  0
   36.6210   25.9200   36.4510 C   0  0  0  0  0  0  0  0  0  0  0  0
   37.2660   27.2720   36.5890 C   0  0  0  0  0  0  0  0  0  0  0  0
   36.1730   28.1620   37.0810 C   0  0  0  0  0  0  0  0  0  0  0  0
   35.2450   27.2710   37.8890 C   0  0  0  0  0  0  0  0  0  0  0  0
   39.4845   27.2239   41.8520 H   0  0  0  0  0  0  0  0  0  0  0  0
   36.3534   29.5076   39.9486 H   0  0  0  0  0  0  0  0  0  0  0  0
   35.2846   21.8498   39.5703 H   0  0  0  0  0  0  0  0  0  0  0  0
   34.6618   23.2560   37.3885 H   0  0  0  0  0  0  0  0  0  0  0  0
   39.7871   28.9710   43.1705 H   0  0  0  0  0  0  0  0  0  0  0  0
   40.5500   31.5492   43.3815 H   0  0  0  0  0  0  0  0  0  0  0  0
   40.1125   33.7298   41.8692 H   0  0  0  0  0  0  0  0  0  0  0  0
   38.4753   35.4373   38.9853 H   0  0  0  0  0  0  0  0  0  0  0  0
   40.0533   35.2393   39.7936 H   0  0  0  0  0  0  0  0  0  0  0  0
   34.5385   25.5615   36.7670 H   0  0  0  0  0  0  0  0  0  0  0  0
   36.3198   25.7564   35.4058 H   0  0  0  0  0  0  0  0  0  0  0  0
   37.3296   25.1303   36.7413 H   0  0  0  0  0  0  0  0  0  0  0  0
   38.0930   27.2357   37.3134 H   0  0  0  0  0  0  0  0  0  0  0  0
   37.6983   27.6267   35.6417 H   0  0  0  0  0  0  0  0  0  0  0  0
   36.5856   28.9604   37.7153 H   0  0  0  0  0  0  0  0  0  0  0  0
   35.6431   28.6497   36.2495 H   0  0  0  0  0  0  0  0  0  0  0  0
   34.2010   27.5975   37.7729 H   0  0  0  0  0  0  0  0  0  0  0  0
   35.4752   27.3100   38.9639 H   0  0  0  0  0  0  0  0  0  0  0  0
  2  1  2  0
  2 12  1  0
  3  2  1  0
  4  5  1  0
  4  3  2  0
  5  6  2  0
  6  1  1  0
  7  5  1  0
  7  8  1  0
  9  8  2  0
 10 11  2  0
 10  9  1  0
 11  7  1  0
 12 13  2  0
 13 14  1  0
 15 14  2  0
 16 12  1  0
 16 15  1  0
 17 15  1  0
 18 17  1  0
 19 18  2  0
 19 21  1  0
 20 18  1  0
 22 26  1  0
 22 11  1  0
 23 24  1  0
 23 22  1  0
 24 25  1  0
 25 26  1  0
  1 27  1  0
  3 28  1  0
  9 29  1  0
 10 30  1  0
 13 31  1  0
 14 32  1  0
 17 33  1  0
 20 34  1  0
 20 35  1  0
 22 36  1  0
 23 37  1  0
 23 38  1  0
 24 39  1  0
 24 40  1  0
 25 41  1  0
 25 42  1  0
 26 43  1  0
 26 44  1  0
M  ISO  8  27  14  28  14  29  14  30  14  31  14  32  14  36  13  37  13
M  ISO  7  38  13  39  13  40  13  41  13  42  13  43  13  44  13
M  END
>  <minimizedAffinity>  (1) 
-5.77842999

>  <minimizedRMSD>  (1) 
0.462499946

$$$$
