
     RDKit          3D

 43 46  0  0  0  0  0  0  0  0999 V2000
   38.5250   27.2470   41.2430 C   0  0  0  0  0  0  0  0  0  0  0  0
   37.9800   28.4970   40.9210 C   0  0  0  0  0  0  0  0  0  0  0  0
   36.8440   28.5280   40.1630 C   0  0  0  0  0  0  0  0  0  0  0  0
   36.2680   27.3590   39.7390 N   0  0  0  0  0  0  0  0  0  0  0  0
   36.8280   26.1550   40.0720 C   0  0  0  0  0  0  0  0  0  0  0  0
   37.9530   26.1040   40.8210 N   0  0  0  0  0  0  0  0  0  0  0  0
   36.2490   24.9280   39.6430 N   0  0  0  0  0  0  0  0  0  0  0  0
   36.2060   23.6960   40.1520 N   0  0  0  0  0  0  0  0  0  0  0  0
   35.5280   22.8770   39.3580 C   0  0  0  0  0  0  0  0  0  0  0  0
   35.1170   23.6280   38.2830 C   0  0  0  0  0  0  0  0  0  0  0  0
   35.5790   24.9200   38.4770 C   0  0  0  0  0  0  0  0  0  0  0  0
   38.6080   29.7270   41.3830 C   0  0  0  0  0  0  0  0  0  0  0  0
   39.4660   29.7830   42.5000 C   0  0  0  0  0  0  0  0  0  0  0  0
   39.8530   31.0970   42.6180 C   0  0  0  0  0  0  0  0  0  0  0  0
   39.2170   31.7790   41.5740 C   0  0  0  0  0  0  0  0  0  0  0  0
   38.5090   30.9510   40.8860 O   0  0  0  0  0  0  0  0  0  0  0  0
   39.3760   33.1850   41.3630 N   0  0  0  0  0  0  0  0  0  0  0  0
   38.5320   33.8420   40.4290 C   0  0  0  0  0  0  0  0  0  0  0  0
   37.3050   33.4860   40.2530 N   0  0  0  0  0  0  0  0  0  0  0  0
   39.0860   34.9340   39.6710 N   0  0  0  0  0  0  0  0  0  0  0  0
   36.9140   32.7140   40.7900 H   0  0  0  0  0  0  0  0  0  0  0  0
   35.2810   25.9130   37.4850 N   0  0  0  0  0  0  0  0  0  0  0  0
   36.1210   26.1820   36.3080 C   0  0  0  0  0  0  0  0  0  0  0  0
   36.4220   27.6650   36.5570 C   0  0  0  0  0  0  0  0  0  0  0  0
   35.1070   28.1600   37.1290 C   0  0  0  0  0  0  0  0  0  0  0  0
   34.2280   26.9090   37.2310 C   0  0  0  0  0  0  0  0  0  0  0  0
   39.4390   27.1988   41.8531 H   0  0  0  0  0  0  0  0  0  0  0  0
   36.3907   29.4931   39.8924 H   0  0  0  0  0  0  0  0  0  0  0  0
   35.3333   21.8076   39.5270 H   0  0  0  0  0  0  0  0  0  0  0  0
   34.5289   23.2692   37.4254 H   0  0  0  0  0  0  0  0  0  0  0  0
   39.7654   28.9449   43.1465 H   0  0  0  0  0  0  0  0  0  0  0  0
   40.5246   31.5246   43.3770 H   0  0  0  0  0  0  0  0  0  0  0  0
   40.0925   33.7132   41.8812 H   0  0  0  0  0  0  0  0  0  0  0  0
   38.5021   35.4331   38.9848 H   0  0  0  0  0  0  0  0  0  0  0  0
   40.0661   35.2160   39.8151 H   0  0  0  0  0  0  0  0  0  0  0  0
   35.5736   26.0253   35.3669 H   0  0  0  0  0  0  0  0  0  0  0  0
   37.0029   25.5335   36.1998 H   0  0  0  0  0  0  0  0  0  0  0  0
   37.2440   27.7909   37.2770 H   0  0  0  0  0  0  0  0  0  0  0  0
   36.7484   28.2090   35.6584 H   0  0  0  0  0  0  0  0  0  0  0  0
   35.2605   28.6076   38.1220 H   0  0  0  0  0  0  0  0  0  0  0  0
   34.6488   28.9390   36.5019 H   0  0  0  0  0  0  0  0  0  0  0  0
   33.5116   26.9742   38.0632 H   0  0  0  0  0  0  0  0  0  0  0  0
   33.5849   26.7086   36.3614 H   0  0  0  0  0  0  0  0  0  0  0  0
  2  1  2  0
  2 12  1  0
  3  2  1  0
  4  5  1  0
  4  3  2  0
  5  6  2  0
  6  1  1  0
  7  5  1  0
  7  8  1  0
  9  8  2  0
 10 11  2  0
 10  9  1  0
 11  7  1  0
 12 13  2  0
 13 14  1  0
 15 14  2  0
 16 12  1  0
 16 15  1  0
 17 15  1  0
 18 17  1  0
 19 18  2  0
 19 21  1  0
 20 18  1  0
 22 11  1  0
 23 24  1  0
 23 22  1  0
 24 25  1  0
 25 26  1  0
 26 22  1  0
  1 27  1  0
  3 28  1  0
  9 29  1  0
 10 30  1  0
 13 31  1  0
 14 32  1  0
 17 33  1  0
 20 34  1  0
 20 35  1  0
 23 36  1  0
 23 37  1  0
 24 38  1  0
 24 39  1  0
 25 40  1  0
 25 41  1  0
 26 42  1  0
 26 43  1  0
M  ISO  8  27  14  28  14  29  14  30  14  31  14  32  14  36  13  37  13
M  ISO  6  38  13  39  13  40  13  41  13  42  13  43  13
M  END
>  <minimizedAffinity>  (1) 
-5.73041964

>  <minimizedRMSD>  (1) 
0.594847023

$$$$
