
     RDKit          3D

 37 40  0  0  0  0  0  0  0  0999 V2000
   38.5030   27.2550   41.2940 C   0  0  0  0  0  0  0  0  0  0  0  0
   37.9660   28.5150   40.9440 C   0  0  0  0  0  0  0  0  0  0  0  0
   36.8360   28.5560   40.1480 C   0  0  0  0  0  0  0  0  0  0  0  0
   36.2880   27.3810   39.7300 N   0  0  0  0  0  0  0  0  0  0  0  0
   36.8230   26.1780   40.0800 C   0  0  0  0  0  0  0  0  0  0  0  0
   37.9280   26.1160   40.8600 N   0  0  0  0  0  0  0  0  0  0  0  0
   36.2350   24.9580   39.6180 N   0  0  0  0  0  0  0  0  0  0  0  0
   36.1150   23.7420   40.2240 N   0  0  0  0  0  0  0  0  0  0  0  0
   35.4910   22.9060   39.4230 C   0  0  0  0  0  0  0  0  0  0  0  0
   35.2110   23.6110   38.2830 C   0  0  0  0  0  0  0  0  0  0  0  0
   35.6830   24.9320   38.3940 C   0  0  0  0  0  0  0  0  0  0  0  0
   38.6180   29.7340   41.4160 C   0  0  0  0  0  0  0  0  0  0  0  0
   39.4920   29.7790   42.5140 C   0  0  0  0  0  0  0  0  0  0  0  0
   39.8880   31.0990   42.6280 C   0  0  0  0  0  0  0  0  0  0  0  0
   39.2330   31.7840   41.5920 C   0  0  0  0  0  0  0  0  0  0  0  0
   38.4980   30.9610   40.9010 O   0  0  0  0  0  0  0  0  0  0  0  0
   39.4000   33.1870   41.3890 N   0  0  0  0  0  0  0  0  0  0  0  0
   38.5650   33.8540   40.4520 C   0  0  0  0  0  0  0  0  0  0  0  0
   37.3370   33.5120   40.2890 N   0  0  0  0  0  0  0  0  0  0  0  0
   39.1010   34.9360   39.6660 N   0  0  0  0  0  0  0  0  0  0  0  0
   36.9390   32.7460   40.8330 H   0  0  0  0  0  0  0  0  0  0  0  0
   35.5220   25.9000   37.2830 C   0  0  0  0  0  0  0  0  0  0  0  0
   34.1920   26.5190   37.0330 C   0  0  0  0  0  0  0  0  0  0  0  0
   34.4670   27.5500   35.6830 S   0  0  0  0  0  0  0  0  0  0  0  0
   36.3050   27.1030   35.5380 C   0  0  0  0  0  0  0  0  0  0  0  0
   36.4450   26.2990   36.4570 N   0  0  0  0  0  0  0  0  0  0  0  0
   39.4005   27.2036   41.9279 H   0  0  0  0  0  0  0  0  0  0  0  0
   36.3886   29.5182   39.8581 H   0  0  0  0  0  0  0  0  0  0  0  0
   35.2441   21.8537   39.6274 H   0  0  0  0  0  0  0  0  0  0  0  0
   34.6905   23.2023   37.4043 H   0  0  0  0  0  0  0  0  0  0  0  0
   39.7987   28.9373   43.1523 H   0  0  0  0  0  0  0  0  0  0  0  0
   40.5740   31.5243   43.3754 H   0  0  0  0  0  0  0  0  0  0  0  0
   40.1159   33.7089   41.9144 H   0  0  0  0  0  0  0  0  0  0  0  0
   38.5018   35.4239   38.9850 H   0  0  0  0  0  0  0  0  0  0  0  0
   40.0834   35.2216   39.7851 H   0  0  0  0  0  0  0  0  0  0  0  0
   33.2531   26.3557   37.5824 H   0  0  0  0  0  0  0  0  0  0  0  0
   37.0519   27.4687   34.8180 H   0  0  0  0  0  0  0  0  0  0  0  0
  2  1  2  0
  2 12  1  0
  3  2  1  0
  4  5  1  0
  4  3  2  0
  5  6  2  0
  6  1  1  0
  7  5  1  0
  7  8  1  0
  9  8  2  0
 10 11  2  0
 10  9  1  0
 11  7  1  0
 12 13  2  0
 13 14  1  0
 15 14  2  0
 16 12  1  0
 16 15  1  0
 17 15  1  0
 18 17  1  0
 19 18  2  0
 19 21  1  0
 20 18  1  0
 22 11  1  0
 23 22  2  0
 24 23  1  0
 25 24  1  0
 25 26  2  0
 26 22  1  0
  1 27  1  0
  3 28  1  0
  9 29  1  0
 10 30  1  0
 13 31  1  0
 14 32  1  0
 17 33  1  0
 20 34  1  0
 20 35  1  0
 23 36  1  0
 25 37  1  0
M  ISO  8  27  14  28  14  29  14  30  14  31  14  32  14  36  14  37  14
M  END
>  <minimizedAffinity>  (1) 
-5.65399837

>  <minimizedRMSD>  (1) 
0.516075194

$$$$
