
     RDKit          3D

 34 36  0  0  0  0  0  0  0  0999 V2000
   38.5200   27.2700   41.3360 C   0  0  0  0  0  0  0  0  0  0  0  0
   37.9940   28.5200   40.9640 C   0  0  0  0  0  0  0  0  0  0  0  0
   36.8880   28.5480   40.1720 C   0  0  0  0  0  0  0  0  0  0  0  0
   36.3100   27.3730   39.7530 N   0  0  0  0  0  0  0  0  0  0  0  0
   36.8440   26.1750   40.1300 C   0  0  0  0  0  0  0  0  0  0  0  0
   37.9410   26.1270   40.9160 N   0  0  0  0  0  0  0  0  0  0  0  0
   36.2800   24.9340   39.7160 N   0  0  0  0  0  0  0  0  0  0  0  0
   36.2060   23.7110   40.2390 N   0  0  0  0  0  0  0  0  0  0  0  0
   35.5550   22.8930   39.4220 C   0  0  0  0  0  0  0  0  0  0  0  0
   35.1890   23.6350   38.3030 C   0  0  0  0  0  0  0  0  0  0  0  0
   35.6530   24.9230   38.5020 C   0  0  0  0  0  0  0  0  0  0  0  0
   38.6390   29.7510   41.4270 C   0  0  0  0  0  0  0  0  0  0  0  0
   39.5140   29.8060   42.5270 C   0  0  0  0  0  0  0  0  0  0  0  0
   39.8920   31.1240   42.6240 C   0  0  0  0  0  0  0  0  0  0  0  0
   39.2460   31.8040   41.6000 C   0  0  0  0  0  0  0  0  0  0  0  0
   38.5210   30.9730   40.9190 O   0  0  0  0  0  0  0  0  0  0  0  0
   39.4000   33.1990   41.3870 N   0  0  0  0  0  0  0  0  0  0  0  0
   38.5580   33.8600   40.4420 C   0  0  0  0  0  0  0  0  0  0  0  0
   37.3280   33.5060   40.2770 N   0  0  0  0  0  0  0  0  0  0  0  0
   39.0980   34.9350   39.6640 N   0  0  0  0  0  0  0  0  0  0  0  0
   36.9370   32.7400   40.8270 H   0  0  0  0  0  0  0  0  0  0  0  0
   35.4380   26.0040   37.4940 C   0  0  0  0  0  0  0  0  0  0  0  0
   39.4132   27.2242   41.9764 H   0  0  0  0  0  0  0  0  0  0  0  0
   36.4556   29.5122   39.8665 H   0  0  0  0  0  0  0  0  0  0  0  0
   35.3440   21.8276   39.5965 H   0  0  0  0  0  0  0  0  0  0  0  0
   34.6356   23.2671   37.4264 H   0  0  0  0  0  0  0  0  0  0  0  0
   39.8286   28.9723   43.1719 H   0  0  0  0  0  0  0  0  0  0  0  0
   40.5751   31.5570   43.3696 H   0  0  0  0  0  0  0  0  0  0  0  0
   40.1122   33.7292   41.9090 H   0  0  0  0  0  0  0  0  0  0  0  0
   38.5046   35.4228   38.9778 H   0  0  0  0  0  0  0  0  0  0  0  0
   40.0796   35.2201   39.7909 H   0  0  0  0  0  0  0  0  0  0  0  0
   35.2487   26.9558   38.0118 H   0  0  0  0  0  0  0  0  0  0  0  0
   36.3344   26.1013   36.8639 H   0  0  0  0  0  0  0  0  0  0  0  0
   34.5726   25.7509   36.8639 H   0  0  0  0  0  0  0  0  0  0  0  0
  2  1  2  0
  2 12  1  0
  3  2  1  0
  4  5  1  0
  4  3  2  0
  5  6  2  0
  6  1  1  0
  7  5  1  0
  7  8  1  0
  9  8  2  0
 10 11  2  0
 10  9  1  0
 11  7  1  0
 12 13  2  0
 13 14  1  0
 15 14  2  0
 16 12  1  0
 16 15  1  0
 17 15  1  0
 18 17  1  0
 19 18  2  0
 19 21  1  0
 20 18  1  0
 22 11  1  0
  1 23  1  0
  3 24  1  0
  9 25  1  0
 10 26  1  0
 13 27  1  0
 14 28  1  0
 17 29  1  0
 20 30  1  0
 20 31  1  0
 22 32  1  0
 22 33  1  0
 22 34  1  0
M  ISO  8  23  14  24  14  25  14  26  14  27  14  28  14  32   8  33   8
M  ISO  1  34   8
M  END
>  <minimizedAffinity>  (1) 
-5.56601286

>  <minimizedRMSD>  (1) 
0.0606054477

$$$$
