
     RDKit          3D

 32 34  0  0  0  0  0  0  0  0999 V2000
   38.5200   27.2610   41.3220 C   0  0  0  0  0  0  0  0  0  0  0  0
   37.9990   28.5020   40.9500 C   0  0  0  0  0  0  0  0  0  0  0  0
   36.8940   28.5270   40.1530 C   0  0  0  0  0  0  0  0  0  0  0  0
   36.3190   27.3540   39.7370 N   0  0  0  0  0  0  0  0  0  0  0  0
   36.8540   26.1560   40.1200 C   0  0  0  0  0  0  0  0  0  0  0  0
   37.9440   26.1160   40.9040 N   0  0  0  0  0  0  0  0  0  0  0  0
   36.2740   24.9210   39.6980 N   0  0  0  0  0  0  0  0  0  0  0  0
   36.1910   23.7000   40.2570 N   0  0  0  0  0  0  0  0  0  0  0  0
   35.5280   22.8800   39.4280 C   0  0  0  0  0  0  0  0  0  0  0  0
   35.1780   23.6170   38.3010 C   0  0  0  0  0  0  0  0  0  0  0  0
   35.6540   24.9050   38.4810 C   0  0  0  0  0  0  0  0  0  0  0  0
   38.6310   29.7430   41.4070 C   0  0  0  0  0  0  0  0  0  0  0  0
   39.4890   29.8030   42.5180 C   0  0  0  0  0  0  0  0  0  0  0  0
   39.8720   31.1180   42.6260 C   0  0  0  0  0  0  0  0  0  0  0  0
   39.2330   31.7960   41.5820 C   0  0  0  0  0  0  0  0  0  0  0  0
   38.5190   30.9630   40.8930 O   0  0  0  0  0  0  0  0  0  0  0  0
   39.3850   33.1980   41.3600 N   0  0  0  0  0  0  0  0  0  0  0  0
   38.5360   33.8530   40.4300 C   0  0  0  0  0  0  0  0  0  0  0  0
   37.3080   33.4880   40.2560 N   0  0  0  0  0  0  0  0  0  0  0  0
   39.0650   34.9480   39.6730 N   0  0  0  0  0  0  0  0  0  0  0  0
   36.9190   32.7190   40.8010 H   0  0  0  0  0  0  0  0  0  0  0  0
   35.4220   26.1770   37.2730 S   0  0  0  0  0  0  0  0  0  0  0  0
   39.4119   27.2171   41.9644 H   0  0  0  0  0  0  0  0  0  0  0  0
   36.4625   29.4901   39.8428 H   0  0  0  0  0  0  0  0  0  0  0  0
   35.3022   21.8184   39.6066 H   0  0  0  0  0  0  0  0  0  0  0  0
   34.6242   23.2446   37.4266 H   0  0  0  0  0  0  0  0  0  0  0  0
   39.7918   28.9687   43.1678 H   0  0  0  0  0  0  0  0  0  0  0  0
   40.5451   31.5506   43.3808 H   0  0  0  0  0  0  0  0  0  0  0  0
   40.1046   33.7297   41.8703 H   0  0  0  0  0  0  0  0  0  0  0  0
   38.4684   35.4392   38.9920 H   0  0  0  0  0  0  0  0  0  0  0  0
   40.0420   35.2442   39.8097 H   0  0  0  0  0  0  0  0  0  0  0  0
   35.2039   27.3728   37.9051 H   0  0  0  0  0  0  0  0  0  0  0  0
  2  1  2  0
  2 12  1  0
  3  2  1  0
  4  5  1  0
  4  3  2  0
  5  6  2  0
  6  1  1  0
  7  5  1  0
  7  8  1  0
  9  8  2  0
 10 11  2  0
 10  9  1  0
 11  7  1  0
 12 13  2  0
 13 14  1  0
 15 14  2  0
 16 12  1  0
 16 15  1  0
 17 15  1  0
 18 17  1  0
 19 18  2  0
 19 21  1  0
 20 18  1  0
 22 11  1  0
  1 23  1  0
  3 24  1  0
  9 25  1  0
 10 26  1  0
 13 27  1  0
 14 28  1  0
 17 29  1  0
 20 30  1  0
 20 31  1  0
 22 32  1  0
M  ISO  7  23  14  24  14  25  14  26  14  27  14  28  14  32  11
M  END
>  <minimizedAffinity>  (1) 
-5.51910686

>  <minimizedRMSD>  (1) 
0.0461877473

$$$$
