
     RDKit          3D

 34 36  0  0  0  0  0  0  0  0999 V2000
   38.5520   27.2600   41.2720 C   0  0  0  0  0  0  0  0  0  0  0  0
   37.9860   28.5130   40.9480 C   0  0  0  0  0  0  0  0  0  0  0  0
   36.8470   28.5390   40.1970 C   0  0  0  0  0  0  0  0  0  0  0  0
   36.2840   27.3650   39.7760 N   0  0  0  0  0  0  0  0  0  0  0  0
   36.8660   26.1560   40.1090 C   0  0  0  0  0  0  0  0  0  0  0  0
   37.9850   26.1140   40.8490 N   0  0  0  0  0  0  0  0  0  0  0  0
   36.2660   24.9400   39.6600 N   0  0  0  0  0  0  0  0  0  0  0  0
   36.1710   23.7180   40.2450 N   0  0  0  0  0  0  0  0  0  0  0  0
   35.4940   22.9200   39.4180 C   0  0  0  0  0  0  0  0  0  0  0  0
   35.1600   23.6390   38.3050 C   0  0  0  0  0  0  0  0  0  0  0  0
   35.6520   24.9120   38.4650 C   0  0  0  0  0  0  0  0  0  0  0  0
   38.6270   29.7390   41.4150 C   0  0  0  0  0  0  0  0  0  0  0  0
   39.4930   29.7960   42.5180 C   0  0  0  0  0  0  0  0  0  0  0  0
   39.8810   31.1180   42.6280 C   0  0  0  0  0  0  0  0  0  0  0  0
   39.2310   31.7890   41.5890 C   0  0  0  0  0  0  0  0  0  0  0  0
   38.5110   30.9660   40.9030 O   0  0  0  0  0  0  0  0  0  0  0  0
   39.3850   33.1950   41.3710 N   0  0  0  0  0  0  0  0  0  0  0  0
   38.5400   33.8550   40.4400 C   0  0  0  0  0  0  0  0  0  0  0  0
   37.3250   33.5010   40.2670 N   0  0  0  0  0  0  0  0  0  0  0  0
   39.0500   34.9490   39.6650 N   0  0  0  0  0  0  0  0  0  0  0  0
   36.9230   32.7310   40.8390 H   0  0  0  0  0  0  0  0  0  0  0  0
   35.4180   25.8520   37.3730 C   0  0  0  0  0  0  0  0  0  0  0  0
   35.9740   25.9160   36.2490 O   0  0  0  0  0  0  0  0  0  0  0  0
   34.5110   26.8910   37.3590 O   0  0  0  0  0  0  0  0  0  0  0  0
   39.4689   27.2197   41.8784 H   0  0  0  0  0  0  0  0  0  0  0  0
   36.3831   29.5002   39.9310 H   0  0  0  0  0  0  0  0  0  0  0  0
   35.2468   21.8638   39.6007 H   0  0  0  0  0  0  0  0  0  0  0  0
   34.5979   23.2655   37.4364 H   0  0  0  0  0  0  0  0  0  0  0  0
   39.8001   28.9596   43.1630 H   0  0  0  0  0  0  0  0  0  0  0  0
   40.5599   31.5514   43.3772 H   0  0  0  0  0  0  0  0  0  0  0  0
   40.1034   33.7242   41.8855 H   0  0  0  0  0  0  0  0  0  0  0  0
   38.4396   35.4298   38.9889 H   0  0  0  0  0  0  0  0  0  0  0  0
   40.0266   35.2537   39.7846 H   0  0  0  0  0  0  0  0  0  0  0  0
   34.4348   27.4708   36.5602 H   0  0  0  0  0  0  0  0  0  0  0  0
  2  1  2  0
  2 12  1  0
  3  2  1  0
  4  5  1  0
  4  3  2  0
  5  6  2  0
  6  1  1  0
  7  5  1  0
  7  8  1  0
  9  8  2  0
 10 11  2  0
 10  9  1  0
 11  7  1  0
 12 13  2  0
 13 14  1  0
 15 14  2  0
 16 12  1  0
 16 15  1  0
 17 15  1  0
 18 17  1  0
 19 18  2  0
 19 21  1  0
 20 18  1  0
 22 11  1  0
 23 22  2  0
 24 22  1  0
  1 25  1  0
  3 26  1  0
  9 27  1  0
 10 28  1  0
 13 29  1  0
 14 30  1  0
 17 31  1  0
 20 32  1  0
 20 33  1  0
 24 34  1  0
M  ISO  7  25  14  26  14  27  14  28  14  29  14  30  14  34   3
M  END
>  <minimizedAffinity>  (1) 
-5.44814253

>  <minimizedRMSD>  (1) 
0.315928519

$$$$
