
     RDKit          3D

 27 29  0  0  0  0  0  0  0  0999 V2000
   38.0700   31.6050   40.6750 C   0  0  0  0  0  0  0  0  0  0  0  0
   37.1920   32.5090   40.1630 N   0  0  0  0  0  0  0  0  0  0  0  0
   37.4760   33.7420   39.8000 C   0  0  0  0  0  0  0  0  0  0  0  0
   38.6960   34.2240   39.9090 N   0  0  0  0  0  0  0  0  0  0  0  0
   39.6780   33.4330   40.4060 C   0  0  0  0  0  0  0  0  0  0  0  0
   40.9560   33.9330   40.5230 C   0  0  0  0  0  0  0  0  0  0  0  0
   41.9670   33.1560   41.0220 C   0  0  0  0  0  0  0  0  0  0  0  0
   41.6600   31.8570   41.4010 C   0  0  0  0  0  0  0  0  0  0  0  0
   40.3650   31.4120   41.2630 C   0  0  0  0  0  0  0  0  0  0  0  0
   39.3310   32.1480   40.7730 C   0  0  0  0  0  0  0  0  0  0  0  0
   37.1430   28.1950   40.1140 C   0  0  0  0  0  0  0  0  0  0  0  0
   37.0070   27.5640   41.3540 C   0  0  0  0  0  0  0  0  0  0  0  0
   37.2490   28.3640   42.4480 C   0  0  0  0  0  0  0  0  0  0  0  0
   37.5870   29.6470   42.2230 N   0  0  0  0  0  0  0  0  0  0  0  0
   37.7190   30.2530   41.0650 C   0  0  0  0  0  0  0  0  0  0  0  0
   37.4820   29.4710   40.0270 N   0  0  0  0  0  0  0  0  0  0  0  0
   37.1660   27.9160   43.8630 C   0  0  0  0  0  0  0  0  0  0  0  0
   36.0580   27.0930   43.9590 F   0  0  0  0  0  0  0  0  0  0  0  0
   38.2810   27.1590   44.1710 F   0  0  0  0  0  0  0  0  0  0  0  0
   37.0800   28.9810   44.7020 F   0  0  0  0  0  0  0  0  0  0  0  0
   36.6775   34.3826   39.3974 H   0  0  0  0  0  0  0  0  0  0  0  0
   41.1666   34.9670   40.2124 H   0  0  0  0  0  0  0  0  0  0  0  0
   42.9898   33.5490   41.1193 H   0  0  0  0  0  0  0  0  0  0  0  0
   42.4389   31.1937   41.8051 H   0  0  0  0  0  0  0  0  0  0  0  0
   40.1488   30.3791   41.5736 H   0  0  0  0  0  0  0  0  0  0  0  0
   36.9648   27.6199   39.1934 H   0  0  0  0  0  0  0  0  0  0  0  0
   36.7268   26.5045   41.4488 H   0  0  0  0  0  0  0  0  0  0  0  0
  1 10  1  0
  1 15  1  0
  2  1  2  0
  3  4  2  0
  3  2  1  0
  4  5  1  0
  5  6  1  0
  5 10  2  0
  6  7  2  0
  7  8  1  0
  9  8  2  0
 10  9  1  0
 11 12  2  0
 12 13  1  0
 13 17  1  0
 14 13  2  0
 15 14  1  0
 16 11  1  0
 16 15  2  0
 17 18  1  0
 17 19  1  0
 17 20  1  0
  3 21  1  0
  6 22  1  0
  7 23  1  0
  8 24  1  0
  9 25  1  0
 11 26  1  0
 12 27  1  0
M  ISO  7  21  14  22  14  23  14  24  14  25  14  26  14  27  14
M  END
>  <minimizedAffinity>  (1) 
-5.80089426

>  <minimizedRMSD>  (1) 
3.63946009

$$$$
