
     RDKit          3D

 31 34  0  0  0  0  0  0  0  0999 V2000
   37.3570   30.6080   40.3970 C   0  0  0  0  0  0  0  0  0  0  0  0
   36.1730   30.4520   39.7510 N   0  0  0  0  0  0  0  0  0  0  0  0
   35.2550   29.5530   40.0170 C   0  0  0  0  0  0  0  0  0  0  0  0
   35.4290   28.6740   41.0010 N   0  0  0  0  0  0  0  0  0  0  0  0
   36.5590   28.7110   41.7290 C   0  0  0  0  0  0  0  0  0  0  0  0
   36.7390   27.7980   42.7500 C   0  0  0  0  0  0  0  0  0  0  0  0
   37.8820   27.8170   43.5030 C   0  0  0  0  0  0  0  0  0  0  0  0
   38.8530   28.7770   43.2130 C   0  0  0  0  0  0  0  0  0  0  0  0
   38.6080   29.6560   42.1800 C   0  0  0  0  0  0  0  0  0  0  0  0
   37.4880   29.6800   41.4000 C   0  0  0  0  0  0  0  0  0  0  0  0
   40.2100   31.9370   38.6920 C   0  0  0  0  0  0  0  0  0  0  0  0
   40.4250   33.2400   39.1380 C   0  0  0  0  0  0  0  0  0  0  0  0
   39.5280   33.6980   40.0930 C   0  0  0  0  0  0  0  0  0  0  0  0
   38.5670   32.8480   40.4750 N   0  0  0  0  0  0  0  0  0  0  0  0
   38.3440   31.6150   40.0690 C   0  0  0  0  0  0  0  0  0  0  0  0
   39.2150   31.2070   39.1590 N   0  0  0  0  0  0  0  0  0  0  0  0
   39.5430   35.0470   40.7260 C   0  0  0  0  0  0  0  0  0  0  0  0
   39.0180   36.2190   39.9810 C   0  0  0  0  0  0  0  0  0  0  0  0
   40.5000   36.0150   40.0410 C   0  0  0  0  0  0  0  0  0  0  0  0
   34.3314   29.5256   39.4201 H   0  0  0  0  0  0  0  0  0  0  0  0
   35.9590   27.0511   42.9592 H   0  0  0  0  0  0  0  0  0  0  0  0
   38.0318   27.0929   44.3174 H   0  0  0  0  0  0  0  0  0  0  0  0
   39.7867   28.8304   43.7921 H   0  0  0  0  0  0  0  0  0  0  0  0
   39.3843   30.4051   41.9649 H   0  0  0  0  0  0  0  0  0  0  0  0
   40.8836   31.5085   37.9352 H   0  0  0  0  0  0  0  0  0  0  0  0
   41.2490   33.8625   38.7591 H   0  0  0  0  0  0  0  0  0  0  0  0
   39.3484   34.6647   41.7389 H   0  0  0  0  0  0  0  0  0  0  0  0
   38.5592   37.0543   40.5304 H   0  0  0  0  0  0  0  0  0  0  0  0
   38.2920   36.3493   39.1649 H   0  0  0  0  0  0  0  0  0  0  0  0
   41.0523   35.7036   39.1421 H   0  0  0  0  0  0  0  0  0  0  0  0
   41.3630   36.6199   40.3563 H   0  0  0  0  0  0  0  0  0  0  0  0
  1 10  2  0
  2  3  2  0
  2  1  1  0
  3  4  1  0
  4  5  2  0
  5  6  1  0
  6  7  2  0
  8  7  1  0
  9  8  2  0
 10  5  1  0
 10  9  1  0
 11 12  2  0
 11 16  1  0
 12 13  1  0
 13 14  2  0
 13 17  1  0
 15  1  1  0
 15 14  1  0
 16 15  2  0
 18 19  1  0
 18 17  1  0
 19 17  1  0
  3 20  1  0
  6 21  1  0
  7 22  1  0
  8 23  1  0
  9 24  1  0
 11 25  1  0
 12 26  1  0
 17 27  1  0
 18 28  1  0
 18 29  1  0
 19 30  1  0
 19 31  1  0
M  ISO  8  20  14  21  14  22  14  23  14  24  14  25  14  26  14  27  13
M  ISO  4  28  13  29  13  30  13  31  13
M  END
>  <minimizedAffinity>  (1) 
-5.69599247

>  <minimizedRMSD>  (1) 
6.34845543

$$$$
