
     RDKit          3D

 31 33  0  0  0  0  0  0  0  0999 V2000
   41.8620   28.9160   43.0600 C   0  0  0  0  0  0  0  0  0  0  0  0
   41.3970   27.6550   43.4050 C   0  0  0  0  0  0  0  0  0  0  0  0
   40.1040   27.3750   43.0190 C   0  0  0  0  0  0  0  0  0  0  0  0
   39.4320   28.3260   42.3590 N   0  0  0  0  0  0  0  0  0  0  0  0
   39.8510   29.5280   42.0210 C   0  0  0  0  0  0  0  0  0  0  0  0
   41.0960   29.7720   42.4040 N   0  0  0  0  0  0  0  0  0  0  0  0
   39.4220   26.1510   43.2640 N   0  0  0  0  0  0  0  0  0  0  0  0
   39.6740   24.9310   42.5490 C   0  0  0  0  0  0  0  0  0  0  0  0
   40.0080   25.1210   41.2980 N   0  0  0  0  0  0  0  0  0  0  0  0
   39.5200   23.7190   43.3120 N   0  0  0  0  0  0  0  0  0  0  0  0
   40.2030   24.2600   40.7310 H   0  0  0  0  0  0  0  0  0  0  0  0
   39.2530   30.6500   41.3200 C   0  0  0  0  0  0  0  0  0  0  0  0
   39.4570   31.9510   41.6360 N   0  0  0  0  0  0  0  0  0  0  0  0
   38.9350   32.9940   41.0270 C   0  0  0  0  0  0  0  0  0  0  0  0
   38.1230   32.8400   39.9990 N   0  0  0  0  0  0  0  0  0  0  0  0
   37.8260   31.5960   39.5690 C   0  0  0  0  0  0  0  0  0  0  0  0
   36.9760   31.4250   38.4950 C   0  0  0  0  0  0  0  0  0  0  0  0
   36.6620   30.1700   38.0420 C   0  0  0  0  0  0  0  0  0  0  0  0
   37.2180   29.0800   38.6920 C   0  0  0  0  0  0  0  0  0  0  0  0
   38.0600   29.3080   39.7600 C   0  0  0  0  0  0  0  0  0  0  0  0
   38.3990   30.5330   40.2410 C   0  0  0  0  0  0  0  0  0  0  0  0
   42.8855   29.2090   43.3368 H   0  0  0  0  0  0  0  0  0  0  0  0
   42.0180   26.9284   43.9494 H   0  0  0  0  0  0  0  0  0  0  0  0
   38.7021   26.1388   44.0005 H   0  0  0  0  0  0  0  0  0  0  0  0
   39.6842   22.8052   42.8659 H   0  0  0  0  0  0  0  0  0  0  0  0
   39.2457   23.7661   44.3037 H   0  0  0  0  0  0  0  0  0  0  0  0
   39.1788   34.0070   41.3796 H   0  0  0  0  0  0  0  0  0  0  0  0
   36.5456   32.3062   37.9968 H   0  0  0  0  0  0  0  0  0  0  0  0
   35.9864   30.0319   37.1850 H   0  0  0  0  0  0  0  0  0  0  0  0
   36.9926   28.0548   38.3632 H   0  0  0  0  0  0  0  0  0  0  0  0
   38.4911   28.4293   40.2620 H   0  0  0  0  0  0  0  0  0  0  0  0
  1  2  2  0
  3  7  1  0
  3  2  1  0
  4  3  2  0
  5  4  1  0
  5  6  2  0
  6  1  1  0
  8  7  1  0
  8 10  1  0
  9  8  2  0
 11  9  1  0
 12 13  2  0
 12  5  1  0
 14 13  1  0
 15 14  2  0
 16 15  1  0
 16 21  2  0
 17 16  1  0
 18 17  2  0
 18 19  1  0
 19 20  2  0
 20 21  1  0
 21 12  1  0
  1 22  1  0
  2 23  1  0
  7 24  1  0
 10 25  1  0
 10 26  1  0
 14 27  1  0
 17 28  1  0
 18 29  1  0
 19 30  1  0
 20 31  1  0
M  ISO  7  22  14  23  14  27  14  28  14  29  14  30  14  31  14
M  END
>  <minimizedAffinity>  (1) 
-5.03760099

>  <minimizedRMSD>  (1) 
2.85169506

$$$$
