
     RDKit          3D

 27 29  0  0  0  0  0  0  0  0999 V2000
   37.7250   30.6610   40.6650 C   0  0  0  0  0  0  0  0  0  0  0  0
   37.7200   31.9920   40.8620 N   0  0  0  0  0  0  0  0  0  0  0  0
   37.5580   32.9210   39.9410 C   0  0  0  0  0  0  0  0  0  0  0  0
   37.3750   32.5870   38.6710 N   0  0  0  0  0  0  0  0  0  0  0  0
   37.3570   31.2850   38.3260 C   0  0  0  0  0  0  0  0  0  0  0  0
   37.1670   30.9390   37.0010 C   0  0  0  0  0  0  0  0  0  0  0  0
   37.1450   29.6240   36.6210 C   0  0  0  0  0  0  0  0  0  0  0  0
   37.3170   28.6560   37.5980 C   0  0  0  0  0  0  0  0  0  0  0  0
   37.5020   29.0630   38.9040 C   0  0  0  0  0  0  0  0  0  0  0  0
   37.5330   30.3530   39.3340 C   0  0  0  0  0  0  0  0  0  0  0  0
   39.6120   28.4590   42.7660 C   0  0  0  0  0  0  0  0  0  0  0  0
   38.7200   27.7920   43.6200 C   0  0  0  0  0  0  0  0  0  0  0  0
   37.3940   28.1250   43.4570 C   0  0  0  0  0  0  0  0  0  0  0  0
   37.0980   29.0320   42.5200 N   0  0  0  0  0  0  0  0  0  0  0  0
   37.9070   29.6750   41.7050 C   0  0  0  0  0  0  0  0  0  0  0  0
   39.1910   29.3420   41.8750 N   0  0  0  0  0  0  0  0  0  0  0  0
   36.2750   27.5510   44.2450 C   0  0  0  0  0  0  0  0  0  0  0  0
   37.5748   33.9826   40.2286 H   0  0  0  0  0  0  0  0  0  0  0  0
   37.0323   31.7272   36.2456 H   0  0  0  0  0  0  0  0  0  0  0  0
   36.9948   29.3430   35.5681 H   0  0  0  0  0  0  0  0  0  0  0  0
   37.3063   27.5871   37.3384 H   0  0  0  0  0  0  0  0  0  0  0  0
   37.6358   28.2769   39.6617 H   0  0  0  0  0  0  0  0  0  0  0  0
   40.6880   28.2423   42.8392 H   0  0  0  0  0  0  0  0  0  0  0  0
   39.0560   27.0564   44.3656 H   0  0  0  0  0  0  0  0  0  0  0  0
   36.4885   27.6605   45.3185 H   0  0  0  0  0  0  0  0  0  0  0  0
   35.3436   28.0827   44.0003 H   0  0  0  0  0  0  0  0  0  0  0  0
   36.1635   26.4844   44.0003 H   0  0  0  0  0  0  0  0  0  0  0  0
  1  2  2  0
  1 15  1  0
  3  2  1  0
  4  3  2  0
  5  4  1  0
  5 10  2  0
  6  5  1  0
  7  6  2  0
  7  8  1  0
  8  9  2  0
  9 10  1  0
 10  1  1  0
 11 12  2  0
 13 12  1  0
 13 17  1  0
 14 13  2  0
 15 16  2  0
 15 14  1  0
 16 11  1  0
  3 18  1  0
  6 19  1  0
  7 20  1  0
  8 21  1  0
  9 22  1  0
 11 23  1  0
 12 24  1  0
 17 25  1  0
 17 26  1  0
 17 27  1  0
M  ISO  8  18  14  19  14  20  14  21  14  22  14  23  14  24  14  25   8
M  ISO  2  26   8  27   8
M  END
>  <minimizedAffinity>  (1) 
-4.83864641

>  <minimizedRMSD>  (1) 
0.715106606

$$$$
