
     RDKit          3D

 41 44  0  0  0  0  0  0  0  0999 V2000
   40.8270   27.9350   43.3240 C   0  0  0  0  0  0  0  0  0  0  0  0
   39.6130   27.2480   43.3610 C   0  0  0  0  0  0  0  0  0  0  0  0
   38.5230   27.9010   42.7820 C   0  0  0  0  0  0  0  0  0  0  0  0
   38.7790   29.1140   42.2600 N   0  0  0  0  0  0  0  0  0  0  0  0
   39.9040   29.7740   42.2150 C   0  0  0  0  0  0  0  0  0  0  0  0
   40.9220   29.1280   42.7720 N   0  0  0  0  0  0  0  0  0  0  0  0
   40.2880   31.0730   41.6830 C   0  0  0  0  0  0  0  0  0  0  0  0
   41.5420   31.5840   41.7640 N   0  0  0  0  0  0  0  0  0  0  0  0
   41.9440   32.7510   41.3010 C   0  0  0  0  0  0  0  0  0  0  0  0
   41.0950   33.5480   40.6890 N   0  0  0  0  0  0  0  0  0  0  0  0
   39.8190   33.1710   40.5350 C   0  0  0  0  0  0  0  0  0  0  0  0
   38.9130   34.0100   39.8860 C   0  0  0  0  0  0  0  0  0  0  0  0
   37.6040   33.6400   39.7200 C   0  0  0  0  0  0  0  0  0  0  0  0
   37.2120   32.4140   40.2150 C   0  0  0  0  0  0  0  0  0  0  0  0
   38.1360   31.6120   40.8510 C   0  0  0  0  0  0  0  0  0  0  0  0
   39.4550   31.9420   41.0380 C   0  0  0  0  0  0  0  0  0  0  0  0
   37.1480   27.3790   42.7000 C   0  0  0  0  0  0  0  0  0  0  0  0
   36.3220   28.1550   41.7220 C   0  0  0  0  0  0  0  0  0  0  0  0
   36.4810   27.5180   44.0730 C   0  0  0  0  0  0  0  0  0  0  0  0
   37.1230   25.9030   42.3620 C   0  0  0  0  0  0  0  0  0  0  0  0
   37.3570   25.6820   40.9100 C   0  0  0  0  0  0  0  0  0  0  0  0
   38.4050   25.9880   40.1240 N   0  0  0  0  0  0  0  0  0  0  0  0
   38.1220   25.5850   38.9200 O   0  0  0  0  0  0  0  0  0  0  0  0
   36.9400   25.0260   38.8570 C   0  0  0  0  0  0  0  0  0  0  0  0
   36.4440   25.0830   40.1220 N   0  0  0  0  0  0  0  0  0  0  0  0
   41.7223   27.4717   43.7642 H   0  0  0  0  0  0  0  0  0  0  0  0
   39.5203   26.2521   43.8187 H   0  0  0  0  0  0  0  0  0  0  0  0
   42.9924   33.0592   41.4268 H   0  0  0  0  0  0  0  0  0  0  0  0
   39.2542   34.9826   39.5019 H   0  0  0  0  0  0  0  0  0  0  0  0
   36.8884   34.3002   39.2080 H   0  0  0  0  0  0  0  0  0  0  0  0
   36.1704   32.0785   40.1034 H   0  0  0  0  0  0  0  0  0  0  0  0
   37.7921   30.6403   41.2351 H   0  0  0  0  0  0  0  0  0  0  0  0
   35.6259   28.8090   42.2676 H   0  0  0  0  0  0  0  0  0  0  0  0
   36.9815   28.7677   41.0899 H   0  0  0  0  0  0  0  0  0  0  0  0
   35.7516   27.4585   41.0899 H   0  0  0  0  0  0  0  0  0  0  0  0
   37.2309   27.3617   44.8624 H   0  0  0  0  0  0  0  0  0  0  0  0
   36.0499   28.5253   44.1710 H   0  0  0  0  0  0  0  0  0  0  0  0
   35.6835   26.7668   44.1710 H   0  0  0  0  0  0  0  0  0  0  0  0
   37.9096   25.3899   42.9348 H   0  0  0  0  0  0  0  0  0  0  0  0
   36.1320   25.5021   42.6211 H   0  0  0  0  0  0  0  0  0  0  0  0
   36.4511   24.6001   37.9684 H   0  0  0  0  0  0  0  0  0  0  0  0
  1  2  2  0
  3  2  1  0
  4  3  2  0
  5  4  1  0
  5  6  2  0
  6  1  1  0
  7  8  2  0
  7  5  1  0
  9  8  1  0
 10  9  2  0
 11 10  1  0
 11 16  2  0
 12 11  1  0
 13 12  2  0
 13 14  1  0
 14 15  2  0
 15 16  1  0
 16  7  1  0
 17  3  1  0
 17 19  1  0
 18 17  1  0
 20 17  1  0
 21 20  1  0
 22 21  2  0
 23 22  1  0
 24 23  1  0
 24 25  2  0
 25 21  1  0
  1 26  1  0
  2 27  1  0
  9 28  1  0
 12 29  1  0
 13 30  1  0
 14 31  1  0
 15 32  1  0
 18 33  1  0
 18 34  1  0
 18 35  1  0
 19 36  1  0
 19 37  1  0
 19 38  1  0
 20 39  1  0
 20 40  1  0
 24 41  1  0
M  ISO  8  26  14  27  14  28  14  29  14  30  14  31  14  32  14  33   8
M  ISO  8  34   8  35   8  36   8  37   8  38   8  39   8  40   8  41  14
M  END
>  <minimizedAffinity>  (1) 
-5.95091391

>  <minimizedRMSD>  (1) 
3.51640749

$$$$
