
     RDKit          3D

 46 49  0  0  0  0  0  0  0  0999 V2000
   39.2860   30.2230   42.7360 C   0  0  0  0  0  0  0  0  0  0  0  0
   38.6480   29.1850   42.0620 C   0  0  0  0  0  0  0  0  0  0  0  0
   38.2760   29.4360   40.7460 C   0  0  0  0  0  0  0  0  0  0  0  0
   38.5760   30.6480   40.2850 N   0  0  0  0  0  0  0  0  0  0  0  0
   39.1720   31.6480   40.8820 C   0  0  0  0  0  0  0  0  0  0  0  0
   39.5170   31.3800   42.1400 N   0  0  0  0  0  0  0  0  0  0  0  0
   39.5450   32.9950   40.4790 C   0  0  0  0  0  0  0  0  0  0  0  0
   38.8860   34.1160   40.8530 N   0  0  0  0  0  0  0  0  0  0  0  0
   39.1880   35.3560   40.5150 C   0  0  0  0  0  0  0  0  0  0  0  0
   40.2240   35.6010   39.7340 N   0  0  0  0  0  0  0  0  0  0  0  0
   40.9680   34.5840   39.2880 C   0  0  0  0  0  0  0  0  0  0  0  0
   42.0630   34.8400   38.4610 C   0  0  0  0  0  0  0  0  0  0  0  0
   42.8450   33.8140   37.9880 C   0  0  0  0  0  0  0  0  0  0  0  0
   42.5020   32.5160   38.3620 C   0  0  0  0  0  0  0  0  0  0  0  0
   41.4100   32.3230   39.1790 C   0  0  0  0  0  0  0  0  0  0  0  0
   40.6060   33.3090   39.6730 C   0  0  0  0  0  0  0  0  0  0  0  0
   37.5910   28.4780   39.8510 C   0  0  0  0  0  0  0  0  0  0  0  0
   38.5990   27.6260   39.1140 C   0  0  0  0  0  0  0  0  0  0  0  0
   36.8480   29.2550   38.7710 C   0  0  0  0  0  0  0  0  0  0  0  0
   36.6030   27.6200   40.5750 C   0  0  0  0  0  0  0  0  0  0  0  0
   36.8380   26.1980   40.4570 N   0  0  0  0  0  0  0  0  0  0  0  0
   37.5790   25.6790   41.4640 C   0  0  0  0  0  0  0  0  0  0  0  0
   37.9320   24.3530   41.5520 C   0  0  0  0  0  0  0  0  0  0  0  0
   37.5120   23.4910   40.5610 C   0  0  0  0  0  0  0  0  0  0  0  0
   37.8100   22.2660   40.5980 O   0  0  0  0  0  0  0  0  0  0  0  0
   36.7790   24.0410   39.5790 N   0  0  0  0  0  0  0  0  0  0  0  0
   36.4450   25.3300   39.5080 C   0  0  0  0  0  0  0  0  0  0  0  0
   35.7580   25.8460   38.5900 O   0  0  0  0  0  0  0  0  0  0  0  0
   39.6024   30.0781   43.7795 H   0  0  0  0  0  0  0  0  0  0  0  0
   38.4487   28.2172   42.5453 H   0  0  0  0  0  0  0  0  0  0  0  0
   38.5733   36.1894   40.8860 H   0  0  0  0  0  0  0  0  0  0  0  0
   42.3031   35.8772   38.1842 H   0  0  0  0  0  0  0  0  0  0  0  0
   43.7103   34.0100   37.3378 H   0  0  0  0  0  0  0  0  0  0  0  0
   43.0944   31.6586   38.0100 H   0  0  0  0  0  0  0  0  0  0  0  0
   41.1654   31.2871   39.4566 H   0  0  0  0  0  0  0  0  0  0  0  0
   39.2297   27.0929   39.8407 H   0  0  0  0  0  0  0  0  0  0  0  0
   38.0706   26.8966   38.4825 H   0  0  0  0  0  0  0  0  0  0  0  0
   39.2302   28.2685   38.4825 H   0  0  0  0  0  0  0  0  0  0  0  0
   36.1612   29.9732   39.2428 H   0  0  0  0  0  0  0  0  0  0  0  0
   37.5723   29.7971   38.1453 H   0  0  0  0  0  0  0  0  0  0  0  0
   36.2741   28.5556   38.1453 H   0  0  0  0  0  0  0  0  0  0  0  0
   36.6355   27.8854   41.6420 H   0  0  0  0  0  0  0  0  0  0  0  0
   35.6245   27.8131   40.1111 H   0  0  0  0  0  0  0  0  0  0  0  0
   37.9190   26.3586   42.2593 H   0  0  0  0  0  0  0  0  0  0  0  0
   38.5367   23.9875   42.3951 H   0  0  0  0  0  0  0  0  0  0  0  0
   36.4505   23.4211   38.8248 H   0  0  0  0  0  0  0  0  0  0  0  0
  2  1  2  0
  3  2  1  0
  4  3  2  0
  4  5  1  0
  5  6  2  0
  6  1  1  0
  7  8  2  0
  7  5  1  0
  9  8  1  0
 10  9  2  0
 11 16  2  0
 11 10  1  0
 12 11  1  0
 13 14  1  0
 13 12  2  0
 14 15  2  0
 15 16  1  0
 16  7  1  0
 17 20  1  0
 17  3  1  0
 18 17  1  0
 19 17  1  0
 21 20  1  0
 21 22  1  0
 22 23  2  0
 24 25  2  0
 24 23  1  0
 26 24  1  0
 27 26  1  0
 27 21  1  0
 28 27  2  0
  1 29  1  0
  2 30  1  0
  9 31  1  0
 12 32  1  0
 13 33  1  0
 14 34  1  0
 15 35  1  0
 18 36  1  0
 18 37  1  0
 18 38  1  0
 19 39  1  0
 19 40  1  0
 19 41  1  0
 20 42  1  0
 20 43  1  0
 22 44  1  0
 23 45  1  0
 26 46  1  0
M  ISO  8  29  14  30  14  31  14  32  14  33  14  34  14  35  14  36   8
M  ISO  8  37   8  38   8  39   8  40   8  41   8  42   8  43   8  44  14
M  ISO  2  45  14  46   9
M  END
>  <minimizedAffinity>  (1) 
-5.78174639

>  <minimizedRMSD>  (1) 
4.35303307

$$$$
