
     RDKit          3D

 49 52  0  0  0  0  0  0  0  0999 V2000
   41.7600   29.6310   42.5740 C   0  0  0  0  0  0  0  0  0  0  0  0
   41.2240   28.4360   43.0470 C   0  0  0  0  0  0  0  0  0  0  0  0
   39.8850   28.2190   42.7650 C   0  0  0  0  0  0  0  0  0  0  0  0
   39.2630   29.1820   42.0710 N   0  0  0  0  0  0  0  0  0  0  0  0
   39.7510   30.3130   41.6180 C   0  0  0  0  0  0  0  0  0  0  0  0
   41.0250   30.4960   41.8980 N   0  0  0  0  0  0  0  0  0  0  0  0
   39.1770   31.4190   40.8640 C   0  0  0  0  0  0  0  0  0  0  0  0
   39.1640   32.7130   41.2940 N   0  0  0  0  0  0  0  0  0  0  0  0
   38.6580   33.7430   40.6480 C   0  0  0  0  0  0  0  0  0  0  0  0
   38.0920   33.5830   39.4670 N   0  0  0  0  0  0  0  0  0  0  0  0
   38.0330   32.3420   38.9180 C   0  0  0  0  0  0  0  0  0  0  0  0
   37.4380   32.1880   37.6750 C   0  0  0  0  0  0  0  0  0  0  0  0
   37.3680   30.9590   37.1010 C   0  0  0  0  0  0  0  0  0  0  0  0
   37.9060   29.8830   37.7940 C   0  0  0  0  0  0  0  0  0  0  0  0
   38.4860   30.1070   39.0280 C   0  0  0  0  0  0  0  0  0  0  0  0
   38.5790   31.3130   39.6420 C   0  0  0  0  0  0  0  0  0  0  0  0
   39.0880   27.0210   43.1790 C   0  0  0  0  0  0  0  0  0  0  0  0
   37.8850   27.4490   43.9760 C   0  0  0  0  0  0  0  0  0  0  0  0
   39.9550   26.1620   44.1080 C   0  0  0  0  0  0  0  0  0  0  0  0
   38.7350   26.1680   42.0090 C   0  0  0  0  0  0  0  0  0  0  0  0
   38.1760   24.8330   42.2470 C   0  0  0  0  0  0  0  0  0  0  0  0
   38.8500   23.9210   41.1720 C   0  0  0  0  0  0  0  0  0  0  0  0
   37.9630   24.0610   39.9640 C   0  0  0  0  0  0  0  0  0  0  0  0
   36.6450   24.6530   40.4070 C   0  0  0  0  0  0  0  0  0  0  0  0
   36.7570   24.5630   41.9200 C   0  0  0  0  0  0  0  0  0  0  0  0
   42.8184   29.8598   42.7674 H   0  0  0  0  0  0  0  0  0  0  0  0
   41.8270   27.7086   43.6103 H   0  0  0  0  0  0  0  0  0  0  0  0
   38.7077   34.7459   41.0971 H   0  0  0  0  0  0  0  0  0  0  0  0
   37.0221   33.0624   37.1531 H   0  0  0  0  0  0  0  0  0  0  0  0
   36.8987   30.8203   36.1158 H   0  0  0  0  0  0  0  0  0  0  0  0
   37.8711   28.8694   37.3680 H   0  0  0  0  0  0  0  0  0  0  0  0
   38.9061   29.2375   39.5548 H   0  0  0  0  0  0  0  0  0  0  0  0
   38.1093   27.3692   45.0499 H   0  0  0  0  0  0  0  0  0  0  0  0
   37.6343   28.4915   43.7303 H   0  0  0  0  0  0  0  0  0  0  0  0
   37.0322   26.7991   43.7303 H   0  0  0  0  0  0  0  0  0  0  0  0
   39.7160   26.3988   45.1553 H   0  0  0  0  0  0  0  0  0  0  0  0
   39.7532   25.0976   43.9175 H   0  0  0  0  0  0  0  0  0  0  0  0
   41.0175   26.3736   43.9175 H   0  0  0  0  0  0  0  0  0  0  0  0
   39.6538   26.0327   41.4195 H   0  0  0  0  0  0  0  0  0  0  0  0
   37.9149   26.7149   41.5208 H   0  0  0  0  0  0  0  0  0  0  0  0
   38.3229   24.6875   43.3274 H   0  0  0  0  0  0  0  0  0  0  0  0
   39.8700   24.2676   40.9498 H   0  0  0  0  0  0  0  0  0  0  0  0
   38.9482   22.8773   41.5052 H   0  0  0  0  0  0  0  0  0  0  0  0
   37.7932   23.0730   39.5111 H   0  0  0  0  0  0  0  0  0  0  0  0
   38.4396   24.7144   39.2184 H   0  0  0  0  0  0  0  0  0  0  0  0
   36.5426   25.6965   40.0743 H   0  0  0  0  0  0  0  0  0  0  0  0
   35.7645   24.1391   39.9940 H   0  0  0  0  0  0  0  0  0  0  0  0
   36.1070   25.3123   42.3956 H   0  0  0  0  0  0  0  0  0  0  0  0
   36.4426   23.5747   42.2867 H   0  0  0  0  0  0  0  0  0  0  0  0
  1  2  2  0
  3  2  1  0
  3 17  1  0
  4  3  2  0
  5  6  2  0
  5  4  1  0
  6  1  1  0
  7  8  2  0
  7  5  1  0
  9  8  1  0
 10  9  2  0
 11 10  1  0
 11 16  2  0
 12 11  1  0
 13 12  2  0
 13 14  1  0
 14 15  2  0
 15 16  1  0
 16  7  1  0
 17 18  1  0
 17 19  1  0
 20 21  1  0
 20 17  1  0
 22 21  1  0
 23 24  1  0
 23 22  1  0
 24 25  1  0
 25 21  1  0
  1 26  1  0
  2 27  1  0
  9 28  1  0
 12 29  1  0
 13 30  1  0
 14 31  1  0
 15 32  1  0
 18 33  1  0
 18 34  1  0
 18 35  1  0
 19 36  1  0
 19 37  1  0
 19 38  1  0
 20 39  1  0
 20 40  1  0
 21 41  1  0
 22 42  1  0
 22 43  1  0
 23 44  1  0
 23 45  1  0
 24 46  1  0
 24 47  1  0
 25 48  1  0
 25 49  1  0
M  ISO  8  26  14  27  14  28  14  29  14  30  14  31  14  32  14  33   8
M  ISO  8  34   8  35   8  36   8  37   8  38   8  39   8  40   8  41  13
M  ISO  8  42  13  43  13  44  13  45  13  46  13  47  13  48  13  49  13
M  END
>  <minimizedAffinity>  (1) 
-5.66544104

>  <minimizedRMSD>  (1) 
1.68929851

$$$$
