
     RDKit          3D

 44 47  0  0  0  0  0  0  0  0999 V2000
   42.5290   31.7420   37.9150 C   0  0  0  0  0  0  0  0  0  0  0  0
   43.5550   32.2730   38.6930 C   0  0  0  0  0  0  0  0  0  0  0  0
   43.1940   32.7110   39.9630 C   0  0  0  0  0  0  0  0  0  0  0  0
   41.9020   32.5760   40.3010 N   0  0  0  0  0  0  0  0  0  0  0  0
   40.9210   32.0830   39.5910 C   0  0  0  0  0  0  0  0  0  0  0  0
   41.2910   31.6690   38.3770 N   0  0  0  0  0  0  0  0  0  0  0  0
   39.5060   31.8840   39.8370 C   0  0  0  0  0  0  0  0  0  0  0  0
   38.5220   32.5500   39.1640 N   0  0  0  0  0  0  0  0  0  0  0  0
   37.2210   32.4030   39.3530 C   0  0  0  0  0  0  0  0  0  0  0  0
   36.7650   31.5520   40.2580 N   0  0  0  0  0  0  0  0  0  0  0  0
   37.6320   30.8370   40.9830 C   0  0  0  0  0  0  0  0  0  0  0  0
   37.1540   29.9380   41.9380 C   0  0  0  0  0  0  0  0  0  0  0  0
   38.0140   29.1940   42.6960 C   0  0  0  0  0  0  0  0  0  0  0  0
   39.3790   29.3600   42.4850 C   0  0  0  0  0  0  0  0  0  0  0  0
   39.8020   30.2580   41.5320 C   0  0  0  0  0  0  0  0  0  0  0  0
   38.9780   31.0180   40.7580 C   0  0  0  0  0  0  0  0  0  0  0  0
   44.1170   33.3120   40.9690 C   0  0  0  0  0  0  0  0  0  0  0  0
   44.8280   34.5070   40.4080 C   0  0  0  0  0  0  0  0  0  0  0  0
   45.1840   32.2790   41.3270 C   0  0  0  0  0  0  0  0  0  0  0  0
   43.3790   33.6410   42.2390 C   0  0  0  0  0  0  0  0  0  0  0  0
   43.8040   34.8810   42.8860 C   0  0  0  0  0  0  0  0  0  0  0  0
   42.9190   35.9410   42.7150 C   0  0  0  0  0  0  0  0  0  0  0  0
   43.1760   37.1830   43.2660 C   0  0  0  0  0  0  0  0  0  0  0  0
   44.2860   37.3910   43.9760 N   0  0  0  0  0  0  0  0  0  0  0  0
   45.1380   36.3570   44.1370 C   0  0  0  0  0  0  0  0  0  0  0  0
   44.9110   35.1410   43.6120 N   0  0  0  0  0  0  0  0  0  0  0  0
   42.7511   31.3778   36.9011 H   0  0  0  0  0  0  0  0  0  0  0  0
   44.5893   32.3419   38.3250 H   0  0  0  0  0  0  0  0  0  0  0  0
   36.5125   32.9929   38.7530 H   0  0  0  0  0  0  0  0  0  0  0  0
   36.0692   29.8268   42.0825 H   0  0  0  0  0  0  0  0  0  0  0  0
   37.6386   28.4860   43.4495 H   0  0  0  0  0  0  0  0  0  0  0  0
   40.1090   28.7823   43.0710 H   0  0  0  0  0  0  0  0  0  0  0  0
   40.8862   30.3705   41.3842 H   0  0  0  0  0  0  0  0  0  0  0  0
   45.2003   35.1327   41.2326 H   0  0  0  0  0  0  0  0  0  0  0  0
   45.6745   34.1733   39.7899 H   0  0  0  0  0  0  0  0  0  0  0  0
   44.1308   35.0917   39.7899 H   0  0  0  0  0  0  0  0  0  0  0  0
   45.2655   32.2001   42.4211 H   0  0  0  0  0  0  0  0  0  0  0  0
   44.9027   31.3013   40.9088 H   0  0  0  0  0  0  0  0  0  0  0  0
   46.1521   32.5918   40.9088 H   0  0  0  0  0  0  0  0  0  0  0  0
   42.3085   33.7275   42.0012 H   0  0  0  0  0  0  0  0  0  0  0  0
   43.5994   32.8285   42.9470 H   0  0  0  0  0  0  0  0  0  0  0  0
   41.9991   35.7884   42.1315 H   0  0  0  0  0  0  0  0  0  0  0  0
   42.4603   38.0050   43.1178 H   0  0  0  0  0  0  0  0  0  0  0  0
   46.0559   36.5160   44.7219 H   0  0  0  0  0  0  0  0  0  0  0  0
  1  6  2  0
  1  2  1  0
  2  3  2  0
  3  4  1  0
  3 17  1  0
  5  7  1  0
  5  4  2  0
  6  5  1  0
  7 16  2  0
  8  9  2  0
  8  7  1  0
  9 10  1  0
 10 11  2  0
 11 12  1  0
 12 13  2  0
 14 13  1  0
 15 14  2  0
 16 11  1  0
 16 15  1  0
 17 19  1  0
 17 20  1  0
 18 17  1  0
 20 21  1  0
 21 26  1  0
 22 21  2  0
 22 23  1  0
 23 24  2  0
 24 25  1  0
 26 25  2  0
  1 27  1  0
  2 28  1  0
  9 29  1  0
 12 30  1  0
 13 31  1  0
 14 32  1  0
 15 33  1  0
 18 34  1  0
 18 35  1  0
 18 36  1  0
 19 37  1  0
 19 38  1  0
 19 39  1  0
 20 40  1  0
 20 41  1  0
 22 42  1  0
 23 43  1  0
 25 44  1  0
M  ISO  8  27  14  28  14  29  14  30  14  31  14  32  14  33  14  34   8
M  ISO  8  35   8  36   8  37   8  38   8  39   8  40   8  41   8  42  14
M  ISO  2  43  14  44  14
M  END
>  <minimizedAffinity>  (1) 
-5.25882959

>  <minimizedRMSD>  (1) 
8.07117271

$$$$
