
     RDKit          3D

 37 39  0  0  0  0  0  0  0  0999 V2000
   42.5450   29.8140   42.0700 C   0  0  0  0  0  0  0  0  0  0  0  0
   42.2270   28.5520   42.5570 C   0  0  0  0  0  0  0  0  0  0  0  0
   40.8960   28.1750   42.4520 C   0  0  0  0  0  0  0  0  0  0  0  0
   40.0660   29.0660   41.8960 N   0  0  0  0  0  0  0  0  0  0  0  0
   40.3450   30.2640   41.4300 C   0  0  0  0  0  0  0  0  0  0  0  0
   41.6180   30.5930   41.5430 N   0  0  0  0  0  0  0  0  0  0  0  0
   39.5370   31.3030   40.8130 C   0  0  0  0  0  0  0  0  0  0  0  0
   39.3760   32.5420   41.3260 N   0  0  0  0  0  0  0  0  0  0  0  0
   38.6550   33.5220   40.8070 C   0  0  0  0  0  0  0  0  0  0  0  0
   38.0020   33.3370   39.6790 N   0  0  0  0  0  0  0  0  0  0  0  0
   38.0710   32.1540   39.0570 C   0  0  0  0  0  0  0  0  0  0  0  0
   37.3850   31.9460   37.8630 C   0  0  0  0  0  0  0  0  0  0  0  0
   37.4360   30.7520   37.2060 C   0  0  0  0  0  0  0  0  0  0  0  0
   38.2020   29.7350   37.7700 C   0  0  0  0  0  0  0  0  0  0  0  0
   38.8660   29.9850   38.9570 C   0  0  0  0  0  0  0  0  0  0  0  0
   38.8370   31.1630   39.6400 C   0  0  0  0  0  0  0  0  0  0  0  0
   40.3340   26.8810   42.9040 C   0  0  0  0  0  0  0  0  0  0  0  0
   39.8750   26.0390   41.7480 C   0  0  0  0  0  0  0  0  0  0  0  0
   39.0880   27.1470   43.7520 C   0  0  0  0  0  0  0  0  0  0  0  0
   41.3040   26.1070   43.7730 C   0  0  0  0  0  0  0  0  0  0  0  0
   41.3370   26.6010   45.0560 O   0  0  0  0  0  0  0  0  0  0  0  0
   43.5846   30.1695   42.1243 H   0  0  0  0  0  0  0  0  0  0  0  0
   42.9862   27.8906   42.9999 H   0  0  0  0  0  0  0  0  0  0  0  0
   38.6009   34.4940   41.3192 H   0  0  0  0  0  0  0  0  0  0  0  0
   36.7866   32.7658   37.4389 H   0  0  0  0  0  0  0  0  0  0  0  0
   36.8909   30.5976   36.2631 H   0  0  0  0  0  0  0  0  0  0  0  0
   38.2774   28.7525   37.2811 H   0  0  0  0  0  0  0  0  0  0  0  0
   39.4654   29.1672   39.3836 H   0  0  0  0  0  0  0  0  0  0  0  0
   39.3809   25.1326   42.1280 H   0  0  0  0  0  0  0  0  0  0  0  0
   39.1654   26.6137   41.1347 H   0  0  0  0  0  0  0  0  0  0  0  0
   40.7426   25.7540   41.1347 H   0  0  0  0  0  0  0  0  0  0  0  0
   39.3515   27.0908   44.8185 H   0  0  0  0  0  0  0  0  0  0  0  0
   38.6960   28.1491   43.5235 H   0  0  0  0  0  0  0  0  0  0  0  0
   38.3210   26.3924   43.5235 H   0  0  0  0  0  0  0  0  0  0  0  0
   40.9927   25.0524   43.8041 H   0  0  0  0  0  0  0  0  0  0  0  0
   42.3101   26.2061   43.3394 H   0  0  0  0  0  0  0  0  0  0  0  0
   41.2869   25.8507   45.6999 H   0  0  0  0  0  0  0  0  0  0  0  0
  1  2  2  0
  3  2  1  0
  3 17  1  0
  4  3  2  0
  5  6  2  0
  5  4  1  0
  6  1  1  0
  7  8  2  0
  7  5  1  0
  9  8  1  0
 10  9  2  0
 11 16  2  0
 11 10  1  0
 12 11  1  0
 13 14  1  0
 13 12  2  0
 14 15  2  0
 15 16  1  0
 16  7  1  0
 17 19  1  0
 17 20  1  0
 18 17  1  0
 20 21  1  0
  1 22  1  0
  2 23  1  0
  9 24  1  0
 12 25  1  0
 13 26  1  0
 14 27  1  0
 15 28  1  0
 18 29  1  0
 18 30  1  0
 18 31  1  0
 19 32  1  0
 19 33  1  0
 19 34  1  0
 20 35  1  0
 20 36  1  0
 21 37  1  0
M  ISO  8  22  14  23  14  24  14  25  14  26  14  27  14  28  14  29   8
M  ISO  8  30   8  31   8  32   8  33   8  34   8  35   8  36   8  37   3
M  END
>  <minimizedAffinity>  (1) 
-4.51893711

>  <minimizedRMSD>  (1) 
0.729685724

$$$$
