
     RDKit          3D

 37 39  0  0  0  0  0  0  0  0999 V2000
   41.6380   29.5190   42.6240 C   0  0  0  0  0  0  0  0  0  0  0  0
   41.0480   28.3350   43.0890 C   0  0  0  0  0  0  0  0  0  0  0  0
   39.6990   28.1770   42.7800 C   0  0  0  0  0  0  0  0  0  0  0  0
   39.1200   29.1590   42.0820 N   0  0  0  0  0  0  0  0  0  0  0  0
   39.6590   30.2820   41.6350 C   0  0  0  0  0  0  0  0  0  0  0  0
   40.9330   30.4070   41.9390 N   0  0  0  0  0  0  0  0  0  0  0  0
   39.1350   31.4010   40.8790 C   0  0  0  0  0  0  0  0  0  0  0  0
   39.1600   32.6870   41.3230 N   0  0  0  0  0  0  0  0  0  0  0  0
   38.6950   33.7400   40.6730 C   0  0  0  0  0  0  0  0  0  0  0  0
   38.1460   33.6080   39.4840 N   0  0  0  0  0  0  0  0  0  0  0  0
   38.0570   32.3920   38.9280 C   0  0  0  0  0  0  0  0  0  0  0  0
   37.4800   32.2390   37.6760 C   0  0  0  0  0  0  0  0  0  0  0  0
   37.3770   31.0070   37.0850 C   0  0  0  0  0  0  0  0  0  0  0  0
   37.8680   29.9160   37.7800 C   0  0  0  0  0  0  0  0  0  0  0  0
   38.4350   30.1090   39.0220 C   0  0  0  0  0  0  0  0  0  0  0  0
   38.5560   31.3220   39.6470 C   0  0  0  0  0  0  0  0  0  0  0  0
   38.8670   27.0080   43.1660 C   0  0  0  0  0  0  0  0  0  0  0  0
   38.1720   26.4140   41.9880 C   0  0  0  0  0  0  0  0  0  0  0  0
   37.7650   27.4890   44.1190 C   0  0  0  0  0  0  0  0  0  0  0  0
   39.6650   25.9720   43.9110 C   0  0  0  0  0  0  0  0  0  0  0  0
   39.7770   24.4140   43.0740 S   0  0  0  0  0  0  0  0  0  0  0  0
   42.7008   29.7131   42.8309 H   0  0  0  0  0  0  0  0  0  0  0  0
   41.6121   27.5821   43.6590 H   0  0  0  0  0  0  0  0  0  0  0  0
   38.7677   34.7375   41.1308 H   0  0  0  0  0  0  0  0  0  0  0  0
   37.0975   33.1243   37.1470 H   0  0  0  0  0  0  0  0  0  0  0  0
   36.9194   30.8894   36.0916 H   0  0  0  0  0  0  0  0  0  0  0  0
   37.8068   28.9067   37.3469 H   0  0  0  0  0  0  0  0  0  0  0  0
   38.8185   29.2235   39.5500 H   0  0  0  0  0  0  0  0  0  0  0  0
   37.3783   25.7356   42.3342 H   0  0  0  0  0  0  0  0  0  0  0  0
   37.7290   27.2168   41.3804 H   0  0  0  0  0  0  0  0  0  0  0  0
   38.8960   25.8513   41.3804 H   0  0  0  0  0  0  0  0  0  0  0  0
   38.0920   27.3463   45.1595 H   0  0  0  0  0  0  0  0  0  0  0  0
   37.5657   28.5560   43.9404 H   0  0  0  0  0  0  0  0  0  0  0  0
   36.8472   26.9096   43.9404 H   0  0  0  0  0  0  0  0  0  0  0  0
   40.6837   26.3598   44.0590 H   0  0  0  0  0  0  0  0  0  0  0  0
   39.1415   25.7876   44.8607 H   0  0  0  0  0  0  0  0  0  0  0  0
   39.8496   23.4040   43.9968 H   0  0  0  0  0  0  0  0  0  0  0  0
  1  2  2  0
  3  2  1  0
  3 17  1  0
  4  3  2  0
  5  6  2  0
  5  4  1  0
  6  1  1  0
  7  8  2  0
  7  5  1  0
  9  8  1  0
 10  9  2  0
 11 10  1  0
 11 16  2  0
 12 11  1  0
 13 12  2  0
 13 14  1  0
 14 15  2  0
 15 16  1  0
 16  7  1  0
 17 20  1  0
 17 19  1  0
 18 17  1  0
 21 20  1  0
  1 22  1  0
  2 23  1  0
  9 24  1  0
 12 25  1  0
 13 26  1  0
 14 27  1  0
 15 28  1  0
 18 29  1  0
 18 30  1  0
 18 31  1  0
 19 32  1  0
 19 33  1  0
 19 34  1  0
 20 35  1  0
 20 36  1  0
 21 37  1  0
M  ISO  8  22  14  23  14  24  14  25  14  26  14  27  14  28  14  29   8
M  ISO  8  30   8  31   8  32   8  33   8  34   8  35   8  36   8  37  11
M  END
>  <minimizedAffinity>  (1) 
-4.68751001

>  <minimizedRMSD>  (1) 
0.496035755

$$$$
