
     RDKit          3D

 44 47  0  0  0  0  0  0  0  0999 V2000
   40.6070   28.8070   42.9310 C   0  0  0  0  0  0  0  0  0  0  0  0
   39.5100   27.9480   43.0670 C   0  0  0  0  0  0  0  0  0  0  0  0
   38.3730   28.3290   42.3790 C   0  0  0  0  0  0  0  0  0  0  0  0
   38.4420   29.4650   41.6640 N   0  0  0  0  0  0  0  0  0  0  0  0
   39.4600   30.2870   41.5210 C   0  0  0  0  0  0  0  0  0  0  0  0
   40.5290   29.9020   42.1860 N   0  0  0  0  0  0  0  0  0  0  0  0
   39.6470   31.5250   40.7940 C   0  0  0  0  0  0  0  0  0  0  0  0
   39.1920   32.7290   41.2420 N   0  0  0  0  0  0  0  0  0  0  0  0
   39.3330   33.8870   40.6230 C   0  0  0  0  0  0  0  0  0  0  0  0
   39.9520   33.9640   39.4750 N   0  0  0  0  0  0  0  0  0  0  0  0
   40.4500   32.8380   38.9220 C   0  0  0  0  0  0  0  0  0  0  0  0
   41.1140   32.8900   37.6980 C   0  0  0  0  0  0  0  0  0  0  0  0
   41.6270   31.7740   37.1150 C   0  0  0  0  0  0  0  0  0  0  0  0
   41.4680   30.5720   37.7800 C   0  0  0  0  0  0  0  0  0  0  0  0
   40.8050   30.5580   38.9900 C   0  0  0  0  0  0  0  0  0  0  0  0
   40.2790   31.6550   39.6030 C   0  0  0  0  0  0  0  0  0  0  0  0
   37.1190   27.5590   42.3930 C   0  0  0  0  0  0  0  0  0  0  0  0
   36.0760   28.2300   41.5320 C   0  0  0  0  0  0  0  0  0  0  0  0
   36.5340   27.6200   43.8250 C   0  0  0  0  0  0  0  0  0  0  0  0
   37.2460   26.1310   42.0200 C   0  0  0  0  0  0  0  0  0  0  0  0
   37.7760   25.8540   40.3400 S   0  0  0  0  0  0  0  0  0  0  0  0
   34.9190   23.9340   38.3960 N   0  0  0  0  0  0  0  0  0  0  0  0
   35.7220   24.9750   38.3590 N   0  0  0  0  0  0  0  0  0  0  0  0
   36.4720   24.9500   39.4740 C   0  0  0  0  0  0  0  0  0  0  0  0
   36.0930   23.8300   40.2180 C   0  0  0  0  0  0  0  0  0  0  0  0
   35.0800   23.1680   39.5120 C   0  0  0  0  0  0  0  0  0  0  0  0
   41.5478   28.5705   43.4496 H   0  0  0  0  0  0  0  0  0  0  0  0
   39.5499   27.0343   43.6782 H   0  0  0  0  0  0  0  0  0  0  0  0
   38.9235   34.7997   41.0804 H   0  0  0  0  0  0  0  0  0  0  0  0
   41.2260   33.8593   37.1902 H   0  0  0  0  0  0  0  0  0  0  0  0
   42.1500   31.8254   36.1486 H   0  0  0  0  0  0  0  0  0  0  0  0
   41.8645   29.6402   37.3504 H   0  0  0  0  0  0  0  0  0  0  0  0
   40.6928   29.5886   39.4976 H   0  0  0  0  0  0  0  0  0  0  0  0
   35.3253   28.7130   42.1748 H   0  0  0  0  0  0  0  0  0  0  0  0
   36.5573   28.9883   40.8969 H   0  0  0  0  0  0  0  0  0  0  0  0
   35.5855   27.4776   40.8969 H   0  0  0  0  0  0  0  0  0  0  0  0
   37.3496   27.5350   44.5582 H   0  0  0  0  0  0  0  0  0  0  0  0
   36.0115   28.5775   43.9672 H   0  0  0  0  0  0  0  0  0  0  0  0
   35.8252   26.7909   43.9672 H   0  0  0  0  0  0  0  0  0  0  0  0
   37.9789   25.6631   42.6937 H   0  0  0  0  0  0  0  0  0  0  0  0
   36.2412   25.6923   42.1091 H   0  0  0  0  0  0  0  0  0  0  0  0
   34.2363   23.7189   37.6553 H   0  0  0  0  0  0  0  0  0  0  0  0
   36.5150   23.5225   41.1862 H   0  0  0  0  0  0  0  0  0  0  0  0
   34.5429   22.2496   39.7915 H   0  0  0  0  0  0  0  0  0  0  0  0
  1  2  2  0
  3 17  1  0
  3  2  1  0
  4  3  2  0
  5  4  1  0
  5  6  2  0
  6  1  1  0
  7  8  2  0
  7  5  1  0
  9  8  1  0
 10  9  2  0
 11 10  1  0
 11 16  2  0
 12 11  1  0
 13 12  2  0
 13 14  1  0
 14 15  2  0
 15 16  1  0
 16  7  1  0
 17 19  1  0
 18 17  1  0
 20 17  1  0
 21 20  1  0
 22 26  1  0
 23 22  1  0
 23 24  2  0
 24 25  1  0
 24 21  1  0
 26 25  2  0
  1 27  1  0
  2 28  1  0
  9 29  1  0
 12 30  1  0
 13 31  1  0
 14 32  1  0
 15 33  1  0
 18 34  1  0
 18 35  1  0
 18 36  1  0
 19 37  1  0
 19 38  1  0
 19 39  1  0
 20 40  1  0
 20 41  1  0
 22 42  1  0
 25 43  1  0
 26 44  1  0
M  ISO  8  27  14  28  14  29  14  30  14  31  14  32  14  33  14  34   8
M  ISO  8  35   8  36   8  37   8  38   8  39   8  40   8  41   8  42   9
M  ISO  2  43  14  44  14
M  END
>  <minimizedAffinity>  (1) 
-5.38725996

>  <minimizedRMSD>  (1) 
2.79016781

$$$$
