
     RDKit          3D

 50 53  0  0  0  0  0  0  0  0999 V2000
   41.9310   30.2140   42.4480 C   0  0  0  0  0  0  0  0  0  0  0  0
   41.6540   28.9340   42.9640 C   0  0  0  0  0  0  0  0  0  0  0  0
   40.4080   28.4230   42.6490 C   0  0  0  0  0  0  0  0  0  0  0  0
   39.6100   29.1840   41.9040 N   0  0  0  0  0  0  0  0  0  0  0  0
   39.8380   30.3900   41.4040 C   0  0  0  0  0  0  0  0  0  0  0  0
   41.0290   30.8560   41.7140 N   0  0  0  0  0  0  0  0  0  0  0  0
   39.0470   31.3010   40.5990 C   0  0  0  0  0  0  0  0  0  0  0  0
   38.7610   32.5730   40.9830 N   0  0  0  0  0  0  0  0  0  0  0  0
   38.0430   33.4490   40.2930 C   0  0  0  0  0  0  0  0  0  0  0  0
   37.5330   33.1160   39.1260 N   0  0  0  0  0  0  0  0  0  0  0  0
   37.7460   31.8930   38.6430 C   0  0  0  0  0  0  0  0  0  0  0  0
   37.2100   31.5340   37.4090 C   0  0  0  0  0  0  0  0  0  0  0  0
   37.4100   30.2800   36.8840 C   0  0  0  0  0  0  0  0  0  0  0  0
   38.1640   29.3840   37.6210 C   0  0  0  0  0  0  0  0  0  0  0  0
   38.6770   29.7820   38.8410 C   0  0  0  0  0  0  0  0  0  0  0  0
   38.4990   31.0180   39.3950 C   0  0  0  0  0  0  0  0  0  0  0  0
   39.9470   27.1080   43.0890 C   0  0  0  0  0  0  0  0  0  0  0  0
   38.6740   27.2070   43.8930 C   0  0  0  0  0  0  0  0  0  0  0  0
   40.9880   26.5490   44.0980 C   0  0  0  0  0  0  0  0  0  0  0  0
   39.7920   26.0840   42.0300 C   0  0  0  0  0  0  0  0  0  0  0  0
   38.4520   24.9480   42.2640 S   0  0  0  0  0  0  0  0  0  0  0  0
   37.0050   25.4450   41.3120 C   0  0  0  0  0  0  0  0  0  0  0  0
   37.4640   26.5830   40.3960 C   0  0  0  0  0  0  0  0  0  0  0  0
   36.4640   26.5180   39.2830 C   0  0  0  0  0  0  0  0  0  0  0  0
   36.3310   25.0440   39.0320 C   0  0  0  0  0  0  0  0  0  0  0  0
   36.5640   24.3590   40.3530 C   0  0  0  0  0  0  0  0  0  0  0  0
   42.9026   30.6866   42.6543 H   0  0  0  0  0  0  0  0  0  0  0  0
   42.3793   28.3779   43.5762 H   0  0  0  0  0  0  0  0  0  0  0  0
   37.8730   34.4577   40.6975 H   0  0  0  0  0  0  0  0  0  0  0  0
   36.6158   32.2675   36.8443 H   0  0  0  0  0  0  0  0  0  0  0  0
   36.9846   29.9977   35.9097 H   0  0  0  0  0  0  0  0  0  0  0  0
   38.3525   28.3690   37.2412 H   0  0  0  0  0  0  0  0  0  0  0  0
   39.2720   29.0503   39.4072 H   0  0  0  0  0  0  0  0  0  0  0  0
   38.9156   27.1882   44.9660 H   0  0  0  0  0  0  0  0  0  0  0  0
   38.1588   28.1479   43.6496 H   0  0  0  0  0  0  0  0  0  0  0  0
   38.0195   26.3570   43.6496 H   0  0  0  0  0  0  0  0  0  0  0  0
   40.6403   26.7357   45.1248 H   0  0  0  0  0  0  0  0  0  0  0  0
   41.1054   25.4665   43.9418 H   0  0  0  0  0  0  0  0  0  0  0  0
   41.9552   27.0491   43.9418 H   0  0  0  0  0  0  0  0  0  0  0  0
   40.7249   25.5032   41.9799 H   0  0  0  0  0  0  0  0  0  0  0  0
   39.5652   26.6351   41.1054 H   0  0  0  0  0  0  0  0  0  0  0  0
   36.1952   25.6942   42.0136 H   0  0  0  0  0  0  0  0  0  0  0  0
   37.4220   27.5528   40.9134 H   0  0  0  0  0  0  0  0  0  0  0  0
   38.5064   26.4845   40.0587 H   0  0  0  0  0  0  0  0  0  0  0  0
   35.5023   26.9548   39.5900 H   0  0  0  0  0  0  0  0  0  0  0  0
   36.7720   27.0829   38.3908 H   0  0  0  0  0  0  0  0  0  0  0  0
   35.3231   24.8124   38.6571 H   0  0  0  0  0  0  0  0  0  0  0  0
   37.0541   24.7038   38.2761 H   0  0  0  0  0  0  0  0  0  0  0  0
   35.6357   23.8883   40.7088 H   0  0  0  0  0  0  0  0  0  0  0  0
   37.3197   23.5643   40.2679 H   0  0  0  0  0  0  0  0  0  0  0  0
  1  2  2  0
  3  2  1  0
  3 17  1  0
  4  3  2  0
  5  6  2  0
  5  4  1  0
  6  1  1  0
  7  8  2  0
  7  5  1  0
  9  8  1  0
 10  9  2  0
 11 10  1  0
 11 16  2  0
 12 11  1  0
 13 12  2  0
 13 14  1  0
 14 15  2  0
 15 16  1  0
 16  7  1  0
 17 18  1  0
 17 19  1  0
 20 21  1  0
 20 17  1  0
 22 21  1  0
 23 22  1  0
 24 23  1  0
 25 24  1  0
 25 26  1  0
 26 22  1  0
  1 27  1  0
  2 28  1  0
  9 29  1  0
 12 30  1  0
 13 31  1  0
 14 32  1  0
 15 33  1  0
 18 34  1  0
 18 35  1  0
 18 36  1  0
 19 37  1  0
 19 38  1  0
 19 39  1  0
 20 40  1  0
 20 41  1  0
 22 42  1  0
 23 43  1  0
 23 44  1  0
 24 45  1  0
 24 46  1  0
 25 47  1  0
 25 48  1  0
 26 49  1  0
 26 50  1  0
M  ISO  8  27  14  28  14  29  14  30  14  31  14  32  14  33  14  34   8
M  ISO  8  35   8  36   8  37   8  38   8  39   8  40   8  41   8  42  13
M  ISO  8  43  13  44  13  45  13  46  13  47  13  48  13  49  13  50  13
M  END
>  <minimizedAffinity>  (1) 
-5.17323923

>  <minimizedRMSD>  (1) 
2.71237946

$$$$
