
     RDKit          3D

 44 47  0  0  0  0  0  0  0  0999 V2000
   41.1390   29.8470   42.3510 C   0  0  0  0  0  0  0  0  0  0  0  0
   40.6140   28.7050   42.9700 C   0  0  0  0  0  0  0  0  0  0  0  0
   39.2840   28.4350   42.7220 C   0  0  0  0  0  0  0  0  0  0  0  0
   38.6440   29.2880   41.9220 N   0  0  0  0  0  0  0  0  0  0  0  0
   39.0990   30.3720   41.3200 C   0  0  0  0  0  0  0  0  0  0  0  0
   40.3710   30.6030   41.5760 N   0  0  0  0  0  0  0  0  0  0  0  0
   38.5000   31.3530   40.4340 C   0  0  0  0  0  0  0  0  0  0  0  0
   38.2670   32.6370   40.7840 N   0  0  0  0  0  0  0  0  0  0  0  0
   37.7220   33.5590   40.0030 C   0  0  0  0  0  0  0  0  0  0  0  0
   37.3530   33.2740   38.7740 N   0  0  0  0  0  0  0  0  0  0  0  0
   37.5260   32.0300   38.2930 C   0  0  0  0  0  0  0  0  0  0  0  0
   37.1420   31.7150   37.0020 C   0  0  0  0  0  0  0  0  0  0  0  0
   37.3130   30.4460   36.4990 C   0  0  0  0  0  0  0  0  0  0  0  0
   37.8790   29.5020   37.3230 C   0  0  0  0  0  0  0  0  0  0  0  0
   38.2490   29.8520   38.5990 C   0  0  0  0  0  0  0  0  0  0  0  0
   38.0980   31.1030   39.1450 C   0  0  0  0  0  0  0  0  0  0  0  0
   38.5680   27.2900   43.2870 C   0  0  0  0  0  0  0  0  0  0  0  0
   37.8100   26.5470   42.2190 C   0  0  0  0  0  0  0  0  0  0  0  0
   37.4520   27.8260   44.2270 C   0  0  0  0  0  0  0  0  0  0  0  0
   39.3770   26.3630   44.1080 C   0  0  0  0  0  0  0  0  0  0  0  0
   39.9240   24.9030   43.2220 S   0  0  0  0  0  0  0  0  0  0  0  0
   41.3220   25.1890   42.1480 C   0  0  0  0  0  0  0  0  0  0  0  0
   42.6470   25.5260   42.3310 C   0  0  0  0  0  0  0  0  0  0  0  0
   43.2910   25.6180   41.1160 C   0  0  0  0  0  0  0  0  0  0  0  0
   42.2980   25.3230   40.2050 C   0  0  0  0  0  0  0  0  0  0  0  0
   41.1840   25.0830   40.8270 O   0  0  0  0  0  0  0  0  0  0  0  0
   42.1933   30.1186   42.5081 H   0  0  0  0  0  0  0  0  0  0  0  0
   41.2273   28.0604   43.6168 H   0  0  0  0  0  0  0  0  0  0  0  0
   37.5763   34.5785   40.3894 H   0  0  0  0  0  0  0  0  0  0  0  0
   36.6923   32.4923   36.3668 H   0  0  0  0  0  0  0  0  0  0  0  0
   37.0073   30.1951   35.4725 H   0  0  0  0  0  0  0  0  0  0  0  0
   38.0344   28.4742   36.9633 H   0  0  0  0  0  0  0  0  0  0  0  0
   38.6998   29.0721   39.2303 H   0  0  0  0  0  0  0  0  0  0  0  0
   37.1001   25.8511   42.6900 H   0  0  0  0  0  0  0  0  0  0  0  0
   37.2594   27.2649   41.5934 H   0  0  0  0  0  0  0  0  0  0  0  0
   38.5168   25.9821   41.5934 H   0  0  0  0  0  0  0  0  0  0  0  0
   37.7541   27.6809   45.2747 H   0  0  0  0  0  0  0  0  0  0  0  0
   37.2949   28.8978   44.0357 H   0  0  0  0  0  0  0  0  0  0  0  0
   36.5173   27.2786   44.0357 H   0  0  0  0  0  0  0  0  0  0  0  0
   40.2649   26.9032   44.4683 H   0  0  0  0  0  0  0  0  0  0  0  0
   38.7331   26.0170   44.9300 H   0  0  0  0  0  0  0  0  0  0  0  0
   43.1223   25.6971   43.3082 H   0  0  0  0  0  0  0  0  0  0  0  0
   44.3443   25.8670   40.9197 H   0  0  0  0  0  0  0  0  0  0  0  0
   42.4304   25.2952   39.1134 H   0  0  0  0  0  0  0  0  0  0  0  0
  1  2  2  0
  3  2  1  0
  3 17  1  0
  4  3  2  0
  5  6  2  0
  5  4  1  0
  6  1  1  0
  7  8  2  0
  7  5  1  0
  9  8  1  0
 10  9  2  0
 11 10  1  0
 11 16  2  0
 12 11  1  0
 13 12  2  0
 13 14  1  0
 14 15  2  0
 15 16  1  0
 16  7  1  0
 17 20  1  0
 17 19  1  0
 18 17  1  0
 21 20  1  0
 22 23  2  0
 22 21  1  0
 24 23  1  0
 25 26  1  0
 25 24  2  0
 26 22  1  0
  1 27  1  0
  2 28  1  0
  9 29  1  0
 12 30  1  0
 13 31  1  0
 14 32  1  0
 15 33  1  0
 18 34  1  0
 18 35  1  0
 18 36  1  0
 19 37  1  0
 19 38  1  0
 19 39  1  0
 20 40  1  0
 20 41  1  0
 23 42  1  0
 24 43  1  0
 25 44  1  0
M  ISO  8  27  14  28  14  29  14  30  14  31  14  32  14  33  14  34   8
M  ISO  8  35   8  36   8  37   8  38   8  39   8  40   8  41   8  42  14
M  ISO  2  43  14  44  14
M  END
>  <minimizedAffinity>  (1) 
-4.8699975

>  <minimizedRMSD>  (1) 
0.890302598

$$$$
