
     RDKit          3D

 40 43  0  0  0  0  0  0  0  0999 V2000
   36.2910   30.7830   41.1930 C   0  0  0  0  0  0  0  0  0  0  0  0
   35.9720   30.1520   39.9100 N   0  0  0  0  0  0  0  0  0  0  0  0
   35.0530   29.1880   39.7420 C   0  0  0  0  0  0  0  0  0  0  0  0
   35.0190   28.8380   38.4310 N   0  0  0  0  0  0  0  0  0  0  0  0
   35.9150   29.5800   37.7640 C   0  0  0  0  0  0  0  0  0  0  0  0
   36.3050   29.6480   36.4150 C   0  0  0  0  0  0  0  0  0  0  0  0
   35.7230   28.8720   35.6230 O   0  0  0  0  0  0  0  0  0  0  0  0
   37.2780   30.5450   36.0740 N   0  0  0  0  0  0  0  0  0  0  0  0
   37.8340   31.3290   37.0030 C   0  0  0  0  0  0  0  0  0  0  0  0
   38.8420   32.2440   36.5900 N   0  0  0  0  0  0  0  0  0  0  0  0
   37.4530   31.2580   38.3040 N   0  0  0  0  0  0  0  0  0  0  0  0
   36.5070   30.4000   38.6990 C   0  0  0  0  0  0  0  0  0  0  0  0
   37.5460   30.2000   41.7080 C   0  0  0  0  0  0  0  0  0  0  0  0
   38.7690   30.8680   41.6940 C   0  0  0  0  0  0  0  0  0  0  0  0
   39.8890   30.2230   42.2070 C   0  0  0  0  0  0  0  0  0  0  0  0
   39.7390   28.9500   42.7080 N   0  0  0  0  0  0  0  0  0  0  0  0
   38.5260   28.3540   42.6950 C   0  0  0  0  0  0  0  0  0  0  0  0
   37.4430   28.9360   42.2160 N   0  0  0  0  0  0  0  0  0  0  0  0
   38.4480   26.9790   43.2540 C   0  0  0  0  0  0  0  0  0  0  0  0
   39.7240   26.5970   43.9740 C   0  0  0  0  0  0  0  0  0  0  0  0
   40.2630   25.3660   43.2770 C   0  0  0  0  0  0  0  0  0  0  0  0
   38.9880   24.7050   42.7930 C   0  0  0  0  0  0  0  0  0  0  0  0
   38.2750   25.9190   42.1900 C   0  0  0  0  0  0  0  0  0  0  0  0
   35.4763   30.5990   41.9088 H   0  0  0  0  0  0  0  0  0  0  0  0
   36.4096   31.8682   41.0578 H   0  0  0  0  0  0  0  0  0  0  0  0
   34.4294   28.7528   40.5369 H   0  0  0  0  0  0  0  0  0  0  0  0
   37.5853   30.6175   35.0936 H   0  0  0  0  0  0  0  0  0  0  0  0
   39.2906   32.8624   37.2809 H   0  0  0  0  0  0  0  0  0  0  0  0
   39.1232   32.2881   35.6001 H   0  0  0  0  0  0  0  0  0  0  0  0
   38.8469   31.8861   41.2849 H   0  0  0  0  0  0  0  0  0  0  0  0
   40.8712   30.7183   42.2122 H   0  0  0  0  0  0  0  0  0  0  0  0
   37.5785   27.0106   43.9270 H   0  0  0  0  0  0  0  0  0  0  0  0
   40.4541   27.4176   43.9133 H   0  0  0  0  0  0  0  0  0  0  0  0
   39.5338   26.3981   45.0390 H   0  0  0  0  0  0  0  0  0  0  0  0
   40.9190   25.6360   42.4363 H   0  0  0  0  0  0  0  0  0  0  0  0
   40.8830   24.7239   43.9199 H   0  0  0  0  0  0  0  0  0  0  0  0
   39.1899   23.9323   42.0366 H   0  0  0  0  0  0  0  0  0  0  0  0
   38.4193   24.1699   43.5677 H   0  0  0  0  0  0  0  0  0  0  0  0
   38.7478   26.2262   41.2455 H   0  0  0  0  0  0  0  0  0  0  0  0
   37.2216   25.7231   41.9408 H   0  0  0  0  0  0  0  0  0  0  0  0
  1 13  1  0
  2  1  1  0
  3  2  1  0
  4  3  2  0
  5  4  1  0
  5 12  2  0
  6  5  1  0
  7  6  2  0
  8  6  1  0
  8  9  1  0
  9 11  2  0
 10  9  1  0
 11 12  1  0
 12  2  1  0
 13 18  1  0
 14 13  2  0
 14 15  1  0
 15 16  2  0
 17 16  1  0
 17 19  1  0
 18 17  2  0
 19 20  1  0
 21 20  1  0
 22 21  1  0
 23 22  1  0
 23 19  1  0
  1 24  1  0
  1 25  1  0
  3 26  1  0
  8 27  1  0
 10 28  1  0
 10 29  1  0
 14 30  1  0
 15 31  1  0
 19 32  1  0
 20 33  1  0
 20 34  1  0
 21 35  1  0
 21 36  1  0
 22 37  1  0
 22 38  1  0
 23 39  1  0
 23 40  1  0
M  ISO  8  24   8  25   8  26  14  27   9  30  14  31  14  32  13  33  13
M  ISO  7  34  13  35  13  36  13  37  13  38  13  39  13  40  13
M  END
>  <minimizedAffinity>  (1) 
-6.42400026

>  <minimizedRMSD>  (1) 
1.63545382

$$$$
