
     RDKit          3D

 30 32  0  0  0  0  0  0  0  0999 V2000
   35.9440   30.2440   39.8430 N   0  0  0  0  0  0  0  0  0  0  0  0
   35.0480   29.2550   39.7110 C   0  0  0  0  0  0  0  0  0  0  0  0
   35.0280   28.8640   38.4260 N   0  0  0  0  0  0  0  0  0  0  0  0
   35.9010   29.5880   37.7220 C   0  0  0  0  0  0  0  0  0  0  0  0
   36.2860   29.6140   36.3810 C   0  0  0  0  0  0  0  0  0  0  0  0
   35.7160   28.7910   35.6100 O   0  0  0  0  0  0  0  0  0  0  0  0
   37.2340   30.5030   35.9810 N   0  0  0  0  0  0  0  0  0  0  0  0
   37.7840   31.3450   36.8840 C   0  0  0  0  0  0  0  0  0  0  0  0
   38.7790   32.2720   36.4370 N   0  0  0  0  0  0  0  0  0  0  0  0
   37.4130   31.3250   38.1870 N   0  0  0  0  0  0  0  0  0  0  0  0
   36.4720   30.4530   38.6250 C   0  0  0  0  0  0  0  0  0  0  0  0
   36.2550   30.9400   41.0940 C   0  0  0  0  0  0  0  0  0  0  0  0
   37.4480   30.3280   41.6940 C   0  0  0  0  0  0  0  0  0  0  0  0
   38.7440   30.8040   41.5180 C   0  0  0  0  0  0  0  0  0  0  0  0
   39.8070   30.1530   42.1210 C   0  0  0  0  0  0  0  0  0  0  0  0
   39.5250   29.0270   42.8930 N   0  0  0  0  0  0  0  0  0  0  0  0
   38.2420   28.6080   43.0290 C   0  0  0  0  0  0  0  0  0  0  0  0
   37.2160   29.2130   42.4630 N   0  0  0  0  0  0  0  0  0  0  0  0
   37.9910   27.3930   43.8680 C   0  0  0  0  0  0  0  0  0  0  0  0
   37.3060   26.4330   43.1080 F   0  0  0  0  0  0  0  0  0  0  0  0
   39.1440   26.8400   44.3660 F   0  0  0  0  0  0  0  0  0  0  0  0
   37.1670   27.7160   44.9260 F   0  0  0  0  0  0  0  0  0  0  0  0
   34.4324   28.8343   40.5197 H   0  0  0  0  0  0  0  0  0  0  0  0
   37.5313   30.5346   34.9953 H   0  0  0  0  0  0  0  0  0  0  0  0
   39.2130   32.9240   37.1059 H   0  0  0  0  0  0  0  0  0  0  0  0
   39.0609   32.2871   35.4464 H   0  0  0  0  0  0  0  0  0  0  0  0
   36.4494   32.0027   40.8870 H   0  0  0  0  0  0  0  0  0  0  0  0
   35.4050   30.8586   41.7875 H   0  0  0  0  0  0  0  0  0  0  0  0
   38.9236   31.6964   40.9005 H   0  0  0  0  0  0  0  0  0  0  0  0
   40.8391   30.5122   41.9951 H   0  0  0  0  0  0  0  0  0  0  0  0
  1 12  1  0
  2  1  1  0
  3  2  2  0
  4  3  1  0
  4 11  2  0
  5  4  1  0
  6  5  2  0
  7  5  1  0
  7  8  1  0
  8 10  2  0
  9  8  1  0
 10 11  1  0
 11  1  1  0
 12 13  1  0
 13 18  1  0
 14 13  2  0
 14 15  1  0
 15 16  2  0
 16 17  1  0
 17 19  1  0
 18 17  2  0
 19 21  1  0
 19 22  1  0
 20 19  1  0
  2 23  1  0
  7 24  1  0
  9 25  1  0
  9 26  1  0
 12 27  1  0
 12 28  1  0
 14 29  1  0
 15 30  1  0
M  ISO  6  23  14  24   9  27   8  28   8  29  14  30  14
M  END
>  <minimizedAffinity>  (1) 
-6.28388882

>  <minimizedRMSD>  (1) 
1.47747159

$$$$
