
     RDKit          3D

 40 43  0  0  0  0  0  0  0  0999 V2000
   36.3090   30.6720   41.2110 C   0  0  0  0  0  0  0  0  0  0  0  0
   35.9930   30.1260   39.8960 N   0  0  0  0  0  0  0  0  0  0  0  0
   35.0280   29.2010   39.6540 C   0  0  0  0  0  0  0  0  0  0  0  0
   35.0030   28.9170   38.3340 N   0  0  0  0  0  0  0  0  0  0  0  0
   35.9470   29.6530   37.7170 C   0  0  0  0  0  0  0  0  0  0  0  0
   36.3670   29.7750   36.3930 C   0  0  0  0  0  0  0  0  0  0  0  0
   35.7760   29.0690   35.5400 O   0  0  0  0  0  0  0  0  0  0  0  0
   37.3820   30.6390   36.0910 N   0  0  0  0  0  0  0  0  0  0  0  0
   37.9580   31.3580   37.0830 C   0  0  0  0  0  0  0  0  0  0  0  0
   39.0180   32.2550   36.7410 N   0  0  0  0  0  0  0  0  0  0  0  0
   37.5510   31.2420   38.3730 N   0  0  0  0  0  0  0  0  0  0  0  0
   36.5490   30.3960   38.7090 C   0  0  0  0  0  0  0  0  0  0  0  0
   37.5050   29.9790   41.7350 C   0  0  0  0  0  0  0  0  0  0  0  0
   38.6850   30.6470   42.1100 C   0  0  0  0  0  0  0  0  0  0  0  0
   39.7460   29.8890   42.5900 C   0  0  0  0  0  0  0  0  0  0  0  0
   39.5850   28.5210   42.6720 N   0  0  0  0  0  0  0  0  0  0  0  0
   38.4430   27.9330   42.3030 C   0  0  0  0  0  0  0  0  0  0  0  0
   37.3990   28.6220   41.8370 N   0  0  0  0  0  0  0  0  0  0  0  0
   38.3190   26.5170   42.4050 N   0  0  0  0  0  0  0  0  0  0  0  0
   37.0450   25.8290   42.3350 C   0  0  0  0  0  0  0  0  0  0  0  0
   37.3560   24.3500   42.1600 C   0  0  0  0  0  0  0  0  0  0  0  0
   38.2780   24.1380   41.1460 O   0  0  0  0  0  0  0  0  0  0  0  0
   39.4940   24.7350   41.3620 C   0  0  0  0  0  0  0  0  0  0  0  0
   39.4720   25.6490   42.5890 C   0  0  0  0  0  0  0  0  0  0  0  0
   35.4602   30.5124   41.8922 H   0  0  0  0  0  0  0  0  0  0  0  0
   36.5048   31.7516   41.1322 H   0  0  0  0  0  0  0  0  0  0  0  0
   34.3703   28.7536   40.4138 H   0  0  0  0  0  0  0  0  0  0  0  0
   37.7054   30.7421   35.1185 H   0  0  0  0  0  0  0  0  0  0  0  0
   39.4754   32.8152   37.4744 H   0  0  0  0  0  0  0  0  0  0  0  0
   39.3241   32.3408   35.7613 H   0  0  0  0  0  0  0  0  0  0  0  0
   38.7656   31.7408   42.0254 H   0  0  0  0  0  0  0  0  0  0  0  0
   40.6885   30.3664   42.8962 H   0  0  0  0  0  0  0  0  0  0  0  0
   36.4759   25.9896   43.2626 H   0  0  0  0  0  0  0  0  0  0  0  0
   36.4365   26.2069   41.5002 H   0  0  0  0  0  0  0  0  0  0  0  0
   37.7655   23.9575   43.1025 H   0  0  0  0  0  0  0  0  0  0  0  0
   36.4236   23.8322   41.8906 H   0  0  0  0  0  0  0  0  0  0  0  0
   40.2519   23.9526   41.5151 H   0  0  0  0  0  0  0  0  0  0  0  0
   39.7318   25.3514   40.4825 H   0  0  0  0  0  0  0  0  0  0  0  0
   40.3961   26.2432   42.6426 H   0  0  0  0  0  0  0  0  0  0  0  0
   39.4060   25.0749   43.5250 H   0  0  0  0  0  0  0  0  0  0  0  0
  1 13  1  0
  2  1  1  0
  3  2  1  0
  4  3  2  0
  5  4  1  0
  5 12  2  0
  6  5  1  0
  7  6  2  0
  8  6  1  0
  8  9  1  0
  9 11  2  0
 10  9  1  0
 11 12  1  0
 12  2  1  0
 13 18  1  0
 13 14  2  0
 14 15  1  0
 15 16  2  0
 17 19  1  0
 17 16  1  0
 18 17  2  0
 19 24  1  0
 20 19  1  0
 21 20  1  0
 22 23  1  0
 22 21  1  0
 23 24  1  0
  1 25  1  0
  1 26  1  0
  3 27  1  0
  8 28  1  0
 10 29  1  0
 10 30  1  0
 14 31  1  0
 15 32  1  0
 20 33  1  0
 20 34  1  0
 21 35  1  0
 21 36  1  0
 23 37  1  0
 23 38  1  0
 24 39  1  0
 24 40  1  0
M  ISO  8  25   8  26   8  27  14  28   9  31  14  32  14  33  13  34  13
M  ISO  6  35  13  36  13  37  13  38  13  39  13  40  13
M  END
>  <minimizedAffinity>  (1) 
-6.24624157

>  <minimizedRMSD>  (1) 
1.45070255

$$$$
