
     RDKit          3D

 27 29  0  0  0  0  0  0  0  0999 V2000
   35.9950   28.1380   40.2180 C   0  0  0  0  0  0  0  0  0  0  0  0
   35.0760   29.1750   40.0680 C   0  0  0  0  0  0  0  0  0  0  0  0
   34.5470   28.9730   38.8190 C   0  0  0  0  0  0  0  0  0  0  0  0
   35.1070   27.8840   38.2430 N   0  0  0  0  0  0  0  0  0  0  0  0
   35.9980   27.3660   39.0980 N   0  0  0  0  0  0  0  0  0  0  0  0
   37.3080   26.7250   41.8260 C   0  0  0  0  0  0  0  0  0  0  0  0
   36.8070   27.9410   41.3960 C   0  0  0  0  0  0  0  0  0  0  0  0
   37.1160   29.0630   42.1720 C   0  0  0  0  0  0  0  0  0  0  0  0
   37.8810   28.9270   43.2980 N   0  0  0  0  0  0  0  0  0  0  0  0
   38.3450   27.6760   43.6590 C   0  0  0  0  0  0  0  0  0  0  0  0
   38.0460   26.5790   42.9070 N   0  0  0  0  0  0  0  0  0  0  0  0
   34.7320   27.4400   36.9210 C   0  0  0  0  0  0  0  0  0  0  0  0
   35.5860   28.1790   35.9490 C   0  0  0  0  0  0  0  0  0  0  0  0
   35.2100   29.2360   35.1400 C   0  0  0  0  0  0  0  0  0  0  0  0
   36.3520   29.5800   34.4180 C   0  0  0  0  0  0  0  0  0  0  0  0
   37.3580   28.7730   34.7750 N   0  0  0  0  0  0  0  0  0  0  0  0
   36.8820   27.9550   35.6800 N   0  0  0  0  0  0  0  0  0  0  0  0
   34.8314   29.9717   40.7859 H   0  0  0  0  0  0  0  0  0  0  0  0
   33.7776   29.6056   38.3522 H   0  0  0  0  0  0  0  0  0  0  0  0
   37.0767   25.8292   41.2310 H   0  0  0  0  0  0  0  0  0  0  0  0
   36.7437   30.0551   41.8768 H   0  0  0  0  0  0  0  0  0  0  0  0
   38.9621   27.5645   44.5627 H   0  0  0  0  0  0  0  0  0  0  0  0
   34.9018   26.3574   36.8248 H   0  0  0  0  0  0  0  0  0  0  0  0
   33.6662   27.6351   36.7314 H   0  0  0  0  0  0  0  0  0  0  0  0
   34.2177   29.7067   35.0790 H   0  0  0  0  0  0  0  0  0  0  0  0
   36.4159   30.3868   33.6730 H   0  0  0  0  0  0  0  0  0  0  0  0
   38.3205   28.7917   34.4088 H   0  0  0  0  0  0  0  0  0  0  0  0
  1  7  1  0
  2  1  1  0
  3  2  2  0
  4  3  1  0
  4  5  1  0
  5  1  2  0
  6 11  2  0
  7  6  1  0
  7  8  2  0
  8  9  1  0
  9 10  2  0
 11 10  1  0
 12  4  1  0
 13 12  1  0
 14 13  1  0
 15 16  1  0
 15 14  2  0
 16 17  1  0
 17 13  2  0
  2 18  1  0
  3 19  1  0
  6 20  1  0
  8 21  1  0
 10 22  1  0
 12 23  1  0
 12 24  1  0
 14 25  1  0
 15 26  1  0
 16 27  1  0
M  ISO  8  18  14  19  14  20  14  21  14  22  14  23   8  24   8  25  14
M  ISO  2  26  14  27   9
M  END
>  <minimizedAffinity>  (1) 
-4.32380629

>  <minimizedRMSD>  (1) 
5.73062372

$$$$
