
     RDKit          3D

 34 37  0  0  0  0  0  0  0  0999 V2000
   36.3690   30.4860   41.3030 C   0  0  0  0  0  0  0  0  0  0  0  0
   36.0190   30.0190   39.9620 N   0  0  0  0  0  0  0  0  0  0  0  0
   35.0250   29.1430   39.6870 C   0  0  0  0  0  0  0  0  0  0  0  0
   34.9800   28.9350   38.3590 N   0  0  0  0  0  0  0  0  0  0  0  0
   35.9380   29.6690   37.7590 C   0  0  0  0  0  0  0  0  0  0  0  0
   36.3510   29.8510   36.4400 C   0  0  0  0  0  0  0  0  0  0  0  0
   35.7120   29.1990   35.5690 O   0  0  0  0  0  0  0  0  0  0  0  0
   37.3830   30.6890   36.1740 N   0  0  0  0  0  0  0  0  0  0  0  0
   37.9920   31.3340   37.1920 C   0  0  0  0  0  0  0  0  0  0  0  0
   39.0820   32.2160   36.8830 N   0  0  0  0  0  0  0  0  0  0  0  0
   37.6030   31.1690   38.4800 N   0  0  0  0  0  0  0  0  0  0  0  0
   36.5760   30.3380   38.7800 C   0  0  0  0  0  0  0  0  0  0  0  0
   37.5030   29.6770   41.8020 C   0  0  0  0  0  0  0  0  0  0  0  0
   38.7120   30.2300   42.2640 C   0  0  0  0  0  0  0  0  0  0  0  0
   39.7090   29.3810   42.7090 C   0  0  0  0  0  0  0  0  0  0  0  0
   39.4650   28.0240   42.6770 N   0  0  0  0  0  0  0  0  0  0  0  0
   38.2980   27.5440   42.2280 C   0  0  0  0  0  0  0  0  0  0  0  0
   37.3110   28.3350   41.7900 N   0  0  0  0  0  0  0  0  0  0  0  0
   38.2050   26.0860   42.2620 C   0  0  0  0  0  0  0  0  0  0  0  0
   37.1300   25.4280   41.6560 C   0  0  0  0  0  0  0  0  0  0  0  0
   37.2900   24.0700   41.8360 C   0  0  0  0  0  0  0  0  0  0  0  0
   38.4500   23.9280   42.5420 N   0  0  0  0  0  0  0  0  0  0  0  0
   38.9890   25.1310   42.7920 N   0  0  0  0  0  0  0  0  0  0  0  0
   35.5054   30.3677   41.9740 H   0  0  0  0  0  0  0  0  0  0  0  0
   36.6506   31.5488   41.2699 H   0  0  0  0  0  0  0  0  0  0  0  0
   34.3611   28.6764   40.4296 H   0  0  0  0  0  0  0  0  0  0  0  0
   37.6996   30.8323   35.2044 H   0  0  0  0  0  0  0  0  0  0  0  0
   39.5656   32.7215   37.6389 H   0  0  0  0  0  0  0  0  0  0  0  0
   39.3803   32.3432   35.9054 H   0  0  0  0  0  0  0  0  0  0  0  0
   38.8615   31.3198   42.2710 H   0  0  0  0  0  0  0  0  0  0  0  0
   40.6673   29.7760   43.0772 H   0  0  0  0  0  0  0  0  0  0  0  0
   36.2970   25.9121   41.1251 H   0  0  0  0  0  0  0  0  0  0  0  0
   36.6229   23.2691   41.4845 H   0  0  0  0  0  0  0  0  0  0  0  0
   38.8529   23.0280   42.8395 H   0  0  0  0  0  0  0  0  0  0  0  0
  1 13  1  0
  2  1  1  0
  3  2  1  0
  4  3  2  0
  5  4  1  0
  5 12  2  0
  6  5  1  0
  7  6  2  0
  8  6  1  0
  8  9  1  0
  9 11  2  0
 10  9  1  0
 11 12  1  0
 12  2  1  0
 13 14  2  0
 14 15  1  0
 16 15  2  0
 17 19  1  0
 17 16  1  0
 18 13  1  0
 18 17  2  0
 19 23  2  0
 20 21  2  0
 20 19  1  0
 21 22  1  0
 22 23  1  0
  1 24  1  0
  1 25  1  0
  3 26  1  0
  8 27  1  0
 10 28  1  0
 10 29  1  0
 14 30  1  0
 15 31  1  0
 20 32  1  0
 21 33  1  0
 22 34  1  0
M  ISO  8  24   8  25   8  26  14  27   9  30  14  31  14  32  14  33  14
M  ISO  1  34   9
M  END
>  <minimizedAffinity>  (1) 
-6.15468645

>  <minimizedRMSD>  (1) 
1.19007015

$$$$
