
     RDKit          3D

 34 37  0  0  0  0  0  0  0  0999 V2000
   36.3190   30.6690   41.2130 C   0  0  0  0  0  0  0  0  0  0  0  0
   35.9810   30.1280   39.8990 N   0  0  0  0  0  0  0  0  0  0  0  0
   35.0060   29.2150   39.6640 C   0  0  0  0  0  0  0  0  0  0  0  0
   34.9790   28.9480   38.3310 N   0  0  0  0  0  0  0  0  0  0  0  0
   35.9170   29.6730   37.7230 C   0  0  0  0  0  0  0  0  0  0  0  0
   36.3320   29.8010   36.3880 C   0  0  0  0  0  0  0  0  0  0  0  0
   35.7190   29.0990   35.5420 O   0  0  0  0  0  0  0  0  0  0  0  0
   37.3510   30.6540   36.0890 N   0  0  0  0  0  0  0  0  0  0  0  0
   37.9360   31.3550   37.0670 C   0  0  0  0  0  0  0  0  0  0  0  0
   39.0080   32.2490   36.7270 N   0  0  0  0  0  0  0  0  0  0  0  0
   37.5460   31.2450   38.3700 N   0  0  0  0  0  0  0  0  0  0  0  0
   36.5440   30.4130   38.7020 C   0  0  0  0  0  0  0  0  0  0  0  0
   37.5200   29.9710   41.7210 C   0  0  0  0  0  0  0  0  0  0  0  0
   38.6850   30.6190   42.1260 C   0  0  0  0  0  0  0  0  0  0  0  0
   39.7480   29.8590   42.5840 C   0  0  0  0  0  0  0  0  0  0  0  0
   39.6100   28.4850   42.6210 N   0  0  0  0  0  0  0  0  0  0  0  0
   38.4640   27.9060   42.2190 C   0  0  0  0  0  0  0  0  0  0  0  0
   37.4330   28.6120   41.7760 N   0  0  0  0  0  0  0  0  0  0  0  0
   38.3490   26.4510   42.2700 C   0  0  0  0  0  0  0  0  0  0  0  0
   37.1040   25.8800   42.0680 C   0  0  0  0  0  0  0  0  0  0  0  0
   37.2510   24.4920   42.1640 C   0  0  0  0  0  0  0  0  0  0  0  0
   38.6070   24.3170   42.4240 C   0  0  0  0  0  0  0  0  0  0  0  0
   39.2090   25.4710   42.4780 O   0  0  0  0  0  0  0  0  0  0  0  0
   35.4789   30.5108   41.9052 H   0  0  0  0  0  0  0  0  0  0  0  0
   36.5193   31.7476   41.1330 H   0  0  0  0  0  0  0  0  0  0  0  0
   34.3484   28.7665   40.4232 H   0  0  0  0  0  0  0  0  0  0  0  0
   37.6695   30.7588   35.1151 H   0  0  0  0  0  0  0  0  0  0  0  0
   39.4732   32.7988   37.4633 H   0  0  0  0  0  0  0  0  0  0  0  0
   39.3114   32.3401   35.7469 H   0  0  0  0  0  0  0  0  0  0  0  0
   38.7591   31.7156   42.0827 H   0  0  0  0  0  0  0  0  0  0  0  0
   40.6821   30.3389   42.9113 H   0  0  0  0  0  0  0  0  0  0  0  0
   36.1672   26.4207   41.8679 H   0  0  0  0  0  0  0  0  0  0  0  0
   36.4755   23.7191   42.0585 H   0  0  0  0  0  0  0  0  0  0  0  0
   39.0999   23.3436   42.5639 H   0  0  0  0  0  0  0  0  0  0  0  0
  1 13  1  0
  2  1  1  0
  3  2  1  0
  4  3  2  0
  5  4  1  0
  5 12  2  0
  6  5  1  0
  7  6  2  0
  8  6  1  0
  8  9  1  0
  9 11  2  0
 10  9  1  0
 11 12  1  0
 12  2  1  0
 13 18  1  0
 13 14  2  0
 14 15  1  0
 15 16  2  0
 17 19  1  0
 17 16  1  0
 18 17  2  0
 19 23  1  0
 20 21  1  0
 20 19  2  0
 21 22  2  0
 22 23  1  0
  1 24  1  0
  1 25  1  0
  3 26  1  0
  8 27  1  0
 10 28  1  0
 10 29  1  0
 14 30  1  0
 15 31  1  0
 20 32  1  0
 21 33  1  0
 22 34  1  0
M  ISO  8  24   8  25   8  26  14  27   9  30  14  31  14  32  14  33  14
M  ISO  1  34  14
M  END
>  <minimizedAffinity>  (1) 
-6.05894375

>  <minimizedRMSD>  (1) 
1.35588396

$$$$
