
     RDKit          3D

 41 45  0  0  0  0  0  0  0  0999 V2000
   36.5290   30.2080   41.4980 C   0  0  0  0  0  0  0  0  0  0  0  0
   36.3300   30.0480   40.0560 N   0  0  0  0  0  0  0  0  0  0  0  0
   35.3350   29.3410   39.4860 C   0  0  0  0  0  0  0  0  0  0  0  0
   35.4590   29.4090   38.1420 N   0  0  0  0  0  0  0  0  0  0  0  0
   36.5340   30.1600   37.8390 C   0  0  0  0  0  0  0  0  0  0  0  0
   37.1380   30.5670   36.6450 C   0  0  0  0  0  0  0  0  0  0  0  0
   36.5910   30.1690   35.5960 O   0  0  0  0  0  0  0  0  0  0  0  0
   38.2510   31.3510   36.6920 N   0  0  0  0  0  0  0  0  0  0  0  0
   38.7530   31.7200   37.8850 C   0  0  0  0  0  0  0  0  0  0  0  0
   39.9260   32.5450   37.9110 N   0  0  0  0  0  0  0  0  0  0  0  0
   38.1710   31.3280   39.0550 N   0  0  0  0  0  0  0  0  0  0  0  0
   37.0730   30.5550   39.0560 C   0  0  0  0  0  0  0  0  0  0  0  0
   37.6200   29.3080   41.9310 C   0  0  0  0  0  0  0  0  0  0  0  0
   38.7640   29.7440   42.5950 C   0  0  0  0  0  0  0  0  0  0  0  0
   39.7290   28.8270   42.9600 C   0  0  0  0  0  0  0  0  0  0  0  0
   39.5060   27.5060   42.6420 N   0  0  0  0  0  0  0  0  0  0  0  0
   38.3830   27.1170   41.9970 C   0  0  0  0  0  0  0  0  0  0  0  0
   37.4470   27.9880   41.6400 N   0  0  0  0  0  0  0  0  0  0  0  0
   38.1880   25.6900   41.6780 C   0  0  0  0  0  0  0  0  0  0  0  0
   37.4060   24.7750   42.3510 C   0  0  0  0  0  0  0  0  0  0  0  0
   37.5320   23.5960   41.7040 N   0  0  0  0  0  0  0  0  0  0  0  0
   38.3560   23.6810   40.6350 C   0  0  0  0  0  0  0  0  0  0  0  0
   38.7500   22.7270   39.7200 C   0  0  0  0  0  0  0  0  0  0  0  0
   39.6260   23.1750   38.7300 C   0  0  0  0  0  0  0  0  0  0  0  0
   40.0610   24.4780   38.6780 C   0  0  0  0  0  0  0  0  0  0  0  0
   39.6300   25.4020   39.6300 C   0  0  0  0  0  0  0  0  0  0  0  0
   38.7610   25.0000   40.6300 C   0  0  0  0  0  0  0  0  0  0  0  0
   35.6021   29.9482   42.0303 H   0  0  0  0  0  0  0  0  0  0  0  0
   36.7925   31.2514   41.7256 H   0  0  0  0  0  0  0  0  0  0  0  0
   34.5479   28.7958   40.0276 H   0  0  0  0  0  0  0  0  0  0  0  0
   38.7053   31.6593   35.8205 H   0  0  0  0  0  0  0  0  0  0  0  0
   40.3283   32.8400   38.8121 H   0  0  0  0  0  0  0  0  0  0  0  0
   40.3661   32.8425   37.0285 H   0  0  0  0  0  0  0  0  0  0  0  0
   38.8975   30.8110   42.8268 H   0  0  0  0  0  0  0  0  0  0  0  0
   40.6430   29.1402   43.4858 H   0  0  0  0  0  0  0  0  0  0  0  0
   36.7954   24.9686   43.2452 H   0  0  0  0  0  0  0  0  0  0  0  0
   37.0545   22.7301   41.9922 H   0  0  0  0  0  0  0  0  0  0  0  0
   38.3984   21.6858   39.7672 H   0  0  0  0  0  0  0  0  0  0  0  0
   39.9789   22.4640   37.9685 H   0  0  0  0  0  0  0  0  0  0  0  0
   40.7519   24.7934   37.8823 H   0  0  0  0  0  0  0  0  0  0  0  0
   39.9787   26.4444   39.5864 H   0  0  0  0  0  0  0  0  0  0  0  0
  1 13  1  0
  2  1  1  0
  3  2  1  0
  4  3  2  0
  5  4  1  0
  5 12  2  0
  6  8  1  0
  6  5  1  0
  7  6  2  0
  8  9  1  0
  9 10  1  0
  9 11  2  0
 11 12  1  0
 12  2  1  0
 13 14  2  0
 14 15  1  0
 16 15  2  0
 17 16  1  0
 18 13  1  0
 18 17  2  0
 19 17  1  0
 19 20  2  0
 21 20  1  0
 22 21  1  0
 23 22  2  0
 24 23  1  0
 25 24  2  0
 25 26  1  0
 26 27  2  0
 27 22  1  0
 27 19  1  0
  1 28  1  0
  1 29  1  0
  3 30  1  0
  8 31  1  0
 10 32  1  0
 10 33  1  0
 14 34  1  0
 15 35  1  0
 20 36  1  0
 21 37  1  0
 23 38  1  0
 24 39  1  0
 25 40  1  0
 26 41  1  0
M  ISO  8  28   8  29   8  30  14  31   9  34  14  35  14  36  14  37   9
M  ISO  4  38  14  39  14  40  14  41  14
M  END
>  <minimizedAffinity>  (1) 
-6.03824282

>  <minimizedRMSD>  (1) 
2.24423885

$$$$
