
     RDKit          3D

 36 38  0  0  0  0  0  0  0  0999 V2000
   36.9760   29.0270   39.9030 C   0  0  0  0  0  0  0  0  0  0  0  0
   36.3050   28.1680   39.0370 C   0  0  0  0  0  0  0  0  0  0  0  0
   36.4010   26.9370   39.6140 C   0  0  0  0  0  0  0  0  0  0  0  0
   37.0930   27.0250   40.7720 N   0  0  0  0  0  0  0  0  0  0  0  0
   37.4340   28.2980   40.9330 N   0  0  0  0  0  0  0  0  0  0  0  0
   37.2130   31.3850   40.6730 C   0  0  0  0  0  0  0  0  0  0  0  0
   37.1100   30.4370   39.6600 C   0  0  0  0  0  0  0  0  0  0  0  0
   37.1400   30.9120   38.3430 C   0  0  0  0  0  0  0  0  0  0  0  0
   37.2680   32.2530   38.1120 N   0  0  0  0  0  0  0  0  0  0  0  0
   37.3640   33.1300   39.1610 C   0  0  0  0  0  0  0  0  0  0  0  0
   37.3360   32.6870   40.4550 N   0  0  0  0  0  0  0  0  0  0  0  0
   37.3690   25.8800   41.6310 C   0  0  0  0  0  0  0  0  0  0  0  0
   38.4890   25.0310   41.0690 C   0  0  0  0  0  0  0  0  0  0  0  0
   39.6890   25.8330   40.6880 C   0  0  0  0  0  0  0  0  0  0  0  0
   40.5690   26.1790   41.8680 C   0  0  0  0  0  0  0  0  0  0  0  0
   40.9130   24.9550   42.6880 C   0  0  0  0  0  0  0  0  0  0  0  0
   39.5790   24.4150   43.2080 C   0  0  0  0  0  0  0  0  0  0  0  0
   38.8480   23.8940   41.9660 C   0  0  0  0  0  0  0  0  0  0  0  0
   35.8055   28.4268   38.0917 H   0  0  0  0  0  0  0  0  0  0  0  0
   35.9784   26.0100   39.1992 H   0  0  0  0  0  0  0  0  0  0  0  0
   37.1911   31.0340   41.7153 H   0  0  0  0  0  0  0  0  0  0  0  0
   37.0610   30.2102   37.4996 H   0  0  0  0  0  0  0  0  0  0  0  0
   37.4651   34.2066   38.9593 H   0  0  0  0  0  0  0  0  0  0  0  0
   37.6589   26.2416   42.6286 H   0  0  0  0  0  0  0  0  0  0  0  0
   36.4605   25.2627   41.6908 H   0  0  0  0  0  0  0  0  0  0  0  0
   38.0943   24.5953   40.1393 H   0  0  0  0  0  0  0  0  0  0  0  0
   40.2830   25.2533   39.9661 H   0  0  0  0  0  0  0  0  0  0  0  0
   39.3287   26.7793   40.2583 H   0  0  0  0  0  0  0  0  0  0  0  0
   41.4999   26.6329   41.4974 H   0  0  0  0  0  0  0  0  0  0  0  0
   40.0180   26.8796   42.5126 H   0  0  0  0  0  0  0  0  0  0  0  0
   41.4132   24.2020   42.0613 H   0  0  0  0  0  0  0  0  0  0  0  0
   41.6004   25.1987   43.5114 H   0  0  0  0  0  0  0  0  0  0  0  0
   39.7464   23.6002   43.9278 H   0  0  0  0  0  0  0  0  0  0  0  0
   38.9987   25.1872   43.7342 H   0  0  0  0  0  0  0  0  0  0  0  0
   37.9311   23.3712   42.2758 H   0  0  0  0  0  0  0  0  0  0  0  0
   39.5080   23.2012   41.4234 H   0  0  0  0  0  0  0  0  0  0  0  0
  1  5  2  0
  2  3  2  0
  2  1  1  0
  3  4  1  0
  4  5  1  0
  4 12  1  0
  7  1  1  0
  7  6  2  0
  8  7  1  0
  9  8  2  0
  9 10  1  0
 10 11  2  0
 11  6  1  0
 13 12  1  0
 13 18  1  0
 14 13  1  0
 14 15  1  0
 15 16  1  0
 16 17  1  0
 18 17  1  0
  2 19  1  0
  3 20  1  0
  6 21  1  0
  8 22  1  0
 10 23  1  0
 12 24  1  0
 12 25  1  0
 13 26  1  0
 14 27  1  0
 14 28  1  0
 15 29  1  0
 15 30  1  0
 16 31  1  0
 16 32  1  0
 17 33  1  0
 17 34  1  0
 18 35  1  0
 18 36  1  0
M  ISO  8  19  14  20  14  21  14  22  14  23  14  24   8  25   8  26  13
M  ISO  8  27  13  28  13  29  13  30  13  31  13  32  13  33  13  34  13
M  ISO  2  35  13  36  13
M  END
>  <minimizedAffinity>  (1) 
-4.09222889

>  <minimizedRMSD>  (1) 
2.61869931

$$$$
