
     RDKit          3D

 34 37  0  0  0  0  0  0  0  0999 V2000
   35.9650   30.1320   39.8760 N   0  0  0  0  0  0  0  0  0  0  0  0
   35.0050   29.2060   39.6310 C   0  0  0  0  0  0  0  0  0  0  0  0
   34.9890   28.9220   38.3120 N   0  0  0  0  0  0  0  0  0  0  0  0
   35.9270   29.6510   37.7010 C   0  0  0  0  0  0  0  0  0  0  0  0
   36.3670   29.7810   36.3730 C   0  0  0  0  0  0  0  0  0  0  0  0
   35.7770   29.0690   35.5220 O   0  0  0  0  0  0  0  0  0  0  0  0
   37.3760   30.6430   36.0910 N   0  0  0  0  0  0  0  0  0  0  0  0
   37.9470   31.3640   37.0710 C   0  0  0  0  0  0  0  0  0  0  0  0
   39.0000   32.2530   36.7300 N   0  0  0  0  0  0  0  0  0  0  0  0
   37.5260   31.2440   38.3630 N   0  0  0  0  0  0  0  0  0  0  0  0
   36.5350   30.4090   38.6930 C   0  0  0  0  0  0  0  0  0  0  0  0
   36.2640   30.6730   41.1900 C   0  0  0  0  0  0  0  0  0  0  0  0
   37.4270   29.9580   41.7450 C   0  0  0  0  0  0  0  0  0  0  0  0
   38.6870   30.5540   41.9460 C   0  0  0  0  0  0  0  0  0  0  0  0
   39.7150   29.7930   42.4740 C   0  0  0  0  0  0  0  0  0  0  0  0
   39.4430   28.4650   42.7800 N   0  0  0  0  0  0  0  0  0  0  0  0
   38.2220   27.9490   42.5680 C   0  0  0  0  0  0  0  0  0  0  0  0
   37.2210   28.6570   42.0630 N   0  0  0  0  0  0  0  0  0  0  0  0
   38.0790   26.5100   42.9450 C   0  0  0  0  0  0  0  0  0  0  0  0
   37.0860   25.6390   42.3010 C   0  0  0  0  0  0  0  0  0  0  0  0
   38.4920   25.5520   41.8270 C   0  0  0  0  0  0  0  0  0  0  0  0
   34.3442   28.7576   40.3875 H   0  0  0  0  0  0  0  0  0  0  0  0
   37.7062   30.7454   35.1207 H   0  0  0  0  0  0  0  0  0  0  0  0
   39.4549   32.8173   37.4618 H   0  0  0  0  0  0  0  0  0  0  0  0
   39.3091   32.3337   35.7508 H   0  0  0  0  0  0  0  0  0  0  0  0
   36.4955   31.7450   41.1045 H   0  0  0  0  0  0  0  0  0  0  0  0
   35.3956   30.5452   41.8530 H   0  0  0  0  0  0  0  0  0  0  0  0
   38.8517   31.6102   41.6868 H   0  0  0  0  0  0  0  0  0  0  0  0
   40.7124   30.2240   42.6455 H   0  0  0  0  0  0  0  0  0  0  0  0
   38.3098   26.7008   44.0035 H   0  0  0  0  0  0  0  0  0  0  0  0
   36.6500   24.8017   42.8656 H   0  0  0  0  0  0  0  0  0  0  0  0
   36.1216   25.8177   41.8031 H   0  0  0  0  0  0  0  0  0  0  0  0
   39.0999   24.6638   42.0541 H   0  0  0  0  0  0  0  0  0  0  0  0
   39.0037   25.6464   40.8579 H   0  0  0  0  0  0  0  0  0  0  0  0
  1 12  1  0
  2  1  1  0
  3  2  2  0
  4  3  1  0
  4 11  2  0
  5  4  1  0
  6  5  2  0
  7  5  1  0
  7  8  1  0
  8 10  2  0
  9  8  1  0
 10 11  1  0
 11  1  1  0
 12 13  1  0
 13 14  2  0
 13 18  1  0
 14 15  1  0
 15 16  2  0
 17 16  1  0
 17 19  1  0
 18 17  2  0
 20 19  1  0
 21 20  1  0
 21 19  1  0
  2 22  1  0
  7 23  1  0
  9 24  1  0
  9 25  1  0
 12 26  1  0
 12 27  1  0
 14 28  1  0
 15 29  1  0
 19 30  1  0
 20 31  1  0
 20 32  1  0
 21 33  1  0
 21 34  1  0
M  ISO  8  22  14  23   9  26   8  27   8  28  14  29  14  30  13  31  13
M  ISO  3  32  13  33  13  34  13
M  END
>  <minimizedAffinity>  (1) 
-5.64545631

>  <minimizedRMSD>  (1) 
0.951805234

$$$$
