
     RDKit          3D

 27 29  0  0  0  0  0  0  0  0999 V2000
   37.1240   30.0120   40.2500 C   0  0  0  0  0  0  0  0  0  0  0  0
   36.9140   31.3740   40.1740 C   0  0  0  0  0  0  0  0  0  0  0  0
   36.9510   31.6570   38.8320 C   0  0  0  0  0  0  0  0  0  0  0  0
   37.1710   30.5270   38.1200 N   0  0  0  0  0  0  0  0  0  0  0  0
   37.2760   29.5260   38.9870 N   0  0  0  0  0  0  0  0  0  0  0  0
   36.3540   28.1830   41.7690 C   0  0  0  0  0  0  0  0  0  0  0  0
   37.1660   29.2700   41.4820 C   0  0  0  0  0  0  0  0  0  0  0  0
   38.0820   29.6570   42.4720 C   0  0  0  0  0  0  0  0  0  0  0  0
   38.1420   28.9690   43.6510 N   0  0  0  0  0  0  0  0  0  0  0  0
   37.2980   27.8950   43.8590 C   0  0  0  0  0  0  0  0  0  0  0  0
   36.4030   27.5080   42.9070 N   0  0  0  0  0  0  0  0  0  0  0  0
   37.2540   30.5500   36.6810 C   0  0  0  0  0  0  0  0  0  0  0  0
   36.3690   29.5670   36.0700 N   0  0  0  0  0  0  0  0  0  0  0  0
   35.1440   29.2090   36.3180 N   0  0  0  0  0  0  0  0  0  0  0  0
   34.7310   28.2400   35.4770 C   0  0  0  0  0  0  0  0  0  0  0  0
   35.8070   27.9870   34.6390 C   0  0  0  0  0  0  0  0  0  0  0  0
   36.8330   28.8390   35.0320 C   0  0  0  0  0  0  0  0  0  0  0  0
   36.7528   32.0766   41.0049 H   0  0  0  0  0  0  0  0  0  0  0  0
   36.8205   32.6588   38.3969 H   0  0  0  0  0  0  0  0  0  0  0  0
   35.6275   27.8632   41.0075 H   0  0  0  0  0  0  0  0  0  0  0  0
   38.7508   30.5130   42.2992 H   0  0  0  0  0  0  0  0  0  0  0  0
   37.3494   27.3430   44.8091 H   0  0  0  0  0  0  0  0  0  0  0  0
   36.9727   31.5519   36.3245 H   0  0  0  0  0  0  0  0  0  0  0  0
   38.2871   30.3029   36.3951 H   0  0  0  0  0  0  0  0  0  0  0  0
   33.7456   27.7515   35.4590 H   0  0  0  0  0  0  0  0  0  0  0  0
   35.8419   27.2530   33.8204 H   0  0  0  0  0  0  0  0  0  0  0  0
   37.8344   28.9071   34.5819 H   0  0  0  0  0  0  0  0  0  0  0  0
  1  7  1  0
  2  1  1  0
  3  2  2  0
  4  3  1  0
  4  5  1  0
  5  1  2  0
  6 11  2  0
  7  6  1  0
  7  8  2  0
  8  9  1  0
  9 10  2  0
 11 10  1  0
 12  4  1  0
 13 14  1  0
 13 12  1  0
 15 14  2  0
 16 17  2  0
 16 15  1  0
 17 13  1  0
  2 18  1  0
  3 19  1  0
  6 20  1  0
  8 21  1  0
 10 22  1  0
 12 23  1  0
 12 24  1  0
 15 25  1  0
 16 26  1  0
 17 27  1  0
M  ISO  8  18  14  19  14  20  14  21  14  22  14  23   8  24   8  25  14
M  ISO  2  26  14  27  14
M  END
>  <minimizedAffinity>  (1) 
-3.91532969

>  <minimizedRMSD>  (1) 
6.34228039

$$$$
