
     RDKit          3D

 44 48  0  0  0  0  0  0  0  0999 V2000
   37.5740   30.6080   41.5220 C   0  0  0  0  0  0  0  0  0  0  0  0
   38.6480   31.4940   41.3240 C   0  0  0  0  0  0  0  0  0  0  0  0
   39.8920   31.1510   41.7990 C   0  0  0  0  0  0  0  0  0  0  0  0
   40.0370   29.9470   42.4520 N   0  0  0  0  0  0  0  0  0  0  0  0
   38.9720   29.1130   42.6250 C   0  0  0  0  0  0  0  0  0  0  0  0
   37.7670   29.4260   42.1760 N   0  0  0  0  0  0  0  0  0  0  0  0
   36.2050   30.8670   41.0640 C   0  0  0  0  0  0  0  0  0  0  0  0
   35.9570   30.1130   39.8530 N   0  0  0  0  0  0  0  0  0  0  0  0
   35.1770   29.0230   39.7850 C   0  0  0  0  0  0  0  0  0  0  0  0
   35.1590   28.5640   38.5150 N   0  0  0  0  0  0  0  0  0  0  0  0
   35.9310   29.3570   37.7600 C   0  0  0  0  0  0  0  0  0  0  0  0
   36.2730   29.3620   36.4170 C   0  0  0  0  0  0  0  0  0  0  0  0
   35.7940   28.4620   35.7000 O   0  0  0  0  0  0  0  0  0  0  0  0
   37.1050   30.3390   35.9550 N   0  0  0  0  0  0  0  0  0  0  0  0
   37.5790   31.2750   36.7960 C   0  0  0  0  0  0  0  0  0  0  0  0
   38.4430   32.2820   36.2890 N   0  0  0  0  0  0  0  0  0  0  0  0
   37.2480   31.2740   38.1070 N   0  0  0  0  0  0  0  0  0  0  0  0
   36.4240   30.3220   38.6100 C   0  0  0  0  0  0  0  0  0  0  0  0
   39.1940   27.9070   43.3000 O   0  0  0  0  0  0  0  0  0  0  0  0
   40.1220   26.9890   42.8480 C   0  0  0  0  0  0  0  0  0  0  0  0
   39.6390   26.3240   41.7320 C   0  0  0  0  0  0  0  0  0  0  0  0
   40.4030   25.3420   41.0890 C   0  0  0  0  0  0  0  0  0  0  0  0
   41.6670   25.0480   41.6020 C   0  0  0  0  0  0  0  0  0  0  0  0
   42.1460   25.7090   42.7140 C   0  0  0  0  0  0  0  0  0  0  0  0
   43.3810   25.4590   43.2800 C   0  0  0  0  0  0  0  0  0  0  0  0
   43.7790   26.1700   44.4160 C   0  0  0  0  0  0  0  0  0  0  0  0
   42.9690   27.1400   45.0160 C   0  0  0  0  0  0  0  0  0  0  0  0
   41.7350   27.3840   44.4420 C   0  0  0  0  0  0  0  0  0  0  0  0
   41.3680   26.6700   43.3220 C   0  0  0  0  0  0  0  0  0  0  0  0
   38.4952   32.4473   40.7969 H   0  0  0  0  0  0  0  0  0  0  0  0
   40.7518   31.8229   41.6606 H   0  0  0  0  0  0  0  0  0  0  0  0
   35.4920   30.5577   41.8424 H   0  0  0  0  0  0  0  0  0  0  0  0
   36.0799   31.9411   40.8625 H   0  0  0  0  0  0  0  0  0  0  0  0
   34.6368   28.5737   40.6314 H   0  0  0  0  0  0  0  0  0  0  0  0
   37.3707   30.3599   34.9601 H   0  0  0  0  0  0  0  0  0  0  0  0
   38.8151   33.0066   36.9194 H   0  0  0  0  0  0  0  0  0  0  0  0
   38.6974   32.2876   35.2909 H   0  0  0  0  0  0  0  0  0  0  0  0
   38.6395   26.5715   41.3451 H   0  0  0  0  0  0  0  0  0  0  0  0
   40.0169   24.8164   40.2031 H   0  0  0  0  0  0  0  0  0  0  0  0
   42.2876   24.2815   41.1148 H   0  0  0  0  0  0  0  0  0  0  0  0
   44.0483   24.7039   42.8389 H   0  0  0  0  0  0  0  0  0  0  0  0
   44.7656   25.9589   44.8543 H   0  0  0  0  0  0  0  0  0  0  0  0
   43.3011   27.6877   45.9103 H   0  0  0  0  0  0  0  0  0  0  0  0
   41.0572   28.1359   44.8724 H   0  0  0  0  0  0  0  0  0  0  0  0
  1  6  1  0
  2  1  2  0
  2  3  1  0
  3  4  2  0
  4  5  1  0
  5 19  1  0
  6  5  2  0
  7  1  1  0
  8  7  1  0
  9  8  1  0
 10  9  2  0
 11 10  1  0
 11 18  2  0
 12 11  1  0
 13 12  2  0
 14 12  1  0
 14 15  1  0
 15 17  2  0
 16 15  1  0
 17 18  1  0
 18  8  1  0
 20 19  1  0
 20 29  1  0
 21 20  2  0
 22 23  2  0
 22 21  1  0
 23 24  1  0
 24 25  1  0
 24 29  2  0
 25 26  2  0
 26 27  1  0
 28 27  2  0
 29 28  1  0
  2 30  1  0
  3 31  1  0
  7 32  1  0
  7 33  1  0
  9 34  1  0
 14 35  1  0
 16 36  1  0
 16 37  1  0
 21 38  1  0
 22 39  1  0
 23 40  1  0
 25 41  1  0
 26 42  1  0
 27 43  1  0
 28 44  1  0
M  ISO  8  30  14  31  14  32   8  33   8  34  14  35   9  38  14  39  14
M  ISO  5  40  14  41  14  42  14  43  14  44  14
M  END
>  <minimizedAffinity>  (1) 
-6.26524782

>  <minimizedRMSD>  (1) 
1.83347762

$$$$
