
     RDKit          3D

 41 44  0  0  0  0  0  0  0  0999 V2000
   36.2100   30.9220   41.0730 C   0  0  0  0  0  0  0  0  0  0  0  0
   35.9210   30.1720   39.8540 N   0  0  0  0  0  0  0  0  0  0  0  0
   35.0870   29.1190   39.7730 C   0  0  0  0  0  0  0  0  0  0  0  0
   35.0620   28.6730   38.4920 N   0  0  0  0  0  0  0  0  0  0  0  0
   35.8770   29.4370   37.7480 C   0  0  0  0  0  0  0  0  0  0  0  0
   36.2380   29.4450   36.4000 C   0  0  0  0  0  0  0  0  0  0  0  0
   35.7180   28.5740   35.6830 O   0  0  0  0  0  0  0  0  0  0  0  0
   37.1130   30.3820   35.9610 N   0  0  0  0  0  0  0  0  0  0  0  0
   37.6250   31.2870   36.8140 C   0  0  0  0  0  0  0  0  0  0  0  0
   38.5490   32.2710   36.3370 N   0  0  0  0  0  0  0  0  0  0  0  0
   37.2880   31.2970   38.1260 N   0  0  0  0  0  0  0  0  0  0  0  0
   36.4100   30.3720   38.6070 C   0  0  0  0  0  0  0  0  0  0  0  0
   37.5140   30.5030   41.5980 C   0  0  0  0  0  0  0  0  0  0  0  0
   38.7040   31.2170   41.3910 C   0  0  0  0  0  0  0  0  0  0  0  0
   39.8830   30.7370   41.9290 C   0  0  0  0  0  0  0  0  0  0  0  0
   39.8300   29.5460   42.6650 N   0  0  0  0  0  0  0  0  0  0  0  0
   38.6500   28.9030   42.8310 C   0  0  0  0  0  0  0  0  0  0  0  0
   37.4970   29.3490   42.3190 N   0  0  0  0  0  0  0  0  0  0  0  0
   38.6970   27.7210   43.5800 O   0  0  0  0  0  0  0  0  0  0  0  0
   38.9510   26.5330   42.8940 C   0  0  0  0  0  0  0  0  0  0  0  0
   37.7510   25.7140   42.5550 C   0  0  0  0  0  0  0  0  0  0  0  0
   38.3420   24.3620   42.2050 C   0  0  0  0  0  0  0  0  0  0  0  0
   39.7570   24.3510   42.7890 C   0  0  0  0  0  0  0  0  0  0  0  0
   39.7770   25.5540   43.7390 C   0  0  0  0  0  0  0  0  0  0  0  0
   35.4299   30.7216   41.8222 H   0  0  0  0  0  0  0  0  0  0  0  0
   36.2299   31.9988   40.8490 H   0  0  0  0  0  0  0  0  0  0  0  0
   34.5175   28.6893   40.6103 H   0  0  0  0  0  0  0  0  0  0  0  0
   37.3875   30.4012   34.9684 H   0  0  0  0  0  0  0  0  0  0  0  0
   38.9431   32.9656   36.9875 H   0  0  0  0  0  0  0  0  0  0  0  0
   38.8197   32.2844   35.3433 H   0  0  0  0  0  0  0  0  0  0  0  0
   38.6985   32.1490   40.8067 H   0  0  0  0  0  0  0  0  0  0  0  0
   40.8326   31.2729   41.7840 H   0  0  0  0  0  0  0  0  0  0  0  0
   39.4495   26.9062   41.9872 H   0  0  0  0  0  0  0  0  0  0  0  0
   37.0705   25.6362   43.4158 H   0  0  0  0  0  0  0  0  0  0  0  0
   37.1498   26.1458   41.7413 H   0  0  0  0  0  0  0  0  0  0  0  0
   37.7397   23.5559   42.6493 H   0  0  0  0  0  0  0  0  0  0  0  0
   38.3558   24.1998   41.1171 H   0  0  0  0  0  0  0  0  0  0  0  0
   39.9460   23.4166   43.3377 H   0  0  0  0  0  0  0  0  0  0  0  0
   40.5349   24.4116   42.0136 H   0  0  0  0  0  0  0  0  0  0  0  0
   40.7979   25.9222   43.9184 H   0  0  0  0  0  0  0  0  0  0  0  0
   39.3974   25.3646   44.7539 H   0  0  0  0  0  0  0  0  0  0  0  0
  1 13  1  0
  2  1  1  0
  3  2  1  0
  4  3  2  0
  5  4  1  0
  5 12  2  0
  6  5  1  0
  7  6  2  0
  8  6  1  0
  8  9  1  0
  9 11  2  0
 10  9  1  0
 11 12  1  0
 12  2  1  0
 13 18  1  0
 14 13  2  0
 14 15  1  0
 15 16  2  0
 16 17  1  0
 17 19  1  0
 18 17  2  0
 20 19  1  0
 20 24  1  0
 21 20  1  0
 22 21  1  0
 22 23  1  0
 23 24  1  0
  1 25  1  0
  1 26  1  0
  3 27  1  0
  8 28  1  0
 10 29  1  0
 10 30  1  0
 14 31  1  0
 15 32  1  0
 20 33  1  0
 21 34  1  0
 21 35  1  0
 22 36  1  0
 22 37  1  0
 23 38  1  0
 23 39  1  0
 24 40  1  0
 24 41  1  0
M  ISO  8  25   8  26   8  27  14  28   9  31  14  32  14  33  13  34  13
M  ISO  7  35  13  36  13  37  13  38  13  39  13  40  13  41  13
M  END
>  <minimizedAffinity>  (1) 
-6.15278435

>  <minimizedRMSD>  (1) 
1.26444185

$$$$
