
     RDKit          3D

 36 39  0  0  0  0  0  0  0  0999 V2000
   36.1900   30.8350   41.0920 C   0  0  0  0  0  0  0  0  0  0  0  0
   35.9270   30.0910   39.8710 N   0  0  0  0  0  0  0  0  0  0  0  0
   35.1190   29.0170   39.7820 C   0  0  0  0  0  0  0  0  0  0  0  0
   35.1080   28.5800   38.5050 N   0  0  0  0  0  0  0  0  0  0  0  0
   35.9100   29.3710   37.7640 C   0  0  0  0  0  0  0  0  0  0  0  0
   36.2640   29.3890   36.4280 C   0  0  0  0  0  0  0  0  0  0  0  0
   35.7690   28.5040   35.6860 O   0  0  0  0  0  0  0  0  0  0  0  0
   37.1270   30.3570   35.9820 N   0  0  0  0  0  0  0  0  0  0  0  0
   37.6060   31.2620   36.8470 C   0  0  0  0  0  0  0  0  0  0  0  0
   38.5060   32.2650   36.3610 N   0  0  0  0  0  0  0  0  0  0  0  0
   37.2590   31.2440   38.1470 N   0  0  0  0  0  0  0  0  0  0  0  0
   36.4130   30.3110   38.6330 C   0  0  0  0  0  0  0  0  0  0  0  0
   37.5060   30.4580   41.6130 C   0  0  0  0  0  0  0  0  0  0  0  0
   38.6780   31.1930   41.3880 C   0  0  0  0  0  0  0  0  0  0  0  0
   39.8720   30.7620   41.9160 C   0  0  0  0  0  0  0  0  0  0  0  0
   39.8630   29.5880   42.6680 N   0  0  0  0  0  0  0  0  0  0  0  0
   38.7070   28.9230   42.8510 C   0  0  0  0  0  0  0  0  0  0  0  0
   37.5520   29.3180   42.3540 N   0  0  0  0  0  0  0  0  0  0  0  0
   38.8010   27.7430   43.6280 O   0  0  0  0  0  0  0  0  0  0  0  0
   39.8910   26.9050   43.5050 C   0  0  0  0  0  0  0  0  0  0  0  0
   39.8330   25.9320   42.5360 C   0  0  0  0  0  0  0  0  0  0  0  0
   40.9000   25.0440   42.3510 C   0  0  0  0  0  0  0  0  0  0  0  0
   42.0250   25.1170   43.1230 N   0  0  0  0  0  0  0  0  0  0  0  0
   42.0340   26.0850   44.0570 C   0  0  0  0  0  0  0  0  0  0  0  0
   41.0210   26.9660   44.2700 N   0  0  0  0  0  0  0  0  0  0  0  0
   35.4177   30.6002   41.8392 H   0  0  0  0  0  0  0  0  0  0  0  0
   36.1731   31.9138   40.8778 H   0  0  0  0  0  0  0  0  0  0  0  0
   34.5586   28.5684   40.6155 H   0  0  0  0  0  0  0  0  0  0  0  0
   37.4048   30.3883   34.9907 H   0  0  0  0  0  0  0  0  0  0  0  0
   38.8873   32.9712   37.0066 H   0  0  0  0  0  0  0  0  0  0  0  0
   38.7718   32.2799   35.3660 H   0  0  0  0  0  0  0  0  0  0  0  0
   38.6425   32.1148   40.7889 H   0  0  0  0  0  0  0  0  0  0  0  0
   40.8028   31.3243   41.7507 H   0  0  0  0  0  0  0  0  0  0  0  0
   38.9396   25.8500   41.8995 H   0  0  0  0  0  0  0  0  0  0  0  0
   40.8311   24.2731   41.5693 H   0  0  0  0  0  0  0  0  0  0  0  0
   42.9261   26.1698   44.6949 H   0  0  0  0  0  0  0  0  0  0  0  0
  1 13  1  0
  2  1  1  0
  3  2  1  0
  4  3  2  0
  5  4  1  0
  5 12  2  0
  6  5  1  0
  7  6  2  0
  8  6  1  0
  8  9  1  0
  9 11  2  0
 10  9  1  0
 11 12  1  0
 12  2  1  0
 13 18  1  0
 14 13  2  0
 14 15  1  0
 15 16  2  0
 16 17  1  0
 17 19  1  0
 18 17  2  0
 20 19  1  0
 20 25  1  0
 21 20  2  0
 22 21  1  0
 22 23  2  0
 23 24  1  0
 24 25  2  0
  1 26  1  0
  1 27  1  0
  3 28  1  0
  8 29  1  0
 10 30  1  0
 10 31  1  0
 14 32  1  0
 15 33  1  0
 21 34  1  0
 22 35  1  0
 24 36  1  0
M  ISO  8  26   8  27   8  28  14  29   9  32  14  33  14  34  14  35  14
M  ISO  1  36  14
M  END
>  <minimizedAffinity>  (1) 
-5.9917798

>  <minimizedRMSD>  (1) 
1.04577112

$$$$
