
     RDKit          3D

 34 37  0  0  0  0  0  0  0  0999 V2000
   36.2890   30.9280   41.1680 C   0  0  0  0  0  0  0  0  0  0  0  0
   35.9580   30.2290   39.9380 N   0  0  0  0  0  0  0  0  0  0  0  0
   35.0620   29.2150   39.8440 C   0  0  0  0  0  0  0  0  0  0  0  0
   35.0010   28.8010   38.5680 N   0  0  0  0  0  0  0  0  0  0  0  0
   35.8480   29.5310   37.8200 C   0  0  0  0  0  0  0  0  0  0  0  0
   36.1920   29.5450   36.4720 C   0  0  0  0  0  0  0  0  0  0  0  0
   35.6210   28.7190   35.7460 O   0  0  0  0  0  0  0  0  0  0  0  0
   37.1130   30.4450   36.0430 N   0  0  0  0  0  0  0  0  0  0  0  0
   37.6740   31.2960   36.9010 C   0  0  0  0  0  0  0  0  0  0  0  0
   38.6440   32.2370   36.4200 N   0  0  0  0  0  0  0  0  0  0  0  0
   37.3610   31.3070   38.2170 N   0  0  0  0  0  0  0  0  0  0  0  0
   36.4440   30.4260   38.6960 C   0  0  0  0  0  0  0  0  0  0  0  0
   37.5330   30.3800   41.7120 C   0  0  0  0  0  0  0  0  0  0  0  0
   38.7940   30.9610   41.5120 C   0  0  0  0  0  0  0  0  0  0  0  0
   39.9040   30.3590   42.0730 C   0  0  0  0  0  0  0  0  0  0  0  0
   39.7080   29.1920   42.8180 N   0  0  0  0  0  0  0  0  0  0  0  0
   38.4750   28.6780   42.9770 C   0  0  0  0  0  0  0  0  0  0  0  0
   37.4040   29.2380   42.4490 N   0  0  0  0  0  0  0  0  0  0  0  0
   38.3920   27.5110   43.7370 O   0  0  0  0  0  0  0  0  0  0  0  0
   38.6820   26.2670   43.1950 C   0  0  0  0  0  0  0  0  0  0  0  0
   37.7730   25.8060   42.2830 C   0  0  0  0  0  0  0  0  0  0  0  0
   38.4960   24.1820   41.8180 S   0  0  0  0  0  0  0  0  0  0  0  0
   39.9610   24.4470   43.0020 C   0  0  0  0  0  0  0  0  0  0  0  0
   39.7170   25.4860   43.4530 N   0  0  0  0  0  0  0  0  0  0  0  0
   35.4772   30.7932   41.8979 H   0  0  0  0  0  0  0  0  0  0  0  0
   36.4165   32.0008   40.9612 H   0  0  0  0  0  0  0  0  0  0  0  0
   34.4791   28.7987   40.6788 H   0  0  0  0  0  0  0  0  0  0  0  0
   37.3797   30.4702   35.0485 H   0  0  0  0  0  0  0  0  0  0  0  0
   39.0855   32.9005   37.0725 H   0  0  0  0  0  0  0  0  0  0  0  0
   38.8990   32.2491   35.4221 H   0  0  0  0  0  0  0  0  0  0  0  0
   38.8975   31.8811   40.9181 H   0  0  0  0  0  0  0  0  0  0  0  0
   40.9095   30.7841   41.9379 H   0  0  0  0  0  0  0  0  0  0  0  0
   36.8499   26.2830   41.9220 H   0  0  0  0  0  0  0  0  0  0  0  0
   40.8166   23.7862   43.2054 H   0  0  0  0  0  0  0  0  0  0  0  0
  1 13  1  0
  2  1  1  0
  3  2  1  0
  4  3  2  0
  5  4  1  0
  5 12  2  0
  6  5  1  0
  7  6  2  0
  8  6  1  0
  8  9  1  0
  9 11  2  0
 10  9  1  0
 11 12  1  0
 12  2  1  0
 13 18  1  0
 14 13  2  0
 14 15  1  0
 15 16  2  0
 16 17  1  0
 17 19  1  0
 18 17  2  0
 20 24  1  0
 20 19  1  0
 21 20  2  0
 22 21  1  0
 22 23  1  0
 23 24  2  0
  1 25  1  0
  1 26  1  0
  3 27  1  0
  8 28  1  0
 10 29  1  0
 10 30  1  0
 14 31  1  0
 15 32  1  0
 21 33  1  0
 23 34  1  0
M  ISO  8  25   8  26   8  27  14  28   9  31  14  32  14  33  14  34  14
M  END
>  <minimizedAffinity>  (1) 
-5.98263597

>  <minimizedRMSD>  (1) 
1.47116089

$$$$
