
     RDKit          3D

 35 38  0  0  0  0  0  0  0  0999 V2000
   36.2230   30.7960   41.1090 C   0  0  0  0  0  0  0  0  0  0  0  0
   35.9240   30.0890   39.8650 N   0  0  0  0  0  0  0  0  0  0  0  0
   35.0760   29.0540   39.7570 C   0  0  0  0  0  0  0  0  0  0  0  0
   35.0440   28.6510   38.4640 N   0  0  0  0  0  0  0  0  0  0  0  0
   35.8660   29.4200   37.7420 C   0  0  0  0  0  0  0  0  0  0  0  0
   36.2200   29.4620   36.4070 C   0  0  0  0  0  0  0  0  0  0  0  0
   35.6860   28.6160   35.6520 O   0  0  0  0  0  0  0  0  0  0  0  0
   37.1100   30.3940   35.9780 N   0  0  0  0  0  0  0  0  0  0  0  0
   37.6380   31.2650   36.8480 C   0  0  0  0  0  0  0  0  0  0  0  0
   38.5740   32.2490   36.4120 N   0  0  0  0  0  0  0  0  0  0  0  0
   37.3010   31.2390   38.1690 N   0  0  0  0  0  0  0  0  0  0  0  0
   36.4190   30.3230   38.6220 C   0  0  0  0  0  0  0  0  0  0  0  0
   37.5180   30.3450   41.6160 C   0  0  0  0  0  0  0  0  0  0  0  0
   38.7180   31.0320   41.4280 C   0  0  0  0  0  0  0  0  0  0  0  0
   39.8930   30.5190   41.9500 C   0  0  0  0  0  0  0  0  0  0  0  0
   39.8180   29.3170   42.6530 N   0  0  0  0  0  0  0  0  0  0  0  0
   38.6240   28.6930   42.8060 C   0  0  0  0  0  0  0  0  0  0  0  0
   37.5080   29.1870   42.3050 N   0  0  0  0  0  0  0  0  0  0  0  0
   38.6820   27.4940   43.5310 O   0  0  0  0  0  0  0  0  0  0  0  0
   38.1310   26.3690   42.9290 C   0  0  0  0  0  0  0  0  0  0  0  0
   39.0280   25.3170   42.7570 C   0  0  0  0  0  0  0  0  0  0  0  0
   38.3400   24.3030   42.1620 N   0  0  0  0  0  0  0  0  0  0  0  0
   37.0560   24.7110   41.9710 C   0  0  0  0  0  0  0  0  0  0  0  0
   36.9520   25.9660   42.4440 N   0  0  0  0  0  0  0  0  0  0  0  0
   35.4411   30.5806   41.8522 H   0  0  0  0  0  0  0  0  0  0  0  0
   36.2554   31.8793   40.9211 H   0  0  0  0  0  0  0  0  0  0  0  0
   34.5020   28.6070   40.5820 H   0  0  0  0  0  0  0  0  0  0  0  0
   37.3788   30.4310   34.9844 H   0  0  0  0  0  0  0  0  0  0  0  0
   38.9745   32.9144   37.0886 H   0  0  0  0  0  0  0  0  0  0  0  0
   38.8494   32.2942   35.4205 H   0  0  0  0  0  0  0  0  0  0  0  0
   38.7302   31.9780   40.8669 H   0  0  0  0  0  0  0  0  0  0  0  0
   40.8518   31.0410   41.8151 H   0  0  0  0  0  0  0  0  0  0  0  0
   40.0892   25.3071   43.0464 H   0  0  0  0  0  0  0  0  0  0  0  0
   36.2487   24.1210   41.5125 H   0  0  0  0  0  0  0  0  0  0  0  0
   36.0918   26.5324   42.4340 H   0  0  0  0  0  0  0  0  0  0  0  0
  1 13  1  0
  2  1  1  0
  3  2  1  0
  4  3  2  0
  5  4  1  0
  5 12  2  0
  6  5  1  0
  7  6  2  0
  8  6  1  0
  8  9  1  0
  9 11  2  0
 10  9  1  0
 11 12  1  0
 12  2  1  0
 13 18  1  0
 14 13  2  0
 14 15  1  0
 15 16  2  0
 16 17  1  0
 17 19  1  0
 18 17  2  0
 20 19  1  0
 21 20  2  0
 22 21  1  0
 23 22  2  0
 23 24  1  0
 24 20  1  0
  1 25  1  0
  1 26  1  0
  3 27  1  0
  8 28  1  0
 10 29  1  0
 10 30  1  0
 14 31  1  0
 15 32  1  0
 21 33  1  0
 23 34  1  0
 24 35  1  0
M  ISO  8  25   8  26   8  27  14  28   9  31  14  32  14  33  14  34  14
M  ISO  1  35   9
M  END
>  <minimizedAffinity>  (1) 
-5.88987017

>  <minimizedRMSD>  (1) 
1.45469165

$$$$
