
     RDKit          3D

 44 47  0  0  0  0  0  0  0  0999 V2000
   36.2740   30.7340   41.1470 C   0  0  0  0  0  0  0  0  0  0  0  0
   35.9610   30.1000   39.8740 N   0  0  0  0  0  0  0  0  0  0  0  0
   35.0570   29.1170   39.7150 C   0  0  0  0  0  0  0  0  0  0  0  0
   35.0220   28.7640   38.4040 N   0  0  0  0  0  0  0  0  0  0  0  0
   35.9050   29.5230   37.7230 C   0  0  0  0  0  0  0  0  0  0  0  0
   36.2810   29.5960   36.3900 C   0  0  0  0  0  0  0  0  0  0  0  0
   35.7190   28.8180   35.6000 O   0  0  0  0  0  0  0  0  0  0  0  0
   37.2310   30.5010   36.0220 N   0  0  0  0  0  0  0  0  0  0  0  0
   37.7850   31.3010   36.9440 C   0  0  0  0  0  0  0  0  0  0  0  0
   38.7800   32.2440   36.5390 N   0  0  0  0  0  0  0  0  0  0  0  0
   37.4230   31.2380   38.2490 N   0  0  0  0  0  0  0  0  0  0  0  0
   36.4860   30.3570   38.6600 C   0  0  0  0  0  0  0  0  0  0  0  0
   37.6210   30.3420   41.5600 C   0  0  0  0  0  0  0  0  0  0  0  0
   38.7280   31.1970   41.5840 C   0  0  0  0  0  0  0  0  0  0  0  0
   39.9460   30.7170   41.9920 C   0  0  0  0  0  0  0  0  0  0  0  0
   40.0380   29.3850   42.3700 N   0  0  0  0  0  0  0  0  0  0  0  0
   38.9430   28.5910   42.3320 C   0  0  0  0  0  0  0  0  0  0  0  0
   37.7640   29.0500   41.9390 N   0  0  0  0  0  0  0  0  0  0  0  0
   39.1450   27.2590   42.7360 O   0  0  0  0  0  0  0  0  0  0  0  0
   40.1770   26.5390   42.0740 C   0  0  0  0  0  0  0  0  0  0  0  0
   40.5590   25.3180   42.8890 C   0  0  0  0  0  0  0  0  0  0  0  0
   39.3500   24.4480   43.1080 C   0  0  0  0  0  0  0  0  0  0  0  0
   38.7300   24.0860   41.7750 C   0  0  0  0  0  0  0  0  0  0  0  0
   39.5880   24.5580   40.6350 C   0  0  0  0  0  0  0  0  0  0  0  0
   39.6920   26.0770   40.7270 C   0  0  0  0  0  0  0  0  0  0  0  0
   35.5474   30.4115   41.9073 H   0  0  0  0  0  0  0  0  0  0  0  0
   36.2240   31.8274   41.0379 H   0  0  0  0  0  0  0  0  0  0  0  0
   34.4467   28.6723   40.5148 H   0  0  0  0  0  0  0  0  0  0  0  0
   37.5230   30.5703   35.0367 H   0  0  0  0  0  0  0  0  0  0  0  0
   39.2147   32.8654   37.2360 H   0  0  0  0  0  0  0  0  0  0  0  0
   39.0623   32.3021   35.5501 H   0  0  0  0  0  0  0  0  0  0  0  0
   38.6220   32.2481   41.2774 H   0  0  0  0  0  0  0  0  0  0  0  0
   40.8291   31.3723   42.0190 H   0  0  0  0  0  0  0  0  0  0  0  0
   41.0476   27.2011   41.9565 H   0  0  0  0  0  0  0  0  0  0  0  0
   41.3274   24.7452   42.3491 H   0  0  0  0  0  0  0  0  0  0  0  0
   40.9525   25.6423   43.8636 H   0  0  0  0  0  0  0  0  0  0  0  0
   39.6515   23.5290   43.6320 H   0  0  0  0  0  0  0  0  0  0  0  0
   38.6135   24.9958   43.7142 H   0  0  0  0  0  0  0  0  0  0  0  0
   38.6207   22.9931   41.7142 H   0  0  0  0  0  0  0  0  0  0  0  0
   37.7483   24.5767   41.7008 H   0  0  0  0  0  0  0  0  0  0  0  0
   39.1285   24.2718   39.6774 H   0  0  0  0  0  0  0  0  0  0  0  0
   40.5868   24.1006   40.6910 H   0  0  0  0  0  0  0  0  0  0  0  0
   40.3953   26.4300   39.9584 H   0  0  0  0  0  0  0  0  0  0  0  0
   38.6848   26.4916   40.5733 H   0  0  0  0  0  0  0  0  0  0  0  0
  1 13  1  0
  2  1  1  0
  3  2  1  0
  4  3  2  0
  5  4  1  0
  5 12  2  0
  6  5  1  0
  7  6  2  0
  8  6  1  0
  8  9  1  0
  9 11  2  0
 10  9  1  0
 11 12  1  0
 12  2  1  0
 13 14  2  0
 13 18  1  0
 14 15  1  0
 15 16  2  0
 17 16  1  0
 17 19  1  0
 18 17  2  0
 20 19  1  0
 20 21  1  0
 21 22  1  0
 23 22  1  0
 24 25  1  0
 24 23  1  0
 25 20  1  0
  1 26  1  0
  1 27  1  0
  3 28  1  0
  8 29  1  0
 10 30  1  0
 10 31  1  0
 14 32  1  0
 15 33  1  0
 20 34  1  0
 21 35  1  0
 21 36  1  0
 22 37  1  0
 22 38  1  0
 23 39  1  0
 23 40  1  0
 24 41  1  0
 24 42  1  0
 25 43  1  0
 25 44  1  0
M  ISO  8  26   8  27   8  28  14  29   9  32  14  33  14  34  13  35  13
M  ISO  8  36  13  37  13  38  13  39  13  40  13  41  13  42  13  43  13
M  ISO  1  44  13
M  END
>  <minimizedAffinity>  (1) 
-5.83053637

>  <minimizedRMSD>  (1) 
2.86121988

$$$$
