
     RDKit          3D

 40 42  0  0  0  0  0  0  0  0999 V2000
   36.3380   30.6440   41.1320 C   0  0  0  0  0  0  0  0  0  0  0  0
   35.9750   30.0800   39.8380 N   0  0  0  0  0  0  0  0  0  0  0  0
   35.0270   29.1460   39.6490 C   0  0  0  0  0  0  0  0  0  0  0  0
   34.9520   28.8510   38.3290 N   0  0  0  0  0  0  0  0  0  0  0  0
   35.8550   29.5950   37.6630 C   0  0  0  0  0  0  0  0  0  0  0  0
   36.2150   29.7080   36.3210 C   0  0  0  0  0  0  0  0  0  0  0  0
   35.6030   28.9900   35.5190 O   0  0  0  0  0  0  0  0  0  0  0  0
   37.2050   30.5920   35.9870 N   0  0  0  0  0  0  0  0  0  0  0  0
   37.8130   31.3290   36.9250 C   0  0  0  0  0  0  0  0  0  0  0  0
   38.8390   32.2370   36.5390 N   0  0  0  0  0  0  0  0  0  0  0  0
   37.4660   31.2200   38.2220 N   0  0  0  0  0  0  0  0  0  0  0  0
   36.4970   30.3680   38.6180 C   0  0  0  0  0  0  0  0  0  0  0  0
   37.6820   30.1930   41.4930 C   0  0  0  0  0  0  0  0  0  0  0  0
   38.7190   31.0410   41.8980 C   0  0  0  0  0  0  0  0  0  0  0  0
   39.9510   30.5130   42.2170 C   0  0  0  0  0  0  0  0  0  0  0  0
   40.1130   29.1450   42.1220 N   0  0  0  0  0  0  0  0  0  0  0  0
   39.0750   28.3650   41.7240 C   0  0  0  0  0  0  0  0  0  0  0  0
   37.8880   28.8520   41.4150 N   0  0  0  0  0  0  0  0  0  0  0  0
   39.3530   26.9800   41.6620 O   0  0  0  0  0  0  0  0  0  0  0  0
   38.8020   26.2660   42.7760 C   0  0  0  0  0  0  0  0  0  0  0  0
   37.5150   25.5840   42.3500 C   0  0  0  0  0  0  0  0  0  0  0  0
   39.7170   25.2370   43.3400 C   0  0  0  0  0  0  0  0  0  0  0  0
   38.4030   27.3350   43.7850 C   0  0  0  0  0  0  0  0  0  0  0  0
   35.6199   30.3078   41.8944 H   0  0  0  0  0  0  0  0  0  0  0  0
   36.3195   31.7424   41.0749 H   0  0  0  0  0  0  0  0  0  0  0  0
   34.4106   28.6935   40.4398 H   0  0  0  0  0  0  0  0  0  0  0  0
   37.4860   30.6916   35.0011 H   0  0  0  0  0  0  0  0  0  0  0  0
   39.3145   32.8097   37.2509 H   0  0  0  0  0  0  0  0  0  0  0  0
   39.1059   32.3213   35.5478 H   0  0  0  0  0  0  0  0  0  0  0  0
   38.5510   32.1262   41.9615 H   0  0  0  0  0  0  0  0  0  0  0  0
   40.7799   31.1612   42.5375 H   0  0  0  0  0  0  0  0  0  0  0  0
   36.9468   25.2829   43.2425 H   0  0  0  0  0  0  0  0  0  0  0  0
   36.9121   26.2810   41.7494 H   0  0  0  0  0  0  0  0  0  0  0  0
   37.7532   24.6938   41.7494 H   0  0  0  0  0  0  0  0  0  0  0  0
   39.6813   25.2772   44.4387 H   0  0  0  0  0  0  0  0  0  0  0  0
   39.4019   24.2397   42.9991 H   0  0  0  0  0  0  0  0  0  0  0  0
   40.7442   25.4334   42.9991 H   0  0  0  0  0  0  0  0  0  0  0  0
   38.5472   26.9487   44.8048 H   0  0  0  0  0  0  0  0  0  0  0  0
   39.0283   28.2282   43.6394 H   0  0  0  0  0  0  0  0  0  0  0  0
   37.3454   27.6001   43.6394 H   0  0  0  0  0  0  0  0  0  0  0  0
  1 13  1  0
  2  1  1  0
  3  2  1  0
  4  3  2  0
  5  4  1  0
  5 12  2  0
  6  5  1  0
  7  6  2  0
  8  6  1  0
  8  9  1  0
  9 11  2  0
 10  9  1  0
 11 12  1  0
 12  2  1  0
 13 14  2  0
 14 15  1  0
 16 15  2  0
 17 16  1  0
 18 13  1  0
 18 17  2  0
 19 17  1  0
 19 20  1  0
 20 22  1  0
 20 23  1  0
 21 20  1  0
  1 24  1  0
  1 25  1  0
  3 26  1  0
  8 27  1  0
 10 28  1  0
 10 29  1  0
 14 30  1  0
 15 31  1  0
 21 32  1  0
 21 33  1  0
 21 34  1  0
 22 35  1  0
 22 36  1  0
 22 37  1  0
 23 38  1  0
 23 39  1  0
 23 40  1  0
M  ISO  8  24   8  25   8  26  14  27   9  30  14  31  14  32   8  33   8
M  ISO  7  34   8  35   8  36   8  37   8  38   8  39   8  40   8
M  END
>  <minimizedAffinity>  (1) 
-5.53662014

>  <minimizedRMSD>  (1) 
1.57574701

$$$$
