
     RDKit          3D

 31 33  0  0  0  0  0  0  0  0999 V2000
   35.9610   30.1610   39.9670 N   0  0  0  0  0  0  0  0  0  0  0  0
   35.0600   29.1630   39.8720 C   0  0  0  0  0  0  0  0  0  0  0  0
   34.9950   28.7740   38.5790 N   0  0  0  0  0  0  0  0  0  0  0  0
   35.8360   29.5010   37.8410 C   0  0  0  0  0  0  0  0  0  0  0  0
   36.1830   29.5460   36.4980 C   0  0  0  0  0  0  0  0  0  0  0  0
   35.5960   28.7280   35.7500 O   0  0  0  0  0  0  0  0  0  0  0  0
   37.1050   30.4350   36.0630 N   0  0  0  0  0  0  0  0  0  0  0  0
   37.6870   31.2820   36.9440 C   0  0  0  0  0  0  0  0  0  0  0  0
   38.6580   32.2180   36.4910 N   0  0  0  0  0  0  0  0  0  0  0  0
   37.3620   31.2550   38.2610 N   0  0  0  0  0  0  0  0  0  0  0  0
   36.4500   30.3820   38.7230 C   0  0  0  0  0  0  0  0  0  0  0  0
   36.3010   30.8350   41.2150 C   0  0  0  0  0  0  0  0  0  0  0  0
   37.5520   30.2960   41.7290 C   0  0  0  0  0  0  0  0  0  0  0  0
   38.8140   30.8760   41.5080 C   0  0  0  0  0  0  0  0  0  0  0  0
   39.9380   30.2820   42.0420 C   0  0  0  0  0  0  0  0  0  0  0  0
   39.7730   29.1280   42.7820 N   0  0  0  0  0  0  0  0  0  0  0  0
   38.5320   28.6000   42.9720 C   0  0  0  0  0  0  0  0  0  0  0  0
   37.4530   29.1640   42.4620 N   0  0  0  0  0  0  0  0  0  0  0  0
   38.4700   27.4340   43.7330 O   0  0  0  0  0  0  0  0  0  0  0  0
   39.5630   26.6020   43.9520 C   0  0  0  0  0  0  0  0  0  0  0  0
   34.4780   28.7383   40.7032 H   0  0  0  0  0  0  0  0  0  0  0  0
   37.3629   30.4673   35.0663 H   0  0  0  0  0  0  0  0  0  0  0  0
   39.1022   32.8635   37.1595 H   0  0  0  0  0  0  0  0  0  0  0  0
   38.9167   32.2501   35.4945 H   0  0  0  0  0  0  0  0  0  0  0  0
   36.4140   31.9136   41.0309 H   0  0  0  0  0  0  0  0  0  0  0  0
   35.5001   30.6721   41.9512 H   0  0  0  0  0  0  0  0  0  0  0  0
   38.9038   31.7970   40.9133 H   0  0  0  0  0  0  0  0  0  0  0  0
   40.9367   30.7148   41.8831 H   0  0  0  0  0  0  0  0  0  0  0  0
   39.7212   26.4816   45.0339 H   0  0  0  0  0  0  0  0  0  0  0  0
   39.3721   25.6186   43.4977 H   0  0  0  0  0  0  0  0  0  0  0  0
   40.4601   27.0479   43.4977 H   0  0  0  0  0  0  0  0  0  0  0  0
  1 12  1  0
  2  1  1  0
  3  2  2  0
  4  3  1  0
  4 11  2  0
  5  4  1  0
  6  5  2  0
  7  5  1  0
  7  8  1  0
  8 10  2  0
  9  8  1  0
 10 11  1  0
 11  1  1  0
 12 13  1  0
 13 18  1  0
 14 13  2  0
 14 15  1  0
 15 16  2  0
 16 17  1  0
 17 19  1  0
 18 17  2  0
 19 20  1  0
  2 21  1  0
  7 22  1  0
  9 23  1  0
  9 24  1  0
 12 25  1  0
 12 26  1  0
 14 27  1  0
 15 28  1  0
 20 29  1  0
 20 30  1  0
 20 31  1  0
M  ISO  8  21  14  22   9  25   8  26   8  27  14  28  14  29   8  30   8
M  ISO  1  31   8
M  END
>  <minimizedAffinity>  (1) 
-5.37959146

>  <minimizedRMSD>  (1) 
0.249080211

$$$$
