
     RDKit          3D

 30 32  0  0  0  0  0  0  0  0999 V2000
   38.4280   31.3130   40.9440 C   0  0  0  0  0  0  0  0  0  0  0  0
   39.2840   32.3410   41.2480 C   0  0  0  0  0  0  0  0  0  0  0  0
   39.1110   33.6120   40.7370 C   0  0  0  0  0  0  0  0  0  0  0  0
   38.0440   33.8280   39.9020 C   0  0  0  0  0  0  0  0  0  0  0  0
   37.1640   32.8040   39.5790 C   0  0  0  0  0  0  0  0  0  0  0  0
   37.3750   31.5580   40.1100 C   0  0  0  0  0  0  0  0  0  0  0  0
   39.3400   27.7880   41.4060 C   0  0  0  0  0  0  0  0  0  0  0  0
   38.8420   27.5120   42.6780 C   0  0  0  0  0  0  0  0  0  0  0  0
   38.2080   28.5470   43.3390 C   0  0  0  0  0  0  0  0  0  0  0  0
   38.1040   29.7500   42.7330 N   0  0  0  0  0  0  0  0  0  0  0  0
   38.6050   29.9800   41.4850 C   0  0  0  0  0  0  0  0  0  0  0  0
   39.2150   28.9920   40.8430 N   0  0  0  0  0  0  0  0  0  0  0  0
   36.3830   30.5800   39.6800 C   0  0  0  0  0  0  0  0  0  0  0  0
   36.5210   30.3100   38.3140 C   0  0  0  0  0  0  0  0  0  0  0  0
   35.6670   29.3900   37.6960 C   0  0  0  0  0  0  0  0  0  0  0  0
   34.6880   28.7480   38.4220 C   0  0  0  0  0  0  0  0  0  0  0  0
   34.5730   29.0330   39.7660 C   0  0  0  0  0  0  0  0  0  0  0  0
   35.3890   29.9240   40.4050 C   0  0  0  0  0  0  0  0  0  0  0  0
   40.1337   32.1469   41.9190 H   0  0  0  0  0  0  0  0  0  0  0  0
   39.8065   34.4254   40.9913 H   0  0  0  0  0  0  0  0  0  0  0  0
   37.8828   34.8312   39.4806 H   0  0  0  0  0  0  0  0  0  0  0  0
   36.3120   32.9893   38.9084 H   0  0  0  0  0  0  0  0  0  0  0  0
   39.8517   26.9894   40.8489 H   0  0  0  0  0  0  0  0  0  0  0  0
   38.9485   26.5169   43.1346 H   0  0  0  0  0  0  0  0  0  0  0  0
   37.7932   28.3932   44.3461 H   0  0  0  0  0  0  0  0  0  0  0  0
   37.2992   30.8200   37.7272 H   0  0  0  0  0  0  0  0  0  0  0  0
   35.7782   29.1778   36.6224 H   0  0  0  0  0  0  0  0  0  0  0  0
   34.0135   28.0246   37.9405 H   0  0  0  0  0  0  0  0  0  0  0  0
   33.7920   28.5220   40.3483 H   0  0  0  0  0  0  0  0  0  0  0  0
   35.2629   30.1214   41.4798 H   0  0  0  0  0  0  0  0  0  0  0  0
  1  2  2  0
  1 11  1  0
  3  2  1  0
  4  3  2  0
  5  4  1  0
  5  6  2  0
  6  1  1  0
  7  8  2  0
  8  9  1  0
 10  9  2  0
 11 10  1  0
 12  7  1  0
 12 11  2  0
 13  6  1  0
 13 18  1  0
 14 13  2  0
 15 14  1  0
 15 16  2  0
 16 17  1  0
 17 18  2  0
  2 19  1  0
  3 20  1  0
  4 21  1  0
  5 22  1  0
  7 23  1  0
  8 24  1  0
  9 25  1  0
 14 26  1  0
 15 27  1  0
 16 28  1  0
 17 29  1  0
 18 30  1  0
M  ISO  8  19  14  20  14  21  14  22  14  23  14  24  14  25  14  26  14
M  ISO  4  27  14  28  14  29  14  30  14
M  END
>  <minimizedAffinity>  (1) 
-5.50391722

>  <minimizedRMSD>  (1) 
4.62912941

$$$$
