
     RDKit          3D

 36 39  0  0  0  0  0  0  0  0999 V2000
   37.9190   29.2980   39.4440 C   0  0  0  0  0  0  0  0  0  0  0  0
   37.6380   30.6320   39.2800 C   0  0  0  0  0  0  0  0  0  0  0  0
   36.7670   31.3290   40.0680 C   0  0  0  0  0  0  0  0  0  0  0  0
   36.1520   30.6380   41.0730 C   0  0  0  0  0  0  0  0  0  0  0  0
   36.4080   29.2850   41.2740 C   0  0  0  0  0  0  0  0  0  0  0  0
   37.2930   28.6260   40.4540 C   0  0  0  0  0  0  0  0  0  0  0  0
   37.4130   27.2200   40.8090 C   0  0  0  0  0  0  0  0  0  0  0  0
   36.7050   26.1620   40.2630 C   0  0  0  0  0  0  0  0  0  0  0  0
   36.9220   24.8750   40.7060 C   0  0  0  0  0  0  0  0  0  0  0  0
   37.8340   24.5660   41.6980 C   0  0  0  0  0  0  0  0  0  0  0  0
   38.5490   25.6220   42.2520 C   0  0  0  0  0  0  0  0  0  0  0  0
   39.4680   25.3190   43.2490 C   0  0  0  0  0  0  0  0  0  0  0  0
   40.2010   26.3320   43.8280 C   0  0  0  0  0  0  0  0  0  0  0  0
   40.0230   27.6380   43.4210 C   0  0  0  0  0  0  0  0  0  0  0  0
   39.0940   27.8650   42.4280 C   0  0  0  0  0  0  0  0  0  0  0  0
   38.3240   26.9120   41.7990 C   0  0  0  0  0  0  0  0  0  0  0  0
   40.9620   27.7230   38.0920 C   0  0  0  0  0  0  0  0  0  0  0  0
   40.4780   27.1940   36.8990 C   0  0  0  0  0  0  0  0  0  0  0  0
   39.1340   27.3790   36.5800 C   0  0  0  0  0  0  0  0  0  0  0  0
   38.3570   28.0650   37.4410 N   0  0  0  0  0  0  0  0  0  0  0  0
   38.8630   28.5720   38.6040 C   0  0  0  0  0  0  0  0  0  0  0  0
   40.1420   28.3900   38.8990 N   0  0  0  0  0  0  0  0  0  0  0  0
   38.1443   31.1712   38.4658 H   0  0  0  0  0  0  0  0  0  0  0  0
   36.5697   32.3982   39.9009 H   0  0  0  0  0  0  0  0  0  0  0  0
   35.4434   31.1590   41.7337 H   0  0  0  0  0  0  0  0  0  0  0  0
   35.9031   28.7437   42.0877 H   0  0  0  0  0  0  0  0  0  0  0  0
   35.9651   26.3501   39.4711 H   0  0  0  0  0  0  0  0  0  0  0  0
   36.3440   24.0576   40.2501 H   0  0  0  0  0  0  0  0  0  0  0  0
   37.9873   23.5300   42.0343 H   0  0  0  0  0  0  0  0  0  0  0  0
   39.6095   24.2776   43.5739 H   0  0  0  0  0  0  0  0  0  0  0  0
   40.9306   26.0985   44.6174 H   0  0  0  0  0  0  0  0  0  0  0  0
   40.5972   28.4623   43.8692 H   0  0  0  0  0  0  0  0  0  0  0  0
   38.9543   28.9078   42.1071 H   0  0  0  0  0  0  0  0  0  0  0  0
   42.0189   27.5898   38.3663 H   0  0  0  0  0  0  0  0  0  0  0  0
   41.1438   26.6403   36.2207 H   0  0  0  0  0  0  0  0  0  0  0  0
   38.7168   26.9740   35.6462 H   0  0  0  0  0  0  0  0  0  0  0  0
  1  6  1  0
  2  1  2  0
  2  3  1  0
  3  4  2  0
  4  5  1  0
  6  7  1  0
  6  5  2  0
  7 16  2  0
  8  9  2  0
  8  7  1  0
  9 10  1  0
 10 11  2  0
 11 12  1  0
 12 13  2  0
 14 13  1  0
 15 14  2  0
 16 11  1  0
 16 15  1  0
 17 22  2  0
 18 17  1  0
 19 18  2  0
 19 20  1  0
 20 21  2  0
 21 22  1  0
 21  1  1  0
  2 23  1  0
  3 24  1  0
  4 25  1  0
  5 26  1  0
  8 27  1  0
  9 28  1  0
 10 29  1  0
 12 30  1  0
 13 31  1  0
 14 32  1  0
 15 33  1  0
 17 34  1  0
 18 35  1  0
 19 36  1  0
M  ISO  8  23  14  24  14  25  14  26  14  27  14  28  14  29  14  30  14
M  ISO  6  31  14  32  14  33  14  34  14  35  14  36  14
M  END
>  <minimizedAffinity>  (1) 
-5.48987913

>  <minimizedRMSD>  (1) 
4.91291189

$$$$
