
     RDKit          3D

 35 37  0  0  0  0  0  0  0  0999 V2000
   36.8410   25.9290   40.6780 C   0  0  0  0  0  0  0  0  0  0  0  0
   36.4850   26.1890   39.3610 C   0  0  0  0  0  0  0  0  0  0  0  0
   36.2330   24.9620   38.8270 C   0  0  0  0  0  0  0  0  0  0  0  0
   36.4200   23.9850   39.7590 N   0  0  0  0  0  0  0  0  0  0  0  0
   36.7950   24.5850   40.8990 N   0  0  0  0  0  0  0  0  0  0  0  0
   37.9210   26.6910   42.8190 C   0  0  0  0  0  0  0  0  0  0  0  0
   37.1990   26.9560   41.6450 C   0  0  0  0  0  0  0  0  0  0  0  0
   36.7850   28.2770   41.3670 C   0  0  0  0  0  0  0  0  0  0  0  0
   37.1300   29.2410   42.2960 N   0  0  0  0  0  0  0  0  0  0  0  0
   37.8340   28.9190   43.4210 C   0  0  0  0  0  0  0  0  0  0  0  0
   38.2300   27.6420   43.6800 N   0  0  0  0  0  0  0  0  0  0  0  0
   36.2190   22.5960   39.4520 C   0  0  0  0  0  0  0  0  0  0  0  0
   37.3940   21.9450   38.9330 N   0  0  0  0  0  0  0  0  0  0  0  0
   38.2220   21.4750   40.0250 C   0  0  0  0  0  0  0  0  0  0  0  0
   37.9630   20.0080   40.2690 C   0  0  0  0  0  0  0  0  0  0  0  0
   38.5780   19.2430   39.1010 C   0  0  0  0  0  0  0  0  0  0  0  0
   38.1250   19.8940   37.8110 C   0  0  0  0  0  0  0  0  0  0  0  0
   36.9700   20.8520   38.0800 C   0  0  0  0  0  0  0  0  0  0  0  0
   36.4210   27.1669   38.8613 H   0  0  0  0  0  0  0  0  0  0  0  0
   35.9215   24.7838   37.7872 H   0  0  0  0  0  0  0  0  0  0  0  0
   38.2390   25.6589   43.0278 H   0  0  0  0  0  0  0  0  0  0  0  0
   36.2174   28.5262   40.4583 H   0  0  0  0  0  0  0  0  0  0  0  0
   38.0883   29.7134   44.1381 H   0  0  0  0  0  0  0  0  0  0  0  0
   35.9117   22.0773   40.3721 H   0  0  0  0  0  0  0  0  0  0  0  0
   35.4495   22.5468   38.6675 H   0  0  0  0  0  0  0  0  0  0  0  0
   39.2817   21.6210   39.7687 H   0  0  0  0  0  0  0  0  0  0  0  0
   37.9790   22.0428   40.9352 H   0  0  0  0  0  0  0  0  0  0  0  0
   38.4311   19.6943   41.2137 H   0  0  0  0  0  0  0  0  0  0  0  0
   36.8838   19.8082   40.3428 H   0  0  0  0  0  0  0  0  0  0  0  0
   39.6752   19.2792   39.1699 H   0  0  0  0  0  0  0  0  0  0  0  0
   38.2560   18.1915   39.1268 H   0  0  0  0  0  0  0  0  0  0  0  0
   37.7945   19.1153   37.1079 H   0  0  0  0  0  0  0  0  0  0  0  0
   38.9653   20.4581   37.3801 H   0  0  0  0  0  0  0  0  0  0  0  0
   36.6099   21.2598   37.1240 H   0  0  0  0  0  0  0  0  0  0  0  0
   36.1660   20.3000   38.5887 H   0  0  0  0  0  0  0  0  0  0  0  0
  1  5  2  0
  1  7  1  0
  2  1  1  0
  3  2  2  0
  3  4  1  0
  4  5  1  0
  6 11  2  0
  7  6  1  0
  8  7  2  0
  8  9  1  0
  9 10  2  0
 10 11  1  0
 12  4  1  0
 13 12  1  0
 13 14  1  0
 14 15  1  0
 16 15  1  0
 17 18  1  0
 17 16  1  0
 18 13  1  0
  2 19  1  0
  3 20  1  0
  6 21  1  0
  8 22  1  0
 10 23  1  0
 12 24  1  0
 12 25  1  0
 14 26  1  0
 14 27  1  0
 15 28  1  0
 15 29  1  0
 16 30  1  0
 16 31  1  0
 17 32  1  0
 17 33  1  0
 18 34  1  0
 18 35  1  0
M  ISO  8  19  14  20  14  21  14  22  14  23  14  24   8  25   8  26  13
M  ISO  8  27  13  28  13  29  13  30  13  31  13  32  13  33  13  34  13
M  ISO  1  35  13
M  END
>  <minimizedAffinity>  (1) 
-3.66217542

>  <minimizedRMSD>  (1) 
2.30551457

$$$$
