
     RDKit          3D

 33 35  0  0  0  0  0  0  0  0999 V2000
   39.0520   33.0390   40.4230 C   0  0  0  0  0  0  0  0  0  0  0  0
   38.7590   34.3180   40.8930 C   0  0  0  0  0  0  0  0  0  0  0  0
   39.5090   35.3990   40.5010 C   0  0  0  0  0  0  0  0  0  0  0  0
   40.5540   35.2070   39.6390 C   0  0  0  0  0  0  0  0  0  0  0  0
   40.8480   33.9510   39.1730 C   0  0  0  0  0  0  0  0  0  0  0  0
   40.1000   32.8700   39.5640 C   0  0  0  0  0  0  0  0  0  0  0  0
   40.4970   31.6110   39.0170 N   0  0  0  0  0  0  0  0  0  0  0  0
   41.4300   30.7540   39.4670 C   0  0  0  0  0  0  0  0  0  0  0  0
   41.6550   29.5790   38.7740 C   0  0  0  0  0  0  0  0  0  0  0  0
   42.7020   28.6860   39.3350 C   0  0  0  0  0  0  0  0  0  0  0  0
   40.9410   29.2760   37.6360 C   0  0  0  0  0  0  0  0  0  0  0  0
   41.1630   28.2060   37.0250 O   0  0  0  0  0  0  0  0  0  0  0  0
   40.0050   30.1770   37.2180 N   0  0  0  0  0  0  0  0  0  0  0  0
   39.7910   31.3200   37.8990 C   0  0  0  0  0  0  0  0  0  0  0  0
   38.8920   32.0100   37.3520 O   0  0  0  0  0  0  0  0  0  0  0  0
   37.9380   29.8860   41.9720 C   0  0  0  0  0  0  0  0  0  0  0  0
   36.6530   29.7490   41.4420 C   0  0  0  0  0  0  0  0  0  0  0  0
   36.2050   30.7310   40.5770 C   0  0  0  0  0  0  0  0  0  0  0  0
   37.0230   31.7700   40.2840 N   0  0  0  0  0  0  0  0  0  0  0  0
   38.2740   31.8700   40.8210 C   0  0  0  0  0  0  0  0  0  0  0  0
   38.7220   30.9390   41.6540 N   0  0  0  0  0  0  0  0  0  0  0  0
   37.9171   34.4629   41.5860 H   0  0  0  0  0  0  0  0  0  0  0  0
   39.2729   36.4062   40.8750 H   0  0  0  0  0  0  0  0  0  0  0  0
   41.1622   36.0654   39.3177 H   0  0  0  0  0  0  0  0  0  0  0  0
   41.6905   33.8095   38.4801 H   0  0  0  0  0  0  0  0  0  0  0  0
   42.0069   30.9847   40.3748 H   0  0  0  0  0  0  0  0  0  0  0  0
   42.6625   28.7197   40.4338 H   0  0  0  0  0  0  0  0  0  0  0  0
   42.5264   27.6553   38.9932 H   0  0  0  0  0  0  0  0  0  0  0  0
   43.6921   29.0220   38.9932 H   0  0  0  0  0  0  0  0  0  0  0  0
   39.4544   29.9806   36.3700 H   0  0  0  0  0  0  0  0  0  0  0  0
   38.3197   29.1200   42.6631 H   0  0  0  0  0  0  0  0  0  0  0  0
   36.0187   28.8892   41.7037 H   0  0  0  0  0  0  0  0  0  0  0  0
   35.2001   30.6691   40.1340 H   0  0  0  0  0  0  0  0  0  0  0  0
  1 20  1  0
  1  2  2  0
  3  2  1  0
  4  3  2  0
  5  6  2  0
  5  4  1  0
  6  1  1  0
  7  8  1  0
  7  6  1  0
  9 10  1  0
  9  8  2  0
 11  9  1  0
 12 11  2  0
 13 11  1  0
 13 14  1  0
 14  7  1  0
 15 14  2  0
 17 16  2  0
 18 17  1  0
 19 18  2  0
 19 20  1  0
 20 21  2  0
 21 16  1  0
  2 22  1  0
  3 23  1  0
  4 24  1  0
  5 25  1  0
  8 26  1  0
 10 27  1  0
 10 28  1  0
 10 29  1  0
 13 30  1  0
 16 31  1  0
 17 32  1  0
 18 33  1  0
M  ISO  8  22  14  23  14  24  14  25  14  26  14  27   8  28   8  29   8
M  ISO  4  30   9  31  14  32  14  33  14
M  END
>  <minimizedAffinity>  (1) 
-5.05692101

>  <minimizedRMSD>  (1) 
4.05131006

$$$$
