
     RDKit          3D

 26 28  0  0  0  0  0  0  0  0999 V2000
   37.3440   31.8210   39.9790 C   0  0  0  0  0  0  0  0  0  0  0  0
   37.1880   33.1160   39.5440 C   0  0  0  0  0  0  0  0  0  0  0  0
   38.0350   34.1320   39.9140 C   0  0  0  0  0  0  0  0  0  0  0  0
   39.0750   33.8130   40.7570 C   0  0  0  0  0  0  0  0  0  0  0  0
   39.2610   32.5120   41.2150 C   0  0  0  0  0  0  0  0  0  0  0  0
   38.3870   31.5340   40.8160 C   0  0  0  0  0  0  0  0  0  0  0  0
   34.8090   29.1800   39.9370 C   0  0  0  0  0  0  0  0  0  0  0  0
   34.8460   28.7540   38.6130 C   0  0  0  0  0  0  0  0  0  0  0  0
   35.7380   29.3820   37.7660 C   0  0  0  0  0  0  0  0  0  0  0  0
   36.5120   30.3630   38.2780 N   0  0  0  0  0  0  0  0  0  0  0  0
   36.4510   30.7550   39.5770 C   0  0  0  0  0  0  0  0  0  0  0  0
   35.5960   30.1560   40.3950 N   0  0  0  0  0  0  0  0  0  0  0  0
   38.7140   30.2320   41.3970 C   0  0  0  0  0  0  0  0  0  0  0  0
   39.5120   29.3430   40.7320 C   0  0  0  0  0  0  0  0  0  0  0  0
   39.6150   27.9180   41.8510 S   0  0  0  0  0  0  0  0  0  0  0  0
   38.4900   28.8150   43.1130 C   0  0  0  0  0  0  0  0  0  0  0  0
   38.2950   29.7980   42.5710 N   0  0  0  0  0  0  0  0  0  0  0  0
   36.3493   33.3482   38.8712 H   0  0  0  0  0  0  0  0  0  0  0  0
   37.8879   35.1599   39.5509 H   0  0  0  0  0  0  0  0  0  0  0  0
   39.7728   34.6016   41.0750 H   0  0  0  0  0  0  0  0  0  0  0  0
   40.0975   32.2718   41.8877 H   0  0  0  0  0  0  0  0  0  0  0  0
   34.1064   28.6954   40.6308 H   0  0  0  0  0  0  0  0  0  0  0  0
   34.1896   27.9475   38.2544 H   0  0  0  0  0  0  0  0  0  0  0  0
   35.8155   29.0922   36.7077 H   0  0  0  0  0  0  0  0  0  0  0  0
   39.9833   29.4638   39.7454 H   0  0  0  0  0  0  0  0  0  0  0  0
   38.1296   28.4741   44.0948 H   0  0  0  0  0  0  0  0  0  0  0  0
  1  6  2  0
  2  3  2  0
  2  1  1  0
  3  4  1  0
  4  5  2  0
  6  5  1  0
  6 13  1  0
  7 12  2  0
  8  7  1  0
  9 10  1  0
  9  8  2  0
 10 11  2  0
 11  1  1  0
 11 12  1  0
 13 17  1  0
 14 13  2  0
 14 15  1  0
 15 16  1  0
 17 16  2  0
  2 18  1  0
  3 19  1  0
  4 20  1  0
  5 21  1  0
  7 22  1  0
  8 23  1  0
  9 24  1  0
 14 25  1  0
 16 26  1  0
M  ISO  8  18  14  19  14  20  14  21  14  22  14  23  14  24  14  25  14
M  ISO  1  26  14
M  END
>  <minimizedAffinity>  (1) 
-4.81090736

>  <minimizedRMSD>  (1) 
2.96052885

$$$$
