
     RDKit          3D

 32 34  0  0  0  0  0  0  0  0999 V2000
   38.3170   31.1350   41.0160 C   0  0  0  0  0  0  0  0  0  0  0  0
   39.1730   32.1670   41.3280 C   0  0  0  0  0  0  0  0  0  0  0  0
   39.0230   33.4230   40.7560 C   0  0  0  0  0  0  0  0  0  0  0  0
   37.9850   33.5930   39.8670 C   0  0  0  0  0  0  0  0  0  0  0  0
   37.1160   32.5850   39.5370 C   0  0  0  0  0  0  0  0  0  0  0  0
   37.3090   31.3660   40.1290 C   0  0  0  0  0  0  0  0  0  0  0  0
   39.2990   27.6530   41.6090 C   0  0  0  0  0  0  0  0  0  0  0  0
   38.6720   27.3840   42.8470 C   0  0  0  0  0  0  0  0  0  0  0  0
   37.9280   28.4070   43.4450 C   0  0  0  0  0  0  0  0  0  0  0  0
   37.8480   29.6010   42.8050 N   0  0  0  0  0  0  0  0  0  0  0  0
   38.4660   29.8240   41.6120 C   0  0  0  0  0  0  0  0  0  0  0  0
   39.1690   28.8580   41.0450 N   0  0  0  0  0  0  0  0  0  0  0  0
   36.3300   30.4050   39.6750 N   0  0  0  0  0  0  0  0  0  0  0  0
   35.2660   29.5870   40.1800 C   0  0  0  0  0  0  0  0  0  0  0  0
   35.7170   28.1930   39.7100 C   0  0  0  0  0  0  0  0  0  0  0  0
   35.9760   28.5130   38.2550 C   0  0  0  0  0  0  0  0  0  0  0  0
   36.1930   29.9860   38.2840 C   0  0  0  0  0  0  0  0  0  0  0  0
   39.9904   31.9933   42.0433 H   0  0  0  0  0  0  0  0  0  0  0  0
   39.7058   34.2493   41.0029 H   0  0  0  0  0  0  0  0  0  0  0  0
   37.8471   34.5801   39.4016 H   0  0  0  0  0  0  0  0  0  0  0  0
   36.2950   32.7497   38.8237 H   0  0  0  0  0  0  0  0  0  0  0  0
   39.8927   26.8724   41.1107 H   0  0  0  0  0  0  0  0  0  0  0  0
   38.7663   26.3985   43.3266 H   0  0  0  0  0  0  0  0  0  0  0  0
   37.4214   28.2477   44.4083 H   0  0  0  0  0  0  0  0  0  0  0  0
   35.2004   29.6416   41.2767 H   0  0  0  0  0  0  0  0  0  0  0  0
   34.2647   29.8804   39.8317 H   0  0  0  0  0  0  0  0  0  0  0  0
   36.6274   27.8566   40.2277 H   0  0  0  0  0  0  0  0  0  0  0  0
   35.0058   27.3750   39.8975 H   0  0  0  0  0  0  0  0  0  0  0  0
   35.1098   28.2508   37.6298 H   0  0  0  0  0  0  0  0  0  0  0  0
   36.8201   27.9532   37.8259 H   0  0  0  0  0  0  0  0  0  0  0  0
   37.1086   30.2375   37.7285 H   0  0  0  0  0  0  0  0  0  0  0  0
   35.3417   30.5023   37.8163 H   0  0  0  0  0  0  0  0  0  0  0  0
  1  2  2  0
  1 11  1  0
  3  2  1  0
  4  3  2  0
  5  4  1  0
  5  6  2  0
  6  1  1  0
  7  8  2  0
  8  9  1  0
 10  9  2  0
 11 10  1  0
 12  7  1  0
 12 11  2  0
 13  6  1  0
 13 14  1  0
 15 14  1  0
 16 17  1  0
 16 15  1  0
 17 13  1  0
  2 18  1  0
  3 19  1  0
  4 20  1  0
  5 21  1  0
  7 22  1  0
  8 23  1  0
  9 24  1  0
 14 25  1  0
 14 26  1  0
 15 27  1  0
 15 28  1  0
 16 29  1  0
 16 30  1  0
 17 31  1  0
 17 32  1  0
M  ISO  8  18  14  19  14  20  14  21  14  22  14  23  14  24  14  25  13
M  ISO  7  26  13  27  13  28  13  29  13  30  13  31  13  32  13
M  END
>  <minimizedAffinity>  (1) 
-4.65906382

>  <minimizedRMSD>  (1) 
3.9987874

$$$$
