
     RDKit          3D

 34 36  0  0  0  0  0  0  0  0999 V2000
   36.8710   25.9770   40.6660 C   0  0  0  0  0  0  0  0  0  0  0  0
   36.5180   26.2740   39.3490 C   0  0  0  0  0  0  0  0  0  0  0  0
   36.2320   25.0690   38.7840 C   0  0  0  0  0  0  0  0  0  0  0  0
   36.4020   24.0760   39.7170 N   0  0  0  0  0  0  0  0  0  0  0  0
   36.7960   24.6340   40.8800 N   0  0  0  0  0  0  0  0  0  0  0  0
   38.0400   26.7620   42.7340 C   0  0  0  0  0  0  0  0  0  0  0  0
   37.2500   26.9900   41.6210 C   0  0  0  0  0  0  0  0  0  0  0  0
   36.7910   28.3090   41.4190 C   0  0  0  0  0  0  0  0  0  0  0  0
   37.1480   29.2810   42.3250 N   0  0  0  0  0  0  0  0  0  0  0  0
   37.9420   28.9620   43.4110 C   0  0  0  0  0  0  0  0  0  0  0  0
   38.3910   27.6770   43.6120 N   0  0  0  0  0  0  0  0  0  0  0  0
   36.1740   22.6760   39.4290 C   0  0  0  0  0  0  0  0  0  0  0  0
   37.3580   21.9810   39.0360 N   0  0  0  0  0  0  0  0  0  0  0  0
   36.9770   21.0280   38.0130 C   0  0  0  0  0  0  0  0  0  0  0  0
   38.0450   19.9840   37.8490 C   0  0  0  0  0  0  0  0  0  0  0  0
   38.1010   19.1890   39.0470 N   0  0  0  0  0  0  0  0  0  0  0  0
   37.9890   19.9380   40.2660 C   0  0  0  0  0  0  0  0  0  0  0  0
   38.1340   21.4240   40.0820 C   0  0  0  0  0  0  0  0  0  0  0  0
   36.4793   27.2645   38.8721 H   0  0  0  0  0  0  0  0  0  0  0  0
   35.9142   24.9148   37.7423 H   0  0  0  0  0  0  0  0  0  0  0  0
   38.4026   25.7364   42.8974 H   0  0  0  0  0  0  0  0  0  0  0  0
   36.1593   28.5556   40.5529 H   0  0  0  0  0  0  0  0  0  0  0  0
   38.2197   29.7495   44.1271 H   0  0  0  0  0  0  0  0  0  0  0  0
   35.7700   22.1949   40.3319 H   0  0  0  0  0  0  0  0  0  0  0  0
   35.4713   22.6270   38.5841 H   0  0  0  0  0  0  0  0  0  0  0  0
   36.0348   20.5406   38.3040 H   0  0  0  0  0  0  0  0  0  0  0  0
   36.8472   21.5600   37.0590 H   0  0  0  0  0  0  0  0  0  0  0  0
   37.8053   19.3412   36.9891 H   0  0  0  0  0  0  0  0  0  0  0  0
   39.0176   20.4671   37.6741 H   0  0  0  0  0  0  0  0  0  0  0  0
   37.3295   18.5072   39.0167 H   0  0  0  0  0  0  0  0  0  0  0  0
   37.0010   19.7380   40.7062 H   0  0  0  0  0  0  0  0  0  0  0  0
   38.8140   19.6142   40.9175 H   0  0  0  0  0  0  0  0  0  0  0  0
   39.1922   21.6392   39.8724 H   0  0  0  0  0  0  0  0  0  0  0  0
   37.7678   21.8838   41.0118 H   0  0  0  0  0  0  0  0  0  0  0  0
  1  5  2  0
  1  7  1  0
  2  1  1  0
  3  2  2  0
  3  4  1  0
  4  5  1  0
  6 11  2  0
  7  6  1  0
  8  7  2  0
  8  9  1  0
  9 10  2  0
 10 11  1  0
 12  4  1  0
 13 12  1  0
 13 18  1  0
 14 13  1  0
 15 14  1  0
 15 16  1  0
 16 17  1  0
 18 17  1  0
  2 19  1  0
  3 20  1  0
  6 21  1  0
  8 22  1  0
 10 23  1  0
 12 24  1  0
 12 25  1  0
 14 26  1  0
 14 27  1  0
 15 28  1  0
 15 29  1  0
 16 30  1  0
 17 31  1  0
 17 32  1  0
 18 33  1  0
 18 34  1  0
M  ISO  8  19  14  20  14  21  14  22  14  23  14  24   8  25   8  26  13
M  ISO  8  27  13  28  13  29  13  30   5  31  13  32  13  33  13  34  13
M  END
>  <minimizedAffinity>  (1) 
-3.57161808

>  <minimizedRMSD>  (1) 
2.3066628

$$$$
