
     RDKit          3D

 27 29  0  0  0  0  0  0  0  0999 V2000
   37.8400   30.6530   41.1380 C   0  0  0  0  0  0  0  0  0  0  0  0
   36.8320   31.4160   40.5860 C   0  0  0  0  0  0  0  0  0  0  0  0
   37.1050   32.6260   39.9890 C   0  0  0  0  0  0  0  0  0  0  0  0
   38.4000   33.0640   39.9480 C   0  0  0  0  0  0  0  0  0  0  0  0
   39.4110   32.3150   40.4930 C   0  0  0  0  0  0  0  0  0  0  0  0
   39.1260   31.1120   41.0850 C   0  0  0  0  0  0  0  0  0  0  0  0
   37.2610   28.0120   43.6290 C   0  0  0  0  0  0  0  0  0  0  0  0
   37.0300   26.8970   42.8240 C   0  0  0  0  0  0  0  0  0  0  0  0
   37.0790   27.0790   41.4590 C   0  0  0  0  0  0  0  0  0  0  0  0
   37.3470   28.3150   40.9680 N   0  0  0  0  0  0  0  0  0  0  0  0
   37.5660   29.3760   41.7800 C   0  0  0  0  0  0  0  0  0  0  0  0
   37.5240   29.2250   43.1140 N   0  0  0  0  0  0  0  0  0  0  0  0
   40.2840   30.4020   41.6200 C   0  0  0  0  0  0  0  0  0  0  0  0
   41.0070   30.9730   42.6750 C   0  0  0  0  0  0  0  0  0  0  0  0
   42.0470   30.1320   43.0060 C   0  0  0  0  0  0  0  0  0  0  0  0
   41.9030   29.0630   42.1160 C   0  0  0  0  0  0  0  0  0  0  0  0
   40.8790   29.2830   41.3550 O   0  0  0  0  0  0  0  0  0  0  0  0
   35.7946   31.0521   40.6234 H   0  0  0  0  0  0  0  0  0  0  0  0
   36.2958   33.2300   39.5526 H   0  0  0  0  0  0  0  0  0  0  0  0
   38.6331   34.0281   39.4724 H   0  0  0  0  0  0  0  0  0  0  0  0
   40.4484   32.6787   40.4552 H   0  0  0  0  0  0  0  0  0  0  0  0
   37.2268   27.8947   44.7222 H   0  0  0  0  0  0  0  0  0  0  0  0
   36.8170   25.9106   43.2616 H   0  0  0  0  0  0  0  0  0  0  0  0
   36.9033   26.2340   40.7770 H   0  0  0  0  0  0  0  0  0  0  0  0
   40.7816   31.9345   43.1595 H   0  0  0  0  0  0  0  0  0  0  0  0
   42.8103   30.2691   43.7861 H   0  0  0  0  0  0  0  0  0  0  0  0
   42.5546   28.1780   42.0699 H   0  0  0  0  0  0  0  0  0  0  0  0
  1 11  1  0
  2  1  2  0
  3  2  1  0
  4  3  2  0
  4  5  1  0
  5  6  2  0
  6  1  1  0
  6 13  1  0
  8  7  2  0
  9  8  1  0
 10  9  2  0
 10 11  1  0
 11 12  2  0
 12  7  1  0
 13 14  2  0
 14 15  1  0
 16 15  2  0
 17 13  1  0
 17 16  1  0
  2 18  1  0
  3 19  1  0
  4 20  1  0
  5 21  1  0
  7 22  1  0
  8 23  1  0
  9 24  1  0
 14 25  1  0
 15 26  1  0
 16 27  1  0
M  ISO  8  18  14  19  14  20  14  21  14  22  14  23  14  24  14  25  14
M  ISO  2  26  14  27  14
M  END
>  <minimizedAffinity>  (1) 
-4.47165012

>  <minimizedRMSD>  (1) 
1.22793663

$$$$
