
     RDKit          3D

 27 29  0  0  0  0  0  0  0  0999 V2000
   37.8560   30.6470   41.1420 C   0  0  0  0  0  0  0  0  0  0  0  0
   36.8130   31.3870   40.5860 C   0  0  0  0  0  0  0  0  0  0  0  0
   37.0450   32.5880   39.9520 C   0  0  0  0  0  0  0  0  0  0  0  0
   38.3590   33.0310   39.8880 C   0  0  0  0  0  0  0  0  0  0  0  0
   39.3970   32.3170   40.4280 C   0  0  0  0  0  0  0  0  0  0  0  0
   39.1500   31.1250   41.0550 C   0  0  0  0  0  0  0  0  0  0  0  0
   37.3570   28.0940   43.7190 C   0  0  0  0  0  0  0  0  0  0  0  0
   37.0690   26.9540   42.9360 C   0  0  0  0  0  0  0  0  0  0  0  0
   37.0530   27.0840   41.5600 C   0  0  0  0  0  0  0  0  0  0  0  0
   37.3160   28.3050   41.0510 N   0  0  0  0  0  0  0  0  0  0  0  0
   37.5890   29.3810   41.8080 C   0  0  0  0  0  0  0  0  0  0  0  0
   37.6110   29.2840   43.1530 N   0  0  0  0  0  0  0  0  0  0  0  0
   40.2640   30.4250   41.5970 N   0  0  0  0  0  0  0  0  0  0  0  0
   40.8470   31.0350   42.6380 N   0  0  0  0  0  0  0  0  0  0  0  0
   41.8840   30.2940   43.0730 C   0  0  0  0  0  0  0  0  0  0  0  0
   41.9630   29.1530   42.2670 C   0  0  0  0  0  0  0  0  0  0  0  0
   40.9310   29.2810   41.3610 C   0  0  0  0  0  0  0  0  0  0  0  0
   35.7841   31.0041   40.6550 H   0  0  0  0  0  0  0  0  0  0  0  0
   36.2222   33.1722   39.5142 H   0  0  0  0  0  0  0  0  0  0  0  0
   38.5743   33.9865   39.3874 H   0  0  0  0  0  0  0  0  0  0  0  0
   40.4256   32.7005   40.3579 H   0  0  0  0  0  0  0  0  0  0  0  0
   37.3734   28.0044   44.8152 H   0  0  0  0  0  0  0  0  0  0  0  0
   36.8619   25.9838   43.4111 H   0  0  0  0  0  0  0  0  0  0  0  0
   36.8346   26.2265   40.9066 H   0  0  0  0  0  0  0  0  0  0  0  0
   42.5503   30.5417   43.9125 H   0  0  0  0  0  0  0  0  0  0  0  0
   42.6908   28.3315   42.3401 H   0  0  0  0  0  0  0  0  0  0  0  0
   40.6903   28.5585   40.5673 H   0  0  0  0  0  0  0  0  0  0  0  0
  1 11  1  0
  2  1  2  0
  3  2  1  0
  4  3  2  0
  4  5  1  0
  5  6  2  0
  6  1  1  0
  6 13  1  0
  8  7  2  0
  9  8  1  0
 10  9  2  0
 10 11  1  0
 11 12  2  0
 12  7  1  0
 13 14  1  0
 14 15  2  0
 16 15  1  0
 17 13  1  0
 17 16  2  0
  2 18  1  0
  3 19  1  0
  4 20  1  0
  5 21  1  0
  7 22  1  0
  8 23  1  0
  9 24  1  0
 15 25  1  0
 16 26  1  0
 17 27  1  0
M  ISO  8  18  14  19  14  20  14  21  14  22  14  23  14  24  14  25  14
M  ISO  2  26  14  27  14
M  END
>  <minimizedAffinity>  (1) 
-4.29706669

>  <minimizedRMSD>  (1) 
1.11935234

$$$$
