
     RDKit          3D

 21 22  0  0  0  0  0  0  0  0999 V2000
   38.2660   31.5010   38.4050 C   0  0  0  0  0  0  0  0  0  0  0  0
   37.1710   32.1940   38.9280 C   0  0  0  0  0  0  0  0  0  0  0  0
   37.7570   33.1930   39.6700 C   0  0  0  0  0  0  0  0  0  0  0  0
   39.1050   33.1130   39.6050 N   0  0  0  0  0  0  0  0  0  0  0  0
   39.4060   32.0770   38.8300 N   0  0  0  0  0  0  0  0  0  0  0  0
   39.0340   29.2940   37.5070 C   0  0  0  0  0  0  0  0  0  0  0  0
   38.1050   30.3440   37.5410 C   0  0  0  0  0  0  0  0  0  0  0  0
   36.9870   30.2590   36.7070 C   0  0  0  0  0  0  0  0  0  0  0  0
   36.8430   29.1670   35.8980 N   0  0  0  0  0  0  0  0  0  0  0  0
   37.7800   28.1700   35.9030 C   0  0  0  0  0  0  0  0  0  0  0  0
   38.8710   28.2460   36.7120 N   0  0  0  0  0  0  0  0  0  0  0  0
   39.9640   34.0480   40.3000 C   0  0  0  0  0  0  0  0  0  0  0  0
   39.2090   35.6940   40.1980 S   0  0  0  0  0  0  0  0  0  0  0  0
   36.1000   31.9900   38.7817 H   0  0  0  0  0  0  0  0  0  0  0  0
   37.2036   33.9542   40.2394 H   0  0  0  0  0  0  0  0  0  0  0  0
   39.9205   29.3413   38.1566 H   0  0  0  0  0  0  0  0  0  0  0  0
   36.2332   31.0601   36.7017 H   0  0  0  0  0  0  0  0  0  0  0  0
   37.6497   27.2976   35.2458 H   0  0  0  0  0  0  0  0  0  0  0  0
   40.0644   33.7490   41.3538 H   0  0  0  0  0  0  0  0  0  0  0  0
   40.9636   34.0592   39.8411 H   0  0  0  0  0  0  0  0  0  0  0  0
   38.9886   36.1744   41.4619 H   0  0  0  0  0  0  0  0  0  0  0  0
  1  5  2  0
  1  2  1  0
  2  3  2  0
  4  3  1  0
  4 12  1  0
  5  4  1  0
  6  7  2  0
  7  1  1  0
  8  7  1  0
  9 10  1  0
  9  8  2  0
 10 11  2  0
 11  6  1  0
 13 12  1  0
  2 14  1  0
  3 15  1  0
  6 16  1  0
  8 17  1  0
 10 18  1  0
 12 19  1  0
 12 20  1  0
 13 21  1  0
M  ISO  8  14  14  15  14  16  14  17  14  18  14  19   8  20   8  21  11
M  END
>  <minimizedAffinity>  (1) 
-3.29532123

>  <minimizedRMSD>  (1) 
7.45762253

$$$$
