
     RDKit          3D

 23 24  0  0  0  0  0  0  0  0999 V2000
   37.9260   31.1340   40.8480 C   0  0  0  0  0  0  0  0  0  0  0  0
   36.9470   31.7550   40.0650 C   0  0  0  0  0  0  0  0  0  0  0  0
   37.1360   33.0370   39.5960 C   0  0  0  0  0  0  0  0  0  0  0  0
   38.3010   33.6790   39.9190 C   0  0  0  0  0  0  0  0  0  0  0  0
   39.2560   33.0640   40.6870 C   0  0  0  0  0  0  0  0  0  0  0  0
   39.0790   31.7880   41.1590 C   0  0  0  0  0  0  0  0  0  0  0  0
   37.1510   28.2590   43.0130 C   0  0  0  0  0  0  0  0  0  0  0  0
   37.3580   27.1830   42.1550 C   0  0  0  0  0  0  0  0  0  0  0  0
   37.7550   27.4630   40.8630 C   0  0  0  0  0  0  0  0  0  0  0  0
   37.9310   28.7430   40.4700 N   0  0  0  0  0  0  0  0  0  0  0  0
   37.7200   29.7770   41.3370 C   0  0  0  0  0  0  0  0  0  0  0  0
   37.3390   29.5110   42.5740 N   0  0  0  0  0  0  0  0  0  0  0  0
   40.1860   31.2480   41.9870 C   0  0  0  0  0  0  0  0  0  0  0  0
   41.3150   32.0530   41.9800 F   0  0  0  0  0  0  0  0  0  0  0  0
   40.4920   29.9340   41.7150 F   0  0  0  0  0  0  0  0  0  0  0  0
   39.8110   31.2370   43.3470 F   0  0  0  0  0  0  0  0  0  0  0  0
   36.0195   31.2160   39.8219 H   0  0  0  0  0  0  0  0  0  0  0  0
   36.3713   33.5311   38.9787 H   0  0  0  0  0  0  0  0  0  0  0  0
   38.4736   34.7033   39.5571 H   0  0  0  0  0  0  0  0  0  0  0  0
   40.1828   33.6046   40.9296 H   0  0  0  0  0  0  0  0  0  0  0  0
   36.8332   28.0818   44.0511 H   0  0  0  0  0  0  0  0  0  0  0  0
   37.2106   26.1470   42.4941 H   0  0  0  0  0  0  0  0  0  0  0  0
   37.9284   26.6418   40.1520 H   0  0  0  0  0  0  0  0  0  0  0  0
  1  6  1  0
  1 11  1  0
  2  1  2  0
  3  4  2  0
  3  2  1  0
  4  5  1  0
  5  6  2  0
  6 13  1  0
  8  7  2  0
  9  8  1  0
 10  9  2  0
 10 11  1  0
 11 12  2  0
 12  7  1  0
 13 16  1  0
 14 13  1  0
 15 13  1  0
  2 17  1  0
  3 18  1  0
  4 19  1  0
  5 20  1  0
  7 21  1  0
  8 22  1  0
  9 23  1  0
M  ISO  7  17  14  18  14  19  14  20  14  21  14  22  14  23  14
M  END
>  <minimizedAffinity>  (1) 
-4.41646624

>  <minimizedRMSD>  (1) 
0.801883578

$$$$
