
     RDKit          3D

 21 22  0  0  0  0  0  0  0  0999 V2000
   37.0820   26.6490   40.2560 C   0  0  0  0  0  0  0  0  0  0  0  0
   36.3610   25.9420   39.3030 C   0  0  0  0  0  0  0  0  0  0  0  0
   36.9350   24.6950   39.3090 C   0  0  0  0  0  0  0  0  0  0  0  0
   37.9520   24.6460   40.2170 N   0  0  0  0  0  0  0  0  0  0  0  0
   38.0380   25.8380   40.7930 N   0  0  0  0  0  0  0  0  0  0  0  0
   37.5520   28.7540   41.5430 C   0  0  0  0  0  0  0  0  0  0  0  0
   36.8350   28.0310   40.6060 C   0  0  0  0  0  0  0  0  0  0  0  0
   35.7820   28.6890   39.9420 C   0  0  0  0  0  0  0  0  0  0  0  0
   35.5170   30.0010   40.2480 N   0  0  0  0  0  0  0  0  0  0  0  0
   36.2770   30.6540   41.1920 C   0  0  0  0  0  0  0  0  0  0  0  0
   37.3080   30.0130   41.8440 N   0  0  0  0  0  0  0  0  0  0  0  0
   38.7290   23.4410   40.4250 C   0  0  0  0  0  0  0  0  0  0  0  0
   38.0750   22.6450   41.3580 O   0  0  0  0  0  0  0  0  0  0  0  0
   35.5233   26.2987   38.6857 H   0  0  0  0  0  0  0  0  0  0  0  0
   36.6199   23.8551   38.6724 H   0  0  0  0  0  0  0  0  0  0  0  0
   38.3750   28.2470   42.0680 H   0  0  0  0  0  0  0  0  0  0  0  0
   35.1802   28.1594   39.1888 H   0  0  0  0  0  0  0  0  0  0  0  0
   36.0576   31.7053   41.4299 H   0  0  0  0  0  0  0  0  0  0  0  0
   38.8261   22.8945   39.4753 H   0  0  0  0  0  0  0  0  0  0  0  0
   39.7329   23.7009   40.7919 H   0  0  0  0  0  0  0  0  0  0  0  0
   38.3175   22.9401   42.2714 H   0  0  0  0  0  0  0  0  0  0  0  0
  1  7  1  0
  1  5  2  0
  2  3  2  0
  2  1  1  0
  3  4  1  0
  4 12  1  0
  4  5  1  0
  6 11  2  0
  7  6  1  0
  8  9  1  0
  8  7  2  0
  9 10  2  0
 10 11  1  0
 12 13  1  0
  2 14  1  0
  3 15  1  0
  6 16  1  0
  8 17  1  0
 10 18  1  0
 12 19  1  0
 12 20  1  0
 13 21  1  0
M  ISO  8  14  14  15  14  16  14  17  14  18  14  19   8  20   8  21   3
M  END
>  <minimizedAffinity>  (1) 
-3.2672348

>  <minimizedRMSD>  (1) 
0.569361389

$$$$
