
     RDKit          3D

 37 40  0  0  0  0  0  0  0  0999 V2000
   37.1900   28.4720   43.2390 C   0  0  0  0  0  0  0  0  0  0  0  0
   36.9110   27.4290   42.3460 C   0  0  0  0  0  0  0  0  0  0  0  0
   36.9780   27.7000   41.0050 C   0  0  0  0  0  0  0  0  0  0  0  0
   37.3030   28.9350   40.5770 N   0  0  0  0  0  0  0  0  0  0  0  0
   37.5700   29.9340   41.4530 C   0  0  0  0  0  0  0  0  0  0  0  0
   37.5080   29.6830   42.7570 N   0  0  0  0  0  0  0  0  0  0  0  0
   37.9140   31.2410   40.9290 C   0  0  0  0  0  0  0  0  0  0  0  0
   36.9830   31.9780   40.1820 C   0  0  0  0  0  0  0  0  0  0  0  0
   37.3060   33.2240   39.6810 C   0  0  0  0  0  0  0  0  0  0  0  0
   38.5540   33.7120   39.9350 C   0  0  0  0  0  0  0  0  0  0  0  0
   39.4690   33.0000   40.6630 C   0  0  0  0  0  0  0  0  0  0  0  0
   39.1520   31.7570   41.1650 C   0  0  0  0  0  0  0  0  0  0  0  0
   40.2390   31.0890   41.9410 C   0  0  0  0  0  0  0  0  0  0  0  0
   41.4490   31.7500   41.8690 F   0  0  0  0  0  0  0  0  0  0  0  0
   40.3560   29.7480   41.6890 F   0  0  0  0  0  0  0  0  0  0  0  0
   39.9370   31.1630   43.3250 F   0  0  0  0  0  0  0  0  0  0  0  0
   36.6970   26.6460   40.0360 C   0  0  0  0  0  0  0  0  0  0  0  0
   36.0740   26.7650   38.8130 C   0  0  0  0  0  0  0  0  0  0  0  0
   36.0150   25.5520   38.2350 N   0  0  0  0  0  0  0  0  0  0  0  0
   36.5800   24.6110   39.0310 C   0  0  0  0  0  0  0  0  0  0  0  0
   36.7970   23.2440   38.9560 C   0  0  0  0  0  0  0  0  0  0  0  0
   37.4290   22.5610   39.9830 C   0  0  0  0  0  0  0  0  0  0  0  0
   37.8620   23.2420   41.1200 C   0  0  0  0  0  0  0  0  0  0  0  0
   37.6300   24.6160   41.1680 C   0  0  0  0  0  0  0  0  0  0  0  0
   37.0010   25.3040   40.1470 C   0  0  0  0  0  0  0  0  0  0  0  0
   37.1487   28.2996   44.3246 H   0  0  0  0  0  0  0  0  0  0  0  0
   36.6467   26.4252   42.7100 H   0  0  0  0  0  0  0  0  0  0  0  0
   35.9838   31.5586   39.9930 H   0  0  0  0  0  0  0  0  0  0  0  0
   36.5788   33.8051   39.0949 H   0  0  0  0  0  0  0  0  0  0  0  0
   38.8322   34.7023   39.5452 H   0  0  0  0  0  0  0  0  0  0  0  0
   40.4667   33.4244   40.8488 H   0  0  0  0  0  0  0  0  0  0  0  0
   35.6879   27.6995   38.3799 H   0  0  0  0  0  0  0  0  0  0  0  0
   35.5972   25.3635   37.3126 H   0  0  0  0  0  0  0  0  0  0  0  0
   36.4617   22.6917   38.0658 H   0  0  0  0  0  0  0  0  0  0  0  0
   37.5899   21.4759   39.9007 H   0  0  0  0  0  0  0  0  0  0  0  0
   38.3658   22.7170   41.9450 H   0  0  0  0  0  0  0  0  0  0  0  0
   37.9612   25.1759   42.0551 H   0  0  0  0  0  0  0  0  0  0  0  0
  2  1  2  0
  3  2  1  0
  4  3  2  0
  4  5  1  0
  5  6  2  0
  6  1  1  0
  7 12  1  0
  7  5  1  0
  8  7  2  0
  9 10  2  0
  9  8  1  0
 10 11  1  0
 11 12  2  0
 12 13  1  0
 13 16  1  0
 14 13  1  0
 15 13  1  0
 17 25  1  0
 17  3  1  0
 18 17  2  0
 19 18  1  0
 19 20  1  0
 20 25  2  0
 21 20  1  0
 21 22  2  0
 22 23  1  0
 23 24  2  0
 25 24  1  0
  1 26  1  0
  2 27  1  0
  8 28  1  0
  9 29  1  0
 10 30  1  0
 11 31  1  0
 18 32  1  0
 19 33  1  0
 21 34  1  0
 22 35  1  0
 23 36  1  0
 24 37  1  0
M  ISO  8  26  14  27  14  28  14  29  14  30  14  31  14  32  14  33   9
M  ISO  4  34  14  35  14  36  14  37  14
M  END
>  <minimizedAffinity>  (1) 
-6.04039669

>  <minimizedRMSD>  (1) 
1.09011292

$$$$
