
     RDKit          3D

 36 39  0  0  0  0  0  0  0  0999 V2000
   37.1680   28.3420   43.1970 C   0  0  0  0  0  0  0  0  0  0  0  0
   37.0020   27.2850   42.3200 C   0  0  0  0  0  0  0  0  0  0  0  0
   37.1210   27.5560   40.9740 C   0  0  0  0  0  0  0  0  0  0  0  0
   37.3900   28.8110   40.5560 N   0  0  0  0  0  0  0  0  0  0  0  0
   37.5480   29.8330   41.4540 C   0  0  0  0  0  0  0  0  0  0  0  0
   37.4330   29.5750   42.7370 N   0  0  0  0  0  0  0  0  0  0  0  0
   36.9820   26.5870   39.9170 N   0  0  0  0  0  0  0  0  0  0  0  0
   36.6140   26.7900   38.6370 C   0  0  0  0  0  0  0  0  0  0  0  0
   36.6320   25.5820   38.0400 N   0  0  0  0  0  0  0  0  0  0  0  0
   37.0120   24.6600   38.9640 C   0  0  0  0  0  0  0  0  0  0  0  0
   37.1810   23.2940   38.8460 C   0  0  0  0  0  0  0  0  0  0  0  0
   37.5710   22.6000   39.9370 N   0  0  0  0  0  0  0  0  0  0  0  0
   37.7850   23.2490   41.1030 C   0  0  0  0  0  0  0  0  0  0  0  0
   37.6280   24.5850   41.2450 N   0  0  0  0  0  0  0  0  0  0  0  0
   37.2450   25.2910   40.1920 C   0  0  0  0  0  0  0  0  0  0  0  0
   37.8350   31.1590   40.9210 C   0  0  0  0  0  0  0  0  0  0  0  0
   36.8940   31.8330   40.1530 C   0  0  0  0  0  0  0  0  0  0  0  0
   37.1540   33.0830   39.6470 C   0  0  0  0  0  0  0  0  0  0  0  0
   38.3670   33.6400   39.9230 C   0  0  0  0  0  0  0  0  0  0  0  0
   39.3130   32.9830   40.6840 C   0  0  0  0  0  0  0  0  0  0  0  0
   39.0420   31.7390   41.1840 C   0  0  0  0  0  0  0  0  0  0  0  0
   40.1350   31.1320   41.9880 C   0  0  0  0  0  0  0  0  0  0  0  0
   41.3260   31.8430   41.9250 F   0  0  0  0  0  0  0  0  0  0  0  0
   40.3330   29.7890   41.7510 F   0  0  0  0  0  0  0  0  0  0  0  0
   39.8100   31.1740   43.3640 F   0  0  0  0  0  0  0  0  0  0  0  0
   36.9600   22.5770   37.6200 N   0  0  0  0  0  0  0  0  0  0  0  0
   37.0821   28.1707   44.2802 H   0  0  0  0  0  0  0  0  0  0  0  0
   36.7839   26.2695   42.6823 H   0  0  0  0  0  0  0  0  0  0  0  0
   36.3510   27.7513   38.1715 H   0  0  0  0  0  0  0  0  0  0  0  0
   38.1019   22.6629   41.9782 H   0  0  0  0  0  0  0  0  0  0  0  0
   35.9239   31.3573   39.9466 H   0  0  0  0  0  0  0  0  0  0  0  0
   36.4084   33.6167   39.0394 H   0  0  0  0  0  0  0  0  0  0  0  0
   38.5985   34.6404   39.5286 H   0  0  0  0  0  0  0  0  0  0  0  0
   40.2834   33.4592   40.8880 H   0  0  0  0  0  0  0  0  0  0  0  0
   37.1009   21.5572   37.5872 H   0  0  0  0  0  0  0  0  0  0  0  0
   36.6607   23.0830   36.7742 H   0  0  0  0  0  0  0  0  0  0  0  0
  2  1  2  0
  3  2  1  0
  4  3  2  0
  4  5  1  0
  5  6  2  0
  6  1  1  0
  7 15  1  0
  7  3  1  0
  8  7  1  0
  9  8  2  0
  9 10  1  0
 10 15  2  0
 11 10  1  0
 11 12  2  0
 12 13  1  0
 13 14  2  0
 15 14  1  0
 16 21  1  0
 16  5  1  0
 17 16  2  0
 18 19  2  0
 18 17  1  0
 19 20  1  0
 20 21  2  0
 21 22  1  0
 22 25  1  0
 23 22  1  0
 24 22  1  0
 26 11  1  0
  1 27  1  0
  2 28  1  0
  8 29  1  0
 13 30  1  0
 17 31  1  0
 18 32  1  0
 19 33  1  0
 20 34  1  0
 26 35  1  0
 26 36  1  0
M  ISO  8  27  14  28  14  29  14  30  14  31  14  32  14  33  14  34  14
M  END
>  <minimizedAffinity>  (1) 
-6.03892851

>  <minimizedRMSD>  (1) 
0.962687254

$$$$
