
     RDKit          3D

 38 40  0  0  0  0  0  0  0  0999 V2000
   37.2870   28.2850   43.8470 C   0  0  0  0  0  0  0  0  0  0  0  0
   37.1680   27.0860   43.1660 C   0  0  0  0  0  0  0  0  0  0  0  0
   37.2640   27.1510   41.8000 C   0  0  0  0  0  0  0  0  0  0  0  0
   37.4630   28.3210   41.1780 N   0  0  0  0  0  0  0  0  0  0  0  0
   37.5750   29.4860   41.8770 C   0  0  0  0  0  0  0  0  0  0  0  0
   37.4850   29.4320   43.1870 N   0  0  0  0  0  0  0  0  0  0  0  0
   37.1540   25.9670   41.0190 N   0  0  0  0  0  0  0  0  0  0  0  0
   36.9430   24.6640   41.6200 C   0  0  0  0  0  0  0  0  0  0  0  0
   37.3260   23.5730   40.6430 C   0  0  0  0  0  0  0  0  0  0  0  0
   36.3890   23.6650   39.4560 C   0  0  0  0  0  0  0  0  0  0  0  0
   36.1720   25.0780   39.0110 C   0  0  0  0  0  0  0  0  0  0  0  0
   37.2500   26.0110   39.5730 C   0  0  0  0  0  0  0  0  0  0  0  0
   37.7900   30.7200   41.1350 C   0  0  0  0  0  0  0  0  0  0  0  0
   36.7860   31.2300   40.3150 C   0  0  0  0  0  0  0  0  0  0  0  0
   36.9890   32.4000   39.6110 C   0  0  0  0  0  0  0  0  0  0  0  0
   38.1940   33.0370   39.7420 C   0  0  0  0  0  0  0  0  0  0  0  0
   39.1680   32.5270   40.5490 C   0  0  0  0  0  0  0  0  0  0  0  0
   38.9860   31.3650   41.2570 C   0  0  0  0  0  0  0  0  0  0  0  0
   40.1320   30.9290   42.0930 C   0  0  0  0  0  0  0  0  0  0  0  0
   41.2880   31.6580   41.8610 F   0  0  0  0  0  0  0  0  0  0  0  0
   40.3660   29.5790   42.0680 F   0  0  0  0  0  0  0  0  0  0  0  0
   39.8560   31.1940   43.4580 F   0  0  0  0  0  0  0  0  0  0  0  0
   37.2179   28.2951   44.9448 H   0  0  0  0  0  0  0  0  0  0  0  0
   37.0054   26.1336   43.6917 H   0  0  0  0  0  0  0  0  0  0  0  0
   37.5622   24.5760   42.5249 H   0  0  0  0  0  0  0  0  0  0  0  0
   35.8802   24.5560   41.8822 H   0  0  0  0  0  0  0  0  0  0  0  0
   38.3651   23.7154   40.3115 H   0  0  0  0  0  0  0  0  0  0  0  0
   37.2466   22.5849   41.1197 H   0  0  0  0  0  0  0  0  0  0  0  0
   36.8193   23.0933   38.6206 H   0  0  0  0  0  0  0  0  0  0  0  0
   35.4153   23.2560   39.7636 H   0  0  0  0  0  0  0  0  0  0  0  0
   36.2026   25.1162   37.9121 H   0  0  0  0  0  0  0  0  0  0  0  0
   35.1934   25.4133   39.3852 H   0  0  0  0  0  0  0  0  0  0  0  0
   38.2456   25.6707   39.2522 H   0  0  0  0  0  0  0  0  0  0  0  0
   37.1034   27.0376   39.2061 H   0  0  0  0  0  0  0  0  0  0  0  0
   35.8271   30.6980   40.2281 H   0  0  0  0  0  0  0  0  0  0  0  0
   36.2022   32.8104   38.9609 H   0  0  0  0  0  0  0  0  0  0  0  0
   38.3785   33.9705   39.1902 H   0  0  0  0  0  0  0  0  0  0  0  0
   40.1256   33.0614   40.6349 H   0  0  0  0  0  0  0  0  0  0  0  0
  2  1  2  0
  3  2  1  0
  4  3  2  0
  4  5  1  0
  5  6  2  0
  6  1  1  0
  7  8  1  0
  7  3  1  0
  9  8  1  0
 10  9  1  0
 11 10  1  0
 11 12  1  0
 12  7  1  0
 13 18  1  0
 13  5  1  0
 14 13  2  0
 15 16  2  0
 15 14  1  0
 16 17  1  0
 17 18  2  0
 18 19  1  0
 19 22  1  0
 20 19  1  0
 21 19  1  0
  1 23  1  0
  2 24  1  0
  8 25  1  0
  8 26  1  0
  9 27  1  0
  9 28  1  0
 10 29  1  0
 10 30  1  0
 11 31  1  0
 11 32  1  0
 12 33  1  0
 12 34  1  0
 14 35  1  0
 15 36  1  0
 16 37  1  0
 17 38  1  0
M  ISO  8  23  14  24  14  25  13  26  13  27  13  28  13  29  13  30  13
M  ISO  8  31  13  32  13  33  13  34  13  35  14  36  14  37  14  38  14
M  END
>  <minimizedAffinity>  (1) 
-5.81218386

>  <minimizedRMSD>  (1) 
1.12618685

$$$$
