
     RDKit          3D

 39 41  0  0  0  0  0  0  0  0999 V2000
   37.8600   30.8850   41.0790 C   0  0  0  0  0  0  0  0  0  0  0  0
   36.8310   31.4130   40.2790 C   0  0  0  0  0  0  0  0  0  0  0  0
   37.0070   32.6380   39.6600 C   0  0  0  0  0  0  0  0  0  0  0  0
   38.1770   33.3060   39.8420 C   0  0  0  0  0  0  0  0  0  0  0  0
   39.1730   32.7760   40.6280 C   0  0  0  0  0  0  0  0  0  0  0  0
   39.0210   31.5550   41.2560 C   0  0  0  0  0  0  0  0  0  0  0  0
   37.3150   28.2800   43.6220 C   0  0  0  0  0  0  0  0  0  0  0  0
   37.3290   27.1170   42.8510 C   0  0  0  0  0  0  0  0  0  0  0  0
   37.5230   27.2460   41.4920 C   0  0  0  0  0  0  0  0  0  0  0  0
   37.6900   28.4730   40.9560 N   0  0  0  0  0  0  0  0  0  0  0  0
   37.6730   29.5970   41.7290 C   0  0  0  0  0  0  0  0  0  0  0  0
   37.4870   29.4620   43.0200 N   0  0  0  0  0  0  0  0  0  0  0  0
   37.5430   26.0130   40.6360 C   0  0  0  0  0  0  0  0  0  0  0  0
   36.4930   26.1310   39.5540 C   0  0  0  0  0  0  0  0  0  0  0  0
   36.3870   24.7910   38.8560 C   0  0  0  0  0  0  0  0  0  0  0  0
   35.8580   23.7910   39.8860 C   0  0  0  0  0  0  0  0  0  0  0  0
   36.9900   23.5600   40.8530 C   0  0  0  0  0  0  0  0  0  0  0  0
   37.3450   24.8400   41.5390 C   0  0  0  0  0  0  0  0  0  0  0  0
   40.1740   31.1120   42.0670 C   0  0  0  0  0  0  0  0  0  0  0  0
   41.2950   31.9140   41.9270 F   0  0  0  0  0  0  0  0  0  0  0  0
   40.4720   29.7730   41.9180 F   0  0  0  0  0  0  0  0  0  0  0  0
   39.8640   31.2290   43.4400 F   0  0  0  0  0  0  0  0  0  0  0  0
   35.8920   30.8556   40.1461 H   0  0  0  0  0  0  0  0  0  0  0  0
   36.2124   33.0648   39.0303 H   0  0  0  0  0  0  0  0  0  0  0  0
   38.3285   34.2808   39.3553 H   0  0  0  0  0  0  0  0  0  0  0  0
   40.1106   33.3361   40.7595 H   0  0  0  0  0  0  0  0  0  0  0  0
   37.1645   28.2255   44.7103 H   0  0  0  0  0  0  0  0  0  0  0  0
   37.1897   26.1284   43.3129 H   0  0  0  0  0  0  0  0  0  0  0  0
   38.5014   25.8830   40.1120 H   0  0  0  0  0  0  0  0  0  0  0  0
   35.5239   26.3963   40.0017 H   0  0  0  0  0  0  0  0  0  0  0  0
   36.7720   26.9152   38.8349 H   0  0  0  0  0  0  0  0  0  0  0  0
   35.6920   24.8615   38.0063 H   0  0  0  0  0  0  0  0  0  0  0  0
   37.3652   24.4728   38.4662 H   0  0  0  0  0  0  0  0  0  0  0  0
   34.9851   24.2069   40.4104 H   0  0  0  0  0  0  0  0  0  0  0  0
   35.5340   22.8534   39.4106 H   0  0  0  0  0  0  0  0  0  0  0  0
   36.6820   22.8174   41.6038 H   0  0  0  0  0  0  0  0  0  0  0  0
   37.8669   23.1906   40.3011 H   0  0  0  0  0  0  0  0  0  0  0  0
   38.2791   24.6790   42.0972 H   0  0  0  0  0  0  0  0  0  0  0  0
   36.4869   25.0903   42.1801 H   0  0  0  0  0  0  0  0  0  0  0  0
  1  6  1  0
  1 11  1  0
  2  1  2  0
  3  4  2  0
  3  2  1  0
  4  5  1  0
  5  6  2  0
  6 19  1  0
  8  7  2  0
  9  8  1  0
 10  9  2  0
 10 11  1  0
 11 12  2  0
 12  7  1  0
 13  9  1  0
 13 18  1  0
 14 13  1  0
 15 14  1  0
 15 16  1  0
 16 17  1  0
 17 18  1  0
 19 22  1  0
 20 19  1  0
 21 19  1  0
  2 23  1  0
  3 24  1  0
  4 25  1  0
  5 26  1  0
  7 27  1  0
  8 28  1  0
 13 29  1  0
 14 30  1  0
 14 31  1  0
 15 32  1  0
 15 33  1  0
 16 34  1  0
 16 35  1  0
 17 36  1  0
 17 37  1  0
 18 38  1  0
 18 39  1  0
M  ISO  8  23  14  24  14  25  14  26  14  27  14  28  14  29  13  30  13
M  ISO  8  31  13  32  13  33  13  34  13  35  13  36  13  37  13  38  13
M  ISO  1  39  13
M  END
>  <minimizedAffinity>  (1) 
-5.81054592

>  <minimizedRMSD>  (1) 
1.58608651

$$$$
