
     RDKit          3D

 36 38  0  0  0  0  0  0  0  0999 V2000
   37.7820   30.7470   41.1470 C   0  0  0  0  0  0  0  0  0  0  0  0
   36.7720   31.3180   40.3480 C   0  0  0  0  0  0  0  0  0  0  0  0
   36.9570   32.5190   39.7180 C   0  0  0  0  0  0  0  0  0  0  0  0
   38.1630   33.1580   39.8850 C   0  0  0  0  0  0  0  0  0  0  0  0
   39.1510   32.6050   40.6630 C   0  0  0  0  0  0  0  0  0  0  0  0
   38.9710   31.3990   41.2980 C   0  0  0  0  0  0  0  0  0  0  0  0
   37.2360   28.1660   43.7040 C   0  0  0  0  0  0  0  0  0  0  0  0
   37.1430   27.0160   42.9440 C   0  0  0  0  0  0  0  0  0  0  0  0
   37.2680   27.1430   41.5830 C   0  0  0  0  0  0  0  0  0  0  0  0
   37.4740   28.3570   41.0290 N   0  0  0  0  0  0  0  0  0  0  0  0
   37.5610   29.4750   41.8030 C   0  0  0  0  0  0  0  0  0  0  0  0
   37.4400   29.3590   43.1160 N   0  0  0  0  0  0  0  0  0  0  0  0
   37.1690   25.9060   40.7630 C   0  0  0  0  0  0  0  0  0  0  0  0
   36.9560   24.7500   41.7400 C   0  0  0  0  0  0  0  0  0  0  0  0
   38.0160   23.7290   41.4560 C   0  0  0  0  0  0  0  0  0  0  0  0
   39.0570   24.3740   40.6000 C   0  0  0  0  0  0  0  0  0  0  0  0
   38.4050   25.5770   39.9990 C   0  0  0  0  0  0  0  0  0  0  0  0
   40.1130   30.9120   42.1070 C   0  0  0  0  0  0  0  0  0  0  0  0
   41.2800   31.6350   41.8960 F   0  0  0  0  0  0  0  0  0  0  0  0
   40.3310   29.5540   42.0110 F   0  0  0  0  0  0  0  0  0  0  0  0
   39.8470   31.1300   43.4800 F   0  0  0  0  0  0  0  0  0  0  0  0
   35.8156   30.7881   40.2280 H   0  0  0  0  0  0  0  0  0  0  0  0
   36.1640   32.9601   39.0962 H   0  0  0  0  0  0  0  0  0  0  0  0
   38.3389   34.1241   39.3894 H   0  0  0  0  0  0  0  0  0  0  0  0
   40.1059   33.1382   40.7803 H   0  0  0  0  0  0  0  0  0  0  0  0
   37.1425   28.1059   44.7984 H   0  0  0  0  0  0  0  0  0  0  0  0
   36.9750   26.0349   43.4123 H   0  0  0  0  0  0  0  0  0  0  0  0
   36.3578   26.0619   40.0366 H   0  0  0  0  0  0  0  0  0  0  0  0
   37.0471   25.1099   42.7754 H   0  0  0  0  0  0  0  0  0  0  0  0
   35.9527   24.3156   41.6184 H   0  0  0  0  0  0  0  0  0  0  0  0
   38.4671   23.3864   42.3989 H   0  0  0  0  0  0  0  0  0  0  0  0
   37.5820   22.8589   40.9416 H   0  0  0  0  0  0  0  0  0  0  0  0
   39.9227   24.6723   41.2096 H   0  0  0  0  0  0  0  0  0  0  0  0
   39.4266   23.6856   39.8257 H   0  0  0  0  0  0  0  0  0  0  0  0
   39.0992   26.4293   40.0401 H   0  0  0  0  0  0  0  0  0  0  0  0
   38.1434   25.3673   38.9513 H   0  0  0  0  0  0  0  0  0  0  0  0
  1  6  1  0
  1 11  1  0
  2  1  2  0
  3  4  2  0
  3  2  1  0
  4  5  1  0
  5  6  2  0
  6 18  1  0
  8  7  2  0
  9  8  1  0
 10  9  2  0
 10 11  1  0
 11 12  2  0
 12  7  1  0
 13  9  1  0
 13 14  1  0
 15 14  1  0
 16 15  1  0
 17 16  1  0
 17 13  1  0
 18 21  1  0
 19 18  1  0
 20 18  1  0
  2 22  1  0
  3 23  1  0
  4 24  1  0
  5 25  1  0
  7 26  1  0
  8 27  1  0
 13 28  1  0
 14 29  1  0
 14 30  1  0
 15 31  1  0
 15 32  1  0
 16 33  1  0
 16 34  1  0
 17 35  1  0
 17 36  1  0
M  ISO  8  22  14  23  14  24  14  25  14  26  14  27  14  28  13  29  13
M  ISO  7  30  13  31  13  32  13  33  13  34  13  35  13  36  13
M  END
>  <minimizedAffinity>  (1) 
-5.58909845

>  <minimizedRMSD>  (1) 
1.14487433

$$$$
