
     RDKit          3D

 32 34  0  0  0  0  0  0  0  0999 V2000
   37.3210   28.3190   43.8670 C   0  0  0  0  0  0  0  0  0  0  0  0
   37.1470   27.1310   43.1650 C   0  0  0  0  0  0  0  0  0  0  0  0
   37.1900   27.1890   41.7960 C   0  0  0  0  0  0  0  0  0  0  0  0
   37.3950   28.3600   41.1710 N   0  0  0  0  0  0  0  0  0  0  0  0
   37.5650   29.5190   41.8770 C   0  0  0  0  0  0  0  0  0  0  0  0
   37.5230   29.4640   43.1960 N   0  0  0  0  0  0  0  0  0  0  0  0
   37.7830   30.7560   41.1450 C   0  0  0  0  0  0  0  0  0  0  0  0
   36.7830   31.2830   40.3340 C   0  0  0  0  0  0  0  0  0  0  0  0
   36.9930   32.4550   39.6420 C   0  0  0  0  0  0  0  0  0  0  0  0
   38.1950   33.0790   39.7710 C   0  0  0  0  0  0  0  0  0  0  0  0
   39.1800   32.5570   40.5720 C   0  0  0  0  0  0  0  0  0  0  0  0
   38.9850   31.3940   41.2650 C   0  0  0  0  0  0  0  0  0  0  0  0
   40.1320   30.9460   42.0900 C   0  0  0  0  0  0  0  0  0  0  0  0
   41.2910   31.6690   41.8600 F   0  0  0  0  0  0  0  0  0  0  0  0
   40.3630   29.5820   42.0370 F   0  0  0  0  0  0  0  0  0  0  0  0
   39.8700   31.1980   43.4550 F   0  0  0  0  0  0  0  0  0  0  0  0
   37.0080   25.9520   41.0430 C   0  0  0  0  0  0  0  0  0  0  0  0
   37.2860   24.7110   41.5870 C   0  0  0  0  0  0  0  0  0  0  0  0
   37.0910   23.5700   40.8130 C   0  0  0  0  0  0  0  0  0  0  0  0
   36.6220   23.7560   39.5220 C   0  0  0  0  0  0  0  0  0  0  0  0
   36.3430   24.9830   38.9730 C   0  0  0  0  0  0  0  0  0  0  0  0
   36.5560   26.0190   39.7790 N   0  0  0  0  0  0  0  0  0  0  0  0
   37.2932   28.3203   44.9666 H   0  0  0  0  0  0  0  0  0  0  0  0
   36.9808   26.1786   43.6897 H   0  0  0  0  0  0  0  0  0  0  0  0
   35.8191   30.7606   40.2450 H   0  0  0  0  0  0  0  0  0  0  0  0
   36.2064   32.8772   38.9993 H   0  0  0  0  0  0  0  0  0  0  0  0
   38.3803   34.0159   39.2252 H   0  0  0  0  0  0  0  0  0  0  0  0
   40.1423   33.0829   40.6580 H   0  0  0  0  0  0  0  0  0  0  0  0
   37.6568   24.6264   42.6191 H   0  0  0  0  0  0  0  0  0  0  0  0
   37.3000   22.5652   41.2087 H   0  0  0  0  0  0  0  0  0  0  0  0
   36.4633   22.8642   38.8979 H   0  0  0  0  0  0  0  0  0  0  0  0
   35.9714   25.1003   37.9443 H   0  0  0  0  0  0  0  0  0  0  0  0
  2  1  2  0
  3  2  1  0
  4  3  2  0
  4  5  1  0
  5  6  2  0
  6  1  1  0
  7 12  1  0
  7  5  1  0
  8  7  2  0
  9 10  2  0
  9  8  1  0
 10 11  1  0
 11 12  2  0
 12 13  1  0
 13 16  1  0
 14 13  1  0
 15 13  1  0
 17 18  2  0
 17  3  1  0
 19 18  1  0
 20 19  2  0
 21 20  1  0
 21 22  2  0
 22 17  1  0
  1 23  1  0
  2 24  1  0
  8 25  1  0
  9 26  1  0
 10 27  1  0
 11 28  1  0
 18 29  1  0
 19 30  1  0
 20 31  1  0
 21 32  1  0
M  ISO  8  23  14  24  14  25  14  26  14  27  14  28  14  29  14  30  14
M  ISO  2  31  14  32  14
M  END
>  <minimizedAffinity>  (1) 
-5.58861876

>  <minimizedRMSD>  (1) 
1.18897736

$$$$
