
     RDKit          3D

 35 37  0  0  0  0  0  0  0  0999 V2000
   37.8010   30.7620   41.1350 C   0  0  0  0  0  0  0  0  0  0  0  0
   36.7990   31.3090   40.3410 C   0  0  0  0  0  0  0  0  0  0  0  0
   36.9790   32.5120   39.7020 C   0  0  0  0  0  0  0  0  0  0  0  0
   38.1800   33.1600   39.8730 C   0  0  0  0  0  0  0  0  0  0  0  0
   39.1630   32.6210   40.6530 C   0  0  0  0  0  0  0  0  0  0  0  0
   38.9870   31.4160   41.2940 C   0  0  0  0  0  0  0  0  0  0  0  0
   37.2620   28.1980   43.7230 C   0  0  0  0  0  0  0  0  0  0  0  0
   37.2280   27.0230   42.9740 C   0  0  0  0  0  0  0  0  0  0  0  0
   37.3890   27.1520   41.6190 C   0  0  0  0  0  0  0  0  0  0  0  0
   37.5720   28.3500   41.0440 N   0  0  0  0  0  0  0  0  0  0  0  0
   37.6010   29.4870   41.8070 C   0  0  0  0  0  0  0  0  0  0  0  0
   37.4460   29.3830   43.1210 N   0  0  0  0  0  0  0  0  0  0  0  0
   37.3670   25.9950   40.7880 N   0  0  0  0  0  0  0  0  0  0  0  0
   36.9390   25.8650   39.4120 C   0  0  0  0  0  0  0  0  0  0  0  0
   36.1310   24.5750   39.4380 C   0  0  0  0  0  0  0  0  0  0  0  0
   36.5800   23.8350   40.6860 C   0  0  0  0  0  0  0  0  0  0  0  0
   37.7770   24.6480   41.1370 C   0  0  0  0  0  0  0  0  0  0  0  0
   40.1410   30.9490   42.1120 C   0  0  0  0  0  0  0  0  0  0  0  0
   41.2900   31.6900   41.8960 F   0  0  0  0  0  0  0  0  0  0  0  0
   40.3650   29.5970   42.0340 F   0  0  0  0  0  0  0  0  0  0  0  0
   39.8610   31.1800   43.4850 F   0  0  0  0  0  0  0  0  0  0  0  0
   35.8473   30.7702   40.2226 H   0  0  0  0  0  0  0  0  0  0  0  0
   36.1867   32.9437   39.0728 H   0  0  0  0  0  0  0  0  0  0  0  0
   38.3512   34.1256   39.3747 H   0  0  0  0  0  0  0  0  0  0  0  0
   40.1142   33.1607   40.7712 H   0  0  0  0  0  0  0  0  0  0  0  0
   37.1371   28.1536   44.8150 H   0  0  0  0  0  0  0  0  0  0  0  0
   37.0793   26.0410   43.4469 H   0  0  0  0  0  0  0  0  0  0  0  0
   37.8011   25.7804   38.7340 H   0  0  0  0  0  0  0  0  0  0  0  0
   36.3689   26.7319   39.0466 H   0  0  0  0  0  0  0  0  0  0  0  0
   35.0549   24.7972   39.4900 H   0  0  0  0  0  0  0  0  0  0  0  0
   36.2929   23.9757   38.5299 H   0  0  0  0  0  0  0  0  0  0  0  0
   35.7904   23.8317   41.4518 H   0  0  0  0  0  0  0  0  0  0  0  0
   36.8124   22.7748   40.5073 H   0  0  0  0  0  0  0  0  0  0  0  0
   38.6884   24.3536   40.5960 H   0  0  0  0  0  0  0  0  0  0  0  0
   38.0287   24.5195   42.2001 H   0  0  0  0  0  0  0  0  0  0  0  0
  1  6  1  0
  1 11  1  0
  2  1  2  0
  3  4  2  0
  3  2  1  0
  4  5  1  0
  5  6  2  0
  6 18  1  0
  8  7  2  0
  9  8  1  0
 10  9  2  0
 10 11  1  0
 11 12  2  0
 12  7  1  0
 13 17  1  0
 13  9  1  0
 14 15  1  0
 14 13  1  0
 15 16  1  0
 16 17  1  0
 18 21  1  0
 19 18  1  0
 20 18  1  0
  2 22  1  0
  3 23  1  0
  4 24  1  0
  5 25  1  0
  7 26  1  0
  8 27  1  0
 14 28  1  0
 14 29  1  0
 15 30  1  0
 15 31  1  0
 16 32  1  0
 16 33  1  0
 17 34  1  0
 17 35  1  0
M  ISO  8  22  14  23  14  24  14  25  14  26  14  27  14  28  13  29  13
M  ISO  6  30  13  31  13  32  13  33  13  34  13  35  13
M  END
>  <minimizedAffinity>  (1) 
-5.57584381

>  <minimizedRMSD>  (1) 
0.842293322

$$$$
