
     RDKit          3D

 31 33  0  0  0  0  0  0  0  0999 V2000
   37.3120   28.3040   43.8560 C   0  0  0  0  0  0  0  0  0  0  0  0
   37.1260   27.1190   43.1290 C   0  0  0  0  0  0  0  0  0  0  0  0
   37.1730   27.2060   41.7610 C   0  0  0  0  0  0  0  0  0  0  0  0
   37.3900   28.3850   41.1550 N   0  0  0  0  0  0  0  0  0  0  0  0
   37.5690   29.5280   41.8810 C   0  0  0  0  0  0  0  0  0  0  0  0
   37.5240   29.4420   43.1880 N   0  0  0  0  0  0  0  0  0  0  0  0
   37.7990   30.7670   41.1660 C   0  0  0  0  0  0  0  0  0  0  0  0
   36.7820   31.3060   40.3540 C   0  0  0  0  0  0  0  0  0  0  0  0
   36.9950   32.4930   39.6660 C   0  0  0  0  0  0  0  0  0  0  0  0
   38.2040   33.1050   39.8030 C   0  0  0  0  0  0  0  0  0  0  0  0
   39.1770   32.5730   40.5920 C   0  0  0  0  0  0  0  0  0  0  0  0
   38.9870   31.4080   41.2760 C   0  0  0  0  0  0  0  0  0  0  0  0
   40.1410   30.9410   42.1020 C   0  0  0  0  0  0  0  0  0  0  0  0
   41.3010   31.6630   41.8710 F   0  0  0  0  0  0  0  0  0  0  0  0
   40.3510   29.5920   42.0600 F   0  0  0  0  0  0  0  0  0  0  0  0
   39.8670   31.1980   43.4710 F   0  0  0  0  0  0  0  0  0  0  0  0
   36.9860   26.0080   40.9460 C   0  0  0  0  0  0  0  0  0  0  0  0
   37.1050   24.7520   41.5040 C   0  0  0  0  0  0  0  0  0  0  0  0
   36.9180   23.6370   40.6800 C   0  0  0  0  0  0  0  0  0  0  0  0
   36.6290   23.8100   39.3750 N   0  0  0  0  0  0  0  0  0  0  0  0
   36.5160   25.0360   38.8470 C   0  0  0  0  0  0  0  0  0  0  0  0
   36.6950   26.1080   39.6360 N   0  0  0  0  0  0  0  0  0  0  0  0
   37.2839   28.2968   44.9556 H   0  0  0  0  0  0  0  0  0  0  0  0
   36.9496   26.1586   43.6356 H   0  0  0  0  0  0  0  0  0  0  0  0
   35.8171   30.7854   40.2648 H   0  0  0  0  0  0  0  0  0  0  0  0
   36.2101   32.9265   39.0288 H   0  0  0  0  0  0  0  0  0  0  0  0
   38.3974   34.0457   39.2666 H   0  0  0  0  0  0  0  0  0  0  0  0
   40.1409   33.0955   40.6804 H   0  0  0  0  0  0  0  0  0  0  0  0
   37.3413   24.6301   42.5714 H   0  0  0  0  0  0  0  0  0  0  0  0
   37.0065   22.6225   41.0958 H   0  0  0  0  0  0  0  0  0  0  0  0
   36.2795   25.1631   37.7803 H   0  0  0  0  0  0  0  0  0  0  0  0
  2  1  2  0
  3  2  1  0
  4  3  2  0
  4  5  1  0
  5  6  2  0
  6  1  1  0
  7 12  1  0
  7  5  1  0
  8  7  2  0
  9 10  2  0
  9  8  1  0
 10 11  1  0
 11 12  2  0
 12 13  1  0
 13 16  1  0
 14 13  1  0
 15 13  1  0
 17 18  2  0
 17  3  1  0
 19 18  1  0
 20 19  2  0
 21 20  1  0
 21 22  2  0
 22 17  1  0
  1 23  1  0
  2 24  1  0
  8 25  1  0
  9 26  1  0
 10 27  1  0
 11 28  1  0
 18 29  1  0
 19 30  1  0
 21 31  1  0
M  ISO  8  23  14  24  14  25  14  26  14  27  14  28  14  29  14  30  14
M  ISO  1  31  14
M  END
>  <minimizedAffinity>  (1) 
-5.44819689

>  <minimizedRMSD>  (1) 
1.34883249

$$$$
