
     RDKit          3D

 30 32  0  0  0  0  0  0  0  0999 V2000
   37.7770   30.7640   41.1400 C   0  0  0  0  0  0  0  0  0  0  0  0
   36.7780   31.3010   40.3380 C   0  0  0  0  0  0  0  0  0  0  0  0
   36.9690   32.4890   39.6670 C   0  0  0  0  0  0  0  0  0  0  0  0
   38.1750   33.1130   39.8240 C   0  0  0  0  0  0  0  0  0  0  0  0
   39.1650   32.5800   40.6190 C   0  0  0  0  0  0  0  0  0  0  0  0
   38.9660   31.3980   41.2820 C   0  0  0  0  0  0  0  0  0  0  0  0
   37.2750   28.2330   43.7740 C   0  0  0  0  0  0  0  0  0  0  0  0
   37.1350   27.0720   43.0330 C   0  0  0  0  0  0  0  0  0  0  0  0
   37.2120   27.1660   41.6630 C   0  0  0  0  0  0  0  0  0  0  0  0
   37.4180   28.3670   41.0820 N   0  0  0  0  0  0  0  0  0  0  0  0
   37.5550   29.5020   41.8430 C   0  0  0  0  0  0  0  0  0  0  0  0
   37.4800   29.4000   43.1480 N   0  0  0  0  0  0  0  0  0  0  0  0
   37.0930   26.0880   40.7100 N   0  0  0  0  0  0  0  0  0  0  0  0
   36.5100   26.3470   39.5020 C   0  0  0  0  0  0  0  0  0  0  0  0
   36.4850   25.2000   38.7230 C   0  0  0  0  0  0  0  0  0  0  0  0
   37.0560   24.2770   39.4920 N   0  0  0  0  0  0  0  0  0  0  0  0
   37.4210   24.7990   40.6770 C   0  0  0  0  0  0  0  0  0  0  0  0
   40.1180   30.9310   42.1080 C   0  0  0  0  0  0  0  0  0  0  0  0
   41.2780   31.6570   41.8760 F   0  0  0  0  0  0  0  0  0  0  0  0
   40.3340   29.5680   42.0220 F   0  0  0  0  0  0  0  0  0  0  0  0
   39.8550   31.1620   43.4630 F   0  0  0  0  0  0  0  0  0  0  0  0
   35.8201   30.7698   40.2371 H   0  0  0  0  0  0  0  0  0  0  0  0
   36.1819   32.9185   39.0299 H   0  0  0  0  0  0  0  0  0  0  0  0
   38.3591   34.0639   39.3027 H   0  0  0  0  0  0  0  0  0  0  0  0
   40.1243   33.1082   40.7226 H   0  0  0  0  0  0  0  0  0  0  0  0
   37.2182   28.1977   44.8720 H   0  0  0  0  0  0  0  0  0  0  0  0
   36.9671   26.1028   43.5255 H   0  0  0  0  0  0  0  0  0  0  0  0
   36.1164   27.3261   39.1914 H   0  0  0  0  0  0  0  0  0  0  0  0
   36.0855   25.0810   37.7050 H   0  0  0  0  0  0  0  0  0  0  0  0
   37.9134   24.2467   41.4910 H   0  0  0  0  0  0  0  0  0  0  0  0
  1  6  1  0
  1 11  1  0
  2  1  2  0
  3  4  2  0
  3  2  1  0
  4  5  1  0
  5  6  2  0
  6 18  1  0
  8  7  2  0
  9  8  1  0
 10  9  2  0
 10 11  1  0
 11 12  2  0
 12  7  1  0
 13  9  1  0
 14 13  1  0
 15 16  1  0
 15 14  2  0
 16 17  2  0
 17 13  1  0
 18 21  1  0
 19 18  1  0
 20 18  1  0
  2 22  1  0
  3 23  1  0
  4 24  1  0
  5 25  1  0
  7 26  1  0
  8 27  1  0
 14 28  1  0
 15 29  1  0
 17 30  1  0
M  ISO  8  22  14  23  14  24  14  25  14  26  14  27  14  28  14  29  14
M  ISO  1  30  14
M  END
>  <minimizedAffinity>  (1) 
-5.31076288

>  <minimizedRMSD>  (1) 
0.994466066

$$$$
