
     RDKit          3D

 35 36  0  0  0  0  0  0  0  0999 V2000
   37.7840   30.7140   41.0940 C   0  0  0  0  0  0  0  0  0  0  0  0
   36.7910   31.2420   40.2800 C   0  0  0  0  0  0  0  0  0  0  0  0
   36.9740   32.4400   39.6280 C   0  0  0  0  0  0  0  0  0  0  0  0
   38.1550   33.0940   39.8040 C   0  0  0  0  0  0  0  0  0  0  0  0
   39.1400   32.5780   40.6080 C   0  0  0  0  0  0  0  0  0  0  0  0
   38.9630   31.3800   41.2620 C   0  0  0  0  0  0  0  0  0  0  0  0
   37.2240   28.1800   43.7070 C   0  0  0  0  0  0  0  0  0  0  0  0
   37.2200   26.9940   42.9660 C   0  0  0  0  0  0  0  0  0  0  0  0
   37.4090   27.0930   41.5910 C   0  0  0  0  0  0  0  0  0  0  0  0
   37.5870   28.3040   41.0250 N   0  0  0  0  0  0  0  0  0  0  0  0
   37.5860   29.4450   41.7830 C   0  0  0  0  0  0  0  0  0  0  0  0
   37.4070   29.3490   43.0780 N   0  0  0  0  0  0  0  0  0  0  0  0
   37.4020   25.8250   40.8160 C   0  0  0  0  0  0  0  0  0  0  0  0
   38.8560   25.5690   40.3960 C   0  0  0  0  0  0  0  0  0  0  0  0
   36.5320   25.8660   39.6000 C   0  0  0  0  0  0  0  0  0  0  0  0
   36.9690   24.7220   41.7720 C   0  0  0  0  0  0  0  0  0  0  0  0
   40.1070   30.9300   42.1030 C   0  0  0  0  0  0  0  0  0  0  0  0
   41.2610   31.6860   41.8910 F   0  0  0  0  0  0  0  0  0  0  0  0
   40.3540   29.5810   42.0280 F   0  0  0  0  0  0  0  0  0  0  0  0
   39.8160   31.1620   43.4600 F   0  0  0  0  0  0  0  0  0  0  0  0
   35.8448   30.6952   40.1545 H   0  0  0  0  0  0  0  0  0  0  0  0
   36.1875   32.8578   38.9823 H   0  0  0  0  0  0  0  0  0  0  0  0
   38.3226   34.0533   39.2925 H   0  0  0  0  0  0  0  0  0  0  0  0
   40.0838   33.1293   40.7315 H   0  0  0  0  0  0  0  0  0  0  0  0
   37.0782   28.1535   44.7970 H   0  0  0  0  0  0  0  0  0  0  0  0
   37.0728   26.0184   43.4524 H   0  0  0  0  0  0  0  0  0  0  0  0
   39.4828   25.4586   41.2932 H   0  0  0  0  0  0  0  0  0  0  0  0
   38.9079   24.6479   39.7969 H   0  0  0  0  0  0  0  0  0  0  0  0
   39.2193   26.4170   39.7969 H   0  0  0  0  0  0  0  0  0  0  0  0
   35.4765   25.9157   39.9058 H   0  0  0  0  0  0  0  0  0  0  0  0
   36.7821   26.7534   39.0000 H   0  0  0  0  0  0  0  0  0  0  0  0
   36.6975   24.9591   39.0000 H   0  0  0  0  0  0  0  0  0  0  0  0
   37.1027   25.0625   42.8094 H   0  0  0  0  0  0  0  0  0  0  0  0
   35.9097   24.4815   41.5987 H   0  0  0  0  0  0  0  0  0  0  0  0
   37.5818   23.8251   41.5987 H   0  0  0  0  0  0  0  0  0  0  0  0
  1  6  1  0
  1 11  1  0
  2  1  2  0
  3  4  2  0
  3  2  1  0
  4  5  1  0
  5  6  2  0
  6 17  1  0
  8  7  2  0
  9  8  1  0
 10  9  2  0
 10 11  1  0
 11 12  2  0
 12  7  1  0
 13  9  1  0
 13 16  1  0
 14 13  1  0
 15 13  1  0
 17 20  1  0
 18 17  1  0
 19 17  1  0
  2 21  1  0
  3 22  1  0
  4 23  1  0
  5 24  1  0
  7 25  1  0
  8 26  1  0
 14 27  1  0
 14 28  1  0
 14 29  1  0
 15 30  1  0
 15 31  1  0
 15 32  1  0
 16 33  1  0
 16 34  1  0
 16 35  1  0
M  ISO  8  21  14  22  14  23  14  24  14  25  14  26  14  27   8  28   8
M  ISO  7  29   8  30   8  31   8  32   8  33   8  34   8  35   8
M  END
>  <minimizedAffinity>  (1) 
-5.29585218

>  <minimizedRMSD>  (1) 
0.7639395

$$$$
