
     RDKit          3D

 28 30  0  0  0  0  0  0  0  0999 V2000
   37.7860   30.7300   41.1340 C   0  0  0  0  0  0  0  0  0  0  0  0
   36.7880   31.2520   40.3200 C   0  0  0  0  0  0  0  0  0  0  0  0
   36.9810   32.4280   39.6280 C   0  0  0  0  0  0  0  0  0  0  0  0
   38.1840   33.0610   39.7690 C   0  0  0  0  0  0  0  0  0  0  0  0
   39.1690   32.5520   40.5680 C   0  0  0  0  0  0  0  0  0  0  0  0
   38.9850   31.3790   41.2620 C   0  0  0  0  0  0  0  0  0  0  0  0
   37.2760   28.2700   43.8280 C   0  0  0  0  0  0  0  0  0  0  0  0
   37.1620   27.0770   43.1080 C   0  0  0  0  0  0  0  0  0  0  0  0
   37.2610   27.1480   41.7420 C   0  0  0  0  0  0  0  0  0  0  0  0
   37.4610   28.3330   41.1430 N   0  0  0  0  0  0  0  0  0  0  0  0
   37.5700   29.4840   41.8610 C   0  0  0  0  0  0  0  0  0  0  0  0
   37.4750   29.4170   43.1670 N   0  0  0  0  0  0  0  0  0  0  0  0
   37.1530   25.9470   40.9190 C   0  0  0  0  0  0  0  0  0  0  0  0
   37.2020   25.6280   39.6100 N   0  0  0  0  0  0  0  0  0  0  0  0
   37.0320   24.3440   39.4780 O   0  0  0  0  0  0  0  0  0  0  0  0
   36.8680   23.7590   40.6160 C   0  0  0  0  0  0  0  0  0  0  0  0
   36.9410   24.7390   41.5180 N   0  0  0  0  0  0  0  0  0  0  0  0
   40.1270   30.9270   42.0960 C   0  0  0  0  0  0  0  0  0  0  0  0
   41.2840   31.6610   41.8730 F   0  0  0  0  0  0  0  0  0  0  0  0
   40.3550   29.5730   42.0580 F   0  0  0  0  0  0  0  0  0  0  0  0
   39.8460   31.1890   43.4650 F   0  0  0  0  0  0  0  0  0  0  0  0
   35.8303   30.7189   40.2267 H   0  0  0  0  0  0  0  0  0  0  0  0
   36.1926   32.8436   38.9833 H   0  0  0  0  0  0  0  0  0  0  0  0
   38.3635   34.0013   39.2272 H   0  0  0  0  0  0  0  0  0  0  0  0
   40.1247   33.0893   40.6575 H   0  0  0  0  0  0  0  0  0  0  0  0
   37.2030   28.2662   44.9256 H   0  0  0  0  0  0  0  0  0  0  0  0
   36.9988   26.1164   43.6186 H   0  0  0  0  0  0  0  0  0  0  0  0
   36.7040   22.6873   40.8018 H   0  0  0  0  0  0  0  0  0  0  0  0
  1  6  1  0
  1 11  1  0
  2  1  2  0
  3  4  2  0
  3  2  1  0
  4  5  1  0
  5  6  2  0
  6 18  1  0
  8  7  2  0
  9  8  1  0
 10  9  2  0
 10 11  1  0
 11 12  2  0
 12  7  1  0
 13 17  1  0
 13  9  1  0
 14 13  2  0
 15 14  1  0
 15 16  1  0
 16 17  2  0
 18 21  1  0
 19 18  1  0
 20 18  1  0
  2 22  1  0
  3 23  1  0
  4 24  1  0
  5 25  1  0
  7 26  1  0
  8 27  1  0
 16 28  1  0
M  ISO  7  22  14  23  14  24  14  25  14  26  14  27  14  28  14
M  END
>  <minimizedAffinity>  (1) 
-5.13075781

>  <minimizedRMSD>  (1) 
1.01180768

$$$$
