
     RDKit          3D

 32 33  0  0  0  0  0  0  0  0999 V2000
   37.8090   30.7080   41.1250 C   0  0  0  0  0  0  0  0  0  0  0  0
   36.8030   31.2210   40.3020 C   0  0  0  0  0  0  0  0  0  0  0  0
   36.9880   32.4020   39.6280 C   0  0  0  0  0  0  0  0  0  0  0  0
   38.1680   33.0620   39.7770 C   0  0  0  0  0  0  0  0  0  0  0  0
   39.1510   32.5540   40.5860 C   0  0  0  0  0  0  0  0  0  0  0  0
   38.9890   31.3790   41.2670 C   0  0  0  0  0  0  0  0  0  0  0  0
   37.2610   28.2190   43.7800 C   0  0  0  0  0  0  0  0  0  0  0  0
   37.2480   27.0240   43.0560 C   0  0  0  0  0  0  0  0  0  0  0  0
   37.4250   27.0970   41.6900 C   0  0  0  0  0  0  0  0  0  0  0  0
   37.6020   28.2970   41.1100 N   0  0  0  0  0  0  0  0  0  0  0  0
   37.6110   29.4560   41.8370 C   0  0  0  0  0  0  0  0  0  0  0  0
   37.4420   29.3750   43.1350 N   0  0  0  0  0  0  0  0  0  0  0  0
   37.4230   25.8620   40.8400 C   0  0  0  0  0  0  0  0  0  0  0  0
   36.9310   24.6620   41.5790 C   0  0  0  0  0  0  0  0  0  0  0  0
   36.5710   26.1730   39.6120 C   0  0  0  0  0  0  0  0  0  0  0  0
   40.1360   30.9490   42.1060 C   0  0  0  0  0  0  0  0  0  0  0  0
   41.2790   31.7010   41.8990 F   0  0  0  0  0  0  0  0  0  0  0  0
   40.3840   29.6060   42.0790 F   0  0  0  0  0  0  0  0  0  0  0  0
   39.8410   31.2050   43.4700 F   0  0  0  0  0  0  0  0  0  0  0  0
   35.8550   30.6737   40.1935 H   0  0  0  0  0  0  0  0  0  0  0  0
   36.1971   32.8072   38.9796 H   0  0  0  0  0  0  0  0  0  0  0  0
   38.3346   34.0100   39.2446 H   0  0  0  0  0  0  0  0  0  0  0  0
   40.0963   33.1066   40.6904 H   0  0  0  0  0  0  0  0  0  0  0  0
   37.1234   28.2081   44.8713 H   0  0  0  0  0  0  0  0  0  0  0  0
   37.1014   26.0567   43.5589 H   0  0  0  0  0  0  0  0  0  0  0  0
   38.4496   25.6031   40.5416 H   0  0  0  0  0  0  0  0  0  0  0  0
   37.0049   24.8423   42.6616 H   0  0  0  0  0  0  0  0  0  0  0  0
   35.8817   24.4704   41.3100 H   0  0  0  0  0  0  0  0  0  0  0  0
   37.5438   23.7890   41.3100 H   0  0  0  0  0  0  0  0  0  0  0  0
   35.5827   26.5337   39.9332 H   0  0  0  0  0  0  0  0  0  0  0  0
   37.0662   26.9484   39.0090 H   0  0  0  0  0  0  0  0  0  0  0  0
   36.4502   25.2610   39.0090 H   0  0  0  0  0  0  0  0  0  0  0  0
  1  6  1  0
  1 11  1  0
  2  1  2  0
  3  4  2  0
  3  2  1  0
  4  5  1  0
  5  6  2  0
  6 16  1  0
  8  7  2  0
  9  8  1  0
 10  9  2  0
 10 11  1  0
 11 12  2  0
 12  7  1  0
 13 14  1  0
 13  9  1  0
 15 13  1  0
 16 19  1  0
 17 16  1  0
 18 16  1  0
  2 20  1  0
  3 21  1  0
  4 22  1  0
  5 23  1  0
  7 24  1  0
  8 25  1  0
 13 26  1  0
 14 27  1  0
 14 28  1  0
 14 29  1  0
 15 30  1  0
 15 31  1  0
 15 32  1  0
M  ISO  8  20  14  21  14  22  14  23  14  24  14  25  14  26   8  27   8
M  ISO  5  28   8  29   8  30   8  31   8  32   8
M  END
>  <minimizedAffinity>  (1) 
-5.11253977

>  <minimizedRMSD>  (1) 
0.786858201

$$$$
