
     RDKit          3D

 25 26  0  0  0  0  0  0  0  0999 V2000
   37.8580   30.8880   41.0210 C   0  0  0  0  0  0  0  0  0  0  0  0
   36.8490   31.4500   40.2220 C   0  0  0  0  0  0  0  0  0  0  0  0
   37.0150   32.6990   39.6670 C   0  0  0  0  0  0  0  0  0  0  0  0
   38.1770   33.3720   39.9090 C   0  0  0  0  0  0  0  0  0  0  0  0
   39.1630   32.8250   40.6870 C   0  0  0  0  0  0  0  0  0  0  0  0
   39.0130   31.5850   41.2460 C   0  0  0  0  0  0  0  0  0  0  0  0
   37.2420   28.1660   43.4120 C   0  0  0  0  0  0  0  0  0  0  0  0
   37.3720   27.0370   42.6190 C   0  0  0  0  0  0  0  0  0  0  0  0
   37.6660   27.2400   41.2970 C   0  0  0  0  0  0  0  0  0  0  0  0
   37.8180   28.4840   40.8040 N   0  0  0  0  0  0  0  0  0  0  0  0
   37.6840   29.5700   41.6070 C   0  0  0  0  0  0  0  0  0  0  0  0
   37.4010   29.3940   42.8860 N   0  0  0  0  0  0  0  0  0  0  0  0
   37.8120   26.0810   40.4230 C   0  0  0  0  0  0  0  0  0  0  0  0
   36.9550   25.1590   40.4060 O   0  0  0  0  0  0  0  0  0  0  0  0
   40.1580   31.1090   42.0680 C   0  0  0  0  0  0  0  0  0  0  0  0
   41.2750   31.9120   41.9760 F   0  0  0  0  0  0  0  0  0  0  0  0
   40.4480   29.7790   41.9020 F   0  0  0  0  0  0  0  0  0  0  0  0
   39.8250   31.1990   43.4420 F   0  0  0  0  0  0  0  0  0  0  0  0
   35.9207   30.8891   40.0385 H   0  0  0  0  0  0  0  0  0  0  0  0
   36.2275   33.1449   39.0417 H   0  0  0  0  0  0  0  0  0  0  0  0
   38.3246   34.3706   39.4720 H   0  0  0  0  0  0  0  0  0  0  0  0
   40.0892   33.3911   40.8650 H   0  0  0  0  0  0  0  0  0  0  0  0
   37.0067   28.0572   44.4810 H   0  0  0  0  0  0  0  0  0  0  0  0
   37.2450   26.0254   43.0320 H   0  0  0  0  0  0  0  0  0  0  0  0
   38.6903   26.0112   39.7644 H   0  0  0  0  0  0  0  0  0  0  0  0
  1  6  1  0
  1 11  1  0
  2  1  2  0
  3  4  2  0
  3  2  1  0
  4  5  1  0
  5  6  2  0
  6 15  1  0
  8  7  2  0
  9  8  1  0
 10  9  2  0
 10 11  1  0
 11 12  2  0
 12  7  1  0
 13  9  1  0
 14 13  2  0
 15 18  1  0
 16 15  1  0
 17 15  1  0
  2 19  1  0
  3 20  1  0
  4 21  1  0
  5 22  1  0
  7 23  1  0
  8 24  1  0
 13 25  1  0
M  ISO  7  19  14  20  14  21  14  22  14  23  14  24  14  25   6
M  END
>  <minimizedAffinity>  (1) 
-4.56753922

>  <minimizedRMSD>  (1) 
0.375083566

$$$$
