
     RDKit          3D

 24 25  0  0  0  0  0  0  0  0999 V2000
   37.9260   31.1260   40.8570 C   0  0  0  0  0  0  0  0  0  0  0  0
   36.9500   31.7490   40.0690 C   0  0  0  0  0  0  0  0  0  0  0  0
   37.1310   33.0290   39.5960 C   0  0  0  0  0  0  0  0  0  0  0  0
   38.3000   33.6770   39.9190 C   0  0  0  0  0  0  0  0  0  0  0  0
   39.2500   33.0620   40.6880 C   0  0  0  0  0  0  0  0  0  0  0  0
   39.0790   31.7860   41.1640 C   0  0  0  0  0  0  0  0  0  0  0  0
   37.1520   28.2620   43.0180 C   0  0  0  0  0  0  0  0  0  0  0  0
   37.3590   27.1840   42.1680 C   0  0  0  0  0  0  0  0  0  0  0  0
   37.7570   27.4550   40.8830 C   0  0  0  0  0  0  0  0  0  0  0  0
   37.9330   28.7350   40.4830 N   0  0  0  0  0  0  0  0  0  0  0  0
   37.7210   29.7800   41.3460 C   0  0  0  0  0  0  0  0  0  0  0  0
   37.3370   29.5130   42.5820 N   0  0  0  0  0  0  0  0  0  0  0  0
   37.9970   26.4530   39.9350 O   0  0  0  0  0  0  0  0  0  0  0  0
   40.1880   31.2500   41.9820 C   0  0  0  0  0  0  0  0  0  0  0  0
   41.3100   32.0580   41.9800 F   0  0  0  0  0  0  0  0  0  0  0  0
   40.4900   29.9290   41.7130 F   0  0  0  0  0  0  0  0  0  0  0  0
   39.8170   31.2400   43.3450 F   0  0  0  0  0  0  0  0  0  0  0  0
   36.0245   31.2071   39.8243 H   0  0  0  0  0  0  0  0  0  0  0  0
   36.3637   33.5186   38.9783 H   0  0  0  0  0  0  0  0  0  0  0  0
   38.4732   34.7006   39.5553 H   0  0  0  0  0  0  0  0  0  0  0  0
   40.1754   33.6046   40.9312 H   0  0  0  0  0  0  0  0  0  0  0  0
   36.8339   28.0863   44.0563 H   0  0  0  0  0  0  0  0  0  0  0  0
   37.2094   26.1500   42.5122 H   0  0  0  0  0  0  0  0  0  0  0  0
   38.2830   26.6965   39.0190 H   0  0  0  0  0  0  0  0  0  0  0  0
  1  6  1  0
  1 11  1  0
  2  1  2  0
  3  4  2  0
  3  2  1  0
  4  5  1  0
  5  6  2  0
  6 14  1  0
  8  7  2  0
  9  8  1  0
 10  9  2  0
 10 11  1  0
 11 12  2  0
 12  7  1  0
 13  9  1  0
 14 17  1  0
 15 14  1  0
 16 14  1  0
  2 18  1  0
  3 19  1  0
  4 20  1  0
  5 21  1  0
  7 22  1  0
  8 23  1  0
 13 24  1  0
M  ISO  7  18  14  19  14  20  14  21  14  22  14  23  14  24   3
M  END
>  <minimizedAffinity>  (1) 
-4.56080484

>  <minimizedRMSD>  (1) 
0.0100052645

$$$$
