
     RDKit          3D

 43 46  0  0  0  0  0  0  0  0999 V2000
   37.2380   28.2900   43.4500 C   0  0  0  0  0  0  0  0  0  0  0  0
   37.0290   27.2030   42.6180 C   0  0  0  0  0  0  0  0  0  0  0  0
   37.0920   27.4140   41.2600 C   0  0  0  0  0  0  0  0  0  0  0  0
   37.3470   28.6350   40.7840 N   0  0  0  0  0  0  0  0  0  0  0  0
   37.5510   29.7000   41.6200 C   0  0  0  0  0  0  0  0  0  0  0  0
   37.4900   29.4950   42.9160 N   0  0  0  0  0  0  0  0  0  0  0  0
   37.8220   30.9970   41.0310 C   0  0  0  0  0  0  0  0  0  0  0  0
   36.8390   31.6330   40.2420 C   0  0  0  0  0  0  0  0  0  0  0  0
   37.0980   32.8700   39.6800 C   0  0  0  0  0  0  0  0  0  0  0  0
   38.3100   33.4420   39.9090 C   0  0  0  0  0  0  0  0  0  0  0  0
   39.2750   32.8250   40.6790 C   0  0  0  0  0  0  0  0  0  0  0  0
   39.0200   31.5930   41.2400 C   0  0  0  0  0  0  0  0  0  0  0  0
   40.1330   31.0340   42.0460 C   0  0  0  0  0  0  0  0  0  0  0  0
   41.3180   31.7430   41.9170 F   0  0  0  0  0  0  0  0  0  0  0  0
   40.3360   29.6790   41.8560 F   0  0  0  0  0  0  0  0  0  0  0  0
   39.8310   31.1480   43.4230 F   0  0  0  0  0  0  0  0  0  0  0  0
   36.8880   26.3430   40.3030 C   0  0  0  0  0  0  0  0  0  0  0  0
   37.1930   24.9970   40.4240 C   0  0  0  0  0  0  0  0  0  0  0  0
   36.8150   24.4020   39.2650 N   0  0  0  0  0  0  0  0  0  0  0  0
   36.2910   25.3240   38.4360 C   0  0  0  0  0  0  0  0  0  0  0  0
   36.3510   26.5000   39.0990 N   0  0  0  0  0  0  0  0  0  0  0  0
   35.8740   27.7160   38.5140 C   0  0  0  0  0  0  0  0  0  0  0  0
   34.6060   27.6080   37.7360 C   0  0  0  0  0  0  0  0  0  0  0  0
   34.5490   28.9890   37.0720 C   0  0  0  0  0  0  0  0  0  0  0  0
   35.9910   29.4820   37.0290 C   0  0  0  0  0  0  0  0  0  0  0  0
   36.8150   28.2560   37.4290 C   0  0  0  0  0  0  0  0  0  0  0  0
   37.1977   28.1664   44.5423 H   0  0  0  0  0  0  0  0  0  0  0  0
   36.8196   26.2044   43.0291 H   0  0  0  0  0  0  0  0  0  0  0  0
   35.8676   31.1450   40.0743 H   0  0  0  0  0  0  0  0  0  0  0  0
   36.3423   33.3783   39.0632 H   0  0  0  0  0  0  0  0  0  0  0  0
   38.5279   34.4257   39.4675 H   0  0  0  0  0  0  0  0  0  0  0  0
   40.2454   33.3159   40.8443 H   0  0  0  0  0  0  0  0  0  0  0  0
   37.6535   24.5050   41.2934 H   0  0  0  0  0  0  0  0  0  0  0  0
   35.8944   25.1546   37.4241 H   0  0  0  0  0  0  0  0  0  0  0  0
   35.7683   28.3410   39.4130 H   0  0  0  0  0  0  0  0  0  0  0  0
   34.6584   26.8026   36.9886 H   0  0  0  0  0  0  0  0  0  0  0  0
   33.7224   27.3607   38.3427 H   0  0  0  0  0  0  0  0  0  0  0  0
   34.1398   28.9092   36.0541 H   0  0  0  0  0  0  0  0  0  0  0  0
   33.8982   29.6811   37.6265 H   0  0  0  0  0  0  0  0  0  0  0  0
   36.2586   29.8194   36.0168 H   0  0  0  0  0  0  0  0  0  0  0  0
   36.1637   30.3423   37.6924 H   0  0  0  0  0  0  0  0  0  0  0  0
   36.9414   27.5484   36.5963 H   0  0  0  0  0  0  0  0  0  0  0  0
   37.8520   28.4501   37.7403 H   0  0  0  0  0  0  0  0  0  0  0  0
  2  1  2  0
  3  2  1  0
  4  3  2  0
  4  5  1  0
  5  6  2  0
  6  1  1  0
  7 12  1  0
  7  5  1  0
  8  7  2  0
  9 10  2  0
  9  8  1  0
 10 11  1  0
 11 12  2  0
 12 13  1  0
 13 16  1  0
 14 13  1  0
 15 13  1  0
 17 18  2  0
 17  3  1  0
 19 18  1  0
 20 21  1  0
 20 19  2  0
 21 17  1  0
 22 21  1  0
 23 22  1  0
 24 23  1  0
 25 24  1  0
 25 26  1  0
 26 22  1  0
  1 27  1  0
  2 28  1  0
  8 29  1  0
  9 30  1  0
 10 31  1  0
 11 32  1  0
 18 33  1  0
 20 34  1  0
 22 35  1  0
 23 36  1  0
 23 37  1  0
 24 38  1  0
 24 39  1  0
 25 40  1  0
 25 41  1  0
 26 42  1  0
 26 43  1  0
M  ISO  8  27  14  28  14  29  14  30  14  31  14  32  14  33  14  34  14
M  ISO  8  35  13  36  13  37  13  38  13  39  13  40  13  41  13  42  13
M  ISO  1  43  13
M  END
>  <minimizedAffinity>  (1) 
-5.78012657

>  <minimizedRMSD>  (1) 
1.03664505

$$$$
