
     RDKit          3D

 37 40  0  0  0  0  0  0  0  0999 V2000
   37.2720   28.2500   43.5000 C   0  0  0  0  0  0  0  0  0  0  0  0
   37.2320   27.1280   42.6880 C   0  0  0  0  0  0  0  0  0  0  0  0
   37.3980   27.3030   41.3450 C   0  0  0  0  0  0  0  0  0  0  0  0
   37.5930   28.5350   40.8500 N   0  0  0  0  0  0  0  0  0  0  0  0
   37.6330   29.6350   41.6440 C   0  0  0  0  0  0  0  0  0  0  0  0
   37.4720   29.4590   42.9380 N   0  0  0  0  0  0  0  0  0  0  0  0
   37.8480   30.9350   41.0410 C   0  0  0  0  0  0  0  0  0  0  0  0
   36.8500   31.5120   40.2440 C   0  0  0  0  0  0  0  0  0  0  0  0
   37.0540   32.7520   39.6690 C   0  0  0  0  0  0  0  0  0  0  0  0
   38.2430   33.3930   39.8970 C   0  0  0  0  0  0  0  0  0  0  0  0
   39.2150   32.8190   40.6790 C   0  0  0  0  0  0  0  0  0  0  0  0
   39.0350   31.5880   41.2610 C   0  0  0  0  0  0  0  0  0  0  0  0
   40.1580   31.0880   42.0750 C   0  0  0  0  0  0  0  0  0  0  0  0
   41.3080   31.8590   41.9460 F   0  0  0  0  0  0  0  0  0  0  0  0
   40.4250   29.7480   41.8920 F   0  0  0  0  0  0  0  0  0  0  0  0
   39.8430   31.1900   43.4500 F   0  0  0  0  0  0  0  0  0  0  0  0
   37.3740   26.1980   40.4000 C   0  0  0  0  0  0  0  0  0  0  0  0
   37.8240   24.9060   40.5430 C   0  0  0  0  0  0  0  0  0  0  0  0
   37.5840   24.2460   39.3860 N   0  0  0  0  0  0  0  0  0  0  0  0
   36.9900   25.1040   38.5130 C   0  0  0  0  0  0  0  0  0  0  0  0
   36.8910   26.2540   39.1760 N   0  0  0  0  0  0  0  0  0  0  0  0
   36.2880   27.3730   38.4900 C   0  0  0  0  0  0  0  0  0  0  0  0
   35.1480   28.0470   38.5130 C   0  0  0  0  0  0  0  0  0  0  0  0
   34.9250   29.0880   37.6840 C   0  0  0  0  0  0  0  0  0  0  0  0
   35.9790   29.3980   36.8050 C   0  0  0  0  0  0  0  0  0  0  0  0
   37.2790   28.1070   37.2570 S   0  0  0  0  0  0  0  0  0  0  0  0
   37.1424   28.1556   44.5882 H   0  0  0  0  0  0  0  0  0  0  0  0
   37.0713   26.1263   43.1132 H   0  0  0  0  0  0  0  0  0  0  0  0
   35.9034   30.9774   40.0760 H   0  0  0  0  0  0  0  0  0  0  0  0
   36.2780   33.2145   39.0415 H   0  0  0  0  0  0  0  0  0  0  0  0
   38.4216   34.3810   39.4475 H   0  0  0  0  0  0  0  0  0  0  0  0
   40.1599   33.3577   40.8431 H   0  0  0  0  0  0  0  0  0  0  0  0
   38.2968   24.4828   41.4415 H   0  0  0  0  0  0  0  0  0  0  0  0
   36.6630   24.8934   37.4841 H   0  0  0  0  0  0  0  0  0  0  0  0
   34.3639   27.7508   39.2253 H   0  0  0  0  0  0  0  0  0  0  0  0
   33.9830   29.6558   37.6947 H   0  0  0  0  0  0  0  0  0  0  0  0
   36.0319   30.1924   36.0459 H   0  0  0  0  0  0  0  0  0  0  0  0
  2  1  2  0
  3  2  1  0
  4  3  2  0
  4  5  1  0
  5  6  2  0
  6  1  1  0
  7 12  1  0
  7  5  1  0
  8  7  2  0
  9 10  2  0
  9  8  1  0
 10 11  1  0
 11 12  2  0
 12 13  1  0
 13 16  1  0
 14 13  1  0
 15 13  1  0
 17 18  2  0
 17  3  1  0
 19 18  1  0
 20 21  1  0
 20 19  2  0
 21 17  1  0
 22 23  2  0
 22 21  1  0
 24 23  1  0
 25 26  1  0
 25 24  2  0
 26 22  1  0
  1 27  1  0
  2 28  1  0
  8 29  1  0
  9 30  1  0
 10 31  1  0
 11 32  1  0
 18 33  1  0
 20 34  1  0
 23 35  1  0
 24 36  1  0
 25 37  1  0
M  ISO  8  27  14  28  14  29  14  30  14  31  14  32  14  33  14  34  14
M  ISO  3  35  14  36  14  37  14
M  END
>  <minimizedAffinity>  (1) 
-5.63568687

>  <minimizedRMSD>  (1) 
0.76860714

$$$$
