
     RDKit          3D

 38 41  0  0  0  0  0  0  0  0999 V2000
   38.2560   33.8750   40.1920 C   0  0  0  0  0  0  0  0  0  0  0  0
   39.4420   33.4500   40.7900 C   0  0  0  0  0  0  0  0  0  0  0  0
   39.6290   32.0970   40.9560 C   0  0  0  0  0  0  0  0  0  0  0  0
   38.6800   31.2330   40.5450 N   0  0  0  0  0  0  0  0  0  0  0  0
   37.5300   31.6680   39.9650 C   0  0  0  0  0  0  0  0  0  0  0  0
   37.3510   32.9670   39.8050 N   0  0  0  0  0  0  0  0  0  0  0  0
   36.5580   30.6820   39.5490 C   0  0  0  0  0  0  0  0  0  0  0  0
   35.6390   30.1520   40.4720 C   0  0  0  0  0  0  0  0  0  0  0  0
   34.7110   29.2120   40.0730 C   0  0  0  0  0  0  0  0  0  0  0  0
   34.7030   28.8050   38.7630 C   0  0  0  0  0  0  0  0  0  0  0  0
   35.5990   29.3270   37.8740 C   0  0  0  0  0  0  0  0  0  0  0  0
   36.5240   30.2570   38.2470 C   0  0  0  0  0  0  0  0  0  0  0  0
   37.4380   30.7360   37.1710 C   0  0  0  0  0  0  0  0  0  0  0  0
   37.0890   30.2550   35.9170 F   0  0  0  0  0  0  0  0  0  0  0  0
   38.7660   30.5480   37.4340 F   0  0  0  0  0  0  0  0  0  0  0  0
   37.3050   32.1490   37.0320 F   0  0  0  0  0  0  0  0  0  0  0  0
   40.8300   31.5420   41.5680 C   0  0  0  0  0  0  0  0  0  0  0  0
   41.0400   31.1860   42.8850 C   0  0  0  0  0  0  0  0  0  0  0  0
   42.3140   30.7190   42.9640 N   0  0  0  0  0  0  0  0  0  0  0  0
   42.8840   30.7800   41.7370 C   0  0  0  0  0  0  0  0  0  0  0  0
   41.9560   31.2870   40.8990 N   0  0  0  0  0  0  0  0  0  0  0  0
   42.2070   31.4950   39.5130 C   0  0  0  0  0  0  0  0  0  0  0  0
   42.8500   32.6670   39.1580 C   0  0  0  0  0  0  0  0  0  0  0  0
   43.1160   32.9150   37.8270 C   0  0  0  0  0  0  0  0  0  0  0  0
   42.7660   32.0420   36.8370 N   0  0  0  0  0  0  0  0  0  0  0  0
   42.1380   30.9070   37.2310 C   0  0  0  0  0  0  0  0  0  0  0  0
   41.8530   30.6170   38.5300 N   0  0  0  0  0  0  0  0  0  0  0  0
   38.0654   34.9476   40.0394 H   0  0  0  0  0  0  0  0  0  0  0  0
   40.2033   34.1730   41.1183 H   0  0  0  0  0  0  0  0  0  0  0  0
   35.6600   30.4890   41.5189 H   0  0  0  0  0  0  0  0  0  0  0  0
   33.9904   28.7963   40.7927 H   0  0  0  0  0  0  0  0  0  0  0  0
   33.9718   28.0550   38.4270 H   0  0  0  0  0  0  0  0  0  0  0  0
   35.5737   28.9877   36.8279 H   0  0  0  0  0  0  0  0  0  0  0  0
   40.3169   31.2649   43.7102 H   0  0  0  0  0  0  0  0  0  0  0  0
   43.9075   30.4747   41.4740 H   0  0  0  0  0  0  0  0  0  0  0  0
   43.1462   33.3938   39.9287 H   0  0  0  0  0  0  0  0  0  0  0  0
   43.6283   33.8493   37.5536 H   0  0  0  0  0  0  0  0  0  0  0  0
   41.8428   30.1811   36.4591 H   0  0  0  0  0  0  0  0  0  0  0  0
  1  2  2  0
  2  3  1  0
  3 17  1  0
  4  3  2  0
  5  4  1  0
  6  5  2  0
  6  1  1  0
  7  5  1  0
  7  8  2  0
  9  8  1  0
 10  9  2  0
 11 12  2  0
 11 10  1  0
 12  7  1  0
 13 15  1  0
 13 12  1  0
 14 13  1  0
 16 13  1  0
 17 18  2  0
 18 19  1  0
 20 19  2  0
 21 17  1  0
 21 20  1  0
 22 21  1  0
 23 22  2  0
 24 23  1  0
 25 26  1  0
 25 24  2  0
 26 27  2  0
 27 22  1  0
  1 28  1  0
  2 29  1  0
  8 30  1  0
  9 31  1  0
 10 32  1  0
 11 33  1  0
 18 34  1  0
 20 35  1  0
 23 36  1  0
 24 37  1  0
 26 38  1  0
M  ISO  8  28  14  29  14  30  14  31  14  32  14  33  14  34  14  35  14
M  ISO  3  36  14  37  14  38  14
M  END
>  <minimizedAffinity>  (1) 
-5.61380243

>  <minimizedRMSD>  (1) 
6.76831293

$$$$
