
     RDKit          3D

 35 38  0  0  0  0  0  0  0  0999 V2000
   37.2700   28.2020   43.4420 C   0  0  0  0  0  0  0  0  0  0  0  0
   37.3760   27.0850   42.6310 C   0  0  0  0  0  0  0  0  0  0  0  0
   37.6560   27.2760   41.3060 C   0  0  0  0  0  0  0  0  0  0  0  0
   37.8210   28.5290   40.8170 N   0  0  0  0  0  0  0  0  0  0  0  0
   37.7120   29.6110   41.6380 C   0  0  0  0  0  0  0  0  0  0  0  0
   37.4420   29.4190   42.9110 N   0  0  0  0  0  0  0  0  0  0  0  0
   37.7890   26.1710   40.3620 C   0  0  0  0  0  0  0  0  0  0  0  0
   38.3770   24.9350   40.5660 C   0  0  0  0  0  0  0  0  0  0  0  0
   38.2480   24.2560   39.3810 N   0  0  0  0  0  0  0  0  0  0  0  0
   37.6090   25.0370   38.4820 C   0  0  0  0  0  0  0  0  0  0  0  0
   37.3390   26.2020   39.1030 N   0  0  0  0  0  0  0  0  0  0  0  0
   36.6550   27.2850   38.4410 C   0  0  0  0  0  0  0  0  0  0  0  0
   37.2760   28.2590   37.7150 N   0  0  0  0  0  0  0  0  0  0  0  0
   36.3180   29.0340   37.2900 O   0  0  0  0  0  0  0  0  0  0  0  0
   35.1480   28.6070   37.7050 C   0  0  0  0  0  0  0  0  0  0  0  0
   35.3050   27.4930   38.4430 N   0  0  0  0  0  0  0  0  0  0  0  0
   37.9000   30.9240   41.0550 C   0  0  0  0  0  0  0  0  0  0  0  0
   36.8840   31.4940   40.2540 C   0  0  0  0  0  0  0  0  0  0  0  0
   37.0590   32.7460   39.6950 C   0  0  0  0  0  0  0  0  0  0  0  0
   38.2360   33.4110   39.9410 C   0  0  0  0  0  0  0  0  0  0  0  0
   39.2230   32.8510   40.7230 C   0  0  0  0  0  0  0  0  0  0  0  0
   39.0470   31.6070   41.2760 C   0  0  0  0  0  0  0  0  0  0  0  0
   40.1830   31.1260   42.0920 C   0  0  0  0  0  0  0  0  0  0  0  0
   41.3210   31.9210   41.9850 F   0  0  0  0  0  0  0  0  0  0  0  0
   40.4920   29.7930   41.9100 F   0  0  0  0  0  0  0  0  0  0  0  0
   39.8630   31.2110   43.4690 F   0  0  0  0  0  0  0  0  0  0  0  0
   37.0464   28.0906   44.5133 H   0  0  0  0  0  0  0  0  0  0  0  0
   37.2390   26.0733   43.0404 H   0  0  0  0  0  0  0  0  0  0  0  0
   38.8510   24.5713   41.4896 H   0  0  0  0  0  0  0  0  0  0  0  0
   37.3579   24.7728   37.4441 H   0  0  0  0  0  0  0  0  0  0  0  0
   34.1839   29.0878   37.4827 H   0  0  0  0  0  0  0  0  0  0  0  0
   35.9511   30.9393   40.0750 H   0  0  0  0  0  0  0  0  0  0  0  0
   36.2758   33.1985   39.0690 H   0  0  0  0  0  0  0  0  0  0  0  0
   38.3934   34.4089   39.5057 H   0  0  0  0  0  0  0  0  0  0  0  0
   40.1565   33.4037   40.9049 H   0  0  0  0  0  0  0  0  0  0  0  0
  2  1  2  0
  3  2  1  0
  4  3  2  0
  4  5  1  0
  5  6  2  0
  6  1  1  0
  7  8  2  0
  7  3  1  0
  9  8  1  0
 10 11  1  0
 10  9  2  0
 11  7  1  0
 12 16  1  0
 12 11  1  0
 13 12  2  0
 14 15  1  0
 14 13  1  0
 15 16  2  0
 17 22  1  0
 17  5  1  0
 18 17  2  0
 19 20  2  0
 19 18  1  0
 20 21  1  0
 21 22  2  0
 22 23  1  0
 23 26  1  0
 24 23  1  0
 25 23  1  0
  1 27  1  0
  2 28  1  0
  8 29  1  0
 10 30  1  0
 15 31  1  0
 18 32  1  0
 19 33  1  0
 20 34  1  0
 21 35  1  0
M  ISO  8  27  14  28  14  29  14  30  14  31  14  32  14  33  14  34  14
M  ISO  1  35  14
M  END
>  <minimizedAffinity>  (1) 
-5.5843215

>  <minimizedRMSD>  (1) 
0.834452331

$$$$
