
     RDKit          3D

 37 40  0  0  0  0  0  0  0  0999 V2000
   37.2570   28.2900   43.4490 C   0  0  0  0  0  0  0  0  0  0  0  0
   37.1170   27.1930   42.6170 C   0  0  0  0  0  0  0  0  0  0  0  0
   37.2200   27.3950   41.2630 C   0  0  0  0  0  0  0  0  0  0  0  0
   37.4520   28.6360   40.7910 N   0  0  0  0  0  0  0  0  0  0  0  0
   37.5870   29.7040   41.6150 C   0  0  0  0  0  0  0  0  0  0  0  0
   37.4860   29.4970   42.9110 N   0  0  0  0  0  0  0  0  0  0  0  0
   37.8330   31.0050   41.0350 C   0  0  0  0  0  0  0  0  0  0  0  0
   36.8510   31.6370   40.2540 C   0  0  0  0  0  0  0  0  0  0  0  0
   37.0850   32.8770   39.7000 C   0  0  0  0  0  0  0  0  0  0  0  0
   38.2870   33.4700   39.9280 C   0  0  0  0  0  0  0  0  0  0  0  0
   39.2510   32.8620   40.6880 C   0  0  0  0  0  0  0  0  0  0  0  0
   39.0380   31.6260   41.2500 C   0  0  0  0  0  0  0  0  0  0  0  0
   40.1560   31.0690   42.0520 C   0  0  0  0  0  0  0  0  0  0  0  0
   41.3190   31.8160   41.9340 F   0  0  0  0  0  0  0  0  0  0  0  0
   40.3860   29.7410   41.8290 F   0  0  0  0  0  0  0  0  0  0  0  0
   39.8540   31.1590   43.4200 F   0  0  0  0  0  0  0  0  0  0  0  0
   37.0930   26.3200   40.2950 C   0  0  0  0  0  0  0  0  0  0  0  0
   37.4810   24.9940   40.4010 C   0  0  0  0  0  0  0  0  0  0  0  0
   37.1480   24.3860   39.2360 N   0  0  0  0  0  0  0  0  0  0  0  0
   36.5610   25.3060   38.4140 C   0  0  0  0  0  0  0  0  0  0  0  0
   36.5480   26.4580   39.0910 N   0  0  0  0  0  0  0  0  0  0  0  0
   35.9780   27.5980   38.4420 C   0  0  0  0  0  0  0  0  0  0  0  0
   34.7040   28.0890   38.2240 C   0  0  0  0  0  0  0  0  0  0  0  0
   34.8060   29.2470   37.5280 N   0  0  0  0  0  0  0  0  0  0  0  0
   36.1180   29.4570   37.3260 C   0  0  0  0  0  0  0  0  0  0  0  0
   36.8440   28.4710   37.8730 N   0  0  0  0  0  0  0  0  0  0  0  0
   37.1812   28.1732   44.5402 H   0  0  0  0  0  0  0  0  0  0  0  0
   36.9290   26.1901   43.0279 H   0  0  0  0  0  0  0  0  0  0  0  0
   35.8861   31.1373   40.0830 H   0  0  0  0  0  0  0  0  0  0  0  0
   36.3181   33.3747   39.0884 H   0  0  0  0  0  0  0  0  0  0  0  0
   38.4899   34.4596   39.4927 H   0  0  0  0  0  0  0  0  0  0  0  0
   40.2120   33.3717   40.8513 H   0  0  0  0  0  0  0  0  0  0  0  0
   37.9678   24.5231   41.2677 H   0  0  0  0  0  0  0  0  0  0  0  0
   36.1761   25.1330   37.3982 H   0  0  0  0  0  0  0  0  0  0  0  0
   33.7672   27.6195   38.5586 H   0  0  0  0  0  0  0  0  0  0  0  0
   36.5383   30.3186   36.7865 H   0  0  0  0  0  0  0  0  0  0  0  0
   37.8709   28.3919   37.8625 H   0  0  0  0  0  0  0  0  0  0  0  0
  2  1  2  0
  3  2  1  0
  4  3  2  0
  4  5  1  0
  5  6  2  0
  6  1  1  0
  7 12  1  0
  7  5  1  0
  8  7  2  0
  9 10  2  0
  9  8  1  0
 10 11  1  0
 11 12  2  0
 12 13  1  0
 13 16  1  0
 14 13  1  0
 15 13  1  0
 17 18  2  0
 17  3  1  0
 19 18  1  0
 20 21  1  0
 20 19  2  0
 21 17  1  0
 22 21  1  0
 23 22  2  0
 24 23  1  0
 25 24  2  0
 25 26  1  0
 26 22  1  0
  1 27  1  0
  2 28  1  0
  8 29  1  0
  9 30  1  0
 10 31  1  0
 11 32  1  0
 18 33  1  0
 20 34  1  0
 23 35  1  0
 25 36  1  0
 26 37  1  0
M  ISO  8  27  14  28  14  29  14  30  14  31  14  32  14  33  14  34  14
M  ISO  3  35  14  36  14  37   9
M  END
>  <minimizedAffinity>  (1) 
-5.5463109

>  <minimizedRMSD>  (1) 
0.843180299

$$$$
