
     RDKit          3D

 42 45  0  0  1  0  0  0  0  0999 V2000
   37.7260   28.2660   43.7360 C   0  0  0  0  0  0  0  0  0  0  0  0
   38.3950   27.2030   43.1560 C   0  0  0  0  0  0  0  0  0  0  0  0
   38.9650   27.3950   41.9180 C   0  0  0  0  0  0  0  0  0  0  0  0
   38.8550   28.5840   41.3250 N   0  0  0  0  0  0  0  0  0  0  0  0
   38.1990   29.6200   41.8980 C   0  0  0  0  0  0  0  0  0  0  0  0
   37.6560   29.4300   43.0830 N   0  0  0  0  0  0  0  0  0  0  0  0
   38.1270   30.8850   41.1790 C   0  0  0  0  0  0  0  0  0  0  0  0
   36.9460   31.2460   40.5040 C   0  0  0  0  0  0  0  0  0  0  0  0
   36.8800   32.4450   39.8250 C   0  0  0  0  0  0  0  0  0  0  0  0
   37.9800   33.2600   39.8270 C   0  0  0  0  0  0  0  0  0  0  0  0
   39.1250   32.9020   40.4860 C   0  0  0  0  0  0  0  0  0  0  0  0
   39.2110   31.7110   41.1700 C   0  0  0  0  0  0  0  0  0  0  0  0
   40.4970   31.4450   41.8350 C   0  0  0  0  0  0  0  0  0  0  0  0
   41.3770   32.5270   41.7880 F   0  0  0  0  0  0  0  0  0  0  0  0
   41.1150   30.2800   41.4330 F   0  0  0  0  0  0  0  0  0  0  0  0
   40.2900   31.2590   43.2330 F   0  0  0  0  0  0  0  0  0  0  0  0
   39.6930   26.3350   41.2180 C   0  0  0  0  0  0  0  0  0  0  0  0
   41.0060   25.9370   41.3920 C   0  0  0  0  0  0  0  0  0  0  0  0
   41.2100   24.9170   40.5100 N   0  0  0  0  0  0  0  0  0  0  0  0
   40.0760   24.6900   39.8160 C   0  0  0  0  0  0  0  0  0  0  0  0
   39.1720   25.5740   40.2740 N   0  0  0  0  0  0  0  0  0  0  0  0
   37.4700   24.4620   38.9970 N   0  0  0  0  0  0  0  0  0  0  0  0
   37.5850   23.4280   40.0360 C   0  0  0  0  0  0  0  0  0  0  0  0
   36.7030   24.0340   41.1020 C   0  0  0  0  0  0  0  0  0  0  0  0
   36.7950   25.5470   40.8930 C   0  0  0  0  0  0  0  0  0  0  0  0
   37.7940   25.6610   39.7760 C   0  0  1  0  0  0  0  0  0  0  0  0
   37.2565   28.1543   44.7245 H   0  0  0  0  0  0  0  0  0  0  0  0
   38.4692   26.2329   43.6692 H   0  0  0  0  0  0  0  0  0  0  0  0
   36.0763   30.5726   40.5178 H   0  0  0  0  0  0  0  0  0  0  0  0
   35.9632   32.7399   39.2934 H   0  0  0  0  0  0  0  0  0  0  0  0
   37.9430   34.2191   39.2897 H   0  0  0  0  0  0  0  0  0  0  0  0
   39.9922   33.5786   40.4685 H   0  0  0  0  0  0  0  0  0  0  0  0
   41.7371   26.3576   42.0981 H   0  0  0  0  0  0  0  0  0  0  0  0
   39.9216   23.9335   39.0325 H   0  0  0  0  0  0  0  0  0  0  0  0
   36.5169   24.5067   38.6089 H   0  0  0  0  0  0  0  0  0  0  0  0
   37.2007   22.4569   39.6907 H   0  0  0  0  0  0  0  0  0  0  0  0
   38.6131   23.2028   40.3559 H   0  0  0  0  0  0  0  0  0  0  0  0
   35.6645   23.6914   40.9830 H   0  0  0  0  0  0  0  0  0  0  0  0
   37.0221   23.7403   42.1129 H   0  0  0  0  0  0  0  0  0  0  0  0
   35.8217   25.9678   40.6003 H   0  0  0  0  0  0  0  0  0  0  0  0
   37.0861   26.0980   41.7995 H   0  0  0  0  0  0  0  0  0  0  0  0
   37.7410   26.6121   39.2259 H   0  0  0  0  0  0  0  0  0  0  0  0
  2  1  2  0
  3  2  1  0
  4  5  1  0
  4  3  2  0
  5  6  2  0
  6  1  1  0
  7  5  1  0
  8  7  2  0
  9 10  2  0
  9  8  1  0
 10 11  1  0
 11 12  2  0
 12  7  1  0
 12 13  1  0
 13 16  1  0
 14 13  1  0
 15 13  1  0
 17 18  2  0
 17  3  1  0
 19 18  1  0
 20 21  1  0
 20 19  2  0
 21 17  1  0
 22 26  1  0
 22 23  1  0
 23 24  1  0
 25 24  1  0
 26 21  1  0
 26 25  1  0
  1 27  1  0
  2 28  1  0
  8 29  1  0
  9 30  1  0
 10 31  1  0
 11 32  1  0
 18 33  1  0
 20 34  1  0
 22 35  1  0
 23 36  1  0
 23 37  1  0
 24 38  1  0
 24 39  1  0
 25 40  1  0
 25 41  1  0
 26 42  1  6
M  ISO  8  27  14  28  14  29  14  30  14  31  14  32  14  33  14  34  14
M  ISO  8  35   5  36  13  37  13  38  13  39  13  40  13  41  13  42  13
M  END
>  <minimizedAffinity>  (1) 
-5.40909338

>  <minimizedRMSD>  (1) 
2.14896655

$$$$
