
     RDKit          3D

 36 38  0  0  0  0  0  0  0  0999 V2000
   37.5540   28.1340   43.6650 C   0  0  0  0  0  0  0  0  0  0  0  0
   38.0660   27.0290   43.0070 C   0  0  0  0  0  0  0  0  0  0  0  0
   38.5540   27.2120   41.7290 C   0  0  0  0  0  0  0  0  0  0  0  0
   38.5190   28.4300   41.1720 N   0  0  0  0  0  0  0  0  0  0  0  0
   38.0160   29.5070   41.8250 C   0  0  0  0  0  0  0  0  0  0  0  0
   37.5470   29.3280   43.0530 N   0  0  0  0  0  0  0  0  0  0  0  0
   38.0100   30.7840   41.1630 C   0  0  0  0  0  0  0  0  0  0  0  0
   36.8760   31.2020   40.4340 C   0  0  0  0  0  0  0  0  0  0  0  0
   36.8530   32.4240   39.7930 C   0  0  0  0  0  0  0  0  0  0  0  0
   37.9700   33.2170   39.8880 C   0  0  0  0  0  0  0  0  0  0  0  0
   39.0690   32.8170   40.5920 C   0  0  0  0  0  0  0  0  0  0  0  0
   39.0890   31.5990   41.2310 C   0  0  0  0  0  0  0  0  0  0  0  0
   40.3530   31.2920   41.9610 C   0  0  0  0  0  0  0  0  0  0  0  0
   41.3040   32.2890   41.8560 F   0  0  0  0  0  0  0  0  0  0  0  0
   40.8730   30.0530   41.6700 F   0  0  0  0  0  0  0  0  0  0  0  0
   40.0980   31.2380   43.3530 F   0  0  0  0  0  0  0  0  0  0  0  0
   39.1160   26.1120   40.9450 C   0  0  0  0  0  0  0  0  0  0  0  0
   40.4430   25.7640   40.7650 C   0  0  0  0  0  0  0  0  0  0  0  0
   40.4300   24.6690   39.9500 N   0  0  0  0  0  0  0  0  0  0  0  0
   39.1500   24.3520   39.6360 C   0  0  0  0  0  0  0  0  0  0  0  0
   38.3680   25.2460   40.2550 N   0  0  0  0  0  0  0  0  0  0  0  0
   36.9060   25.2330   40.1570 C   0  0  0  0  0  0  0  0  0  0  0  0
   36.3070   24.0070   40.8140 C   0  0  0  0  0  0  0  0  0  0  0  0
   37.1547   28.0337   44.6850 H   0  0  0  0  0  0  0  0  0  0  0  0
   38.0833   26.0390   43.4862 H   0  0  0  0  0  0  0  0  0  0  0  0
   35.9968   30.5435   40.3758 H   0  0  0  0  0  0  0  0  0  0  0  0
   35.9697   32.7517   39.2252 H   0  0  0  0  0  0  0  0  0  0  0  0
   37.9794   34.1957   39.3860 H   0  0  0  0  0  0  0  0  0  0  0  0
   39.9481   33.4758   40.6489 H   0  0  0  0  0  0  0  0  0  0  0  0
   41.3250   26.2654   41.1902 H   0  0  0  0  0  0  0  0  0  0  0  0
   38.8177   23.5211   38.9964 H   0  0  0  0  0  0  0  0  0  0  0  0
   36.5084   26.1316   40.6515 H   0  0  0  0  0  0  0  0  0  0  0  0
   36.6359   25.2148   39.0908 H   0  0  0  0  0  0  0  0  0  0  0  0
   36.3595   24.1144   41.9075 H   0  0  0  0  0  0  0  0  0  0  0  0
   35.2562   23.9023   40.5059 H   0  0  0  0  0  0  0  0  0  0  0  0
   36.8702   23.1138   40.5059 H   0  0  0  0  0  0  0  0  0  0  0  0
  2  1  2  0
  3  2  1  0
  4  3  2  0
  4  5  1  0
  5  6  2  0
  6  1  1  0
  7 12  1  0
  7  5  1  0
  8  7  2  0
  9 10  2  0
  9  8  1  0
 10 11  1  0
 11 12  2  0
 12 13  1  0
 13 16  1  0
 14 13  1  0
 15 13  1  0
 17  3  1  0
 18 17  2  0
 19 18  1  0
 20 19  2  0
 20 21  1  0
 21 17  1  0
 22 21  1  0
 22 23  1  0
  1 24  1  0
  2 25  1  0
  8 26  1  0
  9 27  1  0
 10 28  1  0
 11 29  1  0
 18 30  1  0
 20 31  1  0
 22 32  1  0
 22 33  1  0
 23 34  1  0
 23 35  1  0
 23 36  1  0
M  ISO  8  24  14  25  14  26  14  27  14  28  14  29  14  30  14  31  14
M  ISO  5  32   8  33   8  34   8  35   8  36   8
M  END
>  <minimizedAffinity>  (1) 
-5.07888174

>  <minimizedRMSD>  (1) 
1.55197227

$$$$
