
     RDKit          3D

 33 35  0  0  0  0  0  0  0  0999 V2000
   37.3300   28.1420   43.5250 C   0  0  0  0  0  0  0  0  0  0  0  0
   37.7170   27.0170   42.8150 C   0  0  0  0  0  0  0  0  0  0  0  0
   38.1710   27.1870   41.5410 C   0  0  0  0  0  0  0  0  0  0  0  0
   38.2360   28.4220   40.9960 N   0  0  0  0  0  0  0  0  0  0  0  0
   37.8460   29.5190   41.7200 C   0  0  0  0  0  0  0  0  0  0  0  0
   37.4120   29.3470   42.9430 N   0  0  0  0  0  0  0  0  0  0  0  0
   37.9410   30.8210   41.0740 C   0  0  0  0  0  0  0  0  0  0  0  0
   36.8980   31.2910   40.2750 C   0  0  0  0  0  0  0  0  0  0  0  0
   36.9790   32.5210   39.6590 C   0  0  0  0  0  0  0  0  0  0  0  0
   38.1020   33.2620   39.8520 C   0  0  0  0  0  0  0  0  0  0  0  0
   39.1420   32.8040   40.6440 C   0  0  0  0  0  0  0  0  0  0  0  0
   39.0580   31.5860   41.2510 C   0  0  0  0  0  0  0  0  0  0  0  0
   40.2350   31.2030   42.0750 C   0  0  0  0  0  0  0  0  0  0  0  0
   41.2760   32.1140   41.9790 F   0  0  0  0  0  0  0  0  0  0  0  0
   40.6530   29.9160   41.8960 F   0  0  0  0  0  0  0  0  0  0  0  0
   39.8820   31.2510   43.4540 F   0  0  0  0  0  0  0  0  0  0  0  0
   38.6050   26.0700   40.7010 C   0  0  0  0  0  0  0  0  0  0  0  0
   39.8330   25.4370   40.6620 C   0  0  0  0  0  0  0  0  0  0  0  0
   39.7420   24.4590   39.7170 N   0  0  0  0  0  0  0  0  0  0  0  0
   38.4930   24.4850   39.1840 C   0  0  0  0  0  0  0  0  0  0  0  0
   37.8280   25.4680   39.7970 N   0  0  0  0  0  0  0  0  0  0  0  0
   36.4390   25.7970   39.4840 C   0  0  0  0  0  0  0  0  0  0  0  0
   36.9590   28.0475   44.5562 H   0  0  0  0  0  0  0  0  0  0  0  0
   37.6596   26.0155   43.2663 H   0  0  0  0  0  0  0  0  0  0  0  0
   35.9997   30.6718   40.1351 H   0  0  0  0  0  0  0  0  0  0  0  0
   36.1577   32.8928   39.0287 H   0  0  0  0  0  0  0  0  0  0  0  0
   38.1868   34.2466   39.3688 H   0  0  0  0  0  0  0  0  0  0  0  0
   40.0390   33.4252   40.7838 H   0  0  0  0  0  0  0  0  0  0  0  0
   40.7141   25.6764   41.2755 H   0  0  0  0  0  0  0  0  0  0  0  0
   38.1032   23.8225   38.3971 H   0  0  0  0  0  0  0  0  0  0  0  0
   35.8743   25.9307   40.4185 H   0  0  0  0  0  0  0  0  0  0  0  0
   36.4056   26.7279   38.8990 H   0  0  0  0  0  0  0  0  0  0  0  0
   35.9916   24.9800   38.8990 H   0  0  0  0  0  0  0  0  0  0  0  0
  2  1  2  0
  3  2  1  0
  4  3  2  0
  4  5  1  0
  5  6  2  0
  6  1  1  0
  7 12  1  0
  7  5  1  0
  8  7  2  0
  9 10  2  0
  9  8  1  0
 10 11  1  0
 11 12  2  0
 12 13  1  0
 13 16  1  0
 14 13  1  0
 15 13  1  0
 17  3  1  0
 18 17  2  0
 19 18  1  0
 20 19  2  0
 20 21  1  0
 21 17  1  0
 22 21  1  0
  1 23  1  0
  2 24  1  0
  8 25  1  0
  9 26  1  0
 10 27  1  0
 11 28  1  0
 18 29  1  0
 20 30  1  0
 22 31  1  0
 22 32  1  0
 22 33  1  0
M  ISO  8  23  14  24  14  25  14  26  14  27  14  28  14  29  14  30  14
M  ISO  3  31   8  32   8  33   8
M  END
>  <minimizedAffinity>  (1) 
-5.02294207

>  <minimizedRMSD>  (1) 
0.924425244

$$$$
