
     RDKit          3D

 35 39  0  0  0  0  0  0  0  0999 V2000
   39.6080   32.5770   39.9870 C   0  0  0  0  0  0  0  0  0  0  0  0
   39.5740   31.3820   40.7380 C   0  0  0  0  0  0  0  0  0  0  0  0
   38.3160   30.8860   41.0970 C   0  0  0  0  0  0  0  0  0  0  0  0
   37.2090   31.5620   40.7150 N   0  0  0  0  0  0  0  0  0  0  0  0
   37.2770   32.6950   40.0010 C   0  0  0  0  0  0  0  0  0  0  0  0
   38.4660   33.2180   39.6280 N   0  0  0  0  0  0  0  0  0  0  0  0
   38.2130   29.6930   41.8470 N   0  0  0  0  0  0  0  0  0  0  0  0
   38.5880   29.4820   43.1110 C   0  0  0  0  0  0  0  0  0  0  0  0
   38.3230   28.1920   43.4860 N   0  0  0  0  0  0  0  0  0  0  0  0
   37.7640   27.5740   42.4280 C   0  0  0  0  0  0  0  0  0  0  0  0
   37.2850   26.3190   42.1610 C   0  0  0  0  0  0  0  0  0  0  0  0
   36.7720   26.0340   40.9440 N   0  0  0  0  0  0  0  0  0  0  0  0
   36.7420   27.0020   40.0060 C   0  0  0  0  0  0  0  0  0  0  0  0
   37.1920   28.2290   40.2120 N   0  0  0  0  0  0  0  0  0  0  0  0
   37.7100   28.5370   41.4250 C   0  0  0  0  0  0  0  0  0  0  0  0
   36.1840   26.6720   38.6990 C   0  0  0  0  0  0  0  0  0  0  0  0
   36.5110   25.5880   37.8860 C   0  0  0  0  0  0  0  0  0  0  0  0
   35.7960   25.5970   36.7460 N   0  0  0  0  0  0  0  0  0  0  0  0
   35.0090   26.6630   36.7950 C   0  0  0  0  0  0  0  0  0  0  0  0
   34.0660   27.1610   35.8940 C   0  0  0  0  0  0  0  0  0  0  0  0
   33.3510   28.3110   36.1650 C   0  0  0  0  0  0  0  0  0  0  0  0
   33.5720   28.9850   37.3530 C   0  0  0  0  0  0  0  0  0  0  0  0
   34.4990   28.5120   38.2610 C   0  0  0  0  0  0  0  0  0  0  0  0
   35.2170   27.3580   37.9900 C   0  0  0  0  0  0  0  0  0  0  0  0
   40.5791   32.9973   39.6866 H   0  0  0  0  0  0  0  0  0  0  0  0
   40.4987   30.8622   41.0290 H   0  0  0  0  0  0  0  0  0  0  0  0
   36.3476   33.2083   39.7135 H   0  0  0  0  0  0  0  0  0  0  0  0
   39.0470   30.2406   43.7620 H   0  0  0  0  0  0  0  0  0  0  0  0
   37.3180   25.5418   42.9387 H   0  0  0  0  0  0  0  0  0  0  0  0
   37.2582   24.8228   38.1434 H   0  0  0  0  0  0  0  0  0  0  0  0
   35.8498   24.9082   35.9821 H   0  0  0  0  0  0  0  0  0  0  0  0
   33.8889   26.6265   34.9490 H   0  0  0  0  0  0  0  0  0  0  0  0
   32.6121   28.6880   35.4426 H   0  0  0  0  0  0  0  0  0  0  0  0
   33.0066   29.9020   37.5754 H   0  0  0  0  0  0  0  0  0  0  0  0
   34.6682   29.0536   39.2034 H   0  0  0  0  0  0  0  0  0  0  0  0
  1  2  2  0
  2  3  1  0
  3  7  1  0
  4  3  2  0
  5  4  1  0
  6  1  1  0
  6  5  2  0
  7  8  1  0
  8  9  2  0
 10  9  1  0
 11 10  2  0
 12 11  1  0
 13 14  1  0
 13 12  2  0
 14 15  2  0
 15  7  1  0
 15 10  1  0
 16 13  1  0
 17 16  2  0
 18 19  1  0
 18 17  1  0
 19 24  2  0
 20 21  2  0
 20 19  1  0
 21 22  1  0
 22 23  2  0
 24 23  1  0
 24 16  1  0
  1 25  1  0
  2 26  1  0
  5 27  1  0
  8 28  1  0
 11 29  1  0
 17 30  1  0
 18 31  1  0
 20 32  1  0
 21 33  1  0
 22 34  1  0
 23 35  1  0
M  ISO  8  25  14  26  14  27  14  28  14  29  14  30  14  31   9  32  14
M  ISO  3  33  14  34  14  35  14
M  END
>  <minimizedAffinity>  (1) 
-5.5743742

>  <minimizedRMSD>  (1) 
1.35841155

$$$$
