
     RDKit          3D

 16 16  0  0  0  0  0  0  0  0999 V2000
   38.3590   29.1910   43.1560 C   0  0  0  0  0  0  0  0  0  0  0  0
   37.8960   27.9150   43.5560 C   0  0  0  0  0  0  0  0  0  0  0  0
   36.7890   27.3840   42.8890 C   0  0  0  0  0  0  0  0  0  0  0  0
   36.2270   28.1220   41.9010 N   0  0  0  0  0  0  0  0  0  0  0  0
   36.6830   29.3330   41.5380 C   0  0  0  0  0  0  0  0  0  0  0  0
   37.7430   29.8550   42.1680 N   0  0  0  0  0  0  0  0  0  0  0  0
   35.9370   29.9780   40.4430 C   0  0  0  0  0  0  0  0  0  0  0  0
   34.7950   29.1710   39.9090 C   0  0  0  0  0  0  0  0  0  0  0  0
   39.2285   29.6400   43.6583 H   0  0  0  0  0  0  0  0  0  0  0  0
   38.3915   27.3592   44.3657 H   0  0  0  0  0  0  0  0  0  0  0  0
   36.3857   26.3965   43.1578 H   0  0  0  0  0  0  0  0  0  0  0  0
   35.5381   30.9331   40.8153 H   0  0  0  0  0  0  0  0  0  0  0  0
   36.6471   30.1024   39.6121 H   0  0  0  0  0  0  0  0  0  0  0  0
   34.2131   28.7598   40.7470 H   0  0  0  0  0  0  0  0  0  0  0  0
   34.1480   29.8136   39.2938 H   0  0  0  0  0  0  0  0  0  0  0  0
   35.1847   28.3466   39.2938 H   0  0  0  0  0  0  0  0  0  0  0  0
  1  2  2  0
  3  2  1  0
  4  3  2  0
  5  4  1  0
  5  6  2  0
  6  1  1  0
  7  5  1  0
  8  7  1  0
  1  9  1  0
  2 10  1  0
  3 11  1  0
  7 12  1  0
  7 13  1  0
  8 14  1  0
  8 15  1  0
  8 16  1  0
M  ISO  8   9  14  10  14  11  14  12   8  13   8  14   8  15   8  16   8
M  END
>  <minimizedAffinity>  (1) 
-3.02515388

>  <minimizedRMSD>  (1) 
0.703952968

$$$$
