
     RDKit          3D

 38 40  0  0  1  0  0  0  0  0999 V2000
   37.7490   29.1140   41.6980 C   0  0  2  0  0  0  0  0  0  0  0  0
   36.8720   29.0750   40.5120 N   0  0  0  0  0  0  0  0  0  0  0  0
   35.5490   29.3520   40.6090 C   0  0  0  0  0  0  0  0  0  0  0  0
   34.6600   29.3440   39.5820 C   0  0  0  0  0  0  0  0  0  0  0  0
   35.1680   29.0230   38.3280 C   0  0  0  0  0  0  0  0  0  0  0  0
   34.2480   29.0080   37.2280 N   0  0  0  0  0  0  0  0  0  0  0  0
   36.4670   28.7520   38.2300 N   0  0  0  0  0  0  0  0  0  0  0  0
   37.3110   28.7710   39.2750 C   0  0  0  0  0  0  0  0  0  0  0  0
   38.5130   28.5090   39.1200 O   0  0  0  0  0  0  0  0  0  0  0  0
   36.9790   29.1570   42.8990 N   0  0  0  0  0  0  0  0  0  0  0  0
   37.1950   28.3130   44.0050 C   0  0  0  0  0  0  0  0  0  0  0  0
   38.0340   27.3550   43.8480 N   0  0  0  0  0  0  0  0  0  0  0  0
   36.5070   28.4930   45.2150 N   0  0  0  0  0  0  0  0  0  0  0  0
   38.2110   26.6740   44.6130 H   0  0  0  0  0  0  0  0  0  0  0  0
   39.4960   32.2260   41.1630 C   0  0  0  0  0  0  0  0  0  0  0  0
   40.4650   31.4990   41.8700 C   0  0  0  0  0  0  0  0  0  0  0  0
   39.8520   30.2980   42.1090 C   0  0  0  0  0  0  0  0  0  0  0  0
   38.5980   30.2880   41.5870 N   0  0  0  0  0  0  0  0  0  0  0  0
   38.4080   31.4620   41.0220 N   0  0  0  0  0  0  0  0  0  0  0  0
   38.6840   34.4940   40.5060 C   0  0  0  0  0  0  0  0  0  0  0  0
   39.7000   33.5760   40.6890 C   0  0  0  0  0  0  0  0  0  0  0  0
   40.9890   33.9860   40.3930 C   0  0  0  0  0  0  0  0  0  0  0  0
   41.2360   35.2500   39.9380 N   0  0  0  0  0  0  0  0  0  0  0  0
   40.1650   36.1180   39.7790 C   0  0  0  0  0  0  0  0  0  0  0  0
   38.8970   35.7360   40.0630 N   0  0  0  0  0  0  0  0  0  0  0  0
   38.3652   28.2039   41.7414 H   0  0  0  0  0  0  0  0  0  0  0  0
   35.1611   29.6055   41.6066 H   0  0  0  0  0  0  0  0  0  0  0  0
   33.5961   29.5787   39.7340 H   0  0  0  0  0  0  0  0  0  0  0  0
   34.5808   28.7756   36.2814 H   0  0  0  0  0  0  0  0  0  0  0  0
   33.2544   29.2297   37.3846 H   0  0  0  0  0  0  0  0  0  0  0  0
   36.2180   29.8484   42.9604 H   0  0  0  0  0  0  0  0  0  0  0  0
   36.6852   27.8601   46.0078 H   0  0  0  0  0  0  0  0  0  0  0  0
   35.8239   29.2580   45.3102 H   0  0  0  0  0  0  0  0  0  0  0  0
   41.4763   31.8176   42.1627 H   0  0  0  0  0  0  0  0  0  0  0  0
   40.3117   29.4573   42.6492 H   0  0  0  0  0  0  0  0  0  0  0  0
   37.6526   34.1882   40.7356 H   0  0  0  0  0  0  0  0  0  0  0  0
   41.8255   33.2842   40.5261 H   0  0  0  0  0  0  0  0  0  0  0  0
   40.3500   37.1391   39.4142 H   0  0  0  0  0  0  0  0  0  0  0  0
  1 10  1  0
  2  3  1  0
  2  1  1  0
  4  3  2  0
  5  4  1  0
  6  5  1  0
  7  5  2  0
  7  8  1  0
  8  2  1  0
  9  8  2  0
 10 11  1  0
 11 13  1  0
 12 11  2  0
 12 14  1  0
 15 16  1  0
 16 17  2  0
 18  1  1  0
 18 17  1  0
 19 15  2  0
 19 18  1  0
 20 21  2  0
 21 15  1  0
 22 21  1  0
 23 22  2  0
 24 23  1  0
 24 25  2  0
 25 20  1  0
  1 26  1  1
  3 27  1  0
  4 28  1  0
  6 29  1  0
  6 30  1  0
 10 31  1  0
 13 32  1  0
 13 33  1  0
 16 34  1  0
 17 35  1  0
 20 36  1  0
 22 37  1  0
 24 38  1  0
M  ISO  8  26   8  27  14  28  14  34  14  35  14  36  14  37  14  38  14
M  END
>  <minimizedAffinity>  (1) 
-6.40126753

>  <minimizedRMSD>  (1) 
6.23973751

$$$$
