
     RDKit          3D

 31 34  0  0  0  0  0  0  0  0999 V2000
   39.1100   32.1450   40.8520 C   0  0  0  0  0  0  0  0  0  0  0  0
   39.0400   30.9320   41.5640 C   0  0  0  0  0  0  0  0  0  0  0  0
   37.8160   30.2820   41.5960 C   0  0  0  0  0  0  0  0  0  0  0  0
   36.7520   30.8290   40.9510 N   0  0  0  0  0  0  0  0  0  0  0  0
   36.8660   31.9940   40.2810 C   0  0  0  0  0  0  0  0  0  0  0  0
   38.0260   32.6640   40.2190 N   0  0  0  0  0  0  0  0  0  0  0  0
   37.6550   29.0560   42.2870 N   0  0  0  0  0  0  0  0  0  0  0  0
   37.6880   28.8360   43.5930 C   0  0  0  0  0  0  0  0  0  0  0  0
   37.4900   27.5160   43.8730 N   0  0  0  0  0  0  0  0  0  0  0  0
   37.3230   26.8730   42.7010 C   0  0  0  0  0  0  0  0  0  0  0  0
   37.0900   25.5720   42.2920 C   0  0  0  0  0  0  0  0  0  0  0  0
   36.9730   25.2770   40.9880 N   0  0  0  0  0  0  0  0  0  0  0  0
   37.0860   26.2720   40.0850 C   0  0  0  0  0  0  0  0  0  0  0  0
   37.3080   27.5410   40.4010 N   0  0  0  0  0  0  0  0  0  0  0  0
   37.4300   27.8580   41.7160 C   0  0  0  0  0  0  0  0  0  0  0  0
   36.9560   25.9230   38.7100 N   0  0  0  0  0  0  0  0  0  0  0  0
   37.6210   26.6750   37.7920 C   0  0  0  0  0  0  0  0  0  0  0  0
   37.6170   26.4920   36.4250 C   0  0  0  0  0  0  0  0  0  0  0  0
   36.8490   25.4280   35.9820 C   0  0  0  0  0  0  0  0  0  0  0  0
   36.8070   25.2130   34.7470 O   0  0  0  0  0  0  0  0  0  0  0  0
   36.1960   24.6930   36.8890 N   0  0  0  0  0  0  0  0  0  0  0  0
   36.2260   24.9030   38.2210 C   0  0  0  0  0  0  0  0  0  0  0  0
   35.6050   24.2000   39.0540 O   0  0  0  0  0  0  0  0  0  0  0  0
   40.0668   32.6859   40.8073 H   0  0  0  0  0  0  0  0  0  0  0  0
   39.9215   30.5168   42.0744 H   0  0  0  0  0  0  0  0  0  0  0  0
   35.9827   32.4061   39.7711 H   0  0  0  0  0  0  0  0  0  0  0  0
   37.8533   29.6153   44.3516 H   0  0  0  0  0  0  0  0  0  0  0  0
   36.9999   24.7725   43.0421 H   0  0  0  0  0  0  0  0  0  0  0  0
   38.2214   27.5119   38.1782 H   0  0  0  0  0  0  0  0  0  0  0  0
   38.1807   27.1414   35.7391 H   0  0  0  0  0  0  0  0  0  0  0  0
   35.6270   23.9068   36.5440 H   0  0  0  0  0  0  0  0  0  0  0  0
  1  2  2  0
  2  3  1  0
  3  7  1  0
  4  3  2  0
  5  4  1  0
  6  5  2  0
  6  1  1  0
  7  8  1  0
  8  9  2  0
 10  9  1  0
 11 10  2  0
 12 11  1  0
 13 14  1  0
 13 12  2  0
 14 15  2  0
 15  7  1  0
 15 10  1  0
 16 13  1  0
 17 16  1  0
 18 17  2  0
 19 18  1  0
 19 21  1  0
 20 19  2  0
 21 22  1  0
 22 16  1  0
 22 23  2  0
  1 24  1  0
  2 25  1  0
  5 26  1  0
  8 27  1  0
 11 28  1  0
 17 29  1  0
 18 30  1  0
 21 31  1  0
M  ISO  8  24  14  25  14  26  14  27  14  28  14  29  14  30  14  31   9
M  END
>  <minimizedAffinity>  (1) 
-5.3305459

>  <minimizedRMSD>  (1) 
0.246739239

$$$$
