
     RDKit          3D

 36 39  0  0  0  0  0  0  0  0999 V2000
   38.9930   32.1030   40.6850 C   0  0  0  0  0  0  0  0  0  0  0  0
   39.0090   30.8860   41.3930 C   0  0  0  0  0  0  0  0  0  0  0  0
   37.7780   30.2410   41.5850 C   0  0  0  0  0  0  0  0  0  0  0  0
   36.6520   30.8080   41.0910 N   0  0  0  0  0  0  0  0  0  0  0  0
   36.6960   31.9760   40.4200 C   0  0  0  0  0  0  0  0  0  0  0  0
   37.8490   32.6390   40.2060 N   0  0  0  0  0  0  0  0  0  0  0  0
   37.7250   29.0210   42.2860 N   0  0  0  0  0  0  0  0  0  0  0  0
   37.9590   28.7870   43.5650 C   0  0  0  0  0  0  0  0  0  0  0  0
   37.8020   27.4650   43.8590 N   0  0  0  0  0  0  0  0  0  0  0  0
   37.4510   26.8310   42.7150 C   0  0  0  0  0  0  0  0  0  0  0  0
   37.1590   25.5440   42.3620 C   0  0  0  0  0  0  0  0  0  0  0  0
   36.8370   25.2560   41.0890 N   0  0  0  0  0  0  0  0  0  0  0  0
   36.8090   26.2530   40.1810 C   0  0  0  0  0  0  0  0  0  0  0  0
   37.0830   27.5240   40.4680 N   0  0  0  0  0  0  0  0  0  0  0  0
   37.4110   27.8340   41.7520 C   0  0  0  0  0  0  0  0  0  0  0  0
   36.4660   25.9430   38.8220 N   0  0  0  0  0  0  0  0  0  0  0  0
   35.8490   24.6950   38.4450 C   0  0  0  0  0  0  0  0  0  0  0  0
   34.7860   24.8110   37.4060 C   0  0  0  0  0  0  0  0  0  0  0  0
   35.0540   25.8700   36.3700 C   0  0  0  0  0  0  0  0  0  0  0  0
   35.3950   27.1750   37.0800 C   0  0  0  0  0  0  0  0  0  0  0  0
   36.7420   26.9170   37.7540 C   0  0  0  0  0  0  0  0  0  0  0  0
   39.9415   32.6340   40.5166 H   0  0  0  0  0  0  0  0  0  0  0  0
   39.9465   30.4593   41.7790 H   0  0  0  0  0  0  0  0  0  0  0  0
   35.7584   32.4025   40.0339 H   0  0  0  0  0  0  0  0  0  0  0  0
   38.2432   29.5576   44.2967 H   0  0  0  0  0  0  0  0  0  0  0  0
   37.1873   24.7452   43.1177 H   0  0  0  0  0  0  0  0  0  0  0  0
   36.6340   24.0284   38.0583 H   0  0  0  0  0  0  0  0  0  0  0  0
   35.3568   24.3077   39.3493 H   0  0  0  0  0  0  0  0  0  0  0  0
   34.6957   23.8416   36.8941 H   0  0  0  0  0  0  0  0  0  0  0  0
   33.8625   25.1029   37.9274 H   0  0  0  0  0  0  0  0  0  0  0  0
   34.1595   26.0114   35.7456 H   0  0  0  0  0  0  0  0  0  0  0  0
   35.8933   25.5624   35.7289 H   0  0  0  0  0  0  0  0  0  0  0  0
   35.4762   27.9994   36.3562 H   0  0  0  0  0  0  0  0  0  0  0  0
   34.6197   27.4671   37.8036 H   0  0  0  0  0  0  0  0  0  0  0  0
   37.4604   26.5023   37.0315 H   0  0  0  0  0  0  0  0  0  0  0  0
   37.1846   27.8429   38.1500 H   0  0  0  0  0  0  0  0  0  0  0  0
  1  2  2  0
  2  3  1  0
  3  7  1  0
  4  3  2  0
  5  4  1  0
  6  5  2  0
  6  1  1  0
  7  8  1  0
  8  9  2  0
 10  9  1  0
 11 10  2  0
 12 11  1  0
 13 14  1  0
 13 12  2  0
 14 15  2  0
 15  7  1  0
 15 10  1  0
 16 13  1  0
 17 16  1  0
 18 17  1  0
 19 20  1  0
 19 18  1  0
 20 21  1  0
 21 16  1  0
  1 22  1  0
  2 23  1  0
  5 24  1  0
  8 25  1  0
 11 26  1  0
 17 27  1  0
 17 28  1  0
 18 29  1  0
 18 30  1  0
 19 31  1  0
 19 32  1  0
 20 33  1  0
 20 34  1  0
 21 35  1  0
 21 36  1  0
M  ISO  8  22  14  23  14  24  14  25  14  26  14  27  13  28  13  29  13
M  ISO  7  30  13  31  13  32  13  33  13  34  13  35  13  36  13
M  END
>  <minimizedAffinity>  (1) 
-5.18856812

>  <minimizedRMSD>  (1) 
0.596980393

$$$$
