
     RDKit          3D

 34 37  0  0  0  0  0  0  0  0999 V2000
   39.0660   32.1090   40.8700 C   0  0  0  0  0  0  0  0  0  0  0  0
   39.0040   30.8950   41.5720 C   0  0  0  0  0  0  0  0  0  0  0  0
   37.7590   30.2530   41.6140 C   0  0  0  0  0  0  0  0  0  0  0  0
   36.7000   30.8180   40.9920 N   0  0  0  0  0  0  0  0  0  0  0  0
   36.8170   31.9890   40.3300 C   0  0  0  0  0  0  0  0  0  0  0  0
   37.9940   32.6490   40.2590 N   0  0  0  0  0  0  0  0  0  0  0  0
   37.6150   29.0210   42.3040 N   0  0  0  0  0  0  0  0  0  0  0  0
   37.6810   28.7920   43.6010 C   0  0  0  0  0  0  0  0  0  0  0  0
   37.4880   27.4630   43.8740 N   0  0  0  0  0  0  0  0  0  0  0  0
   37.2930   26.8380   42.7000 C   0  0  0  0  0  0  0  0  0  0  0  0
   37.0540   25.5490   42.3120 C   0  0  0  0  0  0  0  0  0  0  0  0
   36.9030   25.2630   40.9910 N   0  0  0  0  0  0  0  0  0  0  0  0
   36.9930   26.2660   40.0990 C   0  0  0  0  0  0  0  0  0  0  0  0
   37.2230   27.5250   40.4220 N   0  0  0  0  0  0  0  0  0  0  0  0
   37.3770   27.8360   41.7300 C   0  0  0  0  0  0  0  0  0  0  0  0
   36.8010   25.7600   38.6960 C   0  0  0  0  0  0  0  0  0  0  0  0
   36.0210   26.7110   37.8520 C   0  0  0  0  0  0  0  0  0  0  0  0
   34.7690   26.0050   37.3820 C   0  0  0  0  0  0  0  0  0  0  0  0
   34.8900   24.5560   37.7910 C   0  0  0  0  0  0  0  0  0  0  0  0
   35.9840   24.4930   38.8270 C   0  0  0  0  0  0  0  0  0  0  0  0
   40.0278   32.6401   40.8168 H   0  0  0  0  0  0  0  0  0  0  0  0
   39.8898   30.4683   42.0653 H   0  0  0  0  0  0  0  0  0  0  0  0
   35.9319   32.4164   39.8361 H   0  0  0  0  0  0  0  0  0  0  0  0
   37.8662   29.5644   44.3620 H   0  0  0  0  0  0  0  0  0  0  0  0
   36.9843   24.7485   43.0633 H   0  0  0  0  0  0  0  0  0  0  0  0
   37.7822   25.6165   38.2199 H   0  0  0  0  0  0  0  0  0  0  0  0
   35.7491   27.5977   38.4436 H   0  0  0  0  0  0  0  0  0  0  0  0
   36.6217   27.0356   36.9895 H   0  0  0  0  0  0  0  0  0  0  0  0
   34.6819   26.0814   36.2881 H   0  0  0  0  0  0  0  0  0  0  0  0
   33.8734   26.4621   37.8281 H   0  0  0  0  0  0  0  0  0  0  0  0
   33.9407   24.2014   38.2189 H   0  0  0  0  0  0  0  0  0  0  0  0
   35.1237   23.9171   36.9266 H   0  0  0  0  0  0  0  0  0  0  0  0
   36.6211   23.6141   38.6488 H   0  0  0  0  0  0  0  0  0  0  0  0
   35.5588   24.4065   39.8378 H   0  0  0  0  0  0  0  0  0  0  0  0
  1  2  2  0
  2  3  1  0
  3  7  1  0
  4  3  2  0
  5  4  1  0
  6  5  2  0
  6  1  1  0
  7  8  1  0
  8  9  2  0
 10  9  1  0
 11 10  2  0
 12 11  1  0
 13 14  1  0
 13 12  2  0
 14 15  2  0
 15  7  1  0
 15 10  1  0
 16 20  1  0
 16 13  1  0
 17 16  1  0
 18 19  1  0
 18 17  1  0
 19 20  1  0
  1 21  1  0
  2 22  1  0
  5 23  1  0
  8 24  1  0
 11 25  1  0
 16 26  1  0
 17 27  1  0
 17 28  1  0
 18 29  1  0
 18 30  1  0
 19 31  1  0
 19 32  1  0
 20 33  1  0
 20 34  1  0
M  ISO  8  21  14  22  14  23  14  24  14  25  14  26  13  27  13  28  13
M  ISO  6  29  13  30  13  31  13  32  13  33  13  34  13
M  END
>  <minimizedAffinity>  (1) 
-5.12389898

>  <minimizedRMSD>  (1) 
0.439963222

$$$$
