
     RDKit          3D

 34 37  0  0  0  0  0  0  0  0999 V2000
   39.3390   32.2780   41.0320 C   0  0  0  0  0  0  0  0  0  0  0  0
   39.1790   31.0490   41.6880 C   0  0  0  0  0  0  0  0  0  0  0  0
   37.9510   30.4200   41.6030 C   0  0  0  0  0  0  0  0  0  0  0  0
   36.9640   31.0100   40.8950 N   0  0  0  0  0  0  0  0  0  0  0  0
   37.1370   32.1910   40.2710 C   0  0  0  0  0  0  0  0  0  0  0  0
   38.3120   32.8360   40.3280 N   0  0  0  0  0  0  0  0  0  0  0  0
   37.7240   29.1720   42.2450 N   0  0  0  0  0  0  0  0  0  0  0  0
   37.6660   28.9120   43.5380 C   0  0  0  0  0  0  0  0  0  0  0  0
   37.4270   27.5800   43.7560 N   0  0  0  0  0  0  0  0  0  0  0  0
   37.3340   26.9860   42.5540 C   0  0  0  0  0  0  0  0  0  0  0  0
   37.1120   25.7140   42.1090 C   0  0  0  0  0  0  0  0  0  0  0  0
   37.0790   25.4560   40.7810 N   0  0  0  0  0  0  0  0  0  0  0  0
   37.2670   26.4720   39.9130 C   0  0  0  0  0  0  0  0  0  0  0  0
   37.4860   27.7270   40.3000 N   0  0  0  0  0  0  0  0  0  0  0  0
   37.5230   28.0080   41.6200 C   0  0  0  0  0  0  0  0  0  0  0  0
   37.2220   26.1430   38.5220 N   0  0  0  0  0  0  0  0  0  0  0  0
   38.4890   26.0850   37.7760 C   0  0  0  0  0  0  0  0  0  0  0  0
   38.3100   26.2340   36.3030 C   0  0  0  0  0  0  0  0  0  0  0  0
   37.0520   26.7090   35.9450 O   0  0  0  0  0  0  0  0  0  0  0  0
   36.0310   25.8850   36.4050 C   0  0  0  0  0  0  0  0  0  0  0  0
   35.9220   25.8770   37.8900 C   0  0  0  0  0  0  0  0  0  0  0  0
   40.3060   32.7995   41.0857 H   0  0  0  0  0  0  0  0  0  0  0  0
   40.0073   30.5982   42.2543 H   0  0  0  0  0  0  0  0  0  0  0  0
   36.3028   32.6331   39.7065 H   0  0  0  0  0  0  0  0  0  0  0  0
   37.7923   29.6623   44.3324 H   0  0  0  0  0  0  0  0  0  0  0  0
   36.9598   24.8982   42.8310 H   0  0  0  0  0  0  0  0  0  0  0  0
   39.1422   26.8950   38.1326 H   0  0  0  0  0  0  0  0  0  0  0  0
   38.9280   25.0922   37.9535 H   0  0  0  0  0  0  0  0  0  0  0  0
   39.0680   26.9379   35.9290 H   0  0  0  0  0  0  0  0  0  0  0  0
   38.4178   25.2331   35.8596 H   0  0  0  0  0  0  0  0  0  0  0  0
   35.0778   26.2379   35.9844 H   0  0  0  0  0  0  0  0  0  0  0  0
   36.2631   24.8588   36.0840 H   0  0  0  0  0  0  0  0  0  0  0  0
   35.2069   26.6528   38.2010 H   0  0  0  0  0  0  0  0  0  0  0  0
   35.5786   24.8815   38.2077 H   0  0  0  0  0  0  0  0  0  0  0  0
  1  2  2  0
  3  2  1  0
  3  7  1  0
  4  3  2  0
  5  6  2  0
  5  4  1  0
  6  1  1  0
  7  8  1  0
  8  9  2  0
 10  9  1  0
 11 10  2  0
 12 11  1  0
 13 14  1  0
 13 12  2  0
 14 15  2  0
 15  7  1  0
 15 10  1  0
 16 13  1  0
 17 16  1  0
 18 17  1  0
 19 18  1  0
 19 20  1  0
 20 21  1  0
 21 16  1  0
  1 22  1  0
  2 23  1  0
  5 24  1  0
  8 25  1  0
 11 26  1  0
 17 27  1  0
 17 28  1  0
 18 29  1  0
 18 30  1  0
 20 31  1  0
 20 32  1  0
 21 33  1  0
 21 34  1  0
M  ISO  8  22  14  23  14  24  14  25  14  26  14  27  13  28  13  29  13
M  ISO  5  30  13  31  13  32  13  33  13  34  13
M  END
>  <minimizedAffinity>  (1) 
-5.08816385

>  <minimizedRMSD>  (1) 
0.129493743

$$$$
