
     RDKit          3D

 33 36  0  0  0  0  0  0  0  0999 V2000
   39.1070   32.1520   40.8010 C   0  0  0  0  0  0  0  0  0  0  0  0
   39.0650   30.9240   41.4970 C   0  0  0  0  0  0  0  0  0  0  0  0
   37.8190   30.2870   41.5890 C   0  0  0  0  0  0  0  0  0  0  0  0
   36.7500   30.8720   41.0190 N   0  0  0  0  0  0  0  0  0  0  0  0
   36.8340   32.0430   40.3660 C   0  0  0  0  0  0  0  0  0  0  0  0
   38.0140   32.7000   40.2480 N   0  0  0  0  0  0  0  0  0  0  0  0
   37.7030   29.0570   42.2680 N   0  0  0  0  0  0  0  0  0  0  0  0
   37.8330   28.8060   43.5600 C   0  0  0  0  0  0  0  0  0  0  0  0
   37.6450   27.4830   43.8230 N   0  0  0  0  0  0  0  0  0  0  0  0
   37.3850   26.8700   42.6530 C   0  0  0  0  0  0  0  0  0  0  0  0
   37.1130   25.5810   42.2490 C   0  0  0  0  0  0  0  0  0  0  0  0
   36.8950   25.3210   40.9510 N   0  0  0  0  0  0  0  0  0  0  0  0
   36.9440   26.3280   40.0520 C   0  0  0  0  0  0  0  0  0  0  0  0
   37.2010   27.5870   40.3800 N   0  0  0  0  0  0  0  0  0  0  0  0
   37.4260   27.8750   41.6900 C   0  0  0  0  0  0  0  0  0  0  0  0
   36.7030   25.9880   38.6860 N   0  0  0  0  0  0  0  0  0  0  0  0
   37.2710   26.6720   37.5160 C   0  0  0  0  0  0  0  0  0  0  0  0
   36.3340   26.3610   36.3740 C   0  0  0  0  0  0  0  0  0  0  0  0
   35.1760   25.6590   37.0160 C   0  0  0  0  0  0  0  0  0  0  0  0
   35.8760   24.9290   38.1490 C   0  0  0  0  0  0  0  0  0  0  0  0
   40.0689   32.6775   40.7090 H   0  0  0  0  0  0  0  0  0  0  0  0
   39.9687   30.4869   41.9467 H   0  0  0  0  0  0  0  0  0  0  0  0
   35.9278   32.4772   39.9184 H   0  0  0  0  0  0  0  0  0  0  0  0
   38.0627   29.5656   44.3217 H   0  0  0  0  0  0  0  0  0  0  0  0
   37.0747   24.7676   42.9885 H   0  0  0  0  0  0  0  0  0  0  0  0
   37.3182   27.7571   37.6902 H   0  0  0  0  0  0  0  0  0  0  0  0
   38.2973   26.3368   37.3052 H   0  0  0  0  0  0  0  0  0  0  0  0
   36.8237   25.7080   35.6366 H   0  0  0  0  0  0  0  0  0  0  0  0
   36.0242   27.2656   35.8303 H   0  0  0  0  0  0  0  0  0  0  0  0
   34.4297   26.3729   37.3948 H   0  0  0  0  0  0  0  0  0  0  0  0
   34.6070   25.0064   36.3375 H   0  0  0  0  0  0  0  0  0  0  0  0
   35.1584   24.5580   38.8956 H   0  0  0  0  0  0  0  0  0  0  0  0
   36.4312   24.0319   37.8376 H   0  0  0  0  0  0  0  0  0  0  0  0
  1  2  2  0
  2  3  1  0
  3  7  1  0
  4  3  2  0
  5  4  1  0
  6  5  2  0
  6  1  1  0
  7  8  1  0
  8  9  2  0
 10  9  1  0
 11 10  2  0
 12 11  1  0
 13 14  1  0
 13 12  2  0
 14 15  2  0
 15  7  1  0
 15 10  1  0
 16 13  1  0
 17 16  1  0
 18 19  1  0
 18 17  1  0
 19 20  1  0
 20 16  1  0
  1 21  1  0
  2 22  1  0
  5 23  1  0
  8 24  1  0
 11 25  1  0
 17 26  1  0
 17 27  1  0
 18 28  1  0
 18 29  1  0
 19 30  1  0
 19 31  1  0
 20 32  1  0
 20 33  1  0
M  ISO  8  21  14  22  14  23  14  24  14  25  14  26  13  27  13  28  13
M  ISO  5  29  13  30  13  31  13  32  13  33  13
M  END
>  <minimizedAffinity>  (1) 
-5.00137091

>  <minimizedRMSD>  (1) 
0.328472584

$$$$
