
     RDKit          3D

 43 45  0  0  1  0  0  0  0  0999 V2000
   36.7350   24.6290   40.2980 C   0  0  0  0  0  0  0  0  0  0  0  0
   36.5140   25.8580   39.6860 C   0  0  0  0  0  0  0  0  0  0  0  0
   37.1730   26.7400   40.5150 C   0  0  0  0  0  0  0  0  0  0  0  0
   37.7510   26.0910   41.5490 N   0  0  0  0  0  0  0  0  0  0  0  0
   37.4810   24.7960   41.4170 N   0  0  0  0  0  0  0  0  0  0  0  0
   37.0230   22.2420   39.5490 C   0  0  0  0  0  0  0  0  0  0  0  0
   36.2350   23.3650   39.7900 C   0  0  0  0  0  0  0  0  0  0  0  0
   34.8690   23.2610   39.5260 C   0  0  0  0  0  0  0  0  0  0  0  0
   34.3540   22.0890   39.0510 N   0  0  0  0  0  0  0  0  0  0  0  0
   35.2050   21.0150   38.8380 C   0  0  0  0  0  0  0  0  0  0  0  0
   36.5330   21.0950   39.0870 N   0  0  0  0  0  0  0  0  0  0  0  0
   38.5340   26.8130   42.5360 C   0  0  1  0  0  0  0  0  0  0  0  0
   37.7650   27.0540   43.7150 N   0  0  0  0  0  0  0  0  0  0  0  0
   37.1140   28.2760   44.0210 C   0  0  0  0  0  0  0  0  0  0  0  0
   37.3670   29.2680   43.2530 N   0  0  0  0  0  0  0  0  0  0  0  0
   36.2560   28.3850   45.1270 N   0  0  0  0  0  0  0  0  0  0  0  0
   36.9380   30.1960   43.4430 H   0  0  0  0  0  0  0  0  0  0  0  0
   39.7370   25.8920   42.9120 C   0  0  0  0  0  0  0  0  0  0  0  0
   40.7400   26.0420   41.7940 C   0  0  0  0  0  0  0  0  0  0  0  0
   42.0390   25.3680   42.0800 C   0  0  0  0  0  0  0  0  0  0  0  0
   42.5860   25.6760   43.4410 C   0  0  0  0  0  0  0  0  0  0  0  0
   41.7560   26.6810   44.1850 C   0  0  0  0  0  0  0  0  0  0  0  0
   40.2900   26.3270   44.2240 C   0  0  0  0  0  0  0  0  0  0  0  0
   35.9512   26.0734   38.7658 H   0  0  0  0  0  0  0  0  0  0  0  0
   37.2218   27.8273   40.3558 H   0  0  0  0  0  0  0  0  0  0  0  0
   38.1025   22.3068   39.7504 H   0  0  0  0  0  0  0  0  0  0  0  0
   34.2075   24.1224   39.7004 H   0  0  0  0  0  0  0  0  0  0  0  0
   34.7889   20.0712   38.4558 H   0  0  0  0  0  0  0  0  0  0  0  0
   38.8579   27.7818   42.1281 H   0  0  0  0  0  0  0  0  0  0  0  0
   37.6768   26.2836   44.3929 H   0  0  0  0  0  0  0  0  0  0  0  0
   35.7923   29.2814   45.3327 H   0  0  0  0  0  0  0  0  0  0  0  0
   36.0902   27.5685   45.7326 H   0  0  0  0  0  0  0  0  0  0  0  0
   39.4514   24.8352   43.0199 H   0  0  0  0  0  0  0  0  0  0  0  0
   40.9292   27.1138   41.6347 H   0  0  0  0  0  0  0  0  0  0  0  0
   40.3110   25.5628   40.9016 H   0  0  0  0  0  0  0  0  0  0  0  0
   41.8916   24.2807   42.0020 H   0  0  0  0  0  0  0  0  0  0  0  0
   42.7670   25.7443   41.3462 H   0  0  0  0  0  0  0  0  0  0  0  0
   42.6193   24.7450   44.0259 H   0  0  0  0  0  0  0  0  0  0  0  0
   43.5887   26.1078   43.3062 H   0  0  0  0  0  0  0  0  0  0  0  0
   42.1279   26.7457   45.2182 H   0  0  0  0  0  0  0  0  0  0  0  0
   41.8474   27.6394   43.6529 H   0  0  0  0  0  0  0  0  0  0  0  0
   39.7293   27.2119   44.5594 H   0  0  0  0  0  0  0  0  0  0  0  0
   40.1867   25.4744   44.9114 H   0  0  0  0  0  0  0  0  0  0  0  0
  1  5  2  0
  2  1  1  0
  2  3  2  0
  3  4  1  0
  4 12  1  0
  5  4  1  0
  6  7  2  0
  7  1  1  0
  8  7  1  0
  9  8  2  0
 10  9  1  0
 10 11  2  0
 11  6  1  0
 12 18  1  0
 12 13  1  0
 13 14  1  0
 14 16  1  0
 15 17  1  0
 15 14  2  0
 18 23  1  0
 19 20  1  0
 19 18  1  0
 20 21  1  0
 21 22  1  0
 22 23  1  0
  2 24  1  0
  3 25  1  0
  6 26  1  0
  8 27  1  0
 10 28  1  0
 12 29  1  6
 13 30  1  0
 16 31  1  0
 16 32  1  0
 18 33  1  0
 19 34  1  0
 19 35  1  0
 20 36  1  0
 20 37  1  0
 21 38  1  0
 21 39  1  0
 22 40  1  0
 22 41  1  0
 23 42  1  0
 23 43  1  0
M  ISO  8  24  14  25  14  26  14  27  14  28  14  29   8  33  13  34  13
M  ISO  8  35  13  36  13  37  13  38  13  39  13  40  13  41  13  42  13
M  ISO  1  43  13
M  END
>  <minimizedAffinity>  (1) 
-5.41335487

>  <minimizedRMSD>  (1) 
7.22505999

$$$$
