
     RDKit          3D

 28 30  0  0  0  0  0  0  0  0999 V2000
   39.1290   32.1740   40.8420 C   0  0  0  0  0  0  0  0  0  0  0  0
   39.0670   30.9510   41.5240 C   0  0  0  0  0  0  0  0  0  0  0  0
   37.8510   30.2990   41.5940 C   0  0  0  0  0  0  0  0  0  0  0  0
   36.7680   30.8730   40.9960 N   0  0  0  0  0  0  0  0  0  0  0  0
   36.8710   32.0530   40.3490 C   0  0  0  0  0  0  0  0  0  0  0  0
   38.0500   32.7230   40.2600 N   0  0  0  0  0  0  0  0  0  0  0  0
   37.7070   29.0670   42.2600 N   0  0  0  0  0  0  0  0  0  0  0  0
   37.7970   28.8180   43.5590 C   0  0  0  0  0  0  0  0  0  0  0  0
   37.5930   27.4930   43.8190 N   0  0  0  0  0  0  0  0  0  0  0  0
   37.3660   26.8780   42.6450 C   0  0  0  0  0  0  0  0  0  0  0  0
   37.1000   25.5980   42.2270 C   0  0  0  0  0  0  0  0  0  0  0  0
   36.9200   25.3340   40.9240 N   0  0  0  0  0  0  0  0  0  0  0  0
   37.0020   26.3370   40.0320 C   0  0  0  0  0  0  0  0  0  0  0  0
   37.2550   27.5970   40.3630 N   0  0  0  0  0  0  0  0  0  0  0  0
   37.4430   27.8890   41.6900 C   0  0  0  0  0  0  0  0  0  0  0  0
   36.8060   26.0160   38.6580 N   0  0  0  0  0  0  0  0  0  0  0  0
   35.7650   26.6020   37.8900 C   0  0  0  0  0  0  0  0  0  0  0  0
   35.2100   27.6910   38.3000 N   0  0  0  0  0  0  0  0  0  0  0  0
   35.3460   25.9690   36.6690 N   0  0  0  0  0  0  0  0  0  0  0  0
   34.4450   28.1160   37.7300 H   0  0  0  0  0  0  0  0  0  0  0  0
   40.0925   32.7013   40.7814 H   0  0  0  0  0  0  0  0  0  0  0  0
   39.9647   30.5208   41.9921 H   0  0  0  0  0  0  0  0  0  0  0  0
   35.9746   32.4850   39.8801 H   0  0  0  0  0  0  0  0  0  0  0  0
   38.0080   29.5780   44.3258 H   0  0  0  0  0  0  0  0  0  0  0  0
   37.0341   24.7843   42.9643 H   0  0  0  0  0  0  0  0  0  0  0  0
   37.4382   25.3386   38.2081 H   0  0  0  0  0  0  0  0  0  0  0  0
   35.8012   25.0992   36.3573 H   0  0  0  0  0  0  0  0  0  0  0  0
   34.5906   26.3853   36.1060 H   0  0  0  0  0  0  0  0  0  0  0  0
  1  2  2  0
  2  3  1  0
  3  7  1  0
  4  3  2  0
  5  4  1  0
  6  5  2  0
  6  1  1  0
  7  8  1  0
  8  9  2  0
 10  9  1  0
 11 10  2  0
 12 11  1  0
 13 14  1  0
 13 12  2  0
 14 15  2  0
 15  7  1  0
 15 10  1  0
 16 13  1  0
 17 18  2  0
 17 16  1  0
 19 17  1  0
 20 18  1  0
  1 21  1  0
  2 22  1  0
  5 23  1  0
  8 24  1  0
 11 25  1  0
 16 26  1  0
 19 27  1  0
 19 28  1  0
M  ISO  5  21  14  22  14  23  14  24  14  25  14
M  END
>  <minimizedAffinity>  (1) 
-4.93857956

>  <minimizedRMSD>  (1) 
0.241812423

$$$$
