
     RDKit          3D

 31 34  0  0  0  0  0  0  0  0999 V2000
   39.3290   32.2670   41.0160 C   0  0  0  0  0  0  0  0  0  0  0  0
   39.1880   31.0410   41.6800 C   0  0  0  0  0  0  0  0  0  0  0  0
   37.9370   30.4140   41.6030 C   0  0  0  0  0  0  0  0  0  0  0  0
   36.9580   31.0160   40.9090 N   0  0  0  0  0  0  0  0  0  0  0  0
   37.1330   32.2010   40.2820 C   0  0  0  0  0  0  0  0  0  0  0  0
   38.3260   32.8430   40.3290 N   0  0  0  0  0  0  0  0  0  0  0  0
   37.7170   29.1760   42.2450 N   0  0  0  0  0  0  0  0  0  0  0  0
   37.6730   28.9000   43.5320 C   0  0  0  0  0  0  0  0  0  0  0  0
   37.4370   27.5740   43.7460 N   0  0  0  0  0  0  0  0  0  0  0  0
   37.3260   26.9790   42.5350 C   0  0  0  0  0  0  0  0  0  0  0  0
   37.0970   25.7080   42.0870 C   0  0  0  0  0  0  0  0  0  0  0  0
   37.0490   25.4660   40.7540 N   0  0  0  0  0  0  0  0  0  0  0  0
   37.2280   26.4840   39.9140 C   0  0  0  0  0  0  0  0  0  0  0  0
   37.4530   27.7420   40.2660 N   0  0  0  0  0  0  0  0  0  0  0  0
   37.5050   28.0070   41.6120 C   0  0  0  0  0  0  0  0  0  0  0  0
   37.1640   26.1570   38.4740 C   0  0  0  0  0  0  0  0  0  0  0  0
   35.9900   25.6470   37.9120 C   0  0  0  0  0  0  0  0  0  0  0  0
   35.9970   25.3630   36.5630 C   0  0  0  0  0  0  0  0  0  0  0  0
   37.1010   25.5600   35.7590 C   0  0  0  0  0  0  0  0  0  0  0  0
   38.2620   26.0620   36.3030 C   0  0  0  0  0  0  0  0  0  0  0  0
   38.2800   26.3580   37.6670 C   0  0  0  0  0  0  0  0  0  0  0  0
   40.3011   32.7801   41.0583 H   0  0  0  0  0  0  0  0  0  0  0  0
   40.0226   30.5905   42.2372 H   0  0  0  0  0  0  0  0  0  0  0  0
   36.2964   32.6500   39.7265 H   0  0  0  0  0  0  0  0  0  0  0  0
   37.8091   29.6433   44.3314 H   0  0  0  0  0  0  0  0  0  0  0  0
   36.9525   24.8864   42.8040 H   0  0  0  0  0  0  0  0  0  0  0  0
   35.0921   25.4782   38.5247 H   0  0  0  0  0  0  0  0  0  0  0  0
   35.0805   24.9609   36.1066 H   0  0  0  0  0  0  0  0  0  0  0  0
   37.0537   25.3169   34.6873 H   0  0  0  0  0  0  0  0  0  0  0  0
   39.1527   26.2256   35.6786 H   0  0  0  0  0  0  0  0  0  0  0  0
   39.2001   26.7606   38.1157 H   0  0  0  0  0  0  0  0  0  0  0  0
  1  2  2  0
  3  2  1  0
  3  7  1  0
  4  3  2  0
  5  6  2  0
  5  4  1  0
  6  1  1  0
  7  8  1  0
  8  9  2  0
 10  9  1  0
 11 10  2  0
 12 11  1  0
 13 14  1  0
 13 12  2  0
 14 15  2  0
 15  7  1  0
 15 10  1  0
 16 13  1  0
 17 16  2  0
 18 17  1  0
 19 20  1  0
 19 18  2  0
 20 21  2  0
 21 16  1  0
  1 22  1  0
  2 23  1  0
  5 24  1  0
  8 25  1  0
 11 26  1  0
 17 27  1  0
 18 28  1  0
 19 29  1  0
 20 30  1  0
 21 31  1  0
M  ISO  8  22  14  23  14  24  14  25  14  26  14  27  14  28  14  29  14
M  ISO  2  30  14  31  14
M  END
>  <minimizedAffinity>  (1) 
-4.91541243

>  <minimizedRMSD>  (1) 
0.277296841

$$$$
