
     RDKit          3D

 30 33  0  0  0  0  0  0  0  0999 V2000
   39.3260   32.2940   41.0400 C   0  0  0  0  0  0  0  0  0  0  0  0
   39.1800   31.0570   41.6950 C   0  0  0  0  0  0  0  0  0  0  0  0
   37.9530   30.4270   41.6050 C   0  0  0  0  0  0  0  0  0  0  0  0
   36.9570   31.0250   40.8960 N   0  0  0  0  0  0  0  0  0  0  0  0
   37.1310   32.2100   40.2820 C   0  0  0  0  0  0  0  0  0  0  0  0
   38.3150   32.8650   40.3440 N   0  0  0  0  0  0  0  0  0  0  0  0
   37.7320   29.1820   42.2350 N   0  0  0  0  0  0  0  0  0  0  0  0
   37.6900   28.9050   43.5270 C   0  0  0  0  0  0  0  0  0  0  0  0
   37.4510   27.5730   43.7360 N   0  0  0  0  0  0  0  0  0  0  0  0
   37.3370   26.9890   42.5280 C   0  0  0  0  0  0  0  0  0  0  0  0
   37.1060   25.7180   42.0670 C   0  0  0  0  0  0  0  0  0  0  0  0
   37.0530   25.4740   40.7490 N   0  0  0  0  0  0  0  0  0  0  0  0
   37.2330   26.4960   39.8960 C   0  0  0  0  0  0  0  0  0  0  0  0
   37.4620   27.7530   40.2740 N   0  0  0  0  0  0  0  0  0  0  0  0
   37.5190   28.0210   41.6060 C   0  0  0  0  0  0  0  0  0  0  0  0
   37.1760   26.2310   38.4460 C   0  0  0  0  0  0  0  0  0  0  0  0
   35.9600   25.8770   37.8480 C   0  0  0  0  0  0  0  0  0  0  0  0
   35.8860   25.6230   36.4870 C   0  0  0  0  0  0  0  0  0  0  0  0
   37.0230   25.7240   35.7320 C   0  0  0  0  0  0  0  0  0  0  0  0
   38.2210   26.0790   36.3530 C   0  0  0  0  0  0  0  0  0  0  0  0
   38.2600   26.3150   37.6530 N   0  0  0  0  0  0  0  0  0  0  0  0
   40.2937   32.8141   41.0954 H   0  0  0  0  0  0  0  0  0  0  0  0
   40.0117   30.6081   42.2578 H   0  0  0  0  0  0  0  0  0  0  0  0
   36.2966   32.6546   39.7197 H   0  0  0  0  0  0  0  0  0  0  0  0
   37.8287   29.6462   44.3279 H   0  0  0  0  0  0  0  0  0  0  0  0
   36.9634   24.8943   42.7820 H   0  0  0  0  0  0  0  0  0  0  0  0
   35.0529   25.7996   38.4654 H   0  0  0  0  0  0  0  0  0  0  0  0
   34.9289   25.3448   36.0216 H   0  0  0  0  0  0  0  0  0  0  0  0
   36.9928   25.5279   34.6500 H   0  0  0  0  0  0  0  0  0  0  0  0
   39.1408   26.1632   35.7556 H   0  0  0  0  0  0  0  0  0  0  0  0
  1  2  2  0
  3  2  1  0
  3  7  1  0
  4  3  2  0
  5  6  2  0
  5  4  1  0
  6  1  1  0
  7  8  1  0
  8  9  2  0
 10  9  1  0
 11 10  2  0
 12 11  1  0
 13 14  1  0
 13 12  2  0
 14 15  2  0
 15  7  1  0
 15 10  1  0
 16 13  1  0
 17 16  2  0
 18 17  1  0
 19 20  1  0
 19 18  2  0
 20 21  2  0
 21 16  1  0
  1 22  1  0
  2 23  1  0
  5 24  1  0
  8 25  1  0
 11 26  1  0
 17 27  1  0
 18 28  1  0
 19 29  1  0
 20 30  1  0
M  ISO  8  22  14  23  14  24  14  25  14  26  14  27  14  28  14  29  14
M  ISO  1  30  14
M  END
>  <minimizedAffinity>  (1) 
-4.85455751

>  <minimizedRMSD>  (1) 
0.146670744

$$$$
