
     RDKit          3D

 29 32  0  0  0  0  0  0  0  0999 V2000
   39.3090   32.2840   41.0140 C   0  0  0  0  0  0  0  0  0  0  0  0
   39.1720   31.0440   41.6740 C   0  0  0  0  0  0  0  0  0  0  0  0
   37.9340   30.4130   41.5940 C   0  0  0  0  0  0  0  0  0  0  0  0
   36.9490   31.0160   40.9000 N   0  0  0  0  0  0  0  0  0  0  0  0
   37.1020   32.1930   40.2800 C   0  0  0  0  0  0  0  0  0  0  0  0
   38.2880   32.8510   40.3260 N   0  0  0  0  0  0  0  0  0  0  0  0
   37.7170   29.1760   42.2250 N   0  0  0  0  0  0  0  0  0  0  0  0
   37.6740   28.9050   43.5280 C   0  0  0  0  0  0  0  0  0  0  0  0
   37.4410   27.5770   43.7460 N   0  0  0  0  0  0  0  0  0  0  0  0
   37.3300   26.9780   42.5390 C   0  0  0  0  0  0  0  0  0  0  0  0
   37.1040   25.7040   42.0680 C   0  0  0  0  0  0  0  0  0  0  0  0
   37.0550   25.4550   40.7500 N   0  0  0  0  0  0  0  0  0  0  0  0
   37.2330   26.4810   39.9000 C   0  0  0  0  0  0  0  0  0  0  0  0
   37.4550   27.7310   40.2840 N   0  0  0  0  0  0  0  0  0  0  0  0
   37.5070   27.9980   41.6140 C   0  0  0  0  0  0  0  0  0  0  0  0
   37.1830   26.2270   38.4570 C   0  0  0  0  0  0  0  0  0  0  0  0
   35.9880   25.8700   37.8490 C   0  0  0  0  0  0  0  0  0  0  0  0
   35.9100   25.6220   36.4810 C   0  0  0  0  0  0  0  0  0  0  0  0
   37.0320   25.7320   35.7150 N   0  0  0  0  0  0  0  0  0  0  0  0
   38.1860   26.0800   36.3210 C   0  0  0  0  0  0  0  0  0  0  0  0
   38.2600   26.3220   37.6570 N   0  0  0  0  0  0  0  0  0  0  0  0
   40.2755   32.8072   41.0594 H   0  0  0  0  0  0  0  0  0  0  0  0
   40.0090   30.5948   42.2287 H   0  0  0  0  0  0  0  0  0  0  0  0
   36.2576   32.6311   39.7277 H   0  0  0  0  0  0  0  0  0  0  0  0
   37.8084   29.6522   44.3240 H   0  0  0  0  0  0  0  0  0  0  0  0
   36.9617   24.8791   42.7816 H   0  0  0  0  0  0  0  0  0  0  0  0
   35.0796   25.7807   38.4629 H   0  0  0  0  0  0  0  0  0  0  0  0
   34.9509   25.3397   36.0224 H   0  0  0  0  0  0  0  0  0  0  0  0
   39.0984   26.1711   35.7134 H   0  0  0  0  0  0  0  0  0  0  0  0
  1  2  2  0
  3  2  1  0
  3  7  1  0
  4  3  2  0
  5  6  2  0
  5  4  1  0
  6  1  1  0
  7  8  1  0
  8  9  2  0
 10  9  1  0
 11 10  2  0
 12 11  1  0
 13 14  1  0
 13 12  2  0
 14 15  2  0
 15  7  1  0
 15 10  1  0
 16 13  1  0
 17 16  2  0
 18 17  1  0
 19 20  1  0
 19 18  2  0
 20 21  2  0
 21 16  1  0
  1 22  1  0
  2 23  1  0
  5 24  1  0
  8 25  1  0
 11 26  1  0
 17 27  1  0
 18 28  1  0
 20 29  1  0
M  ISO  8  22  14  23  14  24  14  25  14  26  14  27  14  28  14  29  14
M  END
>  <minimizedAffinity>  (1) 
-4.82497931

>  <minimizedRMSD>  (1) 
0.129403234

$$$$
