
     RDKit          3D

 28 31  0  0  0  0  0  0  0  0999 V2000
   39.1090   32.1580   40.8000 C   0  0  0  0  0  0  0  0  0  0  0  0
   39.0530   30.9320   41.4810 C   0  0  0  0  0  0  0  0  0  0  0  0
   37.8380   30.2810   41.5900 C   0  0  0  0  0  0  0  0  0  0  0  0
   36.7400   30.8650   41.0250 N   0  0  0  0  0  0  0  0  0  0  0  0
   36.8200   32.0430   40.3780 C   0  0  0  0  0  0  0  0  0  0  0  0
   38.0000   32.7020   40.2560 N   0  0  0  0  0  0  0  0  0  0  0  0
   37.7110   29.0520   42.2580 N   0  0  0  0  0  0  0  0  0  0  0  0
   37.8410   28.8180   43.5670 C   0  0  0  0  0  0  0  0  0  0  0  0
   37.6450   27.4930   43.8410 N   0  0  0  0  0  0  0  0  0  0  0  0
   37.3840   26.8740   42.6720 C   0  0  0  0  0  0  0  0  0  0  0  0
   37.1040   25.5900   42.2620 C   0  0  0  0  0  0  0  0  0  0  0  0
   36.8870   25.3140   40.9650 N   0  0  0  0  0  0  0  0  0  0  0  0
   36.9480   26.3180   40.0810 C   0  0  0  0  0  0  0  0  0  0  0  0
   37.2110   27.5780   40.4030 N   0  0  0  0  0  0  0  0  0  0  0  0
   37.4330   27.8770   41.7060 C   0  0  0  0  0  0  0  0  0  0  0  0
   36.7070   25.9970   38.6710 C   0  0  0  0  0  0  0  0  0  0  0  0
   35.7680   25.1250   38.1430 C   0  0  0  0  0  0  0  0  0  0  0  0
   35.8830   25.1200   36.7670 C   0  0  0  0  0  0  0  0  0  0  0  0
   36.8760   25.9770   36.4680 N   0  0  0  0  0  0  0  0  0  0  0  0
   37.3630   26.4930   37.5900 N   0  0  0  0  0  0  0  0  0  0  0  0
   40.0711   32.6833   40.7083 H   0  0  0  0  0  0  0  0  0  0  0  0
   39.9618   30.4957   41.9213 H   0  0  0  0  0  0  0  0  0  0  0  0
   35.9107   32.4800   39.9395 H   0  0  0  0  0  0  0  0  0  0  0  0
   38.0736   29.5853   44.3201 H   0  0  0  0  0  0  0  0  0  0  0  0
   37.0574   24.7803   43.0051 H   0  0  0  0  0  0  0  0  0  0  0  0
   35.0475   24.5326   38.7260 H   0  0  0  0  0  0  0  0  0  0  0  0
   35.2825   24.5325   36.0569 H   0  0  0  0  0  0  0  0  0  0  0  0
   37.2065   26.1980   35.5178 H   0  0  0  0  0  0  0  0  0  0  0  0
  1  2  2  0
  2  3  1  0
  3  7  1  0
  4  3  2  0
  5  4  1  0
  6  5  2  0
  6  1  1  0
  7  8  1  0
  8  9  2  0
 10  9  1  0
 11 10  2  0
 12 11  1  0
 13 14  1  0
 13 12  2  0
 14 15  2  0
 15  7  1  0
 15 10  1  0
 16 13  1  0
 17 16  1  0
 18 17  2  0
 19 18  1  0
 19 20  1  0
 20 16  2  0
  1 21  1  0
  2 22  1  0
  5 23  1  0
  8 24  1  0
 11 25  1  0
 17 26  1  0
 18 27  1  0
 19 28  1  0
M  ISO  8  21  14  22  14  23  14  24  14  25  14  26  14  27  14  28   9
M  END
>  <minimizedAffinity>  (1) 
-4.7104578

>  <minimizedRMSD>  (1) 
0.334928185

$$$$
