
     RDKit          3D

 28 31  0  0  0  0  0  0  0  0999 V2000
   39.1080   32.1660   40.8190 C   0  0  0  0  0  0  0  0  0  0  0  0
   39.0480   30.9400   41.5100 C   0  0  0  0  0  0  0  0  0  0  0  0
   37.8280   30.2920   41.5940 C   0  0  0  0  0  0  0  0  0  0  0  0
   36.7560   30.8660   41.0100 N   0  0  0  0  0  0  0  0  0  0  0  0
   36.8420   32.0390   40.3560 C   0  0  0  0  0  0  0  0  0  0  0  0
   38.0110   32.7040   40.2510 N   0  0  0  0  0  0  0  0  0  0  0  0
   37.7030   29.0610   42.2710 N   0  0  0  0  0  0  0  0  0  0  0  0
   37.8150   28.8090   43.5630 C   0  0  0  0  0  0  0  0  0  0  0  0
   37.6270   27.4900   43.8360 N   0  0  0  0  0  0  0  0  0  0  0  0
   37.3830   26.8730   42.6580 C   0  0  0  0  0  0  0  0  0  0  0  0
   37.1180   25.5830   42.2560 C   0  0  0  0  0  0  0  0  0  0  0  0
   36.9150   25.3160   40.9450 N   0  0  0  0  0  0  0  0  0  0  0  0
   36.9790   26.3220   40.0700 C   0  0  0  0  0  0  0  0  0  0  0  0
   37.2290   27.5850   40.3840 N   0  0  0  0  0  0  0  0  0  0  0  0
   37.4360   27.8800   41.6940 C   0  0  0  0  0  0  0  0  0  0  0  0
   36.7530   25.9730   38.6700 C   0  0  0  0  0  0  0  0  0  0  0  0
   37.2450   24.9100   37.9380 C   0  0  0  0  0  0  0  0  0  0  0  0
   36.8000   24.9380   36.6680 N   0  0  0  0  0  0  0  0  0  0  0  0
   36.0050   26.0410   36.5780 C   0  0  0  0  0  0  0  0  0  0  0  0
   35.9920   26.6420   37.7840 N   0  0  0  0  0  0  0  0  0  0  0  0
   40.0695   32.6947   40.7416 H   0  0  0  0  0  0  0  0  0  0  0  0
   39.9485   30.5084   41.9714 H   0  0  0  0  0  0  0  0  0  0  0  0
   35.9382   32.4654   39.8964 H   0  0  0  0  0  0  0  0  0  0  0  0
   38.0335   29.5722   44.3244 H   0  0  0  0  0  0  0  0  0  0  0  0
   37.0715   24.7723   42.9980 H   0  0  0  0  0  0  0  0  0  0  0  0
   37.9161   24.1377   38.3421 H   0  0  0  0  0  0  0  0  0  0  0  0
   35.4687   26.3807   35.6797 H   0  0  0  0  0  0  0  0  0  0  0  0
   35.4677   27.5019   37.9998 H   0  0  0  0  0  0  0  0  0  0  0  0
  1  2  2  0
  2  3  1  0
  3  7  1  0
  4  3  2  0
  5  4  1  0
  6  5  2  0
  6  1  1  0
  7  8  1  0
  8  9  2  0
 10  9  1  0
 11 10  2  0
 12 11  1  0
 13 14  1  0
 13 12  2  0
 14 15  2  0
 15  7  1  0
 15 10  1  0
 16 13  1  0
 17 16  2  0
 18 17  1  0
 19 18  2  0
 19 20  1  0
 20 16  1  0
  1 21  1  0
  2 22  1  0
  5 23  1  0
  8 24  1  0
 11 25  1  0
 17 26  1  0
 19 27  1  0
 20 28  1  0
M  ISO  8  21  14  22  14  23  14  24  14  25  14  26  14  27  14  28   9
M  END
>  <minimizedAffinity>  (1) 
-4.65867805

>  <minimizedRMSD>  (1) 
0.292922467

$$$$
