
     RDKit          3D

 24 26  0  0  0  0  0  0  0  0999 V2000
   39.0490   32.1350   40.8890 C   0  0  0  0  0  0  0  0  0  0  0  0
   39.0000   30.9110   41.5910 C   0  0  0  0  0  0  0  0  0  0  0  0
   37.7870   30.2500   41.6250 C   0  0  0  0  0  0  0  0  0  0  0  0
   36.7160   30.8050   40.9890 N   0  0  0  0  0  0  0  0  0  0  0  0
   36.7900   31.9700   40.3290 C   0  0  0  0  0  0  0  0  0  0  0  0
   37.9640   32.6500   40.2730 N   0  0  0  0  0  0  0  0  0  0  0  0
   37.6340   29.0180   42.3010 N   0  0  0  0  0  0  0  0  0  0  0  0
   37.6960   28.7900   43.6060 C   0  0  0  0  0  0  0  0  0  0  0  0
   37.4960   27.4740   43.8900 N   0  0  0  0  0  0  0  0  0  0  0  0
   37.2960   26.8390   42.7150 C   0  0  0  0  0  0  0  0  0  0  0  0
   37.0460   25.5520   42.3000 C   0  0  0  0  0  0  0  0  0  0  0  0
   36.8970   25.2650   40.9980 N   0  0  0  0  0  0  0  0  0  0  0  0
   36.9950   26.2570   40.1070 C   0  0  0  0  0  0  0  0  0  0  0  0
   37.2340   27.5240   40.4220 N   0  0  0  0  0  0  0  0  0  0  0  0
   37.3900   27.8390   41.7360 C   0  0  0  0  0  0  0  0  0  0  0  0
   36.8230   25.8700   38.7100 C   0  0  0  0  0  0  0  0  0  0  0  0
   35.8860   26.3460   38.0170 O   0  0  0  0  0  0  0  0  0  0  0  0
   37.6390   24.9730   38.0330 O   0  0  0  0  0  0  0  0  0  0  0  0
   40.0002   32.6856   40.8427 H   0  0  0  0  0  0  0  0  0  0  0  0
   39.8903   30.5007   42.0900 H   0  0  0  0  0  0  0  0  0  0  0  0
   35.8969   32.3760   39.8315 H   0  0  0  0  0  0  0  0  0  0  0  0
   37.8850   29.5658   44.3626 H   0  0  0  0  0  0  0  0  0  0  0  0
   36.9671   24.7471   43.0456 H   0  0  0  0  0  0  0  0  0  0  0  0
   37.4589   24.7597   37.0832 H   0  0  0  0  0  0  0  0  0  0  0  0
  1  2  2  0
  2  3  1  0
  3  7  1  0
  4  3  2  0
  5  4  1  0
  6  5  2  0
  6  1  1  0
  7  8  1  0
  8  9  2  0
 10  9  1  0
 11 10  2  0
 12 11  1  0
 13 14  1  0
 13 12  2  0
 14 15  2  0
 15  7  1  0
 15 10  1  0
 16 13  1  0
 17 16  2  0
 18 16  1  0
  1 19  1  0
  2 20  1  0
  5 21  1  0
  8 22  1  0
 11 23  1  0
 18 24  1  0
M  ISO  6  19  14  20  14  21  14  22  14  23  14  24   3
M  END
>  <minimizedAffinity>  (1) 
-4.51684332

>  <minimizedRMSD>  (1) 
0.261723846

$$$$
