
     RDKit          3D

 23 25  0  0  0  0  0  0  0  0999 V2000
   39.2520   32.2400   40.9260 C   0  0  0  0  0  0  0  0  0  0  0  0
   39.1210   31.0230   41.6150 C   0  0  0  0  0  0  0  0  0  0  0  0
   37.8740   30.3840   41.5790 C   0  0  0  0  0  0  0  0  0  0  0  0
   36.8830   30.9740   40.8890 N   0  0  0  0  0  0  0  0  0  0  0  0
   37.0370   32.1340   40.2440 C   0  0  0  0  0  0  0  0  0  0  0  0
   38.2290   32.7930   40.2490 N   0  0  0  0  0  0  0  0  0  0  0  0
   37.6850   29.1600   42.2500 N   0  0  0  0  0  0  0  0  0  0  0  0
   37.6910   28.9130   43.5430 C   0  0  0  0  0  0  0  0  0  0  0  0
   37.4710   27.5910   43.7980 N   0  0  0  0  0  0  0  0  0  0  0  0
   37.3170   26.9720   42.6100 C   0  0  0  0  0  0  0  0  0  0  0  0
   37.0780   25.6920   42.1850 C   0  0  0  0  0  0  0  0  0  0  0  0
   36.9810   25.4230   40.8730 N   0  0  0  0  0  0  0  0  0  0  0  0
   37.1210   26.4270   39.9790 C   0  0  0  0  0  0  0  0  0  0  0  0
   37.3530   27.6810   40.3210 N   0  0  0  0  0  0  0  0  0  0  0  0
   37.4570   27.9810   41.6570 C   0  0  0  0  0  0  0  0  0  0  0  0
   36.9960   26.0070   38.6240 N   0  0  0  0  0  0  0  0  0  0  0  0
   40.2224   32.7578   40.9403 H   0  0  0  0  0  0  0  0  0  0  0  0
   39.9682   30.5863   42.1641 H   0  0  0  0  0  0  0  0  0  0  0  0
   36.1846   32.5651   39.6984 H   0  0  0  0  0  0  0  0  0  0  0  0
   37.8528   29.6755   44.3191 H   0  0  0  0  0  0  0  0  0  0  0  0
   36.9652   24.8820   42.9206 H   0  0  0  0  0  0  0  0  0  0  0  0
   36.8148   25.0167   38.4064 H   0  0  0  0  0  0  0  0  0  0  0  0
   37.0868   26.6935   37.8616 H   0  0  0  0  0  0  0  0  0  0  0  0
  1  2  2  0
  3  2  1  0
  3  7  1  0
  4  3  2  0
  5  6  2  0
  5  4  1  0
  6  1  1  0
  7  8  1  0
  8  9  2  0
 10  9  1  0
 11 10  2  0
 12 11  1  0
 13 14  1  0
 13 12  2  0
 14 15  2  0
 15  7  1  0
 15 10  1  0
 16 13  1  0
  1 17  1  0
  2 18  1  0
  5 19  1  0
  8 20  1  0
 11 21  1  0
 16 22  1  0
 16 23  1  0
M  ISO  5  17  14  18  14  19  14  20  14  21  14
M  END
>  <minimizedAffinity>  (1) 
-4.51271057

>  <minimizedRMSD>  (1) 
0.0324180126

$$$$
