
     RDKit          3D

 37 39  0  0  1  0  0  0  0  0999 V2000
   36.6620   24.2180   41.1930 C   0  0  2  0  0  0  0  0  0  0  0  0
   37.6110   23.9390   42.2300 N   0  0  0  0  0  0  0  0  0  0  0  0
   39.0010   24.2120   42.0920 C   0  0  0  0  0  0  0  0  0  0  0  0
   39.4330   24.5550   40.9350 N   0  0  0  0  0  0  0  0  0  0  0  0
   39.8760   24.0900   43.1850 N   0  0  0  0  0  0  0  0  0  0  0  0
   40.4370   24.7300   40.7630 H   0  0  0  0  0  0  0  0  0  0  0  0
   36.4900   23.1630   40.1860 C   0  0  0  0  0  0  0  0  0  0  0  0
   37.3110   22.2180   39.6060 C   0  0  0  0  0  0  0  0  0  0  0  0
   36.8490   21.3550   38.6520 C   0  0  0  0  0  0  0  0  0  0  0  0
   35.5550   21.3620   38.2040 C   0  0  0  0  0  0  0  0  0  0  0  0
   34.7010   22.2930   38.7590 C   0  0  0  0  0  0  0  0  0  0  0  0
   35.1580   23.1840   39.7390 C   0  0  0  0  0  0  0  0  0  0  0  0
   37.0960   27.6460   40.2160 C   0  0  0  0  0  0  0  0  0  0  0  0
   37.1600   27.0020   38.9760 C   0  0  0  0  0  0  0  0  0  0  0  0
   37.0080   25.6720   39.2840 C   0  0  0  0  0  0  0  0  0  0  0  0
   36.8600   25.4980   40.6090 N   0  0  0  0  0  0  0  0  0  0  0  0
   36.9170   26.7130   41.1550 N   0  0  0  0  0  0  0  0  0  0  0  0
   36.2010   29.8810   40.8890 C   0  0  0  0  0  0  0  0  0  0  0  0
   37.2050   29.0790   40.3890 C   0  0  0  0  0  0  0  0  0  0  0  0
   38.4070   29.6850   40.0190 C   0  0  0  0  0  0  0  0  0  0  0  0
   38.5270   31.0410   40.1720 N   0  0  0  0  0  0  0  0  0  0  0  0
   37.5010   31.7900   40.6730 C   0  0  0  0  0  0  0  0  0  0  0  0
   36.3200   31.1950   41.0360 N   0  0  0  0  0  0  0  0  0  0  0  0
   35.6963   24.2352   41.7195 H   0  0  0  0  0  0  0  0  0  0  0  0
   37.2736   23.5243   43.1104 H   0  0  0  0  0  0  0  0  0  0  0  0
   40.8791   24.2917   43.0667 H   0  0  0  0  0  0  0  0  0  0  0  0
   39.5142   23.7989   44.1044 H   0  0  0  0  0  0  0  0  0  0  0  0
   38.3637   22.1575   39.9192 H   0  0  0  0  0  0  0  0  0  0  0  0
   37.5485   20.6215   38.2247 H   0  0  0  0  0  0  0  0  0  0  0  0
   35.2109   20.6554   37.4343 H   0  0  0  0  0  0  0  0  0  0  0  0
   33.6525   22.3360   38.4292 H   0  0  0  0  0  0  0  0  0  0  0  0
   34.4584   23.9164   40.1681 H   0  0  0  0  0  0  0  0  0  0  0  0
   37.2997   27.4557   37.9837 H   0  0  0  0  0  0  0  0  0  0  0  0
   37.0074   24.8574   38.5448 H   0  0  0  0  0  0  0  0  0  0  0  0
   35.2522   29.4074   41.1813 H   0  0  0  0  0  0  0  0  0  0  0  0
   39.2376   29.0881   39.6144 H   0  0  0  0  0  0  0  0  0  0  0  0
   37.6226   32.8774   40.7861 H   0  0  0  0  0  0  0  0  0  0  0  0
  1  2  1  0
  3  2  1  0
  3  5  1  0
  4  3  2  0
  6  4  1  0
  7  1  1  0
  8  7  2  0
  9  8  1  0
 10  9  2  0
 10 11  1  0
 11 12  2  0
 12  7  1  0
 13 19  1  0
 13 17  2  0
 14 15  2  0
 14 13  1  0
 15 16  1  0
 16 17  1  0
 16  1  1  0
 18 23  2  0
 19 18  1  0
 20 21  1  0
 20 19  2  0
 21 22  2  0
 22 23  1  0
  1 24  1  1
  2 25  1  0
  5 26  1  0
  5 27  1  0
  8 28  1  0
  9 29  1  0
 10 30  1  0
 11 31  1  0
 12 32  1  0
 14 33  1  0
 15 34  1  0
 18 35  1  0
 20 36  1  0
 22 37  1  0
M  ISO  8  24   8  28  14  29  14  30  14  31  14  32  14  33  14  34  14
M  ISO  3  35  14  36  14  37  14
M  END
>  <minimizedAffinity>  (1) 
-4.7663908

>  <minimizedRMSD>  (1) 
1.78783178

$$$$
