
     RDKit          3D

 28 31  0  0  0  0  0  0  0  0999 V2000
   39.0160   32.1170   40.9570 C   0  0  0  0  0  0  0  0  0  0  0  0
   38.9600   30.8900   41.6630 C   0  0  0  0  0  0  0  0  0  0  0  0
   37.7340   30.2240   41.6360 C   0  0  0  0  0  0  0  0  0  0  0  0
   36.7010   30.7650   40.9630 N   0  0  0  0  0  0  0  0  0  0  0  0
   36.7930   31.9310   40.3060 C   0  0  0  0  0  0  0  0  0  0  0  0
   37.9530   32.6200   40.2970 N   0  0  0  0  0  0  0  0  0  0  0  0
   37.5860   28.9870   42.3150 N   0  0  0  0  0  0  0  0  0  0  0  0
   37.6130   28.7480   43.6140 C   0  0  0  0  0  0  0  0  0  0  0  0
   37.4310   27.4180   43.8760 N   0  0  0  0  0  0  0  0  0  0  0  0
   37.2810   26.7950   42.6930 C   0  0  0  0  0  0  0  0  0  0  0  0
   37.0700   25.5020   42.2790 C   0  0  0  0  0  0  0  0  0  0  0  0
   36.9640   25.2230   40.9640 N   0  0  0  0  0  0  0  0  0  0  0  0
   37.0680   26.2280   40.0690 C   0  0  0  0  0  0  0  0  0  0  0  0
   37.2720   27.4890   40.4140 N   0  0  0  0  0  0  0  0  0  0  0  0
   37.3830   27.8030   41.7310 C   0  0  0  0  0  0  0  0  0  0  0  0
   36.9440   25.8600   38.6300 C   0  0  0  0  0  0  0  0  0  0  0  0
   35.5560   25.9040   38.0010 C   0  0  0  0  0  0  0  0  0  0  0  0
   36.6270   26.8470   37.5940 C   0  0  0  0  0  0  0  0  0  0  0  0
   39.9610   32.6799   40.9468 H   0  0  0  0  0  0  0  0  0  0  0  0
   39.8309   30.4864   42.2003 H   0  0  0  0  0  0  0  0  0  0  0  0
   35.9174   32.3278   39.7714 H   0  0  0  0  0  0  0  0  0  0  0  0
   37.7624   29.5185   44.3847 H   0  0  0  0  0  0  0  0  0  0  0  0
   36.9875   24.6939   43.0207 H   0  0  0  0  0  0  0  0  0  0  0  0
   37.7529   25.1242   38.7494 H   0  0  0  0  0  0  0  0  0  0  0  0
   35.2310   25.1054   37.3179 H   0  0  0  0  0  0  0  0  0  0  0  0
   34.5250   25.9961   38.3733 H   0  0  0  0  0  0  0  0  0  0  0  0
   37.0829   26.7545   36.5972 H   0  0  0  0  0  0  0  0  0  0  0  0
   36.6986   27.9431   37.5350 H   0  0  0  0  0  0  0  0  0  0  0  0
  1  2  2  0
  3  2  1  0
  3  7  1  0
  4  3  2  0
  5  4  1  0
  6  5  2  0
  6  1  1  0
  7  8  1  0
  8  9  2  0
 10  9  1  0
 11 10  2  0
 12 11  1  0
 13 14  1  0
 13 12  2  0
 14 15  2  0
 15  7  1  0
 15 10  1  0
 16 13  1  0
 17 16  1  0
 18 17  1  0
 18 16  1  0
  1 19  1  0
  2 20  1  0
  5 21  1  0
  8 22  1  0
 11 23  1  0
 16 24  1  0
 17 25  1  0
 17 26  1  0
 18 27  1  0
 18 28  1  0
M  ISO  8  19  14  20  14  21  14  22  14  23  14  24  13  25  13  26  13
M  ISO  2  27  13  28  13
M  END
>  <minimizedAffinity>  (1) 
-4.66772604

>  <minimizedRMSD>  (1) 
0.248541713

$$$$
