
     RDKit          3D

 38 42  0  0  1  0  0  0  0  0999 V2000
   39.3270   32.0640   41.3010 C   0  0  0  0  0  0  0  0  0  0  0  0
   39.1270   30.8450   41.9750 C   0  0  0  0  0  0  0  0  0  0  0  0
   37.8960   30.2110   41.7800 C   0  0  0  0  0  0  0  0  0  0  0  0
   36.9840   30.7780   40.9800 N   0  0  0  0  0  0  0  0  0  0  0  0
   37.2160   31.9450   40.3550 C   0  0  0  0  0  0  0  0  0  0  0  0
   38.3720   32.6040   40.4970 N   0  0  0  0  0  0  0  0  0  0  0  0
   37.6370   28.9800   42.4220 N   0  0  0  0  0  0  0  0  0  0  0  0
   37.5050   28.7220   43.7130 C   0  0  0  0  0  0  0  0  0  0  0  0
   37.2700   27.4040   43.9400 N   0  0  0  0  0  0  0  0  0  0  0  0
   37.2480   26.7810   42.7380 C   0  0  0  0  0  0  0  0  0  0  0  0
   37.0660   25.4960   42.2890 C   0  0  0  0  0  0  0  0  0  0  0  0
   37.1130   25.2350   40.9640 N   0  0  0  0  0  0  0  0  0  0  0  0
   37.3380   26.2470   40.1170 C   0  0  0  0  0  0  0  0  0  0  0  0
   37.5200   27.4950   40.4940 N   0  0  0  0  0  0  0  0  0  0  0  0
   37.4820   27.8050   41.8060 C   0  0  0  0  0  0  0  0  0  0  0  0
   37.4020   25.9210   38.6580 C   0  0  1  0  0  0  0  0  0  0  0  0
   36.2620   25.1430   38.0400 C   0  0  0  0  0  0  0  0  0  0  0  0
   36.5860   26.5440   37.6450 C   0  0  1  0  0  0  0  0  0  0  0  0
   35.4350   27.4540   37.7310 C   0  0  0  0  0  0  0  0  0  0  0  0
   34.4390   27.2450   36.7690 C   0  0  0  0  0  0  0  0  0  0  0  0
   33.2460   27.9780   36.7670 C   0  0  0  0  0  0  0  0  0  0  0  0
   33.1120   28.9180   37.7660 C   0  0  0  0  0  0  0  0  0  0  0  0
   34.1060   29.1090   38.7040 C   0  0  0  0  0  0  0  0  0  0  0  0
   35.2830   28.4000   38.7230 C   0  0  0  0  0  0  0  0  0  0  0  0
   40.2821   32.5948   41.4279 H   0  0  0  0  0  0  0  0  0  0  0  0
   39.9020   30.4116   42.6242 H   0  0  0  0  0  0  0  0  0  0  0  0
   36.4339   32.3702   39.7088 H   0  0  0  0  0  0  0  0  0  0  0  0
   37.5768   29.4819   44.5051 H   0  0  0  0  0  0  0  0  0  0  0  0
   36.8826   24.6819   43.0056 H   0  0  0  0  0  0  0  0  0  0  0  0
   38.4913   25.8128   38.7667 H   0  0  0  0  0  0  0  0  0  0  0  0
   36.4651   24.3091   37.3520 H   0  0  0  0  0  0  0  0  0  0  0  0
   35.3745   24.6087   38.4099 H   0  0  0  0  0  0  0  0  0  0  0  0
   36.9416   27.1596   36.8056 H   0  0  0  0  0  0  0  0  0  0  0  0
   34.5986   26.4827   35.9922 H   0  0  0  0  0  0  0  0  0  0  0  0
   32.4623   27.8134   36.0129 H   0  0  0  0  0  0  0  0  0  0  0  0
   32.1970   29.5264   37.8165 H   0  0  0  0  0  0  0  0  0  0  0  0
   33.9472   29.8719   39.4804 H   0  0  0  0  0  0  0  0  0  0  0  0
   36.0576   28.5764   39.4839 H   0  0  0  0  0  0  0  0  0  0  0  0
  1  2  2  0
  3  2  1  0
  3  7  1  0
  4  3  2  0
  5  6  2  0
  5  4  1  0
  6  1  1  0
  7  8  1  0
  8  9  2  0
 10  9  1  0
 11 10  2  0
 12 11  1  0
 13 14  1  0
 13 12  2  0
 14 15  2  0
 15  7  1  0
 15 10  1  0
 16 13  1  0
 17 16  1  0
 18 19  1  0
 18 17  1  0
 18 16  1  0
 19 24  1  0
 20 19  2  0
 21 20  1  0
 21 22  2  0
 22 23  1  0
 23 24  2  0
  1 25  1  0
  2 26  1  0
  5 27  1  0
  8 28  1  0
 11 29  1  0
 16 30  1  6
 17 31  1  0
 17 32  1  0
 18 33  1  6
 20 34  1  0
 21 35  1  0
 22 36  1  0
 23 37  1  0
 24 38  1  0
M  ISO  8  25  14  26  14  27  14  28  14  29  14  30  13  31  13  32  13
M  ISO  6  33  13  34  14  35  14  36  14  37  14  38  14
M  END
>  <minimizedAffinity>  (1) 
-5.69157076

>  <minimizedRMSD>  (1) 
1.04782152

$$$$
