
     RDKit          3D

 35 39  0  0  1  0  0  0  0  0999 V2000
   38.9770   32.1390   40.8430 C   0  0  0  0  0  0  0  0  0  0  0  0
   38.9860   30.9100   41.5380 C   0  0  0  0  0  0  0  0  0  0  0  0
   37.7530   30.2420   41.6170 C   0  0  0  0  0  0  0  0  0  0  0  0
   36.6680   30.7810   41.0520 N   0  0  0  0  0  0  0  0  0  0  0  0
   36.7130   31.9590   40.3990 C   0  0  0  0  0  0  0  0  0  0  0  0
   37.8690   32.6490   40.2880 N   0  0  0  0  0  0  0  0  0  0  0  0
   37.6640   28.9890   42.2970 N   0  0  0  0  0  0  0  0  0  0  0  0
   37.8120   28.7390   43.5790 C   0  0  0  0  0  0  0  0  0  0  0  0
   37.6580   27.4040   43.8380 N   0  0  0  0  0  0  0  0  0  0  0  0
   37.4030   26.7960   42.6670 C   0  0  0  0  0  0  0  0  0  0  0  0
   37.1630   25.5070   42.2420 C   0  0  0  0  0  0  0  0  0  0  0  0
   36.9440   25.2410   40.9420 N   0  0  0  0  0  0  0  0  0  0  0  0
   36.9620   26.2550   40.0590 C   0  0  0  0  0  0  0  0  0  0  0  0
   37.1870   27.5250   40.4000 N   0  0  0  0  0  0  0  0  0  0  0  0
   37.4110   27.8130   41.7120 C   0  0  0  0  0  0  0  0  0  0  0  0
   36.7370   25.9030   38.6250 C   0  0  1  0  0  0  0  0  0  0  0  0
   35.5680   24.9470   38.3320 C   0  0  0  0  0  0  0  0  0  0  0  0
   35.5760   26.3730   37.8900 C   0  0  2  0  0  0  0  0  0  0  0  0
   35.6290   26.7110   36.4440 C   0  0  0  0  0  0  0  0  0  0  0  0
   35.5010   25.7970   35.3980 C   0  0  0  0  0  0  0  0  0  0  0  0
   35.6070   26.5080   34.2390 N   0  0  0  0  0  0  0  0  0  0  0  0
   35.7910   27.7970   34.6070 C   0  0  0  0  0  0  0  0  0  0  0  0
   35.8100   27.9540   35.9450 N   0  0  0  0  0  0  0  0  0  0  0  0
   39.9183   32.7010   40.7534 H   0  0  0  0  0  0  0  0  0  0  0  0
   39.9019   30.5010   41.9896 H   0  0  0  0  0  0  0  0  0  0  0  0
   35.7946   32.3647   39.9496 H   0  0  0  0  0  0  0  0  0  0  0  0
   38.0304   29.5010   44.3417 H   0  0  0  0  0  0  0  0  0  0  0  0
   37.1504   24.6865   42.9745 H   0  0  0  0  0  0  0  0  0  0  0  0
   37.8172   25.9507   38.4229 H   0  0  0  0  0  0  0  0  0  0  0  0
   35.6820   24.1353   37.5984 H   0  0  0  0  0  0  0  0  0  0  0  0
   34.9013   24.3035   38.9247 H   0  0  0  0  0  0  0  0  0  0  0  0
   34.9000   27.2295   38.0293 H   0  0  0  0  0  0  0  0  0  0  0  0
   35.3447   24.7121   35.4902 H   0  0  0  0  0  0  0  0  0  0  0  0
   35.9117   28.6250   33.8929 H   0  0  0  0  0  0  0  0  0  0  0  0
   35.9351   28.8299   36.4724 H   0  0  0  0  0  0  0  0  0  0  0  0
  1  2  2  0
  2  3  1  0
  3  7  1  0
  4  3  2  0
  5  4  1  0
  6  5  2  0
  6  1  1  0
  7  8  1  0
  8  9  2  0
 10  9  1  0
 11 10  2  0
 12 11  1  0
 13 14  1  0
 13 12  2  0
 14 15  2  0
 15  7  1  0
 15 10  1  0
 16 13  1  0
 17 16  1  0
 18 17  1  0
 18 16  1  0
 19 18  1  0
 20 19  2  0
 21 22  2  0
 21 20  1  0
 22 23  1  0
 23 19  1  0
  1 24  1  0
  2 25  1  0
  5 26  1  0
  8 27  1  0
 11 28  1  0
 16 29  1  6
 17 30  1  0
 17 31  1  0
 18 32  1  1
 20 33  1  0
 22 34  1  0
 23 35  1  0
M  ISO  8  24  14  25  14  26  14  27  14  28  14  29  13  30  13  31  13
M  ISO  4  32  13  33  14  34  14  35   9
M  END
>  <minimizedAffinity>  (1) 
-5.01937389

>  <minimizedRMSD>  (1) 
1.02831602

$$$$
