
     RDKit          3D

 35 39  0  0  1  0  0  0  0  0999 V2000
   39.0880   32.1850   40.8740 C   0  0  0  0  0  0  0  0  0  0  0  0
   39.0440   30.9420   41.5280 C   0  0  0  0  0  0  0  0  0  0  0  0
   37.8090   30.2950   41.5900 C   0  0  0  0  0  0  0  0  0  0  0  0
   36.7480   30.8820   41.0340 N   0  0  0  0  0  0  0  0  0  0  0  0
   36.8240   32.0730   40.4140 C   0  0  0  0  0  0  0  0  0  0  0  0
   37.9990   32.7370   40.3300 N   0  0  0  0  0  0  0  0  0  0  0  0
   37.7040   29.0270   42.2350 N   0  0  0  0  0  0  0  0  0  0  0  0
   37.8660   28.7280   43.5030 C   0  0  0  0  0  0  0  0  0  0  0  0
   37.6890   27.3890   43.7130 N   0  0  0  0  0  0  0  0  0  0  0  0
   37.4050   26.8360   42.5300 C   0  0  0  0  0  0  0  0  0  0  0  0
   37.1310   25.5570   42.0860 C   0  0  0  0  0  0  0  0  0  0  0  0
   36.8820   25.3350   40.7680 N   0  0  0  0  0  0  0  0  0  0  0  0
   36.9070   26.3780   39.9290 C   0  0  0  0  0  0  0  0  0  0  0  0
   37.1640   27.6300   40.3030 N   0  0  0  0  0  0  0  0  0  0  0  0
   37.4170   27.8790   41.6100 C   0  0  0  0  0  0  0  0  0  0  0  0
   36.6490   26.0840   38.4810 C   0  0  1  0  0  0  0  0  0  0  0  0
   35.4920   25.1140   38.1710 C   0  0  0  0  0  0  0  0  0  0  0  0
   35.4560   26.5580   37.8000 C   0  0  2  0  0  0  0  0  0  0  0  0
   35.5350   26.9360   36.3820 N   0  0  0  0  0  0  0  0  0  0  0  0
   35.1420   26.2780   35.2930 N   0  0  0  0  0  0  0  0  0  0  0  0
   35.4330   27.0480   34.2070 C   0  0  0  0  0  0  0  0  0  0  0  0
   36.0320   28.2360   34.6210 C   0  0  0  0  0  0  0  0  0  0  0  0
   36.0730   28.1120   36.0020 C   0  0  0  0  0  0  0  0  0  0  0  0
   40.0471   32.7196   40.8078 H   0  0  0  0  0  0  0  0  0  0  0  0
   39.9462   30.4971   41.9730 H   0  0  0  0  0  0  0  0  0  0  0  0
   35.9189   32.5126   39.9696 H   0  0  0  0  0  0  0  0  0  0  0  0
   38.1110   29.4565   44.2900 H   0  0  0  0  0  0  0  0  0  0  0  0
   37.1143   24.7188   42.7982 H   0  0  0  0  0  0  0  0  0  0  0  0
   37.7222   26.1662   38.2543 H   0  0  0  0  0  0  0  0  0  0  0  0
   35.6044   24.3418   37.3957 H   0  0  0  0  0  0  0  0  0  0  0  0
   34.8561   24.4268   38.7484 H   0  0  0  0  0  0  0  0  0  0  0  0
   34.7470   27.3761   37.9952 H   0  0  0  0  0  0  0  0  0  0  0  0
   35.2264   26.7734   33.1621 H   0  0  0  0  0  0  0  0  0  0  0  0
   36.3874   29.0722   34.0010 H   0  0  0  0  0  0  0  0  0  0  0  0
   36.4856   28.8657   36.6888 H   0  0  0  0  0  0  0  0  0  0  0  0
  1  2  2  0
  2  3  1  0
  3  7  1  0
  4  3  2  0
  5  4  1  0
  6  5  2  0
  6  1  1  0
  7  8  1  0
  8  9  2  0
 10  9  1  0
 11 10  2  0
 12 11  1  0
 13 14  1  0
 13 12  2  0
 14 15  2  0
 15  7  1  0
 15 10  1  0
 16 13  1  0
 17 16  1  0
 18 17  1  0
 18 16  1  0
 19 18  1  0
 20 19  1  0
 21 22  1  0
 21 20  2  0
 22 23  2  0
 23 19  1  0
  1 24  1  0
  2 25  1  0
  5 26  1  0
  8 27  1  0
 11 28  1  0
 16 29  1  6
 17 30  1  0
 17 31  1  0
 18 32  1  1
 21 33  1  0
 22 34  1  0
 23 35  1  0
M  ISO  8  24  14  25  14  26  14  27  14  28  14  29  13  30  13  31  13
M  ISO  4  32  13  33  14  34  14  35  14
M  END
>  <minimizedAffinity>  (1) 
-5.00767183

>  <minimizedRMSD>  (1) 
1.09559941

$$$$
