
     RDKit          3D

 34 38  0  0  1  0  0  0  0  0999 V2000
   38.9920   32.1570   40.8660 C   0  0  0  0  0  0  0  0  0  0  0  0
   38.9680   30.9300   41.5540 C   0  0  0  0  0  0  0  0  0  0  0  0
   37.7610   30.2530   41.6200 C   0  0  0  0  0  0  0  0  0  0  0  0
   36.6950   30.7990   41.0330 N   0  0  0  0  0  0  0  0  0  0  0  0
   36.7360   31.9690   40.3820 C   0  0  0  0  0  0  0  0  0  0  0  0
   37.8940   32.6640   40.2910 N   0  0  0  0  0  0  0  0  0  0  0  0
   37.6730   29.0040   42.2960 N   0  0  0  0  0  0  0  0  0  0  0  0
   37.8230   28.7420   43.5710 C   0  0  0  0  0  0  0  0  0  0  0  0
   37.6710   27.4070   43.8310 N   0  0  0  0  0  0  0  0  0  0  0  0
   37.4130   26.8040   42.6610 C   0  0  0  0  0  0  0  0  0  0  0  0
   37.1710   25.5210   42.2350 C   0  0  0  0  0  0  0  0  0  0  0  0
   36.9450   25.2620   40.9270 N   0  0  0  0  0  0  0  0  0  0  0  0
   36.9590   26.2740   40.0520 C   0  0  0  0  0  0  0  0  0  0  0  0
   37.1880   27.5420   40.3980 N   0  0  0  0  0  0  0  0  0  0  0  0
   37.4190   27.8310   41.7110 C   0  0  0  0  0  0  0  0  0  0  0  0
   36.7310   25.9300   38.6180 C   0  0  1  0  0  0  0  0  0  0  0  0
   35.5610   24.9740   38.3220 C   0  0  0  0  0  0  0  0  0  0  0  0
   35.5650   26.4020   37.8910 C   0  0  2  0  0  0  0  0  0  0  0  0
   35.6210   26.7330   36.4780 N   0  0  0  0  0  0  0  0  0  0  0  0
   35.3930   25.9760   35.3910 C   0  0  0  0  0  0  0  0  0  0  0  0
   35.5820   26.7750   34.3070 N   0  0  0  0  0  0  0  0  0  0  0  0
   35.9230   28.0170   34.7340 C   0  0  0  0  0  0  0  0  0  0  0  0
   35.9400   27.9660   36.0940 N   0  0  0  0  0  0  0  0  0  0  0  0
   39.9378   32.7146   40.7986 H   0  0  0  0  0  0  0  0  0  0  0  0
   39.8757   30.5225   42.0231 H   0  0  0  0  0  0  0  0  0  0  0  0
   35.8219   32.3679   39.9180 H   0  0  0  0  0  0  0  0  0  0  0  0
   38.0435   29.5003   44.3367 H   0  0  0  0  0  0  0  0  0  0  0  0
   37.1609   24.6971   42.9638 H   0  0  0  0  0  0  0  0  0  0  0  0
   37.8105   25.9802   38.4125 H   0  0  0  0  0  0  0  0  0  0  0  0
   35.6732   24.1680   37.5819 H   0  0  0  0  0  0  0  0  0  0  0  0
   34.8975   24.3251   38.9125 H   0  0  0  0  0  0  0  0  0  0  0  0
   34.8866   27.2551   38.0395 H   0  0  0  0  0  0  0  0  0  0  0  0
   35.1081   24.9136   35.3803 H   0  0  0  0  0  0  0  0  0  0  0  0
   36.1424   28.8924   34.1051 H   0  0  0  0  0  0  0  0  0  0  0  0
  1  2  2  0
  2  3  1  0
  3  7  1  0
  4  3  2  0
  5  4  1  0
  6  5  2  0
  6  1  1  0
  7  8  1  0
  8  9  2  0
 10  9  1  0
 11 10  2  0
 12 11  1  0
 13 14  1  0
 13 12  2  0
 14 15  2  0
 15  7  1  0
 15 10  1  0
 16 13  1  0
 17 16  1  0
 18 17  1  0
 18 16  1  0
 19 18  1  0
 20 19  1  0
 21 22  1  0
 21 20  2  0
 22 23  2  0
 23 19  1  0
  1 24  1  0
  2 25  1  0
  5 26  1  0
  8 27  1  0
 11 28  1  0
 16 29  1  6
 17 30  1  0
 17 31  1  0
 18 32  1  1
 20 33  1  0
 22 34  1  0
M  ISO  8  24  14  25  14  26  14  27  14  28  14  29  13  30  13  31  13
M  ISO  3  32  13  33  14  34  14
M  END
>  <minimizedAffinity>  (1) 
-4.99122715

>  <minimizedRMSD>  (1) 
1.04530609

$$$$
