
     RDKit          3D

 35 39  0  0  1  0  0  0  0  0999 V2000
   36.6330   29.9630   37.8670 C   0  0  0  0  0  0  0  0  0  0  0  0
   37.3290   29.8770   39.0870 C   0  0  0  0  0  0  0  0  0  0  0  0
   36.7700   29.0720   40.0870 C   0  0  0  0  0  0  0  0  0  0  0  0
   35.6230   28.4360   39.8320 N   0  0  0  0  0  0  0  0  0  0  0  0
   34.9850   28.5430   38.6520 C   0  0  0  0  0  0  0  0  0  0  0  0
   35.4850   29.3090   37.6550 N   0  0  0  0  0  0  0  0  0  0  0  0
   37.4240   28.9350   41.3380 N   0  0  0  0  0  0  0  0  0  0  0  0
   37.6270   29.8450   42.2630 C   0  0  0  0  0  0  0  0  0  0  0  0
   38.3100   29.3200   43.3300 N   0  0  0  0  0  0  0  0  0  0  0  0
   38.5370   28.0240   43.0510 C   0  0  0  0  0  0  0  0  0  0  0  0
   39.1610   26.9640   43.6840 C   0  0  0  0  0  0  0  0  0  0  0  0
   39.2180   25.7580   43.1040 N   0  0  0  0  0  0  0  0  0  0  0  0
   38.6550   25.5940   41.8880 C   0  0  0  0  0  0  0  0  0  0  0  0
   38.0410   26.5710   41.2260 N   0  0  0  0  0  0  0  0  0  0  0  0
   37.9720   27.8030   41.7950 C   0  0  0  0  0  0  0  0  0  0  0  0
   38.7670   24.2370   41.2750 C   0  0  1  0  0  0  0  0  0  0  0  0
   37.4580   23.4650   41.0610 C   0  0  0  0  0  0  0  0  0  0  0  0
   38.2990   23.9570   39.9320 C   0  0  2  0  0  0  0  0  0  0  0  0
   39.0960   22.9930   39.1290 C   0  0  0  0  0  0  0  0  0  0  0  0
   40.3180   23.2240   38.3340 C   0  0  0  0  0  0  0  0  0  0  0  0
   40.7660   22.1030   37.7350 C   0  0  0  0  0  0  0  0  0  0  0  0
   40.2160   20.8470   37.7990 C   0  0  0  0  0  0  0  0  0  0  0  0
   38.7410   21.2460   38.9310 S   0  0  0  0  0  0  0  0  0  0  0  0
   37.0460   30.5881   37.0616 H   0  0  0  0  0  0  0  0  0  0  0  0
   38.2724   30.4193   39.2482 H   0  0  0  0  0  0  0  0  0  0  0  0
   34.0418   27.9990   38.4955 H   0  0  0  0  0  0  0  0  0  0  0  0
   37.2931   30.8906   42.1913 H   0  0  0  0  0  0  0  0  0  0  0  0
   39.6154   27.1132   44.6746 H   0  0  0  0  0  0  0  0  0  0  0  0
   39.7305   24.0733   41.7799 H   0  0  0  0  0  0  0  0  0  0  0  0
   37.4015   22.3899   41.2868 H   0  0  0  0  0  0  0  0  0  0  0  0
   36.4103   23.5758   41.3774 H   0  0  0  0  0  0  0  0  0  0  0  0
   38.0701   24.5661   39.0451 H   0  0  0  0  0  0  0  0  0  0  0  0
   40.8092   24.2038   38.2407 H   0  0  0  0  0  0  0  0  0  0  0  0
   41.6759   22.2063   37.1255 H   0  0  0  0  0  0  0  0  0  0  0  0
   40.5317   19.8999   37.3371 H   0  0  0  0  0  0  0  0  0  0  0  0
  1  2  2  0
  2  3  1  0
  3  7  1  0
  4  3  2  0
  5  4  1  0
  6  1  1  0
  6  5  2  0
  7 15  1  0
  7  8  1  0
  8  9  2  0
 10  9  1  0
 10 11  2  0
 12 11  1  0
 13 12  2  0
 14 15  2  0
 14 13  1  0
 15 10  1  0
 16 13  1  0
 17 16  1  0
 18 17  1  0
 18 16  1  0
 19 18  1  0
 20 19  2  0
 21 22  2  0
 21 20  1  0
 22 23  1  0
 23 19  1  0
  1 24  1  0
  2 25  1  0
  5 26  1  0
  8 27  1  0
 11 28  1  0
 16 29  1  1
 17 30  1  0
 17 31  1  0
 18 32  1  6
 20 33  1  0
 21 34  1  0
 22 35  1  0
M  ISO  8  24  14  25  14  26  14  27  14  28  14  29  13  30  13  31  13
M  ISO  4  32  13  33  14  34  14  35  14
M  END
>  <minimizedAffinity>  (1) 
-4.9348712

>  <minimizedRMSD>  (1) 
3.86873031

$$$$
