
     RDKit          3D

 33 35  0  0  1  0  0  0  0  0999 V2000
   35.6460   29.0520   38.1330 C   0  0  0  0  0  0  0  0  0  0  0  0
   34.4780   28.9760   38.8840 C   0  0  0  0  0  0  0  0  0  0  0  0
   34.9140   29.2230   40.1680 C   0  0  0  0  0  0  0  0  0  0  0  0
   36.2480   29.4330   40.1900 N   0  0  0  0  0  0  0  0  0  0  0  0
   36.6960   29.3270   38.9440 N   0  0  0  0  0  0  0  0  0  0  0  0
   36.7900   29.1860   35.8970 C   0  0  0  0  0  0  0  0  0  0  0  0
   35.7090   28.8650   36.6960 C   0  0  0  0  0  0  0  0  0  0  0  0
   34.5900   28.3180   36.0680 C   0  0  0  0  0  0  0  0  0  0  0  0
   34.5930   28.1180   34.7120 N   0  0  0  0  0  0  0  0  0  0  0  0
   35.7230   28.4690   33.9870 C   0  0  0  0  0  0  0  0  0  0  0  0
   36.8160   29.0030   34.5840 N   0  0  0  0  0  0  0  0  0  0  0  0
   36.9300   29.7460   41.4350 C   0  0  1  0  0  0  0  0  0  0  0  0
   37.7720   28.6640   41.8350 N   0  0  0  0  0  0  0  0  0  0  0  0
   37.3960   27.6410   42.7410 C   0  0  0  0  0  0  0  0  0  0  0  0
   36.2760   27.7920   43.3490 N   0  0  0  0  0  0  0  0  0  0  0  0
   38.2260   26.5340   42.9720 N   0  0  0  0  0  0  0  0  0  0  0  0
   35.9640   27.0920   44.0490 H   0  0  0  0  0  0  0  0  0  0  0  0
   37.8440   30.9460   41.1450 C   0  0  0  0  0  0  0  0  0  0  0  0
   37.2320   32.0720   40.5380 C   0  0  0  0  0  0  0  0  0  0  0  0
   38.6540   33.1730   40.4040 S   0  0  0  0  0  0  0  0  0  0  0  0
   39.8400   31.9620   41.1770 C   0  0  0  0  0  0  0  0  0  0  0  0
   39.1210   30.8810   41.4630 N   0  0  0  0  0  0  0  0  0  0  0  0
   33.4547   28.7690   38.5375 H   0  0  0  0  0  0  0  0  0  0  0  0
   34.2635   29.2460   41.0548 H   0  0  0  0  0  0  0  0  0  0  0  0
   37.6799   29.6181   36.3779 H   0  0  0  0  0  0  0  0  0  0  0  0
   33.7044   28.0469   36.6615 H   0  0  0  0  0  0  0  0  0  0  0  0
   35.7317   28.3095   32.8987 H   0  0  0  0  0  0  0  0  0  0  0  0
   36.1910   29.9440   42.2254 H   0  0  0  0  0  0  0  0  0  0  0  0
   38.7209   28.6242   41.4363 H   0  0  0  0  0  0  0  0  0  0  0  0
   37.9345   25.8011   43.6344 H   0  0  0  0  0  0  0  0  0  0  0  0
   39.1269   26.4540   42.4792 H   0  0  0  0  0  0  0  0  0  0  0  0
   36.1864   32.2293   40.2348 H   0  0  0  0  0  0  0  0  0  0  0  0
   40.9145   32.1108   41.3593 H   0  0  0  0  0  0  0  0  0  0  0  0
  1  2  1  0
  1  5  2  0
  2  3  2  0
  3  4  1  0
  4 12  1  0
  5  4  1  0
  6  7  2  0
  7  1  1  0
  8  7  1  0
  9  8  2  0
 10 11  2  0
 10  9  1  0
 11  6  1  0
 12 13  1  0
 13 14  1  0
 14 16  1  0
 14 15  2  0
 15 17  1  0
 18 12  1  0
 18 22  1  0
 19 18  2  0
 20 19  1  0
 20 21  1  0
 21 22  2  0
  2 23  1  0
  3 24  1  0
  6 25  1  0
  8 26  1  0
 10 27  1  0
 12 28  1  1
 13 29  1  0
 16 30  1  0
 16 31  1  0
 19 32  1  0
 21 33  1  0
M  ISO  8  23  14  24  14  25  14  26  14  27  14  28   8  32  14  33  14
M  END
>  <minimizedAffinity>  (1) 
-4.6119566

>  <minimizedRMSD>  (1) 
6.37436104

$$$$
