
     RDKit          3D

 35 39  0  0  1  0  0  0  0  0999 V2000
   38.9880   32.0680   40.6290 C   0  0  0  0  0  0  0  0  0  0  0  0
   39.0130   30.8700   41.3770 C   0  0  0  0  0  0  0  0  0  0  0  0
   37.7760   30.2330   41.5560 C   0  0  0  0  0  0  0  0  0  0  0  0
   36.6730   30.7700   41.0280 N   0  0  0  0  0  0  0  0  0  0  0  0
   36.7010   31.9150   40.3210 C   0  0  0  0  0  0  0  0  0  0  0  0
   37.8590   32.5740   40.1160 N   0  0  0  0  0  0  0  0  0  0  0  0
   37.7110   29.0140   42.2970 N   0  0  0  0  0  0  0  0  0  0  0  0
   37.9390   28.8180   43.5740 C   0  0  0  0  0  0  0  0  0  0  0  0
   37.7760   27.4980   43.9000 N   0  0  0  0  0  0  0  0  0  0  0  0
   37.4310   26.8410   42.7710 C   0  0  0  0  0  0  0  0  0  0  0  0
   37.1410   25.5430   42.4230 C   0  0  0  0  0  0  0  0  0  0  0  0
   36.8340   25.2270   41.1600 N   0  0  0  0  0  0  0  0  0  0  0  0
   36.8130   26.2010   40.2290 C   0  0  0  0  0  0  0  0  0  0  0  0
   37.0840   27.4720   40.5110 N   0  0  0  0  0  0  0  0  0  0  0  0
   37.3990   27.8240   41.7790 C   0  0  0  0  0  0  0  0  0  0  0  0
   36.4930   25.7910   38.8310 C   0  0  1  0  0  0  0  0  0  0  0  0
   35.7620   26.8310   37.9640 C   0  0  0  0  0  0  0  0  0  0  0  0
   37.1560   26.3810   37.6840 C   0  0  2  0  0  0  0  0  0  0  0  0
   37.4180   25.4730   36.5250 C   0  0  0  0  0  0  0  0  0  0  0  0
   36.7170   25.4260   35.3170 C   0  0  0  0  0  0  0  0  0  0  0  0
   37.3140   24.4280   34.5470 C   0  0  0  0  0  0  0  0  0  0  0  0
   38.3440   23.9270   35.3320 C   0  0  0  0  0  0  0  0  0  0  0  0
   38.3580   24.5760   36.4810 O   0  0  0  0  0  0  0  0  0  0  0  0
   39.9325   32.6063   40.4613 H   0  0  0  0  0  0  0  0  0  0  0  0
   39.9455   30.4615   41.7937 H   0  0  0  0  0  0  0  0  0  0  0  0
   35.7662   32.3185   39.9048 H   0  0  0  0  0  0  0  0  0  0  0  0
   38.2226   29.6069   44.2862 H   0  0  0  0  0  0  0  0  0  0  0  0
   37.1616   24.7560   43.1913 H   0  0  0  0  0  0  0  0  0  0  0  0
   36.3422   24.7494   39.1510 H   0  0  0  0  0  0  0  0  0  0  0  0
   34.9348   26.5262   37.3061 H   0  0  0  0  0  0  0  0  0  0  0  0
   35.2574   27.7934   38.1346 H   0  0  0  0  0  0  0  0  0  0  0  0
   38.0955   26.9310   37.5268 H   0  0  0  0  0  0  0  0  0  0  0  0
   35.8609   26.0540   35.0294 H   0  0  0  0  0  0  0  0  0  0  0  0
   37.0296   24.1065   33.5342 H   0  0  0  0  0  0  0  0  0  0  0  0
   39.0350   23.1212   35.0434 H   0  0  0  0  0  0  0  0  0  0  0  0
  1  2  2  0
  2  3  1  0
  3  7  1  0
  4  3  2  0
  5  4  1  0
  6  5  2  0
  6  1  1  0
  7  8  1  0
  8  9  2  0
 10  9  1  0
 11 10  2  0
 12 11  1  0
 13 14  1  0
 13 12  2  0
 14 15  2  0
 15  7  1  0
 15 10  1  0
 16 13  1  0
 17 16  1  0
 18 17  1  0
 18 16  1  0
 19 18  1  0
 20 19  2  0
 21 20  1  0
 21 22  2  0
 22 23  1  0
 23 19  1  0
  1 24  1  0
  2 25  1  0
  5 26  1  0
  8 27  1  0
 11 28  1  0
 16 29  1  1
 17 30  1  0
 17 31  1  0
 18 32  1  1
 20 33  1  0
 21 34  1  0
 22 35  1  0
M  ISO  8  24  14  25  14  26  14  27  14  28  14  29  13  30  13  31  13
M  ISO  4  32  13  33  14  34  14  35  14
M  END
>  <minimizedAffinity>  (1) 
-4.75486851

>  <minimizedRMSD>  (1) 
1.04079723

$$$$
