
     RDKit          3D

 36 38  0  0  1  0  0  0  0  0999 V2000
   35.9290   23.2730   38.7190 C   0  0  2  0  0  0  0  0  0  0  0  0
   36.4320   22.2370   39.5670 N   0  0  0  0  0  0  0  0  0  0  0  0
   37.7540   21.7450   39.5130 C   0  0  0  0  0  0  0  0  0  0  0  0
   38.4880   22.1540   38.5490 N   0  0  0  0  0  0  0  0  0  0  0  0
   38.2290   20.8300   40.4670 N   0  0  0  0  0  0  0  0  0  0  0  0
   39.4670   21.8140   38.4440 H   0  0  0  0  0  0  0  0  0  0  0  0
   36.8460   26.3340   40.3950 C   0  0  0  0  0  0  0  0  0  0  0  0
   36.8480   26.7580   39.0660 C   0  0  0  0  0  0  0  0  0  0  0  0
   36.5130   25.6200   38.3650 C   0  0  0  0  0  0  0  0  0  0  0  0
   36.3210   24.5810   39.2200 N   0  0  0  0  0  0  0  0  0  0  0  0
   36.5270   25.0250   40.4540 N   0  0  0  0  0  0  0  0  0  0  0  0
   37.5660   26.7570   42.7660 C   0  0  0  0  0  0  0  0  0  0  0  0
   37.1420   27.2000   41.5160 C   0  0  0  0  0  0  0  0  0  0  0  0
   36.9970   28.5790   41.3350 C   0  0  0  0  0  0  0  0  0  0  0  0
   37.2760   29.4190   42.3840 N   0  0  0  0  0  0  0  0  0  0  0  0
   37.6890   28.9090   43.5870 C   0  0  0  0  0  0  0  0  0  0  0  0
   37.8340   27.5750   43.7780 N   0  0  0  0  0  0  0  0  0  0  0  0
   34.4120   23.2340   38.6890 C   0  0  0  0  0  0  0  0  0  0  0  0
   33.6750   22.6450   39.7110 C   0  0  0  0  0  0  0  0  0  0  0  0
   32.2980   22.6170   39.6690 C   0  0  0  0  0  0  0  0  0  0  0  0
   31.6380   23.1910   38.5840 C   0  0  0  0  0  0  0  0  0  0  0  0
   32.3930   23.7760   37.5720 C   0  0  0  0  0  0  0  0  0  0  0  0
   33.7340   23.7730   37.6650 N   0  0  0  0  0  0  0  0  0  0  0  0
   36.3436   23.1095   37.7133 H   0  0  0  0  0  0  0  0  0  0  0  0
   35.7905   21.8247   40.2594 H   0  0  0  0  0  0  0  0  0  0  0  0
   39.1970   20.4828   40.4102 H   0  0  0  0  0  0  0  0  0  0  0  0
   37.6093   20.5063   41.2233 H   0  0  0  0  0  0  0  0  0  0  0  0
   37.0652   27.7616   38.6716 H   0  0  0  0  0  0  0  0  0  0  0  0
   36.4151   25.5609   37.2710 H   0  0  0  0  0  0  0  0  0  0  0  0
   37.6851   25.6749   42.9237 H   0  0  0  0  0  0  0  0  0  0  0  0
   36.6648   28.9839   40.3677 H   0  0  0  0  0  0  0  0  0  0  0  0
   37.9078   29.5978   44.4163 H   0  0  0  0  0  0  0  0  0  0  0  0
   34.1997   22.1944   40.5664 H   0  0  0  0  0  0  0  0  0  0  0  0
   31.7261   22.1469   40.4826 H   0  0  0  0  0  0  0  0  0  0  0  0
   30.5394   23.1818   38.5286 H   0  0  0  0  0  0  0  0  0  0  0  0
   31.8974   24.2363   36.7045 H   0  0  0  0  0  0  0  0  0  0  0  0
  1 10  1  0
  1  2  1  0
  3  2  1  0
  3  5  1  0
  4  3  2  0
  6  4  1  0
  7 11  2  0
  7 13  1  0
  8  7  1  0
  9  8  2  0
  9 10  1  0
 10 11  1  0
 12 17  2  0
 13 12  1  0
 14 13  2  0
 14 15  1  0
 15 16  2  0
 16 17  1  0
 18  1  1  0
 18 19  2  0
 20 19  1  0
 21 20  2  0
 22 23  2  0
 22 21  1  0
 23 18  1  0
  1 24  1  6
  2 25  1  0
  5 26  1  0
  5 27  1  0
  8 28  1  0
  9 29  1  0
 12 30  1  0
 14 31  1  0
 16 32  1  0
 19 33  1  0
 20 34  1  0
 21 35  1  0
 22 36  1  0
M  ISO  8  24   8  28  14  29  14  30  14  31  14  32  14  33  14  34  14
M  ISO  2  35  14  36  14
M  END
>  <minimizedAffinity>  (1) 
-4.46661663

>  <minimizedRMSD>  (1) 
2.61022711

$$$$
