
     RDKit          3D

 33 36  0  0  0  0  0  0  0  0999 V2000
   37.6500   29.8170   41.6210 N   0  0  0  0  0  0  0  0  0  0  0  0
   37.8150   29.4150   42.8660 N   0  0  0  0  0  0  0  0  0  0  0  0
   37.1930   28.2480   43.0780 C   0  0  0  0  0  0  0  0  0  0  0  0
   36.6000   27.8960   41.8920 C   0  0  0  0  0  0  0  0  0  0  0  0
   36.8900   28.8980   40.9510 C   0  0  0  0  0  0  0  0  0  0  0  0
   36.4100   28.8010   39.5770 C   0  0  0  0  0  0  0  0  0  0  0  0
   35.1020   29.1130   39.2250 C   0  0  0  0  0  0  0  0  0  0  0  0
   34.5870   29.0550   37.9460 C   0  0  0  0  0  0  0  0  0  0  0  0
   35.4200   28.6560   36.9220 C   0  0  0  0  0  0  0  0  0  0  0  0
   36.7290   28.3330   37.2070 C   0  0  0  0  0  0  0  0  0  0  0  0
   37.5190   27.9520   36.1570 C   0  0  0  0  0  0  0  0  0  0  0  0
   38.8390   27.6270   36.3760 C   0  0  0  0  0  0  0  0  0  0  0  0
   39.3320   27.6990   37.6830 C   0  0  0  0  0  0  0  0  0  0  0  0
   38.4830   28.0870   38.6810 C   0  0  0  0  0  0  0  0  0  0  0  0
   37.1570   28.4200   38.5080 C   0  0  0  0  0  0  0  0  0  0  0  0
   38.1180   30.9740   40.9220 C   0  0  0  0  0  0  0  0  0  0  0  0
   39.4640   31.1790   40.5170 C   0  0  0  0  0  0  0  0  0  0  0  0
   39.7540   32.3650   39.8400 C   0  0  0  0  0  0  0  0  0  0  0  0
   38.7360   33.2380   39.6140 N   0  0  0  0  0  0  0  0  0  0  0  0
   37.4810   33.0060   40.0110 C   0  0  0  0  0  0  0  0  0  0  0  0
   37.1750   31.8710   40.6670 N   0  0  0  0  0  0  0  0  0  0  0  0
   37.1633   27.6815   44.0204 H   0  0  0  0  0  0  0  0  0  0  0  0
   36.0033   26.9900   41.7101 H   0  0  0  0  0  0  0  0  0  0  0  0
   34.4234   29.4315   40.0300 H   0  0  0  0  0  0  0  0  0  0  0  0
   33.5380   29.3205   37.7482 H   0  0  0  0  0  0  0  0  0  0  0  0
   35.0441   28.5963   35.8900 H   0  0  0  0  0  0  0  0  0  0  0  0
   37.1008   27.9054   35.1406 H   0  0  0  0  0  0  0  0  0  0  0  0
   39.4893   27.3186   35.5442 H   0  0  0  0  0  0  0  0  0  0  0  0
   40.3804   27.4487   37.9027 H   0  0  0  0  0  0  0  0  0  0  0  0
   38.8896   28.1374   39.7018 H   0  0  0  0  0  0  0  0  0  0  0  0
   40.2454   30.4341   40.7281 H   0  0  0  0  0  0  0  0  0  0  0  0
   40.7761   32.5869   39.4993 H   0  0  0  0  0  0  0  0  0  0  0  0
   36.6946   33.7459   39.8007 H   0  0  0  0  0  0  0  0  0  0  0  0
  1  2  1  0
  2  3  2  0
  4  3  1  0
  5  1  1  0
  5  4  2  0
  6  5  1  0
  7  6  2  0
  8  7  1  0
  9 10  1  0
  9  8  2  0
 10 15  2  0
 11 12  2  0
 11 10  1  0
 12 13  1  0
 13 14  2  0
 15 14  1  0
 15  6  1  0
 16  1  1  0
 17 16  2  0
 18 17  1  0
 19 18  2  0
 19 20  1  0
 20 21  2  0
 21 16  1  0
  3 22  1  0
  4 23  1  0
  7 24  1  0
  8 25  1  0
  9 26  1  0
 11 27  1  0
 12 28  1  0
 13 29  1  0
 14 30  1  0
 17 31  1  0
 18 32  1  0
 20 33  1  0
M  ISO  8  22  14  23  14  24  14  25  14  26  14  27  14  28  14  29  14
M  ISO  4  30  14  31  14  32  14  33  14
M  END
>  <minimizedAffinity>  (1) 
-5.046525

>  <minimizedRMSD>  (1) 
3.84166455

$$$$
