
     RDKit          3D

 27 29  0  0  0  0  0  0  0  0999 V2000
   37.6380   29.6260   41.8490 N   0  0  0  0  0  0  0  0  0  0  0  0
   37.9930   29.3400   43.0900 N   0  0  0  0  0  0  0  0  0  0  0  0
   37.3270   28.2640   43.5320 C   0  0  0  0  0  0  0  0  0  0  0  0
   36.4930   27.8410   42.4980 C   0  0  0  0  0  0  0  0  0  0  0  0
   36.7130   28.7270   41.4400 C   0  0  0  0  0  0  0  0  0  0  0  0
   38.0470   30.6510   40.9420 C   0  0  0  0  0  0  0  0  0  0  0  0
   39.2190   30.5900   40.1340 C   0  0  0  0  0  0  0  0  0  0  0  0
   39.4850   31.6640   39.3000 C   0  0  0  0  0  0  0  0  0  0  0  0
   38.6150   32.7070   39.3020 N   0  0  0  0  0  0  0  0  0  0  0  0
   37.5190   32.7310   40.0770 C   0  0  0  0  0  0  0  0  0  0  0  0
   37.2330   31.6990   40.9010 N   0  0  0  0  0  0  0  0  0  0  0  0
   35.9420   28.4810   40.2270 C   0  0  0  0  0  0  0  0  0  0  0  0
   36.3390   27.4620   39.3660 C   0  0  0  0  0  0  0  0  0  0  0  0
   35.6880   27.1320   38.1850 C   0  0  0  0  0  0  0  0  0  0  0  0
   34.5800   27.8560   37.8430 C   0  0  0  0  0  0  0  0  0  0  0  0
   34.1490   28.8700   38.6560 C   0  0  0  0  0  0  0  0  0  0  0  0
   34.8200   29.1700   39.8220 C   0  0  0  0  0  0  0  0  0  0  0  0
   37.4210   27.8010   44.5254 H   0  0  0  0  0  0  0  0  0  0  0  0
   35.8027   26.9847   42.5121 H   0  0  0  0  0  0  0  0  0  0  0  0
   39.8902   29.7193   40.1711 H   0  0  0  0  0  0  0  0  0  0  0  0
   40.3756   31.6717   38.6545 H   0  0  0  0  0  0  0  0  0  0  0  0
   36.8463   33.6006   40.0408 H   0  0  0  0  0  0  0  0  0  0  0  0
   37.2299   26.8779   39.6402 H   0  0  0  0  0  0  0  0  0  0  0  0
   36.0519   26.3145   37.5452 H   0  0  0  0  0  0  0  0  0  0  0  0
   34.0353   27.6243   36.9158 H   0  0  0  0  0  0  0  0  0  0  0  0
   33.2581   29.4511   38.3757 H   0  0  0  0  0  0  0  0  0  0  0  0
   34.4457   29.9900   40.4525 H   0  0  0  0  0  0  0  0  0  0  0  0
  1  2  1  0
  2  3  2  0
  4  3  1  0
  5  1  1  0
  5  4  2  0
  6  1  1  0
  7  6  2  0
  8  9  2  0
  8  7  1  0
  9 10  1  0
 10 11  2  0
 11  6  1  0
 12  5  1  0
 13 12  2  0
 14 13  1  0
 15 14  2  0
 15 16  1  0
 16 17  2  0
 17 12  1  0
  3 18  1  0
  4 19  1  0
  7 20  1  0
  8 21  1  0
 10 22  1  0
 13 23  1  0
 14 24  1  0
 15 25  1  0
 16 26  1  0
 17 27  1  0
M  ISO  8  18  14  19  14  20  14  21  14  22  14  23  14  24  14  25  14
M  ISO  2  26  14  27  14
M  END
>  <minimizedAffinity>  (1) 
-4.91138601

>  <minimizedRMSD>  (1) 
4.28699493

$$$$
