
     RDKit          3D

 34 36  0  0  1  0  0  0  0  0999 V2000
   37.0590   27.3930   40.0800 C   0  0  0  0  0  0  0  0  0  0  0  0
   37.1430   26.7930   38.8200 C   0  0  0  0  0  0  0  0  0  0  0  0
   37.0790   25.4490   39.0960 C   0  0  0  0  0  0  0  0  0  0  0  0
   36.9650   25.2330   40.4180 N   0  0  0  0  0  0  0  0  0  0  0  0
   36.9540   26.4240   41.0020 N   0  0  0  0  0  0  0  0  0  0  0  0
   36.0860   29.5400   40.9520 C   0  0  0  0  0  0  0  0  0  0  0  0
   37.0840   28.8280   40.3060 C   0  0  0  0  0  0  0  0  0  0  0  0
   38.1960   29.5340   39.8340 C   0  0  0  0  0  0  0  0  0  0  0  0
   38.2610   30.8850   40.0240 N   0  0  0  0  0  0  0  0  0  0  0  0
   37.2260   31.5310   40.6810 C   0  0  0  0  0  0  0  0  0  0  0  0
   36.1460   30.8550   41.1400 N   0  0  0  0  0  0  0  0  0  0  0  0
   36.8630   23.9220   40.9730 C   0  0  2  0  0  0  0  0  0  0  0  0
   37.7540   23.7180   42.0710 N   0  0  0  0  0  0  0  0  0  0  0  0
   39.0830   24.1720   42.1030 C   0  0  0  0  0  0  0  0  0  0  0  0
   39.5700   24.6370   41.0210 N   0  0  0  0  0  0  0  0  0  0  0  0
   39.8600   24.0970   43.2710 N   0  0  0  0  0  0  0  0  0  0  0  0
   40.5530   24.9660   40.9580 H   0  0  0  0  0  0  0  0  0  0  0  0
   36.8880   22.8990   39.9500 C   0  0  0  0  0  0  0  0  0  0  0  0
   37.8860   22.1350   39.5220 C   0  0  0  0  0  0  0  0  0  0  0  0
   37.7010   21.2170   38.5260 C   0  0  0  0  0  0  0  0  0  0  0  0
   36.3510   21.1580   37.9950 C   0  0  0  0  0  0  0  0  0  0  0  0
   35.3630   22.4520   38.9640 S   0  0  0  0  0  0  0  0  0  0  0  0
   37.2379   27.2819   37.8392 H   0  0  0  0  0  0  0  0  0  0  0  0
   37.1161   24.6546   38.3360 H   0  0  0  0  0  0  0  0  0  0  0  0
   35.2068   28.9942   41.3251 H   0  0  0  0  0  0  0  0  0  0  0  0
   39.0098   29.0062   39.3151 H   0  0  0  0  0  0  0  0  0  0  0  0
   37.2830   32.6189   40.8334 H   0  0  0  0  0  0  0  0  0  0  0  0
   35.8673   23.8259   41.4305 H   0  0  0  0  0  0  0  0  0  0  0  0
   37.3994   23.2056   42.8911 H   0  0  0  0  0  0  0  0  0  0  0  0
   40.8320   24.4376   43.2657 H   0  0  0  0  0  0  0  0  0  0  0  0
   39.4576   23.7014   44.1327 H   0  0  0  0  0  0  0  0  0  0  0  0
   38.8813   22.2428   39.9778 H   0  0  0  0  0  0  0  0  0  0  0  0
   38.5122   20.5729   38.1556 H   0  0  0  0  0  0  0  0  0  0  0  0
   35.9792   20.4992   37.1964 H   0  0  0  0  0  0  0  0  0  0  0  0
  1  7  1  0
  1  5  2  0
  2  3  2  0
  2  1  1  0
  3  4  1  0
  4 12  1  0
  4  5  1  0
  6 11  2  0
  7  6  1  0
  8  9  1  0
  8  7  2  0
  9 10  2  0
 10 11  1  0
 12 13  1  0
 13 14  1  0
 14 16  1  0
 15 14  2  0
 17 15  1  0
 18 12  1  0
 19 18  2  0
 20 19  1  0
 21 20  2  0
 21 22  1  0
 22 18  1  0
  2 23  1  0
  3 24  1  0
  6 25  1  0
  8 26  1  0
 10 27  1  0
 12 28  1  1
 13 29  1  0
 16 30  1  0
 16 31  1  0
 19 32  1  0
 20 33  1  0
 21 34  1  0
M  ISO  8  23  14  24  14  25  14  26  14  27  14  28   8  32  14  33  14
M  ISO  1  34  14
M  END
>  <minimizedAffinity>  (1) 
-4.38800955

>  <minimizedRMSD>  (1) 
1.52353716

$$$$
