
     RDKit          3D

 30 32  0  0  0  0  0  0  0  0999 V2000
   37.5990   30.1820   41.2130 N   0  0  0  0  0  0  0  0  0  0  0  0
   37.4130   29.6250   42.3820 N   0  0  0  0  0  0  0  0  0  0  0  0
   36.9940   28.3590   42.2470 C   0  0  0  0  0  0  0  0  0  0  0  0
   36.9040   28.0880   40.9030 C   0  0  0  0  0  0  0  0  0  0  0  0
   37.2930   29.2590   40.2510 C   0  0  0  0  0  0  0  0  0  0  0  0
   37.2870   29.2450   38.8150 N   0  0  0  0  0  0  0  0  0  0  0  0
   36.0520   29.1820   38.2450 C   0  0  0  0  0  0  0  0  0  0  0  0
   35.8250   29.1580   36.8730 C   0  0  0  0  0  0  0  0  0  0  0  0
   34.4590   29.0890   36.3240 C   0  0  0  0  0  0  0  0  0  0  0  0
   36.9750   29.2030   36.0900 C   0  0  0  0  0  0  0  0  0  0  0  0
   36.8350   29.1850   34.8420 O   0  0  0  0  0  0  0  0  0  0  0  0
   38.1830   29.2650   36.6740 N   0  0  0  0  0  0  0  0  0  0  0  0
   38.3620   29.2860   38.0090 C   0  0  0  0  0  0  0  0  0  0  0  0
   39.4610   29.3430   38.5810 O   0  0  0  0  0  0  0  0  0  0  0  0
   38.0270   31.4740   40.7910 C   0  0  0  0  0  0  0  0  0  0  0  0
   39.3110   32.0090   40.9830 C   0  0  0  0  0  0  0  0  0  0  0  0
   39.5760   33.2900   40.5120 C   0  0  0  0  0  0  0  0  0  0  0  0
   38.5650   33.9540   39.8840 N   0  0  0  0  0  0  0  0  0  0  0  0
   37.3500   33.4270   39.7090 C   0  0  0  0  0  0  0  0  0  0  0  0
   37.0690   32.1850   40.1590 N   0  0  0  0  0  0  0  0  0  0  0  0
   36.7634   27.6616   43.0658 H   0  0  0  0  0  0  0  0  0  0  0  0
   36.5899   27.1425   40.4368 H   0  0  0  0  0  0  0  0  0  0  0  0
   35.1781   29.1479   38.9122 H   0  0  0  0  0  0  0  0  0  0  0  0
   33.7333   29.0523   37.1499 H   0  0  0  0  0  0  0  0  0  0  0  0
   34.2668   29.9786   35.7062 H   0  0  0  0  0  0  0  0  0  0  0  0
   34.3574   28.1846   35.7062 H   0  0  0  0  0  0  0  0  0  0  0  0
   39.0162   29.2982   36.0694 H   0  0  0  0  0  0  0  0  0  0  0  0
   40.0910   31.4267   41.4954 H   0  0  0  0  0  0  0  0  0  0  0  0
   40.5663   33.7511   40.6416 H   0  0  0  0  0  0  0  0  0  0  0  0
   36.5719   34.0095   39.1941 H   0  0  0  0  0  0  0  0  0  0  0  0
  1  2  1  0
  3  2  2  0
  4  3  1  0
  5  4  2  0
  5  1  1  0
  6  5  1  0
  7  6  1  0
  8  7  2  0
  9  8  1  0
 10 12  1  0
 10  8  1  0
 11 10  2  0
 12 13  1  0
 13 14  2  0
 13  6  1  0
 15 16  2  0
 15  1  1  0
 17 16  1  0
 18 17  2  0
 19 18  1  0
 19 20  2  0
 20 15  1  0
  3 21  1  0
  4 22  1  0
  7 23  1  0
  9 24  1  0
  9 25  1  0
  9 26  1  0
 12 27  1  0
 16 28  1  0
 17 29  1  0
 19 30  1  0
M  ISO  8  21  14  22  14  23  14  24   8  25   8  26   8  27   9  28  14
M  ISO  2  29  14  30  14
M  END
>  <minimizedAffinity>  (1) 
-4.81467962

>  <minimizedRMSD>  (1) 
2.73108363

$$$$
