
     RDKit          3D

 24 25  0  0  0  0  0  0  0  0999 V2000
   37.8830   32.3850   40.1270 N   0  0  0  0  0  0  0  0  0  0  0  0
   37.1750   31.7000   40.9770 N   0  0  0  0  0  0  0  0  0  0  0  0
   36.3590   30.8390   40.3550 C   0  0  0  0  0  0  0  0  0  0  0  0
   36.5700   30.9940   39.0060 C   0  0  0  0  0  0  0  0  0  0  0  0
   37.5470   31.9850   38.8620 C   0  0  0  0  0  0  0  0  0  0  0  0
   38.8770   33.4120   40.2660 C   0  0  0  0  0  0  0  0  0  0  0  0
   40.2380   33.1870   40.5230 C   0  0  0  0  0  0  0  0  0  0  0  0
   41.0570   34.3120   40.6190 C   0  0  0  0  0  0  0  0  0  0  0  0
   40.5000   35.5440   40.4620 N   0  0  0  0  0  0  0  0  0  0  0  0
   39.1900   35.7250   40.2170 C   0  0  0  0  0  0  0  0  0  0  0  0
   38.3710   34.6550   40.1180 N   0  0  0  0  0  0  0  0  0  0  0  0
   38.0360   32.4330   37.6060 N   0  0  0  0  0  0  0  0  0  0  0  0
   37.8110   31.7400   36.3650 C   0  0  0  0  0  0  0  0  0  0  0  0
   37.8470   30.4330   36.4700 N   0  0  0  0  0  0  0  0  0  0  0  0
   37.5780   32.5290   35.1790 N   0  0  0  0  0  0  0  0  0  0  0  0
   37.6810   29.9360   35.5570 H   0  0  0  0  0  0  0  0  0  0  0  0
   35.6550   30.1416   40.8325 H   0  0  0  0  0  0  0  0  0  0  0  0
   36.0678   30.4450   38.1959 H   0  0  0  0  0  0  0  0  0  0  0  0
   40.6405   32.1704   40.6432 H   0  0  0  0  0  0  0  0  0  0  0  0
   42.1336   34.2055   40.8180 H   0  0  0  0  0  0  0  0  0  0  0  0
   38.7865   36.7413   40.0976 H   0  0  0  0  0  0  0  0  0  0  0  0
   38.5837   33.3050   37.5820 H   0  0  0  0  0  0  0  0  0  0  0  0
   37.5761   33.5574   35.2367 H   0  0  0  0  0  0  0  0  0  0  0  0
   37.4136   32.0636   34.2749 H   0  0  0  0  0  0  0  0  0  0  0  0
  1  6  1  0
  1  2  1  0
  3  2  2  0
  4  3  1  0
  5  4  2  0
  5  1  1  0
  6  7  2  0
  7  8  1  0
  9  8  2  0
 10  9  1  0
 11 10  2  0
 11  6  1  0
 12  5  1  0
 13 14  2  0
 13 12  1  0
 15 13  1  0
 16 14  1  0
  3 17  1  0
  4 18  1  0
  7 19  1  0
  8 20  1  0
 10 21  1  0
 12 22  1  0
 15 23  1  0
 15 24  1  0
M  ISO  5  17  14  18  14  19  14  20  14  21  14
M  END
>  <minimizedAffinity>  (1) 
-4.79943991

>  <minimizedRMSD>  (1) 
0.589399159

$$$$
