
     RDKit          3D

 30 33  0  0  0  0  0  0  0  0999 V2000
   37.8190   29.8570   41.6540 N   0  0  0  0  0  0  0  0  0  0  0  0
   37.6070   29.3870   42.8700 N   0  0  0  0  0  0  0  0  0  0  0  0
   36.8310   28.2720   42.7880 C   0  0  0  0  0  0  0  0  0  0  0  0
   36.5570   28.0490   41.4610 C   0  0  0  0  0  0  0  0  0  0  0  0
   37.1920   29.0650   40.7630 C   0  0  0  0  0  0  0  0  0  0  0  0
   38.5570   30.9900   41.1930 C   0  0  0  0  0  0  0  0  0  0  0  0
   39.9740   31.0290   41.0530 C   0  0  0  0  0  0  0  0  0  0  0  0
   40.5550   32.2020   40.5920 C   0  0  0  0  0  0  0  0  0  0  0  0
   39.7240   33.2510   40.2980 N   0  0  0  0  0  0  0  0  0  0  0  0
   38.3980   33.1750   40.4430 C   0  0  0  0  0  0  0  0  0  0  0  0
   37.8070   32.0500   40.8880 N   0  0  0  0  0  0  0  0  0  0  0  0
   37.0710   29.0790   39.3340 N   0  0  0  0  0  0  0  0  0  0  0  0
   36.0960   29.7860   38.7050 C   0  0  0  0  0  0  0  0  0  0  0  0
   36.2010   29.6340   37.3740 N   0  0  0  0  0  0  0  0  0  0  0  0
   37.2470   28.8260   37.1270 C   0  0  0  0  0  0  0  0  0  0  0  0
   37.8360   28.3150   35.9860 C   0  0  0  0  0  0  0  0  0  0  0  0
   38.9080   27.5060   36.0810 N   0  0  0  0  0  0  0  0  0  0  0  0
   39.3900   27.2080   37.3200 C   0  0  0  0  0  0  0  0  0  0  0  0
   38.8300   27.6960   38.4600 N   0  0  0  0  0  0  0  0  0  0  0  0
   37.7690   28.4960   38.3610 C   0  0  0  0  0  0  0  0  0  0  0  0
   37.2610   28.6860   34.7480 N   0  0  0  0  0  0  0  0  0  0  0  0
   36.4852   27.6591   43.6334 H   0  0  0  0  0  0  0  0  0  0  0  0
   35.9559   27.2307   41.0378 H   0  0  0  0  0  0  0  0  0  0  0  0
   40.5909   30.1533   41.3034 H   0  0  0  0  0  0  0  0  0  0  0  0
   41.6446   32.2866   40.4670 H   0  0  0  0  0  0  0  0  0  0  0  0
   37.7772   34.0483   40.1941 H   0  0  0  0  0  0  0  0  0  0  0  0
   35.3321   30.3942   39.2115 H   0  0  0  0  0  0  0  0  0  0  0  0
   40.2657   26.5474   37.4019 H   0  0  0  0  0  0  0  0  0  0  0  0
   36.4403   29.3081   34.7271 H   0  0  0  0  0  0  0  0  0  0  0  0
   37.6630   28.3341   33.8674 H   0  0  0  0  0  0  0  0  0  0  0  0
  1  2  1  0
  3  2  2  0
  4  3  1  0
  5  4  2  0
  5  1  1  0
  6  1  1  0
  7  6  2  0
  8  7  1  0
  9 10  1  0
  9  8  2  0
 10 11  2  0
 11  6  1  0
 12  5  1  0
 13 12  1  0
 14 13  2  0
 15 14  1  0
 15 20  2  0
 16 17  2  0
 16 15  1  0
 17 18  1  0
 18 19  2  0
 20 19  1  0
 20 12  1  0
 21 16  1  0
  3 22  1  0
  4 23  1  0
  7 24  1  0
  8 25  1  0
 10 26  1  0
 13 27  1  0
 18 28  1  0
 21 29  1  0
 21 30  1  0
M  ISO  7  22  14  23  14  24  14  25  14  26  14  27  14  28  14
M  END
>  <minimizedAffinity>  (1) 
-4.78582144

>  <minimizedRMSD>  (1) 
3.73369551

$$$$
