
     RDKit          3D

 27 29  0  0  0  0  0  0  0  0999 V2000
   41.1810   33.0030   40.6530 N   0  0  0  0  0  0  0  0  0  0  0  0
   42.0940   32.5380   41.4860 N   0  0  0  0  0  0  0  0  0  0  0  0
   42.2050   31.2050   41.3980 C   0  0  0  0  0  0  0  0  0  0  0  0
   41.3030   30.7880   40.4490 C   0  0  0  0  0  0  0  0  0  0  0  0
   40.6600   31.9380   39.9850 C   0  0  0  0  0  0  0  0  0  0  0  0
   40.6970   34.3070   40.3690 C   0  0  0  0  0  0  0  0  0  0  0  0
   41.4620   35.3650   39.8650 C   0  0  0  0  0  0  0  0  0  0  0  0
   40.8450   36.5860   39.6360 C   0  0  0  0  0  0  0  0  0  0  0  0
   39.5060   36.6800   39.9230 N   0  0  0  0  0  0  0  0  0  0  0  0
   38.7910   35.6520   40.4070 C   0  0  0  0  0  0  0  0  0  0  0  0
   39.3840   34.4560   40.6330 N   0  0  0  0  0  0  0  0  0  0  0  0
   39.6510   31.7950   38.9720 N   0  0  0  0  0  0  0  0  0  0  0  0
   38.4140   31.3230   39.2490 C   0  0  0  0  0  0  0  0  0  0  0  0
   37.4980   31.2170   38.2050 C   0  0  0  0  0  0  0  0  0  0  0  0
   37.9450   31.6090   36.9610 C   0  0  0  0  0  0  0  0  0  0  0  0
   37.1390   31.5230   36.0000 O   0  0  0  0  0  0  0  0  0  0  0  0
   39.1710   32.0800   36.6670 N   0  0  0  0  0  0  0  0  0  0  0  0
   40.0270   32.1660   37.7120 C   0  0  0  0  0  0  0  0  0  0  0  0
   41.1800   32.6040   37.4620 O   0  0  0  0  0  0  0  0  0  0  0  0
   42.8887   30.5660   41.9761 H   0  0  0  0  0  0  0  0  0  0  0  0
   41.1230   29.7539   40.1200 H   0  0  0  0  0  0  0  0  0  0  0  0
   42.5332   35.2307   39.6543 H   0  0  0  0  0  0  0  0  0  0  0  0
   41.4065   37.4450   39.2401 H   0  0  0  0  0  0  0  0  0  0  0  0
   37.7198   35.7818   40.6207 H   0  0  0  0  0  0  0  0  0  0  0  0
   38.1384   31.0303   40.2729 H   0  0  0  0  0  0  0  0  0  0  0  0
   36.4762   30.8419   38.3640 H   0  0  0  0  0  0  0  0  0  0  0  0
   39.4396   32.3562   35.7118 H   0  0  0  0  0  0  0  0  0  0  0  0
  1  2  1  0
  3  2  2  0
  4  3  1  0
  5  4  2  0
  5  1  1  0
  6 11  1  0
  6  1  1  0
  7  6  2  0
  8  7  1  0
  8  9  2  0
  9 10  1  0
 10 11  2  0
 12 13  1  0
 12  5  1  0
 14 13  2  0
 15 14  1  0
 16 15  2  0
 17 15  1  0
 17 18  1  0
 18 12  1  0
 19 18  2  0
  3 20  1  0
  4 21  1  0
  7 22  1  0
  8 23  1  0
 10 24  1  0
 13 25  1  0
 14 26  1  0
 17 27  1  0
M  ISO  8  20  14  21  14  22  14  23  14  24  14  25  14  26  14  27   9
M  END
>  <minimizedAffinity>  (1) 
-4.78207684

>  <minimizedRMSD>  (1) 
3.2013042

$$$$
