
     RDKit          3D

 28 30  0  0  0  0  0  0  0  0999 V2000
   37.6290   29.9630   41.3310 N   0  0  0  0  0  0  0  0  0  0  0  0
   37.3370   29.4730   42.5220 N   0  0  0  0  0  0  0  0  0  0  0  0
   36.8770   28.2110   42.4230 C   0  0  0  0  0  0  0  0  0  0  0  0
   36.8800   27.8820   41.0740 C   0  0  0  0  0  0  0  0  0  0  0  0
   37.3580   29.0060   40.4150 C   0  0  0  0  0  0  0  0  0  0  0  0
   37.4520   28.9020   38.9830 N   0  0  0  0  0  0  0  0  0  0  0  0
   38.5670   28.5190   38.3610 C   0  0  0  0  0  0  0  0  0  0  0  0
   38.6170   28.4330   36.9850 C   0  0  0  0  0  0  0  0  0  0  0  0
   37.4680   28.7560   36.2750 C   0  0  0  0  0  0  0  0  0  0  0  0
   37.4580   28.6860   34.8530 N   0  0  0  0  0  0  0  0  0  0  0  0
   36.3650   29.1370   36.9390 N   0  0  0  0  0  0  0  0  0  0  0  0
   36.3360   29.2160   38.2990 C   0  0  0  0  0  0  0  0  0  0  0  0
   35.2320   29.5870   38.7740 O   0  0  0  0  0  0  0  0  0  0  0  0
   38.1370   31.2190   40.8850 C   0  0  0  0  0  0  0  0  0  0  0  0
   39.4920   31.6050   40.9330 C   0  0  0  0  0  0  0  0  0  0  0  0
   39.8170   32.8760   40.4540 C   0  0  0  0  0  0  0  0  0  0  0  0
   38.8100   33.6550   39.9750 N   0  0  0  0  0  0  0  0  0  0  0  0
   37.5340   33.2620   39.9430 C   0  0  0  0  0  0  0  0  0  0  0  0
   37.1990   32.0420   40.3990 N   0  0  0  0  0  0  0  0  0  0  0  0
   36.5591   27.5636   43.2535 H   0  0  0  0  0  0  0  0  0  0  0  0
   36.5684   26.9289   40.6218 H   0  0  0  0  0  0  0  0  0  0  0  0
   39.4595   28.2681   38.9530 H   0  0  0  0  0  0  0  0  0  0  0  0
   39.5357   28.1193   36.4678 H   0  0  0  0  0  0  0  0  0  0  0  0
   38.3054   28.3934   34.3458 H   0  0  0  0  0  0  0  0  0  0  0  0
   36.6034   28.9279   34.3315 H   0  0  0  0  0  0  0  0  0  0  0  0
   40.2639   30.9308   41.3325 H   0  0  0  0  0  0  0  0  0  0  0  0
   40.8563   33.2364   40.4638 H   0  0  0  0  0  0  0  0  0  0  0  0
   36.7595   33.9341   39.5449 H   0  0  0  0  0  0  0  0  0  0  0  0
  1  2  1  0
  3  2  2  0
  4  3  1  0
  5  4  2  0
  5  1  1  0
  6  5  1  0
  7  6  1  0
  8  7  2  0
  9 11  2  0
  9  8  1  0
 10  9  1  0
 11 12  1  0
 12 13  2  0
 12  6  1  0
 14 15  2  0
 14  1  1  0
 16 15  1  0
 17 16  2  0
 18 17  1  0
 18 19  2  0
 19 14  1  0
  3 20  1  0
  4 21  1  0
  7 22  1  0
  8 23  1  0
 10 24  1  0
 10 25  1  0
 15 26  1  0
 16 27  1  0
 18 28  1  0
M  ISO  7  20  14  21  14  22  14  23  14  26  14  27  14  28  14
M  END
>  <minimizedAffinity>  (1) 
-4.76117563

>  <minimizedRMSD>  (1) 
3.00626898

$$$$
