
     RDKit          3D

 24 26  0  0  0  0  0  0  0  0999 V2000
   39.5860   32.1560   40.9830 N   0  0  0  0  0  0  0  0  0  0  0  0
   39.7130   31.4910   42.1140 N   0  0  0  0  0  0  0  0  0  0  0  0
   39.2850   30.2310   41.9790 C   0  0  0  0  0  0  0  0  0  0  0  0
   38.8590   30.0770   40.6830 C   0  0  0  0  0  0  0  0  0  0  0  0
   39.0610   31.3160   40.0680 C   0  0  0  0  0  0  0  0  0  0  0  0
   39.8910   33.5050   40.6010 C   0  0  0  0  0  0  0  0  0  0  0  0
   41.1780   33.9650   40.2580 C   0  0  0  0  0  0  0  0  0  0  0  0
   41.3250   35.2960   39.9010 C   0  0  0  0  0  0  0  0  0  0  0  0
   40.2060   36.0680   39.9070 N   0  0  0  0  0  0  0  0  0  0  0  0
   38.9800   35.6060   40.2410 C   0  0  0  0  0  0  0  0  0  0  0  0
   38.8300   34.3080   40.5920 N   0  0  0  0  0  0  0  0  0  0  0  0
   38.7350   31.5970   38.6600 C   0  0  0  0  0  0  0  0  0  0  0  0
   37.4910   31.5110   38.0780 C   0  0  0  0  0  0  0  0  0  0  0  0
   37.6220   31.8570   36.7480 C   0  0  0  0  0  0  0  0  0  0  0  0
   38.9190   32.1420   36.5470 N   0  0  0  0  0  0  0  0  0  0  0  0
   39.6080   31.9910   37.6870 N   0  0  0  0  0  0  0  0  0  0  0  0
   39.2760   29.4594   42.7629 H   0  0  0  0  0  0  0  0  0  0  0  0
   38.4447   29.1674   40.2238 H   0  0  0  0  0  0  0  0  0  0  0  0
   42.0430   33.2857   40.2732 H   0  0  0  0  0  0  0  0  0  0  0  0
   42.3057   35.7103   39.6244 H   0  0  0  0  0  0  0  0  0  0  0  0
   38.1111   36.2804   40.2275 H   0  0  0  0  0  0  0  0  0  0  0  0
   36.5583   31.2186   38.5826 H   0  0  0  0  0  0  0  0  0  0  0  0
   36.8187   31.8925   35.9973 H   0  0  0  0  0  0  0  0  0  0  0  0
   39.3256   32.4344   35.6469 H   0  0  0  0  0  0  0  0  0  0  0  0
  1  2  1  0
  3  2  2  0
  4  3  1  0
  5  4  2  0
  5  1  1  0
  6  1  1  0
  7  6  2  0
  8  9  2  0
  8  7  1  0
  9 10  1  0
 10 11  2  0
 11  6  1  0
 12  5  1  0
 13 12  1  0
 14 13  2  0
 15 14  1  0
 15 16  1  0
 16 12  2  0
  3 17  1  0
  4 18  1  0
  7 19  1  0
  8 20  1  0
 10 21  1  0
 13 22  1  0
 14 23  1  0
 15 24  1  0
M  ISO  8  17  14  18  14  19  14  20  14  21  14  22  14  23  14  24   9
M  END
>  <minimizedAffinity>  (1) 
-4.61419487

>  <minimizedRMSD>  (1) 
1.94397879

$$$$
