
     RDKit          3D

 25 27  0  0  0  0  0  0  0  0999 V2000
   37.6250   29.5280   41.8550 N   0  0  0  0  0  0  0  0  0  0  0  0
   38.0300   29.3360   43.0980 N   0  0  0  0  0  0  0  0  0  0  0  0
   37.3970   28.2920   43.6490 C   0  0  0  0  0  0  0  0  0  0  0  0
   36.5400   27.7930   42.6980 C   0  0  0  0  0  0  0  0  0  0  0  0
   36.6990   28.5930   41.5620 C   0  0  0  0  0  0  0  0  0  0  0  0
   37.9810   30.4930   40.8520 C   0  0  0  0  0  0  0  0  0  0  0  0
   38.9940   30.3290   39.8960 C   0  0  0  0  0  0  0  0  0  0  0  0
   39.1790   31.3940   38.9990 C   0  0  0  0  0  0  0  0  0  0  0  0
   38.3860   32.4930   39.1060 N   0  0  0  0  0  0  0  0  0  0  0  0
   37.4300   32.6100   40.0340 C   0  0  0  0  0  0  0  0  0  0  0  0
   37.2300   31.6130   40.9020 N   0  0  0  0  0  0  0  0  0  0  0  0
   35.9580   28.3990   40.2990 C   0  0  0  0  0  0  0  0  0  0  0  0
   34.8430   29.1380   40.0370 C   0  0  0  0  0  0  0  0  0  0  0  0
   34.2370   28.8670   38.8230 C   0  0  0  0  0  0  0  0  0  0  0  0
   34.6700   27.9570   37.9350 N   0  0  0  0  0  0  0  0  0  0  0  0
   35.7810   27.2450   38.2360 C   0  0  0  0  0  0  0  0  0  0  0  0
   36.3910   27.4880   39.4090 N   0  0  0  0  0  0  0  0  0  0  0  0
   37.5368   27.9069   44.6699 H   0  0  0  0  0  0  0  0  0  0  0  0
   35.8623   26.9336   42.8084 H   0  0  0  0  0  0  0  0  0  0  0  0
   39.6088   29.4180   39.8512 H   0  0  0  0  0  0  0  0  0  0  0  0
   39.9546   31.3395   38.2209 H   0  0  0  0  0  0  0  0  0  0  0  0
   36.8131   33.5194   40.0827 H   0  0  0  0  0  0  0  0  0  0  0  0
   34.4546   29.8922   40.7372 H   0  0  0  0  0  0  0  0  0  0  0  0
   33.3335   29.4393   38.5660 H   0  0  0  0  0  0  0  0  0  0  0  0
   36.1737   26.4888   37.5404 H   0  0  0  0  0  0  0  0  0  0  0  0
  1  2  1  0
  2  3  2  0
  4  3  1  0
  5  1  1  0
  5  4  2  0
  6 11  1  0
  6  1  1  0
  7  6  2  0
  8  9  2  0
  8  7  1  0
  9 10  1  0
 10 11  2  0
 12  5  1  0
 13 12  2  0
 14 13  1  0
 15 16  1  0
 15 14  2  0
 16 17  2  0
 17 12  1  0
  3 18  1  0
  4 19  1  0
  7 20  1  0
  8 21  1  0
 10 22  1  0
 13 23  1  0
 14 24  1  0
 16 25  1  0
M  ISO  8  18  14  19  14  20  14  21  14  22  14  23  14  24  14  25  14
M  END
>  <minimizedAffinity>  (1) 
-4.51323891

>  <minimizedRMSD>  (1) 
4.44634533

$$$$
