
     RDKit          3D

 40 42  0  0  1  0  0  0  0  0999 V2000
   35.7890   27.9780   37.9800 C   0  0  0  0  0  0  0  0  0  0  0  0
   35.3330   29.2690   37.7770 C   0  0  0  0  0  0  0  0  0  0  0  0
   36.3750   30.0390   38.2450 C   0  0  0  0  0  0  0  0  0  0  0  0
   37.3860   29.2670   38.6970 N   0  0  0  0  0  0  0  0  0  0  0  0
   37.0170   28.0130   38.5300 N   0  0  0  0  0  0  0  0  0  0  0  0
   35.4130   25.4880   37.9460 C   0  0  0  0  0  0  0  0  0  0  0  0
   35.0390   26.7730   37.6470 C   0  0  0  0  0  0  0  0  0  0  0  0
   33.8260   26.9490   36.9710 C   0  0  0  0  0  0  0  0  0  0  0  0
   33.0650   25.8570   36.6350 N   0  0  0  0  0  0  0  0  0  0  0  0
   33.5270   24.5940   36.9790 C   0  0  0  0  0  0  0  0  0  0  0  0
   34.7070   24.4130   37.6380 N   0  0  0  0  0  0  0  0  0  0  0  0
   38.5970   29.8760   39.2130 C   0  0  1  0  0  0  0  0  0  0  0  0
   38.8660   31.1010   38.5320 N   0  0  0  0  0  0  0  0  0  0  0  0
   39.8360   31.2550   37.5090 C   0  0  0  0  0  0  0  0  0  0  0  0
   40.6150   30.2590   37.3050 N   0  0  0  0  0  0  0  0  0  0  0  0
   39.9360   32.4550   36.7870 N   0  0  0  0  0  0  0  0  0  0  0  0
   41.3600   30.3190   36.5820 H   0  0  0  0  0  0  0  0  0  0  0  0
   38.3930   30.1190   40.6580 N   0  0  0  0  0  0  0  0  0  0  0  0
   38.9860   29.0350   41.4120 C   0  0  0  0  0  0  0  0  0  0  0  0
   38.8210   29.3040   42.8730 C   0  0  0  0  0  0  0  0  0  0  0  0
   39.3320   30.5250   43.2640 O   0  0  0  0  0  0  0  0  0  0  0  0
   39.8730   31.2470   42.2060 C   0  0  0  0  0  0  0  0  0  0  0  0
   38.9140   31.4090   41.0480 C   0  0  0  0  0  0  0  0  0  0  0  0
   34.3753   29.5987   37.3480 H   0  0  0  0  0  0  0  0  0  0  0  0
   36.3823   31.1390   38.2498 H   0  0  0  0  0  0  0  0  0  0  0  0
   36.3646   25.3415   38.4780 H   0  0  0  0  0  0  0  0  0  0  0  0
   33.4830   27.9609   36.7094 H   0  0  0  0  0  0  0  0  0  0  0  0
   32.9238   23.7137   36.7123 H   0  0  0  0  0  0  0  0  0  0  0  0
   39.4601   29.2127   39.0548 H   0  0  0  0  0  0  0  0  0  0  0  0
   38.3180   31.9302   38.8021 H   0  0  0  0  0  0  0  0  0  0  0  0
   40.6453   32.5530   36.0466 H   0  0  0  0  0  0  0  0  0  0  0  0
   39.3001   33.2374   36.9978 H   0  0  0  0  0  0  0  0  0  0  0  0
   38.4857   28.0901   41.1532 H   0  0  0  0  0  0  0  0  0  0  0  0
   40.0561   28.9583   41.1691 H   0  0  0  0  0  0  0  0  0  0  0  0
   37.7478   29.2815   43.1132 H   0  0  0  0  0  0  0  0  0  0  0  0
   39.3827   28.5275   43.4129 H   0  0  0  0  0  0  0  0  0  0  0  0
   40.1535   32.2461   42.5709 H   0  0  0  0  0  0  0  0  0  0  0  0
   40.7431   30.6851   41.8358 H   0  0  0  0  0  0  0  0  0  0  0  0
   39.4433   31.8614   40.1964 H   0  0  0  0  0  0  0  0  0  0  0  0
   38.0811   32.0586   41.3551 H   0  0  0  0  0  0  0  0  0  0  0  0
  1  5  2  0
  2  1  1  0
  2  3  2  0
  3  4  1  0
  4 12  1  0
  5  4  1  0
  7  6  2  0
  7  1  1  0
  8  7  1  0
  9  8  2  0
  9 10  1  0
 10 11  2  0
 11  6  1  0
 12 18  1  0
 13 12  1  0
 14 13  1  0
 15 14  2  0
 16 14  1  0
 17 15  1  0
 18 23  1  0
 18 19  1  0
 19 20  1  0
 20 21  1  0
 22 21  1  0
 23 22  1  0
  2 24  1  0
  3 25  1  0
  6 26  1  0
  8 27  1  0
 10 28  1  0
 12 29  1  1
 13 30  1  0
 16 31  1  0
 16 32  1  0
 19 33  1  0
 19 34  1  0
 20 35  1  0
 20 36  1  0
 22 37  1  0
 22 38  1  0
 23 39  1  0
 23 40  1  0
M  ISO  8  24  14  25  14  26  14  27  14  28  14  29   8  33  13  34  13
M  ISO  6  35  13  36  13  37  13  38  13  39  13  40  13
M  END
>  <minimizedAffinity>  (1) 
-4.35475731

>  <minimizedRMSD>  (1) 
7.26546288

$$$$
