
     RDKit          3D

 24 26  0  0  0  0  0  0  0  0999 V2000
   37.7250   29.6220   41.9030 N   0  0  0  0  0  0  0  0  0  0  0  0
   38.1420   29.3160   43.1080 N   0  0  0  0  0  0  0  0  0  0  0  0
   37.4490   28.2830   43.6050 C   0  0  0  0  0  0  0  0  0  0  0  0
   36.5260   27.9030   42.6490 C   0  0  0  0  0  0  0  0  0  0  0  0
   36.7120   28.7660   41.5660 C   0  0  0  0  0  0  0  0  0  0  0  0
   38.1170   30.6220   40.9500 C   0  0  0  0  0  0  0  0  0  0  0  0
   39.2430   30.5450   40.1140 C   0  0  0  0  0  0  0  0  0  0  0  0
   39.4640   31.6190   39.2480 C   0  0  0  0  0  0  0  0  0  0  0  0
   38.5920   32.6600   39.2630 N   0  0  0  0  0  0  0  0  0  0  0  0
   37.5140   32.7050   40.0820 C   0  0  0  0  0  0  0  0  0  0  0  0
   37.2780   31.6790   40.9290 N   0  0  0  0  0  0  0  0  0  0  0  0
   35.9120   28.6500   40.3920 N   0  0  0  0  0  0  0  0  0  0  0  0
   36.3150   27.7710   39.4810 N   0  0  0  0  0  0  0  0  0  0  0  0
   35.5130   27.7340   38.4270 C   0  0  0  0  0  0  0  0  0  0  0  0
   34.5090   28.6590   38.6700 C   0  0  0  0  0  0  0  0  0  0  0  0
   34.7900   29.2120   39.9050 C   0  0  0  0  0  0  0  0  0  0  0  0
   37.5890   27.8214   44.5936 H   0  0  0  0  0  0  0  0  0  0  0  0
   35.7931   27.0863   42.7253 H   0  0  0  0  0  0  0  0  0  0  0  0
   39.9201   29.6785   40.1399 H   0  0  0  0  0  0  0  0  0  0  0  0
   40.3279   31.6213   38.5670 H   0  0  0  0  0  0  0  0  0  0  0  0
   36.8356   33.5706   40.0577 H   0  0  0  0  0  0  0  0  0  0  0  0
   35.6219   27.0968   37.5370 H   0  0  0  0  0  0  0  0  0  0  0  0
   33.6611   28.9031   38.0132 H   0  0  0  0  0  0  0  0  0  0  0  0
   34.1930   29.9865   40.4088 H   0  0  0  0  0  0  0  0  0  0  0  0
  1  2  1  0
  2  3  2  0
  4  3  1  0
  5  1  1  0
  5  4  2  0
  6  1  1  0
  7  6  2  0
  8  9  2  0
  8  7  1  0
  9 10  1  0
 10 11  2  0
 11  6  1  0
 12  5  1  0
 13 12  1  0
 14 15  1  0
 14 13  2  0
 15 16  2  0
 16 12  1  0
  3 17  1  0
  4 18  1  0
  7 19  1  0
  8 20  1  0
 10 21  1  0
 14 22  1  0
 15 23  1  0
 16 24  1  0
M  ISO  8  17  14  18  14  19  14  20  14  21  14  22  14  23  14  24  14
M  END
>  <minimizedAffinity>  (1) 
-4.28889465

>  <minimizedRMSD>  (1) 
4.04174137

$$$$
