
     RDKit          3D

 20 21  0  0  0  0  0  0  0  0999 V2000
   37.8930   32.1490   39.9160 N   0  0  0  0  0  0  0  0  0  0  0  0
   36.9020   31.6740   40.6530 N   0  0  0  0  0  0  0  0  0  0  0  0
   36.3240   30.6410   40.0260 C   0  0  0  0  0  0  0  0  0  0  0  0
   36.9790   30.4520   38.8360 C   0  0  0  0  0  0  0  0  0  0  0  0
   37.9810   31.4260   38.7830 C   0  0  0  0  0  0  0  0  0  0  0  0
   38.8200   33.2330   40.1160 C   0  0  0  0  0  0  0  0  0  0  0  0
   40.1900   33.0690   40.4230 C   0  0  0  0  0  0  0  0  0  0  0  0
   40.9440   34.2230   40.5790 C   0  0  0  0  0  0  0  0  0  0  0  0
   40.3250   35.4350   40.4310 N   0  0  0  0  0  0  0  0  0  0  0  0
   39.0210   35.5490   40.1390 C   0  0  0  0  0  0  0  0  0  0  0  0
   38.2790   34.4400   39.9850 N   0  0  0  0  0  0  0  0  0  0  0  0
   38.9210   31.5770   37.6660 C   0  0  0  0  0  0  0  0  0  0  0  0
   40.0250   30.9950   37.7040 O   0  0  0  0  0  0  0  0  0  0  0  0
   38.5960   32.3560   36.5740 O   0  0  0  0  0  0  0  0  0  0  0  0
   35.4750   30.0495   40.3992 H   0  0  0  0  0  0  0  0  0  0  0  0
   36.7601   29.6877   38.0758 H   0  0  0  0  0  0  0  0  0  0  0  0
   40.6384   32.0706   40.5333 H   0  0  0  0  0  0  0  0  0  0  0  0
   42.0165   34.1654   40.8166 H   0  0  0  0  0  0  0  0  0  0  0  0
   38.5628   36.5427   40.0265 H   0  0  0  0  0  0  0  0  0  0  0  0
   37.7219   32.8195   36.5392 H   0  0  0  0  0  0  0  0  0  0  0  0
  1  6  1  0
  1  2  1  0
  3  2  2  0
  4  3  1  0
  5  4  2  0
  5  1  1  0
  6  7  2  0
  7  8  1  0
  9  8  2  0
 10  9  1  0
 11  6  1  0
 11 10  2  0
 12 13  2  0
 12  5  1  0
 14 12  1  0
  3 15  1  0
  4 16  1  0
  7 17  1  0
  8 18  1  0
 10 19  1  0
 14 20  1  0
M  ISO  6  15  14  16  14  17  14  18  14  19  14  20   3
M  END
>  <minimizedAffinity>  (1) 
-4.27868271

>  <minimizedRMSD>  (1) 
0.664883792

$$$$
