
     RDKit          3D

 30 32  0  0  0  0  0  0  0  0999 V2000
   37.6930   29.6700   41.8870 N   0  0  0  0  0  0  0  0  0  0  0  0
   37.7090   29.2570   43.1230 N   0  0  0  0  0  0  0  0  0  0  0  0
   37.1320   28.0560   43.2540 C   0  0  0  0  0  0  0  0  0  0  0  0
   36.7120   27.6630   42.0070 C   0  0  0  0  0  0  0  0  0  0  0  0
   37.0740   28.6930   41.1550 C   0  0  0  0  0  0  0  0  0  0  0  0
   38.1580   30.8400   41.2230 C   0  0  0  0  0  0  0  0  0  0  0  0
   39.5020   31.2030   41.0480 C   0  0  0  0  0  0  0  0  0  0  0  0
   39.7620   32.3900   40.3670 C   0  0  0  0  0  0  0  0  0  0  0  0
   38.7140   33.1250   39.9130 N   0  0  0  0  0  0  0  0  0  0  0  0
   37.4250   32.7500   40.0960 C   0  0  0  0  0  0  0  0  0  0  0  0
   37.1540   31.6070   40.7510 N   0  0  0  0  0  0  0  0  0  0  0  0
   36.7550   28.5580   39.7520 N   0  0  0  0  0  0  0  0  0  0  0  0
   37.6060   28.2520   38.6080 C   0  0  0  0  0  0  0  0  0  0  0  0
   37.6330   29.5080   37.7680 C   0  0  0  0  0  0  0  0  0  0  0  0
   36.4180   30.1120   37.6290 O   0  0  0  0  0  0  0  0  0  0  0  0
   35.3300   29.3060   37.9300 C   0  0  0  0  0  0  0  0  0  0  0  0
   35.3590   28.7450   39.3310 C   0  0  0  0  0  0  0  0  0  0  0  0
   37.0157   27.4882   44.1889 H   0  0  0  0  0  0  0  0  0  0  0  0
   36.1971   26.7280   41.7412 H   0  0  0  0  0  0  0  0  0  0  0  0
   40.3185   30.5747   41.4335 H   0  0  0  0  0  0  0  0  0  0  0  0
   40.7962   32.7256   40.2001 H   0  0  0  0  0  0  0  0  0  0  0  0
   36.6061   33.3758   39.7117 H   0  0  0  0  0  0  0  0  0  0  0  0
   38.6212   27.9938   38.9438 H   0  0  0  0  0  0  0  0  0  0  0  0
   37.2249   27.3917   38.0382 H   0  0  0  0  0  0  0  0  0  0  0  0
   38.3226   30.2238   38.2393 H   0  0  0  0  0  0  0  0  0  0  0  0
   37.9550   29.2081   36.7598 H   0  0  0  0  0  0  0  0  0  0  0  0
   34.4132   29.9027   37.8139 H   0  0  0  0  0  0  0  0  0  0  0  0
   35.3640   28.4497   37.2403 H   0  0  0  0  0  0  0  0  0  0  0  0
   34.8591   29.4445   40.0171 H   0  0  0  0  0  0  0  0  0  0  0  0
   34.8360   27.7775   39.3508 H   0  0  0  0  0  0  0  0  0  0  0  0
  1  2  1  0
  2  3  2  0
  4  3  1  0
  5  1  1  0
  5  4  2  0
  6  1  1  0
  7  6  2  0
  8  7  1  0
  9 10  1  0
  9  8  2  0
 10 11  2  0
 11  6  1  0
 12  5  1  0
 13 12  1  0
 14 13  1  0
 15 14  1  0
 15 16  1  0
 16 17  1  0
 17 12  1  0
  3 18  1  0
  4 19  1  0
  7 20  1  0
  8 21  1  0
 10 22  1  0
 13 23  1  0
 13 24  1  0
 14 25  1  0
 14 26  1  0
 16 27  1  0
 16 28  1  0
 17 29  1  0
 17 30  1  0
M  ISO  8  18  14  19  14  20  14  21  14  22  14  23  13  24  13  25  13
M  ISO  5  26  13  27  13  28  13  29  13  30  13
M  END
>  <minimizedAffinity>  (1) 
-4.18826628

>  <minimizedRMSD>  (1) 
3.50271606

$$$$
