
     RDKit          3D

 23 25  0  0  0  0  0  0  0  0999 V2000
   37.6870   29.6400   41.8530 N   0  0  0  0  0  0  0  0  0  0  0  0
   38.0420   29.3450   43.0910 N   0  0  0  0  0  0  0  0  0  0  0  0
   37.3670   28.2740   43.5420 C   0  0  0  0  0  0  0  0  0  0  0  0
   36.5250   27.8650   42.5110 C   0  0  0  0  0  0  0  0  0  0  0  0
   36.7530   28.7460   41.4660 C   0  0  0  0  0  0  0  0  0  0  0  0
   38.0970   30.6600   40.9440 C   0  0  0  0  0  0  0  0  0  0  0  0
   39.2700   30.5950   40.1470 C   0  0  0  0  0  0  0  0  0  0  0  0
   39.5480   31.6630   39.3030 C   0  0  0  0  0  0  0  0  0  0  0  0
   38.6650   32.7100   39.3000 N   0  0  0  0  0  0  0  0  0  0  0  0
   37.5570   32.7400   40.0720 C   0  0  0  0  0  0  0  0  0  0  0  0
   37.2730   31.7130   40.8940 N   0  0  0  0  0  0  0  0  0  0  0  0
   36.0030   28.5420   40.2730 N   0  0  0  0  0  0  0  0  0  0  0  0
   34.8500   29.1830   40.0880 C   0  0  0  0  0  0  0  0  0  0  0  0
   34.3320   28.8190   38.8810 N   0  0  0  0  0  0  0  0  0  0  0  0
   35.2000   27.9350   38.3280 C   0  0  0  0  0  0  0  0  0  0  0  0
   36.2090   27.7990   39.2220 N   0  0  0  0  0  0  0  0  0  0  0  0
   37.4615   27.8097   44.5347 H   0  0  0  0  0  0  0  0  0  0  0  0
   35.8237   27.0176   42.5235 H   0  0  0  0  0  0  0  0  0  0  0  0
   39.9398   29.7238   40.1963 H   0  0  0  0  0  0  0  0  0  0  0  0
   40.4422   31.6675   38.6623 H   0  0  0  0  0  0  0  0  0  0  0  0
   36.8833   33.6085   40.0286 H   0  0  0  0  0  0  0  0  0  0  0  0
   34.3909   29.8906   40.7941 H   0  0  0  0  0  0  0  0  0  0  0  0
   35.1043   27.4322   37.3543 H   0  0  0  0  0  0  0  0  0  0  0  0
  1  2  1  0
  2  3  2  0
  4  3  1  0
  5  1  1  0
  5  4  2  0
  6  1  1  0
  7  6  2  0
  8  7  1  0
  9  8  2  0
  9 10  1  0
 10 11  2  0
 11  6  1  0
 12  5  1  0
 13 12  1  0
 14 13  2  0
 15 14  1  0
 15 16  2  0
 16 12  1  0
  3 17  1  0
  4 18  1  0
  7 19  1  0
  8 20  1  0
 10 21  1  0
 13 22  1  0
 15 23  1  0
M  ISO  7  17  14  18  14  19  14  20  14  21  14  22  14  23  14
M  END
>  <minimizedAffinity>  (1) 
-4.18621778

>  <minimizedRMSD>  (1) 
4.0518713

$$$$
