
     RDKit          3D

 24 26  0  0  0  0  0  0  0  0999 V2000
   39.4580   31.9660   41.2000 N   0  0  0  0  0  0  0  0  0  0  0  0
   39.6540   31.4250   42.3970 N   0  0  0  0  0  0  0  0  0  0  0  0
   39.1500   30.1890   42.4550 C   0  0  0  0  0  0  0  0  0  0  0  0
   38.6060   29.9440   41.2190 C   0  0  0  0  0  0  0  0  0  0  0  0
   38.8080   31.0830   40.4270 C   0  0  0  0  0  0  0  0  0  0  0  0
   39.8240   33.2520   40.6690 C   0  0  0  0  0  0  0  0  0  0  0  0
   41.1080   33.5450   40.1280 C   0  0  0  0  0  0  0  0  0  0  0  0
   41.2770   34.8610   39.6540 C   0  0  0  0  0  0  0  0  0  0  0  0
   40.2400   35.7370   39.7390 N   0  0  0  0  0  0  0  0  0  0  0  0
   39.0520   35.3980   40.2620 C   0  0  0  0  0  0  0  0  0  0  0  0
   38.8230   34.1590   40.7330 N   0  0  0  0  0  0  0  0  0  0  0  0
   38.3160   31.0820   39.0570 C   0  0  0  0  0  0  0  0  0  0  0  0
   37.8970   30.0120   38.3190 C   0  0  0  0  0  0  0  0  0  0  0  0
   37.5410   30.4580   37.1160 N   0  0  0  0  0  0  0  0  0  0  0  0
   37.7170   31.7830   37.0500 C   0  0  0  0  0  0  0  0  0  0  0  0
   38.1900   32.1350   38.2470 N   0  0  0  0  0  0  0  0  0  0  0  0
   39.1675   29.5067   43.3177 H   0  0  0  0  0  0  0  0  0  0  0  0
   38.1012   29.0183   40.9055 H   0  0  0  0  0  0  0  0  0  0  0  0
   41.9123   32.7959   40.0832 H   0  0  0  0  0  0  0  0  0  0  0  0
   42.2372   35.1766   39.2199 H   0  0  0  0  0  0  0  0  0  0  0  0
   38.2489   36.1484   40.3066 H   0  0  0  0  0  0  0  0  0  0  0  0
   37.8601   28.9663   38.6585 H   0  0  0  0  0  0  0  0  0  0  0  0
   37.5149   32.4413   36.1922 H   0  0  0  0  0  0  0  0  0  0  0  0
   38.4286   33.1010   38.5131 H   0  0  0  0  0  0  0  0  0  0  0  0
  1  2  1  0
  2  3  2  0
  4  3  1  0
  5  1  1  0
  5  4  2  0
  6 11  1  0
  6  1  1  0
  7  6  2  0
  8  9  2  0
  8  7  1  0
  9 10  1  0
 10 11  2  0
 12  5  1  0
 13 12  2  0
 14 13  1  0
 15 14  2  0
 15 16  1  0
 16 12  1  0
  3 17  1  0
  4 18  1  0
  7 19  1  0
  8 20  1  0
 10 21  1  0
 13 22  1  0
 15 23  1  0
 16 24  1  0
M  ISO  8  17  14  18  14  19  14  20  14  21  14  22  14  23  14  24   9
M  END
>  <minimizedAffinity>  (1) 
-4.16152668

>  <minimizedRMSD>  (1) 
2.07720399

$$$$
