
     RDKit          3D

 42 44  0  0  1  0  0  0  0  0999 V2000
   37.2660   23.7920   40.4940 C   0  0  1  0  0  0  0  0  0  0  0  0
   37.8010   23.7250   41.8370 N   0  0  0  0  0  0  0  0  0  0  0  0
   39.1060   24.1940   42.1560 C   0  0  0  0  0  0  0  0  0  0  0  0
   39.8860   24.5360   41.1970 N   0  0  0  0  0  0  0  0  0  0  0  0
   39.5300   24.2620   43.4940 N   0  0  0  0  0  0  0  0  0  0  0  0
   40.8570   24.8360   41.3760 H   0  0  0  0  0  0  0  0  0  0  0  0
   36.8030   27.3090   39.9460 C   0  0  0  0  0  0  0  0  0  0  0  0
   36.0570   26.7820   38.9060 C   0  0  0  0  0  0  0  0  0  0  0  0
   36.1990   25.4230   39.0450 C   0  0  0  0  0  0  0  0  0  0  0  0
   36.9920   25.1270   40.1170 N   0  0  0  0  0  0  0  0  0  0  0  0
   37.3390   26.2980   40.6370 N   0  0  0  0  0  0  0  0  0  0  0  0
   36.0160   29.4940   40.9070 C   0  0  0  0  0  0  0  0  0  0  0  0
   36.9410   28.7280   40.2030 C   0  0  0  0  0  0  0  0  0  0  0  0
   38.0660   29.3730   39.7150 C   0  0  0  0  0  0  0  0  0  0  0  0
   38.2230   30.7160   39.9380 N   0  0  0  0  0  0  0  0  0  0  0  0
   37.2760   31.4180   40.6390 C   0  0  0  0  0  0  0  0  0  0  0  0
   36.1550   30.7900   41.1310 N   0  0  0  0  0  0  0  0  0  0  0  0
   37.9980   22.9310   39.6690 N   0  0  0  0  0  0  0  0  0  0  0  0
   37.7170   21.5650   39.9210 C   0  0  0  0  0  0  0  0  0  0  0  0
   38.7880   20.6160   39.4390 C   0  0  0  0  0  0  0  0  0  0  0  0
   39.3450   21.0320   38.0970 C   0  0  0  0  0  0  0  0  0  0  0  0
   39.6730   22.4800   38.0200 C   0  0  0  0  0  0  0  0  0  0  0  0
   38.4480   23.3220   38.4060 C   0  0  0  0  0  0  0  0  0  0  0  0
   36.2507   23.3817   40.3898 H   0  0  0  0  0  0  0  0  0  0  0  0
   37.2183   23.3249   42.5862 H   0  0  0  0  0  0  0  0  0  0  0  0
   40.4760   24.6025   43.7178 H   0  0  0  0  0  0  0  0  0  0  0  0
   38.8948   23.9714   44.2509 H   0  0  0  0  0  0  0  0  0  0  0  0
   35.4820   27.3269   38.1428 H   0  0  0  0  0  0  0  0  0  0  0  0
   35.7372   24.6752   38.3835 H   0  0  0  0  0  0  0  0  0  0  0  0
   35.1187   28.9930   41.2992 H   0  0  0  0  0  0  0  0  0  0  0  0
   38.8270   28.8116   39.1531 H   0  0  0  0  0  0  0  0  0  0  0  0
   37.4143   32.4958   40.8099 H   0  0  0  0  0  0  0  0  0  0  0  0
   37.5998   21.4310   41.0065 H   0  0  0  0  0  0  0  0  0  0  0  0
   36.8019   21.3210   39.3615 H   0  0  0  0  0  0  0  0  0  0  0  0
   39.6060   20.5995   40.1742 H   0  0  0  0  0  0  0  0  0  0  0  0
   38.3362   19.6193   39.3272 H   0  0  0  0  0  0  0  0  0  0  0  0
   40.2621   20.4556   37.9057 H   0  0  0  0  0  0  0  0  0  0  0  0
   38.5666   20.8337   37.3454 H   0  0  0  0  0  0  0  0  0  0  0  0
   40.4994   22.7027   38.7109 H   0  0  0  0  0  0  0  0  0  0  0  0
   39.9684   22.7270   36.9896 H   0  0  0  0  0  0  0  0  0  0  0  0
   38.7258   24.3861   38.4282 H   0  0  0  0  0  0  0  0  0  0  0  0
   37.6482   23.1691   37.6665 H   0  0  0  0  0  0  0  0  0  0  0  0
  1  2  1  0
  2  3  1  0
  3  5  1  0
  4  6  1  0
  4  3  2  0
  7 13  1  0
  7 11  2  0
  8  9  2  0
  8  7  1  0
  9 10  1  0
 10  1  1  0
 10 11  1  0
 12 17  2  0
 13 12  1  0
 14 15  1  0
 14 13  2  0
 15 16  2  0
 16 17  1  0
 18 19  1  0
 18  1  1  0
 20 19  1  0
 21 20  1  0
 22 21  1  0
 22 23  1  0
 23 18  1  0
  1 24  1  1
  2 25  1  0
  5 26  1  0
  5 27  1  0
  8 28  1  0
  9 29  1  0
 12 30  1  0
 14 31  1  0
 16 32  1  0
 19 33  1  0
 19 34  1  0
 20 35  1  0
 20 36  1  0
 21 37  1  0
 21 38  1  0
 22 39  1  0
 22 40  1  0
 23 41  1  0
 23 42  1  0
M  ISO  8  24   8  28  14  29  14  30  14  31  14  32  14  33  13  34  13
M  ISO  8  35  13  36  13  37  13  38  13  39  13  40  13  41  13  42  13
M  END
>  <minimizedAffinity>  (1) 
-4.33880424

>  <minimizedRMSD>  (1) 
1.66307867

$$$$
