
     RDKit          3D

 24 26  0  0  0  0  0  0  0  0999 V2000
   39.2580   31.3740   41.5630 N   0  0  0  0  0  0  0  0  0  0  0  0
   39.4570   30.8840   42.7540 N   0  0  0  0  0  0  0  0  0  0  0  0
   38.8750   29.6870   42.9160 C   0  0  0  0  0  0  0  0  0  0  0  0
   38.2450   29.3790   41.7130 C   0  0  0  0  0  0  0  0  0  0  0  0
   38.5070   30.4560   40.8980 C   0  0  0  0  0  0  0  0  0  0  0  0
   39.6500   32.5780   40.9060 C   0  0  0  0  0  0  0  0  0  0  0  0
   40.8730   32.7590   40.2300 C   0  0  0  0  0  0  0  0  0  0  0  0
   41.0890   34.0080   39.6420 C   0  0  0  0  0  0  0  0  0  0  0  0
   40.1230   34.9580   39.7560 N   0  0  0  0  0  0  0  0  0  0  0  0
   38.9710   34.7430   40.4100 C   0  0  0  0  0  0  0  0  0  0  0  0
   38.7180   33.5490   40.9950 N   0  0  0  0  0  0  0  0  0  0  0  0
   37.9840   30.4440   39.5630 N   0  0  0  0  0  0  0  0  0  0  0  0
   38.6460   29.9130   38.4980 C   0  0  0  0  0  0  0  0  0  0  0  0
   37.8970   30.0480   37.3520 C   0  0  0  0  0  0  0  0  0  0  0  0
   36.7670   30.6670   37.7350 N   0  0  0  0  0  0  0  0  0  0  0  0
   36.8260   30.8990   39.0500 C   0  0  0  0  0  0  0  0  0  0  0  0
   38.8919   29.0673   43.8247 H   0  0  0  0  0  0  0  0  0  0  0  0
   37.6667   28.4758   41.4687 H   0  0  0  0  0  0  0  0  0  0  0  0
   41.6218   31.9556   40.1681 H   0  0  0  0  0  0  0  0  0  0  0  0
   42.0216   34.2184   39.0979 H   0  0  0  0  0  0  0  0  0  0  0  0
   38.2230   35.5472   40.4714 H   0  0  0  0  0  0  0  0  0  0  0  0
   39.6392   29.4427   38.5471 H   0  0  0  0  0  0  0  0  0  0  0  0
   38.1659   29.7191   36.3373 H   0  0  0  0  0  0  0  0  0  0  0  0
   36.0358   31.3943   39.6334 H   0  0  0  0  0  0  0  0  0  0  0  0
  1  2  1  0
  2  3  2  0
  4  3  1  0
  5  1  1  0
  5  4  2  0
  6 11  1  0
  6  1  1  0
  7  6  2  0
  8  9  2  0
  8  7  1  0
  9 10  1  0
 10 11  2  0
 12  5  1  0
 13 12  1  0
 14 15  1  0
 14 13  2  0
 15 16  2  0
 16 12  1  0
  3 17  1  0
  4 18  1  0
  7 19  1  0
  8 20  1  0
 10 21  1  0
 13 22  1  0
 14 23  1  0
 16 24  1  0
M  ISO  8  17  14  18  14  19  14  20  14  21  14  22  14  23  14  24  14
M  END
>  <minimizedAffinity>  (1) 
-3.9726429

>  <minimizedRMSD>  (1) 
2.3670392

$$$$
