
     RDKit          3D

 30 32  0  0  0  0  0  0  0  0999 V2000
   37.1620   31.1780   40.3690 N   0  0  0  0  0  0  0  0  0  0  0  0
   36.1910   30.8350   41.1680 N   0  0  0  0  0  0  0  0  0  0  0  0
   35.5670   29.7160   40.7160 C   0  0  0  0  0  0  0  0  0  0  0  0
   36.1960   29.3240   39.5370 C   0  0  0  0  0  0  0  0  0  0  0  0
   37.1860   30.2630   39.3560 C   0  0  0  0  0  0  0  0  0  0  0  0
   38.1090   32.2370   40.3680 C   0  0  0  0  0  0  0  0  0  0  0  0
   39.4750   32.0920   40.6990 C   0  0  0  0  0  0  0  0  0  0  0  0
   40.2700   33.2480   40.6440 C   0  0  0  0  0  0  0  0  0  0  0  0
   39.6820   34.4190   40.2800 N   0  0  0  0  0  0  0  0  0  0  0  0
   38.3820   34.5120   39.9740 C   0  0  0  0  0  0  0  0  0  0  0  0
   37.5740   33.4250   40.0120 N   0  0  0  0  0  0  0  0  0  0  0  0
   38.0990   30.1880   38.1760 C   0  0  0  0  0  0  0  0  0  0  0  0
   37.2660   29.8760   36.9380 C   0  0  0  0  0  0  0  0  0  0  0  0
   37.7520   28.5630   36.4010 C   0  0  0  0  0  0  0  0  0  0  0  0
   39.1910   28.5240   36.8720 C   0  0  0  0  0  0  0  0  0  0  0  0
   39.0530   29.0180   38.2990 C   0  0  0  0  0  0  0  0  0  0  0  0
   34.7164   29.2098   41.1959 H   0  0  0  0  0  0  0  0  0  0  0  0
   35.9566   28.4618   38.8972 H   0  0  0  0  0  0  0  0  0  0  0  0
   39.8965   31.1176   40.9867 H   0  0  0  0  0  0  0  0  0  0  0  0
   41.3416   33.2075   40.8892 H   0  0  0  0  0  0  0  0  0  0  0  0
   37.9627   35.4875   39.6868 H   0  0  0  0  0  0  0  0  0  0  0  0
   38.6424   31.1425   38.1152 H   0  0  0  0  0  0  0  0  0  0  0  0
   36.2020   29.8033   37.2073 H   0  0  0  0  0  0  0  0  0  0  0  0
   37.3703   30.6707   36.1846 H   0  0  0  0  0  0  0  0  0  0  0  0
   37.6930   28.5371   35.3029 H   0  0  0  0  0  0  0  0  0  0  0  0
   37.1568   27.7037   36.7434 H   0  0  0  0  0  0  0  0  0  0  0  0
   39.5980   27.5026   36.8375 H   0  0  0  0  0  0  0  0  0  0  0  0
   39.8819   29.1180   36.2556 H   0  0  0  0  0  0  0  0  0  0  0  0
   40.0249   29.3432   38.6985 H   0  0  0  0  0  0  0  0  0  0  0  0
   38.6921   28.2410   38.9889 H   0  0  0  0  0  0  0  0  0  0  0  0
  1  2  1  0
  3  2  2  0
  4  3  1  0
  5  4  2  0
  5  1  1  0
  6  1  1  0
  6  7  2  0
  8  7  1  0
  9  8  2  0
 10 11  2  0
 10  9  1  0
 11  6  1  0
 12 16  1  0
 12  5  1  0
 13 12  1  0
 14 15  1  0
 14 13  1  0
 15 16  1  0
  3 17  1  0
  4 18  1  0
  7 19  1  0
  8 20  1  0
 10 21  1  0
 12 22  1  0
 13 23  1  0
 13 24  1  0
 14 25  1  0
 14 26  1  0
 15 27  1  0
 15 28  1  0
 16 29  1  0
 16 30  1  0
M  ISO  8  17  14  18  14  19  14  20  14  21  14  22  13  23  13  24  13
M  ISO  6  25  13  26  13  27  13  28  13  29  13  30  13
M  END
>  <minimizedAffinity>  (1) 
-3.94501805

>  <minimizedRMSD>  (1) 
1.35421073

$$$$
