
     RDKit          3D

 23 24  0  0  0  0  0  0  0  0999 V2000
   37.5410   31.9250   40.1820 N   0  0  0  0  0  0  0  0  0  0  0  0
   36.8310   31.3480   41.1100 N   0  0  0  0  0  0  0  0  0  0  0  0
   36.0260   30.4030   40.6060 C   0  0  0  0  0  0  0  0  0  0  0  0
   36.2380   30.3720   39.2490 C   0  0  0  0  0  0  0  0  0  0  0  0
   37.1980   31.3410   39.0070 C   0  0  0  0  0  0  0  0  0  0  0  0
   38.5240   32.9650   40.1800 C   0  0  0  0  0  0  0  0  0  0  0  0
   39.9110   32.7570   40.2560 C   0  0  0  0  0  0  0  0  0  0  0  0
   40.7320   33.8870   40.2390 C   0  0  0  0  0  0  0  0  0  0  0  0
   40.1400   35.1080   40.1520 N   0  0  0  0  0  0  0  0  0  0  0  0
   38.8090   35.2620   40.0810 C   0  0  0  0  0  0  0  0  0  0  0  0
   37.9870   34.1990   40.0950 N   0  0  0  0  0  0  0  0  0  0  0  0
   37.7040   31.6180   37.6370 C   0  0  0  0  0  0  0  0  0  0  0  0
   37.2480   30.5530   36.6640 C   0  0  0  0  0  0  0  0  0  0  0  0
   35.3266   29.7706   41.1725 H   0  0  0  0  0  0  0  0  0  0  0  0
   35.7497   29.7175   38.5120 H   0  0  0  0  0  0  0  0  0  0  0  0
   40.3341   31.7441   40.3262 H   0  0  0  0  0  0  0  0  0  0  0  0
   41.8265   33.7918   40.2944 H   0  0  0  0  0  0  0  0  0  0  0  0
   38.3841   36.2741   40.0102 H   0  0  0  0  0  0  0  0  0  0  0  0
   37.3244   32.5953   37.3043 H   0  0  0  0  0  0  0  0  0  0  0  0
   38.8037   31.6200   37.6637 H   0  0  0  0  0  0  0  0  0  0  0  0
   36.8750   29.6817   37.2223 H   0  0  0  0  0  0  0  0  0  0  0  0
   36.4431   30.9550   36.0311 H   0  0  0  0  0  0  0  0  0  0  0  0
   38.0944   30.2479   36.0311 H   0  0  0  0  0  0  0  0  0  0  0  0
  1  2  1  0
  3  2  2  0
  4  3  1  0
  5  4  2  0
  5  1  1  0
  6  1  1  0
  6  7  2  0
  8  7  1  0
  9  8  2  0
 10 11  2  0
 10  9  1  0
 11  6  1  0
 12  5  1  0
 13 12  1  0
  3 14  1  0
  4 15  1  0
  7 16  1  0
  8 17  1  0
 10 18  1  0
 12 19  1  0
 12 20  1  0
 13 21  1  0
 13 22  1  0
 13 23  1  0
M  ISO  8  14  14  15  14  16  14  17  14  18  14  19   8  20   8  21   8
M  ISO  2  22   8  23   8
M  END
>  <minimizedAffinity>  (1) 
-3.8337543

>  <minimizedRMSD>  (1) 
0.233422995

$$$$
