
     RDKit          3D

 19 20  0  0  0  0  0  0  0  0999 V2000
   37.6020   31.9910   40.0600 N   0  0  0  0  0  0  0  0  0  0  0  0
   36.7580   31.4560   40.9260 N   0  0  0  0  0  0  0  0  0  0  0  0
   36.0530   30.4630   40.3270 C   0  0  0  0  0  0  0  0  0  0  0  0
   36.4710   30.3660   39.0240 C   0  0  0  0  0  0  0  0  0  0  0  0
   37.4450   31.3390   38.8890 C   0  0  0  0  0  0  0  0  0  0  0  0
   38.5530   33.0400   40.1700 C   0  0  0  0  0  0  0  0  0  0  0  0
   39.9400   32.8410   40.4030 C   0  0  0  0  0  0  0  0  0  0  0  0
   40.7360   33.9940   40.4850 C   0  0  0  0  0  0  0  0  0  0  0  0
   40.1330   35.2120   40.3370 N   0  0  0  0  0  0  0  0  0  0  0  0
   38.8230   35.3460   40.1180 C   0  0  0  0  0  0  0  0  0  0  0  0
   38.0390   34.2580   40.0350 N   0  0  0  0  0  0  0  0  0  0  0  0
   38.1470   31.5520   37.6060 C   0  0  0  0  0  0  0  0  0  0  0  0
   37.5740   31.8990   36.5460 O   0  0  0  0  0  0  0  0  0  0  0  0
   35.2798   29.8429   40.8040 H   0  0  0  0  0  0  0  0  0  0  0  0
   36.1105   29.6673   38.2547 H   0  0  0  0  0  0  0  0  0  0  0  0
   40.3686   31.8340   40.5136 H   0  0  0  0  0  0  0  0  0  0  0  0
   41.8188   33.9195   40.6640 H   0  0  0  0  0  0  0  0  0  0  0  0
   38.3847   36.3486   40.0053 H   0  0  0  0  0  0  0  0  0  0  0  0
   39.2357   31.3971   37.5794 H   0  0  0  0  0  0  0  0  0  0  0  0
  1  6  1  0
  1  2  1  0
  3  2  2  0
  4  3  1  0
  5  4  2  0
  5  1  1  0
  6  7  2  0
  7  8  1  0
  9  8  2  0
 10  9  1  0
 11 10  2  0
 11  6  1  0
 12  5  1  0
 13 12  2  0
  3 14  1  0
  4 15  1  0
  7 16  1  0
  8 17  1  0
 10 18  1  0
 12 19  1  0
M  ISO  6  14  14  15  14  16  14  17  14  18  14  19   6
M  END
>  <minimizedAffinity>  (1) 
-3.73462296

>  <minimizedRMSD>  (1) 
0.104740426

$$$$
