
     RDKit          3D

 18 19  0  0  0  0  0  0  0  0999 V2000
   38.4370   32.9270   40.1890 C   0  0  0  0  0  0  0  0  0  0  0  0
   39.8120   32.7450   40.4080 C   0  0  0  0  0  0  0  0  0  0  0  0
   40.6060   33.9040   40.4440 C   0  0  0  0  0  0  0  0  0  0  0  0
   40.0050   35.1210   40.2650 N   0  0  0  0  0  0  0  0  0  0  0  0
   38.6900   35.2430   40.0580 C   0  0  0  0  0  0  0  0  0  0  0  0
   37.9020   34.1560   40.0190 N   0  0  0  0  0  0  0  0  0  0  0  0
   37.4690   31.8680   40.1230 N   0  0  0  0  0  0  0  0  0  0  0  0
   36.7130   31.3020   41.0480 N   0  0  0  0  0  0  0  0  0  0  0  0
   35.9570   30.3380   40.4810 C   0  0  0  0  0  0  0  0  0  0  0  0
   36.2550   30.3020   39.1410 C   0  0  0  0  0  0  0  0  0  0  0  0
   37.2230   31.2870   38.9330 C   0  0  0  0  0  0  0  0  0  0  0  0
   37.8920   31.5780   37.3200 S   0  0  0  0  0  0  0  0  0  0  0  0
   40.2466   31.7438   40.5448 H   0  0  0  0  0  0  0  0  0  0  0  0
   41.6907   33.8346   40.6129 H   0  0  0  0  0  0  0  0  0  0  0  0
   38.2498   36.2414   39.9185 H   0  0  0  0  0  0  0  0  0  0  0  0
   35.2309   29.6952   41.0003 H   0  0  0  0  0  0  0  0  0  0  0  0
   35.8194   29.6327   38.3845 H   0  0  0  0  0  0  0  0  0  0  0  0
   39.1438   32.1225   37.4362 H   0  0  0  0  0  0  0  0  0  0  0  0
  1  2  2  0
  2  3  1  0
  4  3  2  0
  5  4  1  0
  6  5  2  0
  6  1  1  0
  7  1  1  0
  7  8  1  0
  9  8  2  0
 10  9  1  0
 11 10  2  0
 11  7  1  0
 12 11  1  0
  2 13  1  0
  3 14  1  0
  5 15  1  0
  9 16  1  0
 10 17  1  0
 12 18  1  0
M  ISO  6  13  14  14  14  15  14  16  14  17  14  18  11
M  END
>  <minimizedAffinity>  (1) 
-3.6727891

>  <minimizedRMSD>  (1) 
0.178624257

$$$$
