
     RDKit          3D

 20 21  0  0  0  0  0  0  0  0999 V2000
   37.1300   31.3700   40.2310 N   0  0  0  0  0  0  0  0  0  0  0  0
   36.3210   30.8330   41.1000 N   0  0  0  0  0  0  0  0  0  0  0  0
   35.5390   29.8940   40.5520 C   0  0  0  0  0  0  0  0  0  0  0  0
   35.8760   29.8190   39.2150 C   0  0  0  0  0  0  0  0  0  0  0  0
   36.8810   30.7590   39.0360 C   0  0  0  0  0  0  0  0  0  0  0  0
   38.1320   32.3810   40.2980 C   0  0  0  0  0  0  0  0  0  0  0  0
   39.4930   32.1570   40.5460 C   0  0  0  0  0  0  0  0  0  0  0  0
   40.3400   33.2600   40.5760 C   0  0  0  0  0  0  0  0  0  0  0  0
   39.7960   34.4870   40.3650 N   0  0  0  0  0  0  0  0  0  0  0  0
   38.4770   34.6770   40.1290 C   0  0  0  0  0  0  0  0  0  0  0  0
   37.6390   33.6210   40.0950 N   0  0  0  0  0  0  0  0  0  0  0  0
   37.5190   30.9880   37.7180 C   0  0  0  0  0  0  0  0  0  0  0  0
   36.9240   30.3070   36.6860 F   0  0  0  0  0  0  0  0  0  0  0  0
   38.8760   30.7300   37.7420 F   0  0  0  0  0  0  0  0  0  0  0  0
   37.3950   32.3430   37.3790 F   0  0  0  0  0  0  0  0  0  0  0  0
   34.7737   29.2962   41.0687 H   0  0  0  0  0  0  0  0  0  0  0  0
   35.4404   29.1552   38.4537 H   0  0  0  0  0  0  0  0  0  0  0  0
   39.8794   31.1405   40.7118 H   0  0  0  0  0  0  0  0  0  0  0  0
   41.4173   33.1424   40.7648 H   0  0  0  0  0  0  0  0  0  0  0  0
   38.0884   35.6929   39.9649 H   0  0  0  0  0  0  0  0  0  0  0  0
  1  6  1  0
  1  2  1  0
  3  2  2  0
  4  3  1  0
  5  4  2  0
  5  1  1  0
  6  7  2  0
  7  8  1  0
  9  8  2  0
 10  9  1  0
 11 10  2  0
 11  6  1  0
 12 14  1  0
 12  5  1  0
 13 12  1  0
 15 12  1  0
  3 16  1  0
  4 17  1  0
  7 18  1  0
  8 19  1  0
 10 20  1  0
M  ISO  5  16  14  17  14  18  14  19  14  20  14
M  END
>  <minimizedAffinity>  (1) 
-4.13161516

>  <minimizedRMSD>  (1) 
0.811783552

$$$$
