
     RDKit          3D

 35 37  0  0  1  0  0  0  0  0999 V2000
   35.9590   23.2700   38.6940 C   0  0  2  0  0  0  0  0  0  0  0  0
   36.4540   22.2400   39.5500 N   0  0  0  0  0  0  0  0  0  0  0  0
   37.7740   21.7400   39.5210 C   0  0  0  0  0  0  0  0  0  0  0  0
   38.5240   22.1350   38.5590 N   0  0  0  0  0  0  0  0  0  0  0  0
   38.2360   20.8330   40.4890 N   0  0  0  0  0  0  0  0  0  0  0  0
   39.4930   21.7770   38.4590 H   0  0  0  0  0  0  0  0  0  0  0  0
   36.8420   26.3360   40.3860 C   0  0  0  0  0  0  0  0  0  0  0  0
   36.8020   26.7750   39.0560 C   0  0  0  0  0  0  0  0  0  0  0  0
   36.4780   25.6290   38.3530 C   0  0  0  0  0  0  0  0  0  0  0  0
   36.3330   24.5770   39.2040 N   0  0  0  0  0  0  0  0  0  0  0  0
   36.5580   25.0180   40.4380 N   0  0  0  0  0  0  0  0  0  0  0  0
   37.5560   26.7390   42.7590 C   0  0  0  0  0  0  0  0  0  0  0  0
   37.1400   27.1980   41.5110 C   0  0  0  0  0  0  0  0  0  0  0  0
   36.9960   28.5680   41.3340 C   0  0  0  0  0  0  0  0  0  0  0  0
   37.2650   29.4120   42.3820 N   0  0  0  0  0  0  0  0  0  0  0  0
   37.6710   28.9030   43.5890 C   0  0  0  0  0  0  0  0  0  0  0  0
   37.8150   27.5700   43.7710 N   0  0  0  0  0  0  0  0  0  0  0  0
   34.4320   23.2270   38.6700 C   0  0  0  0  0  0  0  0  0  0  0  0
   33.7220   22.6250   39.6870 C   0  0  0  0  0  0  0  0  0  0  0  0
   32.3500   22.6530   39.5470 C   0  0  0  0  0  0  0  0  0  0  0  0
   31.6990   23.2160   38.5130 N   0  0  0  0  0  0  0  0  0  0  0  0
   32.4340   23.8030   37.5260 C   0  0  0  0  0  0  0  0  0  0  0  0
   33.7740   23.7890   37.6390 N   0  0  0  0  0  0  0  0  0  0  0  0
   36.3826   23.1085   37.6918 H   0  0  0  0  0  0  0  0  0  0  0  0
   35.8027   21.8334   40.2365 H   0  0  0  0  0  0  0  0  0  0  0  0
   39.2036   20.4826   40.4462 H   0  0  0  0  0  0  0  0  0  0  0  0
   37.6071   20.5183   41.2416 H   0  0  0  0  0  0  0  0  0  0  0  0
   36.9843   27.7870   38.6653 H   0  0  0  0  0  0  0  0  0  0  0  0
   36.3550   25.5754   37.2612 H   0  0  0  0  0  0  0  0  0  0  0  0
   37.6749   25.6567   42.9154 H   0  0  0  0  0  0  0  0  0  0  0  0
   36.6699   28.9721   40.3643 H   0  0  0  0  0  0  0  0  0  0  0  0
   37.8829   29.5892   44.4222 H   0  0  0  0  0  0  0  0  0  0  0  0
   34.2155   22.1549   40.5504 H   0  0  0  0  0  0  0  0  0  0  0  0
   31.7457   22.1819   40.3363 H   0  0  0  0  0  0  0  0  0  0  0  0
   31.9445   24.2749   36.6613 H   0  0  0  0  0  0  0  0  0  0  0  0
  1 10  1  0
  1  2  1  0
  3  2  1  0
  3  5  1  0
  4  3  2  0
  6  4  1  0
  7 11  2  0
  7 13  1  0
  8  7  1  0
  9  8  2  0
  9 10  1  0
 10 11  1  0
 12 17  2  0
 13 12  1  0
 14 13  2  0
 14 15  1  0
 15 16  2  0
 16 17  1  0
 18  1  1  0
 18 19  2  0
 20 19  1  0
 21 20  2  0
 22 23  2  0
 22 21  1  0
 23 18  1  0
  1 24  1  6
  2 25  1  0
  5 26  1  0
  5 27  1  0
  8 28  1  0
  9 29  1  0
 12 30  1  0
 14 31  1  0
 16 32  1  0
 19 33  1  0
 20 34  1  0
 22 35  1  0
M  ISO  8  24   8  28  14  29  14  30  14  31  14  32  14  33  14  34  14
M  ISO  1  35  14
M  END
>  <minimizedAffinity>  (1) 
-4.23944807

>  <minimizedRMSD>  (1) 
2.54525924

$$$$
