
     RDKit          3D

 31 34  0  0  0  0  0  0  0  0999 V2000
   38.9250   30.1440   40.0380 C   0  0  0  0  0  0  0  0  0  0  0  0
   39.9570   29.6090   39.2480 C   0  0  0  0  0  0  0  0  0  0  0  0
   40.9670   30.4720   38.8240 C   0  0  0  0  0  0  0  0  0  0  0  0
   40.8880   31.7670   39.2010 N   0  0  0  0  0  0  0  0  0  0  0  0
   39.8870   32.2560   39.9600 C   0  0  0  0  0  0  0  0  0  0  0  0
   38.8950   31.4440   40.3840 N   0  0  0  0  0  0  0  0  0  0  0  0
   39.9520   33.6450   40.2690 N   0  0  0  0  0  0  0  0  0  0  0  0
   38.8840   34.4570   40.0130 C   0  0  0  0  0  0  0  0  0  0  0  0
   39.1690   35.7350   40.3870 N   0  0  0  0  0  0  0  0  0  0  0  0
   40.4030   35.7440   40.8750 C   0  0  0  0  0  0  0  0  0  0  0  0
   41.2960   36.6740   41.4180 C   0  0  0  0  0  0  0  0  0  0  0  0
   42.5360   36.2900   41.8280 N   0  0  0  0  0  0  0  0  0  0  0  0
   42.9370   35.0080   41.7240 C   0  0  0  0  0  0  0  0  0  0  0  0
   42.1150   34.0530   41.2050 N   0  0  0  0  0  0  0  0  0  0  0  0
   40.8920   34.4540   40.8050 C   0  0  0  0  0  0  0  0  0  0  0  0
   37.8290   29.4070   40.5470 N   0  0  0  0  0  0  0  0  0  0  0  0
   37.6130   28.7220   41.6400 N   0  0  0  0  0  0  0  0  0  0  0  0
   36.3870   28.1870   41.6790 C   0  0  0  0  0  0  0  0  0  0  0  0
   35.7490   28.5600   40.5020 C   0  0  0  0  0  0  0  0  0  0  0  0
   36.6700   29.3210   39.8140 C   0  0  0  0  0  0  0  0  0  0  0  0
   36.3660   29.9150   38.4880 C   0  0  0  0  0  0  0  0  0  0  0  0
   35.0830   29.6920   38.0540 F   0  0  0  0  0  0  0  0  0  0  0  0
   37.2750   29.5240   37.5190 F   0  0  0  0  0  0  0  0  0  0  0  0
   36.4790   31.3160   38.5740 F   0  0  0  0  0  0  0  0  0  0  0  0
   39.9677   28.5440   38.9730 H   0  0  0  0  0  0  0  0  0  0  0  0
   41.8001   30.1105   38.2034 H   0  0  0  0  0  0  0  0  0  0  0  0
   37.9329   34.1270   39.5696 H   0  0  0  0  0  0  0  0  0  0  0  0
   40.9929   37.7270   41.5147 H   0  0  0  0  0  0  0  0  0  0  0  0
   43.9449   34.7274   42.0637 H   0  0  0  0  0  0  0  0  0  0  0  0
   35.9655   27.5708   42.4869 H   0  0  0  0  0  0  0  0  0  0  0  0
   34.7270   28.3029   40.1866 H   0  0  0  0  0  0  0  0  0  0  0  0
  1  6  1  0
  1 16  1  0
  2  1  2  0
  3  4  2  0
  3  2  1  0
  4  5  1  0
  5  7  1  0
  5  6  2  0
  7 15  1  0
  8  7  1  0
  8  9  2  0
  9 10  1  0
 10 11  2  0
 11 12  1  0
 13 12  2  0
 14 13  1  0
 15 10  1  0
 15 14  2  0
 16 17  1  0
 17 18  2  0
 19 18  1  0
 20 19  2  0
 20 16  1  0
 21 24  1  0
 21 20  1  0
 22 21  1  0
 23 21  1  0
  2 25  1  0
  3 26  1  0
  8 27  1  0
 11 28  1  0
 13 29  1  0
 18 30  1  0
 19 31  1  0
M  ISO  7  25  14  26  14  27  14  28  14  29  14  30  14  31  14
M  END
>  <minimizedAffinity>  (1) 
-5.81326532

>  <minimizedRMSD>  (1) 
3.18847799

$$$$
