
     RDKit          3D

 33 35  0  0  0  0  0  0  0  0999 V2000
   40.1750   32.3210   40.6770 C   0  0  0  0  0  0  0  0  0  0  0  0
   39.7950   31.5890   41.8230 C   0  0  0  0  0  0  0  0  0  0  0  0
   40.0110   30.2050   41.7840 C   0  0  0  0  0  0  0  0  0  0  0  0
   40.5580   29.6710   40.6730 N   0  0  0  0  0  0  0  0  0  0  0  0
   40.9080   30.4060   39.5960 C   0  0  0  0  0  0  0  0  0  0  0  0
   40.7200   31.7470   39.5840 N   0  0  0  0  0  0  0  0  0  0  0  0
   41.4730   29.6870   38.5050 N   0  0  0  0  0  0  0  0  0  0  0  0
   42.1900   30.2090   37.4920 C   0  0  0  0  0  0  0  0  0  0  0  0
   42.6840   29.4030   36.4920 C   0  0  0  0  0  0  0  0  0  0  0  0
   43.4700   30.0020   35.3900 C   0  0  0  0  0  0  0  0  0  0  0  0
   42.4590   28.0400   36.5000 C   0  0  0  0  0  0  0  0  0  0  0  0
   42.8850   27.2540   35.6160 O   0  0  0  0  0  0  0  0  0  0  0  0
   41.7310   27.5800   37.5460 N   0  0  0  0  0  0  0  0  0  0  0  0
   41.2360   28.3620   38.5410 C   0  0  0  0  0  0  0  0  0  0  0  0
   40.5820   27.7340   39.4260 O   0  0  0  0  0  0  0  0  0  0  0  0
   40.0300   33.7280   40.5370 N   0  0  0  0  0  0  0  0  0  0  0  0
   40.8110   34.7580   40.7670 N   0  0  0  0  0  0  0  0  0  0  0  0
   40.2160   35.9230   40.4730 C   0  0  0  0  0  0  0  0  0  0  0  0
   38.9440   35.6280   40.0160 C   0  0  0  0  0  0  0  0  0  0  0  0
   38.8480   34.2410   40.0630 C   0  0  0  0  0  0  0  0  0  0  0  0
   37.6220   33.5190   39.6490 C   0  0  0  0  0  0  0  0  0  0  0  0
   36.6340   34.3330   39.1670 F   0  0  0  0  0  0  0  0  0  0  0  0
   37.1170   32.7220   40.6640 F   0  0  0  0  0  0  0  0  0  0  0  0
   37.9360   32.6390   38.6100 F   0  0  0  0  0  0  0  0  0  0  0  0
   39.3519   32.0802   42.7018 H   0  0  0  0  0  0  0  0  0  0  0  0
   39.7407   29.5689   42.6397 H   0  0  0  0  0  0  0  0  0  0  0  0
   42.3830   31.2916   37.4634 H   0  0  0  0  0  0  0  0  0  0  0  0
   44.2788   30.6184   35.8094 H   0  0  0  0  0  0  0  0  0  0  0  0
   43.9020   29.2020   34.7708 H   0  0  0  0  0  0  0  0  0  0  0  0
   42.8133   30.6307   34.7708 H   0  0  0  0  0  0  0  0  0  0  0  0
   41.5398   26.5689   37.5900 H   0  0  0  0  0  0  0  0  0  0  0  0
   40.6567   36.9256   40.5759 H   0  0  0  0  0  0  0  0  0  0  0  0
   38.1725   36.3391   39.6857 H   0  0  0  0  0  0  0  0  0  0  0  0
  1  2  2  0
  3  2  1  0
  4  3  2  0
  5  4  1  0
  6  5  2  0
  6  1  1  0
  7 14  1  0
  7  5  1  0
  8  7  1  0
  9 11  1  0
  9  8  2  0
 10  9  1  0
 11 13  1  0
 12 11  2  0
 13 14  1  0
 14 15  2  0
 16  1  1  0
 16 17  1  0
 18 17  2  0
 19 20  2  0
 19 18  1  0
 20 16  1  0
 21 20  1  0
 21 23  1  0
 22 21  1  0
 24 21  1  0
  2 25  1  0
  3 26  1  0
  8 27  1  0
 10 28  1  0
 10 29  1  0
 10 30  1  0
 13 31  1  0
 18 32  1  0
 19 33  1  0
M  ISO  8  25  14  26  14  27  14  28   8  29   8  30   8  31   9  32  14
M  ISO  1  33  14
M  END
>  <minimizedAffinity>  (1) 
-5.43063164

>  <minimizedRMSD>  (1) 
7.46786404

$$$$
