
     RDKit          3D

 33 35  0  0  0  0  0  0  0  0999 V2000
   40.4630   31.4420   40.5870 C   0  0  0  0  0  0  0  0  0  0  0  0
   41.3790   30.7330   39.8060 C   0  0  0  0  0  0  0  0  0  0  0  0
   42.6060   31.3220   39.5230 C   0  0  0  0  0  0  0  0  0  0  0  0
   42.8360   32.5660   40.0320 N   0  0  0  0  0  0  0  0  0  0  0  0
   41.9280   33.2290   40.7880 C   0  0  0  0  0  0  0  0  0  0  0  0
   40.7340   32.6750   41.0730 N   0  0  0  0  0  0  0  0  0  0  0  0
   42.2710   34.5240   41.2690 N   0  0  0  0  0  0  0  0  0  0  0  0
   43.4440   34.6270   42.1300 C   0  0  0  0  0  0  0  0  0  0  0  0
   43.5800   36.0120   42.7130 C   0  0  0  0  0  0  0  0  0  0  0  0
   42.3430   36.6040   42.9500 O   0  0  0  0  0  0  0  0  0  0  0  0
   41.6280   36.8460   41.7920 C   0  0  0  0  0  0  0  0  0  0  0  0
   41.4540   35.6720   40.8920 C   0  0  0  0  0  0  0  0  0  0  0  0
   39.1670   30.9730   40.9620 N   0  0  0  0  0  0  0  0  0  0  0  0
   38.7240   30.1460   41.8520 N   0  0  0  0  0  0  0  0  0  0  0  0
   37.3940   30.0210   41.8280 C   0  0  0  0  0  0  0  0  0  0  0  0
   36.9370   30.8540   40.8180 C   0  0  0  0  0  0  0  0  0  0  0  0
   38.0670   31.4410   40.2880 C   0  0  0  0  0  0  0  0  0  0  0  0
   38.0030   32.4100   39.1710 C   0  0  0  0  0  0  0  0  0  0  0  0
   36.7700   32.4980   38.5730 F   0  0  0  0  0  0  0  0  0  0  0  0
   38.9850   32.1870   38.2240 F   0  0  0  0  0  0  0  0  0  0  0  0
   38.2410   33.7040   39.6720 F   0  0  0  0  0  0  0  0  0  0  0  0
   41.1348   29.7310   39.4235 H   0  0  0  0  0  0  0  0  0  0  0  0
   43.3613   30.8051   38.9128 H   0  0  0  0  0  0  0  0  0  0  0  0
   43.3501   33.9009   42.9510 H   0  0  0  0  0  0  0  0  0  0  0  0
   44.3376   34.4177   41.5236 H   0  0  0  0  0  0  0  0  0  0  0  0
   44.1288   35.9443   43.6639 H   0  0  0  0  0  0  0  0  0  0  0  0
   44.1195   36.6348   41.9843 H   0  0  0  0  0  0  0  0  0  0  0  0
   40.6285   37.2049   42.0789 H   0  0  0  0  0  0  0  0  0  0  0  0
   42.2145   37.5812   41.2215 H   0  0  0  0  0  0  0  0  0  0  0  0
   41.7272   35.9732   39.8699 H   0  0  0  0  0  0  0  0  0  0  0  0
   40.4021   35.3594   40.9675 H   0  0  0  0  0  0  0  0  0  0  0  0
   36.7815   29.3824   42.4815 H   0  0  0  0  0  0  0  0  0  0  0  0
   35.8943   31.0129   40.5057 H   0  0  0  0  0  0  0  0  0  0  0  0
  1 13  1  0
  1  6  1  0
  2  1  2  0
  3  2  1  0
  3  4  2  0
  4  5  1  0
  5  6  2  0
  5  7  1  0
  7  8  1  0
  8  9  1  0
  9 10  1  0
 11 10  1  0
 12  7  1  0
 12 11  1  0
 13 14  1  0
 15 14  2  0
 16 15  1  0
 17 16  2  0
 17 13  1  0
 18 21  1  0
 18 17  1  0
 19 18  1  0
 20 18  1  0
  2 22  1  0
  3 23  1  0
  8 24  1  0
  8 25  1  0
  9 26  1  0
  9 27  1  0
 11 28  1  0
 11 29  1  0
 12 30  1  0
 12 31  1  0
 15 32  1  0
 16 33  1  0
M  ISO  8  22  14  23  14  24  13  25  13  26  13  27  13  28  13  29  13
M  ISO  4  30  13  31  13  32  14  33  14
M  END
>  <minimizedAffinity>  (1) 
-5.2378273

>  <minimizedRMSD>  (1) 
3.87971067

$$$$
