
     RDKit          3D

 27 29  0  0  0  0  0  0  0  0999 V2000
   39.4280   31.3530   40.2530 C   0  0  0  0  0  0  0  0  0  0  0  0
   40.5130   30.7880   39.5610 C   0  0  0  0  0  0  0  0  0  0  0  0
   41.4570   31.6710   39.0320 C   0  0  0  0  0  0  0  0  0  0  0  0
   41.2640   32.9950   39.2210 N   0  0  0  0  0  0  0  0  0  0  0  0
   40.2130   33.5080   39.8900 C   0  0  0  0  0  0  0  0  0  0  0  0
   39.2770   32.6910   40.4180 N   0  0  0  0  0  0  0  0  0  0  0  0
   38.3690   30.6010   40.8580 N   0  0  0  0  0  0  0  0  0  0  0  0
   38.2010   30.0630   42.0350 N   0  0  0  0  0  0  0  0  0  0  0  0
   37.0160   29.4480   42.1340 C   0  0  0  0  0  0  0  0  0  0  0  0
   36.3750   29.6030   40.9230 C   0  0  0  0  0  0  0  0  0  0  0  0
   37.2480   30.3330   40.1400 C   0  0  0  0  0  0  0  0  0  0  0  0
   36.9230   30.7150   38.7440 C   0  0  0  0  0  0  0  0  0  0  0  0
   35.7190   30.2170   38.2900 F   0  0  0  0  0  0  0  0  0  0  0  0
   37.9370   30.3900   37.8640 F   0  0  0  0  0  0  0  0  0  0  0  0
   36.7880   32.1040   38.6570 F   0  0  0  0  0  0  0  0  0  0  0  0
   40.0750   34.9530   40.0540 C   0  0  0  0  0  0  0  0  0  0  0  0
   41.0520   35.8020   40.5290 C   0  0  0  0  0  0  0  0  0  0  0  0
   40.6450   37.0860   40.5730 N   0  0  0  0  0  0  0  0  0  0  0  0
   39.3630   37.0340   40.1070 C   0  0  0  0  0  0  0  0  0  0  0  0
   39.0550   35.7590   39.8080 N   0  0  0  0  0  0  0  0  0  0  0  0
   40.6142   29.6992   39.4414 H   0  0  0  0  0  0  0  0  0  0  0  0
   42.3317   31.2996   38.4779 H   0  0  0  0  0  0  0  0  0  0  0  0
   36.6267   28.9184   43.0160 H   0  0  0  0  0  0  0  0  0  0  0  0
   35.3809   29.2259   40.6408 H   0  0  0  0  0  0  0  0  0  0  0  0
   42.0535   35.4681   40.8381 H   0  0  0  0  0  0  0  0  0  0  0  0
   38.6896   37.8964   39.9941 H   0  0  0  0  0  0  0  0  0  0  0  0
   38.1451   35.4509   39.4365 H   0  0  0  0  0  0  0  0  0  0  0  0
  1  6  1  0
  1  7  1  0
  2  1  2  0
  3  4  2  0
  3  2  1  0
  4  5  1  0
  5 16  1  0
  5  6  2  0
  7  8  1  0
  8  9  2  0
 10  9  1  0
 11  7  1  0
 11 10  2  0
 12 11  1  0
 13 12  1  0
 14 12  1  0
 15 12  1  0
 16 17  2  0
 17 18  1  0
 19 18  2  0
 20 16  1  0
 20 19  1  0
  2 21  1  0
  3 22  1  0
  9 23  1  0
 10 24  1  0
 17 25  1  0
 19 26  1  0
 20 27  1  0
M  ISO  7  21  14  22  14  23  14  24  14  25  14  26  14  27   9
M  END
>  <minimizedAffinity>  (1) 
-5.12604475

>  <minimizedRMSD>  (1) 
2.18180966

$$$$
