
     RDKit          3D

 23 24  0  0  0  0  0  0  0  0999 V2000
   38.9370   31.9970   40.1840 C   0  0  0  0  0  0  0  0  0  0  0  0
   40.2300   31.4740   40.0580 C   0  0  0  0  0  0  0  0  0  0  0  0
   41.2900   32.3710   39.9720 C   0  0  0  0  0  0  0  0  0  0  0  0
   41.0030   33.6900   40.0140 N   0  0  0  0  0  0  0  0  0  0  0  0
   39.7440   34.1680   40.1360 C   0  0  0  0  0  0  0  0  0  0  0  0
   38.6990   33.3170   40.2220 N   0  0  0  0  0  0  0  0  0  0  0  0
   37.7500   31.2180   40.2840 N   0  0  0  0  0  0  0  0  0  0  0  0
   37.0410   30.7640   41.2790 N   0  0  0  0  0  0  0  0  0  0  0  0
   35.9720   30.0560   40.8640 C   0  0  0  0  0  0  0  0  0  0  0  0
   36.0060   30.0600   39.4910 C   0  0  0  0  0  0  0  0  0  0  0  0
   37.1220   30.7890   39.1390 C   0  0  0  0  0  0  0  0  0  0  0  0
   37.5140   31.0280   37.7250 C   0  0  0  0  0  0  0  0  0  0  0  0
   36.6630   30.4550   36.8190 F   0  0  0  0  0  0  0  0  0  0  0  0
   38.8180   30.6460   37.4740 F   0  0  0  0  0  0  0  0  0  0  0  0
   37.4490   32.4040   37.4680 F   0  0  0  0  0  0  0  0  0  0  0  0
   39.5980   35.6500   40.1680 C   0  0  0  0  0  0  0  0  0  0  0  0
   39.8960   36.1560   41.4230 F   0  0  0  0  0  0  0  0  0  0  0  0
   38.3700   36.0790   39.7050 F   0  0  0  0  0  0  0  0  0  0  0  0
   40.5320   36.2530   39.3190 F   0  0  0  0  0  0  0  0  0  0  0  0
   40.4021   30.3880   40.0280 H   0  0  0  0  0  0  0  0  0  0  0  0
   42.3270   32.0177   39.8731 H   0  0  0  0  0  0  0  0  0  0  0  0
   35.2187   29.5695   41.5011 H   0  0  0  0  0  0  0  0  0  0  0  0
   35.2883   29.5790   38.8102 H   0  0  0  0  0  0  0  0  0  0  0  0
  1  6  1  0
  1  7  1  0
  2  1  2  0
  3  4  2  0
  3  2  1  0
  4  5  1  0
  5 16  1  0
  5  6  2  0
  7  8  1  0
  9  8  2  0
 10  9  1  0
 11 10  2  0
 11  7  1  0
 12 11  1  0
 13 12  1  0
 14 12  1  0
 15 12  1  0
 16 17  1  0
 18 16  1  0
 19 16  1  0
  2 20  1  0
  3 21  1  0
  9 22  1  0
 10 23  1  0
M  ISO  4  20  14  21  14  22  14  23  14
M  END
>  <minimizedAffinity>  (1) 
-5.01556635

>  <minimizedRMSD>  (1) 
1.16843212

$$$$
