
     RDKit          3D

 23 24  0  0  0  0  0  0  0  0999 V2000
   38.7130   31.6940   40.5170 C   0  0  0  0  0  0  0  0  0  0  0  0
   40.0170   31.1960   40.6040 C   0  0  0  0  0  0  0  0  0  0  0  0
   41.0670   32.0970   40.6400 C   0  0  0  0  0  0  0  0  0  0  0  0
   40.7620   33.4210   40.5870 N   0  0  0  0  0  0  0  0  0  0  0  0
   39.4990   33.8740   40.5030 C   0  0  0  0  0  0  0  0  0  0  0  0
   38.4650   33.0260   40.4680 N   0  0  0  0  0  0  0  0  0  0  0  0
   37.5240   30.9070   40.4710 N   0  0  0  0  0  0  0  0  0  0  0  0
   36.7620   30.3710   41.3770 N   0  0  0  0  0  0  0  0  0  0  0  0
   35.7350   29.7070   40.8520 C   0  0  0  0  0  0  0  0  0  0  0  0
   35.8430   29.8240   39.4790 C   0  0  0  0  0  0  0  0  0  0  0  0
   36.9840   30.5880   39.2630 C   0  0  0  0  0  0  0  0  0  0  0  0
   37.4530   30.9440   37.9070 C   0  0  0  0  0  0  0  0  0  0  0  0
   36.6870   30.4160   36.8970 F   0  0  0  0  0  0  0  0  0  0  0  0
   38.7870   30.6460   37.7190 F   0  0  0  0  0  0  0  0  0  0  0  0
   37.3450   32.3380   37.7400 F   0  0  0  0  0  0  0  0  0  0  0  0
   39.3060   35.3210   40.4540 C   0  0  0  0  0  0  0  0  0  0  0  0
   40.0440   36.0550   41.1620 O   0  0  0  0  0  0  0  0  0  0  0  0
   38.3420   35.9230   39.6570 O   0  0  0  0  0  0  0  0  0  0  0  0
   40.2039   30.1127   40.6429 H   0  0  0  0  0  0  0  0  0  0  0  0
   42.1100   31.7545   40.7090 H   0  0  0  0  0  0  0  0  0  0  0  0
   34.9509   29.1686   41.4046 H   0  0  0  0  0  0  0  0  0  0  0  0
   35.1692   29.4021   38.7187 H   0  0  0  0  0  0  0  0  0  0  0  0
   38.2462   36.9084   39.6550 H   0  0  0  0  0  0  0  0  0  0  0  0
  1  2  2  0
  2  3  1  0
  4  3  2  0
  5  4  1  0
  6  5  2  0
  6  1  1  0
  7  1  1  0
  7  8  1  0
  9  8  2  0
 10  9  1  0
 11 10  2  0
 11  7  1  0
 12 11  1  0
 13 12  1  0
 14 12  1  0
 15 12  1  0
 16  5  1  0
 16 17  2  0
 18 16  1  0
  2 19  1  0
  3 20  1  0
  9 21  1  0
 10 22  1  0
 18 23  1  0
M  ISO  5  19  14  20  14  21  14  22  14  23   3
M  END
>  <minimizedAffinity>  (1) 
-4.75547695

>  <minimizedRMSD>  (1) 
1.02246666

$$$$
