
     RDKit          3D

 34 36  0  0  1  0  0  0  0  0999 V2000
   36.0740   27.6700   39.0670 C   0  0  0  0  0  0  0  0  0  0  0  0
   35.3360   27.3230   37.9340 C   0  0  0  0  0  0  0  0  0  0  0  0
   35.3970   25.9560   37.9270 C   0  0  0  0  0  0  0  0  0  0  0  0
   36.1260   25.4980   38.9880 N   0  0  0  0  0  0  0  0  0  0  0  0
   36.5270   26.5560   39.6660 N   0  0  0  0  0  0  0  0  0  0  0  0
   36.0570   29.4990   40.7930 C   0  0  0  0  0  0  0  0  0  0  0  0
   36.2910   29.0370   39.5010 C   0  0  0  0  0  0  0  0  0  0  0  0
   36.7610   29.9510   38.5710 C   0  0  0  0  0  0  0  0  0  0  0  0
   36.9710   31.2490   38.9630 N   0  0  0  0  0  0  0  0  0  0  0  0
   36.7230   31.6430   40.2460 C   0  0  0  0  0  0  0  0  0  0  0  0
   36.2560   30.7470   41.1790 N   0  0  0  0  0  0  0  0  0  0  0  0
   36.3020   24.0660   39.1750 C   0  0  1  0  0  0  0  0  0  0  0  0
   36.5760   23.8020   40.5550 N   0  0  0  0  0  0  0  0  0  0  0  0
   37.8880   23.8850   41.1070 C   0  0  0  0  0  0  0  0  0  0  0  0
   38.8690   24.0610   40.3000 N   0  0  0  0  0  0  0  0  0  0  0  0
   38.1040   23.7620   42.4910 N   0  0  0  0  0  0  0  0  0  0  0  0
   39.8480   24.0990   40.6400 H   0  0  0  0  0  0  0  0  0  0  0  0
   35.0300   23.3820   38.6980 C   0  0  0  0  0  0  0  0  0  0  0  0
   34.0850   22.7950   39.6480 C   0  0  0  0  0  0  0  0  0  0  0  0
   35.0230   21.8760   38.8060 C   0  0  0  0  0  0  0  0  0  0  0  0
   34.8282   27.9877   37.2196 H   0  0  0  0  0  0  0  0  0  0  0  0
   34.9236   25.3133   37.1702 H   0  0  0  0  0  0  0  0  0  0  0  0
   35.6836   28.7813   41.5383 H   0  0  0  0  0  0  0  0  0  0  0  0
   36.9624   29.6407   37.5351 H   0  0  0  0  0  0  0  0  0  0  0  0
   36.8987   32.6891   40.5371 H   0  0  0  0  0  0  0  0  0  0  0  0
   37.1523   23.6772   38.5956 H   0  0  0  0  0  0  0  0  0  0  0  0
   35.7946   23.5418   41.1736 H   0  0  0  0  0  0  0  0  0  0  0  0
   39.0594   23.8248   42.8707 H   0  0  0  0  0  0  0  0  0  0  0  0
   37.3068   23.6091   43.1251 H   0  0  0  0  0  0  0  0  0  0  0  0
   34.8858   24.1192   37.8944 H   0  0  0  0  0  0  0  0  0  0  0  0
   34.2505   22.9073   40.7297 H   0  0  0  0  0  0  0  0  0  0  0  0
   32.9987   22.8617   39.8080 H   0  0  0  0  0  0  0  0  0  0  0  0
   34.6160   21.2596   37.9909 H   0  0  0  0  0  0  0  0  0  0  0  0
   35.7635   21.0899   39.0150 H   0  0  0  0  0  0  0  0  0  0  0  0
  1  7  1  0
  1  5  2  0
  2  1  1  0
  3  2  2  0
  3  4  1  0
  4 12  1  0
  4  5  1  0
  6 11  2  0
  7  6  1  0
  8  9  1  0
  8  7  2  0
  9 10  2  0
 10 11  1  0
 12 13  1  0
 13 14  1  0
 14 16  1  0
 15 17  1  0
 15 14  2  0
 18 20  1  0
 18 12  1  0
 18 19  1  0
 20 19  1  0
  2 21  1  0
  3 22  1  0
  6 23  1  0
  8 24  1  0
 10 25  1  0
 12 26  1  6
 13 27  1  0
 16 28  1  0
 16 29  1  0
 18 30  1  0
 19 31  1  0
 19 32  1  0
 20 33  1  0
 20 34  1  0
M  ISO  8  21  14  22  14  23  14  24  14  25  14  26   8  30  13  31  13
M  ISO  3  32  13  33  13  34  13
M  END
>  <minimizedAffinity>  (1) 
-4.09106302

>  <minimizedRMSD>  (1) 
0.844925761

$$$$
