
     RDKit          3D

 26 27  0  0  0  0  0  0  0  0999 V2000
   37.3810   31.1870   40.3030 N   0  0  0  0  0  0  0  0  0  0  0  0
   36.5760   30.6840   41.2090 N   0  0  0  0  0  0  0  0  0  0  0  0
   35.6390   29.8930   40.6670 C   0  0  0  0  0  0  0  0  0  0  0  0
   35.8560   29.8850   39.3050 C   0  0  0  0  0  0  0  0  0  0  0  0
   36.9560   30.7060   39.1050 C   0  0  0  0  0  0  0  0  0  0  0  0
   38.5050   32.0610   40.3570 C   0  0  0  0  0  0  0  0  0  0  0  0
   39.8330   31.6500   40.5420 C   0  0  0  0  0  0  0  0  0  0  0  0
   40.8140   32.6380   40.5700 C   0  0  0  0  0  0  0  0  0  0  0  0
   40.4230   33.9250   40.4160 N   0  0  0  0  0  0  0  0  0  0  0  0
   39.1390   34.2890   40.2400 C   0  0  0  0  0  0  0  0  0  0  0  0
   38.1620   33.3630   40.2070 N   0  0  0  0  0  0  0  0  0  0  0  0
   38.8830   35.7470   40.0870 C   0  0  0  0  0  0  0  0  0  0  0  0
   40.1290   36.5740   39.9970 C   0  0  0  0  0  0  0  0  0  0  0  0
   37.5050   30.9580   37.7590 C   0  0  0  0  0  0  0  0  0  0  0  0
   36.8160   30.3510   36.7330 F   0  0  0  0  0  0  0  0  0  0  0  0
   38.8580   30.6550   37.6780 F   0  0  0  0  0  0  0  0  0  0  0  0
   37.4200   32.3290   37.4680 F   0  0  0  0  0  0  0  0  0  0  0  0
   34.8471   29.3527   41.2064 H   0  0  0  0  0  0  0  0  0  0  0  0
   35.2798   29.3432   38.5405 H   0  0  0  0  0  0  0  0  0  0  0  0
   40.0901   30.5871   40.6605 H   0  0  0  0  0  0  0  0  0  0  0  0
   41.8739   32.3807   40.7128 H   0  0  0  0  0  0  0  0  0  0  0  0
   38.2971   35.9017   39.1689 H   0  0  0  0  0  0  0  0  0  0  0  0
   38.3461   36.0742   40.9896 H   0  0  0  0  0  0  0  0  0  0  0  0
   40.4859   36.8109   41.0102 H   0  0  0  0  0  0  0  0  0  0  0  0
   40.9047   36.0109   39.4574 H   0  0  0  0  0  0  0  0  0  0  0  0
   39.9113   37.5075   39.4574 H   0  0  0  0  0  0  0  0  0  0  0  0
  1  6  1  0
  1  2  1  0
  3  2  2  0
  4  3  1  0
  5  4  2  0
  5  1  1  0
  6  7  2  0
  7  8  1  0
  9  8  2  0
 10  9  1  0
 11 10  2  0
 11  6  1  0
 12 10  1  0
 13 12  1  0
 14  5  1  0
 15 14  1  0
 16 14  1  0
 17 14  1  0
  3 18  1  0
  4 19  1  0
  7 20  1  0
  8 21  1  0
 12 22  1  0
 12 23  1  0
 13 24  1  0
 13 25  1  0
 13 26  1  0
M  ISO  8  18  14  19  14  20  14  21  14  22   8  23   8  24   8  25   8
M  ISO  1  26   8
M  END
>  <minimizedAffinity>  (1) 
-4.61434841

>  <minimizedRMSD>  (1) 
0.617447615

$$$$
