
     RDKit          3D

 22 23  0  0  0  0  0  0  0  0999 V2000
   37.2860   31.2370   40.2580 N   0  0  0  0  0  0  0  0  0  0  0  0
   36.4650   30.7520   41.1380 N   0  0  0  0  0  0  0  0  0  0  0  0
   35.5680   29.9110   40.5970 C   0  0  0  0  0  0  0  0  0  0  0  0
   35.8450   29.8570   39.2520 C   0  0  0  0  0  0  0  0  0  0  0  0
   36.9240   30.6940   39.0640 C   0  0  0  0  0  0  0  0  0  0  0  0
   38.3870   32.1430   40.3130 C   0  0  0  0  0  0  0  0  0  0  0  0
   39.7090   31.7860   40.5790 C   0  0  0  0  0  0  0  0  0  0  0  0
   40.6710   32.7770   40.6010 C   0  0  0  0  0  0  0  0  0  0  0  0
   40.2640   34.0520   40.3590 N   0  0  0  0  0  0  0  0  0  0  0  0
   38.9780   34.3810   40.1020 C   0  0  0  0  0  0  0  0  0  0  0  0
   38.0320   33.4200   40.0780 N   0  0  0  0  0  0  0  0  0  0  0  0
   38.6340   35.7480   39.8570 N   0  0  0  0  0  0  0  0  0  0  0  0
   37.5370   30.9150   37.7230 C   0  0  0  0  0  0  0  0  0  0  0  0
   36.8870   30.2340   36.7140 F   0  0  0  0  0  0  0  0  0  0  0  0
   38.8810   30.6240   37.7050 F   0  0  0  0  0  0  0  0  0  0  0  0
   37.4280   32.2570   37.3790 F   0  0  0  0  0  0  0  0  0  0  0  0
   34.7688   29.3716   41.1265 H   0  0  0  0  0  0  0  0  0  0  0  0
   35.3168   29.2695   38.4866 H   0  0  0  0  0  0  0  0  0  0  0  0
   39.9799   30.7367   40.7674 H   0  0  0  0  0  0  0  0  0  0  0  0
   41.7262   32.5438   40.8064 H   0  0  0  0  0  0  0  0  0  0  0  0
   37.6563   36.0058   39.6606 H   0  0  0  0  0  0  0  0  0  0  0  0
   39.3640   36.4743   39.8771 H   0  0  0  0  0  0  0  0  0  0  0  0
  1  6  1  0
  1  2  1  0
  3  2  2  0
  4  3  1  0
  5  4  2  0
  5  1  1  0
  6  7  2  0
  7  8  1  0
  9  8  2  0
 10  9  1  0
 11 10  2  0
 11  6  1  0
 12 10  1  0
 13  5  1  0
 14 13  1  0
 15 13  1  0
 16 13  1  0
  3 17  1  0
  4 18  1  0
  7 19  1  0
  8 20  1  0
 12 21  1  0
 12 22  1  0
M  ISO  4  17  14  18  14  19  14  20  14
M  END
>  <minimizedAffinity>  (1) 
-4.49315691

>  <minimizedRMSD>  (1) 
0.371445656

$$$$
