
     RDKit          3D

 29 30  0  0  0  0  0  0  0  0999 V2000
   38.2950   31.7930   40.6000 N   0  0  0  0  0  0  0  0  0  0  0  0
   38.7880   32.7040   41.3940 N   0  0  0  0  0  0  0  0  0  0  0  0
   39.5180   33.6170   40.7350 C   0  0  0  0  0  0  0  0  0  0  0  0
   39.4910   33.2600   39.3990 C   0  0  0  0  0  0  0  0  0  0  0  0
   38.7190   32.1140   39.3360 C   0  0  0  0  0  0  0  0  0  0  0  0
   37.4840   30.6500   40.7880 C   0  0  0  0  0  0  0  0  0  0  0  0
   36.1130   30.5580   40.4920 C   0  0  0  0  0  0  0  0  0  0  0  0
   35.4610   29.3640   40.7340 C   0  0  0  0  0  0  0  0  0  0  0  0
   36.1780   28.3400   41.2450 N   0  0  0  0  0  0  0  0  0  0  0  0
   37.4970   28.4350   41.5280 C   0  0  0  0  0  0  0  0  0  0  0  0
   38.1530   29.6010   41.2960 N   0  0  0  0  0  0  0  0  0  0  0  0
   38.1970   27.2390   42.0920 C   0  0  0  0  0  0  0  0  0  0  0  0
   37.1760   26.1220   42.3240 C   0  0  0  0  0  0  0  0  0  0  0  0
   38.8110   27.5610   43.4200 C   0  0  0  0  0  0  0  0  0  0  0  0
   38.4440   31.4060   38.0580 C   0  0  0  0  0  0  0  0  0  0  0  0
   39.2280   31.8360   37.0080 F   0  0  0  0  0  0  0  0  0  0  0  0
   37.1130   31.4450   37.7120 F   0  0  0  0  0  0  0  0  0  0  0  0
   38.7720   30.0460   38.2140 F   0  0  0  0  0  0  0  0  0  0  0  0
   40.0375   34.4822   41.1727 H   0  0  0  0  0  0  0  0  0  0  0  0
   39.9809   33.7788   38.5618 H   0  0  0  0  0  0  0  0  0  0  0  0
   35.5699   31.4194   40.0760 H   0  0  0  0  0  0  0  0  0  0  0  0
   34.3886   29.2508   40.5167 H   0  0  0  0  0  0  0  0  0  0  0  0
   38.9776   26.9324   41.3802 H   0  0  0  0  0  0  0  0  0  0  0  0
   37.0375   25.9705   43.4047 H   0  0  0  0  0  0  0  0  0  0  0  0
   36.2155   26.4024   41.8670 H   0  0  0  0  0  0  0  0  0  0  0  0
   37.5414   25.1905   41.8670 H   0  0  0  0  0  0  0  0  0  0  0  0
   38.1471   27.2128   44.2250 H   0  0  0  0  0  0  0  0  0  0  0  0
   39.7855   27.0579   43.5051 H   0  0  0  0  0  0  0  0  0  0  0  0
   38.9512   28.6487   43.5051 H   0  0  0  0  0  0  0  0  0  0  0  0
  1  6  1  0
  1  2  1  0
  3  2  2  0
  4  3  1  0
  5  4  2  0
  5  1  1  0
  6 11  2  0
  7  8  2  0
  7  6  1  0
  8  9  1  0
  9 10  2  0
 10 12  1  0
 11 10  1  0
 12 13  1  0
 12 14  1  0
 15 18  1  0
 15  5  1  0
 16 15  1  0
 17 15  1  0
  3 19  1  0
  4 20  1  0
  7 21  1  0
  8 22  1  0
 12 23  1  0
 13 24  1  0
 13 25  1  0
 13 26  1  0
 14 27  1  0
 14 28  1  0
 14 29  1  0
M  ISO  8  19  14  20  14  21  14  22  14  23   8  24   8  25   8  26   8
M  ISO  3  27   8  28   8  29   8
M  END
>  <minimizedAffinity>  (1) 
-4.47494984

>  <minimizedRMSD>  (1) 
5.59294939

$$$$
