
     RDKit          3D

 34 36  0  0  1  0  0  0  0  0999 V2000
   36.7970   23.7380   39.5640 C   0  0  2  0  0  0  0  0  0  0  0  0
   37.2120   23.5560   40.9190 N   0  0  0  0  0  0  0  0  0  0  0  0
   38.5060   23.8400   41.4020 C   0  0  0  0  0  0  0  0  0  0  0  0
   39.3950   24.1350   40.5280 N   0  0  0  0  0  0  0  0  0  0  0  0
   38.8110   23.7830   42.7700 N   0  0  0  0  0  0  0  0  0  0  0  0
   40.3770   24.3290   40.8080 H   0  0  0  0  0  0  0  0  0  0  0  0
   36.2920   27.3040   39.3300 C   0  0  0  0  0  0  0  0  0  0  0  0
   35.6620   26.8730   38.1540 C   0  0  0  0  0  0  0  0  0  0  0  0
   35.8380   25.5090   38.1930 C   0  0  0  0  0  0  0  0  0  0  0  0
   36.5170   25.1400   39.3000 N   0  0  0  0  0  0  0  0  0  0  0  0
   36.7860   26.2360   39.9790 N   0  0  0  0  0  0  0  0  0  0  0  0
   36.2260   29.1220   41.0560 C   0  0  0  0  0  0  0  0  0  0  0  0
   36.3710   28.6890   39.7440 C   0  0  0  0  0  0  0  0  0  0  0  0
   36.6050   29.6520   38.7560 C   0  0  0  0  0  0  0  0  0  0  0  0
   36.6780   30.9680   39.1320 N   0  0  0  0  0  0  0  0  0  0  0  0
   36.5290   31.3430   40.4370 C   0  0  0  0  0  0  0  0  0  0  0  0
   36.3020   30.4090   41.3930 N   0  0  0  0  0  0  0  0  0  0  0  0
   35.5580   22.9770   39.2950 N   0  0  0  0  0  0  0  0  0  0  0  0
   34.3960   23.0980   39.9290 N   0  0  0  0  0  0  0  0  0  0  0  0
   33.4980   22.2370   39.4050 C   0  0  0  0  0  0  0  0  0  0  0  0
   34.1130   21.5290   38.3830 C   0  0  0  0  0  0  0  0  0  0  0  0
   35.4020   22.0160   38.3400 C   0  0  0  0  0  0  0  0  0  0  0  0
   37.6136   23.3823   38.9186 H   0  0  0  0  0  0  0  0  0  0  0  0
   36.5188   23.1926   41.5886 H   0  0  0  0  0  0  0  0  0  0  0  0
   39.7653   23.9956   43.0942 H   0  0  0  0  0  0  0  0  0  0  0  0
   38.0807   23.5285   43.4503 H   0  0  0  0  0  0  0  0  0  0  0  0
   35.1524   27.4767   37.3886 H   0  0  0  0  0  0  0  0  0  0  0  0
   35.4738   24.8116   37.4242 H   0  0  0  0  0  0  0  0  0  0  0  0
   36.0421   28.3767   41.8439 H   0  0  0  0  0  0  0  0  0  0  0  0
   36.7274   29.3597   37.7026 H   0  0  0  0  0  0  0  0  0  0  0  0
   36.5934   32.4059   40.7130 H   0  0  0  0  0  0  0  0  0  0  0  0
   32.4549   22.1171   39.7330 H   0  0  0  0  0  0  0  0  0  0  0  0
   33.6693   20.7495   37.7462 H   0  0  0  0  0  0  0  0  0  0  0  0
   36.1842   21.6811   37.6428 H   0  0  0  0  0  0  0  0  0  0  0  0
  1  2  1  0
  2  3  1  0
  3  5  1  0
  4  6  1  0
  4  3  2  0
  7 13  1  0
  7 11  2  0
  8  9  2  0
  8  7  1  0
  9 10  1  0
 10  1  1  0
 10 11  1  0
 12 17  2  0
 13 12  1  0
 14 15  1  0
 14 13  2  0
 15 16  2  0
 16 17  1  0
 18  1  1  0
 18 19  1  0
 20 19  2  0
 21 20  1  0
 22 21  2  0
 22 18  1  0
  1 23  1  6
  2 24  1  0
  5 25  1  0
  5 26  1  0
  8 27  1  0
  9 28  1  0
 12 29  1  0
 14 30  1  0
 16 31  1  0
 20 32  1  0
 21 33  1  0
 22 34  1  0
M  ISO  8  23   8  27  14  28  14  29  14  30  14  31  14  32  14  33  14
M  ISO  1  34  14
M  END
>  <minimizedAffinity>  (1) 
-4.07902145

>  <minimizedRMSD>  (1) 
0.806949496

$$$$
