
     RDKit          3D

 33 36  0  0  0  0  0  0  0  0999 V2000
   39.7520   30.4520   41.1060 N   0  0  0  0  0  0  0  0  0  0  0  0
   40.4640   29.7580   41.9470 N   0  0  0  0  0  0  0  0  0  0  0  0
   39.6970   29.0490   42.7790 C   0  0  0  0  0  0  0  0  0  0  0  0
   38.3720   29.3130   42.4380 C   0  0  0  0  0  0  0  0  0  0  0  0
   38.4460   30.1910   41.3960 C   0  0  0  0  0  0  0  0  0  0  0  0
   40.0690   31.3470   40.0460 C   0  0  0  0  0  0  0  0  0  0  0  0
   40.4430   30.9790   38.7510 C   0  0  0  0  0  0  0  0  0  0  0  0
   40.7170   31.9660   37.8370 C   0  0  0  0  0  0  0  0  0  0  0  0
   40.6080   33.2510   38.2490 N   0  0  0  0  0  0  0  0  0  0  0  0
   40.2490   33.6030   39.4930 C   0  0  0  0  0  0  0  0  0  0  0  0
   39.9770   32.6370   40.4010 N   0  0  0  0  0  0  0  0  0  0  0  0
   40.1680   34.9850   39.8200 N   0  0  0  0  0  0  0  0  0  0  0  0
   41.2930   35.6320   40.1730 C   0  0  0  0  0  0  0  0  0  0  0  0
   41.0040   36.9360   40.4450 N   0  0  0  0  0  0  0  0  0  0  0  0
   39.6620   37.0790   40.2470 C   0  0  0  0  0  0  0  0  0  0  0  0
   39.1800   35.8690   39.8670 N   0  0  0  0  0  0  0  0  0  0  0  0
   37.4250   28.6160   43.2670 C   0  0  0  0  0  0  0  0  0  0  0  0
   36.7450   27.4470   43.0460 C   0  0  0  0  0  0  0  0  0  0  0  0
   36.0090   27.1030   44.1430 N   0  0  0  0  0  0  0  0  0  0  0  0
   36.2200   28.0540   45.0720 C   0  0  0  0  0  0  0  0  0  0  0  0
   37.0510   28.9170   44.5230 N   0  0  0  0  0  0  0  0  0  0  0  0
   37.2200   30.7310   40.7670 C   0  0  0  0  0  0  0  0  0  0  0  0
   36.0450   30.3030   41.2890 F   0  0  0  0  0  0  0  0  0  0  0  0
   37.2260   30.5810   39.3830 F   0  0  0  0  0  0  0  0  0  0  0  0
   37.1830   32.1390   40.9470 F   0  0  0  0  0  0  0  0  0  0  0  0
   40.0453   28.3825   43.5818 H   0  0  0  0  0  0  0  0  0  0  0  0
   40.5165   29.9183   38.4691 H   0  0  0  0  0  0  0  0  0  0  0  0
   41.0145   31.7215   36.8066 H   0  0  0  0  0  0  0  0  0  0  0  0
   42.2933   35.1783   40.2330 H   0  0  0  0  0  0  0  0  0  0  0  0
   39.0790   38.0034   40.3721 H   0  0  0  0  0  0  0  0  0  0  0  0
   36.7865   26.8658   42.1130 H   0  0  0  0  0  0  0  0  0  0  0  0
   35.7875   28.1011   46.0823 H   0  0  0  0  0  0  0  0  0  0  0  0
   37.3874   29.7558   45.0170 H   0  0  0  0  0  0  0  0  0  0  0  0
  1  5  1  0
  1  2  1  0
  2  3  2  0
  4  3  1  0
  4 17  1  0
  5  4  2  0
  6 11  1  0
  6  1  1  0
  7  6  2  0
  8  9  2  0
  8  7  1  0
  9 10  1  0
 10 12  1  0
 10 11  2  0
 12 16  1  0
 12 13  1  0
 13 14  2  0
 15 14  1  0
 16 15  2  0
 17 21  1  0
 18 17  2  0
 18 19  1  0
 19 20  2  0
 21 20  1  0
 22 25  1  0
 22 23  1  0
 22  5  1  0
 24 22  1  0
  3 26  1  0
  7 27  1  0
  8 28  1  0
 13 29  1  0
 15 30  1  0
 18 31  1  0
 20 32  1  0
 21 33  1  0
M  ISO  8  26  14  27  14  28  14  29  14  30  14  31  14  32  14  33   9
M  END
>  <minimizedAffinity>  (1) 
-6.42825508

>  <minimizedRMSD>  (1) 
1.0258733

$$$$
