
     RDKit          3D

 36 39  0  0  0  0  0  0  0  0999 V2000
   41.3580   30.9160   41.2660 N   0  0  0  0  0  0  0  0  0  0  0  0
   41.9470   29.8900   41.8050 N   0  0  0  0  0  0  0  0  0  0  0  0
   41.0530   29.0070   42.2860 C   0  0  0  0  0  0  0  0  0  0  0  0
   39.7850   29.5220   42.0300 C   0  0  0  0  0  0  0  0  0  0  0  0
   40.0200   30.7170   41.3900 C   0  0  0  0  0  0  0  0  0  0  0  0
   41.8290   32.1040   40.6320 C   0  0  0  0  0  0  0  0  0  0  0  0
   41.9610   32.3100   39.2740 C   0  0  0  0  0  0  0  0  0  0  0  0
   42.4350   33.5230   38.8280 C   0  0  0  0  0  0  0  0  0  0  0  0
   42.7490   34.4550   39.7530 N   0  0  0  0  0  0  0  0  0  0  0  0
   42.6220   34.2580   41.0730 C   0  0  0  0  0  0  0  0  0  0  0  0
   42.1600   33.0770   41.5280 N   0  0  0  0  0  0  0  0  0  0  0  0
   42.9850   35.3150   41.9580 N   0  0  0  0  0  0  0  0  0  0  0  0
   44.2860   35.4450   42.3000 C   0  0  0  0  0  0  0  0  0  0  0  0
   44.4210   36.5010   43.1440 N   0  0  0  0  0  0  0  0  0  0  0  0
   43.1690   37.0220   43.3160 C   0  0  0  0  0  0  0  0  0  0  0  0
   42.3130   36.2760   42.5800 N   0  0  0  0  0  0  0  0  0  0  0  0
   38.6510   28.7550   42.4890 C   0  0  0  0  0  0  0  0  0  0  0  0
   38.1280   27.8090   41.5970 C   0  0  0  0  0  0  0  0  0  0  0  0
   37.0690   26.9740   41.8470 C   0  0  0  0  0  0  0  0  0  0  0  0
   36.4710   27.0780   43.0850 C   0  0  0  0  0  0  0  0  0  0  0  0
   36.9350   27.9850   44.0050 C   0  0  0  0  0  0  0  0  0  0  0  0
   38.0030   28.8010   43.7030 C   0  0  0  0  0  0  0  0  0  0  0  0
   38.8910   31.5710   40.9340 C   0  0  0  0  0  0  0  0  0  0  0  0
   37.6570   31.1650   41.3380 F   0  0  0  0  0  0  0  0  0  0  0  0
   38.8860   31.7290   39.5470 F   0  0  0  0  0  0  0  0  0  0  0  0
   39.0580   32.8680   41.4320 F   0  0  0  0  0  0  0  0  0  0  0  0
   41.2814   28.0553   42.7881 H   0  0  0  0  0  0  0  0  0  0  0  0
   41.6919   31.5180   38.5596 H   0  0  0  0  0  0  0  0  0  0  0  0
   42.5540   33.7262   37.7535 H   0  0  0  0  0  0  0  0  0  0  0  0
   45.1049   34.7989   41.9507 H   0  0  0  0  0  0  0  0  0  0  0  0
   42.9055   37.8894   43.9390 H   0  0  0  0  0  0  0  0  0  0  0  0
   38.6085   27.7292   40.6107 H   0  0  0  0  0  0  0  0  0  0  0  0
   36.7132   26.2547   41.0947 H   0  0  0  0  0  0  0  0  0  0  0  0
   35.6178   26.4309   43.3367 H   0  0  0  0  0  0  0  0  0  0  0  0
   36.4508   28.0607   44.9898 H   0  0  0  0  0  0  0  0  0  0  0  0
   38.3518   29.5174   44.4614 H   0  0  0  0  0  0  0  0  0  0  0  0
  1  5  1  0
  1  2  1  0
  2  3  2  0
  4  3  1  0
  4 17  1  0
  5  4  2  0
  6  1  1  0
  6 11  1  0
  7  6  2  0
  8  7  1  0
  8  9  2  0
  9 10  1  0
 10 11  2  0
 10 12  1  0
 12 13  1  0
 12 16  1  0
 13 14  2  0
 14 15  1  0
 16 15  2  0
 17 22  2  0
 18 19  2  0
 18 17  1  0
 19 20  1  0
 20 21  2  0
 22 21  1  0
 23 24  1  0
 23  5  1  0
 23 26  1  0
 25 23  1  0
  3 27  1  0
  7 28  1  0
  8 29  1  0
 13 30  1  0
 15 31  1  0
 18 32  1  0
 19 33  1  0
 20 34  1  0
 21 35  1  0
 22 36  1  0
M  ISO  8  27  14  28  14  29  14  30  14  31  14  32  14  33  14  34  14
M  ISO  2  35  14  36  14
M  END
>  <minimizedAffinity>  (1) 
-6.33218956

>  <minimizedRMSD>  (1) 
3.00784183

$$$$
