
     RDKit          3D

 39 42  0  0  0  0  0  0  0  0999 V2000
   40.2800   31.5210   39.9710 C   0  0  0  0  0  0  0  0  0  0  0  0
   40.8040   31.2150   38.7320 C   0  0  0  0  0  0  0  0  0  0  0  0
   41.1390   32.2600   37.8880 C   0  0  0  0  0  0  0  0  0  0  0  0
   40.9320   33.5250   38.3270 N   0  0  0  0  0  0  0  0  0  0  0  0
   40.4210   33.8110   39.5340 C   0  0  0  0  0  0  0  0  0  0  0  0
   40.0850   32.8060   40.3800 N   0  0  0  0  0  0  0  0  0  0  0  0
   40.2450   35.1810   39.8940 N   0  0  0  0  0  0  0  0  0  0  0  0
   41.3120   35.8450   40.3960 C   0  0  0  0  0  0  0  0  0  0  0  0
   40.9530   37.1260   40.6780 N   0  0  0  0  0  0  0  0  0  0  0  0
   39.6270   37.2280   40.3320 C   0  0  0  0  0  0  0  0  0  0  0  0
   39.2260   36.0260   39.8570 N   0  0  0  0  0  0  0  0  0  0  0  0
   39.8780   30.5770   40.9700 N   0  0  0  0  0  0  0  0  0  0  0  0
   40.5170   29.8620   41.8460 N   0  0  0  0  0  0  0  0  0  0  0  0
   39.6840   29.1110   42.5760 C   0  0  0  0  0  0  0  0  0  0  0  0
   38.3950   29.3630   42.1330 C   0  0  0  0  0  0  0  0  0  0  0  0
   38.5530   30.2850   41.1280 C   0  0  0  0  0  0  0  0  0  0  0  0
   37.1940   28.7240   42.6940 C   0  0  0  0  0  0  0  0  0  0  0  0
   36.9710   27.3310   42.1480 C   0  0  0  0  0  0  0  0  0  0  0  0
   36.3490   26.5320   43.2710 C   0  0  0  0  0  0  0  0  0  0  0  0
   36.1900   27.5210   44.4310 C   0  0  0  0  0  0  0  0  0  0  0  0
   37.4300   28.3880   44.1720 C   0  0  0  0  0  0  0  0  0  0  0  0
   37.3820   30.8350   40.3650 C   0  0  0  0  0  0  0  0  0  0  0  0
   36.2200   30.1570   40.5700 F   0  0  0  0  0  0  0  0  0  0  0  0
   37.6480   30.9110   39.0030 F   0  0  0  0  0  0  0  0  0  0  0  0
   37.1380   32.1440   40.7840 F   0  0  0  0  0  0  0  0  0  0  0  0
   40.9515   30.1696   38.4233 H   0  0  0  0  0  0  0  0  0  0  0  0
   41.5609   32.0689   36.8902 H   0  0  0  0  0  0  0  0  0  0  0  0
   42.3128   35.4158   40.5516 H   0  0  0  0  0  0  0  0  0  0  0  0
   39.0017   38.1282   40.4248 H   0  0  0  0  0  0  0  0  0  0  0  0
   39.9704   28.4190   43.3817 H   0  0  0  0  0  0  0  0  0  0  0  0
   36.3760   29.4257   42.4739 H   0  0  0  0  0  0  0  0  0  0  0  0
   36.2925   27.3647   41.2828 H   0  0  0  0  0  0  0  0  0  0  0  0
   37.9141   26.8779   41.8085 H   0  0  0  0  0  0  0  0  0  0  0  0
   35.3694   26.1359   42.9654 H   0  0  0  0  0  0  0  0  0  0  0  0
   36.9686   25.6673   43.5512 H   0  0  0  0  0  0  0  0  0  0  0  0
   35.2578   28.1000   44.3556 H   0  0  0  0  0  0  0  0  0  0  0  0
   36.1254   27.0716   45.4329 H   0  0  0  0  0  0  0  0  0  0  0  0
   38.3634   27.8256   44.3218 H   0  0  0  0  0  0  0  0  0  0  0  0
   37.5445   29.2555   44.8386 H   0  0  0  0  0  0  0  0  0  0  0  0
  1  6  1  0
  1 12  1  0
  2  1  2  0
  3  4  2  0
  3  2  1  0
  4  5  1  0
  5  7  1  0
  5  6  2  0
  7  8  1  0
  8  9  2  0
 10  9  1  0
 11  7  1  0
 11 10  2  0
 12 16  1  0
 12 13  1  0
 13 14  2  0
 15 14  1  0
 15 17  1  0
 16 15  2  0
 17 21  1  0
 18 17  1  0
 18 19  1  0
 19 20  1  0
 21 20  1  0
 22 23  1  0
 22 25  1  0
 22 16  1  0
 24 22  1  0
  2 26  1  0
  3 27  1  0
  8 28  1  0
 10 29  1  0
 14 30  1  0
 17 31  1  0
 18 32  1  0
 18 33  1  0
 19 34  1  0
 19 35  1  0
 20 36  1  0
 20 37  1  0
 21 38  1  0
 21 39  1  0
M  ISO  8  26  14  27  14  28  14  29  14  30  14  31  13  32  13  33  13
M  ISO  6  34  13  35  13  36  13  37  13  38  13  39  13
M  END
>  <minimizedAffinity>  (1) 
-6.1734314

>  <minimizedRMSD>  (1) 
0.995351732

$$$$
