
     RDKit          3D

 33 36  0  0  0  0  0  0  0  0999 V2000
   41.5330   33.2420   40.0380 C   0  0  0  0  0  0  0  0  0  0  0  0
   41.6920   33.2710   38.6660 C   0  0  0  0  0  0  0  0  0  0  0  0
   40.7440   32.6360   37.8800 C   0  0  0  0  0  0  0  0  0  0  0  0
   39.7220   32.0260   38.5010 N   0  0  0  0  0  0  0  0  0  0  0  0
   39.5730   32.0010   39.8400 C   0  0  0  0  0  0  0  0  0  0  0  0
   40.4910   32.6170   40.6120 N   0  0  0  0  0  0  0  0  0  0  0  0
   38.4490   31.3230   40.3940 N   0  0  0  0  0  0  0  0  0  0  0  0
   37.2730   31.9860   40.4710 C   0  0  0  0  0  0  0  0  0  0  0  0
   36.3340   31.1800   41.0200 N   0  0  0  0  0  0  0  0  0  0  0  0
   36.9580   29.9860   41.2870 C   0  0  0  0  0  0  0  0  0  0  0  0
   38.2420   30.1140   40.8910 N   0  0  0  0  0  0  0  0  0  0  0  0
   42.4120   33.8430   40.9960 N   0  0  0  0  0  0  0  0  0  0  0  0
   43.4450   33.4040   41.6740 N   0  0  0  0  0  0  0  0  0  0  0  0
   43.9570   34.3640   42.4690 C   0  0  0  0  0  0  0  0  0  0  0  0
   43.1830   35.5050   42.2750 C   0  0  0  0  0  0  0  0  0  0  0  0
   42.2330   35.1320   41.3490 C   0  0  0  0  0  0  0  0  0  0  0  0
   41.1950   36.0990   40.8710 C   0  0  0  0  0  0  0  0  0  0  0  0
   41.4430   37.3990   41.2420 F   0  0  0  0  0  0  0  0  0  0  0  0
   39.9190   35.7220   41.2170 F   0  0  0  0  0  0  0  0  0  0  0  0
   41.2220   36.1280   39.4590 F   0  0  0  0  0  0  0  0  0  0  0  0
   43.3980   36.8100   42.9580 C   0  0  0  0  0  0  0  0  0  0  0  0
   43.3960   36.8260   44.4830 C   0  0  0  0  0  0  0  0  0  0  0  0
   44.6920   36.9650   43.7160 C   0  0  0  0  0  0  0  0  0  0  0  0
   42.5501   33.7855   38.2088 H   0  0  0  0  0  0  0  0  0  0  0  0
   40.8261   32.6318   36.7831 H   0  0  0  0  0  0  0  0  0  0  0  0
   37.1051   33.0211   40.1387 H   0  0  0  0  0  0  0  0  0  0  0  0
   36.4984   29.0942   41.7381 H   0  0  0  0  0  0  0  0  0  0  0  0
   44.8211   34.2651   43.1424 H   0  0  0  0  0  0  0  0  0  0  0  0
   42.8672   37.3787   42.1803 H   0  0  0  0  0  0  0  0  0  0  0  0
   42.9807   37.6886   45.0248 H   0  0  0  0  0  0  0  0  0  0  0  0
   43.0230   36.1544   45.2702 H   0  0  0  0  0  0  0  0  0  0  0  0
   45.4244   36.1443   43.7239 H   0  0  0  0  0  0  0  0  0  0  0  0
   45.5110   37.6993   43.7070 H   0  0  0  0  0  0  0  0  0  0  0  0
  1  6  1  0
  1 12  1  0
  2  1  2  0
  3  4  2  0
  3  2  1  0
  4  5  1  0
  5  7  1  0
  5  6  2  0
  7  8  1  0
  7 11  1  0
  8  9  2  0
  9 10  1  0
 11 10  2  0
 12 16  1  0
 12 13  1  0
 13 14  2  0
 15 14  1  0
 15 21  1  0
 16 15  2  0
 17 19  1  0
 17 18  1  0
 17 16  1  0
 20 17  1  0
 21 23  1  0
 21 22  1  0
 23 22  1  0
  2 24  1  0
  3 25  1  0
  8 26  1  0
 10 27  1  0
 14 28  1  0
 21 29  1  0
 22 30  1  0
 22 31  1  0
 23 32  1  0
 23 33  1  0
M  ISO  8  24  14  25  14  26  14  27  14  28  14  29  13  30  13  31  13
M  ISO  2  32  13  33  13
M  END
>  <minimizedAffinity>  (1) 
-6.13113832

>  <minimizedRMSD>  (1) 
6.91978168

$$$$
