
     RDKit          3D

 31 34  0  0  0  0  0  0  0  0999 V2000
   39.9110   30.3890   41.1010 N   0  0  0  0  0  0  0  0  0  0  0  0
   40.6960   29.7050   41.8860 N   0  0  0  0  0  0  0  0  0  0  0  0
   39.9870   28.9680   42.7560 C   0  0  0  0  0  0  0  0  0  0  0  0
   38.6430   29.2040   42.5030 C   0  0  0  0  0  0  0  0  0  0  0  0
   38.6370   30.0970   41.4620 C   0  0  0  0  0  0  0  0  0  0  0  0
   40.1560   31.3030   40.0300 C   0  0  0  0  0  0  0  0  0  0  0  0
   40.4750   30.9520   38.7180 C   0  0  0  0  0  0  0  0  0  0  0  0
   40.6840   31.9470   37.7920 C   0  0  0  0  0  0  0  0  0  0  0  0
   40.5630   33.2300   38.2240 N   0  0  0  0  0  0  0  0  0  0  0  0
   40.2550   33.5620   39.4920 C   0  0  0  0  0  0  0  0  0  0  0  0
   40.0470   32.5880   40.4090 N   0  0  0  0  0  0  0  0  0  0  0  0
   40.1560   34.9390   39.8270 N   0  0  0  0  0  0  0  0  0  0  0  0
   41.2760   35.6080   40.1320 C   0  0  0  0  0  0  0  0  0  0  0  0
   40.9680   36.9070   40.4210 N   0  0  0  0  0  0  0  0  0  0  0  0
   39.6170   37.0160   40.2860 C   0  0  0  0  0  0  0  0  0  0  0  0
   39.1440   35.7980   39.9210 N   0  0  0  0  0  0  0  0  0  0  0  0
   37.6290   28.5310   43.3010 C   0  0  0  0  0  0  0  0  0  0  0  0
   36.9010   27.4930   42.8510 N   0  0  0  0  0  0  0  0  0  0  0  0
   36.0710   27.0770   43.7530 O   0  0  0  0  0  0  0  0  0  0  0  0
   36.1810   27.7870   44.8370 C   0  0  0  0  0  0  0  0  0  0  0  0
   37.1350   28.6610   44.5330 N   0  0  0  0  0  0  0  0  0  0  0  0
   37.3670   30.6110   40.8860 C   0  0  0  0  0  0  0  0  0  0  0  0
   36.2410   30.2020   41.5190 F   0  0  0  0  0  0  0  0  0  0  0  0
   37.2700   30.3670   39.5220 F   0  0  0  0  0  0  0  0  0  0  0  0
   37.3430   32.0220   41.0020 F   0  0  0  0  0  0  0  0  0  0  0  0
   40.3964   28.2996   43.5278 H   0  0  0  0  0  0  0  0  0  0  0  0
   40.5582   29.8941   38.4283 H   0  0  0  0  0  0  0  0  0  0  0  0
   40.9380   31.7147   36.7473 H   0  0  0  0  0  0  0  0  0  0  0  0
   42.2881   35.1774   40.1473 H   0  0  0  0  0  0  0  0  0  0  0  0
   39.0188   37.9255   40.4441 H   0  0  0  0  0  0  0  0  0  0  0  0
   35.6201   27.6881   45.7780 H   0  0  0  0  0  0  0  0  0  0  0  0
  1  5  1  0
  1  2  1  0
  2  3  2  0
  4  3  1  0
  4 17  1  0
  5  4  2  0
  6 11  1  0
  6  1  1  0
  7  6  2  0
  8  9  2  0
  8  7  1  0
  9 10  1  0
 10 12  1  0
 10 11  2  0
 12 16  1  0
 12 13  1  0
 13 14  2  0
 15 14  1  0
 16 15  2  0
 17 21  1  0
 18 17  2  0
 18 19  1  0
 19 20  1  0
 21 20  2  0
 22 25  1  0
 22  5  1  0
 22 23  1  0
 24 22  1  0
  3 26  1  0
  7 27  1  0
  8 28  1  0
 13 29  1  0
 15 30  1  0
 20 31  1  0
M  ISO  6  26  14  27  14  28  14  29  14  30  14  31  14
M  END
>  <minimizedAffinity>  (1) 
-5.85883141

>  <minimizedRMSD>  (1) 
1.27224624

$$$$
