
     RDKit          3D

 42 46  0  0  0  0  0  0  0  0999 V2000
   38.2910   30.5320   38.9570 N   0  0  0  0  0  0  0  0  0  0  0  0
   37.7970   30.5610   40.1710 N   0  0  0  0  0  0  0  0  0  0  0  0
   38.1980   31.6510   40.8400 C   0  0  0  0  0  0  0  0  0  0  0  0
   39.0160   32.3870   39.9930 C   0  0  0  0  0  0  0  0  0  0  0  0
   39.0500   31.6480   38.8150 C   0  0  0  0  0  0  0  0  0  0  0  0
   38.1780   29.6180   37.8660 C   0  0  0  0  0  0  0  0  0  0  0  0
   37.2100   29.6530   36.8800 C   0  0  0  0  0  0  0  0  0  0  0  0
   37.2350   28.6940   35.8880 C   0  0  0  0  0  0  0  0  0  0  0  0
   38.2140   27.7690   35.9380 N   0  0  0  0  0  0  0  0  0  0  0  0
   39.1620   27.7410   36.9090 C   0  0  0  0  0  0  0  0  0  0  0  0
   39.1530   28.6790   37.8970 N   0  0  0  0  0  0  0  0  0  0  0  0
   40.1480   26.7190   36.8650 N   0  0  0  0  0  0  0  0  0  0  0  0
   39.8460   25.5180   37.3900 C   0  0  0  0  0  0  0  0  0  0  0  0
   40.9250   24.6830   37.2450 N   0  0  0  0  0  0  0  0  0  0  0  0
   41.8900   25.4190   36.6160 C   0  0  0  0  0  0  0  0  0  0  0  0
   41.3950   26.6540   36.3960 N   0  0  0  0  0  0  0  0  0  0  0  0
   39.7050   33.6620   40.2540 C   0  0  0  0  0  0  0  0  0  0  0  0
   38.9950   34.8400   40.0420 C   0  0  0  0  0  0  0  0  0  0  0  0
   39.6270   36.0460   40.2820 C   0  0  0  0  0  0  0  0  0  0  0  0
   40.9250   36.1540   40.7220 C   0  0  0  0  0  0  0  0  0  0  0  0
   41.5840   34.9500   40.9170 C   0  0  0  0  0  0  0  0  0  0  0  0
   42.9040   34.9830   41.3620 C   0  0  0  0  0  0  0  0  0  0  0  0
   43.6330   33.8100   41.5800 C   0  0  0  0  0  0  0  0  0  0  0  0
   42.9820   32.6000   41.3340 C   0  0  0  0  0  0  0  0  0  0  0  0
   41.6610   32.5280   40.8870 C   0  0  0  0  0  0  0  0  0  0  0  0
   41.0270   33.7140   40.7010 C   0  0  0  0  0  0  0  0  0  0  0  0
   39.8400   32.1090   37.6300 C   0  0  0  0  0  0  0  0  0  0  0  0
   40.5680   33.2410   37.8590 F   0  0  0  0  0  0  0  0  0  0  0  0
   39.0430   32.2710   36.5150 F   0  0  0  0  0  0  0  0  0  0  0  0
   40.7670   31.1210   37.2910 F   0  0  0  0  0  0  0  0  0  0  0  0
   37.9279   31.9148   41.8732 H   0  0  0  0  0  0  0  0  0  0  0  0
   36.4332   30.4318   36.8859 H   0  0  0  0  0  0  0  0  0  0  0  0
   36.4829   28.6848   35.0853 H   0  0  0  0  0  0  0  0  0  0  0  0
   38.8885   25.2487   37.8598 H   0  0  0  0  0  0  0  0  0  0  0  0
   42.8940   25.0659   36.3381 H   0  0  0  0  0  0  0  0  0  0  0  0
   37.9529   34.8122   39.6909 H   0  0  0  0  0  0  0  0  0  0  0  0
   39.0587   36.9722   40.1111 H   0  0  0  0  0  0  0  0  0  0  0  0
   41.4061   37.1259   40.9061 H   0  0  0  0  0  0  0  0  0  0  0  0
   43.3841   35.9554   41.5462 H   0  0  0  0  0  0  0  0  0  0  0  0
   44.6753   33.8394   41.9305 H   0  0  0  0  0  0  0  0  0  0  0  0
   43.5334   31.6627   41.4994 H   0  0  0  0  0  0  0  0  0  0  0  0
   41.1629   31.5659   40.6966 H   0  0  0  0  0  0  0  0  0  0  0  0
  1  2  1  0
  2  3  2  0
  4 17  1  0
  4  3  1  0
  5  1  1  0
  5  4  2  0
  6 11  1  0
  6  1  1  0
  7  6  2  0
  8  9  2  0
  8  7  1  0
  9 10  1  0
 10 11  2  0
 12 10  1  0
 12 13  1  0
 14 13  2  0
 15 14  1  0
 16 15  2  0
 16 12  1  0
 17 26  1  0
 18 17  2  0
 18 19  1  0
 19 20  2  0
 20 21  1  0
 21 22  2  0
 22 23  1  0
 24 23  2  0
 25 24  1  0
 26 25  2  0
 26 21  1  0
 27 28  1  0
 27  5  1  0
 29 27  1  0
 30 27  1  0
  3 31  1  0
  7 32  1  0
  8 33  1  0
 13 34  1  0
 15 35  1  0
 18 36  1  0
 19 37  1  0
 20 38  1  0
 22 39  1  0
 23 40  1  0
 24 41  1  0
 25 42  1  0
M  ISO  8  31  14  32  14  33  14  34  14  35  14  36  14  37  14  38  14
M  ISO  4  39  14  40  14  41  14  42  14
M  END
>  <minimizedAffinity>  (1) 
-5.72193193

>  <minimizedRMSD>  (1) 
7.91458511

$$$$
