
     RDKit          3D

 34 36  0  0  1  0  0  0  0  0999 V2000
   36.2940   27.3410   39.2690 C   0  0  0  0  0  0  0  0  0  0  0  0
   35.6300   26.9180   38.1270 C   0  0  0  0  0  0  0  0  0  0  0  0
   35.8250   25.5580   38.1320 C   0  0  0  0  0  0  0  0  0  0  0  0
   36.5610   25.1830   39.2150 N   0  0  0  0  0  0  0  0  0  0  0  0
   36.8470   26.2810   39.9080 N   0  0  0  0  0  0  0  0  0  0  0  0
   36.2150   29.1520   41.0190 C   0  0  0  0  0  0  0  0  0  0  0  0
   36.3660   28.7240   39.7010 C   0  0  0  0  0  0  0  0  0  0  0  0
   36.6070   29.7020   38.7410 C   0  0  0  0  0  0  0  0  0  0  0  0
   36.6870   31.0210   39.1090 N   0  0  0  0  0  0  0  0  0  0  0  0
   36.5260   31.3570   40.4450 C   0  0  0  0  0  0  0  0  0  0  0  0
   36.2890   30.4190   41.3950 N   0  0  0  0  0  0  0  0  0  0  0  0
   36.8680   23.7850   39.4580 C   0  0  1  0  0  0  0  0  0  0  0  0
   37.2420   23.5790   40.8210 N   0  0  0  0  0  0  0  0  0  0  0  0
   38.5140   23.8670   41.3580 C   0  0  0  0  0  0  0  0  0  0  0  0
   39.4350   24.1980   40.5290 N   0  0  0  0  0  0  0  0  0  0  0  0
   38.7590   23.7700   42.7380 N   0  0  0  0  0  0  0  0  0  0  0  0
   40.3970   24.4080   40.8670 H   0  0  0  0  0  0  0  0  0  0  0  0
   35.6130   23.0250   39.1670 N   0  0  0  0  0  0  0  0  0  0  0  0
   34.4490   23.0150   39.8410 C   0  0  0  0  0  0  0  0  0  0  0  0
   33.5850   22.1600   39.1910 C   0  0  0  0  0  0  0  0  0  0  0  0
   34.2310   21.6560   38.1210 N   0  0  0  0  0  0  0  0  0  0  0  0
   35.4690   22.1820   38.1040 C   0  0  0  0  0  0  0  0  0  0  0  0
   35.0795   27.5255   37.3935 H   0  0  0  0  0  0  0  0  0  0  0  0
   35.4400   24.8675   37.3672 H   0  0  0  0  0  0  0  0  0  0  0  0
   36.0232   28.3927   41.7915 H   0  0  0  0  0  0  0  0  0  0  0  0
   36.7335   29.4172   37.6861 H   0  0  0  0  0  0  0  0  0  0  0  0
   36.5924   32.4140   40.7422 H   0  0  0  0  0  0  0  0  0  0  0  0
   37.7069   23.4546   38.8279 H   0  0  0  0  0  0  0  0  0  0  0  0
   36.5311   23.1920   41.4580 H   0  0  0  0  0  0  0  0  0  0  0  0
   39.6947   23.9845   43.1113 H   0  0  0  0  0  0  0  0  0  0  0  0
   38.0029   23.4844   43.3765 H   0  0  0  0  0  0  0  0  0  0  0  0
   34.2255   23.5892   40.7523 H   0  0  0  0  0  0  0  0  0  0  0  0
   32.5523   21.9300   39.4920 H   0  0  0  0  0  0  0  0  0  0  0  0
   36.2426   21.9666   37.3522 H   0  0  0  0  0  0  0  0  0  0  0  0
  1  7  1  0
  1  5  2  0
  2  3  2  0
  2  1  1  0
  3  4  1  0
  4 12  1  0
  4  5  1  0
  6 11  2  0
  7  6  1  0
  8  9  1  0
  8  7  2  0
  9 10  2  0
 10 11  1  0
 12 13  1  0
 13 14  1  0
 14 16  1  0
 15 17  1  0
 15 14  2  0
 18 12  1  0
 18 19  1  0
 20 19  2  0
 21 20  1  0
 22 21  2  0
 22 18  1  0
  2 23  1  0
  3 24  1  0
  6 25  1  0
  8 26  1  0
 10 27  1  0
 12 28  1  6
 13 29  1  0
 16 30  1  0
 16 31  1  0
 19 32  1  0
 20 33  1  0
 22 34  1  0
M  ISO  8  23  14  24  14  25  14  26  14  27  14  28   8  32  14  33  14
M  ISO  1  34  14
M  END
>  <minimizedAffinity>  (1) 
-3.94834352

>  <minimizedRMSD>  (1) 
0.87759167

$$$$
