
     RDKit          3D

 33 36  0  0  0  0  0  0  0  0999 V2000
   40.7020   31.3450   39.7590 C   0  0  0  0  0  0  0  0  0  0  0  0
   41.1360   31.1310   38.4640 C   0  0  0  0  0  0  0  0  0  0  0  0
   41.2900   32.1980   37.6160 C   0  0  0  0  0  0  0  0  0  0  0  0
   41.0010   33.4310   38.1150 N   0  0  0  0  0  0  0  0  0  0  0  0
   40.5820   33.6420   39.3700 C   0  0  0  0  0  0  0  0  0  0  0  0
   40.4290   32.5900   40.2060 N   0  0  0  0  0  0  0  0  0  0  0  0
   40.3110   34.9780   39.7860 N   0  0  0  0  0  0  0  0  0  0  0  0
   41.3350   35.7390   40.2050 C   0  0  0  0  0  0  0  0  0  0  0  0
   40.8680   36.9750   40.5550 N   0  0  0  0  0  0  0  0  0  0  0  0
   39.5270   36.9460   40.3390 C   0  0  0  0  0  0  0  0  0  0  0  0
   39.2120   35.7210   39.8710 N   0  0  0  0  0  0  0  0  0  0  0  0
   40.4890   30.3450   40.7570 N   0  0  0  0  0  0  0  0  0  0  0  0
   41.2800   29.6720   41.5310 N   0  0  0  0  0  0  0  0  0  0  0  0
   40.6210   28.8300   42.3200 C   0  0  0  0  0  0  0  0  0  0  0  0
   39.2650   28.9780   42.0210 C   0  0  0  0  0  0  0  0  0  0  0  0
   39.2230   29.9320   41.0410 C   0  0  0  0  0  0  0  0  0  0  0  0
   38.1540   28.2160   42.6640 C   0  0  0  0  0  0  0  0  0  0  0  0
   37.6920   28.6830   43.8220 C   0  0  0  0  0  0  0  0  0  0  0  0
   36.7260   28.1960   44.5870 C   0  0  0  0  0  0  0  0  0  0  0  0
   36.1500   26.9600   43.9740 C   0  0  0  0  0  0  0  0  0  0  0  0
   37.1560   26.8210   42.4450 S   0  0  0  0  0  0  0  0  0  0  0  0
   37.9430   30.3870   40.4320 C   0  0  0  0  0  0  0  0  0  0  0  0
   36.8930   29.5620   40.6470 F   0  0  0  0  0  0  0  0  0  0  0  0
   38.0730   30.6400   39.0700 F   0  0  0  0  0  0  0  0  0  0  0  0
   37.5680   31.6160   41.0080 F   0  0  0  0  0  0  0  0  0  0  0  0
   41.3565   30.1111   38.1158 H   0  0  0  0  0  0  0  0  0  0  0  0
   41.6317   32.0633   36.5791 H   0  0  0  0  0  0  0  0  0  0  0  0
   42.3857   35.4178   40.2582 H   0  0  0  0  0  0  0  0  0  0  0  0
   38.8239   37.7736   40.5144 H   0  0  0  0  0  0  0  0  0  0  0  0
   41.0587   28.1486   43.0643 H   0  0  0  0  0  0  0  0  0  0  0  0
   38.1781   29.5969   44.1941 H   0  0  0  0  0  0  0  0  0  0  0  0
   36.3948   28.6383   45.5381 H   0  0  0  0  0  0  0  0  0  0  0  0
   35.3419   26.3098   44.3402 H   0  0  0  0  0  0  0  0  0  0  0  0
  1  6  1  0
  1 12  1  0
  2  1  2  0
  3  4  2  0
  3  2  1  0
  4  5  1  0
  5  7  1  0
  5  6  2  0
  7 11  1  0
  7  8  1  0
  8  9  2  0
 10  9  1  0
 11 10  2  0
 12 16  1  0
 12 13  1  0
 13 14  2  0
 15 14  1  0
 15 17  1  0
 16 15  2  0
 17 18  2  0
 18 19  1  0
 20 19  2  0
 21 17  1  0
 21 20  1  0
 22 23  1  0
 22 25  1  0
 22 16  1  0
 24 22  1  0
  2 26  1  0
  3 27  1  0
  8 28  1  0
 10 29  1  0
 14 30  1  0
 18 31  1  0
 19 32  1  0
 20 33  1  0
M  ISO  8  26  14  27  14  28  14  29  14  30  14  31  14  32  14  33  14
M  END
>  <minimizedAffinity>  (1) 
-5.55984402

>  <minimizedRMSD>  (1) 
1.67028046

$$$$
