
     RDKit          3D

 33 36  0  0  0  0  0  0  0  0999 V2000
   40.4300   30.4420   40.9090 N   0  0  0  0  0  0  0  0  0  0  0  0
   41.1440   29.9290   41.8770 N   0  0  0  0  0  0  0  0  0  0  0  0
   40.4500   29.0150   42.5790 C   0  0  0  0  0  0  0  0  0  0  0  0
   39.2040   28.9480   42.0100 C   0  0  0  0  0  0  0  0  0  0  0  0
   39.2110   29.8560   40.9590 C   0  0  0  0  0  0  0  0  0  0  0  0
   40.6900   31.4240   39.9030 C   0  0  0  0  0  0  0  0  0  0  0  0
   41.1860   31.1570   38.6270 C   0  0  0  0  0  0  0  0  0  0  0  0
   41.3820   32.2290   37.7680 C   0  0  0  0  0  0  0  0  0  0  0  0
   41.0840   33.4570   38.2200 N   0  0  0  0  0  0  0  0  0  0  0  0
   40.6070   33.7050   39.4500 C   0  0  0  0  0  0  0  0  0  0  0  0
   40.4050   32.6720   40.3130 N   0  0  0  0  0  0  0  0  0  0  0  0
   40.3230   35.0480   39.8270 N   0  0  0  0  0  0  0  0  0  0  0  0
   41.3380   35.8100   40.2760 C   0  0  0  0  0  0  0  0  0  0  0  0
   40.8660   37.0560   40.5850 N   0  0  0  0  0  0  0  0  0  0  0  0
   39.5390   37.0320   40.3120 C   0  0  0  0  0  0  0  0  0  0  0  0
   39.2320   35.8030   39.8520 N   0  0  0  0  0  0  0  0  0  0  0  0
   38.1840   28.0880   42.4800 N   0  0  0  0  0  0  0  0  0  0  0  0
   37.8500   26.8780   42.0600 N   0  0  0  0  0  0  0  0  0  0  0  0
   36.8160   26.4280   42.7970 C   0  0  0  0  0  0  0  0  0  0  0  0
   36.4820   27.4060   43.7280 C   0  0  0  0  0  0  0  0  0  0  0  0
   37.3690   28.4630   43.5100 C   0  0  0  0  0  0  0  0  0  0  0  0
   38.0210   30.0650   40.0970 C   0  0  0  0  0  0  0  0  0  0  0  0
   36.9260   29.3570   40.4670 F   0  0  0  0  0  0  0  0  0  0  0  0
   38.2980   29.8710   38.7570 F   0  0  0  0  0  0  0  0  0  0  0  0
   37.6290   31.4200   40.2000 F   0  0  0  0  0  0  0  0  0  0  0  0
   40.8113   28.4348   43.4409 H   0  0  0  0  0  0  0  0  0  0  0  0
   41.4147   30.1284   38.3114 H   0  0  0  0  0  0  0  0  0  0  0  0
   41.7691   32.0772   36.7496 H   0  0  0  0  0  0  0  0  0  0  0  0
   42.3830   35.4820   40.3783 H   0  0  0  0  0  0  0  0  0  0  0  0
   38.8363   37.8681   40.4428 H   0  0  0  0  0  0  0  0  0  0  0  0
   36.3201   25.4529   42.6821 H   0  0  0  0  0  0  0  0  0  0  0  0
   35.6826   27.3571   44.4820 H   0  0  0  0  0  0  0  0  0  0  0  0
   37.4043   29.4141   44.0616 H   0  0  0  0  0  0  0  0  0  0  0  0
  1  5  1  0
  1  2  1  0
  2  3  2  0
  4 17  1  0
  4  3  1  0
  5  4  2  0
  6 11  1  0
  6  1  1  0
  7  6  2  0
  8  9  2  0
  8  7  1  0
  9 10  1  0
 10 12  1  0
 10 11  2  0
 12 16  1  0
 12 13  1  0
 13 14  2  0
 15 14  1  0
 16 15  2  0
 17 21  1  0
 18 17  1  0
 18 19  2  0
 19 20  1  0
 21 20  2  0
 22 25  1  0
 22 23  1  0
 22  5  1  0
 24 22  1  0
  3 26  1  0
  7 27  1  0
  8 28  1  0
 13 29  1  0
 15 30  1  0
 19 31  1  0
 20 32  1  0
 21 33  1  0
M  ISO  8  26  14  27  14  28  14  29  14  30  14  31  14  32  14  33  14
M  END
>  <minimizedAffinity>  (1) 
-5.53245735

>  <minimizedRMSD>  (1) 
1.6626544

$$$$
