
     RDKit          3D

 40 44  0  0  0  0  0  0  0  0999 V2000
   38.4580   30.6150   39.9560 N   0  0  0  0  0  0  0  0  0  0  0  0
   37.9590   30.2190   41.0970 N   0  0  0  0  0  0  0  0  0  0  0  0
   36.7950   29.5630   40.9200 C   0  0  0  0  0  0  0  0  0  0  0  0
   36.5470   29.5480   39.5720 C   0  0  0  0  0  0  0  0  0  0  0  0
   37.6030   30.2130   38.9900 C   0  0  0  0  0  0  0  0  0  0  0  0
   39.6430   31.3350   39.5910 C   0  0  0  0  0  0  0  0  0  0  0  0
   40.7390   30.8160   38.9150 C   0  0  0  0  0  0  0  0  0  0  0  0
   41.8040   31.6570   38.6420 C   0  0  0  0  0  0  0  0  0  0  0  0
   41.7220   32.9400   39.0450 N   0  0  0  0  0  0  0  0  0  0  0  0
   40.6460   33.4440   39.7050 C   0  0  0  0  0  0  0  0  0  0  0  0
   39.5960   32.6320   39.9790 N   0  0  0  0  0  0  0  0  0  0  0  0
   40.6600   34.8150   40.0860 N   0  0  0  0  0  0  0  0  0  0  0  0
   41.2810   35.1530   41.2340 C   0  0  0  0  0  0  0  0  0  0  0  0
   41.1820   36.5000   41.4190 N   0  0  0  0  0  0  0  0  0  0  0  0
   40.4850   36.9800   40.3530 C   0  0  0  0  0  0  0  0  0  0  0  0
   40.1710   35.9330   39.5450 N   0  0  0  0  0  0  0  0  0  0  0  0
   35.3910   28.9450   38.8750 C   0  0  0  0  0  0  0  0  0  0  0  0
   34.0830   29.3400   38.5980 C   0  0  0  0  0  0  0  0  0  0  0  0
   33.4950   28.3430   37.9160 N   0  0  0  0  0  0  0  0  0  0  0  0
   34.3780   27.3360   37.7500 C   0  0  0  0  0  0  0  0  0  0  0  0
   34.1830   26.1360   37.1110 C   0  0  0  0  0  0  0  0  0  0  0  0
   35.2110   25.2010   37.0330 C   0  0  0  0  0  0  0  0  0  0  0  0
   36.4210   25.5310   37.6200 C   0  0  0  0  0  0  0  0  0  0  0  0
   36.5800   26.7400   38.2500 C   0  0  0  0  0  0  0  0  0  0  0  0
   35.5810   27.6760   38.3400 C   0  0  0  0  0  0  0  0  0  0  0  0
   37.6920   30.4050   37.5040 C   0  0  0  0  0  0  0  0  0  0  0  0
   36.4850   30.3720   36.8790 F   0  0  0  0  0  0  0  0  0  0  0  0
   38.5800   29.5310   36.9170 F   0  0  0  0  0  0  0  0  0  0  0  0
   38.1970   31.6890   37.2500 F   0  0  0  0  0  0  0  0  0  0  0  0
   36.1645   29.1236   41.7070 H   0  0  0  0  0  0  0  0  0  0  0  0
   40.7605   29.7612   38.6037 H   0  0  0  0  0  0  0  0  0  0  0  0
   42.6934   31.2878   38.1103 H   0  0  0  0  0  0  0  0  0  0  0  0
   41.7876   34.4524   41.9141 H   0  0  0  0  0  0  0  0  0  0  0  0
   40.2214   38.0332   40.1760 H   0  0  0  0  0  0  0  0  0  0  0  0
   33.6173   30.2942   38.8855 H   0  0  0  0  0  0  0  0  0  0  0  0
   32.5235   28.3466   37.5738 H   0  0  0  0  0  0  0  0  0  0  0  0
   33.2063   25.9120   36.6571 H   0  0  0  0  0  0  0  0  0  0  0  0
   35.0677   24.2363   36.5243 H   0  0  0  0  0  0  0  0  0  0  0  0
   37.2595   24.8201   37.5812 H   0  0  0  0  0  0  0  0  0  0  0  0
   37.5551   26.9694   38.7045 H   0  0  0  0  0  0  0  0  0  0  0  0
  1  2  1  0
  3  2  2  0
  4  3  1  0
  5  4  2  0
  5  1  1  0
  6  1  1  0
  6 11  1  0
  7  6  2  0
  8  7  1  0
  8  9  2  0
  9 10  1  0
 10 11  2  0
 10 12  1  0
 12 13  1  0
 13 14  2  0
 15 14  1  0
 16 12  1  0
 16 15  2  0
 17  4  1  0
 18 17  2  0
 19 18  1  0
 20 19  1  0
 20 25  2  0
 21 20  1  0
 22 21  2  0
 22 23  1  0
 23 24  2  0
 24 25  1  0
 25 17  1  0
 26  5  1  0
 27 26  1  0
 28 26  1  0
 29 26  1  0
  3 30  1  0
  7 31  1  0
  8 32  1  0
 13 33  1  0
 15 34  1  0
 18 35  1  0
 19 36  1  0
 21 37  1  0
 22 38  1  0
 23 39  1  0
 24 40  1  0
M  ISO  8  30  14  31  14  32  14  33  14  34  14  35  14  36   9  37  14
M  ISO  3  38  14  39  14  40  14
M  END
>  <minimizedAffinity>  (1) 
-5.51636934

>  <minimizedRMSD>  (1) 
2.94348693

$$$$
