
     RDKit          3D

 32 35  0  0  0  0  0  0  0  0999 V2000
   40.6230   31.2520   39.7470 C   0  0  0  0  0  0  0  0  0  0  0  0
   41.0320   31.0210   38.4450 C   0  0  0  0  0  0  0  0  0  0  0  0
   41.1870   32.1090   37.6040 C   0  0  0  0  0  0  0  0  0  0  0  0
   40.9290   33.3350   38.1030 N   0  0  0  0  0  0  0  0  0  0  0  0
   40.5300   33.5580   39.3740 C   0  0  0  0  0  0  0  0  0  0  0  0
   40.3700   32.5020   40.2190 N   0  0  0  0  0  0  0  0  0  0  0  0
   40.2860   34.8880   39.7910 N   0  0  0  0  0  0  0  0  0  0  0  0
   41.3220   35.6400   40.2030 C   0  0  0  0  0  0  0  0  0  0  0  0
   40.8920   36.8760   40.5610 N   0  0  0  0  0  0  0  0  0  0  0  0
   39.5360   36.8690   40.3530 C   0  0  0  0  0  0  0  0  0  0  0  0
   39.1900   35.6510   39.8850 N   0  0  0  0  0  0  0  0  0  0  0  0
   40.4110   30.2500   40.7520 N   0  0  0  0  0  0  0  0  0  0  0  0
   41.1970   29.5860   41.5360 N   0  0  0  0  0  0  0  0  0  0  0  0
   40.5110   28.7360   42.3270 C   0  0  0  0  0  0  0  0  0  0  0  0
   39.1840   28.8820   42.0090 C   0  0  0  0  0  0  0  0  0  0  0  0
   39.1380   29.8410   41.0150 C   0  0  0  0  0  0  0  0  0  0  0  0
   38.1220   28.1570   42.6230 N   0  0  0  0  0  0  0  0  0  0  0  0
   37.5450   28.6200   43.7600 C   0  0  0  0  0  0  0  0  0  0  0  0
   36.5550   27.7930   44.1900 N   0  0  0  0  0  0  0  0  0  0  0  0
   36.5400   26.7880   43.2680 C   0  0  0  0  0  0  0  0  0  0  0  0
   37.4990   27.0300   42.3260 N   0  0  0  0  0  0  0  0  0  0  0  0
   37.8630   30.2820   40.4010 C   0  0  0  0  0  0  0  0  0  0  0  0
   36.8100   29.4420   40.6380 F   0  0  0  0  0  0  0  0  0  0  0  0
   37.9880   30.5070   39.0430 F   0  0  0  0  0  0  0  0  0  0  0  0
   37.4820   31.5040   40.9570 F   0  0  0  0  0  0  0  0  0  0  0  0
   41.2287   29.9993   38.0881 H   0  0  0  0  0  0  0  0  0  0  0  0
   41.5106   31.9779   36.5609 H   0  0  0  0  0  0  0  0  0  0  0  0
   42.3679   35.3016   40.2439 H   0  0  0  0  0  0  0  0  0  0  0  0
   38.8502   37.7094   40.5357 H   0  0  0  0  0  0  0  0  0  0  0  0
   40.9337   28.0565   43.0817 H   0  0  0  0  0  0  0  0  0  0  0  0
   37.8410   29.5484   44.2704 H   0  0  0  0  0  0  0  0  0  0  0  0
   35.8634   25.9208   43.2810 H   0  0  0  0  0  0  0  0  0  0  0  0
  1  6  1  0
  1 12  1  0
  2  1  2  0
  3  4  2  0
  3  2  1  0
  4  5  1  0
  5  7  1  0
  5  6  2  0
  7 11  1  0
  7  8  1  0
  8  9  2  0
 10  9  1  0
 11 10  2  0
 12 16  1  0
 12 13  1  0
 13 14  2  0
 15 14  1  0
 15 17  1  0
 16 15  2  0
 17 18  1  0
 18 19  2  0
 20 19  1  0
 21 17  1  0
 21 20  2  0
 22 23  1  0
 22 25  1  0
 22 16  1  0
 24 22  1  0
  2 26  1  0
  3 27  1  0
  8 28  1  0
 10 29  1  0
 14 30  1  0
 18 31  1  0
 20 32  1  0
M  ISO  7  26  14  27  14  28  14  29  14  30  14  31  14  32  14
M  END
>  <minimizedAffinity>  (1) 
-5.40471697

>  <minimizedRMSD>  (1) 
1.62582469

$$$$
