
     RDKit          3D

 29 31  0  0  0  0  0  0  0  0999 V2000
   39.6570   31.2780   40.3140 C   0  0  0  0  0  0  0  0  0  0  0  0
   40.2250   30.8630   39.1240 C   0  0  0  0  0  0  0  0  0  0  0  0
   40.7120   31.8100   38.2490 C   0  0  0  0  0  0  0  0  0  0  0  0
   40.6070   33.1080   38.6070 N   0  0  0  0  0  0  0  0  0  0  0  0
   40.0520   33.5130   39.7700 C   0  0  0  0  0  0  0  0  0  0  0  0
   39.5640   32.5930   40.6490 N   0  0  0  0  0  0  0  0  0  0  0  0
   39.9940   34.9050   40.0430 N   0  0  0  0  0  0  0  0  0  0  0  0
   41.0860   35.4970   40.5720 C   0  0  0  0  0  0  0  0  0  0  0  0
   40.8300   36.8230   40.7590 N   0  0  0  0  0  0  0  0  0  0  0  0
   39.5490   37.0310   40.3290 C   0  0  0  0  0  0  0  0  0  0  0  0
   39.0670   35.8430   39.9000 N   0  0  0  0  0  0  0  0  0  0  0  0
   39.1060   30.4310   41.3300 N   0  0  0  0  0  0  0  0  0  0  0  0
   39.5040   30.0750   42.5280 N   0  0  0  0  0  0  0  0  0  0  0  0
   38.6330   29.2470   43.1100 C   0  0  0  0  0  0  0  0  0  0  0  0
   37.6020   29.0590   42.2210 C   0  0  0  0  0  0  0  0  0  0  0  0
   37.9200   29.8090   41.1130 C   0  0  0  0  0  0  0  0  0  0  0  0
   37.0330   29.8680   39.9050 C   0  0  0  0  0  0  0  0  0  0  0  0
   35.7360   29.5310   40.1660 F   0  0  0  0  0  0  0  0  0  0  0  0
   37.5370   29.1160   38.8700 F   0  0  0  0  0  0  0  0  0  0  0  0
   36.9900   31.1870   39.4380 F   0  0  0  0  0  0  0  0  0  0  0  0
   36.3900   28.2190   42.4080 C   0  0  0  0  0  0  0  0  0  0  0  0
   40.2874   29.7925   38.8790 H   0  0  0  0  0  0  0  0  0  0  0  0
   41.1703   31.5187   37.2924 H   0  0  0  0  0  0  0  0  0  0  0  0
   42.0318   34.9901   40.8137 H   0  0  0  0  0  0  0  0  0  0  0  0
   39.0093   37.9895   40.3316 H   0  0  0  0  0  0  0  0  0  0  0  0
   38.7235   28.8002   44.1111 H   0  0  0  0  0  0  0  0  0  0  0  0
   36.1983   28.0861   43.4830 H   0  0  0  0  0  0  0  0  0  0  0  0
   35.5258   28.7128   41.9397 H   0  0  0  0  0  0  0  0  0  0  0  0
   36.5490   27.2364   41.9397 H   0  0  0  0  0  0  0  0  0  0  0  0
  1  6  1  0
  1 12  1  0
  2  1  2  0
  3  4  2  0
  3  2  1  0
  4  5  1  0
  5  7  1  0
  5  6  2  0
  7  8  1  0
  8  9  2  0
 10  9  1  0
 11  7  1  0
 11 10  2  0
 12 13  1  0
 13 14  2  0
 15 21  1  0
 15 14  1  0
 16 12  1  0
 16 15  2  0
 17 18  1  0
 17 16  1  0
 19 17  1  0
 20 17  1  0
  2 22  1  0
  3 23  1  0
  8 24  1  0
 10 25  1  0
 14 26  1  0
 21 27  1  0
 21 28  1  0
 21 29  1  0
M  ISO  8  22  14  23  14  24  14  25  14  26  14  27   8  28   8  29   8
M  END
>  <minimizedAffinity>  (1) 
-5.27701235

>  <minimizedRMSD>  (1) 
0.589106739

$$$$
