
     RDKit          3D

 29 31  0  0  0  0  0  0  0  0999 V2000
   36.1070   30.4550   41.0260 C   0  0  0  0  0  0  0  0  0  0  0  0
   36.5880   30.5370   39.6320 C   0  0  0  0  0  0  0  0  0  0  0  0
   37.7090   31.2810   39.3200 C   0  0  0  0  0  0  0  0  0  0  0  0
   38.1410   31.3400   37.9970 C   0  0  0  0  0  0  0  0  0  0  0  0
   37.4280   30.6470   37.0230 C   0  0  0  0  0  0  0  0  0  0  0  0
   36.2990   29.8990   37.3430 C   0  0  0  0  0  0  0  0  0  0  0  0
   35.5700   29.1990   36.3980 C   0  0  0  0  0  0  0  0  0  0  0  0
   34.4520   28.4590   36.7170 C   0  0  0  0  0  0  0  0  0  0  0  0
   34.0210   28.4010   38.0410 C   0  0  0  0  0  0  0  0  0  0  0  0
   34.7630   29.1060   38.9680 C   0  0  0  0  0  0  0  0  0  0  0  0
   35.8850   29.8510   38.6610 C   0  0  0  0  0  0  0  0  0  0  0  0
   38.7100   28.8520   43.1330 C   0  0  0  0  0  0  0  0  0  0  0  0
   38.1850   27.5680   43.2920 C   0  0  0  0  0  0  0  0  0  0  0  0
   36.9680   27.2540   42.6940 C   0  0  0  0  0  0  0  0  0  0  0  0
   36.3360   28.2220   41.9710 N   0  0  0  0  0  0  0  0  0  0  0  0
   36.8720   29.4570   41.8370 C   0  0  0  0  0  0  0  0  0  0  0  0
   38.0440   29.7690   42.4090 N   0  0  0  0  0  0  0  0  0  0  0  0
   35.0463   30.1638   41.0169 H   0  0  0  0  0  0  0  0  0  0  0  0
   36.2506   31.4427   41.4884 H   0  0  0  0  0  0  0  0  0  0  0  0
   38.2548   31.8211   40.1077 H   0  0  0  0  0  0  0  0  0  0  0  0
   39.0321   31.9254   37.7262 H   0  0  0  0  0  0  0  0  0  0  0  0
   37.7645   30.6916   35.9767 H   0  0  0  0  0  0  0  0  0  0  0  0
   35.8965   29.2346   35.3482 H   0  0  0  0  0  0  0  0  0  0  0  0
   33.9036   27.9178   35.9319 H   0  0  0  0  0  0  0  0  0  0  0  0
   33.1328   27.8217   38.3335 H   0  0  0  0  0  0  0  0  0  0  0  0
   34.4397   29.0721   40.0189 H   0  0  0  0  0  0  0  0  0  0  0  0
   39.6704   29.1141   43.6009 H   0  0  0  0  0  0  0  0  0  0  0  0
   38.7264   26.8141   43.8824 H   0  0  0  0  0  0  0  0  0  0  0  0
   36.5278   26.2517   42.8018 H   0  0  0  0  0  0  0  0  0  0  0  0
  1 16  1  0
  2  1  1  0
  3  2  2  0
  4  3  1  0
  5  6  1  0
  5  4  2  0
  6 11  2  0
  7  8  2  0
  7  6  1  0
  8  9  1  0
  9 10  2  0
 11 10  1  0
 11  2  1  0
 12 13  2  0
 14 13  1  0
 15 14  2  0
 16 15  1  0
 16 17  2  0
 17 12  1  0
  1 18  1  0
  1 19  1  0
  3 20  1  0
  4 21  1  0
  5 22  1  0
  7 23  1  0
  8 24  1  0
  9 25  1  0
 10 26  1  0
 12 27  1  0
 13 28  1  0
 14 29  1  0
M  ISO  8  18   8  19   8  20  14  21  14  22  14  23  14  24  14  25  14
M  ISO  4  26  14  27  14  28  14  29  14
M  END
>  <minimizedAffinity>  (1) 
-5.18609047

>  <minimizedRMSD>  (1) 
1.33665717

$$$$
