
     RDKit          3D

 26 28  0  0  0  0  0  0  0  0999 V2000
   36.2420   30.4810   41.0850 C   0  0  0  0  0  0  0  0  0  0  0  0
   38.0990   28.2900   43.4590 C   0  0  0  0  0  0  0  0  0  0  0  0
   37.7650   27.0160   42.9850 C   0  0  0  0  0  0  0  0  0  0  0  0
   36.9270   26.9090   41.8830 C   0  0  0  0  0  0  0  0  0  0  0  0
   36.4660   28.0700   41.3110 N   0  0  0  0  0  0  0  0  0  0  0  0
   36.8030   29.2850   41.7870 C   0  0  0  0  0  0  0  0  0  0  0  0
   37.6080   29.3860   42.8460 N   0  0  0  0  0  0  0  0  0  0  0  0
   37.0030   30.8330   39.9260 N   0  0  0  0  0  0  0  0  0  0  0  0
   36.6790   30.5220   38.6390 C   0  0  0  0  0  0  0  0  0  0  0  0
   37.6190   31.0080   37.7790 N   0  0  0  0  0  0  0  0  0  0  0  0
   38.5710   31.6480   38.5050 C   0  0  0  0  0  0  0  0  0  0  0  0
   39.7370   32.3210   38.2100 C   0  0  0  0  0  0  0  0  0  0  0  0
   40.4540   32.8460   39.2320 N   0  0  0  0  0  0  0  0  0  0  0  0
   40.0560   32.7230   40.5130 C   0  0  0  0  0  0  0  0  0  0  0  0
   38.9210   32.0680   40.8100 N   0  0  0  0  0  0  0  0  0  0  0  0
   38.1620   31.5220   39.8250 C   0  0  0  0  0  0  0  0  0  0  0  0
   40.0730   32.3990   36.8360 N   0  0  0  0  0  0  0  0  0  0  0  0
   35.2095   30.2592   40.7771 H   0  0  0  0  0  0  0  0  0  0  0  0
   36.2775   31.3302   41.7833 H   0  0  0  0  0  0  0  0  0  0  0  0
   38.7614   28.3969   44.3307 H   0  0  0  0  0  0  0  0  0  0  0  0
   38.1597   26.1149   43.4771 H   0  0  0  0  0  0  0  0  0  0  0  0
   36.6413   25.9259   41.4807 H   0  0  0  0  0  0  0  0  0  0  0  0
   35.7844   29.9579   38.3365 H   0  0  0  0  0  0  0  0  0  0  0  0
   40.6628   33.1607   41.3194 H   0  0  0  0  0  0  0  0  0  0  0  0
   40.9311   32.8874   36.5426 H   0  0  0  0  0  0  0  0  0  0  0  0
   39.4592   31.9673   36.1304 H   0  0  0  0  0  0  0  0  0  0  0  0
  1  6  1  0
  3  2  2  0
  4  3  1  0
  5  6  1  0
  5  4  2  0
  6  7  2  0
  7  2  1  0
  8  1  1  0
  9  8  1  0
 10 11  1  0
 10  9  2  0
 11 16  2  0
 12 11  1  0
 12 13  2  0
 13 14  1  0
 14 15  2  0
 16  8  1  0
 16 15  1  0
 17 12  1  0
  1 18  1  0
  1 19  1  0
  2 20  1  0
  3 21  1  0
  4 22  1  0
  9 23  1  0
 14 24  1  0
 17 25  1  0
 17 26  1  0
M  ISO  7  18   8  19   8  20  14  21  14  22  14  23  14  24  14
M  END
>  <minimizedAffinity>  (1) 
-5.01907778

>  <minimizedRMSD>  (1) 
3.6309967

$$$$
