
     RDKit          3D

 26 27  0  0  0  0  0  0  0  0999 V2000
   36.1460   30.4080   41.1720 C   0  0  0  0  0  0  0  0  0  0  0  0
   39.0220   28.8940   42.9720 C   0  0  0  0  0  0  0  0  0  0  0  0
   38.5330   27.6200   43.2760 C   0  0  0  0  0  0  0  0  0  0  0  0
   37.2330   27.2850   42.8660 C   0  0  0  0  0  0  0  0  0  0  0  0
   36.5040   28.2180   42.1920 N   0  0  0  0  0  0  0  0  0  0  0  0
   37.0120   29.4410   41.9180 C   0  0  0  0  0  0  0  0  0  0  0  0
   38.2590   29.7700   42.3060 N   0  0  0  0  0  0  0  0  0  0  0  0
   35.6240   29.2270   37.1340 C   0  0  0  0  0  0  0  0  0  0  0  0
   34.6880   28.8520   38.0930 C   0  0  0  0  0  0  0  0  0  0  0  0
   34.7970   29.2030   39.4260 C   0  0  0  0  0  0  0  0  0  0  0  0
   35.8960   29.9570   39.7830 C   0  0  0  0  0  0  0  0  0  0  0  0
   36.8460   30.3450   38.8480 C   0  0  0  0  0  0  0  0  0  0  0  0
   36.7140   29.9810   37.5250 C   0  0  0  0  0  0  0  0  0  0  0  0
   35.4410   28.7560   35.4550 S   0  0  0  0  0  0  0  0  0  0  0  0
   36.7290   29.0280   34.7430 O   0  0  0  0  0  0  0  0  0  0  0  0
   34.2900   29.5080   34.8370 O   0  0  0  0  0  0  0  0  0  0  0  0
   35.1831   30.5023   41.6955 H   0  0  0  0  0  0  0  0  0  0  0  0
   36.6672   31.3758   41.1309 H   0  0  0  0  0  0  0  0  0  0  0  0
   40.0386   29.1782   43.2815 H   0  0  0  0  0  0  0  0  0  0  0  0
   39.1534   26.8960   43.8245 H   0  0  0  0  0  0  0  0  0  0  0  0
   36.8126   26.2921   43.0838 H   0  0  0  0  0  0  0  0  0  0  0  0
   33.8234   28.2499   37.7768 H   0  0  0  0  0  0  0  0  0  0  0  0
   34.0436   28.8958   40.1663 H   0  0  0  0  0  0  0  0  0  0  0  0
   37.7102   30.9472   39.1651 H   0  0  0  0  0  0  0  0  0  0  0  0
   37.4697   30.2881   36.7870 H   0  0  0  0  0  0  0  0  0  0  0  0
   35.1574   27.4195   35.3538 H   0  0  0  0  0  0  0  0  0  0  0  0
  1  6  1  0
  2  3  2  0
  4  3  1  0
  5  4  2  0
  6  5  1  0
  6  7  2  0
  7  2  1  0
  8 13  2  0
  8  9  1  0
  9 10  2  0
 10 11  1  0
 11  1  1  0
 12 11  2  0
 13 12  1  0
 14  8  1  0
 15 14  2  0
 16 14  2  0
  1 17  1  0
  1 18  1  0
  2 19  1  0
  3 20  1  0
  4 21  1  0
  9 22  1  0
 10 23  1  0
 12 24  1  0
 13 25  1  0
 14 26  1  0
M  ISO  8  17   8  18   8  19  14  20  14  21  14  22  14  23  14  24  14
M  ISO  2  25  14  26  11
M  END
>  <minimizedAffinity>  (1) 
-4.43121147

>  <minimizedRMSD>  (1) 
2.07428885

$$$$
