
     RDKit          3D

 20 20  0  0  0  0  0  0  0  0999 V2000
   35.9840   30.2420   40.4890 C   0  0  0  0  0  0  0  0  0  0  0  0
   38.3840   29.1650   43.1160 C   0  0  0  0  0  0  0  0  0  0  0  0
   37.9130   27.8920   43.4380 C   0  0  0  0  0  0  0  0  0  0  0  0
   36.7840   27.4140   42.7590 C   0  0  0  0  0  0  0  0  0  0  0  0
   36.2000   28.2090   41.8180 N   0  0  0  0  0  0  0  0  0  0  0  0
   36.6920   29.4380   41.5390 C   0  0  0  0  0  0  0  0  0  0  0  0
   37.7760   29.9130   42.1820 N   0  0  0  0  0  0  0  0  0  0  0  0
   37.0220   30.7140   39.5660 N   0  0  0  0  0  0  0  0  0  0  0  0
   37.1430   32.1020   39.3060 C   0  0  0  0  0  0  0  0  0  0  0  0
   36.8730   32.9450   40.2450 N   0  0  0  0  0  0  0  0  0  0  0  0
   37.5520   32.5820   38.0440 N   0  0  0  0  0  0  0  0  0  0  0  0
   36.5670   32.6780   41.1970 H   0  0  0  0  0  0  0  0  0  0  0  0
   35.2555   29.6144   39.9549 H   0  0  0  0  0  0  0  0  0  0  0  0
   35.4302   31.0823   40.9331 H   0  0  0  0  0  0  0  0  0  0  0  0
   39.2681   29.5623   43.6361 H   0  0  0  0  0  0  0  0  0  0  0  0
   38.4136   27.2806   44.2033 H   0  0  0  0  0  0  0  0  0  0  0  0
   36.3769   26.4165   42.9811 H   0  0  0  0  0  0  0  0  0  0  0  0
   37.6571   30.0428   39.1110 H   0  0  0  0  0  0  0  0  0  0  0  0
   37.6323   33.5957   37.8799 H   0  0  0  0  0  0  0  0  0  0  0  0
   37.7703   31.9188   37.2868 H   0  0  0  0  0  0  0  0  0  0  0  0
  1  6  1  0
  2  3  2  0
  4  3  1  0
  5  4  2  0
  6  5  1  0
  6  7  2  0
  7  2  1  0
  8  1  1  0
  9  8  1  0
  9 10  2  0
 10 12  1  0
 11  9  1  0
  1 13  1  0
  1 14  1  0
  2 15  1  0
  3 16  1  0
  4 17  1  0
  8 18  1  0
 11 19  1  0
 11 20  1  0
M  ISO  5  13   8  14   8  15  14  16  14  17  14
M  END
>  <minimizedAffinity>  (1) 
-4.09324408

>  <minimizedRMSD>  (1) 
1.72017932

$$$$
