
     RDKit          3D

 21 22  0  0  0  0  0  0  0  0999 V2000
   35.6340   29.4730   40.6360 C   0  0  0  0  0  0  0  0  0  0  0  0
   38.1290   28.9110   43.3350 C   0  0  0  0  0  0  0  0  0  0  0  0
   38.2570   27.5130   43.3220 C   0  0  0  0  0  0  0  0  0  0  0  0
   37.4970   26.8030   42.4030 C   0  0  0  0  0  0  0  0  0  0  0  0
   36.6590   27.4610   41.5480 N   0  0  0  0  0  0  0  0  0  0  0  0
   36.5700   28.8230   41.5990 C   0  0  0  0  0  0  0  0  0  0  0  0
   37.3010   29.5220   42.4870 N   0  0  0  0  0  0  0  0  0  0  0  0
   36.3280   30.2710   39.6070 C   0  0  0  0  0  0  0  0  0  0  0  0
   36.7610   31.5710   39.8070 C   0  0  0  0  0  0  0  0  0  0  0  0
   37.4150   32.3210   38.8370 C   0  0  0  0  0  0  0  0  0  0  0  0
   37.6100   31.6990   37.6590 N   0  0  0  0  0  0  0  0  0  0  0  0
   37.1950   30.4270   37.4400 C   0  0  0  0  0  0  0  0  0  0  0  0
   36.5650   29.7280   38.4010 N   0  0  0  0  0  0  0  0  0  0  0  0
   35.0467   28.6895   40.1349 H   0  0  0  0  0  0  0  0  0  0  0  0
   34.9957   30.1604   41.2105 H   0  0  0  0  0  0  0  0  0  0  0  0
   38.7159   29.5065   44.0498 H   0  0  0  0  0  0  0  0  0  0  0  0
   38.9367   26.9978   44.0167 H   0  0  0  0  0  0  0  0  0  0  0  0
   37.5697   25.7061   42.3629 H   0  0  0  0  0  0  0  0  0  0  0  0
   36.5773   32.0353   40.7871 H   0  0  0  0  0  0  0  0  0  0  0  0
   37.7505   33.3526   39.0192 H   0  0  0  0  0  0  0  0  0  0  0  0
   37.3764   29.9593   36.4610 H   0  0  0  0  0  0  0  0  0  0  0  0
  1  6  1  0
  3  2  2  0
  4  3  1  0
  5  6  1  0
  5  4  2  0
  6  7  2  0
  7  2  1  0
  8  9  2  0
  8  1  1  0
 10  9  1  0
 11 10  2  0
 12 11  1  0
 12 13  2  0
 13  8  1  0
  1 14  1  0
  1 15  1  0
  2 16  1  0
  3 17  1  0
  4 18  1  0
  9 19  1  0
 10 20  1  0
 12 21  1  0
M  ISO  8  14   8  15   8  16  14  17  14  18  14  19  14  20  14  21  14
M  END
>  <minimizedAffinity>  (1) 
-3.9268713

>  <minimizedRMSD>  (1) 
1.66911459

$$$$
