
     RDKit          3D

 26 27  0  0  0  0  0  0  0  0999 V2000
   38.2590   29.0310   43.3580 C   0  0  0  0  0  0  0  0  0  0  0  0
   37.6590   27.8050   43.6600 C   0  0  0  0  0  0  0  0  0  0  0  0
   36.5800   27.4010   42.8740 C   0  0  0  0  0  0  0  0  0  0  0  0
   36.1670   28.2130   41.8630 N   0  0  0  0  0  0  0  0  0  0  0  0
   36.7790   29.4030   41.6010 C   0  0  0  0  0  0  0  0  0  0  0  0
   37.8090   29.7800   42.3560 N   0  0  0  0  0  0  0  0  0  0  0  0
   36.2290   30.2030   40.4620 C   0  0  0  0  0  0  0  0  0  0  0  0
   37.3760   30.6020   39.5530 C   0  0  0  0  0  0  0  0  0  0  0  0
   37.1030   31.9410   38.8920 C   0  0  0  0  0  0  0  0  0  0  0  0
   37.6180   31.7010   37.4660 C   0  0  0  0  0  0  0  0  0  0  0  0
   37.0550   30.3150   37.2310 C   0  0  0  0  0  0  0  0  0  0  0  0
   37.4940   29.5810   38.4670 C   0  0  0  0  0  0  0  0  0  0  0  0
   39.1134   29.3801   43.9564 H   0  0  0  0  0  0  0  0  0  0  0  0
   38.0250   27.1808   44.4885 H   0  0  0  0  0  0  0  0  0  0  0  0
   36.0726   26.4444   43.0676 H   0  0  0  0  0  0  0  0  0  0  0  0
   35.5038   29.5968   39.8994 H   0  0  0  0  0  0  0  0  0  0  0  0
   35.7219   31.1014   40.8439 H   0  0  0  0  0  0  0  0  0  0  0  0
   38.2938   30.6703   40.1554 H   0  0  0  0  0  0  0  0  0  0  0  0
   36.0286   32.1770   38.8949 H   0  0  0  0  0  0  0  0  0  0  0  0
   37.5799   32.7926   39.3994 H   0  0  0  0  0  0  0  0  0  0  0  0
   37.2132   32.4352   36.7539 H   0  0  0  0  0  0  0  0  0  0  0  0
   38.7066   31.7936   37.3380 H   0  0  0  0  0  0  0  0  0  0  0  0
   35.9583   30.3384   37.1493 H   0  0  0  0  0  0  0  0  0  0  0  0
   37.4001   29.8507   36.2954 H   0  0  0  0  0  0  0  0  0  0  0  0
   36.8374   28.7211   38.6654 H   0  0  0  0  0  0  0  0  0  0  0  0
   38.5112   29.1718   38.3784 H   0  0  0  0  0  0  0  0  0  0  0  0
  1  2  2  0
  3  2  1  0
  4  3  2  0
  5  4  1  0
  5  6  2  0
  6  1  1  0
  7  5  1  0
  8  7  1  0
  9  8  1  0
 10  9  1  0
 11 10  1  0
 11 12  1  0
 12  8  1  0
  1 13  1  0
  2 14  1  0
  3 15  1  0
  7 16  1  0
  7 17  1  0
  8 18  1  0
  9 19  1  0
  9 20  1  0
 10 21  1  0
 10 22  1  0
 11 23  1  0
 11 24  1  0
 12 25  1  0
 12 26  1  0
M  ISO  8  13  14  14  14  15  14  16   8  17   8  18  13  19  13  20  13
M  ISO  6  21  13  22  13  23  13  24  13  25  13  26  13
M  END
>  <minimizedAffinity>  (1) 
-3.89571929

>  <minimizedRMSD>  (1) 
1.09815037

$$$$
