
     RDKit          3D

 20 21  0  0  0  0  0  0  0  0999 V2000
   36.1820   30.8240   41.0840 C   0  0  0  0  0  0  0  0  0  0  0  0
   39.2150   29.2990   42.6350 C   0  0  0  0  0  0  0  0  0  0  0  0
   38.7770   27.9870   42.8830 C   0  0  0  0  0  0  0  0  0  0  0  0
   37.4800   27.6480   42.5240 C   0  0  0  0  0  0  0  0  0  0  0  0
   36.6780   28.5970   41.9460 N   0  0  0  0  0  0  0  0  0  0  0  0
   37.1450   29.8620   41.7230 C   0  0  0  0  0  0  0  0  0  0  0  0
   38.3890   30.1900   42.0660 N   0  0  0  0  0  0  0  0  0  0  0  0
   36.7830   31.3830   39.8610 C   0  0  0  0  0  0  0  0  0  0  0  0
   37.0230   30.7370   38.6500 C   0  0  0  0  0  0  0  0  0  0  0  0
   37.5950   31.6900   37.8320 C   0  0  0  0  0  0  0  0  0  0  0  0
   37.6960   32.8490   38.5080 N   0  0  0  0  0  0  0  0  0  0  0  0
   37.2100   32.6670   39.7230 N   0  0  0  0  0  0  0  0  0  0  0  0
   35.2524   30.2952   40.8267 H   0  0  0  0  0  0  0  0  0  0  0  0
   35.9582   31.6394   41.7876 H   0  0  0  0  0  0  0  0  0  0  0  0
   40.2382   29.5964   42.9082 H   0  0  0  0  0  0  0  0  0  0  0  0
   39.4448   27.2479   43.3496 H   0  0  0  0  0  0  0  0  0  0  0  0
   37.1007   26.6308   42.7011 H   0  0  0  0  0  0  0  0  0  0  0  0
   36.8030   29.6889   38.3990 H   0  0  0  0  0  0  0  0  0  0  0  0
   37.9171   31.5279   36.7928 H   0  0  0  0  0  0  0  0  0  0  0  0
   38.0860   33.7287   38.1406 H   0  0  0  0  0  0  0  0  0  0  0  0
  1  6  1  0
  2  3  2  0
  4  3  1  0
  5  4  2  0
  6  5  1  0
  6  7  2  0
  7  2  1  0
  8  1  1  0
  9  8  1  0
 10 11  1  0
 10  9  2  0
 11 12  1  0
 12  8  2  0
  1 13  1  0
  1 14  1  0
  2 15  1  0
  3 16  1  0
  4 17  1  0
  9 18  1  0
 10 19  1  0
 11 20  1  0
M  ISO  8  13   8  14   8  15  14  16  14  17  14  18  14  19  14  20   9
M  END
>  <minimizedAffinity>  (1) 
-3.83299589

>  <minimizedRMSD>  (1) 
1.79787123

$$$$
