
     RDKit          3D

 27 28  0  0  0  0  0  0  0  0999 V2000
   36.7970   30.6570   41.1980 C   0  0  0  0  0  0  0  0  0  0  0  0
   38.0660   28.1650   43.6430 C   0  0  0  0  0  0  0  0  0  0  0  0
   37.5490   26.9630   43.1230 C   0  0  0  0  0  0  0  0  0  0  0  0
   36.7870   27.0190   41.9660 C   0  0  0  0  0  0  0  0  0  0  0  0
   36.5750   28.2300   41.3880 N   0  0  0  0  0  0  0  0  0  0  0  0
   37.0890   29.3760   41.9130 C   0  0  0  0  0  0  0  0  0  0  0  0
   37.8220   29.3350   43.0230 N   0  0  0  0  0  0  0  0  0  0  0  0
   37.6580   30.8370   40.0600 N   0  0  0  0  0  0  0  0  0  0  0  0
   36.9740   31.0450   38.8160 C   0  0  0  0  0  0  0  0  0  0  0  0
   37.4160   32.3300   38.1650 C   0  0  0  0  0  0  0  0  0  0  0  0
   37.3240   33.4650   39.0580 N   0  0  0  0  0  0  0  0  0  0  0  0
   38.0360   33.2510   40.2950 C   0  0  0  0  0  0  0  0  0  0  0  0
   38.6230   31.8610   40.3620 C   0  0  0  0  0  0  0  0  0  0  0  0
   35.7516   30.6446   40.8561 H   0  0  0  0  0  0  0  0  0  0  0  0
   36.9723   31.4884   41.8966 H   0  0  0  0  0  0  0  0  0  0  0  0
   38.6724   28.1481   44.5606 H   0  0  0  0  0  0  0  0  0  0  0  0
   37.7449   26.0028   43.6226 H   0  0  0  0  0  0  0  0  0  0  0  0
   36.3638   26.1039   41.5262 H   0  0  0  0  0  0  0  0  0  0  0  0
   37.1934   30.2053   38.1401 H   0  0  0  0  0  0  0  0  0  0  0  0
   35.8941   31.1068   39.0159 H   0  0  0  0  0  0  0  0  0  0  0  0
   38.4615   32.2198   37.8414 H   0  0  0  0  0  0  0  0  0  0  0  0
   36.7464   32.5202   37.3133 H   0  0  0  0  0  0  0  0  0  0  0  0
   37.7211   34.2901   38.5863 H   0  0  0  0  0  0  0  0  0  0  0  0
   38.8501   33.9869   40.3709 H   0  0  0  0  0  0  0  0  0  0  0  0
   37.3255   33.3662   41.1268 H   0  0  0  0  0  0  0  0  0  0  0  0
   39.0109   31.6910   41.3772 H   0  0  0  0  0  0  0  0  0  0  0  0
   39.4207   31.7998   39.6071 H   0  0  0  0  0  0  0  0  0  0  0  0
  1  6  1  0
  3  2  2  0
  4  3  1  0
  5  6  1  0
  5  4  2  0
  6  7  2  0
  7  2  1  0
  8 13  1  0
  8  1  1  0
  9  8  1  0
 10  9  1  0
 10 11  1  0
 11 12  1  0
 12 13  1  0
  1 14  1  0
  1 15  1  0
  2 16  1  0
  3 17  1  0
  4 18  1  0
  9 19  1  0
  9 20  1  0
 10 21  1  0
 10 22  1  0
 11 23  1  0
 12 24  1  0
 12 25  1  0
 13 26  1  0
 13 27  1  0
M  ISO  8  14   8  15   8  16  14  17  14  18  14  19  13  20  13  21  13
M  ISO  6  22  13  23   5  24  13  25  13  26  13  27  13
M  END
>  <minimizedAffinity>  (1) 
-3.80889463

>  <minimizedRMSD>  (1) 
1.43092024

$$$$
