
     RDKit          3D

 25 26  0  0  0  0  0  0  0  0999 V2000
   38.7430   28.6290   43.2090 C   0  0  0  0  0  0  0  0  0  0  0  0
   38.0930   27.4410   43.5650 C   0  0  0  0  0  0  0  0  0  0  0  0
   36.8470   27.1920   43.0130 C   0  0  0  0  0  0  0  0  0  0  0  0
   36.3090   28.0970   42.1550 N   0  0  0  0  0  0  0  0  0  0  0  0
   36.9570   29.2350   41.8280 C   0  0  0  0  0  0  0  0  0  0  0  0
   38.1580   29.4750   42.3610 N   0  0  0  0  0  0  0  0  0  0  0  0
   36.2840   30.1720   40.8740 C   0  0  0  0  0  0  0  0  0  0  0  0
   37.2400   30.8410   40.0030 N   0  0  0  0  0  0  0  0  0  0  0  0
   37.1810   32.2570   40.3210 C   0  0  0  0  0  0  0  0  0  0  0  0
   37.4220   32.9800   39.0110 C   0  0  0  0  0  0  0  0  0  0  0  0
   37.4230   31.9320   37.9440 C   0  0  0  0  0  0  0  0  0  0  0  0
   36.7940   30.7250   38.6270 C   0  0  0  0  0  0  0  0  0  0  0  0
   39.7329   28.8634   43.6276 H   0  0  0  0  0  0  0  0  0  0  0  0
   38.5574   26.7274   44.2615 H   0  0  0  0  0  0  0  0  0  0  0  0
   36.2998   26.2721   43.2666 H   0  0  0  0  0  0  0  0  0  0  0  0
   35.5773   29.6009   40.2539 H   0  0  0  0  0  0  0  0  0  0  0  0
   35.7635   30.9416   41.4629 H   0  0  0  0  0  0  0  0  0  0  0  0
   36.1928   32.5183   40.7275 H   0  0  0  0  0  0  0  0  0  0  0  0
   37.9256   32.5344   41.0817 H   0  0  0  0  0  0  0  0  0  0  0  0
   36.6202   33.7101   38.8264 H   0  0  0  0  0  0  0  0  0  0  0  0
   38.3737   33.5314   39.0292 H   0  0  0  0  0  0  0  0  0  0  0  0
   38.4484   31.7072   37.6153 H   0  0  0  0  0  0  0  0  0  0  0  0
   36.8796   32.2425   37.0394 H   0  0  0  0  0  0  0  0  0  0  0  0
   35.6965   30.7663   38.5650 H   0  0  0  0  0  0  0  0  0  0  0  0
   37.0846   29.7712   38.1624 H   0  0  0  0  0  0  0  0  0  0  0  0
  1  2  2  0
  3  2  1  0
  4  3  2  0
  5  4  1  0
  5  6  2  0
  6  1  1  0
  7  5  1  0
  8  9  1  0
  8  7  1  0
 10  9  1  0
 11 12  1  0
 11 10  1  0
 12  8  1  0
  1 13  1  0
  2 14  1  0
  3 15  1  0
  7 16  1  0
  7 17  1  0
  9 18  1  0
  9 19  1  0
 10 20  1  0
 10 21  1  0
 11 22  1  0
 11 23  1  0
 12 24  1  0
 12 25  1  0
M  ISO  8  13  14  14  14  15  14  16   8  17   8  18  13  19  13  20  13
M  ISO  5  21  13  22  13  23  13  24  13  25  13
M  END
>  <minimizedAffinity>  (1) 
-3.74579167

>  <minimizedRMSD>  (1) 
1.29261613

$$$$
