
     RDKit          3D

 20 21  0  0  0  0  0  0  0  0999 V2000
   38.7240   28.9320   42.8040 C   0  0  0  0  0  0  0  0  0  0  0  0
   38.2020   27.6350   42.8890 C   0  0  0  0  0  0  0  0  0  0  0  0
   36.9550   27.4080   42.3230 C   0  0  0  0  0  0  0  0  0  0  0  0
   36.2860   28.4270   41.7150 N   0  0  0  0  0  0  0  0  0  0  0  0
   36.8350   29.6790   41.6570 C   0  0  0  0  0  0  0  0  0  0  0  0
   38.0320   29.8980   42.1990 N   0  0  0  0  0  0  0  0  0  0  0  0
   36.0440   30.7510   40.9730 C   0  0  0  0  0  0  0  0  0  0  0  0
   36.5920   30.8800   39.6200 N   0  0  0  0  0  0  0  0  0  0  0  0
   37.3260   31.9130   39.1640 C   0  0  0  0  0  0  0  0  0  0  0  0
   37.6760   31.7070   37.8450 C   0  0  0  0  0  0  0  0  0  0  0  0
   37.1300   30.5110   37.5070 N   0  0  0  0  0  0  0  0  0  0  0  0
   36.4850   30.0290   38.5800 C   0  0  0  0  0  0  0  0  0  0  0  0
   39.7097   29.1548   43.2385 H   0  0  0  0  0  0  0  0  0  0  0  0
   38.7592   26.8269   43.3855 H   0  0  0  0  0  0  0  0  0  0  0  0
   36.5067   26.4044   42.3655 H   0  0  0  0  0  0  0  0  0  0  0  0
   34.9822   30.4675   40.9266 H   0  0  0  0  0  0  0  0  0  0  0  0
   36.1119   31.7030   41.5199 H   0  0  0  0  0  0  0  0  0  0  0  0
   37.6066   32.7952   39.7582 H   0  0  0  0  0  0  0  0  0  0  0  0
   38.2720   32.3720   37.2027 H   0  0  0  0  0  0  0  0  0  0  0  0
   35.9437   29.0718   38.6074 H   0  0  0  0  0  0  0  0  0  0  0  0
  1  2  2  0
  3  2  1  0
  4  3  2  0
  5  4  1  0
  5  6  2  0
  6  1  1  0
  7  5  1  0
  8  7  1  0
  9  8  1  0
 10  9  2  0
 11 10  1  0
 11 12  2  0
 12  8  1  0
  1 13  1  0
  2 14  1  0
  3 15  1  0
  7 16  1  0
  7 17  1  0
  9 18  1  0
 10 19  1  0
 12 20  1  0
M  ISO  8  13  14  14  14  15  14  16   8  17   8  18  14  19  14  20  14
M  END
>  <minimizedAffinity>  (1) 
-3.47302985

>  <minimizedRMSD>  (1) 
1.18188167

$$$$
