
     RDKit          3D

 14 14  0  0  0  0  0  0  0  0999 V2000
   38.6370   28.8230   43.1560 C   0  0  0  0  0  0  0  0  0  0  0  0
   38.0400   27.5660   43.3050 C   0  0  0  0  0  0  0  0  0  0  0  0
   36.8270   27.3310   42.6340 C   0  0  0  0  0  0  0  0  0  0  0  0
   36.2970   28.3310   41.8790 N   0  0  0  0  0  0  0  0  0  0  0  0
   36.9010   29.5360   41.7560 C   0  0  0  0  0  0  0  0  0  0  0  0
   38.0480   29.7590   42.3900 N   0  0  0  0  0  0  0  0  0  0  0  0
   36.2370   30.5680   40.9010 C   0  0  0  0  0  0  0  0  0  0  0  0
   36.6050   30.3260   39.1520 S   0  0  0  0  0  0  0  0  0  0  0  0
   39.5867   29.0454   43.6646 H   0  0  0  0  0  0  0  0  0  0  0  0
   38.5048   26.7869   43.9271 H   0  0  0  0  0  0  0  0  0  0  0  0
   36.3176   26.3597   42.7177 H   0  0  0  0  0  0  0  0  0  0  0  0
   35.1486   30.5055   41.0479 H   0  0  0  0  0  0  0  0  0  0  0  0
   36.6198   31.5557   41.1976 H   0  0  0  0  0  0  0  0  0  0  0  0
   37.7447   29.5765   39.0246 H   0  0  0  0  0  0  0  0  0  0  0  0
  1  2  2  0
  3  2  1  0
  4  3  2  0
  5  4  1  0
  5  6  2  0
  6  1  1  0
  7  5  1  0
  8  7  1  0
  1  9  1  0
  2 10  1  0
  3 11  1  0
  7 12  1  0
  7 13  1  0
  8 14  1  0
M  ISO  6   9  14  10  14  11  14  12   8  13   8  14  11
M  END
>  <minimizedAffinity>  (1) 
-2.74274158

>  <minimizedRMSD>  (1) 
0.451187372

$$$$
