
     RDKit          3D

 15 15  0  0  0  0  0  0  0  0999 V2000
   38.0930   29.1130   43.3600 C   0  0  0  0  0  0  0  0  0  0  0  0
   37.2680   28.1880   44.0080 C   0  0  0  0  0  0  0  0  0  0  0  0
   36.5960   27.2590   43.2280 C   0  0  0  0  0  0  0  0  0  0  0  0
   36.7580   27.2750   41.8640 N   0  0  0  0  0  0  0  0  0  0  0  0
   37.5740   28.1970   41.2770 C   0  0  0  0  0  0  0  0  0  0  0  0
   38.2270   29.0970   42.0220 N   0  0  0  0  0  0  0  0  0  0  0  0
   37.7000   28.1520   39.7870 C   0  0  0  0  0  0  0  0  0  0  0  0
   37.2730   29.3840   39.1750 N   0  0  0  0  0  0  0  0  0  0  0  0
   38.6388   29.8625   43.9519 H   0  0  0  0  0  0  0  0  0  0  0  0
   37.1557   28.1971   45.1022 H   0  0  0  0  0  0  0  0  0  0  0  0
   35.9375   26.5141   43.6985 H   0  0  0  0  0  0  0  0  0  0  0  0
   38.7526   27.9704   39.5243 H   0  0  0  0  0  0  0  0  0  0  0  0
   37.0535   27.3439   39.4142 H   0  0  0  0  0  0  0  0  0  0  0  0
   37.0361   30.0675   39.9082 H   0  0  0  0  0  0  0  0  0  0  0  0
   38.0334   29.7581   38.5896 H   0  0  0  0  0  0  0  0  0  0  0  0
  1  2  2  0
  3  2  1  0
  4  3  2  0
  5  4  1  0
  5  6  2  0
  6  1  1  0
  7  5  1  0
  8  7  1  0
  1  9  1  0
  2 10  1  0
  3 11  1  0
  7 12  1  0
  7 13  1  0
  8 14  1  0
  8 15  1  0
M  ISO  7   9  14  10  14  11  14  12   8  13   8  14   5  15   5
M  END
>  <minimizedAffinity>  (1) 
-2.48629689

>  <minimizedRMSD>  (1) 
1.72290623

$$$$
