
     RDKit          3D

 23 24  0  0  0  0  0  0  0  0999 V2000
   36.8010   27.3360   43.0410 C   0  0  0  0  0  0  0  0  0  0  0  0
   39.3620   25.2430   41.3310 C   0  0  0  0  0  0  0  0  0  0  0  0
   38.6720   24.0310   41.1640 C   0  0  0  0  0  0  0  0  0  0  0  0
   37.3570   23.9450   41.6300 C   0  0  0  0  0  0  0  0  0  0  0  0
   36.7960   25.0280   42.2270 N   0  0  0  0  0  0  0  0  0  0  0  0
   37.4960   26.1910   42.3730 C   0  0  0  0  0  0  0  0  0  0  0  0
   38.7480   26.2620   41.9250 N   0  0  0  0  0  0  0  0  0  0  0  0
   36.7030   28.4660   42.1320 N   0  0  0  0  0  0  0  0  0  0  0  0
   35.8160   28.4690   41.1010 C   0  0  0  0  0  0  0  0  0  0  0  0
   35.8360   29.6080   40.3210 C   0  0  0  0  0  0  0  0  0  0  0  0
   36.6640   30.6950   40.5140 C   0  0  0  0  0  0  0  0  0  0  0  0
   36.6330   31.6960   39.7740 O   0  0  0  0  0  0  0  0  0  0  0  0
   37.5040   30.5750   41.5730 N   0  0  0  0  0  0  0  0  0  0  0  0
   37.5330   29.4910   42.3710 C   0  0  0  0  0  0  0  0  0  0  0  0
   38.3590   29.4800   43.3360 O   0  0  0  0  0  0  0  0  0  0  0  0
   35.7901   27.0222   43.3402 H   0  0  0  0  0  0  0  0  0  0  0  0
   37.3793   27.6382   43.9266 H   0  0  0  0  0  0  0  0  0  0  0  0
   40.3974   25.3479   40.9748 H   0  0  0  0  0  0  0  0  0  0  0  0
   39.1549   23.1703   40.6782 H   0  0  0  0  0  0  0  0  0  0  0  0
   36.7844   23.0129   41.5147 H   0  0  0  0  0  0  0  0  0  0  0  0
   35.1347   27.6282   40.9037 H   0  0  0  0  0  0  0  0  0  0  0  0
   35.1337   29.6528   39.4756 H   0  0  0  0  0  0  0  0  0  0  0  0
   38.1506   31.3506   41.7761 H   0  0  0  0  0  0  0  0  0  0  0  0
  2  7  2  0
  3  2  1  0
  3  4  2  0
  4  5  1  0
  5  6  2  0
  6  1  1  0
  7  6  1  0
  8 14  1  0
  8  1  1  0
  9  8  1  0
 10 11  1  0
 10  9  2  0
 11 13  1  0
 12 11  2  0
 13 14  1  0
 14 15  2  0
  1 16  1  0
  1 17  1  0
  2 18  1  0
  3 19  1  0
  4 20  1  0
  9 21  1  0
 10 22  1  0
 13 23  1  0
M  ISO  8  16   8  17   8  18  14  19  14  20  14  21  14  22  14  23   9
M  END
>  <minimizedAffinity>  (1) 
-4.19314432

>  <minimizedRMSD>  (1) 
4.19133186

$$$$
