
     RDKit          3D

 38 40  0  0  0  0  0  0  0  0999 V2000
   36.8970   28.9020   42.0220 N   0  0  0  0  0  0  0  0  0  0  0  0
   35.9050   28.6970   41.1310 C   0  0  0  0  0  0  0  0  0  0  0  0
   35.8460   29.6090   40.0960 C   0  0  0  0  0  0  0  0  0  0  0  0
   36.7060   30.6640   39.9370 C   0  0  0  0  0  0  0  0  0  0  0  0
   36.6140   31.4700   38.9780 O   0  0  0  0  0  0  0  0  0  0  0  0
   37.6770   30.7840   40.8950 N   0  0  0  0  0  0  0  0  0  0  0  0
   37.7580   29.9160   41.9080 C   0  0  0  0  0  0  0  0  0  0  0  0
   38.6890   30.0910   42.7620 O   0  0  0  0  0  0  0  0  0  0  0  0
   40.3200   33.7150   40.9210 N   0  0  0  0  0  0  0  0  0  0  0  0
   39.0180   34.2750   40.7250 C   0  0  0  0  0  0  0  0  0  0  0  0
   38.0060   33.1820   40.3370 C   0  0  0  0  0  0  0  0  0  0  0  0
   38.6090   31.8860   40.7670 C   0  0  0  0  0  0  0  0  0  0  0  0
   39.7360   31.5970   39.7860 C   0  0  0  0  0  0  0  0  0  0  0  0
   40.7240   32.7270   39.9620 C   0  0  0  0  0  0  0  0  0  0  0  0
   37.0780   28.0140   43.1690 C   0  0  0  0  0  0  0  0  0  0  0  0
   39.5750   25.4380   42.2030 C   0  0  0  0  0  0  0  0  0  0  0  0
   38.7740   24.3290   41.9330 C   0  0  0  0  0  0  0  0  0  0  0  0
   37.3990   24.4670   42.0810 C   0  0  0  0  0  0  0  0  0  0  0  0
   36.9170   25.6620   42.4760 N   0  0  0  0  0  0  0  0  0  0  0  0
   37.7070   26.7300   42.7350 C   0  0  0  0  0  0  0  0  0  0  0  0
   39.0120   26.5790   42.5890 N   0  0  0  0  0  0  0  0  0  0  0  0
   35.1939   27.8628   41.2225 H   0  0  0  0  0  0  0  0  0  0  0  0
   35.0521   29.4795   39.3456 H   0  0  0  0  0  0  0  0  0  0  0  0
   41.0035   34.4849   40.8891 H   0  0  0  0  0  0  0  0  0  0  0  0
   38.6886   34.7570   41.6573 H   0  0  0  0  0  0  0  0  0  0  0  0
   39.0702   35.0125   39.9106 H   0  0  0  0  0  0  0  0  0  0  0  0
   37.0490   33.3475   40.8535 H   0  0  0  0  0  0  0  0  0  0  0  0
   37.8011   33.1903   39.2563 H   0  0  0  0  0  0  0  0  0  0  0  0
   38.9829   31.9863   41.7966 H   0  0  0  0  0  0  0  0  0  0  0  0
   39.3529   31.5783   38.7550 H   0  0  0  0  0  0  0  0  0  0  0  0
   40.1991   30.6170   39.9735 H   0  0  0  0  0  0  0  0  0  0  0  0
   41.6830   32.2994   40.2898 H   0  0  0  0  0  0  0  0  0  0  0  0
   40.7965   33.2388   38.9910 H   0  0  0  0  0  0  0  0  0  0  0  0
   37.7274   28.5045   43.9091 H   0  0  0  0  0  0  0  0  0  0  0  0
   36.0954   27.7991   43.6144 H   0  0  0  0  0  0  0  0  0  0  0  0
   40.6677   25.3692   42.0971 H   0  0  0  0  0  0  0  0  0  0  0  0
   39.2168   23.3743   41.6127 H   0  0  0  0  0  0  0  0  0  0  0  0
   36.7221   23.6233   41.8811 H   0  0  0  0  0  0  0  0  0  0  0  0
  1 15  1  0
  2  1  1  0
  3  2  2  0
  4  3  1  0
  4  6  1  0
  5  4  2  0
  6  7  1  0
  7  1  1  0
  7  8  2  0
 10  9  1  0
 11 10  1  0
 11 12  1  0
 12  6  1  0
 13 14  1  0
 13 12  1  0
 14  9  1  0
 16 21  2  0
 17 18  2  0
 17 16  1  0
 18 19  1  0
 19 20  2  0
 20 15  1  0
 21 20  1  0
  2 22  1  0
  3 23  1  0
  9 24  1  0
 10 25  1  0
 10 26  1  0
 11 27  1  0
 11 28  1  0
 12 29  1  0
 13 30  1  0
 13 31  1  0
 14 32  1  0
 14 33  1  0
 15 34  1  0
 15 35  1  0
 16 36  1  0
 17 37  1  0
 18 38  1  0
M  ISO  8  22  14  23  14  24   5  25  13  26  13  27  13  28  13  29  13
M  ISO  8  30  13  31  13  32  13  33  13  34   8  35   8  36  14  37  14
M  ISO  1  38  14
M  END
>  <minimizedAffinity>  (1) 
-5.55569839

>  <minimizedRMSD>  (1) 
0.994353414

$$$$
