
     RDKit          3D

 39 41  0  0  0  0  0  0  0  0999 V2000
   37.6810   30.0210   42.0280 N   0  0  0  0  0  0  0  0  0  0  0  0
   36.5350   29.9710   41.3250 C   0  0  0  0  0  0  0  0  0  0  0  0
   36.3760   30.9700   40.3760 C   0  0  0  0  0  0  0  0  0  0  0  0
   37.2900   31.9750   40.1230 C   0  0  0  0  0  0  0  0  0  0  0  0
   37.1000   32.8510   39.2610 O   0  0  0  0  0  0  0  0  0  0  0  0
   38.4070   31.9050   40.9090 N   0  0  0  0  0  0  0  0  0  0  0  0
   38.5990   30.9610   41.8330 C   0  0  0  0  0  0  0  0  0  0  0  0
   39.6760   31.0120   42.4950 O   0  0  0  0  0  0  0  0  0  0  0  0
   39.3950   32.9650   40.6570 C   0  0  0  0  0  0  0  0  0  0  0  0
   38.9330   34.3130   41.1030 C   0  0  0  0  0  0  0  0  0  0  0  0
   39.2560   35.3790   40.0810 C   0  0  0  0  0  0  0  0  0  0  0  0
   40.6750   35.3180   39.6020 C   0  0  0  0  0  0  0  0  0  0  0  0
   41.1760   33.9000   39.3710 C   0  0  0  0  0  0  0  0  0  0  0  0
   39.9110   33.0240   39.2800 C   0  0  0  0  0  0  0  0  0  0  0  0
   37.9780   29.0300   43.0540 C   0  0  0  0  0  0  0  0  0  0  0  0
   39.2460   26.1330   41.0810 C   0  0  0  0  0  0  0  0  0  0  0  0
   38.2730   25.1540   41.3530 C   0  0  0  0  0  0  0  0  0  0  0  0
   37.2170   25.4950   42.1920 C   0  0  0  0  0  0  0  0  0  0  0  0
   37.1580   26.7360   42.7130 N   0  0  0  0  0  0  0  0  0  0  0  0
   38.1060   27.6680   42.4390 C   0  0  0  0  0  0  0  0  0  0  0  0
   39.1200   27.3360   41.6330 N   0  0  0  0  0  0  0  0  0  0  0  0
   35.7766   29.1918   41.4913 H   0  0  0  0  0  0  0  0  0  0  0  0
   35.4519   30.9616   39.7793 H   0  0  0  0  0  0  0  0  0  0  0  0
   40.2463   32.6650   41.2857 H   0  0  0  0  0  0  0  0  0  0  0  0
   37.8442   34.2842   41.2567 H   0  0  0  0  0  0  0  0  0  0  0  0
   39.4556   34.5635   42.0379 H   0  0  0  0  0  0  0  0  0  0  0  0
   38.5881   35.2502   39.2166 H   0  0  0  0  0  0  0  0  0  0  0  0
   39.1136   36.3556   40.5668 H   0  0  0  0  0  0  0  0  0  0  0  0
   40.7469   35.8716   38.6542 H   0  0  0  0  0  0  0  0  0  0  0  0
   41.3024   35.7589   40.3906 H   0  0  0  0  0  0  0  0  0  0  0  0
   41.7506   33.8434   38.4347 H   0  0  0  0  0  0  0  0  0  0  0  0
   41.8445   33.5675   40.1788 H   0  0  0  0  0  0  0  0  0  0  0  0
   39.1702   33.4817   38.6078 H   0  0  0  0  0  0  0  0  0  0  0  0
   40.1262   32.0246   38.8740 H   0  0  0  0  0  0  0  0  0  0  0  0
   38.9230   29.2941   43.5512 H   0  0  0  0  0  0  0  0  0  0  0  0
   37.1581   29.0165   43.7871 H   0  0  0  0  0  0  0  0  0  0  0  0
   40.0974   25.9068   40.4222 H   0  0  0  0  0  0  0  0  0  0  0  0
   38.3451   24.1476   40.9148 H   0  0  0  0  0  0  0  0  0  0  0  0
   36.4362   24.7570   42.4282 H   0  0  0  0  0  0  0  0  0  0  0  0
  1 15  1  0
  2  1  1  0
  3  2  2  0
  4  3  1  0
  4  6  1  0
  5  4  2  0
  6  7  1  0
  7  1  1  0
  7  8  2  0
  9  6  1  0
  9 10  1  0
 11 10  1  0
 12 11  1  0
 13 12  1  0
 14 13  1  0
 14  9  1  0
 16 17  2  0
 16 21  1  0
 17 18  1  0
 18 19  2  0
 20 19  1  0
 20 15  1  0
 21 20  2  0
  2 22  1  0
  3 23  1  0
  9 24  1  0
 10 25  1  0
 10 26  1  0
 11 27  1  0
 11 28  1  0
 12 29  1  0
 12 30  1  0
 13 31  1  0
 13 32  1  0
 14 33  1  0
 14 34  1  0
 15 35  1  0
 15 36  1  0
 16 37  1  0
 17 38  1  0
 18 39  1  0
M  ISO  8  22  14  23  14  24  13  25  13  26  13  27  13  28  13  29  13
M  ISO  8  30  13  31  13  32  13  33  13  34  13  35   8  36   8  37  14
M  ISO  2  38  14  39  14
M  END
>  <minimizedAffinity>  (1) 
-5.51211977

>  <minimizedRMSD>  (1) 
2.00324392

$$$$
