
     RDKit          3D

 32 34  0  0  0  0  0  0  0  0999 V2000
   37.0780   29.0160   42.1850 N   0  0  0  0  0  0  0  0  0  0  0  0
   36.0350   28.6520   41.3940 C   0  0  0  0  0  0  0  0  0  0  0  0
   35.9310   29.3420   40.2110 C   0  0  0  0  0  0  0  0  0  0  0  0
   36.7890   30.3440   39.7920 C   0  0  0  0  0  0  0  0  0  0  0  0
   36.6350   30.9280   38.7050 O   0  0  0  0  0  0  0  0  0  0  0  0
   37.7890   30.6260   40.6540 N   0  0  0  0  0  0  0  0  0  0  0  0
   37.9390   29.9800   41.8290 C   0  0  0  0  0  0  0  0  0  0  0  0
   38.9190   30.3180   42.5800 O   0  0  0  0  0  0  0  0  0  0  0  0
   38.6960   31.6550   40.2580 C   0  0  0  0  0  0  0  0  0  0  0  0
   38.2410   32.9160   40.6540 C   0  0  0  0  0  0  0  0  0  0  0  0
   38.9620   34.0570   40.3760 C   0  0  0  0  0  0  0  0  0  0  0  0
   40.1760   33.9880   39.6840 C   0  0  0  0  0  0  0  0  0  0  0  0
   40.5430   32.6880   39.3330 C   0  0  0  0  0  0  0  0  0  0  0  0
   39.8500   31.5460   39.5970 N   0  0  0  0  0  0  0  0  0  0  0  0
   37.3090   28.3730   43.4620 C   0  0  0  0  0  0  0  0  0  0  0  0
   40.0450   25.8700   43.6900 C   0  0  0  0  0  0  0  0  0  0  0  0
   39.5470   24.8170   42.9130 C   0  0  0  0  0  0  0  0  0  0  0  0
   38.2960   24.9690   42.3220 C   0  0  0  0  0  0  0  0  0  0  0  0
   37.6280   26.1180   42.5300 N   0  0  0  0  0  0  0  0  0  0  0  0
   38.1190   27.1320   43.2850 C   0  0  0  0  0  0  0  0  0  0  0  0
   39.3080   26.9650   43.8330 N   0  0  0  0  0  0  0  0  0  0  0  0
   35.3253   27.8619   41.6803 H   0  0  0  0  0  0  0  0  0  0  0  0
   35.0986   29.0769   39.5426 H   0  0  0  0  0  0  0  0  0  0  0  0
   37.2887   32.9992   41.1982 H   0  0  0  0  0  0  0  0  0  0  0  0
   38.5780   35.0348   40.7024 H   0  0  0  0  0  0  0  0  0  0  0  0
   40.7825   34.8727   39.4402 H   0  0  0  0  0  0  0  0  0  0  0  0
   41.4907   32.5741   38.7862 H   0  0  0  0  0  0  0  0  0  0  0  0
   37.8491   29.0662   44.1236 H   0  0  0  0  0  0  0  0  0  0  0  0
   36.3387   28.1037   43.9047 H   0  0  0  0  0  0  0  0  0  0  0  0
   41.0299   25.7914   44.1736 H   0  0  0  0  0  0  0  0  0  0  0  0
   40.1290   23.8941   42.7733 H   0  0  0  0  0  0  0  0  0  0  0  0
   37.8647   24.1702   41.7009 H   0  0  0  0  0  0  0  0  0  0  0  0
  1 15  1  0
  2  1  1  0
  3  2  2  0
  4  3  1  0
  4  6  1  0
  5  4  2  0
  6  7  1  0
  7  1  1  0
  7  8  2  0
  9  6  1  0
  9 10  2  0
 11 10  1  0
 12 11  2  0
 13 14  2  0
 13 12  1  0
 14  9  1  0
 16 21  2  0
 17 16  1  0
 18 19  1  0
 18 17  2  0
 19 20  2  0
 20 15  1  0
 20 21  1  0
  2 22  1  0
  3 23  1  0
 10 24  1  0
 11 25  1  0
 12 26  1  0
 13 27  1  0
 15 28  1  0
 15 29  1  0
 16 30  1  0
 17 31  1  0
 18 32  1  0
M  ISO  8  22  14  23  14  24  14  25  14  26  14  27  14  28   8  29   8
M  ISO  3  30  14  31  14  32  14
M  END
>  <minimizedAffinity>  (1) 
-5.49470758

>  <minimizedRMSD>  (1) 
1.69442022

$$$$
