
     RDKit          3D

 31 33  0  0  0  0  0  0  0  0999 V2000
   37.9710   30.3840   41.8220 N   0  0  0  0  0  0  0  0  0  0  0  0
   36.7690   30.2180   41.2320 C   0  0  0  0  0  0  0  0  0  0  0  0
   36.4500   31.1520   40.2580 C   0  0  0  0  0  0  0  0  0  0  0  0
   37.2580   32.1930   39.8770 C   0  0  0  0  0  0  0  0  0  0  0  0
   36.9230   33.0060   38.9940 O   0  0  0  0  0  0  0  0  0  0  0  0
   38.4370   32.2670   40.5290 N   0  0  0  0  0  0  0  0  0  0  0  0
   38.7970   31.3820   41.4870 C   0  0  0  0  0  0  0  0  0  0  0  0
   39.9300   31.5230   42.0570 O   0  0  0  0  0  0  0  0  0  0  0  0
   39.3390   33.3270   40.1880 C   0  0  0  0  0  0  0  0  0  0  0  0
   40.4010   33.2420   39.3100 C   0  0  0  0  0  0  0  0  0  0  0  0
   41.1370   34.4130   39.1430 C   0  0  0  0  0  0  0  0  0  0  0  0
   40.8420   35.5520   39.7870 N   0  0  0  0  0  0  0  0  0  0  0  0
   39.8000   35.6000   40.6370 C   0  0  0  0  0  0  0  0  0  0  0  0
   39.0500   34.4760   40.8320 N   0  0  0  0  0  0  0  0  0  0  0  0
   38.4230   29.4750   42.8570 C   0  0  0  0  0  0  0  0  0  0  0  0
   39.0050   26.2440   41.1020 C   0  0  0  0  0  0  0  0  0  0  0  0
   37.9750   25.4420   41.6200 C   0  0  0  0  0  0  0  0  0  0  0  0
   37.1040   26.0130   42.5540 C   0  0  0  0  0  0  0  0  0  0  0  0
   37.2780   27.2970   42.9230 N   0  0  0  0  0  0  0  0  0  0  0  0
   38.2910   28.0500   42.3980 C   0  0  0  0  0  0  0  0  0  0  0  0
   39.1120   27.5110   41.5180 N   0  0  0  0  0  0  0  0  0  0  0  0
   36.0887   29.3979   41.5050 H   0  0  0  0  0  0  0  0  0  0  0  0
   35.4776   31.0507   39.7538 H   0  0  0  0  0  0  0  0  0  0  0  0
   40.6494   32.3119   38.7779 H   0  0  0  0  0  0  0  0  0  0  0  0
   41.9951   34.4031   38.4549 H   0  0  0  0  0  0  0  0  0  0  0  0
   39.5558   36.5322   41.1675 H   0  0  0  0  0  0  0  0  0  0  0  0
   39.4777   29.6849   43.0883 H   0  0  0  0  0  0  0  0  0  0  0  0
   37.8030   29.6195   43.7540 H   0  0  0  0  0  0  0  0  0  0  0  0
   39.7131   25.8365   40.3654 H   0  0  0  0  0  0  0  0  0  0  0  0
   37.8567   24.3960   41.3008 H   0  0  0  0  0  0  0  0  0  0  0  0
   36.2840   25.4187   42.9835 H   0  0  0  0  0  0  0  0  0  0  0  0
  1 15  1  0
  2  1  1  0
  3  2  2  0
  4  3  1  0
  4  6  1  0
  5  4  2  0
  6  7  1  0
  7  1  1  0
  7  8  2  0
  9  6  1  0
  9 14  1  0
 10  9  2  0
 11 10  1  0
 11 12  2  0
 12 13  1  0
 13 14  2  0
 16 21  2  0
 16 17  1  0
 17 18  2  0
 18 19  1  0
 20 15  1  0
 20 19  2  0
 21 20  1  0
  2 22  1  0
  3 23  1  0
 10 24  1  0
 11 25  1  0
 13 26  1  0
 15 27  1  0
 15 28  1  0
 16 29  1  0
 17 30  1  0
 18 31  1  0
M  ISO  8  22  14  23  14  24  14  25  14  26  14  27   8  28   8  29  14
M  ISO  2  30  14  31  14
M  END
>  <minimizedAffinity>  (1) 
-5.44701815

>  <minimizedRMSD>  (1) 
2.38070464

$$$$
