
     RDKit          3D

 33 35  0  0  0  0  0  0  0  0999 V2000
   36.9110   29.0480   41.8450 N   0  0  0  0  0  0  0  0  0  0  0  0
   35.9190   28.7340   40.9900 C   0  0  0  0  0  0  0  0  0  0  0  0
   35.8740   29.4810   39.8290 C   0  0  0  0  0  0  0  0  0  0  0  0
   36.7460   30.4880   39.5050 C   0  0  0  0  0  0  0  0  0  0  0  0
   36.6730   31.1430   38.4460 O   0  0  0  0  0  0  0  0  0  0  0  0
   37.7010   30.7240   40.4280 N   0  0  0  0  0  0  0  0  0  0  0  0
   37.7950   30.0250   41.5820 C   0  0  0  0  0  0  0  0  0  0  0  0
   38.7290   30.3080   42.4060 O   0  0  0  0  0  0  0  0  0  0  0  0
   38.6790   31.7580   40.2060 C   0  0  0  0  0  0  0  0  0  0  0  0
   38.1430   32.9850   40.5900 C   0  0  0  0  0  0  0  0  0  0  0  0
   38.8970   34.1500   40.4730 C   0  0  0  0  0  0  0  0  0  0  0  0
   40.1930   34.0590   39.9630 C   0  0  0  0  0  0  0  0  0  0  0  0
   40.6880   32.8260   39.5930 C   0  0  0  0  0  0  0  0  0  0  0  0
   39.9410   31.6720   39.7090 C   0  0  0  0  0  0  0  0  0  0  0  0
   37.0730   28.3410   43.1020 C   0  0  0  0  0  0  0  0  0  0  0  0
   39.6190   25.6420   42.8970 C   0  0  0  0  0  0  0  0  0  0  0  0
   38.8600   24.5610   42.4380 C   0  0  0  0  0  0  0  0  0  0  0  0
   37.4950   24.7580   42.2040 C   0  0  0  0  0  0  0  0  0  0  0  0
   36.9790   25.9800   42.4320 N   0  0  0  0  0  0  0  0  0  0  0  0
   37.7370   27.0190   42.8780 C   0  0  0  0  0  0  0  0  0  0  0  0
   39.0220   26.8140   43.0940 N   0  0  0  0  0  0  0  0  0  0  0  0
   35.1927   27.9356   41.2022 H   0  0  0  0  0  0  0  0  0  0  0  0
   35.0761   29.2498   39.1080 H   0  0  0  0  0  0  0  0  0  0  0  0
   37.1186   33.0340   40.9878 H   0  0  0  0  0  0  0  0  0  0  0  0
   38.4799   35.1216   40.7762 H   0  0  0  0  0  0  0  0  0  0  0  0
   40.8132   34.9613   39.8572 H   0  0  0  0  0  0  0  0  0  0  0  0
   41.7105   32.7607   39.1928 H   0  0  0  0  0  0  0  0  0  0  0  0
   40.3588   30.7009   39.4051 H   0  0  0  0  0  0  0  0  0  0  0  0
   37.6917   28.9464   43.7807 H   0  0  0  0  0  0  0  0  0  0  0  0
   36.0805   28.1701   43.5445 H   0  0  0  0  0  0  0  0  0  0  0  0
   40.6951   25.5246   43.0925 H   0  0  0  0  0  0  0  0  0  0  0  0
   39.3251   23.5793   42.2651 H   0  0  0  0  0  0  0  0  0  0  0  0
   36.8599   23.9356   41.8430 H   0  0  0  0  0  0  0  0  0  0  0  0
  1 15  1  0
  2  1  1  0
  3  2  2  0
  4  3  1  0
  4  6  1  0
  5  4  2  0
  6  7  1  0
  7  1  1  0
  7  8  2  0
  9  6  1  0
  9 10  2  0
 11 10  1  0
 12 11  2  0
 13 14  2  0
 13 12  1  0
 14  9  1  0
 16 21  2  0
 17 16  1  0
 18 19  1  0
 18 17  2  0
 19 20  2  0
 20 21  1  0
 20 15  1  0
  2 22  1  0
  3 23  1  0
 10 24  1  0
 11 25  1  0
 12 26  1  0
 13 27  1  0
 14 28  1  0
 15 29  1  0
 15 30  1  0
 16 31  1  0
 17 32  1  0
 18 33  1  0
M  ISO  8  22  14  23  14  24  14  25  14  26  14  27  14  28  14  29   8
M  ISO  4  30   8  31  14  32  14  33  14
M  END
>  <minimizedAffinity>  (1) 
-5.2909584

>  <minimizedRMSD>  (1) 
1.4876374

$$$$
