
     RDKit          3D

 36 38  0  0  0  0  0  0  0  0999 V2000
   37.0390   28.8910   42.2960 N   0  0  0  0  0  0  0  0  0  0  0  0
   36.0520   28.6110   41.4060 C   0  0  0  0  0  0  0  0  0  0  0  0
   36.0270   29.4210   40.2930 C   0  0  0  0  0  0  0  0  0  0  0  0
   36.9000   30.4480   40.0420 C   0  0  0  0  0  0  0  0  0  0  0  0
   36.8400   31.1580   39.0170 O   0  0  0  0  0  0  0  0  0  0  0  0
   37.8420   30.6320   41.0020 N   0  0  0  0  0  0  0  0  0  0  0  0
   37.9240   29.8840   42.1050 C   0  0  0  0  0  0  0  0  0  0  0  0
   38.8330   30.1150   42.9610 O   0  0  0  0  0  0  0  0  0  0  0  0
   38.8150   31.6950   40.8300 C   0  0  0  0  0  0  0  0  0  0  0  0
   39.8430   31.4180   39.7760 C   0  0  0  0  0  0  0  0  0  0  0  0
   39.9730   32.6980   38.9550 C   0  0  0  0  0  0  0  0  0  0  0  0
   39.4700   33.7390   39.9550 C   0  0  0  0  0  0  0  0  0  0  0  0
   38.2120   33.0220   40.4670 C   0  0  0  0  0  0  0  0  0  0  0  0
   37.1750   28.1120   43.5100 C   0  0  0  0  0  0  0  0  0  0  0  0
   40.0570   25.7690   43.6240 C   0  0  0  0  0  0  0  0  0  0  0  0
   39.6170   24.7170   42.8150 C   0  0  0  0  0  0  0  0  0  0  0  0
   38.3540   24.8180   42.2450 C   0  0  0  0  0  0  0  0  0  0  0  0
   37.6140   25.9160   42.4960 N   0  0  0  0  0  0  0  0  0  0  0  0
   38.0570   26.9280   43.2830 C   0  0  0  0  0  0  0  0  0  0  0  0
   39.2620   26.8140   43.8160 N   0  0  0  0  0  0  0  0  0  0  0  0
   35.3273   27.7984   41.5626 H   0  0  0  0  0  0  0  0  0  0  0  0
   35.2437   29.2288   39.5450 H   0  0  0  0  0  0  0  0  0  0  0  0
   39.2798   31.7359   41.8262 H   0  0  0  0  0  0  0  0  0  0  0  0
   40.8069   31.1650   40.2417 H   0  0  0  0  0  0  0  0  0  0  0  0
   39.5478   30.5671   39.1445 H   0  0  0  0  0  0  0  0  0  0  0  0
   41.0171   32.8877   38.6653 H   0  0  0  0  0  0  0  0  0  0  0  0
   39.4241   32.6828   38.0019 H   0  0  0  0  0  0  0  0  0  0  0  0
   40.1967   33.9163   40.7615 H   0  0  0  0  0  0  0  0  0  0  0  0
   39.2967   34.7413   39.5361 H   0  0  0  0  0  0  0  0  0  0  0  0
   37.7779   33.5287   41.3415 H   0  0  0  0  0  0  0  0  0  0  0  0
   37.3752   32.9774   39.7544 H   0  0  0  0  0  0  0  0  0  0  0  0
   37.6138   28.7434   44.2966 H   0  0  0  0  0  0  0  0  0  0  0  0
   36.1795   27.7574   43.8154 H   0  0  0  0  0  0  0  0  0  0  0  0
   41.0501   25.7309   44.0956 H   0  0  0  0  0  0  0  0  0  0  0  0
   40.2513   23.8364   42.6353 H   0  0  0  0  0  0  0  0  0  0  0  0
   37.9650   24.0161   41.6003 H   0  0  0  0  0  0  0  0  0  0  0  0
  1 14  1  0
  2  1  1  0
  3  2  2  0
  4  3  1  0
  4  6  1  0
  5  4  2  0
  6  7  1  0
  7  1  1  0
  7  8  2  0
  9  6  1  0
 10  9  1  0
 11 10  1  0
 11 12  1  0
 12 13  1  0
 13  9  1  0
 15 20  2  0
 16 15  1  0
 17 18  1  0
 17 16  2  0
 18 19  2  0
 19 14  1  0
 19 20  1  0
  2 21  1  0
  3 22  1  0
  9 23  1  0
 10 24  1  0
 10 25  1  0
 11 26  1  0
 11 27  1  0
 12 28  1  0
 12 29  1  0
 13 30  1  0
 13 31  1  0
 14 32  1  0
 14 33  1  0
 15 34  1  0
 16 35  1  0
 17 36  1  0
M  ISO  8  21  14  22  14  23  13  24  13  25  13  26  13  27  13  28  13
M  ISO  8  29  13  30  13  31  13  32   8  33   8  34  14  35  14  36  14
M  END
>  <minimizedAffinity>  (1) 
-5.22189188

>  <minimizedRMSD>  (1) 
1.47163987

$$$$
