
     RDKit          3D

 26 27  0  0  0  0  0  0  0  0999 V2000
   36.8750   28.8260   42.0750 N   0  0  0  0  0  0  0  0  0  0  0  0
   35.8850   28.7140   41.1600 C   0  0  0  0  0  0  0  0  0  0  0  0
   35.8670   29.6820   40.1840 C   0  0  0  0  0  0  0  0  0  0  0  0
   36.7600   30.7170   40.0860 C   0  0  0  0  0  0  0  0  0  0  0  0
   36.7110   31.5810   39.1830 O   0  0  0  0  0  0  0  0  0  0  0  0
   37.7110   30.7360   41.0530 N   0  0  0  0  0  0  0  0  0  0  0  0
   37.7770   29.8170   42.0290 C   0  0  0  0  0  0  0  0  0  0  0  0
   38.7070   29.9090   42.9010 O   0  0  0  0  0  0  0  0  0  0  0  0
   38.6950   31.8110   41.0100 C   0  0  0  0  0  0  0  0  0  0  0  0
   39.4890   31.8460   42.1210 F   0  0  0  0  0  0  0  0  0  0  0  0
   38.0700   33.0450   40.8480 F   0  0  0  0  0  0  0  0  0  0  0  0
   39.5200   31.6850   39.8870 F   0  0  0  0  0  0  0  0  0  0  0  0
   37.0050   27.8700   43.1540 C   0  0  0  0  0  0  0  0  0  0  0  0
   39.5110   25.3600   42.0610 C   0  0  0  0  0  0  0  0  0  0  0  0
   38.7150   24.2500   41.7710 C   0  0  0  0  0  0  0  0  0  0  0  0
   37.3350   24.3690   41.9500 C   0  0  0  0  0  0  0  0  0  0  0  0
   36.8370   25.5410   42.3920 N   0  0  0  0  0  0  0  0  0  0  0  0
   37.6370   26.6050   42.6670 C   0  0  0  0  0  0  0  0  0  0  0  0
   38.9380   26.4800   42.4940 N   0  0  0  0  0  0  0  0  0  0  0  0
   35.1435   27.9022   41.1946 H   0  0  0  0  0  0  0  0  0  0  0  0
   35.0749   29.6211   39.4232 H   0  0  0  0  0  0  0  0  0  0  0  0
   37.6311   28.3041   43.9474 H   0  0  0  0  0  0  0  0  0  0  0  0
   36.0026   27.6374   43.5427 H   0  0  0  0  0  0  0  0  0  0  0  0
   40.6023   25.3089   41.9326 H   0  0  0  0  0  0  0  0  0  0  0  0
   39.1612   23.3106   41.4125 H   0  0  0  0  0  0  0  0  0  0  0  0
   36.6670   23.5221   41.7343 H   0  0  0  0  0  0  0  0  0  0  0  0
  1 13  1  0
  2  1  1  0
  3  2  2  0
  4  3  1  0
  4  6  1  0
  5  4  2  0
  6  7  1  0
  7  1  1  0
  7  8  2  0
  9  6  1  0
  9 10  1  0
 11  9  1  0
 12  9  1  0
 14 19  2  0
 15 16  2  0
 15 14  1  0
 16 17  1  0
 17 18  2  0
 18 13  1  0
 19 18  1  0
  2 20  1  0
  3 21  1  0
 13 22  1  0
 13 23  1  0
 14 24  1  0
 15 25  1  0
 16 26  1  0
M  ISO  7  20  14  21  14  22   8  23   8  24  14  25  14  26  14
M  END
>  <minimizedAffinity>  (1) 
-4.87327337

>  <minimizedRMSD>  (1) 
0.759032071

$$$$
