
     RDKit          3D

 32 33  0  0  0  0  0  0  0  0999 V2000
   37.0910   29.0570   42.1450 N   0  0  0  0  0  0  0  0  0  0  0  0
   36.0290   28.6940   41.4030 C   0  0  0  0  0  0  0  0  0  0  0  0
   35.9010   29.3440   40.2040 C   0  0  0  0  0  0  0  0  0  0  0  0
   36.7540   30.3050   39.7280 C   0  0  0  0  0  0  0  0  0  0  0  0
   36.5920   30.8720   38.6200 O   0  0  0  0  0  0  0  0  0  0  0  0
   37.8030   30.6040   40.5580 N   0  0  0  0  0  0  0  0  0  0  0  0
   37.9520   29.9840   41.7360 C   0  0  0  0  0  0  0  0  0  0  0  0
   38.9590   30.3220   42.4480 O   0  0  0  0  0  0  0  0  0  0  0  0
   37.3510   28.4460   43.4440 C   0  0  0  0  0  0  0  0  0  0  0  0
   40.0130   25.8490   43.6710 C   0  0  0  0  0  0  0  0  0  0  0  0
   39.4680   24.8280   42.8890 C   0  0  0  0  0  0  0  0  0  0  0  0
   38.2260   25.0140   42.2980 C   0  0  0  0  0  0  0  0  0  0  0  0
   37.5940   26.1840   42.5070 N   0  0  0  0  0  0  0  0  0  0  0  0
   38.1300   27.1780   43.2710 C   0  0  0  0  0  0  0  0  0  0  0  0
   39.3230   26.9740   43.8270 N   0  0  0  0  0  0  0  0  0  0  0  0
   38.7240   31.6240   40.0720 C   0  0  0  0  0  0  0  0  0  0  0  0
   40.1190   31.1660   39.9020 C   0  0  0  0  0  0  0  0  0  0  0  0
   38.6760   32.8790   40.8770 C   0  0  0  0  0  0  0  0  0  0  0  0
   35.3130   27.9282   41.7361 H   0  0  0  0  0  0  0  0  0  0  0  0
   35.0431   29.0722   39.5714 H   0  0  0  0  0  0  0  0  0  0  0  0
   37.9287   29.1457   44.0659 H   0  0  0  0  0  0  0  0  0  0  0  0
   36.3922   28.2153   43.9313 H   0  0  0  0  0  0  0  0  0  0  0  0
   40.9957   25.7241   44.1492 H   0  0  0  0  0  0  0  0  0  0  0  0
   40.0174   23.8863   42.7431 H   0  0  0  0  0  0  0  0  0  0  0  0
   37.7714   24.2282   41.6769 H   0  0  0  0  0  0  0  0  0  0  0  0
   38.3511   31.8483   39.0617 H   0  0  0  0  0  0  0  0  0  0  0  0
   40.5784   31.0152   40.8900 H   0  0  0  0  0  0  0  0  0  0  0  0
   40.1282   30.2177   39.3447 H   0  0  0  0  0  0  0  0  0  0  0  0
   40.6886   31.9243   39.3447 H   0  0  0  0  0  0  0  0  0  0  0  0
   38.6856   32.6282   41.9480 H   0  0  0  0  0  0  0  0  0  0  0  0
   39.5510   33.5014   40.6383 H   0  0  0  0  0  0  0  0  0  0  0  0
   37.7560   33.4328   40.6383 H   0  0  0  0  0  0  0  0  0  0  0  0
  1  9  1  0
  2  1  1  0
  3  2  2  0
  4  3  1  0
  4  6  1  0
  5  4  2  0
  6  7  1  0
  7  1  1  0
  7  8  2  0
 10 15  2  0
 11 10  1  0
 12 13  1  0
 12 11  2  0
 13 14  2  0
 14  9  1  0
 14 15  1  0
 16  6  1  0
 16 18  1  0
 17 16  1  0
  2 19  1  0
  3 20  1  0
  9 21  1  0
  9 22  1  0
 10 23  1  0
 11 24  1  0
 12 25  1  0
 16 26  1  0
 17 27  1  0
 17 28  1  0
 17 29  1  0
 18 30  1  0
 18 31  1  0
 18 32  1  0
M  ISO  8  19  14  20  14  21   8  22   8  23  14  24  14  25  14  26   8
M  ISO  6  27   8  28   8  29   8  30   8  31   8  32   8
M  END
>  <minimizedAffinity>  (1) 
-4.64680576

>  <minimizedRMSD>  (1) 
1.60615039

$$$$
