
     RDKit          3D

 45 49  0  0  0  0  0  0  0  0999 V2000
   37.4030   29.3380   42.0320 N   0  0  0  0  0  0  0  0  0  0  0  0
   36.2420   29.1620   41.3750 C   0  0  0  0  0  0  0  0  0  0  0  0
   36.1530   29.7520   40.1310 C   0  0  0  0  0  0  0  0  0  0  0  0
   37.1380   30.4830   39.5390 C   0  0  0  0  0  0  0  0  0  0  0  0
   37.0310   31.0010   38.4210 O   0  0  0  0  0  0  0  0  0  0  0  0
   38.2730   30.6010   40.2870 N   0  0  0  0  0  0  0  0  0  0  0  0
   38.4120   30.0460   41.5050 C   0  0  0  0  0  0  0  0  0  0  0  0
   39.5110   30.2130   42.1250 O   0  0  0  0  0  0  0  0  0  0  0  0
   39.3730   31.3580   39.7420 C   0  0  0  0  0  0  0  0  0  0  0  0
   40.4820   30.9950   39.0090 C   0  0  0  0  0  0  0  0  0  0  0  0
   41.2190   32.0970   38.7410 N   0  0  0  0  0  0  0  0  0  0  0  0
   40.5810   33.1660   39.3050 C   0  0  0  0  0  0  0  0  0  0  0  0
   40.8890   34.4990   39.3350 C   0  0  0  0  0  0  0  0  0  0  0  0
   40.0810   35.4280   39.9780 C   0  0  0  0  0  0  0  0  0  0  0  0
   38.9160   34.9990   40.6170 C   0  0  0  0  0  0  0  0  0  0  0  0
   38.6490   33.6500   40.5580 C   0  0  0  0  0  0  0  0  0  0  0  0
   39.4360   32.7200   39.9270 C   0  0  0  0  0  0  0  0  0  0  0  0
   37.6120   28.7680   43.3400 C   0  0  0  0  0  0  0  0  0  0  0  0
   40.0610   26.0370   43.8470 C   0  0  0  0  0  0  0  0  0  0  0  0
   39.5650   25.0380   42.9970 C   0  0  0  0  0  0  0  0  0  0  0  0
   38.4220   25.2990   42.2690 C   0  0  0  0  0  0  0  0  0  0  0  0
   37.8460   26.4950   42.4170 N   0  0  0  0  0  0  0  0  0  0  0  0
   38.3320   27.4610   43.2460 C   0  0  0  0  0  0  0  0  0  0  0  0
   39.4320   27.2030   43.9420 N   0  0  0  0  0  0  0  0  0  0  0  0
   37.8650   24.2950   41.3690 C   0  0  0  0  0  0  0  0  0  0  0  0
   36.5710   24.4480   40.9150 C   0  0  0  0  0  0  0  0  0  0  0  0
   36.1380   23.4480   40.0690 C   0  0  0  0  0  0  0  0  0  0  0  0
   36.8910   22.3960   39.7000 N   0  0  0  0  0  0  0  0  0  0  0  0
   38.1450   22.2810   40.1630 C   0  0  0  0  0  0  0  0  0  0  0  0
   38.6180   23.2420   40.9990 N   0  0  0  0  0  0  0  0  0  0  0  0
   35.4122   28.5816   41.8047 H   0  0  0  0  0  0  0  0  0  0  0  0
   35.2134   29.6219   39.5740 H   0  0  0  0  0  0  0  0  0  0  0  0
   40.7288   29.9710   38.6920 H   0  0  0  0  0  0  0  0  0  0  0  0
   42.1004   32.1254   38.2088 H   0  0  0  0  0  0  0  0  0  0  0  0
   41.8050   34.8456   38.8343 H   0  0  0  0  0  0  0  0  0  0  0  0
   40.3566   36.4929   39.9838 H   0  0  0  0  0  0  0  0  0  0  0  0
   38.2484   35.7004   41.1388 H   0  0  0  0  0  0  0  0  0  0  0  0
   37.7356   33.2903   41.0543 H   0  0  0  0  0  0  0  0  0  0  0  0
   38.2100   29.4654   43.9450 H   0  0  0  0  0  0  0  0  0  0  0  0
   36.6315   28.5952   43.8078 H   0  0  0  0  0  0  0  0  0  0  0  0
   40.9721   25.8548   44.4358 H   0  0  0  0  0  0  0  0  0  0  0  0
   40.0758   24.0675   42.9124 H   0  0  0  0  0  0  0  0  0  0  0  0
   35.9361   25.2984   41.2042 H   0  0  0  0  0  0  0  0  0  0  0  0
   35.1144   23.5149   39.6718 H   0  0  0  0  0  0  0  0  0  0  0  0
   38.7759   21.4280   39.8724 H   0  0  0  0  0  0  0  0  0  0  0  0
  1 18  1  0
  2  1  1  0
  3  2  2  0
  4  3  1  0
  4  6  1  0
  5  4  2  0
  6  7  1  0
  7  1  1  0
  7  8  2  0
  9 17  1  0
  9  6  1  0
 10  9  2  0
 11 10  1  0
 11 12  1  0
 12 13  2  0
 12 17  1  0
 13 14  1  0
 14 15  2  0
 16 15  1  0
 17 16  2  0
 19 24  2  0
 20 19  1  0
 21 22  1  0
 21 20  2  0
 22 23  2  0
 23 18  1  0
 23 24  1  0
 25 21  1  0
 26 25  2  0
 27 26  1  0
 28 27  2  0
 28 29  1  0
 29 30  2  0
 30 25  1  0
  2 31  1  0
  3 32  1  0
 10 33  1  0
 11 34  1  0
 13 35  1  0
 14 36  1  0
 15 37  1  0
 16 38  1  0
 18 39  1  0
 18 40  1  0
 19 41  1  0
 20 42  1  0
 26 43  1  0
 27 44  1  0
 29 45  1  0
M  ISO  8  31  14  32  14  33  14  34   9  35  14  36  14  37  14  38  14
M  ISO  7  39   8  40   8  41  14  42  14  43  14  44  14  45  14
M  END
>  <minimizedAffinity>  (1) 
-7.04737234

>  <minimizedRMSD>  (1) 
1.61268985

$$$$
