
     RDKit          3D

 42 46  0  0  0  0  0  0  0  0999 V2000
   37.3650   30.0210   41.4010 N   0  0  0  0  0  0  0  0  0  0  0  0
   36.3430   29.8590   40.5380 C   0  0  0  0  0  0  0  0  0  0  0  0
   36.4660   30.4780   39.3130 C   0  0  0  0  0  0  0  0  0  0  0  0
   37.5430   31.2370   38.9210 C   0  0  0  0  0  0  0  0  0  0  0  0
   37.6260   31.7800   37.8200 O   0  0  0  0  0  0  0  0  0  0  0  0
   38.5300   31.3450   39.8630 N   0  0  0  0  0  0  0  0  0  0  0  0
   38.4420   30.7550   41.0670 C   0  0  0  0  0  0  0  0  0  0  0  0
   39.4130   30.9100   41.8860 O   0  0  0  0  0  0  0  0  0  0  0  0
   39.6950   32.1170   39.5490 C   0  0  0  0  0  0  0  0  0  0  0  0
   40.9360   31.7830   39.0620 C   0  0  0  0  0  0  0  0  0  0  0  0
   41.6850   32.8980   38.9400 N   0  0  0  0  0  0  0  0  0  0  0  0
   40.9240   33.9620   39.3530 C   0  0  0  0  0  0  0  0  0  0  0  0
   41.1870   35.2980   39.4340 C   0  0  0  0  0  0  0  0  0  0  0  0
   40.2620   36.2070   39.8840 C   0  0  0  0  0  0  0  0  0  0  0  0
   38.9900   35.7560   40.2800 C   0  0  0  0  0  0  0  0  0  0  0  0
   38.7590   34.4040   40.1840 C   0  0  0  0  0  0  0  0  0  0  0  0
   39.6880   33.4940   39.7330 C   0  0  0  0  0  0  0  0  0  0  0  0
   37.3500   29.4200   42.7150 C   0  0  0  0  0  0  0  0  0  0  0  0
   37.2700   25.7400   42.2090 C   0  0  0  0  0  0  0  0  0  0  0  0
   38.5770   25.3720   42.5350 C   0  0  0  0  0  0  0  0  0  0  0  0
   39.4590   26.3700   42.9180 C   0  0  0  0  0  0  0  0  0  0  0  0
   39.0310   27.6530   42.9640 N   0  0  0  0  0  0  0  0  0  0  0  0
   37.7450   27.9750   42.6390 C   0  0  0  0  0  0  0  0  0  0  0  0
   36.9180   27.0140   42.2760 N   0  0  0  0  0  0  0  0  0  0  0  0
   40.8430   26.0720   43.2750 C   0  0  0  0  0  0  0  0  0  0  0  0
   41.4450   26.6610   44.3350 N   0  0  0  0  0  0  0  0  0  0  0  0
   42.6690   26.2420   44.4560 O   0  0  0  0  0  0  0  0  0  0  0  0
   42.9230   25.3650   43.4860 C   0  0  0  0  0  0  0  0  0  0  0  0
   41.7860   25.2510   42.7390 N   0  0  0  0  0  0  0  0  0  0  0  0
   35.4558   29.2630   40.7980 H   0  0  0  0  0  0  0  0  0  0  0  0
   35.6412   30.3557   38.5956 H   0  0  0  0  0  0  0  0  0  0  0  0
   41.2670   30.7645   38.8107 H   0  0  0  0  0  0  0  0  0  0  0  0
   42.6554   32.9426   38.5977 H   0  0  0  0  0  0  0  0  0  0  0  0
   42.1789   35.6611   39.1268 H   0  0  0  0  0  0  0  0  0  0  0  0
   40.5129   37.2768   39.9344 H   0  0  0  0  0  0  0  0  0  0  0  0
   38.2194   36.4495   40.6477 H   0  0  0  0  0  0  0  0  0  0  0  0
   37.7710   34.0264   40.4862 H   0  0  0  0  0  0  0  0  0  0  0  0
   38.0581   29.9546   43.3652 H   0  0  0  0  0  0  0  0  0  0  0  0
   36.3314   29.4882   43.1246 H   0  0  0  0  0  0  0  0  0  0  0  0
   36.5397   24.9779   41.8993 H   0  0  0  0  0  0  0  0  0  0  0  0
   38.8972   24.3206   42.4891 H   0  0  0  0  0  0  0  0  0  0  0  0
   43.8709   24.8326   43.3184 H   0  0  0  0  0  0  0  0  0  0  0  0
  1 18  1  0
  2  1  1  0
  3  2  2  0
  4  3  1  0
  4  6  1  0
  5  4  2  0
  6  7  1  0
  7  1  1  0
  7  8  2  0
  9 17  1  0
  9  6  1  0
 10  9  2  0
 11 10  1  0
 11 12  1  0
 12 13  2  0
 12 17  1  0
 13 14  1  0
 14 15  2  0
 16 15  1  0
 17 16  2  0
 19 24  2  0
 19 20  1  0
 20 21  2  0
 21 22  1  0
 21 25  1  0
 23 18  1  0
 23 22  2  0
 24 23  1  0
 25 26  2  0
 26 27  1  0
 28 27  1  0
 29 25  1  0
 29 28  2  0
  2 30  1  0
  3 31  1  0
 10 32  1  0
 11 33  1  0
 13 34  1  0
 14 35  1  0
 15 36  1  0
 16 37  1  0
 18 38  1  0
 18 39  1  0
 19 40  1  0
 20 41  1  0
 28 42  1  0
M  ISO  8  30  14  31  14  32  14  33   9  34  14  35  14  36  14  37  14
M  ISO  5  38   8  39   8  40  14  41  14  42  14
M  END
>  <minimizedAffinity>  (1) 
-6.95227766

>  <minimizedRMSD>  (1) 
3.24691415

$$$$
