
     RDKit          3D

 49 52  0  0  0  0  0  0  0  0999 V2000
   37.7080   30.1370   41.9450 N   0  0  0  0  0  0  0  0  0  0  0  0
   36.4750   30.0800   41.4190 C   0  0  0  0  0  0  0  0  0  0  0  0
   36.2950   30.7780   40.2440 C   0  0  0  0  0  0  0  0  0  0  0  0
   37.2640   31.5060   39.5970 C   0  0  0  0  0  0  0  0  0  0  0  0
   37.0760   32.1230   38.5460 O   0  0  0  0  0  0  0  0  0  0  0  0
   38.4810   31.4950   40.2210 N   0  0  0  0  0  0  0  0  0  0  0  0
   38.7040   30.8320   41.3630 C   0  0  0  0  0  0  0  0  0  0  0  0
   39.8770   30.8770   41.8760 O   0  0  0  0  0  0  0  0  0  0  0  0
   39.5650   32.2310   39.6200 C   0  0  0  0  0  0  0  0  0  0  0  0
   40.5700   31.8700   38.7700 C   0  0  0  0  0  0  0  0  0  0  0  0
   41.3350   32.9460   38.5020 N   0  0  0  0  0  0  0  0  0  0  0  0
   40.8200   34.0130   39.1860 C   0  0  0  0  0  0  0  0  0  0  0  0
   41.1970   35.3240   39.2750 C   0  0  0  0  0  0  0  0  0  0  0  0
   40.5120   36.2360   40.0430 C   0  0  0  0  0  0  0  0  0  0  0  0
   39.3810   35.8230   40.7700 C   0  0  0  0  0  0  0  0  0  0  0  0
   39.0410   34.4960   40.6490 C   0  0  0  0  0  0  0  0  0  0  0  0
   39.7120   33.5720   39.8890 C   0  0  0  0  0  0  0  0  0  0  0  0
   38.0500   29.4490   43.1830 C   0  0  0  0  0  0  0  0  0  0  0  0
   40.2330   26.4470   43.1800 C   0  0  0  0  0  0  0  0  0  0  0  0
   39.5330   25.5870   42.3360 C   0  0  0  0  0  0  0  0  0  0  0  0
   38.3300   26.0170   41.7700 C   0  0  0  0  0  0  0  0  0  0  0  0
   37.9060   27.2530   42.0740 N   0  0  0  0  0  0  0  0  0  0  0  0
   38.5970   28.0800   42.8970 C   0  0  0  0  0  0  0  0  0  0  0  0
   39.7270   27.6600   43.4200 N   0  0  0  0  0  0  0  0  0  0  0  0
   37.5720   25.1320   40.8780 C   0  0  0  0  0  0  0  0  0  0  0  0
   38.5190   24.1760   40.1740 C   0  0  0  0  0  0  0  0  0  0  0  0
   36.7800   25.9790   39.9120 C   0  0  0  0  0  0  0  0  0  0  0  0
   36.6530   24.2550   41.7110 C   0  0  0  0  0  0  0  0  0  0  0  0
   35.6609   29.5132   41.8944 H   0  0  0  0  0  0  0  0  0  0  0  0
   35.2946   30.7498   39.7875 H   0  0  0  0  0  0  0  0  0  0  0  0
   40.7302   30.8591   38.3670 H   0  0  0  0  0  0  0  0  0  0  0  0
   42.1628   32.9625   37.8893 H   0  0  0  0  0  0  0  0  0  0  0  0
   42.0798   35.6614   38.7122 H   0  0  0  0  0  0  0  0  0  0  0  0
   40.8467   37.2828   40.0886 H   0  0  0  0  0  0  0  0  0  0  0  0
   38.8039   36.5187   41.3968 H   0  0  0  0  0  0  0  0  0  0  0  0
   38.1595   34.1472   41.2069 H   0  0  0  0  0  0  0  0  0  0  0  0
   38.8079   30.0347   43.7239 H   0  0  0  0  0  0  0  0  0  0  0  0
   37.1402   29.3456   43.7926 H   0  0  0  0  0  0  0  0  0  0  0  0
   41.1823   26.1337   43.6390 H   0  0  0  0  0  0  0  0  0  0  0  0
   39.9228   24.5817   42.1180 H   0  0  0  0  0  0  0  0  0  0  0  0
   39.0860   23.6036   40.9230 H   0  0  0  0  0  0  0  0  0  0  0  0
   37.9404   23.4839   39.5446 H   0  0  0  0  0  0  0  0  0  0  0  0
   39.2166   24.7480   39.5446 H   0  0  0  0  0  0  0  0  0  0  0  0
   36.1342   26.6696   40.4741 H   0  0  0  0  0  0  0  0  0  0  0  0
   37.4703   26.5558   39.2789 H   0  0  0  0  0  0  0  0  0  0  0  0
   36.1582   25.3289   39.2789 H   0  0  0  0  0  0  0  0  0  0  0  0
   36.8426   24.4359   42.7793 H   0  0  0  0  0  0  0  0  0  0  0  0
   35.6054   24.4968   41.4784 H   0  0  0  0  0  0  0  0  0  0  0  0
   36.8455   23.1972   41.4784 H   0  0  0  0  0  0  0  0  0  0  0  0
  1 18  1  0
  2  1  1  0
  3  2  2  0
  4  6  1  0
  4  3  1  0
  5  4  2  0
  6  7  1  0
  7  8  2  0
  7  1  1  0
  9 17  1  0
  9  6  1  0
 10  9  2  0
 11 10  1  0
 11 12  1  0
 12 13  2  0
 12 17  1  0
 13 14  1  0
 14 15  2  0
 16 15  1  0
 17 16  2  0
 19 24  2  0
 20 19  1  0
 21 22  1  0
 21 20  2  0
 22 23  2  0
 23 18  1  0
 23 24  1  0
 25 28  1  0
 25 21  1  0
 26 25  1  0
 27 25  1  0
  2 29  1  0
  3 30  1  0
 10 31  1  0
 11 32  1  0
 13 33  1  0
 14 34  1  0
 15 35  1  0
 16 36  1  0
 18 37  1  0
 18 38  1  0
 19 39  1  0
 20 40  1  0
 26 41  1  0
 26 42  1  0
 26 43  1  0
 27 44  1  0
 27 45  1  0
 27 46  1  0
 28 47  1  0
 28 48  1  0
 28 49  1  0
M  ISO  8  29  14  30  14  31  14  32   9  33  14  34  14  35  14  36  14
M  ISO  8  37   8  38   8  39  14  40  14  41   8  42   8  43   8  44   8
M  ISO  5  45   8  46   8  47   8  48   8  49   8
M  END
>  <minimizedAffinity>  (1) 
-6.81427431

>  <minimizedRMSD>  (1) 
1.13100028

$$$$
