
     RDKit          3D

 40 43  0  0  0  0  0  0  0  0999 V2000
   37.3990   29.2950   42.0360 N   0  0  0  0  0  0  0  0  0  0  0  0
   36.2390   29.0980   41.3730 C   0  0  0  0  0  0  0  0  0  0  0  0
   36.1660   29.6890   40.1210 C   0  0  0  0  0  0  0  0  0  0  0  0
   37.1500   30.4260   39.5340 C   0  0  0  0  0  0  0  0  0  0  0  0
   37.0430   30.9350   38.4120 O   0  0  0  0  0  0  0  0  0  0  0  0
   38.2790   30.5610   40.2910 N   0  0  0  0  0  0  0  0  0  0  0  0
   38.4050   30.0100   41.5140 C   0  0  0  0  0  0  0  0  0  0  0  0
   39.5000   30.1900   42.1510 O   0  0  0  0  0  0  0  0  0  0  0  0
   39.3710   31.3210   39.7560 C   0  0  0  0  0  0  0  0  0  0  0  0
   40.4890   30.9660   39.0350 C   0  0  0  0  0  0  0  0  0  0  0  0
   41.2200   32.0660   38.7680 N   0  0  0  0  0  0  0  0  0  0  0  0
   40.5700   33.1410   39.3200 C   0  0  0  0  0  0  0  0  0  0  0  0
   40.8700   34.4700   39.3460 C   0  0  0  0  0  0  0  0  0  0  0  0
   40.0500   35.4010   39.9770 C   0  0  0  0  0  0  0  0  0  0  0  0
   38.8810   34.9650   40.6080 C   0  0  0  0  0  0  0  0  0  0  0  0
   38.6180   33.6090   40.5560 C   0  0  0  0  0  0  0  0  0  0  0  0
   39.4300   32.6830   39.9300 C   0  0  0  0  0  0  0  0  0  0  0  0
   37.6080   28.7360   43.3480 C   0  0  0  0  0  0  0  0  0  0  0  0
   40.1370   26.0340   43.7210 C   0  0  0  0  0  0  0  0  0  0  0  0
   39.5190   24.9720   43.0440 C   0  0  0  0  0  0  0  0  0  0  0  0
   38.2780   25.1890   42.4840 C   0  0  0  0  0  0  0  0  0  0  0  0
   37.7020   26.3890   42.5980 N   0  0  0  0  0  0  0  0  0  0  0  0
   38.3120   27.4200   43.2620 C   0  0  0  0  0  0  0  0  0  0  0  0
   39.5130   27.2140   43.8040 N   0  0  0  0  0  0  0  0  0  0  0  0
   37.6170   24.1000   41.7760 C   0  0  0  0  0  0  0  0  0  0  0  0
   36.4360   24.2180   41.3780 O   0  0  0  0  0  0  0  0  0  0  0  0
   38.2800   22.9070   41.5250 O   0  0  0  0  0  0  0  0  0  0  0  0
   35.4110   28.5104   41.7963 H   0  0  0  0  0  0  0  0  0  0  0  0
   35.2341   29.5511   39.5531 H   0  0  0  0  0  0  0  0  0  0  0  0
   40.7458   29.9424   38.7248 H   0  0  0  0  0  0  0  0  0  0  0  0
   42.1064   32.0947   38.2442 H   0  0  0  0  0  0  0  0  0  0  0  0
   41.7895   34.8181   38.8526 H   0  0  0  0  0  0  0  0  0  0  0  0
   40.3186   36.4677   39.9792 H   0  0  0  0  0  0  0  0  0  0  0  0
   38.2049   35.6656   41.1199 H   0  0  0  0  0  0  0  0  0  0  0  0
   37.7028   33.2435   41.0447 H   0  0  0  0  0  0  0  0  0  0  0  0
   38.2174   29.4321   43.9430 H   0  0  0  0  0  0  0  0  0  0  0  0
   36.6283   28.5797   43.8232 H   0  0  0  0  0  0  0  0  0  0  0  0
   41.1272   25.8972   44.1801 H   0  0  0  0  0  0  0  0  0  0  0  0
   40.0116   23.9919   42.9621 H   0  0  0  0  0  0  0  0  0  0  0  0
   37.8182   22.1760   41.0429 H   0  0  0  0  0  0  0  0  0  0  0  0
  1 18  1  0
  2  1  1  0
  3  2  2  0
  4  3  1  0
  4  6  1  0
  5  4  2  0
  6  7  1  0
  7  1  1  0
  7  8  2  0
  9 17  1  0
  9  6  1  0
 10  9  2  0
 11 10  1  0
 11 12  1  0
 12 13  2  0
 12 17  1  0
 13 14  1  0
 14 15  2  0
 16 15  1  0
 17 16  2  0
 19 24  2  0
 20 19  1  0
 21 22  1  0
 21 20  2  0
 22 23  2  0
 23 18  1  0
 23 24  1  0
 25 21  1  0
 26 25  2  0
 27 25  1  0
  2 28  1  0
  3 29  1  0
 10 30  1  0
 11 31  1  0
 13 32  1  0
 14 33  1  0
 15 34  1  0
 16 35  1  0
 18 36  1  0
 18 37  1  0
 19 38  1  0
 20 39  1  0
 27 40  1  0
M  ISO  8  28  14  29  14  30  14  31   9  32  14  33  14  34  14  35  14
M  ISO  5  36   8  37   8  38  14  39  14  40   3
M  END
>  <minimizedAffinity>  (1) 
-6.7465148

>  <minimizedRMSD>  (1) 
1.17626059

$$$$
