
     RDKit          3D

 43 46  0  0  0  0  0  0  0  0999 V2000
   37.4550   29.9800   41.7530 N   0  0  0  0  0  0  0  0  0  0  0  0
   36.3240   29.8500   41.0390 C   0  0  0  0  0  0  0  0  0  0  0  0
   36.3120   30.4870   39.8170 C   0  0  0  0  0  0  0  0  0  0  0  0
   37.3470   31.2210   39.3000 C   0  0  0  0  0  0  0  0  0  0  0  0
   37.3020   31.7800   38.2000 O   0  0  0  0  0  0  0  0  0  0  0  0
   38.4460   31.2890   40.1070 N   0  0  0  0  0  0  0  0  0  0  0  0
   38.5070   30.6790   41.3150 C   0  0  0  0  0  0  0  0  0  0  0  0
   39.5820   30.8020   41.9970 O   0  0  0  0  0  0  0  0  0  0  0  0
   39.5810   32.0320   39.6560 C   0  0  0  0  0  0  0  0  0  0  0  0
   40.7460   31.6710   39.0260 C   0  0  0  0  0  0  0  0  0  0  0  0
   41.5110   32.7520   38.8060 N   0  0  0  0  0  0  0  0  0  0  0  0
   40.8380   33.8360   39.2990 C   0  0  0  0  0  0  0  0  0  0  0  0
   41.1330   35.1710   39.3490 C   0  0  0  0  0  0  0  0  0  0  0  0
   40.2760   36.1050   39.9120 C   0  0  0  0  0  0  0  0  0  0  0  0
   39.0630   35.6910   40.4500 C   0  0  0  0  0  0  0  0  0  0  0  0
   38.7900   34.3360   40.3860 C   0  0  0  0  0  0  0  0  0  0  0  0
   39.6450   33.3990   39.8250 C   0  0  0  0  0  0  0  0  0  0  0  0
   37.5930   29.3560   43.0540 C   0  0  0  0  0  0  0  0  0  0  0  0
   39.8450   26.4160   43.1260 C   0  0  0  0  0  0  0  0  0  0  0  0
   39.0150   25.4000   42.6740 C   0  0  0  0  0  0  0  0  0  0  0  0
   37.7120   25.7140   42.3520 C   0  0  0  0  0  0  0  0  0  0  0  0
   37.3000   26.9850   42.4880 N   0  0  0  0  0  0  0  0  0  0  0  0
   38.1200   27.9670   42.9290 C   0  0  0  0  0  0  0  0  0  0  0  0
   39.3670   27.6500   43.2350 N   0  0  0  0  0  0  0  0  0  0  0  0
   36.8380   24.6130   41.8700 C   0  0  0  0  0  0  0  0  0  0  0  0
   37.6070   23.5280   41.1400 C   0  0  0  0  0  0  0  0  0  0  0  0
   35.4631   29.2722   41.4064 H   0  0  0  0  0  0  0  0  0  0  0  0
   35.3996   30.3993   39.2088 H   0  0  0  0  0  0  0  0  0  0  0  0
   41.0144   30.6427   38.7420 H   0  0  0  0  0  0  0  0  0  0  0  0
   42.4345   32.7631   38.3500 H   0  0  0  0  0  0  0  0  0  0  0  0
   42.0875   35.5173   38.9260 H   0  0  0  0  0  0  0  0  0  0  0  0
   40.5550   37.1688   39.9327 H   0  0  0  0  0  0  0  0  0  0  0  0
   38.3573   36.4030   40.9028 H   0  0  0  0  0  0  0  0  0  0  0  0
   37.8373   33.9804   40.8054 H   0  0  0  0  0  0  0  0  0  0  0  0
   38.2877   29.9503   43.6658 H   0  0  0  0  0  0  0  0  0  0  0  0
   36.6013   29.3125   43.5279 H   0  0  0  0  0  0  0  0  0  0  0  0
   40.8905   26.2009   43.3919 H   0  0  0  0  0  0  0  0  0  0  0  0
   39.3875   24.3697   42.5751 H   0  0  0  0  0  0  0  0  0  0  0  0
   36.3308   24.1623   42.7358 H   0  0  0  0  0  0  0  0  0  0  0  0
   36.1212   25.0472   41.1574 H   0  0  0  0  0  0  0  0  0  0  0  0
   38.0814   22.8586   41.8727 H   0  0  0  0  0  0  0  0  0  0  0  0
   36.9158   22.9500   40.5090 H   0  0  0  0  0  0  0  0  0  0  0  0
   38.3813   23.9887   40.5090 H   0  0  0  0  0  0  0  0  0  0  0  0
  1 18  1  0
  2  1  1  0
  3  2  2  0
  4  3  1  0
  4  6  1  0
  5  4  2  0
  6  7  1  0
  7  1  1  0
  7  8  2  0
  9 17  1  0
  9  6  1  0
 10  9  2  0
 11 10  1  0
 11 12  1  0
 12 13  2  0
 12 17  1  0
 13 14  1  0
 14 15  2  0
 16 15  1  0
 17 16  2  0
 19 24  2  0
 20 19  1  0
 21 22  1  0
 21 20  2  0
 22 23  2  0
 23 18  1  0
 23 24  1  0
 25 21  1  0
 26 25  1  0
  2 27  1  0
  3 28  1  0
 10 29  1  0
 11 30  1  0
 13 31  1  0
 14 32  1  0
 15 33  1  0
 16 34  1  0
 18 35  1  0
 18 36  1  0
 19 37  1  0
 20 38  1  0
 25 39  1  0
 25 40  1  0
 26 41  1  0
 26 42  1  0
 26 43  1  0
M  ISO  8  27  14  28  14  29  14  30   9  31  14  32  14  33  14  34  14
M  ISO  8  35   8  36   8  37  14  38  14  39   8  40   8  41   8  42   8
M  ISO  1  43   8
M  END
>  <minimizedAffinity>  (1) 
-6.7057395

>  <minimizedRMSD>  (1) 
0.494755596

$$$$
