
     RDKit          3D

 40 43  0  0  0  0  0  0  0  0999 V2000
   37.5620   30.0380   41.7440 N   0  0  0  0  0  0  0  0  0  0  0  0
   36.3840   29.9200   41.0840 C   0  0  0  0  0  0  0  0  0  0  0  0
   36.3130   30.5770   39.8690 C   0  0  0  0  0  0  0  0  0  0  0  0
   37.3200   31.3140   39.3070 C   0  0  0  0  0  0  0  0  0  0  0  0
   37.2210   31.8900   38.2150 O   0  0  0  0  0  0  0  0  0  0  0  0
   38.4660   31.3680   40.0580 N   0  0  0  0  0  0  0  0  0  0  0  0
   38.5790   30.7470   41.2390 C   0  0  0  0  0  0  0  0  0  0  0  0
   39.6830   30.8500   41.8710 O   0  0  0  0  0  0  0  0  0  0  0  0
   39.5780   32.1170   39.5530 C   0  0  0  0  0  0  0  0  0  0  0  0
   40.6830   31.7690   38.8100 C   0  0  0  0  0  0  0  0  0  0  0  0
   41.4420   32.8590   38.5950 N   0  0  0  0  0  0  0  0  0  0  0  0
   40.8340   33.9140   39.1950 C   0  0  0  0  0  0  0  0  0  0  0  0
   41.1630   35.2420   39.2910 C   0  0  0  0  0  0  0  0  0  0  0  0
   40.3830   36.1580   39.9630 C   0  0  0  0  0  0  0  0  0  0  0  0
   39.1940   35.7310   40.5850 C   0  0  0  0  0  0  0  0  0  0  0  0
   38.8940   34.3920   40.4700 C   0  0  0  0  0  0  0  0  0  0  0  0
   39.6670   33.4740   39.8010 C   0  0  0  0  0  0  0  0  0  0  0  0
   37.7650   29.3980   43.0250 C   0  0  0  0  0  0  0  0  0  0  0  0
   39.9940   26.4400   42.8220 C   0  0  0  0  0  0  0  0  0  0  0  0
   39.0890   25.4170   42.4850 C   0  0  0  0  0  0  0  0  0  0  0  0
   37.7600   25.7460   42.3370 C   0  0  0  0  0  0  0  0  0  0  0  0
   37.3800   27.0150   42.5160 N   0  0  0  0  0  0  0  0  0  0  0  0
   38.2670   27.9980   42.8410 C   0  0  0  0  0  0  0  0  0  0  0  0
   39.5380   27.6900   42.9840 N   0  0  0  0  0  0  0  0  0  0  0  0
   36.8060   24.6610   41.9820 C   0  0  0  0  0  0  0  0  0  0  0  0
   35.5408   29.3404   41.4877 H   0  0  0  0  0  0  0  0  0  0  0  0
   35.3697   30.5009   39.3083 H   0  0  0  0  0  0  0  0  0  0  0  0
   40.9106   30.7556   38.4477 H   0  0  0  0  0  0  0  0  0  0  0  0
   42.3270   32.8878   38.0688 H   0  0  0  0  0  0  0  0  0  0  0  0
   42.0892   35.5909   38.8110 H   0  0  0  0  0  0  0  0  0  0  0  0
   40.6867   37.2141   40.0131 H   0  0  0  0  0  0  0  0  0  0  0  0
   38.5417   36.4277   41.1319 H   0  0  0  0  0  0  0  0  0  0  0  0
   37.9706   34.0320   40.9473 H   0  0  0  0  0  0  0  0  0  0  0  0
   38.5024   29.9734   43.6039 H   0  0  0  0  0  0  0  0  0  0  0  0
   36.8047   29.3631   43.5604 H   0  0  0  0  0  0  0  0  0  0  0  0
   41.0633   26.2167   42.9510 H   0  0  0  0  0  0  0  0  0  0  0  0
   39.4337   24.3820   42.3435 H   0  0  0  0  0  0  0  0  0  0  0  0
   36.4075   24.2077   42.9016 H   0  0  0  0  0  0  0  0  0  0  0  0
   35.9781   25.0796   41.3909 H   0  0  0  0  0  0  0  0  0  0  0  0
   37.3271   23.8935   41.3909 H   0  0  0  0  0  0  0  0  0  0  0  0
  1 18  1  0
  2  1  1  0
  3  2  2  0
  4  3  1  0
  4  6  1  0
  5  4  2  0
  6  7  1  0
  7  1  1  0
  7  8  2  0
  9 17  1  0
  9  6  1  0
 10  9  2  0
 11 10  1  0
 11 12  1  0
 12 13  2  0
 12 17  1  0
 13 14  1  0
 14 15  2  0
 16 15  1  0
 17 16  2  0
 19 24  2  0
 20 19  1  0
 21 20  2  0
 21 22  1  0
 22 23  2  0
 23 24  1  0
 23 18  1  0
 25 21  1  0
  2 26  1  0
  3 27  1  0
 10 28  1  0
 11 29  1  0
 13 30  1  0
 14 31  1  0
 15 32  1  0
 16 33  1  0
 18 34  1  0
 18 35  1  0
 19 36  1  0
 20 37  1  0
 25 38  1  0
 25 39  1  0
 25 40  1  0
M  ISO  8  26  14  27  14  28  14  29   9  30  14  31  14  32  14  33  14
M  ISO  7  34   8  35   8  36  14  37  14  38   8  39   8  40   8
M  END
>  <minimizedAffinity>  (1) 
-6.61629581

>  <minimizedRMSD>  (1) 
0.326856673

$$$$
