
     RDKit          3D

 39 42  0  0  0  0  0  0  0  0999 V2000
   37.5200   30.0170   41.6880 N   0  0  0  0  0  0  0  0  0  0  0  0
   36.3460   29.9300   41.0410 C   0  0  0  0  0  0  0  0  0  0  0  0
   36.2780   30.6050   39.8470 C   0  0  0  0  0  0  0  0  0  0  0  0
   37.2970   31.3360   39.2890 C   0  0  0  0  0  0  0  0  0  0  0  0
   37.1990   31.9320   38.2080 O   0  0  0  0  0  0  0  0  0  0  0  0
   38.4400   31.3610   40.0220 N   0  0  0  0  0  0  0  0  0  0  0  0
   38.5600   30.7170   41.2010 C   0  0  0  0  0  0  0  0  0  0  0  0
   39.6700   30.7960   41.8180 O   0  0  0  0  0  0  0  0  0  0  0  0
   39.5670   32.1020   39.5230 C   0  0  0  0  0  0  0  0  0  0  0  0
   40.6620   31.7470   38.7890 C   0  0  0  0  0  0  0  0  0  0  0  0
   41.4330   32.8360   38.5840 N   0  0  0  0  0  0  0  0  0  0  0  0
   40.8260   33.9070   39.1950 C   0  0  0  0  0  0  0  0  0  0  0  0
   41.1700   35.2300   39.3010 C   0  0  0  0  0  0  0  0  0  0  0  0
   40.3860   36.1330   39.9780 C   0  0  0  0  0  0  0  0  0  0  0  0
   39.1990   35.7160   40.5880 C   0  0  0  0  0  0  0  0  0  0  0  0
   38.8880   34.3750   40.4590 C   0  0  0  0  0  0  0  0  0  0  0  0
   39.6610   33.4600   39.7850 C   0  0  0  0  0  0  0  0  0  0  0  0
   37.7280   29.3490   42.9680 C   0  0  0  0  0  0  0  0  0  0  0  0
   39.7690   26.2710   42.5230 C   0  0  0  0  0  0  0  0  0  0  0  0
   38.7740   25.3000   42.3680 C   0  0  0  0  0  0  0  0  0  0  0  0
   37.4430   25.6870   42.4140 C   0  0  0  0  0  0  0  0  0  0  0  0
   37.1660   26.9880   42.6080 N   0  0  0  0  0  0  0  0  0  0  0  0
   38.1370   27.9230   42.7570 C   0  0  0  0  0  0  0  0  0  0  0  0
   39.4000   27.5390   42.7100 N   0  0  0  0  0  0  0  0  0  0  0  0
   36.4700   24.6700   42.2530 N   0  0  0  0  0  0  0  0  0  0  0  0
   35.4965   29.3568   41.4406 H   0  0  0  0  0  0  0  0  0  0  0  0
   35.3293   30.5558   39.2924 H   0  0  0  0  0  0  0  0  0  0  0  0
   40.8815   30.7334   38.4224 H   0  0  0  0  0  0  0  0  0  0  0  0
   42.3203   32.8600   38.0615 H   0  0  0  0  0  0  0  0  0  0  0  0
   42.1010   35.5789   38.8303 H   0  0  0  0  0  0  0  0  0  0  0  0
   40.6933   37.1874   40.0402 H   0  0  0  0  0  0  0  0  0  0  0  0
   38.5507   36.4138   41.1382 H   0  0  0  0  0  0  0  0  0  0  0  0
   37.9595   34.0163   40.9273 H   0  0  0  0  0  0  0  0  0  0  0  0
   38.5182   29.8733   43.5254 H   0  0  0  0  0  0  0  0  0  0  0  0
   36.7860   29.3680   43.5357 H   0  0  0  0  0  0  0  0  0  0  0  0
   40.8332   25.9946   42.4913 H   0  0  0  0  0  0  0  0  0  0  0  0
   39.0433   24.2450   42.2119 H   0  0  0  0  0  0  0  0  0  0  0  0
   35.4680   24.9071   42.2795 H   0  0  0  0  0  0  0  0  0  0  0  0
   36.7646   23.6935   42.1094 H   0  0  0  0  0  0  0  0  0  0  0  0
  1 18  1  0
  2  1  1  0
  3  2  2  0
  4  3  1  0
  4  6  1  0
  5  4  2  0
  6  7  1  0
  7  1  1  0
  7  8  2  0
  9 17  1  0
  9  6  1  0
 10  9  2  0
 11 10  1  0
 11 12  1  0
 12 13  2  0
 12 17  1  0
 13 14  1  0
 14 15  2  0
 16 15  1  0
 17 16  2  0
 19 24  2  0
 20 21  2  0
 20 19  1  0
 21 22  1  0
 22 23  2  0
 23 18  1  0
 24 23  1  0
 25 21  1  0
  2 26  1  0
  3 27  1  0
 10 28  1  0
 11 29  1  0
 13 30  1  0
 14 31  1  0
 15 32  1  0
 16 33  1  0
 18 34  1  0
 18 35  1  0
 19 36  1  0
 20 37  1  0
 25 38  1  0
 25 39  1  0
M  ISO  8  26  14  27  14  28  14  29   9  30  14  31  14  32  14  33  14
M  ISO  4  34   8  35   8  36  14  37  14
M  END
>  <minimizedAffinity>  (1) 
-6.45334148

>  <minimizedRMSD>  (1) 
0.165920228

$$$$
