
     RDKit          3D

 38 41  0  0  0  0  0  0  0  0999 V2000
   37.5410   30.0070   41.7930 N   0  0  0  0  0  0  0  0  0  0  0  0
   36.3840   29.8770   41.1190 C   0  0  0  0  0  0  0  0  0  0  0  0
   36.3300   30.5150   39.9010 C   0  0  0  0  0  0  0  0  0  0  0  0
   37.3440   31.2520   39.3450 C   0  0  0  0  0  0  0  0  0  0  0  0
   37.2560   31.8100   38.2490 O   0  0  0  0  0  0  0  0  0  0  0  0
   38.4610   31.3160   40.1090 N   0  0  0  0  0  0  0  0  0  0  0  0
   38.5780   30.7130   41.3110 C   0  0  0  0  0  0  0  0  0  0  0  0
   39.6670   30.8300   41.9560 O   0  0  0  0  0  0  0  0  0  0  0  0
   39.5900   32.0700   39.6120 C   0  0  0  0  0  0  0  0  0  0  0  0
   40.7100   31.7170   38.9150 C   0  0  0  0  0  0  0  0  0  0  0  0
   41.4710   32.8090   38.6880 N   0  0  0  0  0  0  0  0  0  0  0  0
   40.8290   33.8850   39.2500 C   0  0  0  0  0  0  0  0  0  0  0  0
   41.1280   35.2200   39.3290 C   0  0  0  0  0  0  0  0  0  0  0  0
   40.3170   36.1340   39.9550 C   0  0  0  0  0  0  0  0  0  0  0  0
   39.1340   35.7130   40.5450 C   0  0  0  0  0  0  0  0  0  0  0  0
   38.8510   34.3560   40.4530 C   0  0  0  0  0  0  0  0  0  0  0  0
   39.6560   33.4350   39.8280 C   0  0  0  0  0  0  0  0  0  0  0  0
   37.7240   29.3820   43.0870 C   0  0  0  0  0  0  0  0  0  0  0  0
   40.0430   26.4960   43.1640 C   0  0  0  0  0  0  0  0  0  0  0  0
   39.2540   25.4740   42.6400 C   0  0  0  0  0  0  0  0  0  0  0  0
   37.9580   25.7620   42.2670 C   0  0  0  0  0  0  0  0  0  0  0  0
   37.5050   27.0180   42.4240 N   0  0  0  0  0  0  0  0  0  0  0  0
   38.2960   28.0050   42.9410 C   0  0  0  0  0  0  0  0  0  0  0  0
   39.5370   27.7270   43.2960 N   0  0  0  0  0  0  0  0  0  0  0  0
   36.9630   24.4380   41.5970 S   0  0  0  0  0  0  0  0  0  0  0  0
   35.5366   29.2985   41.5156 H   0  0  0  0  0  0  0  0  0  0  0  0
   35.3965   30.4265   39.3259 H   0  0  0  0  0  0  0  0  0  0  0  0
   40.9554   30.6960   38.5875 H   0  0  0  0  0  0  0  0  0  0  0  0
   42.3695   32.8310   38.1849 H   0  0  0  0  0  0  0  0  0  0  0  0
   42.0617   35.5761   38.8692 H   0  0  0  0  0  0  0  0  0  0  0  0
   40.6039   37.1954   39.9886 H   0  0  0  0  0  0  0  0  0  0  0  0
   38.4583   36.4141   41.0567 H   0  0  0  0  0  0  0  0  0  0  0  0
   37.9189   33.9945   40.9118 H   0  0  0  0  0  0  0  0  0  0  0  0
   38.4109   29.9951   43.6889 H   0  0  0  0  0  0  0  0  0  0  0  0
   36.7442   29.3044   43.5809 H   0  0  0  0  0  0  0  0  0  0  0  0
   41.0799   26.2908   43.4685 H   0  0  0  0  0  0  0  0  0  0  0  0
   39.6572   24.4569   42.5260 H   0  0  0  0  0  0  0  0  0  0  0  0
   36.4177   23.7123   42.6231 H   0  0  0  0  0  0  0  0  0  0  0  0
  1 18  1  0
  2  1  1  0
  3  2  2  0
  4  3  1  0
  4  6  1  0
  5  4  2  0
  6  7  1  0
  7  1  1  0
  7  8  2  0
  9 17  1  0
  9  6  1  0
 10  9  2  0
 11 10  1  0
 11 12  1  0
 12 13  2  0
 12 17  1  0
 13 14  1  0
 14 15  2  0
 16 15  1  0
 17 16  2  0
 19 24  2  0
 20 19  1  0
 21 22  1  0
 21 20  2  0
 22 23  2  0
 23 18  1  0
 23 24  1  0
 25 21  1  0
  2 26  1  0
  3 27  1  0
 10 28  1  0
 11 29  1  0
 13 30  1  0
 14 31  1  0
 15 32  1  0
 16 33  1  0
 18 34  1  0
 18 35  1  0
 19 36  1  0
 20 37  1  0
 25 38  1  0
M  ISO  8  26  14  27  14  28  14  29   9  30  14  31  14  32  14  33  14
M  ISO  5  34   8  35   8  36  14  37  14  38  11
M  END
>  <minimizedAffinity>  (1) 
-6.44537258

>  <minimizedRMSD>  (1) 
0.469531387

$$$$
