
     RDKit          3D

 26 28  0  0  0  0  0  0  0  0999 V2000
   37.7260   28.3940   43.4420 C   0  0  0  0  0  0  0  0  0  0  0  0
   37.0480   28.4500   44.5030 O   0  0  0  0  0  0  0  0  0  0  0  0
   38.4110   27.1100   43.2920 C   0  0  0  0  0  0  0  0  0  0  0  0
   39.5820   26.7150   43.9120 C   0  0  0  0  0  0  0  0  0  0  0  0
   39.9320   25.4680   43.5500 N   0  0  0  0  0  0  0  0  0  0  0  0
   39.0020   25.0000   42.6770 C   0  0  0  0  0  0  0  0  0  0  0  0
   38.8400   23.8110   41.9860 C   0  0  0  0  0  0  0  0  0  0  0  0
   37.7600   23.6130   41.1420 C   0  0  0  0  0  0  0  0  0  0  0  0
   36.8510   24.6350   41.0080 C   0  0  0  0  0  0  0  0  0  0  0  0
   36.9880   25.8270   41.6830 C   0  0  0  0  0  0  0  0  0  0  0  0
   38.0670   26.0160   42.5220 C   0  0  0  0  0  0  0  0  0  0  0  0
   39.1610   31.2610   41.6020 C   0  0  0  0  0  0  0  0  0  0  0  0
   39.0140   30.1720   42.4640 C   0  0  0  0  0  0  0  0  0  0  0  0
   37.7780   29.5060   42.5200 C   0  0  0  0  0  0  0  0  0  0  0  0
   36.7870   29.9640   41.7250 N   0  0  0  0  0  0  0  0  0  0  0  0
   36.9500   31.0110   40.9050 C   0  0  0  0  0  0  0  0  0  0  0  0
   38.1150   31.6560   40.8370 N   0  0  0  0  0  0  0  0  0  0  0  0
   40.1545   27.3410   44.6122 H   0  0  0  0  0  0  0  0  0  0  0  0
   40.7629   24.9554   43.8784 H   0  0  0  0  0  0  0  0  0  0  0  0
   39.5827   23.0091   42.1097 H   0  0  0  0  0  0  0  0  0  0  0  0
   37.6336   22.6667   40.5956 H   0  0  0  0  0  0  0  0  0  0  0  0
   35.9874   24.4963   40.3409 H   0  0  0  0  0  0  0  0  0  0  0  0
   36.2413   26.6244   41.5542 H   0  0  0  0  0  0  0  0  0  0  0  0
   40.1209   31.7951   41.5445 H   0  0  0  0  0  0  0  0  0  0  0  0
   39.8548   29.8400   43.0908 H   0  0  0  0  0  0  0  0  0  0  0  0
   36.1096   31.3437   40.2781 H   0  0  0  0  0  0  0  0  0  0  0  0
  1  2  2  0
  3  1  1  0
  3  4  2  0
  5  4  1  0
  6  5  1  0
  7  6  2  0
  8  7  1  0
  9  8  2  0
  9 10  1  0
 10 11  2  0
 11  6  1  0
 11  3  1  0
 12 13  2  0
 13 14  1  0
 14  1  1  0
 15 14  2  0
 16 15  1  0
 17 16  2  0
 17 12  1  0
  4 18  1  0
  5 19  1  0
  7 20  1  0
  8 21  1  0
  9 22  1  0
 10 23  1  0
 12 24  1  0
 13 25  1  0
 16 26  1  0
M  ISO  8  18  14  19   9  20  14  21  14  22  14  23  14  24  14  25  14
M  ISO  1  26  14
M  END
>  <minimizedAffinity>  (1) 
-5.34656763

>  <minimizedRMSD>  (1) 
0.885830522

$$$$
