
     RDKit          3D

 23 25  0  0  0  0  0  0  0  0999 V2000
   37.7190   28.0990   43.6060 C   0  0  0  0  0  0  0  0  0  0  0  0
   36.9580   28.0680   44.6060 O   0  0  0  0  0  0  0  0  0  0  0  0
   38.2590   23.7590   41.8780 N   0  0  0  0  0  0  0  0  0  0  0  0
   37.0530   24.3000   41.6180 C   0  0  0  0  0  0  0  0  0  0  0  0
   36.9290   25.5430   42.1260 N   0  0  0  0  0  0  0  0  0  0  0  0
   38.1130   25.8190   42.7440 C   0  0  0  0  0  0  0  0  0  0  0  0
   38.5870   26.9160   43.4350 C   0  0  0  0  0  0  0  0  0  0  0  0
   39.8410   26.8850   43.9450 N   0  0  0  0  0  0  0  0  0  0  0  0
   40.5920   25.7660   43.7540 C   0  0  0  0  0  0  0  0  0  0  0  0
   40.1690   24.6580   43.0790 N   0  0  0  0  0  0  0  0  0  0  0  0
   38.9160   24.6970   42.5740 C   0  0  0  0  0  0  0  0  0  0  0  0
   39.0460   30.9900   41.7420 C   0  0  0  0  0  0  0  0  0  0  0  0
   38.9550   29.9200   42.6390 C   0  0  0  0  0  0  0  0  0  0  0  0
   37.7690   29.1880   42.6730 C   0  0  0  0  0  0  0  0  0  0  0  0
   36.7690   29.5490   41.8390 N   0  0  0  0  0  0  0  0  0  0  0  0
   36.8940   30.5970   40.9800 C   0  0  0  0  0  0  0  0  0  0  0  0
   38.0210   31.3150   40.9280 N   0  0  0  0  0  0  0  0  0  0  0  0
   38.6014   22.8276   41.6021 H   0  0  0  0  0  0  0  0  0  0  0  0
   36.2596   23.7863   41.0553 H   0  0  0  0  0  0  0  0  0  0  0  0
   41.6093   25.7540   44.1723 H   0  0  0  0  0  0  0  0  0  0  0  0
   39.9740   31.5791   41.6998 H   0  0  0  0  0  0  0  0  0  0  0  0
   39.7964   29.6633   43.2994 H   0  0  0  0  0  0  0  0  0  0  0  0
   36.0550   30.8576   40.3181 H   0  0  0  0  0  0  0  0  0  0  0  0
  1  2  2  0
  3 11  1  0
  4  3  1  0
  4  5  2  0
  5  6  1  0
  6  7  1  0
  7  1  1  0
  7  8  2  0
  9  8  1  0
 10  9  2  0
 11  6  2  0
 11 10  1  0
 12 13  2  0
 13 14  1  0
 14  1  1  0
 15 14  2  0
 16 15  1  0
 17 16  2  0
 17 12  1  0
  3 18  1  0
  4 19  1  0
  9 20  1  0
 12 21  1  0
 13 22  1  0
 16 23  1  0
M  ISO  6  18   9  19  14  20  14  21  14  22  14  23  14
M  END
>  <minimizedAffinity>  (1) 
-5.12010384

>  <minimizedRMSD>  (1) 
1.27226555

$$$$
