
     RDKit          3D

 22 23  0  0  0  0  0  0  0  0999 V2000
   37.5860   28.2520   43.6440 C   0  0  0  0  0  0  0  0  0  0  0  0
   36.8750   28.3780   44.6810 O   0  0  0  0  0  0  0  0  0  0  0  0
   39.1710   31.0430   41.7790 C   0  0  0  0  0  0  0  0  0  0  0  0
   39.0240   29.9950   42.6920 C   0  0  0  0  0  0  0  0  0  0  0  0
   37.7770   29.3460   42.7080 C   0  0  0  0  0  0  0  0  0  0  0  0
   36.7990   29.7680   41.8470 N   0  0  0  0  0  0  0  0  0  0  0  0
   36.9990   30.7810   40.9910 C   0  0  0  0  0  0  0  0  0  0  0  0
   38.1720   31.4110   40.9590 N   0  0  0  0  0  0  0  0  0  0  0  0
   38.2630   26.9750   43.3310 C   0  0  0  0  0  0  0  0  0  0  0  0
   37.6080   26.1420   42.4470 C   0  0  0  0  0  0  0  0  0  0  0  0
   38.2140   24.9490   42.1390 C   0  0  0  0  0  0  0  0  0  0  0  0
   39.4460   24.6300   42.7210 C   0  0  0  0  0  0  0  0  0  0  0  0
   40.0920   25.4720   43.6040 C   0  0  0  0  0  0  0  0  0  0  0  0
   39.4780   26.6680   43.9100 C   0  0  0  0  0  0  0  0  0  0  0  0
   40.1295   31.5806   41.7304 H   0  0  0  0  0  0  0  0  0  0  0  0
   39.8417   29.6936   43.3633 H   0  0  0  0  0  0  0  0  0  0  0  0
   36.1911   31.0927   40.3127 H   0  0  0  0  0  0  0  0  0  0  0  0
   36.6396   26.4224   42.0069 H   0  0  0  0  0  0  0  0  0  0  0  0
   37.7343   24.2487   41.4394 H   0  0  0  0  0  0  0  0  0  0  0  0
   39.9185   23.6703   42.4648 H   0  0  0  0  0  0  0  0  0  0  0  0
   41.0610   25.1987   44.0472 H   0  0  0  0  0  0  0  0  0  0  0  0
   39.9524   27.3718   44.6097 H   0  0  0  0  0  0  0  0  0  0  0  0
  1  2  2  0
  3  4  2  0
  4  5  1  0
  5  1  1  0
  6  5  2  0
  7  6  1  0
  8  7  2  0
  8  3  1  0
  9  1  1  0
  9 14  1  0
 10  9  2  0
 11 10  1  0
 11 12  2  0
 12 13  1  0
 13 14  2  0
  3 15  1  0
  4 16  1  0
  7 17  1  0
 10 18  1  0
 11 19  1  0
 12 20  1  0
 13 21  1  0
 14 22  1  0
M  ISO  8  15  14  16  14  17  14  18  14  19  14  20  14  21  14  22  14
M  END
>  <minimizedAffinity>  (1) 
-4.80889416

>  <minimizedRMSD>  (1) 
0.788817286

$$$$
