
     RDKit          3D

 19 20  0  0  0  0  0  0  0  0999 V2000
   39.2440   31.0920   41.7900 C   0  0  0  0  0  0  0  0  0  0  0  0
   39.0600   30.0100   42.6870 C   0  0  0  0  0  0  0  0  0  0  0  0
   37.8340   29.3680   42.6800 C   0  0  0  0  0  0  0  0  0  0  0  0
   36.8660   29.7870   41.8350 N   0  0  0  0  0  0  0  0  0  0  0  0
   37.0700   30.8230   40.9890 C   0  0  0  0  0  0  0  0  0  0  0  0
   38.2460   31.4830   40.9540 N   0  0  0  0  0  0  0  0  0  0  0  0
   37.6820   28.2810   43.5980 C   0  0  0  0  0  0  0  0  0  0  0  0
   36.9610   28.2640   44.6070 O   0  0  0  0  0  0  0  0  0  0  0  0
   38.4490   27.0270   43.3540 C   0  0  0  0  0  0  0  0  0  0  0  0
   39.6200   26.5950   43.9320 C   0  0  0  0  0  0  0  0  0  0  0  0
   40.1060   25.3980   43.5190 C   0  0  0  0  0  0  0  0  0  0  0  0
   39.4250   24.6560   42.5450 C   0  0  0  0  0  0  0  0  0  0  0  0
   37.9570   25.7690   42.1880 S   0  0  0  0  0  0  0  0  0  0  0  0
   40.2074   31.6225   41.7701 H   0  0  0  0  0  0  0  0  0  0  0  0
   39.8647   29.6913   43.3659 H   0  0  0  0  0  0  0  0  0  0  0  0
   36.2586   31.1341   40.3145 H   0  0  0  0  0  0  0  0  0  0  0  0
   40.1391   27.1936   44.6951 H   0  0  0  0  0  0  0  0  0  0  0  0
   41.0394   25.0078   43.9509 H   0  0  0  0  0  0  0  0  0  0  0  0
   39.6824   23.6806   42.1063 H   0  0  0  0  0  0  0  0  0  0  0  0
  1  2  2  0
  3  2  1  0
  3  7  1  0
  4  3  2  0
  5  4  1  0
  6  5  2  0
  6  1  1  0
  7  8  2  0
  9  7  1  0
  9 10  2  0
 11 10  1  0
 12 11  2  0
 13 12  1  0
 13  9  1  0
  1 14  1  0
  2 15  1  0
  5 16  1  0
 10 17  1  0
 11 18  1  0
 12 19  1  0
M  ISO  6  14  14  15  14  16  14  17  14  18  14  19  14
M  END
>  <minimizedAffinity>  (1) 
-4.22661161

>  <minimizedRMSD>  (1) 
0.89259094

$$$$
