
     RDKit          3D

 26 27  0  0  1  0  0  0  0  0999 V2000
   39.1500   31.2830   39.4350 C   0  0  0  0  0  0  0  0  0  0  0  0
   38.9250   30.3800   40.4870 C   0  0  0  0  0  0  0  0  0  0  0  0
   37.7160   30.4340   41.1770 C   0  0  0  0  0  0  0  0  0  0  0  0
   36.8050   31.3720   40.7900 N   0  0  0  0  0  0  0  0  0  0  0  0
   37.0480   32.2230   39.7800 C   0  0  0  0  0  0  0  0  0  0  0  0
   38.2120   32.1870   39.0990 N   0  0  0  0  0  0  0  0  0  0  0  0
   37.5660   29.4780   42.2350 C   0  0  0  0  0  0  0  0  0  0  0  0
   38.2640   29.4590   43.2620 O   0  0  0  0  0  0  0  0  0  0  0  0
   36.5030   28.4380   42.0940 C   0  0  1  0  0  0  0  0  0  0  0  0
   36.3240   28.0340   40.6700 C   0  0  0  0  0  0  0  0  0  0  0  0
   36.8110   26.6750   40.3270 C   0  0  0  0  0  0  0  0  0  0  0  0
   37.8820   26.0970   41.1810 C   0  0  0  0  0  0  0  0  0  0  0  0
   37.7290   26.3160   42.6520 C   0  0  0  0  0  0  0  0  0  0  0  0
   36.6700   27.2850   43.0360 C   0  0  0  0  0  0  0  0  0  0  0  0
   40.1002   31.2508   38.8817 H   0  0  0  0  0  0  0  0  0  0  0  0
   39.6921   29.6411   40.7620 H   0  0  0  0  0  0  0  0  0  0  0  0
   36.2834   32.9636   39.5027 H   0  0  0  0  0  0  0  0  0  0  0  0
   35.5558   28.9019   42.4065 H   0  0  0  0  0  0  0  0  0  0  0  0
   35.2498   28.0781   40.4374 H   0  0  0  0  0  0  0  0  0  0  0  0
   36.9340   28.7324   40.0783 H   0  0  0  0  0  0  0  0  0  0  0  0
   35.9485   25.9939   40.3730 H   0  0  0  0  0  0  0  0  0  0  0  0
   37.2706   26.7830   39.3334 H   0  0  0  0  0  0  0  0  0  0  0  0
   38.7329   25.5434   40.7574 H   0  0  0  0  0  0  0  0  0  0  0  0
   38.3539   25.7983   43.3947 H   0  0  0  0  0  0  0  0  0  0  0  0
   36.9181   27.6875   44.0292 H   0  0  0  0  0  0  0  0  0  0  0  0
   35.7205   26.7299   43.0179 H   0  0  0  0  0  0  0  0  0  0  0  0
  1  2  2  0
  2  3  1  0
  3  7  1  0
  4  3  2  0
  5  4  1  0
  6  1  1  0
  6  5  2  0
  7  8  2  0
  9  7  1  0
  9 14  1  0
 10  9  1  0
 11 10  1  0
 11 12  1  0
 12 13  2  0
 13 14  1  0
  1 15  1  0
  2 16  1  0
  5 17  1  0
  9 18  1  1
 10 19  1  0
 10 20  1  0
 11 21  1  0
 11 22  1  0
 12 23  1  0
 13 24  1  0
 14 25  1  0
 14 26  1  0
M  ISO  8  15  14  16  14  17  14  18  13  19  13  20  13  21  13  22  13
M  ISO  4  23  13  24  13  25  13  26  13
M  END
>  <minimizedAffinity>  (1) 
-4.19128847

>  <minimizedRMSD>  (1) 
2.82031846

$$$$
