
     RDKit          3D

 19 20  0  0  0  0  0  0  0  0999 V2000
   39.2390   31.0740   41.8110 C   0  0  0  0  0  0  0  0  0  0  0  0
   39.0610   29.9950   42.7190 C   0  0  0  0  0  0  0  0  0  0  0  0
   37.8390   29.3440   42.7070 C   0  0  0  0  0  0  0  0  0  0  0  0
   36.8720   29.7400   41.8540 N   0  0  0  0  0  0  0  0  0  0  0  0
   37.0710   30.7790   40.9930 C   0  0  0  0  0  0  0  0  0  0  0  0
   38.2350   31.4440   40.9630 N   0  0  0  0  0  0  0  0  0  0  0  0
   37.6960   28.2620   43.6300 C   0  0  0  0  0  0  0  0  0  0  0  0
   36.9590   28.2520   44.6270 O   0  0  0  0  0  0  0  0  0  0  0  0
   39.0270   25.0800   42.5320 N   0  0  0  0  0  0  0  0  0  0  0  0
   38.1420   26.0670   42.5310 N   0  0  0  0  0  0  0  0  0  0  0  0
   38.4790   27.0390   43.4050 C   0  0  0  0  0  0  0  0  0  0  0  0
   39.6450   26.5940   43.9600 C   0  0  0  0  0  0  0  0  0  0  0  0
   39.9890   25.3760   43.4200 C   0  0  0  0  0  0  0  0  0  0  0  0
   40.1957   31.6166   41.7913 H   0  0  0  0  0  0  0  0  0  0  0  0
   39.8640   29.6886   43.4055 H   0  0  0  0  0  0  0  0  0  0  0  0
   36.2615   31.0770   40.3105 H   0  0  0  0  0  0  0  0  0  0  0  0
   38.9838   24.2309   41.9506 H   0  0  0  0  0  0  0  0  0  0  0  0
   40.2240   27.1305   44.7261 H   0  0  0  0  0  0  0  0  0  0  0  0
   40.8725   24.7686   43.6660 H   0  0  0  0  0  0  0  0  0  0  0  0
  1  2  2  0
  3  2  1  0
  3  7  1  0
  4  3  2  0
  5  4  1  0
  6  5  2  0
  6  1  1  0
  7  8  2  0
  9 13  1  0
 10  9  1  0
 10 11  2  0
 11  7  1  0
 11 12  1  0
 13 12  2  0
  1 14  1  0
  2 15  1  0
  5 16  1  0
  9 17  1  0
 12 18  1  0
 13 19  1  0
M  ISO  6  14  14  15  14  16  14  17   9  18  14  19  14
M  END
>  <minimizedAffinity>  (1) 
-4.10847521

>  <minimizedRMSD>  (1) 
0.810314298

$$$$
