
     RDKit          3D

 19 20  0  0  0  0  0  0  0  0999 V2000
   39.2090   31.0350   41.8270 C   0  0  0  0  0  0  0  0  0  0  0  0
   39.1040   29.9580   42.7150 C   0  0  0  0  0  0  0  0  0  0  0  0
   37.8990   29.2740   42.7300 C   0  0  0  0  0  0  0  0  0  0  0  0
   36.8950   29.6670   41.9030 N   0  0  0  0  0  0  0  0  0  0  0  0
   37.0420   30.7160   41.0590 C   0  0  0  0  0  0  0  0  0  0  0  0
   38.1880   31.3950   41.0200 N   0  0  0  0  0  0  0  0  0  0  0  0
   37.7640   28.1520   43.6420 C   0  0  0  0  0  0  0  0  0  0  0  0
   36.9430   28.1390   44.6040 O   0  0  0  0  0  0  0  0  0  0  0  0
   38.5970   26.9630   43.4750 C   0  0  0  0  0  0  0  0  0  0  0  0
   38.4090   26.0150   42.4860 C   0  0  0  0  0  0  0  0  0  0  0  0
   39.3500   25.0600   42.6250 N   0  0  0  0  0  0  0  0  0  0  0  0
   40.1040   25.4310   43.6960 C   0  0  0  0  0  0  0  0  0  0  0  0
   39.6640   26.5940   44.2340 N   0  0  0  0  0  0  0  0  0  0  0  0
   40.1495   31.6039   41.7854 H   0  0  0  0  0  0  0  0  0  0  0  0
   39.9388   29.6683   43.3701 H   0  0  0  0  0  0  0  0  0  0  0  0
   36.2103   31.0093   40.4016 H   0  0  0  0  0  0  0  0  0  0  0  0
   37.6240   26.0366   41.7158 H   0  0  0  0  0  0  0  0  0  0  0  0
   40.9626   24.8585   44.0768 H   0  0  0  0  0  0  0  0  0  0  0  0
   40.0547   27.0931   45.0459 H   0  0  0  0  0  0  0  0  0  0  0  0
  1  2  2  0
  2  3  1  0
  3  7  1  0
  4  3  2  0
  5  4  1  0
  6  5  2  0
  6  1  1  0
  7  8  2  0
  9  7  1  0
  9 13  1  0
 10 11  1  0
 10  9  2  0
 11 12  2  0
 12 13  1  0
  1 14  1  0
  2 15  1  0
  5 16  1  0
 10 17  1  0
 12 18  1  0
 13 19  1  0
M  ISO  6  14  14  15  14  16  14  17  14  18  14  19   9
M  END
>  <minimizedAffinity>  (1) 
-4.06190109

>  <minimizedRMSD>  (1) 
1.08657765

$$$$
