
     RDKit          3D

 25 26  0  0  0  0  0  0  0  0999 V2000
   38.7540   31.6900   41.1360 C   0  0  0  0  0  0  0  0  0  0  0  0
   38.9730   30.6050   41.9860 C   0  0  0  0  0  0  0  0  0  0  0  0
   37.9170   29.7240   42.2620 C   0  0  0  0  0  0  0  0  0  0  0  0
   36.7090   29.9770   41.6740 N   0  0  0  0  0  0  0  0  0  0  0  0
   36.5350   31.0330   40.8600 C   0  0  0  0  0  0  0  0  0  0  0  0
   37.5340   31.8950   40.5780 N   0  0  0  0  0  0  0  0  0  0  0  0
   38.1810   28.6250   43.1380 C   0  0  0  0  0  0  0  0  0  0  0  0
   37.4270   28.3080   44.0990 O   0  0  0  0  0  0  0  0  0  0  0  0
   39.4200   27.8110   42.8950 C   0  0  0  0  0  0  0  0  0  0  0  0
   39.6150   26.7670   43.9900 C   0  0  0  0  0  0  0  0  0  0  0  0
   39.5370   25.4250   43.2850 C   0  0  0  0  0  0  0  0  0  0  0  0
   38.5050   25.7610   42.2020 C   0  0  0  0  0  0  0  0  0  0  0  0
   39.1840   27.0080   41.6240 C   0  0  0  0  0  0  0  0  0  0  0  0
   39.5776   32.3853   40.9163 H   0  0  0  0  0  0  0  0  0  0  0  0
   39.9639   30.4423   42.4351 H   0  0  0  0  0  0  0  0  0  0  0  0
   35.5456   31.1996   40.4091 H   0  0  0  0  0  0  0  0  0  0  0  0
   40.2839   28.4905   42.8500 H   0  0  0  0  0  0  0  0  0  0  0  0
   40.5961   26.8926   44.4713 H   0  0  0  0  0  0  0  0  0  0  0  0
   38.8571   26.8580   44.7820 H   0  0  0  0  0  0  0  0  0  0  0  0
   40.5051   25.1333   42.8516 H   0  0  0  0  0  0  0  0  0  0  0  0
   39.2747   24.5740   43.9307 H   0  0  0  0  0  0  0  0  0  0  0  0
   38.4092   24.9577   41.4567 H   0  0  0  0  0  0  0  0  0  0  0  0
   37.4711   25.8977   42.5519 H   0  0  0  0  0  0  0  0  0  0  0  0
   40.1294   26.7586   41.1200 H   0  0  0  0  0  0  0  0  0  0  0  0
   38.5997   27.5319   40.8532 H   0  0  0  0  0  0  0  0  0  0  0  0
  1  2  2  0
  2  3  1  0
  3  7  1  0
  4  3  2  0
  5  4  1  0
  6  5  2  0
  6  1  1  0
  7  8  2  0
  9  7  1  0
  9 10  1  0
 11 10  1  0
 12 11  1  0
 13 12  1  0
 13  9  1  0
  1 14  1  0
  2 15  1  0
  5 16  1  0
  9 17  1  0
 10 18  1  0
 10 19  1  0
 11 20  1  0
 11 21  1  0
 12 22  1  0
 12 23  1  0
 13 24  1  0
 13 25  1  0
M  ISO  8  14  14  15  14  16  14  17  13  18  13  19  13  20  13  21  13
M  ISO  4  22  13  23  13  24  13  25  13
M  END
>  <minimizedAffinity>  (1) 
-4.04888344

>  <minimizedRMSD>  (1) 
1.67174423

$$$$
