
     RDKit          3D

 38 39  0  0  1  0  0  0  0  0999 V2000
   38.2910   28.7020   43.2450 C   0  0  0  0  0  0  0  0  0  0  0  0
   37.4310   28.6390   44.1500 O   0  0  0  0  0  0  0  0  0  0  0  0
   39.1540   27.5620   43.0170 N   0  0  0  0  0  0  0  0  0  0  0  0
   40.5150   27.6040   43.4940 C   0  0  0  0  0  0  0  0  0  0  0  0
   41.0550   26.2990   43.9820 C   0  0  0  0  0  0  0  0  0  0  0  0
   40.7500   25.2100   43.1040 N   0  0  0  0  0  0  0  0  0  0  0  0
   39.3320   25.1210   42.8240 C   0  0  0  0  0  0  0  0  0  0  0  0
   38.7090   26.3920   42.3380 C   0  0  1  0  0  0  0  0  0  0  0  0
   39.8110   31.7540   41.7790 C   0  0  0  0  0  0  0  0  0  0  0  0
   39.6130   30.6320   42.5690 C   0  0  0  0  0  0  0  0  0  0  0  0
   38.4670   29.8640   42.4070 C   0  0  0  0  0  0  0  0  0  0  0  0
   37.5900   30.2750   41.4580 N   0  0  0  0  0  0  0  0  0  0  0  0
   37.7900   31.3530   40.7060 C   0  0  0  0  0  0  0  0  0  0  0  0
   38.8970   32.1120   40.8480 N   0  0  0  0  0  0  0  0  0  0  0  0
   37.2490   26.1310   42.2510 C   0  0  0  0  0  0  0  0  0  0  0  0
   36.8480   26.7950   40.9140 C   0  0  0  0  0  0  0  0  0  0  0  0
   36.4080   26.8720   43.2510 C   0  0  0  0  0  0  0  0  0  0  0  0
   36.8730   24.6870   42.0990 C   0  0  0  0  0  0  0  0  0  0  0  0
   41.1549   27.9508   42.6692 H   0  0  0  0  0  0  0  0  0  0  0  0
   40.5153   28.2800   44.3618 H   0  0  0  0  0  0  0  0  0  0  0  0
   42.1481   26.3824   44.0721 H   0  0  0  0  0  0  0  0  0  0  0  0
   40.5811   26.0859   44.9515 H   0  0  0  0  0  0  0  0  0  0  0  0
   41.2564   25.3456   42.2174 H   0  0  0  0  0  0  0  0  0  0  0  0
   39.1827   24.3500   42.0538 H   0  0  0  0  0  0  0  0  0  0  0  0
   38.8416   24.8801   43.7787 H   0  0  0  0  0  0  0  0  0  0  0  0
   39.0534   26.6678   41.3304 H   0  0  0  0  0  0  0  0  0  0  0  0
   40.7202   32.3591   41.9105 H   0  0  0  0  0  0  0  0  0  0  0  0
   40.3626   30.3503   43.3232 H   0  0  0  0  0  0  0  0  0  0  0  0
   37.0382   31.6319   39.9530 H   0  0  0  0  0  0  0  0  0  0  0  0
   36.2891   27.7204   41.1173 H   0  0  0  0  0  0  0  0  0  0  0  0
   37.7536   27.0329   40.3366 H   0  0  0  0  0  0  0  0  0  0  0  0
   36.2159   26.1043   40.3366 H   0  0  0  0  0  0  0  0  0  0  0  0
   36.7207   26.5964   44.2690 H   0  0  0  0  0  0  0  0  0  0  0  0
   36.5375   27.9550   43.1082 H   0  0  0  0  0  0  0  0  0  0  0  0
   35.3499   26.6072   43.1082 H   0  0  0  0  0  0  0  0  0  0  0  0
   36.7546   24.2323   43.0936 H   0  0  0  0  0  0  0  0  0  0  0  0
   35.9252   24.6112   41.5460 H   0  0  0  0  0  0  0  0  0  0  0  0
   37.6635   24.1585   41.5460 H   0  0  0  0  0  0  0  0  0  0  0  0
  1  2  2  0
  3  1  1  0
  3  4  1  0
  4  5  1  0
  6  5  1  0
  7  6  1  0
  8  7  1  0
  8  3  1  0
  9 10  2  0
 11 10  1  0
 11  1  1  0
 12 11  2  0
 13 14  2  0
 13 12  1  0
 14  9  1  0
 15  8  1  0
 15 17  1  0
 16 15  1  0
 18 15  1  0
  4 19  1  0
  4 20  1  0
  5 21  1  0
  5 22  1  0
  6 23  1  0
  7 24  1  0
  7 25  1  0
  8 26  1  6
  9 27  1  0
 10 28  1  0
 13 29  1  0
 16 30  1  0
 16 31  1  0
 16 32  1  0
 17 33  1  0
 17 34  1  0
 17 35  1  0
 18 36  1  0
 18 37  1  0
 18 38  1  0
M  ISO  8  19  13  20  13  21  13  22  13  23   5  24  13  25  13  26  13
M  ISO  8  27  14  28  14  29  14  30   8  31   8  32   8  33   8  34   8
M  ISO  4  35   8  36   8  37   8  38   8
M  END
>  <minimizedAffinity>  (1) 
-5.31047297

>  <minimizedRMSD>  (1) 
1.70055044

$$$$
