
     RDKit          3D

 33 35  0  0  1  0  0  0  0  0999 V2000
   37.4750   27.8390   43.2880 C   0  0  0  0  0  0  0  0  0  0  0  0
   36.7140   27.8050   44.3080 O   0  0  0  0  0  0  0  0  0  0  0  0
   38.0430   26.5870   42.8200 N   0  0  0  0  0  0  0  0  0  0  0  0
   39.4350   26.2780   43.0790 C   0  0  0  0  0  0  0  0  0  0  0  0
   39.6930   24.8240   43.2660 C   0  0  0  0  0  0  0  0  0  0  0  0
   38.9950   23.9680   42.3640 N   0  0  0  0  0  0  0  0  0  0  0  0
   37.5860   24.2310   42.2910 C   0  0  0  0  0  0  0  0  0  0  0  0
   37.1990   25.6540   42.1120 C   0  0  2  0  0  0  0  0  0  0  0  0
   39.3570   30.8100   42.1540 C   0  0  0  0  0  0  0  0  0  0  0  0
   39.0250   29.6400   42.8190 C   0  0  0  0  0  0  0  0  0  0  0  0
   37.7940   29.0520   42.5830 C   0  0  0  0  0  0  0  0  0  0  0  0
   36.9610   29.6580   41.7010 N   0  0  0  0  0  0  0  0  0  0  0  0
   37.3200   30.7940   41.0740 C   0  0  0  0  0  0  0  0  0  0  0  0
   38.4970   31.3820   41.2800 N   0  0  0  0  0  0  0  0  0  0  0  0
   37.2320   25.9890   40.6740 C   0  0  0  0  0  0  0  0  0  0  0  0
   36.4780   26.7740   39.8350 C   0  0  0  0  0  0  0  0  0  0  0  0
   36.9510   26.7360   38.5470 C   0  0  0  0  0  0  0  0  0  0  0  0
   38.0260   25.8910   38.6540 C   0  0  0  0  0  0  0  0  0  0  0  0
   38.1630   25.4820   39.8710 O   0  0  0  0  0  0  0  0  0  0  0  0
   40.0350   26.6319   42.2276 H   0  0  0  0  0  0  0  0  0  0  0  0
   39.7096   26.7799   44.0185 H   0  0  0  0  0  0  0  0  0  0  0  0
   40.7714   24.6493   43.1371 H   0  0  0  0  0  0  0  0  0  0  0  0
   39.3278   24.5736   44.2729 H   0  0  0  0  0  0  0  0  0  0  0  0
   39.3974   24.0894   41.4237 H   0  0  0  0  0  0  0  0  0  0  0  0
   37.1808   23.6623   41.4411 H   0  0  0  0  0  0  0  0  0  0  0  0
   37.1769   23.9323   43.2675 H   0  0  0  0  0  0  0  0  0  0  0  0
   36.1883   25.7528   42.5347 H   0  0  0  0  0  0  0  0  0  0  0  0
   40.3339   31.2803   42.3395 H   0  0  0  0  0  0  0  0  0  0  0  0
   39.7323   29.1834   43.5270 H   0  0  0  0  0  0  0  0  0  0  0  0
   36.6151   31.2534   40.3654 H   0  0  0  0  0  0  0  0  0  0  0  0
   35.6041   27.3599   40.1558 H   0  0  0  0  0  0  0  0  0  0  0  0
   36.5657   27.2522   37.6553 H   0  0  0  0  0  0  0  0  0  0  0  0
   38.6807   25.6018   37.8187 H   0  0  0  0  0  0  0  0  0  0  0  0
  1  2  2  0
  3  4  1  0
  3  1  1  0
  4  5  1  0
  6  5  1  0
  7  6  1  0
  8  7  1  0
  8  3  1  0
  9 10  2  0
 11 10  1  0
 11  1  1  0
 12 11  2  0
 13 14  2  0
 13 12  1  0
 14  9  1  0
 15  8  1  0
 16 15  2  0
 17 18  2  0
 17 16  1  0
 18 19  1  0
 19 15  1  0
  4 20  1  0
  4 21  1  0
  5 22  1  0
  5 23  1  0
  6 24  1  0
  7 25  1  0
  7 26  1  0
  8 27  1  1
  9 28  1  0
 10 29  1  0
 13 30  1  0
 16 31  1  0
 17 32  1  0
 18 33  1  0
M  ISO  8  20  13  21  13  22  13  23  13  24   5  25  13  26  13  27  13
M  ISO  6  28  14  29  14  30  14  31  14  32  14  33  14
M  END
>  <minimizedAffinity>  (1) 
-5.1144228

>  <minimizedRMSD>  (1) 
0.185644731

$$$$
