
     RDKit          3D

 34 36  0  0  1  0  0  0  0  0999 V2000
   37.4640   27.8010   43.2530 C   0  0  0  0  0  0  0  0  0  0  0  0
   36.6720   27.7530   44.2300 O   0  0  0  0  0  0  0  0  0  0  0  0
   38.0920   26.5790   42.7850 N   0  0  0  0  0  0  0  0  0  0  0  0
   39.4740   26.3020   43.0650 C   0  0  0  0  0  0  0  0  0  0  0  0
   39.7410   24.8510   43.3430 C   0  0  0  0  0  0  0  0  0  0  0  0
   39.1300   23.9790   42.3800 N   0  0  0  0  0  0  0  0  0  0  0  0
   37.7150   24.2000   42.2430 C   0  0  0  0  0  0  0  0  0  0  0  0
   37.3170   25.6270   42.0230 C   0  0  2  0  0  0  0  0  0  0  0  0
   39.2880   30.8440   42.1780 C   0  0  0  0  0  0  0  0  0  0  0  0
   38.9920   29.6500   42.8540 C   0  0  0  0  0  0  0  0  0  0  0  0
   37.7830   29.0320   42.5660 C   0  0  0  0  0  0  0  0  0  0  0  0
   36.9610   29.6240   41.6450 N   0  0  0  0  0  0  0  0  0  0  0  0
   37.2830   30.7600   41.0270 C   0  0  0  0  0  0  0  0  0  0  0  0
   38.4460   31.3860   41.2820 N   0  0  0  0  0  0  0  0  0  0  0  0
   37.3660   26.0110   40.5830 C   0  0  0  0  0  0  0  0  0  0  0  0
   36.3960   25.6170   39.6830 C   0  0  0  0  0  0  0  0  0  0  0  0
   36.4530   25.9780   38.3570 C   0  0  0  0  0  0  0  0  0  0  0  0
   37.4640   26.7330   37.8890 N   0  0  0  0  0  0  0  0  0  0  0  0
   38.4250   27.1260   38.7670 C   0  0  0  0  0  0  0  0  0  0  0  0
   38.3780   26.7750   40.0780 N   0  0  0  0  0  0  0  0  0  0  0  0
   40.0751   26.6080   42.1961 H   0  0  0  0  0  0  0  0  0  0  0  0
   39.7432   26.8638   43.9716 H   0  0  0  0  0  0  0  0  0  0  0  0
   40.8282   24.6845   43.3281 H   0  0  0  0  0  0  0  0  0  0  0  0
   39.3059   24.6163   44.3257 H   0  0  0  0  0  0  0  0  0  0  0  0
   39.5771   24.1349   41.4653 H   0  0  0  0  0  0  0  0  0  0  0  0
   37.3586   23.6100   41.3857 H   0  0  0  0  0  0  0  0  0  0  0  0
   37.2621   23.8977   43.1988 H   0  0  0  0  0  0  0  0  0  0  0  0
   36.2793   25.6722   42.3852 H   0  0  0  0  0  0  0  0  0  0  0  0
   40.2403   31.3526   42.3886 H   0  0  0  0  0  0  0  0  0  0  0  0
   39.6924   29.2199   43.5851 H   0  0  0  0  0  0  0  0  0  0  0  0
   36.5853   31.1935   40.2953 H   0  0  0  0  0  0  0  0  0  0  0  0
   35.5568   24.9991   40.0351 H   0  0  0  0  0  0  0  0  0  0  0  0
   35.6614   25.6450   37.6696 H   0  0  0  0  0  0  0  0  0  0  0  0
   39.2610   27.7434   38.4065 H   0  0  0  0  0  0  0  0  0  0  0  0
  1  2  2  0
  3  4  1  0
  3  1  1  0
  4  5  1  0
  6  5  1  0
  7  6  1  0
  8  7  1  0
  8  3  1  0
  9 10  2  0
 11 10  1  0
 11  1  1  0
 12 11  2  0
 13 14  2  0
 13 12  1  0
 14  9  1  0
 15  8  1  0
 16 15  2  0
 17 16  1  0
 18 17  2  0
 18 19  1  0
 19 20  2  0
 20 15  1  0
  4 21  1  0
  4 22  1  0
  5 23  1  0
  5 24  1  0
  6 25  1  0
  7 26  1  0
  7 27  1  0
  8 28  1  1
  9 29  1  0
 10 30  1  0
 13 31  1  0
 16 32  1  0
 17 33  1  0
 19 34  1  0
M  ISO  8  21  13  22  13  23  13  24  13  25   5  26  13  27  13  28  13
M  ISO  6  29  14  30  14  31  14  32  14  33  14  34  14
M  END
>  <minimizedAffinity>  (1) 
-5.07777357

>  <minimizedRMSD>  (1) 
0.245671272

$$$$
