
     RDKit          3D

 32 34  0  0  1  0  0  0  0  0999 V2000
   37.5450   27.8460   43.2320 C   0  0  0  0  0  0  0  0  0  0  0  0
   36.7280   27.8190   44.1940 O   0  0  0  0  0  0  0  0  0  0  0  0
   38.1000   26.6010   42.7610 N   0  0  0  0  0  0  0  0  0  0  0  0
   39.4750   26.2400   43.0610 C   0  0  0  0  0  0  0  0  0  0  0  0
   39.6680   24.7720   43.3030 C   0  0  0  0  0  0  0  0  0  0  0  0
   39.0420   23.9660   42.2960 N   0  0  0  0  0  0  0  0  0  0  0  0
   37.6250   24.2510   42.1910 C   0  0  0  0  0  0  0  0  0  0  0  0
   37.3020   25.6970   41.9840 C   0  0  2  0  0  0  0  0  0  0  0  0
   39.5280   30.8370   42.3400 C   0  0  0  0  0  0  0  0  0  0  0  0
   39.1380   29.6550   42.9700 C   0  0  0  0  0  0  0  0  0  0  0  0
   37.9510   29.0700   42.5810 C   0  0  0  0  0  0  0  0  0  0  0  0
   37.2180   29.6770   41.6000 N   0  0  0  0  0  0  0  0  0  0  0  0
   37.6320   30.8120   41.0240 C   0  0  0  0  0  0  0  0  0  0  0  0
   38.7780   31.4130   41.3730 N   0  0  0  0  0  0  0  0  0  0  0  0
   37.2460   26.0260   40.5710 N   0  0  0  0  0  0  0  0  0  0  0  0
   36.4460   26.7810   39.7970 C   0  0  0  0  0  0  0  0  0  0  0  0
   36.8600   26.7340   38.5190 N   0  0  0  0  0  0  0  0  0  0  0  0
   37.9270   25.9470   38.4770 C   0  0  0  0  0  0  0  0  0  0  0  0
   38.1560   25.5200   39.7300 N   0  0  0  0  0  0  0  0  0  0  0  0
   40.1069   26.5391   42.2118 H   0  0  0  0  0  0  0  0  0  0  0  0
   39.7514   26.7606   43.9897 H   0  0  0  0  0  0  0  0  0  0  0  0
   40.7461   24.5538   43.3106 H   0  0  0  0  0  0  0  0  0  0  0  0
   39.2007   24.5265   44.2681 H   0  0  0  0  0  0  0  0  0  0  0  0
   39.4898   24.1572   41.3884 H   0  0  0  0  0  0  0  0  0  0  0  0
   37.2213   23.6825   41.3402 H   0  0  0  0  0  0  0  0  0  0  0  0
   37.1732   23.9614   43.1512 H   0  0  0  0  0  0  0  0  0  0  0  0
   36.2903   25.8484   42.3883 H   0  0  0  0  0  0  0  0  0  0  0  0
   40.4730   31.3145   42.6384 H   0  0  0  0  0  0  0  0  0  0  0  0
   39.7603   29.2018   43.7557 H   0  0  0  0  0  0  0  0  0  0  0  0
   37.0111   31.2667   40.2381 H   0  0  0  0  0  0  0  0  0  0  0  0
   35.5788   27.3538   40.1575 H   0  0  0  0  0  0  0  0  0  0  0  0
   38.5147   25.6916   37.5829 H   0  0  0  0  0  0  0  0  0  0  0  0
  1  2  2  0
  3  4  1  0
  3  1  1  0
  4  5  1  0
  6  5  1  0
  7  6  1  0
  8  7  1  0
  8  3  1  0
  9 10  2  0
 11 10  1  0
 11  1  1  0
 12 11  2  0
 13 14  2  0
 13 12  1  0
 14  9  1  0
 15  8  1  0
 16 15  1  0
 17 16  2  0
 18 17  1  0
 18 19  2  0
 19 15  1  0
  4 20  1  0
  4 21  1  0
  5 22  1  0
  5 23  1  0
  6 24  1  0
  7 25  1  0
  7 26  1  0
  8 27  1  1
  9 28  1  0
 10 29  1  0
 13 30  1  0
 16 31  1  0
 18 32  1  0
M  ISO  8  20  13  21  13  22  13  23  13  24   5  25  13  26  13  27  13
M  ISO  5  28  14  29  14  30  14  31  14  32  14
M  END
>  <minimizedAffinity>  (1) 
-4.9003396

>  <minimizedRMSD>  (1) 
0.370471865

$$$$
