
     RDKit          3D

 35 36  0  0  1  0  0  0  0  0999 V2000
   38.2330   28.6420   43.1720 C   0  0  0  0  0  0  0  0  0  0  0  0
   37.3190   28.5350   44.0300 O   0  0  0  0  0  0  0  0  0  0  0  0
   39.1110   27.5210   42.9520 N   0  0  0  0  0  0  0  0  0  0  0  0
   40.4740   27.5630   43.4960 C   0  0  0  0  0  0  0  0  0  0  0  0
   40.9760   26.2520   43.9920 C   0  0  0  0  0  0  0  0  0  0  0  0
   40.6870   25.1660   43.0850 N   0  0  0  0  0  0  0  0  0  0  0  0
   39.3090   25.0850   42.7400 C   0  0  0  0  0  0  0  0  0  0  0  0
   38.7050   26.3700   42.2330 C   0  0  1  0  0  0  0  0  0  0  0  0
   39.7750   31.7300   41.8410 C   0  0  0  0  0  0  0  0  0  0  0  0
   39.5870   30.5810   42.6100 C   0  0  0  0  0  0  0  0  0  0  0  0
   38.4510   29.8450   42.3860 C   0  0  0  0  0  0  0  0  0  0  0  0
   37.6080   30.2970   41.4340 N   0  0  0  0  0  0  0  0  0  0  0  0
   37.7970   31.3870   40.7090 C   0  0  0  0  0  0  0  0  0  0  0  0
   38.8850   32.1270   40.8990 N   0  0  0  0  0  0  0  0  0  0  0  0
   37.2360   26.1440   42.0190 C   0  0  0  0  0  0  0  0  0  0  0  0
   36.9310   24.6200   42.1180 C   0  0  0  0  0  0  0  0  0  0  0  0
   36.7530   26.4950   40.6310 C   0  0  0  0  0  0  0  0  0  0  0  0
   41.1509   27.9135   42.7029 H   0  0  0  0  0  0  0  0  0  0  0  0
   40.4464   28.2386   44.3636 H   0  0  0  0  0  0  0  0  0  0  0  0
   42.0659   26.3196   44.1243 H   0  0  0  0  0  0  0  0  0  0  0  0
   40.4638   26.0375   44.9416 H   0  0  0  0  0  0  0  0  0  0  0  0
   41.2341   25.3031   42.2232 H   0  0  0  0  0  0  0  0  0  0  0  0
   39.1974   24.3221   41.9554 H   0  0  0  0  0  0  0  0  0  0  0  0
   38.7727   24.8370   43.6679 H   0  0  0  0  0  0  0  0  0  0  0  0
   39.1140   26.6374   41.2475 H   0  0  0  0  0  0  0  0  0  0  0  0
   40.6784   32.3357   42.0052 H   0  0  0  0  0  0  0  0  0  0  0  0
   40.3231   30.2763   43.3685 H   0  0  0  0  0  0  0  0  0  0  0  0
   37.0560   31.6804   39.9509 H   0  0  0  0  0  0  0  0  0  0  0  0
   36.7454   26.7755   42.7743 H   0  0  0  0  0  0  0  0  0  0  0  0
   36.8721   24.3258   43.1763 H   0  0  0  0  0  0  0  0  0  0  0  0
   35.9720   24.4051   41.6238 H   0  0  0  0  0  0  0  0  0  0  0  0
   37.7334   24.0526   41.6238 H   0  0  0  0  0  0  0  0  0  0  0  0
   35.8651   27.1402   40.7040 H   0  0  0  0  0  0  0  0  0  0  0  0
   37.5491   27.0267   40.0893 H   0  0  0  0  0  0  0  0  0  0  0  0
   36.4931   25.5736   40.0893 H   0  0  0  0  0  0  0  0  0  0  0  0
  1  2  2  0
  3  1  1  0
  3  4  1  0
  4  5  1  0
  6  5  1  0
  7  6  1  0
  8  7  1  0
  8  3  1  0
  9 10  2  0
 11 10  1  0
 11  1  1  0
 12 11  2  0
 13 14  2  0
 13 12  1  0
 14  9  1  0
 15 16  1  0
 15  8  1  0
 17 15  1  0
  4 18  1  0
  4 19  1  0
  5 20  1  0
  5 21  1  0
  6 22  1  0
  7 23  1  0
  7 24  1  0
  8 25  1  6
  9 26  1  0
 10 27  1  0
 13 28  1  0
 15 29  1  0
 16 30  1  0
 16 31  1  0
 16 32  1  0
 17 33  1  0
 17 34  1  0
 17 35  1  0
M  ISO  8  18  13  19  13  20  13  21  13  22   5  23  13  24  13  25  13
M  ISO  8  26  14  27  14  28  14  29   8  30   8  31   8  32   8  33   8
M  ISO  2  34   8  35   8
M  END
>  <minimizedAffinity>  (1) 
-4.89712954

>  <minimizedRMSD>  (1) 
1.64774895

$$$$
