
     RDKit          3D

 33 35  0  0  1  0  0  0  0  0999 V2000
   37.5080   27.8410   43.3250 C   0  0  0  0  0  0  0  0  0  0  0  0
   36.7960   27.8240   44.3580 O   0  0  0  0  0  0  0  0  0  0  0  0
   38.0620   26.6030   42.8220 N   0  0  0  0  0  0  0  0  0  0  0  0
   39.4530   26.2760   42.9850 C   0  0  0  0  0  0  0  0  0  0  0  0
   39.6940   24.8120   43.2310 C   0  0  0  0  0  0  0  0  0  0  0  0
   38.9610   23.9620   42.3330 N   0  0  0  0  0  0  0  0  0  0  0  0
   37.5580   24.2400   42.2930 C   0  0  0  0  0  0  0  0  0  0  0  0
   37.1800   25.6770   42.1380 C   0  0  2  0  0  0  0  0  0  0  0  0
   39.3120   30.8560   42.1590 C   0  0  0  0  0  0  0  0  0  0  0  0
   39.0160   29.6780   42.8560 C   0  0  0  0  0  0  0  0  0  0  0  0
   37.8080   29.0620   42.5990 C   0  0  0  0  0  0  0  0  0  0  0  0
   36.9730   29.6330   41.6850 N   0  0  0  0  0  0  0  0  0  0  0  0
   37.2970   30.7630   41.0400 C   0  0  0  0  0  0  0  0  0  0  0  0
   38.4530   31.3880   41.2570 N   0  0  0  0  0  0  0  0  0  0  0  0
   37.1150   26.0870   40.6780 C   0  0  0  0  0  0  0  0  0  0  0  0
   37.9540   25.2880   39.7120 C   0  0  0  0  0  0  0  0  0  0  0  0
   36.4250   25.1830   39.6780 C   0  0  0  0  0  0  0  0  0  0  0  0
   39.9903   26.5698   42.0712 H   0  0  0  0  0  0  0  0  0  0  0  0
   39.8143   26.8194   43.8705 H   0  0  0  0  0  0  0  0  0  0  0  0
   40.7679   24.6083   43.1078 H   0  0  0  0  0  0  0  0  0  0  0  0
   39.3472   24.5889   44.2508 H   0  0  0  0  0  0  0  0  0  0  0  0
   39.3437   24.0843   41.3846 H   0  0  0  0  0  0  0  0  0  0  0  0
   37.1290   23.6857   41.4453 H   0  0  0  0  0  0  0  0  0  0  0  0
   37.1667   23.9343   43.2745 H   0  0  0  0  0  0  0  0  0  0  0  0
   36.1871   25.7416   42.6069 H   0  0  0  0  0  0  0  0  0  0  0  0
   40.2691   31.3636   42.3494 H   0  0  0  0  0  0  0  0  0  0  0  0
   39.7238   29.2570   43.5852 H   0  0  0  0  0  0  0  0  0  0  0  0
   36.5889   31.1853   40.3119 H   0  0  0  0  0  0  0  0  0  0  0  0
   37.0058   27.1507   40.9361 H   0  0  0  0  0  0  0  0  0  0  0  0
   38.4894   25.7963   38.8966 H   0  0  0  0  0  0  0  0  0  0  0  0
   38.7826   24.5709   39.8076 H   0  0  0  0  0  0  0  0  0  0  0  0
   35.8606   25.6170   38.8395 H   0  0  0  0  0  0  0  0  0  0  0  0
   35.6963   24.3613   39.7398 H   0  0  0  0  0  0  0  0  0  0  0  0
  1  2  2  0
  3  4  1  0
  3  1  1  0
  4  5  1  0
  6  5  1  0
  7  6  1  0
  8  7  1  0
  8  3  1  0
  9 10  2  0
 11 10  1  0
 11  1  1  0
 12 11  2  0
 13 14  2  0
 13 12  1  0
 14  9  1  0
 15  8  1  0
 16 15  1  0
 17 16  1  0
 17 15  1  0
  4 18  1  0
  4 19  1  0
  5 20  1  0
  5 21  1  0
  6 22  1  0
  7 23  1  0
  7 24  1  0
  8 25  1  1
  9 26  1  0
 10 27  1  0
 13 28  1  0
 15 29  1  0
 16 30  1  0
 16 31  1  0
 17 32  1  0
 17 33  1  0
M  ISO  8  18  13  19  13  20  13  21  13  22   5  23  13  24  13  25  13
M  ISO  8  26  14  27  14  28  14  29  13  30  13  31  13  32  13  33  13
M  END
>  <minimizedAffinity>  (1) 
-4.8945055

>  <minimizedRMSD>  (1) 
0.700869799

$$$$
