
     RDKit          3D

 27 28  0  0  1  0  0  0  0  0999 V2000
   37.5170   27.8500   43.3240 C   0  0  0  0  0  0  0  0  0  0  0  0
   36.8230   27.8260   44.3810 O   0  0  0  0  0  0  0  0  0  0  0  0
   38.0430   26.6120   42.8260 N   0  0  0  0  0  0  0  0  0  0  0  0
   39.4420   26.2620   42.9620 C   0  0  0  0  0  0  0  0  0  0  0  0
   39.6870   24.8070   43.1920 C   0  0  0  0  0  0  0  0  0  0  0  0
   38.9320   23.9620   42.3120 N   0  0  0  0  0  0  0  0  0  0  0  0
   37.5240   24.2410   42.2940 C   0  0  0  0  0  0  0  0  0  0  0  0
   37.1560   25.6750   42.1630 C   0  0  2  0  0  0  0  0  0  0  0  0
   39.3220   30.8650   42.1680 C   0  0  0  0  0  0  0  0  0  0  0  0
   39.0210   29.6980   42.8570 C   0  0  0  0  0  0  0  0  0  0  0  0
   37.8080   29.0620   42.5950 C   0  0  0  0  0  0  0  0  0  0  0  0
   36.9760   29.6140   41.6770 N   0  0  0  0  0  0  0  0  0  0  0  0
   37.2980   30.7420   41.0300 C   0  0  0  0  0  0  0  0  0  0  0  0
   38.4630   31.3870   41.2550 N   0  0  0  0  0  0  0  0  0  0  0  0
   36.9360   26.0770   40.8380 O   0  0  0  0  0  0  0  0  0  0  0  0
   39.9635   26.5586   42.0400 H   0  0  0  0  0  0  0  0  0  0  0  0
   39.8163   26.7910   43.8508 H   0  0  0  0  0  0  0  0  0  0  0  0
   40.7572   24.6040   43.0391 H   0  0  0  0  0  0  0  0  0  0  0  0
   39.3666   24.5794   44.2194 H   0  0  0  0  0  0  0  0  0  0  0  0
   39.2974   24.0819   41.3565 H   0  0  0  0  0  0  0  0  0  0  0  0
   37.0823   23.6991   41.4447 H   0  0  0  0  0  0  0  0  0  0  0  0
   37.1406   23.9198   43.2737 H   0  0  0  0  0  0  0  0  0  0  0  0
   36.2009   25.7188   42.7069 H   0  0  0  0  0  0  0  0  0  0  0  0
   40.2753   31.3770   42.3656 H   0  0  0  0  0  0  0  0  0  0  0  0
   39.7246   29.2837   43.5941 H   0  0  0  0  0  0  0  0  0  0  0  0
   36.5927   31.1550   40.2938 H   0  0  0  0  0  0  0  0  0  0  0  0
   36.4607   26.9454   40.8312 H   0  0  0  0  0  0  0  0  0  0  0  0
  1  2  2  0
  3  4  1  0
  3  1  1  0
  4  5  1  0
  6  5  1  0
  7  6  1  0
  8  7  1  0
  8  3  1  0
  9 10  2  0
 11 10  1  0
 11  1  1  0
 12 11  2  0
 13 14  2  0
 13 12  1  0
 14  9  1  0
 15  8  1  0
  4 16  1  0
  4 17  1  0
  5 18  1  0
  5 19  1  0
  6 20  1  0
  7 21  1  0
  7 22  1  0
  8 23  1  1
  9 24  1  0
 10 25  1  0
 13 26  1  0
 15 27  1  0
M  ISO  8  16  13  17  13  18  13  19  13  20   5  21  13  22  13  23  13
M  ISO  4  24  14  25  14  26  14  27   3
M  END
>  <minimizedAffinity>  (1) 
-4.64564276

>  <minimizedRMSD>  (1) 
0.0119563695

$$$$
