
     RDKit          3D

 28 29  0  0  1  0  0  0  0  0999 V2000
   37.9520   28.2650   43.2950 C   0  0  0  0  0  0  0  0  0  0  0  0
   37.0980   28.0990   44.2060 O   0  0  0  0  0  0  0  0  0  0  0  0
   38.9280   27.2250   43.0410 N   0  0  0  0  0  0  0  0  0  0  0  0
   40.2970   27.3850   43.4890 C   0  0  0  0  0  0  0  0  0  0  0  0
   40.9360   26.1150   43.9240 C   0  0  0  0  0  0  0  0  0  0  0  0
   40.6810   24.9970   43.0550 N   0  0  0  0  0  0  0  0  0  0  0  0
   39.2830   24.7970   42.7910 C   0  0  0  0  0  0  0  0  0  0  0  0
   38.5460   26.0260   42.3420 C   0  0  1  0  0  0  0  0  0  0  0  0
   39.2050   31.3700   41.7110 C   0  0  0  0  0  0  0  0  0  0  0  0
   39.1520   30.2210   42.4930 C   0  0  0  0  0  0  0  0  0  0  0  0
   38.0040   29.4650   42.4770 C   0  0  0  0  0  0  0  0  0  0  0  0
   36.9580   29.8780   41.6860 N   0  0  0  0  0  0  0  0  0  0  0  0
   37.0500   30.9890   40.9500 C   0  0  0  0  0  0  0  0  0  0  0  0
   38.1670   31.7530   40.9460 N   0  0  0  0  0  0  0  0  0  0  0  0
   37.1010   25.7390   42.3530 C   0  0  0  0  0  0  0  0  0  0  0  0
   36.7020   24.5850   42.2860 O   0  0  0  0  0  0  0  0  0  0  0  0
   40.8867   27.8044   42.6605 H   0  0  0  0  0  0  0  0  0  0  0  0
   40.2728   28.0492   44.3655 H   0  0  0  0  0  0  0  0  0  0  0  0
   42.0234   26.2745   43.9704 H   0  0  0  0  0  0  0  0  0  0  0  0
   40.4996   25.8609   44.9012 H   0  0  0  0  0  0  0  0  0  0  0  0
   41.1637   25.1605   42.1599 H   0  0  0  0  0  0  0  0  0  0  0  0
   39.1888   24.0345   42.0038 H   0  0  0  0  0  0  0  0  0  0  0  0
   38.8275   24.4934   43.7451 H   0  0  0  0  0  0  0  0  0  0  0  0
   38.8392   26.2613   41.3082 H   0  0  0  0  0  0  0  0  0  0  0  0
   40.1194   31.9813   41.7183 H   0  0  0  0  0  0  0  0  0  0  0  0
   40.0113   29.9233   43.1118 H   0  0  0  0  0  0  0  0  0  0  0  0
   36.1935   31.2914   40.3296 H   0  0  0  0  0  0  0  0  0  0  0  0
   36.3785   26.5656   42.4217 H   0  0  0  0  0  0  0  0  0  0  0  0
  1  2  2  0
  3  1  1  0
  3  4  1  0
  4  5  1  0
  6  5  1  0
  7  6  1  0
  8 15  1  0
  8  7  1  0
  8  3  1  0
  9 10  2  0
 11 10  1  0
 11  1  1  0
 12 11  2  0
 13 12  1  0
 14 13  2  0
 14  9  1  0
 16 15  2  0
  4 17  1  0
  4 18  1  0
  5 19  1  0
  5 20  1  0
  6 21  1  0
  7 22  1  0
  7 23  1  0
  8 24  1  6
  9 25  1  0
 10 26  1  0
 13 27  1  0
 15 28  1  0
M  ISO  8  17  13  18  13  19  13  20  13  21   5  22  13  23  13  24  13
M  ISO  4  25  14  26  14  27  14  28   6
M  END
>  <minimizedAffinity>  (1) 
-4.58176613

>  <minimizedRMSD>  (1) 
1.26236486

$$$$
