
     RDKit          3D

 27 28  0  0  1  0  0  0  0  0999 V2000
   38.2500   28.0810   43.2680 C   0  0  0  0  0  0  0  0  0  0  0  0
   37.3450   27.8380   44.1050 O   0  0  0  0  0  0  0  0  0  0  0  0
   39.2870   27.0950   43.0450 N   0  0  0  0  0  0  0  0  0  0  0  0
   40.6230   27.2730   43.5700 C   0  0  0  0  0  0  0  0  0  0  0  0
   41.2860   26.0090   44.0080 C   0  0  0  0  0  0  0  0  0  0  0  0
   41.1160   24.9210   43.0860 N   0  0  0  0  0  0  0  0  0  0  0  0
   39.7560   24.6940   42.7040 C   0  0  0  0  0  0  0  0  0  0  0  0
   38.9930   25.9040   42.2830 C   0  0  1  0  0  0  0  0  0  0  0  0
   39.4610   31.3160   41.9400 C   0  0  0  0  0  0  0  0  0  0  0  0
   39.4060   30.1320   42.6800 C   0  0  0  0  0  0  0  0  0  0  0  0
   38.3150   29.3150   42.5020 C   0  0  0  0  0  0  0  0  0  0  0  0
   37.3520   29.7000   41.6200 N   0  0  0  0  0  0  0  0  0  0  0  0
   37.4420   30.8420   40.9290 C   0  0  0  0  0  0  0  0  0  0  0  0
   38.4820   31.6620   41.0740 N   0  0  0  0  0  0  0  0  0  0  0  0
   37.2110   25.5570   42.3200 S   0  0  0  0  0  0  0  0  0  0  0  0
   41.2425   27.7329   42.7859 H   0  0  0  0  0  0  0  0  0  0  0  0
   40.5273   27.9045   44.4656 H   0  0  0  0  0  0  0  0  0  0  0  0
   42.3627   26.2027   44.1225 H   0  0  0  0  0  0  0  0  0  0  0  0
   40.8122   25.7073   44.9538 H   0  0  0  0  0  0  0  0  0  0  0  0
   41.6616   25.1268   42.2370 H   0  0  0  0  0  0  0  0  0  0  0  0
   39.7548   23.9841   41.8637 H   0  0  0  0  0  0  0  0  0  0  0  0
   39.2497   24.3183   43.6054 H   0  0  0  0  0  0  0  0  0  0  0  0
   39.3219   26.1238   41.2566 H   0  0  0  0  0  0  0  0  0  0  0  0
   40.3249   31.9853   42.0655 H   0  0  0  0  0  0  0  0  0  0  0  0
   40.2091   29.8627   43.3817 H   0  0  0  0  0  0  0  0  0  0  0  0
   36.6397   31.1098   40.2257 H   0  0  0  0  0  0  0  0  0  0  0  0
   36.7887   25.4748   43.6207 H   0  0  0  0  0  0  0  0  0  0  0  0
  1  2  2  0
  3  1  1  0
  3  4  1  0
  4  5  1  0
  6  5  1  0
  7  6  1  0
  8 15  1  0
  8  7  1  0
  8  3  1  0
  9 10  2  0
 11 10  1  0
 11  1  1  0
 12 11  2  0
 13 14  2  0
 13 12  1  0
 14  9  1  0
  4 16  1  0
  4 17  1  0
  5 18  1  0
  5 19  1  0
  6 20  1  0
  7 21  1  0
  7 22  1  0
  8 23  1  6
  9 24  1  0
 10 25  1  0
 13 26  1  0
 15 27  1  0
M  ISO  8  16  13  17  13  18  13  19  13  20   5  21  13  22  13  23  13
M  ISO  4  24  14  25  14  26  14  27  11
M  END
>  <minimizedAffinity>  (1) 
-4.24387836

>  <minimizedRMSD>  (1) 
1.41466808

$$$$
