
     RDKit          3D

 49 52  0  0  1  0  0  0  0  0999 V2000
   37.7440   28.0850   43.3400 C   0  0  0  0  0  0  0  0  0  0  0  0
   37.0920   28.1120   44.4290 O   0  0  0  0  0  0  0  0  0  0  0  0
   38.0660   26.8050   42.8090 N   0  0  0  0  0  0  0  0  0  0  0  0
   39.4030   26.2830   43.0010 C   0  0  0  0  0  0  0  0  0  0  0  0
   39.5000   24.8020   43.0940 C   0  0  0  0  0  0  0  0  0  0  0  0
   38.6380   24.0730   42.2320 N   0  0  0  0  0  0  0  0  0  0  0  0
   37.3110   24.5110   42.3090 C   0  0  0  0  0  0  0  0  0  0  0  0
   37.1420   26.0020   42.1100 C   0  0  2  0  0  0  0  0  0  0  0  0
   36.8630   26.3020   40.7310 C   0  0  0  0  0  0  0  0  0  0  0  0
   36.2730   27.5420   40.3690 C   0  0  0  0  0  0  0  0  0  0  0  0
   35.9560   27.9550   39.1070 C   0  0  0  0  0  0  0  0  0  0  0  0
   36.2640   27.0450   38.0870 C   0  0  0  0  0  0  0  0  0  0  0  0
   36.8470   25.7920   38.3700 C   0  0  0  0  0  0  0  0  0  0  0  0
   37.1120   25.4800   39.6910 C   0  0  0  0  0  0  0  0  0  0  0  0
   37.3630   24.1330   39.4500 N   0  0  0  0  0  0  0  0  0  0  0  0
   36.8500   22.9480   39.3540 C   0  0  0  0  0  0  0  0  0  0  0  0
   37.4740   21.7580   39.1560 C   0  0  0  0  0  0  0  0  0  0  0  0
   36.6270   20.5430   39.1060 C   0  0  0  0  0  0  0  0  0  0  0  0
   38.8410   21.6930   39.0270 C   0  0  0  0  0  0  0  0  0  0  0  0
   39.3100   20.5470   38.8450 O   0  0  0  0  0  0  0  0  0  0  0  0
   39.4780   22.8780   39.1150 N   0  0  0  0  0  0  0  0  0  0  0  0
   38.7520   24.0200   39.3170 C   0  0  0  0  0  0  0  0  0  0  0  0
   39.6490   24.9370   39.3640 O   0  0  0  0  0  0  0  0  0  0  0  0
   39.8650   30.8190   42.0990 C   0  0  0  0  0  0  0  0  0  0  0  0
   39.4620   29.6860   42.7830 C   0  0  0  0  0  0  0  0  0  0  0  0
   38.1710   29.2720   42.6200 C   0  0  0  0  0  0  0  0  0  0  0  0
   37.3760   29.9880   41.8100 N   0  0  0  0  0  0  0  0  0  0  0  0
   37.7760   31.0800   41.1540 C   0  0  0  0  0  0  0  0  0  0  0  0
   39.0240   31.5040   41.2930 N   0  0  0  0  0  0  0  0  0  0  0  0
   40.0211   26.6114   42.1524 H   0  0  0  0  0  0  0  0  0  0  0  0
   39.7446   26.6716   43.9717 H   0  0  0  0  0  0  0  0  0  0  0  0
   40.5354   24.5156   42.8577 H   0  0  0  0  0  0  0  0  0  0  0  0
   39.1885   24.5448   44.1171 H   0  0  0  0  0  0  0  0  0  0  0  0
   38.6734   23.0774   42.4936 H   0  0  0  0  0  0  0  0  0  0  0  0
   36.7295   23.9905   41.5338 H   0  0  0  0  0  0  0  0  0  0  0  0
   36.9596   24.2840   43.3263 H   0  0  0  0  0  0  0  0  0  0  0  0
   36.2330   26.3300   42.6354 H   0  0  0  0  0  0  0  0  0  0  0  0
   36.0487   28.2405   41.1886 H   0  0  0  0  0  0  0  0  0  0  0  0
   35.4922   28.9318   38.9054 H   0  0  0  0  0  0  0  0  0  0  0  0
   36.0464   27.3135   37.0427 H   0  0  0  0  0  0  0  0  0  0  0  0
   37.0841   25.0832   37.5629 H   0  0  0  0  0  0  0  0  0  0  0  0
   35.7550   22.8981   39.4457 H   0  0  0  0  0  0  0  0  0  0  0  0
   36.3974   20.2137   40.1301 H   0  0  0  0  0  0  0  0  0  0  0  0
   35.6907   20.7704   38.5754 H   0  0  0  0  0  0  0  0  0  0  0  0
   37.1642   19.7431   38.5754 H   0  0  0  0  0  0  0  0  0  0  0  0
   40.5036   22.9233   39.0308 H   0  0  0  0  0  0  0  0  0  0  0  0
   40.9002   31.1726   42.2146 H   0  0  0  0  0  0  0  0  0  0  0  0
   40.1574   29.1377   43.4355 H   0  0  0  0  0  0  0  0  0  0  0  0
   37.0752   31.6235   40.5033 H   0  0  0  0  0  0  0  0  0  0  0  0
  1  2  2  0
  3  4  1  0
  3  1  1  0
  4  5  1  0
  6  7  1  0
  6  5  1  0
  8  7  1  0
  8  3  1  0
  9  8  1  0
 10  9  2  0
 11 10  1  0
 12 13  1  0
 12 11  2  0
 13 14  2  0
 14  9  1  0
 15 14  1  0
 16 15  1  0
 17 16  2  0
 18 17  1  0
 19 21  1  0
 19 17  1  0
 20 19  2  0
 21 22  1  0
 22 23  2  0
 22 15  1  0
 24 25  2  0
 26 25  1  0
 26  1  1  0
 27 26  2  0
 28 29  2  0
 28 27  1  0
 29 24  1  0
  4 30  1  0
  4 31  1  0
  5 32  1  0
  5 33  1  0
  6 34  1  0
  7 35  1  0
  7 36  1  0
  8 37  1  1
 10 38  1  0
 11 39  1  0
 12 40  1  0
 13 41  1  0
 16 42  1  0
 18 43  1  0
 18 44  1  0
 18 45  1  0
 21 46  1  0
 24 47  1  0
 25 48  1  0
 28 49  1  0
M  ISO  8  30  13  31  13  32  13  33  13  34   5  35  13  36  13  37  13
M  ISO  8  38  14  39  14  40  14  41  14  42  14  43   8  44   8  45   8
M  ISO  4  46   9  47  14  48  14  49  14
M  END
>  <minimizedAffinity>  (1) 
-6.1340704

>  <minimizedRMSD>  (1) 
4.09218025

$$$$
