
     RDKit          3D

 45 48  0  0  1  0  0  0  0  0999 V2000
   37.6350   27.9060   43.3510 C   0  0  0  0  0  0  0  0  0  0  0  0
   36.9400   27.8790   44.4210 O   0  0  0  0  0  0  0  0  0  0  0  0
   38.0680   26.6470   42.8380 N   0  0  0  0  0  0  0  0  0  0  0  0
   39.4070   26.2260   43.1240 C   0  0  0  0  0  0  0  0  0  0  0  0
   39.6640   24.7630   43.1340 C   0  0  0  0  0  0  0  0  0  0  0  0
   38.8840   23.9740   42.2410 N   0  0  0  0  0  0  0  0  0  0  0  0
   37.5180   24.3070   42.3050 C   0  0  0  0  0  0  0  0  0  0  0  0
   37.2410   25.7820   42.1010 C   0  0  2  0  0  0  0  0  0  0  0  0
   36.9770   26.0620   40.7100 C   0  0  0  0  0  0  0  0  0  0  0  0
   36.4280   27.3110   40.3240 C   0  0  0  0  0  0  0  0  0  0  0  0
   36.1380   27.7010   39.0490 C   0  0  0  0  0  0  0  0  0  0  0  0
   36.4290   26.7570   38.0550 C   0  0  0  0  0  0  0  0  0  0  0  0
   36.9690   25.5070   38.3700 C   0  0  0  0  0  0  0  0  0  0  0  0
   37.2180   25.2010   39.6990 C   0  0  0  0  0  0  0  0  0  0  0  0
   37.5800   23.8210   39.4990 C   0  0  0  0  0  0  0  0  0  0  0  0
   38.8080   23.5490   38.8780 C   0  0  0  0  0  0  0  0  0  0  0  0
   39.4490   22.3680   38.6990 C   0  0  0  0  0  0  0  0  0  0  0  0
   38.8070   21.2700   39.1980 C   0  0  0  0  0  0  0  0  0  0  0  0
   37.6010   21.5170   39.8100 C   0  0  0  0  0  0  0  0  0  0  0  0
   36.9880   22.7280   39.9690 N   0  0  0  0  0  0  0  0  0  0  0  0
   39.6440   30.7070   42.0730 C   0  0  0  0  0  0  0  0  0  0  0  0
   39.2840   29.5560   42.7430 C   0  0  0  0  0  0  0  0  0  0  0  0
   37.9940   29.1170   42.6530 C   0  0  0  0  0  0  0  0  0  0  0  0
   37.1440   29.8430   41.9120 N   0  0  0  0  0  0  0  0  0  0  0  0
   37.5030   30.9590   41.2660 C   0  0  0  0  0  0  0  0  0  0  0  0
   38.7520   31.3990   41.3400 N   0  0  0  0  0  0  0  0  0  0  0  0
   40.0654   26.6738   42.3651 H   0  0  0  0  0  0  0  0  0  0  0  0
   39.5977   26.5576   44.1553 H   0  0  0  0  0  0  0  0  0  0  0  0
   40.7227   24.6081   42.8789 H   0  0  0  0  0  0  0  0  0  0  0  0
   39.3824   24.4252   44.1422 H   0  0  0  0  0  0  0  0  0  0  0  0
   38.9968   22.9806   42.4887 H   0  0  0  0  0  0  0  0  0  0  0  0
   36.9860   23.7426   41.5250 H   0  0  0  0  0  0  0  0  0  0  0  0
   37.1719   24.0518   43.3175 H   0  0  0  0  0  0  0  0  0  0  0  0
   36.2930   26.0469   42.5920 H   0  0  0  0  0  0  0  0  0  0  0  0
   36.2162   28.0325   41.1269 H   0  0  0  0  0  0  0  0  0  0  0  0
   35.7066   28.6861   38.8179 H   0  0  0  0  0  0  0  0  0  0  0  0
   36.2278   27.0056   37.0025 H   0  0  0  0  0  0  0  0  0  0  0  0
   37.1926   24.7784   37.5769 H   0  0  0  0  0  0  0  0  0  0  0  0
   39.3309   24.4286   38.4745 H   0  0  0  0  0  0  0  0  0  0  0  0
   40.4200   22.2984   38.1868 H   0  0  0  0  0  0  0  0  0  0  0  0
   39.2268   20.2566   39.1156 H   0  0  0  0  0  0  0  0  0  0  0  0
   37.0708   20.6432   40.2167 H   0  0  0  0  0  0  0  0  0  0  0  0
   40.6814   31.0667   42.1392 H   0  0  0  0  0  0  0  0  0  0  0  0
   40.0234   29.0014   43.3395 H   0  0  0  0  0  0  0  0  0  0  0  0
   36.7605   31.5124   40.6724 H   0  0  0  0  0  0  0  0  0  0  0  0
  1  2  2  0
  3  4  1  0
  3  1  1  0
  4  5  1  0
  6  7  1  0
  6  5  1  0
  8  7  1  0
  8  3  1  0
  9  8  1  0
 10  9  2  0
 11 10  1  0
 12 13  1  0
 12 11  2  0
 13 14  2  0
 14  9  1  0
 15 14  1  0
 15 20  1  0
 16 15  2  0
 17 16  1  0
 17 18  2  0
 18 19  1  0
 19 20  2  0
 21 22  2  0
 23 22  1  0
 23  1  1  0
 24 23  2  0
 25 26  2  0
 25 24  1  0
 26 21  1  0
  4 27  1  0
  4 28  1  0
  5 29  1  0
  5 30  1  0
  6 31  1  0
  7 32  1  0
  7 33  1  0
  8 34  1  1
 10 35  1  0
 11 36  1  0
 12 37  1  0
 13 38  1  0
 16 39  1  0
 17 40  1  0
 18 41  1  0
 19 42  1  0
 21 43  1  0
 22 44  1  0
 25 45  1  0
M  ISO  8  27  13  28  13  29  13  30  13  31   5  32  13  33  13  34  13
M  ISO  8  35  14  36  14  37  14  38  14  39  14  40  14  41  14  42  14
M  ISO  3  43  14  44  14  45  14
M  END
>  <minimizedAffinity>  (1) 
-6.1003747

>  <minimizedRMSD>  (1) 
3.31514668

$$$$
