
     RDKit          3D

 43 46  0  0  1  0  0  0  0  0999 V2000
   37.6190   28.0410   43.3760 C   0  0  0  0  0  0  0  0  0  0  0  0
   36.9020   28.0270   44.4390 O   0  0  0  0  0  0  0  0  0  0  0  0
   38.0850   26.7760   42.9180 N   0  0  0  0  0  0  0  0  0  0  0  0
   39.4240   26.4000   43.2510 C   0  0  0  0  0  0  0  0  0  0  0  0
   39.7410   24.9520   43.2910 C   0  0  0  0  0  0  0  0  0  0  0  0
   39.0010   24.1160   42.4170 N   0  0  0  0  0  0  0  0  0  0  0  0
   37.6240   24.4030   42.4430 C   0  0  0  0  0  0  0  0  0  0  0  0
   37.2980   25.8610   42.1990 C   0  0  2  0  0  0  0  0  0  0  0  0
   37.0540   26.0890   40.7870 C   0  0  0  0  0  0  0  0  0  0  0  0
   36.4300   27.2810   40.3520 C   0  0  0  0  0  0  0  0  0  0  0  0
   36.1540   27.6160   39.0590 C   0  0  0  0  0  0  0  0  0  0  0  0
   36.5390   26.6800   38.1030 C   0  0  0  0  0  0  0  0  0  0  0  0
   37.1560   25.4870   38.4660 C   0  0  0  0  0  0  0  0  0  0  0  0
   37.3920   25.2210   39.8090 C   0  0  0  0  0  0  0  0  0  0  0  0
   37.7290   23.8100   39.7160 C   0  0  0  0  0  0  0  0  0  0  0  0
   38.8220   23.2040   39.1300 C   0  0  0  0  0  0  0  0  0  0  0  0
   38.8750   21.8400   39.2210 C   0  0  0  0  0  0  0  0  0  0  0  0
   37.7100   21.6390   39.9220 C   0  0  0  0  0  0  0  0  0  0  0  0
   37.1010   22.7570   40.1790 O   0  0  0  0  0  0  0  0  0  0  0  0
   39.5890   30.8480   42.0390 C   0  0  0  0  0  0  0  0  0  0  0  0
   39.2430   29.7130   42.7400 C   0  0  0  0  0  0  0  0  0  0  0  0
   37.9660   29.2360   42.6460 C   0  0  0  0  0  0  0  0  0  0  0  0
   37.1000   29.9080   41.8650 N   0  0  0  0  0  0  0  0  0  0  0  0
   37.4520   31.0130   41.1900 C   0  0  0  0  0  0  0  0  0  0  0  0
   38.6910   31.4920   41.2670 N   0  0  0  0  0  0  0  0  0  0  0  0
   40.0901   26.8622   42.5076 H   0  0  0  0  0  0  0  0  0  0  0  0
   39.5614   26.7446   44.2866 H   0  0  0  0  0  0  0  0  0  0  0  0
   40.8060   24.8365   43.0413 H   0  0  0  0  0  0  0  0  0  0  0  0
   39.4701   24.6236   44.3053 H   0  0  0  0  0  0  0  0  0  0  0  0
   39.1404   23.1353   42.6995 H   0  0  0  0  0  0  0  0  0  0  0  0
   37.1300   23.8025   41.6649 H   0  0  0  0  0  0  0  0  0  0  0  0
   37.2656   24.1599   43.4542 H   0  0  0  0  0  0  0  0  0  0  0  0
   36.3366   26.1058   42.6741 H   0  0  0  0  0  0  0  0  0  0  0  0
   36.1405   28.0049   41.1280 H   0  0  0  0  0  0  0  0  0  0  0  0
   35.6607   28.5616   38.7898 H   0  0  0  0  0  0  0  0  0  0  0  0
   36.3516   26.8879   37.0392 H   0  0  0  0  0  0  0  0  0  0  0  0
   37.4545   24.7604   37.6960 H   0  0  0  0  0  0  0  0  0  0  0  0
   39.6049   23.7841   38.6195 H   0  0  0  0  0  0  0  0  0  0  0  0
   39.6214   21.1235   38.8475 H   0  0  0  0  0  0  0  0  0  0  0  0
   37.3381   20.6502   40.2285 H   0  0  0  0  0  0  0  0  0  0  0  0
   40.6161   31.2352   42.1107 H   0  0  0  0  0  0  0  0  0  0  0  0
   39.9854   29.1977   43.3672 H   0  0  0  0  0  0  0  0  0  0  0  0
   36.7076   31.5289   40.5657 H   0  0  0  0  0  0  0  0  0  0  0  0
  1  2  2  0
  3  4  1  0
  3  1  1  0
  4  5  1  0
  6  7  1  0
  6  5  1  0
  8  7  1  0
  8  3  1  0
  9  8  1  0
 10  9  2  0
 11 10  1  0
 12 13  1  0
 12 11  2  0
 13 14  2  0
 14  9  1  0
 15 14  1  0
 15 19  1  0
 16 17  1  0
 16 15  2  0
 17 18  2  0
 18 19  1  0
 20 21  2  0
 22 21  1  0
 22  1  1  0
 23 22  2  0
 24 25  2  0
 24 23  1  0
 25 20  1  0
  4 26  1  0
  4 27  1  0
  5 28  1  0
  5 29  1  0
  6 30  1  0
  7 31  1  0
  7 32  1  0
  8 33  1  1
 10 34  1  0
 11 35  1  0
 12 36  1  0
 13 37  1  0
 16 38  1  0
 17 39  1  0
 18 40  1  0
 20 41  1  0
 21 42  1  0
 24 43  1  0
M  ISO  8  26  13  27  13  28  13  29  13  30   5  31  13  32  13  33  13
M  ISO  8  34  14  35  14  36  14  37  14  38  14  39  14  40  14  41  14
M  ISO  2  42  14  43  14
M  END
>  <minimizedAffinity>  (1) 
-5.99173212

>  <minimizedRMSD>  (1) 
2.84585571

$$$$
