
     RDKit          3D

 43 46  0  0  1  0  0  0  0  0999 V2000
   37.6140   28.0330   43.3730 C   0  0  0  0  0  0  0  0  0  0  0  0
   36.9220   28.0180   44.4460 O   0  0  0  0  0  0  0  0  0  0  0  0
   38.0780   26.7690   42.9030 N   0  0  0  0  0  0  0  0  0  0  0  0
   39.4210   26.3950   43.2140 C   0  0  0  0  0  0  0  0  0  0  0  0
   39.7470   24.9440   43.2330 C   0  0  0  0  0  0  0  0  0  0  0  0
   38.9680   24.1080   42.4200 N   0  0  0  0  0  0  0  0  0  0  0  0
   37.6060   24.3950   42.4430 C   0  0  0  0  0  0  0  0  0  0  0  0
   37.2810   25.8550   42.1960 C   0  0  2  0  0  0  0  0  0  0  0  0
   37.0140   26.0830   40.7930 C   0  0  0  0  0  0  0  0  0  0  0  0
   36.4890   27.3290   40.3610 C   0  0  0  0  0  0  0  0  0  0  0  0
   36.2000   27.6710   39.0720 C   0  0  0  0  0  0  0  0  0  0  0  0
   36.4600   26.6880   38.1200 C   0  0  0  0  0  0  0  0  0  0  0  0
   36.9750   25.4390   38.4800 C   0  0  0  0  0  0  0  0  0  0  0  0
   37.2300   25.1760   39.8170 C   0  0  0  0  0  0  0  0  0  0  0  0
   37.5740   23.7800   39.7060 C   0  0  0  0  0  0  0  0  0  0  0  0
   38.7240   23.2440   39.1530 C   0  0  0  0  0  0  0  0  0  0  0  0
   38.8890   21.8880   39.2980 C   0  0  0  0  0  0  0  0  0  0  0  0
   37.7700   21.6090   39.9760 N   0  0  0  0  0  0  0  0  0  0  0  0
   37.0260   22.6750   40.2080 N   0  0  0  0  0  0  0  0  0  0  0  0
   39.5520   30.8400   42.0000 C   0  0  0  0  0  0  0  0  0  0  0  0
   39.2190   29.7030   42.7100 C   0  0  0  0  0  0  0  0  0  0  0  0
   37.9380   29.2290   42.6380 C   0  0  0  0  0  0  0  0  0  0  0  0
   37.0640   29.9030   41.8760 N   0  0  0  0  0  0  0  0  0  0  0  0
   37.4010   31.0070   41.1910 C   0  0  0  0  0  0  0  0  0  0  0  0
   38.6410   31.4830   41.2450 N   0  0  0  0  0  0  0  0  0  0  0  0
   40.0754   26.8692   42.4677 H   0  0  0  0  0  0  0  0  0  0  0  0
   39.5692   26.7272   44.2521 H   0  0  0  0  0  0  0  0  0  0  0  0
   40.7944   24.8345   42.9152 H   0  0  0  0  0  0  0  0  0  0  0  0
   39.5397   24.6170   44.2626 H   0  0  0  0  0  0  0  0  0  0  0  0
   39.0985   23.1367   42.7370 H   0  0  0  0  0  0  0  0  0  0  0  0
   37.1123   23.7940   41.6651 H   0  0  0  0  0  0  0  0  0  0  0  0
   37.2464   24.1548   43.4544 H   0  0  0  0  0  0  0  0  0  0  0  0
   36.3253   26.1018   42.6814 H   0  0  0  0  0  0  0  0  0  0  0  0
   36.2979   28.0870   41.1349 H   0  0  0  0  0  0  0  0  0  0  0  0
   35.7898   28.6556   38.8031 H   0  0  0  0  0  0  0  0  0  0  0  0
   36.2553   26.8993   37.0601 H   0  0  0  0  0  0  0  0  0  0  0  0
   37.1750   24.6760   37.7133 H   0  0  0  0  0  0  0  0  0  0  0  0
   39.4627   23.8675   38.6280 H   0  0  0  0  0  0  0  0  0  0  0  0
   39.7003   21.2277   38.9577 H   0  0  0  0  0  0  0  0  0  0  0  0
   37.5150   20.6602   40.2853 H   0  0  0  0  0  0  0  0  0  0  0  0
   40.5802   31.2274   42.0522 H   0  0  0  0  0  0  0  0  0  0  0  0
   39.9721   29.1869   43.3236 H   0  0  0  0  0  0  0  0  0  0  0  0
   36.6450   31.5220   40.5800 H   0  0  0  0  0  0  0  0  0  0  0  0
  1  2  2  0
  3  4  1  0
  3  1  1  0
  4  5  1  0
  6  7  1  0
  6  5  1  0
  8  7  1  0
  8  3  1  0
  9  8  1  0
 10  9  2  0
 11 10  1  0
 12 13  1  0
 12 11  2  0
 13 14  2  0
 14  9  1  0
 15 14  1  0
 15 19  2  0
 16 17  2  0
 16 15  1  0
 17 18  1  0
 18 19  1  0
 20 21  2  0
 22 21  1  0
 22  1  1  0
 23 22  2  0
 24 25  2  0
 24 23  1  0
 25 20  1  0
  4 26  1  0
  4 27  1  0
  5 28  1  0
  5 29  1  0
  6 30  1  0
  7 31  1  0
  7 32  1  0
  8 33  1  1
 10 34  1  0
 11 35  1  0
 12 36  1  0
 13 37  1  0
 16 38  1  0
 17 39  1  0
 18 40  1  0
 20 41  1  0
 21 42  1  0
 24 43  1  0
M  ISO  8  26  13  27  13  28  13  29  13  30   5  31  13  32  13  33  13
M  ISO  8  34  14  35  14  36  14  37  14  38  14  39  14  40   9  41  14
M  ISO  2  42  14  43  14
M  END
>  <minimizedAffinity>  (1) 
-5.96875954

>  <minimizedRMSD>  (1) 
2.94385052

$$$$
