
     RDKit          3D

 42 45  0  0  1  0  0  0  0  0999 V2000
   37.6210   28.0100   43.3630 C   0  0  0  0  0  0  0  0  0  0  0  0
   36.9440   27.9950   44.4420 O   0  0  0  0  0  0  0  0  0  0  0  0
   38.0830   26.7490   42.8820 N   0  0  0  0  0  0  0  0  0  0  0  0
   39.4420   26.3770   43.1590 C   0  0  0  0  0  0  0  0  0  0  0  0
   39.7420   24.9250   43.2060 C   0  0  0  0  0  0  0  0  0  0  0  0
   38.9760   24.0880   42.3410 N   0  0  0  0  0  0  0  0  0  0  0  0
   37.6030   24.3800   42.4270 C   0  0  0  0  0  0  0  0  0  0  0  0
   37.2720   25.8360   42.1870 C   0  0  2  0  0  0  0  0  0  0  0  0
   36.9950   26.0690   40.7870 C   0  0  0  0  0  0  0  0  0  0  0  0
   36.4860   27.3200   40.3580 C   0  0  0  0  0  0  0  0  0  0  0  0
   36.1920   27.6870   39.0820 C   0  0  0  0  0  0  0  0  0  0  0  0
   36.4400   26.6990   38.1150 C   0  0  0  0  0  0  0  0  0  0  0  0
   36.9380   25.4450   38.4650 C   0  0  0  0  0  0  0  0  0  0  0  0
   37.1920   25.1710   39.7980 C   0  0  0  0  0  0  0  0  0  0  0  0
   37.4870   23.7660   39.7020 C   0  0  0  0  0  0  0  0  0  0  0  0
   38.7050   23.7110   38.7680 C   0  0  0  0  0  0  0  0  0  0  0  0
   39.2290   22.0190   38.7400 S   0  0  0  0  0  0  0  0  0  0  0  0
   37.8070   21.5500   39.9510 C   0  0  0  0  0  0  0  0  0  0  0  0
   37.2620   22.5910   40.1410 N   0  0  0  0  0  0  0  0  0  0  0  0
   39.5340   30.8310   41.9780 C   0  0  0  0  0  0  0  0  0  0  0  0
   39.2120   29.6880   42.6890 C   0  0  0  0  0  0  0  0  0  0  0  0
   37.9340   29.2100   42.6270 C   0  0  0  0  0  0  0  0  0  0  0  0
   37.0580   29.8870   41.8720 N   0  0  0  0  0  0  0  0  0  0  0  0
   37.3810   30.9930   41.1870 C   0  0  0  0  0  0  0  0  0  0  0  0
   38.6170   31.4720   41.2340 N   0  0  0  0  0  0  0  0  0  0  0  0
   40.0748   26.8224   42.3772 H   0  0  0  0  0  0  0  0  0  0  0  0
   39.6391   26.7446   44.1768 H   0  0  0  0  0  0  0  0  0  0  0  0
   40.8024   24.7943   42.9445 H   0  0  0  0  0  0  0  0  0  0  0  0
   39.4801   24.6067   44.2258 H   0  0  0  0  0  0  0  0  0  0  0  0
   39.1266   23.1044   42.6069 H   0  0  0  0  0  0  0  0  0  0  0  0
   37.0723   23.7755   41.6767 H   0  0  0  0  0  0  0  0  0  0  0  0
   37.2896   24.1456   43.4550 H   0  0  0  0  0  0  0  0  0  0  0  0
   36.3197   26.0752   42.6830 H   0  0  0  0  0  0  0  0  0  0  0  0
   36.3101   28.0738   41.1396 H   0  0  0  0  0  0  0  0  0  0  0  0
   35.7916   28.6794   38.8273 H   0  0  0  0  0  0  0  0  0  0  0  0
   36.2365   26.9200   37.0568 H   0  0  0  0  0  0  0  0  0  0  0  0
   37.1264   24.6842   37.6932 H   0  0  0  0  0  0  0  0  0  0  0  0
   39.1603   24.5528   38.2256 H   0  0  0  0  0  0  0  0  0  0  0  0
   37.5591   20.5618   40.3657 H   0  0  0  0  0  0  0  0  0  0  0  0
   40.5610   31.2224   42.0229 H   0  0  0  0  0  0  0  0  0  0  0  0
   39.9728   29.1730   43.2940 H   0  0  0  0  0  0  0  0  0  0  0  0
   36.6177   31.5056   40.5832 H   0  0  0  0  0  0  0  0  0  0  0  0
  1  2  2  0
  3  4  1  0
  3  1  1  0
  4  5  1  0
  6  7  1  0
  6  5  1  0
  8  7  1  0
  8  3  1  0
  9  8  1  0
 10  9  2  0
 11 10  1  0
 12 13  1  0
 12 11  2  0
 13 14  2  0
 14  9  1  0
 15 14  1  0
 15 19  1  0
 16 15  2  0
 17 16  1  0
 17 18  1  0
 18 19  2  0
 20 21  2  0
 22 21  1  0
 22  1  1  0
 23 22  2  0
 24 25  2  0
 24 23  1  0
 25 20  1  0
  4 26  1  0
  4 27  1  0
  5 28  1  0
  5 29  1  0
  6 30  1  0
  7 31  1  0
  7 32  1  0
  8 33  1  1
 10 34  1  0
 11 35  1  0
 12 36  1  0
 13 37  1  0
 16 38  1  0
 18 39  1  0
 20 40  1  0
 21 41  1  0
 24 42  1  0
M  ISO  8  26  13  27  13  28  13  29  13  30   5  31  13  32  13  33  13
M  ISO  8  34  14  35  14  36  14  37  14  38  14  39  14  40  14  41  14
M  ISO  1  42  14
M  END
>  <minimizedAffinity>  (1) 
-5.94180155

>  <minimizedRMSD>  (1) 
2.97835398

$$$$
