
     RDKit          3D

 47 51  0  0  1  0  0  0  0  0999 V2000
   37.5470   27.9750   43.2480 C   0  0  0  0  0  0  0  0  0  0  0  0
   37.2000   28.0020   44.4760 O   0  0  0  0  0  0  0  0  0  0  0  0
   38.6220   27.1060   42.9050 N   0  0  0  0  0  0  0  0  0  0  0  0
   39.9340   27.6720   42.7380 C   0  0  0  0  0  0  0  0  0  0  0  0
   41.0780   26.7690   43.0320 C   0  0  0  0  0  0  0  0  0  0  0  0
   40.8970   25.3940   42.6890 N   0  0  0  0  0  0  0  0  0  0  0  0
   39.6780   24.8900   43.1530 C   0  0  0  0  0  0  0  0  0  0  0  0
   38.4770   25.7160   42.7430 C   0  0  2  0  0  0  0  0  0  0  0  0
   37.9040   25.2070   41.5220 C   0  0  0  0  0  0  0  0  0  0  0  0
   36.7910   24.3260   41.5650 C   0  0  0  0  0  0  0  0  0  0  0  0
   36.1560   23.7710   40.4920 C   0  0  0  0  0  0  0  0  0  0  0  0
   36.6730   24.1330   39.2410 C   0  0  0  0  0  0  0  0  0  0  0  0
   37.7730   24.9970   39.1270 C   0  0  0  0  0  0  0  0  0  0  0  0
   38.3530   25.4960   40.2800 C   0  0  0  0  0  0  0  0  0  0  0  0
   39.4950   26.0270   39.6600 N   0  0  0  0  0  0  0  0  0  0  0  0
   40.7190   25.6280   39.3800 C   0  0  0  0  0  0  0  0  0  0  0  0
   41.5200   26.5350   38.8210 N   0  0  0  0  0  0  0  0  0  0  0  0
   40.8200   27.6780   38.6910 C   0  0  0  0  0  0  0  0  0  0  0  0
   41.2350   28.8720   38.1930 C   0  0  0  0  0  0  0  0  0  0  0  0
   40.3170   29.8540   38.2150 N   0  0  0  0  0  0  0  0  0  0  0  0
   39.0880   29.6190   38.7060 C   0  0  0  0  0  0  0  0  0  0  0  0
   38.7990   28.4240   39.1600 N   0  0  0  0  0  0  0  0  0  0  0  0
   39.5870   27.3360   39.2130 C   0  0  0  0  0  0  0  0  0  0  0  0
   36.6900   30.8250   41.0870 C   0  0  0  0  0  0  0  0  0  0  0  0
   37.2940   30.0710   42.0790 C   0  0  0  0  0  0  0  0  0  0  0  0
   36.9190   28.7640   42.2090 C   0  0  0  0  0  0  0  0  0  0  0  0
   35.9880   28.2880   41.3690 N   0  0  0  0  0  0  0  0  0  0  0  0
   35.4110   29.0260   40.4150 C   0  0  0  0  0  0  0  0  0  0  0  0
   35.7570   30.2980   40.2660 N   0  0  0  0  0  0  0  0  0  0  0  0
   40.0268   28.0028   41.6930 H   0  0  0  0  0  0  0  0  0  0  0  0
   40.0015   28.4846   43.4764 H   0  0  0  0  0  0  0  0  0  0  0  0
   41.9517   27.1417   42.4772 H   0  0  0  0  0  0  0  0  0  0  0  0
   41.1962   26.7879   44.1255 H   0  0  0  0  0  0  0  0  0  0  0  0
   40.9255   25.3014   41.6636 H   0  0  0  0  0  0  0  0  0  0  0  0
   39.5503   23.8722   42.7559 H   0  0  0  0  0  0  0  0  0  0  0  0
   39.7208   24.9121   44.2519 H   0  0  0  0  0  0  0  0  0  0  0  0
   37.6762   25.5724   43.4833 H   0  0  0  0  0  0  0  0  0  0  0  0
   36.4027   24.0654   42.5606 H   0  0  0  0  0  0  0  0  0  0  0  0
   35.3001   23.0887   40.6014 H   0  0  0  0  0  0  0  0  0  0  0  0
   36.2069   23.7315   38.3291 H   0  0  0  0  0  0  0  0  0  0  0  0
   38.1674   25.2729   38.1379 H   0  0  0  0  0  0  0  0  0  0  0  0
   41.0605   24.6047   39.5953 H   0  0  0  0  0  0  0  0  0  0  0  0
   42.2508   29.0245   37.7994 H   0  0  0  0  0  0  0  0  0  0  0  0
   38.3341   30.4198   38.7265 H   0  0  0  0  0  0  0  0  0  0  0  0
   36.9776   31.8797   40.9649 H   0  0  0  0  0  0  0  0  0  0  0  0
   38.0530   30.5113   42.7424 H   0  0  0  0  0  0  0  0  0  0  0  0
   34.6518   28.5799   39.7558 H   0  0  0  0  0  0  0  0  0  0  0  0
  1  2  2  0
  3  1  1  0
  4  3  1  0
  4  5  1  0
  6  5  1  0
  6  7  1  0
  8  3  1  0
  8  7  1  0
  9 10  2  0
  9  8  1  0
 11 10  1  0
 12 11  2  0
 13 12  1  0
 13 14  2  0
 14  9  1  0
 15 14  1  0
 16 15  1  0
 17 16  2  0
 18 17  1  0
 18 23  2  0
 19 20  2  0
 19 18  1  0
 20 21  1  0
 21 22  2  0
 22 23  1  0
 23 15  1  0
 24 25  2  0
 25 26  1  0
 26  1  1  0
 27 26  2  0
 28 27  1  0
 29 28  2  0
 29 24  1  0
  4 30  1  0
  4 31  1  0
  5 32  1  0
  5 33  1  0
  6 34  1  0
  7 35  1  0
  7 36  1  0
  8 37  1  1
 10 38  1  0
 11 39  1  0
 12 40  1  0
 13 41  1  0
 16 42  1  0
 19 43  1  0
 21 44  1  0
 24 45  1  0
 25 46  1  0
 28 47  1  0
M  ISO  8  30  13  31  13  32  13  33  13  34   5  35  13  36  13  37  13
M  ISO  8  38  14  39  14  40  14  41  14  42  14  43  14  44  14  45  14
M  ISO  2  46  14  47  14
M  END
>  <minimizedAffinity>  (1) 
-5.93386364

>  <minimizedRMSD>  (1) 
2.61261058

$$$$
