
     RDKit          3D

 48 51  0  0  1  0  0  0  0  0999 V2000
   39.3340   28.1510   42.3460 C   0  0  2  0  0  0  0  0  0  0  0  0
   40.5190   27.1960   42.2710 C   0  0  2  0  0  0  0  0  0  0  0  0
   40.2710   25.9630   41.5450 C   0  0  0  0  0  0  0  0  0  0  0  0
   40.6390   24.7730   42.4070 C   0  0  0  0  0  0  0  0  0  0  0  0
   41.3760   25.3370   43.5850 C   0  0  0  0  0  0  0  0  0  0  0  0
   40.8360   26.7420   43.6850 C   0  0  1  0  0  0  0  0  0  0  0  0
   41.9580   27.5920   44.1690 C   0  0  0  0  0  0  0  0  0  0  0  0
   42.5310   28.6690   43.5180 C   0  0  0  0  0  0  0  0  0  0  0  0
   43.5670   29.3050   44.1710 C   0  0  0  0  0  0  0  0  0  0  0  0
   43.9860   28.8930   45.3710 N   0  0  0  0  0  0  0  0  0  0  0  0
   43.4150   27.8370   45.9960 C   0  0  0  0  0  0  0  0  0  0  0  0
   42.3910   27.1760   45.3950 N   0  0  0  0  0  0  0  0  0  0  0  0
   38.1480   27.4470   42.7270 N   0  0  0  0  0  0  0  0  0  0  0  0
   37.1470   28.0530   43.5240 C   0  0  0  0  0  0  0  0  0  0  0  0
   37.3650   29.2400   43.9830 N   0  0  0  0  0  0  0  0  0  0  0  0
   35.9550   27.3820   43.8040 N   0  0  0  0  0  0  0  0  0  0  0  0
   36.6480   29.7290   44.5570 H   0  0  0  0  0  0  0  0  0  0  0  0
   38.6060   29.1770   38.9510 C   0  0  0  0  0  0  0  0  0  0  0  0
   39.4440   30.2180   39.3660 C   0  0  0  0  0  0  0  0  0  0  0  0
   39.7610   29.8910   40.6560 C   0  0  0  0  0  0  0  0  0  0  0  0
   39.1620   28.7300   41.0110 N   0  0  0  0  0  0  0  0  0  0  0  0
   38.4620   28.3060   39.9680 N   0  0  0  0  0  0  0  0  0  0  0  0
   38.1610   28.0110   36.7700 C   0  0  0  0  0  0  0  0  0  0  0  0
   38.0070   29.0820   37.6330 C   0  0  0  0  0  0  0  0  0  0  0  0
   37.2300   30.1320   37.2070 C   0  0  0  0  0  0  0  0  0  0  0  0
   36.6310   30.1120   35.9710 N   0  0  0  0  0  0  0  0  0  0  0  0
   36.8290   29.0010   35.1560 C   0  0  0  0  0  0  0  0  0  0  0  0
   37.6080   27.9460   35.5780 N   0  0  0  0  0  0  0  0  0  0  0  0
   39.5164   28.9339   43.0969 H   0  0  0  0  0  0  0  0  0  0  0  0
   41.3132   27.7557   41.7552 H   0  0  0  0  0  0  0  0  0  0  0  0
   39.2053   25.9047   41.2789 H   0  0  0  0  0  0  0  0  0  0  0  0
   40.8840   25.9514   40.6317 H   0  0  0  0  0  0  0  0  0  0  0  0
   39.7328   24.2449   42.7386 H   0  0  0  0  0  0  0  0  0  0  0  0
   41.2525   24.0461   41.8546 H   0  0  0  0  0  0  0  0  0  0  0  0
   41.1581   24.7642   44.4984 H   0  0  0  0  0  0  0  0  0  0  0  0
   42.4693   25.3010   43.4690 H   0  0  0  0  0  0  0  0  0  0  0  0
   39.9550   26.8019   44.3409 H   0  0  0  0  0  0  0  0  0  0  0  0
   42.1791   29.0017   42.5303 H   0  0  0  0  0  0  0  0  0  0  0  0
   44.0569   30.1671   43.6948 H   0  0  0  0  0  0  0  0  0  0  0  0
   43.7774   27.5160   46.9837 H   0  0  0  0  0  0  0  0  0  0  0  0
   38.0192   26.4744   42.4134 H   0  0  0  0  0  0  0  0  0  0  0  0
   35.2342   27.8333   44.3851 H   0  0  0  0  0  0  0  0  0  0  0  0
   35.7965   26.4357   43.4295 H   0  0  0  0  0  0  0  0  0  0  0  0
   39.7717   31.0954   38.7891 H   0  0  0  0  0  0  0  0  0  0  0  0
   40.4113   30.4876   41.3126 H   0  0  0  0  0  0  0  0  0  0  0  0
   38.7818   27.1650   37.0999 H   0  0  0  0  0  0  0  0  0  0  0  0
   37.0855   31.0013   37.8653 H   0  0  0  0  0  0  0  0  0  0  0  0
   36.3576   28.9650   34.1628 H   0  0  0  0  0  0  0  0  0  0  0  0
  1 13  1  0
  2  1  1  0
  2  6  1  0
  3  2  1  0
  3  4  1  0
  4  5  1  0
  5  6  1  0
  6  7  1  0
  7 12  1  0
  8  7  2  0
  8  9  1  0
  9 10  2  0
 10 11  1  0
 12 11  2  0
 13 14  1  0
 14 16  1  0
 14 15  2  0
 15 17  1  0
 18 19  1  0
 18 22  2  0
 19 20  2  0
 20 21  1  0
 21  1  1  0
 22 21  1  0
 23 24  2  0
 24 18  1  0
 25 24  1  0
 26 25  2  0
 27 28  2  0
 27 26  1  0
 28 23  1  0
  1 29  1  1
  2 30  1  6
  3 31  1  0
  3 32  1  0
  4 33  1  0
  4 34  1  0
  5 35  1  0
  5 36  1  0
  6 37  1  1
  8 38  1  0
  9 39  1  0
 11 40  1  0
 13 41  1  0
 16 42  1  0
 16 43  1  0
 19 44  1  0
 20 45  1  0
 23 46  1  0
 25 47  1  0
 27 48  1  0
M  ISO  8  29   8  30  13  31  13  32  13  33  13  34  13  35  13  36  13
M  ISO  8  37  13  38  14  39  14  40  14  44  14  45  14  46  14  47  14
M  ISO  1  48  14
M  END
>  <minimizedAffinity>  (1) 
-5.40458727

>  <minimizedRMSD>  (1) 
0.635365903

$$$$
