
     RDKit          3D

 43 45  0  0  1  0  0  0  0  0999 V2000
   37.6090   28.0240   43.3630 C   0  0  0  0  0  0  0  0  0  0  0  0
   36.9030   27.9970   44.4290 O   0  0  0  0  0  0  0  0  0  0  0  0
   38.0740   26.7620   42.8870 N   0  0  0  0  0  0  0  0  0  0  0  0
   39.4300   26.3890   43.1850 C   0  0  0  0  0  0  0  0  0  0  0  0
   39.7380   24.9400   43.2330 C   0  0  0  0  0  0  0  0  0  0  0  0
   39.0100   24.1210   42.3430 N   0  0  0  0  0  0  0  0  0  0  0  0
   37.6240   24.3920   42.3900 C   0  0  0  0  0  0  0  0  0  0  0  0
   37.2680   25.8490   42.1790 C   0  0  2  0  0  0  0  0  0  0  0  0
   37.0100   26.0960   40.7750 C   0  0  0  0  0  0  0  0  0  0  0  0
   36.4420   27.2950   40.3330 C   0  0  0  0  0  0  0  0  0  0  0  0
   36.1430   27.6320   39.0420 C   0  0  0  0  0  0  0  0  0  0  0  0
   36.4360   26.7010   38.0900 C   0  0  0  0  0  0  0  0  0  0  0  0
   36.9980   25.4810   38.4350 C   0  0  0  0  0  0  0  0  0  0  0  0
   37.2600   25.2200   39.7700 C   0  0  0  0  0  0  0  0  0  0  0  0
   37.5050   23.8570   39.8220 N   0  0  0  0  0  0  0  0  0  0  0  0
   37.7350   22.5810   39.8700 C   0  0  0  0  0  0  0  0  0  0  0  0
   39.0040   22.5670   39.4610 N   0  0  0  0  0  0  0  0  0  0  0  0
   37.6470   21.2200   40.0280 N   0  0  0  0  0  0  0  0  0  0  0  0
   39.5360   23.3910   39.2070 H   0  0  0  0  0  0  0  0  0  0  0  0
   39.5620   30.8540   42.0440 C   0  0  0  0  0  0  0  0  0  0  0  0
   39.2200   29.7140   42.7410 C   0  0  0  0  0  0  0  0  0  0  0  0
   37.9470   29.2260   42.6430 C   0  0  0  0  0  0  0  0  0  0  0  0
   37.0710   29.8930   41.8600 N   0  0  0  0  0  0  0  0  0  0  0  0
   37.4280   31.0050   41.1910 C   0  0  0  0  0  0  0  0  0  0  0  0
   38.6590   31.4960   41.2700 N   0  0  0  0  0  0  0  0  0  0  0  0
   40.0740   26.8391   42.4151 H   0  0  0  0  0  0  0  0  0  0  0  0
   39.6055   26.7507   44.2089 H   0  0  0  0  0  0  0  0  0  0  0  0
   40.8071   24.8159   43.0059 H   0  0  0  0  0  0  0  0  0  0  0  0
   39.4497   24.6097   44.2418 H   0  0  0  0  0  0  0  0  0  0  0  0
   39.1650   23.1347   42.5960 H   0  0  0  0  0  0  0  0  0  0  0  0
   37.1300   23.7993   41.6060 H   0  0  0  0  0  0  0  0  0  0  0  0
   37.2847   24.1275   43.4024 H   0  0  0  0  0  0  0  0  0  0  0  0
   36.3115   26.0670   42.6765 H   0  0  0  0  0  0  0  0  0  0  0  0
   36.2118   28.0450   41.1041 H   0  0  0  0  0  0  0  0  0  0  0  0
   35.6907   28.6014   38.7855 H   0  0  0  0  0  0  0  0  0  0  0  0
   36.2236   26.9207   37.0333 H   0  0  0  0  0  0  0  0  0  0  0  0
   37.2316   24.7338   37.6623 H   0  0  0  0  0  0  0  0  0  0  0  0
   36.8146   23.7615   40.5804 H   0  0  0  0  0  0  0  0  0  0  0  0
   38.4619   20.6241   39.8237 H   0  0  0  0  0  0  0  0  0  0  0  0
   36.7661   20.7949   40.3508 H   0  0  0  0  0  0  0  0  0  0  0  0
   40.5866   31.2471   42.1193 H   0  0  0  0  0  0  0  0  0  0  0  0
   39.9642   29.2027   43.3694 H   0  0  0  0  0  0  0  0  0  0  0  0
   36.6834   31.5184   40.5649 H   0  0  0  0  0  0  0  0  0  0  0  0
  1  2  2  0
  3  4  1  0
  3  1  1  0
  4  5  1  0
  6  7  1  0
  6  5  1  0
  8  7  1  0
  8  3  1  0
  9  8  1  0
 10  9  2  0
 11 10  1  0
 12 13  1  0
 12 11  2  0
 13 14  2  0
 14 15  1  0
 14  9  1  0
 15 16  1  0
 16 18  1  0
 17 16  2  0
 19 17  1  0
 20 21  2  0
 22 21  1  0
 22  1  1  0
 23 22  2  0
 24 25  2  0
 24 23  1  0
 25 20  1  0
  4 26  1  0
  4 27  1  0
  5 28  1  0
  5 29  1  0
  6 30  1  0
  7 31  1  0
  7 32  1  0
  8 33  1  1
 10 34  1  0
 11 35  1  0
 12 36  1  0
 13 37  1  0
 15 38  1  0
 18 39  1  0
 18 40  1  0
 20 41  1  0
 21 42  1  0
 24 43  1  0
M  ISO  8  26  13  27  13  28  13  29  13  30   5  31  13  32  13  33  13
M  ISO  7  34  14  35  14  36  14  37  14  41  14  42  14  43  14
M  END
>  <minimizedAffinity>  (1) 
-5.75917768

>  <minimizedRMSD>  (1) 
2.71430326

$$$$
