
     RDKit          3D

 51 54  0  0  1  0  0  0  0  0999 V2000
   36.9780   27.5130   42.8590 C   0  0  0  0  0  0  0  0  0  0  0  0
   36.1170   27.0500   43.6650 O   0  0  0  0  0  0  0  0  0  0  0  0
   38.2580   26.8800   42.8360 N   0  0  0  0  0  0  0  0  0  0  0  0
   39.3540   27.4920   43.5410 C   0  0  0  0  0  0  0  0  0  0  0  0
   40.4020   26.5700   44.0470 C   0  0  0  0  0  0  0  0  0  0  0  0
   40.6710   25.4190   43.2550 N   0  0  0  0  0  0  0  0  0  0  0  0
   39.5150   24.7600   42.8330 C   0  0  0  0  0  0  0  0  0  0  0  0
   38.5070   25.6700   42.1650 C   0  0  2  0  0  0  0  0  0  0  0  0
   38.6620   25.6560   40.7440 C   0  0  0  0  0  0  0  0  0  0  0  0
   39.0610   26.8030   40.0270 C   0  0  0  0  0  0  0  0  0  0  0  0
   39.2270   26.9080   38.6750 C   0  0  0  0  0  0  0  0  0  0  0  0
   38.9730   25.7330   37.9510 C   0  0  0  0  0  0  0  0  0  0  0  0
   38.5680   24.5450   38.5890 C   0  0  0  0  0  0  0  0  0  0  0  0
   38.4290   24.5870   39.9640 C   0  0  0  0  0  0  0  0  0  0  0  0
   37.7160   23.3910   40.0790 N   0  0  0  0  0  0  0  0  0  0  0  0
   37.6500   21.9870   39.8770 C   0  0  0  0  0  0  0  0  0  0  0  0
   36.3740   21.5390   39.2050 C   0  0  0  0  0  0  0  0  0  0  0  0
   35.6500   22.5570   38.4130 C   0  0  0  0  0  0  0  0  0  0  0  0
   35.3870   23.7150   39.3400 C   0  0  0  0  0  0  0  0  0  0  0  0
   36.3340   23.6730   40.5380 C   0  0  0  0  0  0  0  0  0  0  0  0
   37.3480   30.7920   41.2340 C   0  0  0  0  0  0  0  0  0  0  0  0
   37.5510   29.7170   42.0720 C   0  0  0  0  0  0  0  0  0  0  0  0
   36.7320   28.6310   41.9750 C   0  0  0  0  0  0  0  0  0  0  0  0
   35.7620   28.6820   41.0560 N   0  0  0  0  0  0  0  0  0  0  0  0
   35.5670   29.7310   40.2430 C   0  0  0  0  0  0  0  0  0  0  0  0
   36.3560   30.7900   40.3230 N   0  0  0  0  0  0  0  0  0  0  0  0
   39.8363   28.2061   42.8573 H   0  0  0  0  0  0  0  0  0  0  0  0
   38.9093   27.9528   44.4354 H   0  0  0  0  0  0  0  0  0  0  0  0
   41.3374   27.1424   44.1333 H   0  0  0  0  0  0  0  0  0  0  0  0
   40.0136   26.1830   45.0006 H   0  0  0  0  0  0  0  0  0  0  0  0
   41.2036   25.7111   42.4232 H   0  0  0  0  0  0  0  0  0  0  0  0
   39.8035   23.9762   42.1172 H   0  0  0  0  0  0  0  0  0  0  0  0
   39.0320   24.3494   43.7320 H   0  0  0  0  0  0  0  0  0  0  0  0
   37.4989   25.2487   42.2922 H   0  0  0  0  0  0  0  0  0  0  0  0
   39.2595   27.7087   40.6188 H   0  0  0  0  0  0  0  0  0  0  0  0
   39.5371   27.8451   38.1894 H   0  0  0  0  0  0  0  0  0  0  0  0
   39.0933   25.7403   36.8576 H   0  0  0  0  0  0  0  0  0  0  0  0
   38.3711   23.6249   38.0192 H   0  0  0  0  0  0  0  0  0  0  0  0
   38.5004   21.6845   39.2483 H   0  0  0  0  0  0  0  0  0  0  0  0
   37.6788   21.5136   40.8695 H   0  0  0  0  0  0  0  0  0  0  0  0
   36.6264   20.7082   38.5297 H   0  0  0  0  0  0  0  0  0  0  0  0
   35.6924   21.2714   40.0258 H   0  0  0  0  0  0  0  0  0  0  0  0
   36.2653   22.8841   37.5618 H   0  0  0  0  0  0  0  0  0  0  0  0
   34.7111   22.1513   38.0081 H   0  0  0  0  0  0  0  0  0  0  0  0
   35.5383   24.6572   38.7929 H   0  0  0  0  0  0  0  0  0  0  0  0
   34.3515   23.6479   39.7050 H   0  0  0  0  0  0  0  0  0  0  0  0
   36.0111   22.8819   41.2307 H   0  0  0  0  0  0  0  0  0  0  0  0
   36.3138   24.6463   41.0501 H   0  0  0  0  0  0  0  0  0  0  0  0
   38.0086   31.6682   41.3106 H   0  0  0  0  0  0  0  0  0  0  0  0
   38.3652   29.7348   42.8114 H   0  0  0  0  0  0  0  0  0  0  0  0
   34.7490   29.7107   39.5079 H   0  0  0  0  0  0  0  0  0  0  0  0
  1  2  2  0
  3  1  1  0
  3  4  1  0
  4  5  1  0
  6  5  1  0
  7  6  1  0
  8  7  1  0
  8  3  1  0
  9  8  1  0
 10  9  2  0
 11 10  1  0
 12 13  1  0
 12 11  2  0
 13 14  2  0
 14 15  1  0
 14  9  1  0
 15 20  1  0
 16 15  1  0
 17 16  1  0
 18 17  1  0
 18 19  1  0
 19 20  1  0
 21 22  2  0
 23 22  1  0
 23  1  1  0
 24 23  2  0
 25 26  2  0
 25 24  1  0
 26 21  1  0
  4 27  1  0
  4 28  1  0
  5 29  1  0
  5 30  1  0
  6 31  1  0
  7 32  1  0
  7 33  1  0
  8 34  1  6
 10 35  1  0
 11 36  1  0
 12 37  1  0
 13 38  1  0
 16 39  1  0
 16 40  1  0
 17 41  1  0
 17 42  1  0
 18 43  1  0
 18 44  1  0
 19 45  1  0
 19 46  1  0
 20 47  1  0
 20 48  1  0
 21 49  1  0
 22 50  1  0
 25 51  1  0
M  ISO  8  27  13  28  13  29  13  30  13  31   5  32  13  33  13  34  13
M  ISO  8  35  14  36  14  37  14  38  14  39  13  40  13  41  13  42  13
M  ISO  8  43  13  44  13  45  13  46  13  47  13  48  13  49  14  50  14
M  ISO  1  51  14
M  END
>  <minimizedAffinity>  (1) 
-5.55752754

>  <minimizedRMSD>  (1) 
3.78788638

$$$$
