
     RDKit          3D

 37 39  0  0  1  0  0  0  0  0999 V2000
   37.5100   27.8150   43.1950 C   0  0  0  0  0  0  0  0  0  0  0  0
   36.6340   27.7400   44.1080 O   0  0  0  0  0  0  0  0  0  0  0  0
   38.1230   26.5880   42.8010 N   0  0  0  0  0  0  0  0  0  0  0  0
   39.4480   26.2810   43.3110 C   0  0  0  0  0  0  0  0  0  0  0  0
   39.7560   24.8360   43.4440 C   0  0  0  0  0  0  0  0  0  0  0  0
   39.2210   23.9790   42.4470 N   0  0  0  0  0  0  0  0  0  0  0  0
   37.8590   24.2150   42.2180 C   0  0  0  0  0  0  0  0  0  0  0  0
   37.4730   25.6620   41.9530 C   0  0  2  0  0  0  0  0  0  0  0  0
   37.4930   25.9140   40.5300 C   0  0  0  0  0  0  0  0  0  0  0  0
   36.4050   25.5590   39.7060 C   0  0  0  0  0  0  0  0  0  0  0  0
   36.3480   25.7340   38.3360 C   0  0  0  0  0  0  0  0  0  0  0  0
   37.4530   26.3090   37.7320 C   0  0  0  0  0  0  0  0  0  0  0  0
   38.5660   26.6860   38.4710 C   0  0  0  0  0  0  0  0  0  0  0  0
   38.5520   26.4770   39.8330 C   0  0  0  0  0  0  0  0  0  0  0  0
   39.7200   26.8910   40.3730 O   0  0  0  0  0  0  0  0  0  0  0  0
   39.4860   30.8160   42.3770 C   0  0  0  0  0  0  0  0  0  0  0  0
   39.0730   29.6430   42.9850 C   0  0  0  0  0  0  0  0  0  0  0  0
   37.9040   29.0510   42.5560 C   0  0  0  0  0  0  0  0  0  0  0  0
   37.2120   29.6360   41.5630 N   0  0  0  0  0  0  0  0  0  0  0  0
   37.6400   30.7790   40.9890 C   0  0  0  0  0  0  0  0  0  0  0  0
   38.7650   31.3780   41.3800 N   0  0  0  0  0  0  0  0  0  0  0  0
   40.1867   26.7246   42.6272 H   0  0  0  0  0  0  0  0  0  0  0  0
   39.4860   26.6955   44.3292 H   0  0  0  0  0  0  0  0  0  0  0  0
   40.8503   24.7249   43.4278 H   0  0  0  0  0  0  0  0  0  0  0  0
   39.2781   24.5223   44.3838 H   0  0  0  0  0  0  0  0  0  0  0  0
   39.7359   24.1314   41.5681 H   0  0  0  0  0  0  0  0  0  0  0  0
   37.5556   23.6194   41.3444 H   0  0  0  0  0  0  0  0  0  0  0  0
   37.3466   23.9352   43.1503 H   0  0  0  0  0  0  0  0  0  0  0  0
   36.4299   25.8372   42.2550 H   0  0  0  0  0  0  0  0  0  0  0  0
   35.5295   25.1054   40.1937 H   0  0  0  0  0  0  0  0  0  0  0  0
   35.4659   25.4306   37.7530 H   0  0  0  0  0  0  0  0  0  0  0  0
   37.4490   26.4705   36.6439 H   0  0  0  0  0  0  0  0  0  0  0  0
   39.4391   27.1411   37.9806 H   0  0  0  0  0  0  0  0  0  0  0  0
   39.8710   26.8095   41.3480 H   0  0  0  0  0  0  0  0  0  0  0  0
   40.4163   31.2993   42.7103 H   0  0  0  0  0  0  0  0  0  0  0  0
   39.6658   29.1920   43.7945 H   0  0  0  0  0  0  0  0  0  0  0  0
   37.0466   31.2277   40.1788 H   0  0  0  0  0  0  0  0  0  0  0  0
  1  2  2  0
  3  1  1  0
  3  4  1  0
  4  5  1  0
  6  5  1  0
  7  6  1  0
  8  7  1  0
  8  3  1  0
  9  8  1  0
 10  9  2  0
 11 10  1  0
 12 11  2  0
 12 13  1  0
 13 14  2  0
 14 15  1  0
 14  9  1  0
 16 17  2  0
 18 17  1  0
 18  1  1  0
 19 18  2  0
 20 21  2  0
 20 19  1  0
 21 16  1  0
  4 22  1  0
  4 23  1  0
  5 24  1  0
  5 25  1  0
  6 26  1  0
  7 27  1  0
  7 28  1  0
  8 29  1  1
 10 30  1  0
 11 31  1  0
 12 32  1  0
 13 33  1  0
 15 34  1  0
 16 35  1  0
 17 36  1  0
 20 37  1  0
M  ISO  8  22  13  23  13  24  13  25  13  26   5  27  13  28  13  29  13
M  ISO  8  30  14  31  14  32  14  33  14  34   3  35  14  36  14  37  14
M  END
>  <minimizedAffinity>  (1) 
-5.22209167

>  <minimizedRMSD>  (1) 
0.359109491

$$$$
