
     RDKit          3D

 43 46  0  0  1  0  0  0  0  0999 V2000
   37.0970   27.5440   42.9470 C   0  0  0  0  0  0  0  0  0  0  0  0
   36.1730   27.3520   43.7970 O   0  0  0  0  0  0  0  0  0  0  0  0
   37.8960   26.4130   42.6030 N   0  0  0  0  0  0  0  0  0  0  0  0
   39.1570   26.2430   43.2490 C   0  0  0  0  0  0  0  0  0  0  0  0
   39.6940   24.8640   43.3560 C   0  0  0  0  0  0  0  0  0  0  0  0
   39.3280   23.9560   42.3320 N   0  0  0  0  0  0  0  0  0  0  0  0
   37.9610   24.0200   42.0210 C   0  0  0  0  0  0  0  0  0  0  0  0
   37.4970   25.4240   41.6940 C   0  0  2  0  0  0  0  0  0  0  0  0
   37.5360   25.6660   40.2820 C   0  0  0  0  0  0  0  0  0  0  0  0
   38.4260   26.6290   39.7450 C   0  0  0  0  0  0  0  0  0  0  0  0
   38.5610   26.9350   38.4180 C   0  0  0  0  0  0  0  0  0  0  0  0
   37.7430   26.2130   37.5510 C   0  0  0  0  0  0  0  0  0  0  0  0
   36.8420   25.2530   38.0210 C   0  0  0  0  0  0  0  0  0  0  0  0
   36.7650   25.0170   39.3760 C   0  0  0  0  0  0  0  0  0  0  0  0
   35.6050   24.0710   39.5480 C   0  0  0  0  0  0  0  0  0  0  0  0
   35.1180   23.2960   38.4010 C   0  0  0  0  0  0  0  0  0  0  0  0
   35.9350   22.5370   39.2950 C   0  0  0  0  0  0  0  0  0  0  0  0
   38.8890   30.6200   42.0130 C   0  0  0  0  0  0  0  0  0  0  0  0
   38.5840   29.4140   42.6140 C   0  0  0  0  0  0  0  0  0  0  0  0
   37.3640   28.8140   42.3370 C   0  0  0  0  0  0  0  0  0  0  0  0
   36.5380   29.4460   41.4930 N   0  0  0  0  0  0  0  0  0  0  0  0
   36.8630   30.6270   40.9210 C   0  0  0  0  0  0  0  0  0  0  0  0
   38.0260   31.2220   41.1680 N   0  0  0  0  0  0  0  0  0  0  0  0
   39.8945   26.8411   42.6937 H   0  0  0  0  0  0  0  0  0  0  0  0
   38.9824   26.5561   44.2889 H   0  0  0  0  0  0  0  0  0  0  0  0
   40.7918   24.9337   43.3626 H   0  0  0  0  0  0  0  0  0  0  0  0
   39.2533   24.4535   44.2765 H   0  0  0  0  0  0  0  0  0  0  0  0
   39.8703   24.1774   41.4848 H   0  0  0  0  0  0  0  0  0  0  0  0
   37.7682   23.3749   41.1511 H   0  0  0  0  0  0  0  0  0  0  0  0
   37.4041   23.6863   42.9090 H   0  0  0  0  0  0  0  0  0  0  0  0
   36.4211   25.5153   41.9039 H   0  0  0  0  0  0  0  0  0  0  0  0
   39.0625   27.1772   40.4551 H   0  0  0  0  0  0  0  0  0  0  0  0
   39.2671   27.6988   38.0601 H   0  0  0  0  0  0  0  0  0  0  0  0
   37.8079   26.4033   36.4695 H   0  0  0  0  0  0  0  0  0  0  0  0
   36.2044   24.6947   37.3197 H   0  0  0  0  0  0  0  0  0  0  0  0
   35.1345   24.7016   40.3167 H   0  0  0  0  0  0  0  0  0  0  0  0
   35.5047   23.5313   37.3985 H   0  0  0  0  0  0  0  0  0  0  0  0
   34.1072   23.1261   38.0017 H   0  0  0  0  0  0  0  0  0  0  0  0
   35.4879   21.7599   39.9323 H   0  0  0  0  0  0  0  0  0  0  0  0
   36.8476   21.9291   39.2080 H   0  0  0  0  0  0  0  0  0  0  0  0
   39.8554   31.0995   42.2277 H   0  0  0  0  0  0  0  0  0  0  0  0
   39.2976   28.9367   43.3017 H   0  0  0  0  0  0  0  0  0  0  0  0
   36.1488   31.1067   40.2355 H   0  0  0  0  0  0  0  0  0  0  0  0
  1  2  2  0
  3  1  1  0
  3  4  1  0
  4  5  1  0
  6  5  1  0
  7  6  1  0
  8  7  1  0
  8  3  1  0
  9  8  1  0
 10  9  2  0
 11 10  1  0
 12 13  1  0
 12 11  2  0
 13 14  2  0
 14 15  1  0
 14  9  1  0
 16 17  1  0
 16 15  1  0
 17 15  1  0
 18 19  2  0
 20 19  1  0
 20  1  1  0
 21 20  2  0
 22 23  2  0
 22 21  1  0
 23 18  1  0
  4 24  1  0
  4 25  1  0
  5 26  1  0
  5 27  1  0
  6 28  1  0
  7 29  1  0
  7 30  1  0
  8 31  1  1
 10 32  1  0
 11 33  1  0
 12 34  1  0
 13 35  1  0
 15 36  1  0
 16 37  1  0
 16 38  1  0
 17 39  1  0
 17 40  1  0
 18 41  1  0
 19 42  1  0
 22 43  1  0
M  ISO  8  24  13  25  13  26  13  27  13  28   5  29  13  30  13  31  13
M  ISO  8  32  14  33  14  34  14  35  14  36  13  37  13  38  13  39  13
M  ISO  4  40  13  41  14  42  14  43  14
M  END
>  <minimizedAffinity>  (1) 
-5.21641064

>  <minimizedRMSD>  (1) 
2.61760664

$$$$
