
     RDKit          3D

 26 28  0  0  0  0  0  0  0  0999 V2000
   38.8180   31.5810   38.9600 C   0  0  0  0  0  0  0  0  0  0  0  0
   37.7150   31.5430   38.0450 C   0  0  0  0  0  0  0  0  0  0  0  0
   36.5810   30.2800   38.7860 S   0  0  0  0  0  0  0  0  0  0  0  0
   37.8060   30.0350   40.2010 C   0  0  0  0  0  0  0  0  0  0  0  0
   38.6650   30.7560   39.9600 N   0  0  0  0  0  0  0  0  0  0  0  0
   40.2030   33.5430   39.5410 C   0  0  0  0  0  0  0  0  0  0  0  0
   39.9310   32.4860   38.6840 C   0  0  0  0  0  0  0  0  0  0  0  0
   40.7620   32.3400   37.5700 C   0  0  0  0  0  0  0  0  0  0  0  0
   41.7800   33.2210   37.3780 N   0  0  0  0  0  0  0  0  0  0  0  0
   41.9950   34.2420   38.2620 C   0  0  0  0  0  0  0  0  0  0  0  0
   41.2040   34.4010   39.3440 N   0  0  0  0  0  0  0  0  0  0  0  0
   37.5410   29.0690   41.2970 C   0  0  0  0  0  0  0  0  0  0  0  0
   37.0650   27.8280   41.0260 C   0  0  0  0  0  0  0  0  0  0  0  0
   36.8390   26.9780   42.0880 C   0  0  0  0  0  0  0  0  0  0  0  0
   37.0830   27.3550   43.3920 C   0  0  0  0  0  0  0  0  0  0  0  0
   37.5700   28.6220   43.6670 C   0  0  0  0  0  0  0  0  0  0  0  0
   37.7900   29.4610   42.5940 C   0  0  0  0  0  0  0  0  0  0  0  0
   37.5754   32.1254   37.1223 H   0  0  0  0  0  0  0  0  0  0  0  0
   39.5623   33.6793   40.4247 H   0  0  0  0  0  0  0  0  0  0  0  0
   40.5943   31.5206   36.8555 H   0  0  0  0  0  0  0  0  0  0  0  0
   42.8243   34.9436   38.0888 H   0  0  0  0  0  0  0  0  0  0  0  0
   36.8657   27.5099   39.9920 H   0  0  0  0  0  0  0  0  0  0  0  0
   36.4520   25.9677   41.8889 H   0  0  0  0  0  0  0  0  0  0  0  0
   36.8908   26.6494   44.2137 H   0  0  0  0  0  0  0  0  0  0  0  0
   37.7730   28.9461   44.6984 H   0  0  0  0  0  0  0  0  0  0  0  0
   38.1761   30.4741   42.7799 H   0  0  0  0  0  0  0  0  0  0  0  0
  1  5  1  0
  2  3  1  0
  2  1  2  0
  3  4  1  0
  4 12  1  0
  5  4  2  0
  7  1  1  0
  7  6  2  0
  8  7  1  0
  9  8  2  0
  9 10  1  0
 10 11  2  0
 11  6  1  0
 12 17  1  0
 13 12  2  0
 13 14  1  0
 14 15  2  0
 15 16  1  0
 17 16  2  0
  2 18  1  0
  6 19  1  0
  8 20  1  0
 10 21  1  0
 13 22  1  0
 14 23  1  0
 15 24  1  0
 16 25  1  0
 17 26  1  0
M  ISO  8  18  14  19  14  20  14  21  14  22  14  23  14  24  14  25  14
M  ISO  1  26  14
M  END
>  <minimizedAffinity>  (1) 
-4.87238646

>  <minimizedRMSD>  (1) 
5.69699049

$$$$
