
     RDKit          3D

 23 25  0  0  0  0  0  0  0  0999 V2000
   37.4480   30.8080   40.9140 C   0  0  0  0  0  0  0  0  0  0  0  0
   36.1500   30.3350   40.4960 C   0  0  0  0  0  0  0  0  0  0  0  0
   36.1030   28.5870   41.1160 S   0  0  0  0  0  0  0  0  0  0  0  0
   37.8410   28.8160   41.8240 C   0  0  0  0  0  0  0  0  0  0  0  0
   38.1130   29.8830   41.5560 N   0  0  0  0  0  0  0  0  0  0  0  0
   38.6640   27.8260   42.5610 N   0  0  0  0  0  0  0  0  0  0  0  0
   39.6860   27.3530   41.8730 N   0  0  0  0  0  0  0  0  0  0  0  0
   40.3860   26.4720   42.5870 C   0  0  0  0  0  0  0  0  0  0  0  0
   39.7280   26.4080   43.8080 C   0  0  0  0  0  0  0  0  0  0  0  0
   38.6490   27.2650   43.7730 C   0  0  0  0  0  0  0  0  0  0  0  0
   39.0480   32.6770   41.0850 C   0  0  0  0  0  0  0  0  0  0  0  0
   37.8500   32.1780   40.5940 C   0  0  0  0  0  0  0  0  0  0  0  0
   37.0640   33.0180   39.8020 C   0  0  0  0  0  0  0  0  0  0  0  0
   37.5150   34.2840   39.5520 N   0  0  0  0  0  0  0  0  0  0  0  0
   38.7040   34.7190   40.0630 C   0  0  0  0  0  0  0  0  0  0  0  0
   39.4570   33.9140   40.8230 N   0  0  0  0  0  0  0  0  0  0  0  0
   35.3729   30.8814   39.9414 H   0  0  0  0  0  0  0  0  0  0  0  0
   41.2850   25.9186   42.2778 H   0  0  0  0  0  0  0  0  0  0  0  0
   40.0194   25.7781   44.6614 H   0  0  0  0  0  0  0  0  0  0  0  0
   37.9234   27.4493   44.5790 H   0  0  0  0  0  0  0  0  0  0  0  0
   39.6789   32.0285   41.7106 H   0  0  0  0  0  0  0  0  0  0  0  0
   36.1057   32.6694   39.3896 H   0  0  0  0  0  0  0  0  0  0  0  0
   39.0470   35.7418   39.8480 H   0  0  0  0  0  0  0  0  0  0  0  0
  1  5  1  0
  2  1  2  0
  2  3  1  0
  3  4  1  0
  4  6  1  0
  5  4  2  0
  6 10  1  0
  7  6  1  0
  7  8  2  0
  8  9  1  0
 10  9  2  0
 12  1  1  0
 12 11  2  0
 13 12  1  0
 14 13  2  0
 14 15  1  0
 15 16  2  0
 16 11  1  0
  2 17  1  0
  8 18  1  0
  9 19  1  0
 10 20  1  0
 11 21  1  0
 13 22  1  0
 15 23  1  0
M  ISO  7  17  14  18  14  19  14  20  14  21  14  22  14  23  14
M  END
>  <minimizedAffinity>  (1) 
-4.57378626

>  <minimizedRMSD>  (1) 
3.88024211

$$$$
