
     RDKit          3D

 30 33  0  0  0  0  0  0  0  0999 V2000
   41.0810   33.3040   40.4370 C   0  0  0  0  0  0  0  0  0  0  0  0
   41.9170   34.2960   39.8300 C   0  0  0  0  0  0  0  0  0  0  0  0
   43.5060   34.1350   40.7900 S   0  0  0  0  0  0  0  0  0  0  0  0
   42.7360   32.7610   41.8230 C   0  0  0  0  0  0  0  0  0  0  0  0
   41.6860   32.6640   41.3990 N   0  0  0  0  0  0  0  0  0  0  0  0
   43.4380   32.0160   42.9430 C   0  0  0  0  0  0  0  0  0  0  0  0
   44.4390   32.5480   43.7130 C   0  0  0  0  0  0  0  0  0  0  0  0
   44.7370   31.5550   44.5380 N   0  0  0  0  0  0  0  0  0  0  0  0
   44.0150   30.4360   44.3610 C   0  0  0  0  0  0  0  0  0  0  0  0
   44.0360   29.2200   45.0100 C   0  0  0  0  0  0  0  0  0  0  0  0
   43.1410   28.2540   44.5730 C   0  0  0  0  0  0  0  0  0  0  0  0
   42.2700   28.5100   43.5310 C   0  0  0  0  0  0  0  0  0  0  0  0
   42.2960   29.7530   42.9160 C   0  0  0  0  0  0  0  0  0  0  0  0
   43.1670   30.7410   43.3170 C   0  0  0  0  0  0  0  0  0  0  0  0
   39.3920   31.9960   39.1870 C   0  0  0  0  0  0  0  0  0  0  0  0
   39.7160   33.1260   39.9390 C   0  0  0  0  0  0  0  0  0  0  0  0
   38.6980   34.0510   40.1840 C   0  0  0  0  0  0  0  0  0  0  0  0
   37.4530   33.8130   39.6870 N   0  0  0  0  0  0  0  0  0  0  0  0
   37.1980   32.6810   38.9530 C   0  0  0  0  0  0  0  0  0  0  0  0
   38.1670   31.7880   38.7130 N   0  0  0  0  0  0  0  0  0  0  0  0
   41.6801   34.9819   39.0033 H   0  0  0  0  0  0  0  0  0  0  0  0
   44.8852   33.5520   43.6594 H   0  0  0  0  0  0  0  0  0  0  0  0
   45.4669   31.6349   45.2603 H   0  0  0  0  0  0  0  0  0  0  0  0
   44.7323   29.0240   45.8387 H   0  0  0  0  0  0  0  0  0  0  0  0
   43.1245   27.2695   45.0634 H   0  0  0  0  0  0  0  0  0  0  0  0
   41.5642   27.7369   43.1932 H   0  0  0  0  0  0  0  0  0  0  0  0
   41.6026   29.9547   42.0862 H   0  0  0  0  0  0  0  0  0  0  0  0
   40.1758   31.2527   38.9794 H   0  0  0  0  0  0  0  0  0  0  0  0
   38.8997   34.9594   40.7706 H   0  0  0  0  0  0  0  0  0  0  0  0
   36.1866   32.5055   38.5576 H   0  0  0  0  0  0  0  0  0  0  0  0
  1  5  1  0
  2  1  2  0
  2  3  1  0
  3  4  1  0
  4  6  1  0
  5  4  2  0
  6 14  1  0
  6  7  2  0
  7  8  1  0
  9  8  1  0
  9 10  2  0
 11 10  1  0
 12 11  2  0
 13 14  2  0
 13 12  1  0
 14  9  1  0
 15 16  2  0
 16 17  1  0
 16  1  1  0
 18 17  2  0
 19 18  1  0
 20 19  2  0
 20 15  1  0
  2 21  1  0
  7 22  1  0
  8 23  1  0
 10 24  1  0
 11 25  1  0
 12 26  1  0
 13 27  1  0
 15 28  1  0
 17 29  1  0
 19 30  1  0
M  ISO  8  21  14  22  14  23   9  24  14  25  14  26  14  27  14  28  14
M  ISO  2  29  14  30  14
M  END
>  <minimizedAffinity>  (1) 
-4.44528675

>  <minimizedRMSD>  (1) 
5.75647593

$$$$
