
     RDKit          3D

 19 20  0  0  0  0  0  0  0  0999 V2000
   37.7880   30.0900   39.9440 C   0  0  0  0  0  0  0  0  0  0  0  0
   36.7950   30.0240   38.9090 C   0  0  0  0  0  0  0  0  0  0  0  0
   37.5110   31.0840   37.5690 S   0  0  0  0  0  0  0  0  0  0  0  0
   39.0290   31.4180   38.6700 C   0  0  0  0  0  0  0  0  0  0  0  0
   38.8220   30.8370   39.6230 N   0  0  0  0  0  0  0  0  0  0  0  0
   38.2920   29.6670   42.3220 C   0  0  0  0  0  0  0  0  0  0  0  0
   37.5510   29.3620   41.1900 C   0  0  0  0  0  0  0  0  0  0  0  0
   36.5830   28.3570   41.2960 C   0  0  0  0  0  0  0  0  0  0  0  0
   36.4330   27.7410   42.5100 N   0  0  0  0  0  0  0  0  0  0  0  0
   37.1850   28.0810   43.5820 C   0  0  0  0  0  0  0  0  0  0  0  0
   38.1070   29.0370   43.4890 N   0  0  0  0  0  0  0  0  0  0  0  0
   40.0490   32.2910   38.0720 C   0  0  0  0  0  0  0  0  0  0  0  0
   40.9280   32.9070   38.7240 O   0  0  0  0  0  0  0  0  0  0  0  0
   39.9640   32.3860   36.7150 O   0  0  0  0  0  0  0  0  0  0  0  0
   35.8407   29.4768   38.9112 H   0  0  0  0  0  0  0  0  0  0  0  0
   39.0582   30.4537   42.2590 H   0  0  0  0  0  0  0  0  0  0  0  0
   35.9633   28.0713   40.4332 H   0  0  0  0  0  0  0  0  0  0  0  0
   37.0332   27.5624   44.5401 H   0  0  0  0  0  0  0  0  0  0  0  0
   40.6069   32.9507   36.2171 H   0  0  0  0  0  0  0  0  0  0  0  0
  1  7  1  0
  2  1  2  0
  3  4  1  0
  3  2  1  0
  4  5  2  0
  5  1  1  0
  6 11  2  0
  7  8  2  0
  7  6  1  0
  8  9  1  0
  9 10  2  0
 11 10  1  0
 12  4  1  0
 12 13  2  0
 14 12  1  0
  2 15  1  0
  6 16  1  0
  8 17  1  0
 10 18  1  0
 14 19  1  0
M  ISO  5  15  14  16  14  17  14  18  14  19   3
M  END
>  <minimizedAffinity>  (1) 
-4.13426352

>  <minimizedRMSD>  (1) 
6.02205038

$$$$
