
     RDKit          3D

 31 33  0  0  0  0  0  0  0  0999 V2000
   39.0580   27.7220   43.0830 C   0  0  0  0  0  0  0  0  0  0  0  0
   38.1470   27.2930   44.1060 C   0  0  0  0  0  0  0  0  0  0  0  0
   36.4820   27.4540   43.3210 S   0  0  0  0  0  0  0  0  0  0  0  0
   37.3220   28.0840   41.7210 C   0  0  0  0  0  0  0  0  0  0  0  0
   38.4380   28.0760   41.9660 N   0  0  0  0  0  0  0  0  0  0  0  0
   36.6110   28.4460   40.5290 N   0  0  0  0  0  0  0  0  0  0  0  0
   36.2350   27.4980   39.5340 C   0  0  0  0  0  0  0  0  0  0  0  0
   35.9630   28.0830   38.1890 C   0  0  0  0  0  0  0  0  0  0  0  0
   35.4580   29.5070   38.2090 C   0  0  0  0  0  0  0  0  0  0  0  0
   36.4680   30.3220   39.0020 C   0  0  0  0  0  0  0  0  0  0  0  0
   36.3050   29.8350   40.4360 C   0  0  0  0  0  0  0  0  0  0  0  0
   41.3040   28.7290   42.7940 C   0  0  0  0  0  0  0  0  0  0  0  0
   40.4940   27.7230   43.3530 C   0  0  0  0  0  0  0  0  0  0  0  0
   41.0860   26.7410   44.1520 C   0  0  0  0  0  0  0  0  0  0  0  0
   42.4350   26.8070   44.3500 N   0  0  0  0  0  0  0  0  0  0  0  0
   43.1920   27.7940   43.7940 C   0  0  0  0  0  0  0  0  0  0  0  0
   42.6270   28.7330   43.0320 N   0  0  0  0  0  0  0  0  0  0  0  0
   38.3852   26.9479   45.1229 H   0  0  0  0  0  0  0  0  0  0  0  0
   37.0504   26.7668   39.4314 H   0  0  0  0  0  0  0  0  0  0  0  0
   35.2910   27.0473   39.8742 H   0  0  0  0  0  0  0  0  0  0  0  0
   35.2070   27.4585   37.6905 H   0  0  0  0  0  0  0  0  0  0  0  0
   36.9266   28.1030   37.6588 H   0  0  0  0  0  0  0  0  0  0  0  0
   35.3804   29.8954   37.1828 H   0  0  0  0  0  0  0  0  0  0  0  0
   34.4592   29.5645   38.6663 H   0  0  0  0  0  0  0  0  0  0  0  0
   37.4898   30.1338   38.6407 H   0  0  0  0  0  0  0  0  0  0  0  0
   36.3015   31.4050   38.9054 H   0  0  0  0  0  0  0  0  0  0  0  0
   36.9854   30.4002   41.0899 H   0  0  0  0  0  0  0  0  0  0  0  0
   35.2620   29.9914   40.7486 H   0  0  0  0  0  0  0  0  0  0  0  0
   40.8553   29.5107   42.1634 H   0  0  0  0  0  0  0  0  0  0  0  0
   40.4841   25.9405   44.6068 H   0  0  0  0  0  0  0  0  0  0  0  0
   44.2769   27.8172   43.9744 H   0  0  0  0  0  0  0  0  0  0  0  0
  1 13  1  0
  1  2  2  0
  3  2  1  0
  4  5  2  0
  4  3  1  0
  5  1  1  0
  6  4  1  0
  7  6  1  0
  8  9  1  0
  8  7  1  0
  9 10  1  0
 10 11  1  0
 11  6  1  0
 12 17  2  0
 12 13  1  0
 13 14  2  0
 14 15  1  0
 16 15  2  0
 17 16  1  0
  2 18  1  0
  7 19  1  0
  7 20  1  0
  8 21  1  0
  8 22  1  0
  9 23  1  0
  9 24  1  0
 10 25  1  0
 10 26  1  0
 11 27  1  0
 11 28  1  0
 12 29  1  0
 14 30  1  0
 16 31  1  0
M  ISO  8  18  14  19  13  20  13  21  13  22  13  23  13  24  13  25  13
M  ISO  6  26  13  27  13  28  13  29  14  30  14  31  14
M  END
>  <minimizedAffinity>  (1) 
-4.05687571

>  <minimizedRMSD>  (1) 
6.60309458

$$$$
