
     RDKit          3D

 23 25  0  0  0  0  0  0  0  0999 V2000
   36.6490   29.7700   41.5490 C   0  0  0  0  0  0  0  0  0  0  0  0
   37.3830   28.8810   40.7760 C   0  0  0  0  0  0  0  0  0  0  0  0
   37.7840   29.3040   39.5070 C   0  0  0  0  0  0  0  0  0  0  0  0
   37.4290   30.5620   39.1080 N   0  0  0  0  0  0  0  0  0  0  0  0
   36.7110   31.3870   39.9030 C   0  0  0  0  0  0  0  0  0  0  0  0
   36.3280   30.9880   41.1120 N   0  0  0  0  0  0  0  0  0  0  0  0
   37.7120   27.5540   41.3000 C   0  0  0  0  0  0  0  0  0  0  0  0
   36.9880   26.4110   40.7840 C   0  0  0  0  0  0  0  0  0  0  0  0
   37.7500   24.9880   41.7360 S   0  0  0  0  0  0  0  0  0  0  0  0
   38.8790   26.2130   42.6270 C   0  0  0  0  0  0  0  0  0  0  0  0
   38.5970   27.2200   42.2000 N   0  0  0  0  0  0  0  0  0  0  0  0
   39.8480   25.6490   43.6440 C   0  0  0  0  0  0  0  0  0  0  0  0
   40.9450   26.5300   44.0290 C   0  0  0  0  0  0  0  0  0  0  0  0
   41.2500   25.3600   43.1530 C   0  0  0  0  0  0  0  0  0  0  0  0
   36.3222   29.4602   42.5526 H   0  0  0  0  0  0  0  0  0  0  0  0
   38.3681   28.6445   38.8483 H   0  0  0  0  0  0  0  0  0  0  0  0
   36.4425   32.3929   39.5479 H   0  0  0  0  0  0  0  0  0  0  0  0
   36.1921   26.3847   40.0252 H   0  0  0  0  0  0  0  0  0  0  0  0
   39.0834   25.0705   44.1833 H   0  0  0  0  0  0  0  0  0  0  0  0
   40.9971   27.5484   43.6164 H   0  0  0  0  0  0  0  0  0  0  0  0
   41.3376   26.8923   44.9906 H   0  0  0  0  0  0  0  0  0  0  0  0
   41.8111   24.5009   43.5493 H   0  0  0  0  0  0  0  0  0  0  0  0
   41.7281   25.2109   42.1736 H   0  0  0  0  0  0  0  0  0  0  0  0
  2  7  1  0
  2  1  2  0
  3  2  1  0
  4  3  2  0
  4  5  1  0
  5  6  2  0
  6  1  1  0
  7 11  1  0
  8  7  2  0
  8  9  1  0
  9 10  1  0
 10 12  1  0
 11 10  2  0
 12 13  1  0
 14 12  1  0
 14 13  1  0
  1 15  1  0
  3 16  1  0
  5 17  1  0
  8 18  1  0
 12 19  1  0
 13 20  1  0
 13 21  1  0
 14 22  1  0
 14 23  1  0
M  ISO  8  15  14  16  14  17  14  18  14  19  13  20  13  21  13  22  13
M  ISO  1  23  13
M  END
>  <minimizedAffinity>  (1) 
-3.73175454

>  <minimizedRMSD>  (1) 
1.70266688

$$$$
