
     RDKit          3D

 55 58  0  0  1  0  0  0  0  0999 V2000
   39.3200   28.1220   42.3520 C   0  0  2  0  0  0  0  0  0  0  0  0
   40.4960   27.1520   42.2640 C   0  0  2  0  0  0  0  0  0  0  0  0
   40.1710   25.8410   41.7310 C   0  0  0  0  0  0  0  0  0  0  0  0
   40.6430   24.7650   42.6840 C   0  0  0  0  0  0  0  0  0  0  0  0
   41.4960   25.4640   43.7030 C   0  0  0  0  0  0  0  0  0  0  0  0
   40.9670   26.8750   43.6800 C   0  0  1  0  0  0  0  0  0  0  0  0
   42.0270   27.7870   44.0870 N   0  0  0  0  0  0  0  0  0  0  0  0
   42.5910   27.3240   45.2940 C   0  0  0  0  0  0  0  0  0  0  0  0
   43.9470   27.8760   45.6480 C   0  0  0  0  0  0  0  0  0  0  0  0
   44.8460   27.5880   44.4560 C   0  0  0  0  0  0  0  0  0  0  0  0
   44.2950   28.4680   43.3570 C   0  0  0  0  0  0  0  0  0  0  0  0
   42.8700   28.1800   43.0300 C   0  0  0  0  0  0  0  0  0  0  0  0
   38.1300   27.4300   42.7390 N   0  0  0  0  0  0  0  0  0  0  0  0
   37.1370   28.0460   43.5400 C   0  0  0  0  0  0  0  0  0  0  0  0
   37.3680   29.2330   43.9950 N   0  0  0  0  0  0  0  0  0  0  0  0
   35.9410   27.3850   43.8270 N   0  0  0  0  0  0  0  0  0  0  0  0
   36.6580   29.7300   44.5680 H   0  0  0  0  0  0  0  0  0  0  0  0
   38.5900   29.1610   38.9610 C   0  0  0  0  0  0  0  0  0  0  0  0
   39.4030   30.2170   39.3910 C   0  0  0  0  0  0  0  0  0  0  0  0
   39.7190   29.8850   40.6790 C   0  0  0  0  0  0  0  0  0  0  0  0
   39.1370   28.7020   41.0190 N   0  0  0  0  0  0  0  0  0  0  0  0
   38.4600   28.2800   39.9690 N   0  0  0  0  0  0  0  0  0  0  0  0
   38.1610   27.9930   36.7780 C   0  0  0  0  0  0  0  0  0  0  0  0
   38.0000   29.0630   37.6390 C   0  0  0  0  0  0  0  0  0  0  0  0
   37.2220   30.1060   37.2030 C   0  0  0  0  0  0  0  0  0  0  0  0
   36.6300   30.0890   35.9670 N   0  0  0  0  0  0  0  0  0  0  0  0
   36.8370   28.9790   35.1560 C   0  0  0  0  0  0  0  0  0  0  0  0
   37.6160   27.9250   35.5820 N   0  0  0  0  0  0  0  0  0  0  0  0
   39.5213   28.9008   43.1023 H   0  0  0  0  0  0  0  0  0  0  0  0
   41.2269   27.6332   41.5974 H   0  0  0  0  0  0  0  0  0  0  0  0
   39.0817   25.7603   41.6007 H   0  0  0  0  0  0  0  0  0  0  0  0
   40.6728   25.7104   40.7609 H   0  0  0  0  0  0  0  0  0  0  0  0
   39.7835   24.2814   43.1712 H   0  0  0  0  0  0  0  0  0  0  0  0
   41.2039   23.9778   42.1589 H   0  0  0  0  0  0  0  0  0  0  0  0
   41.3728   25.0121   44.6983 H   0  0  0  0  0  0  0  0  0  0  0  0
   42.5719   25.4015   43.4829 H   0  0  0  0  0  0  0  0  0  0  0  0
   40.1276   27.0143   44.3771 H   0  0  0  0  0  0  0  0  0  0  0  0
   41.8995   27.5836   46.1091 H   0  0  0  0  0  0  0  0  0  0  0  0
   42.7399   26.2431   45.1543 H   0  0  0  0  0  0  0  0  0  0  0  0
   43.8833   28.9599   45.8247 H   0  0  0  0  0  0  0  0  0  0  0  0
   44.3398   27.4163   46.5669 H   0  0  0  0  0  0  0  0  0  0  0  0
   45.8898   27.8522   44.6813 H   0  0  0  0  0  0  0  0  0  0  0  0
   44.8532   26.5231   44.1803 H   0  0  0  0  0  0  0  0  0  0  0  0
   44.3746   29.5174   43.6771 H   0  0  0  0  0  0  0  0  0  0  0  0
   44.8846   28.2652   42.4508 H   0  0  0  0  0  0  0  0  0  0  0  0
   42.4422   29.0925   42.5892 H   0  0  0  0  0  0  0  0  0  0  0  0
   42.9068   27.3071   42.3616 H   0  0  0  0  0  0  0  0  0  0  0  0
   37.9911   26.4582   42.4272 H   0  0  0  0  0  0  0  0  0  0  0  0
   35.2265   27.8432   44.4105 H   0  0  0  0  0  0  0  0  0  0  0  0
   35.7732   26.4392   43.4552 H   0  0  0  0  0  0  0  0  0  0  0  0
   39.7148   31.1067   38.8243 H   0  0  0  0  0  0  0  0  0  0  0  0
   40.3532   30.4878   41.3457 H   0  0  0  0  0  0  0  0  0  0  0  0
   38.7814   27.1485   37.1126 H   0  0  0  0  0  0  0  0  0  0  0  0
   37.0701   30.9750   37.8601 H   0  0  0  0  0  0  0  0  0  0  0  0
   36.3722   28.9415   34.1597 H   0  0  0  0  0  0  0  0  0  0  0  0
  1 13  1  0
  2  1  1  0
  2  6  1  0
  3  2  1  0
  3  4  1  0
  4  5  1  0
  6  5  1  0
  6  7  1  0
  7  8  1  0
  8  9  1  0
 10  9  1  0
 11 10  1  0
 12 11  1  0
 12  7  1  0
 13 14  1  0
 14 16  1  0
 14 15  2  0
 15 17  1  0
 18 19  1  0
 18 22  2  0
 19 20  2  0
 20 21  1  0
 21  1  1  0
 22 21  1  0
 23 24  2  0
 24 18  1  0
 25 24  1  0
 26 25  2  0
 27 28  2  0
 27 26  1  0
 28 23  1  0
  1 29  1  1
  2 30  1  6
  3 31  1  0
  3 32  1  0
  4 33  1  0
  4 34  1  0
  5 35  1  0
  5 36  1  0
  6 37  1  1
  8 38  1  0
  8 39  1  0
  9 40  1  0
  9 41  1  0
 10 42  1  0
 10 43  1  0
 11 44  1  0
 11 45  1  0
 12 46  1  0
 12 47  1  0
 13 48  1  0
 16 49  1  0
 16 50  1  0
 19 51  1  0
 20 52  1  0
 23 53  1  0
 25 54  1  0
 27 55  1  0
M  ISO  8  29   8  30  13  31  13  32  13  33  13  34  13  35  13  36  13
M  ISO  8  37  13  38  13  39  13  40  13  41  13  42  13  43  13  44  13
M  ISO  8  45  13  46  13  47  13  51  14  52  14  53  14  54  14  55  14
M  END
>  <minimizedAffinity>  (1) 
-5.19072294

>  <minimizedRMSD>  (1) 
0.563667238

$$$$
