
     RDKit          3D

 19 20  0  0  0  0  0  0  0  0999 V2000
   36.8970   29.5800   41.7120 C   0  0  0  0  0  0  0  0  0  0  0  0
   37.2760   28.5470   40.8650 C   0  0  0  0  0  0  0  0  0  0  0  0
   37.2120   28.7790   39.4940 C   0  0  0  0  0  0  0  0  0  0  0  0
   36.7850   29.9960   39.0520 N   0  0  0  0  0  0  0  0  0  0  0  0
   36.4240   30.9780   39.9350 C   0  0  0  0  0  0  0  0  0  0  0  0
   36.4820   30.7620   41.2670 N   0  0  0  0  0  0  0  0  0  0  0  0
   37.7230   27.2740   41.4320 C   0  0  0  0  0  0  0  0  0  0  0  0
   37.0890   26.0600   40.9930 C   0  0  0  0  0  0  0  0  0  0  0  0
   37.9720   24.7420   41.9700 S   0  0  0  0  0  0  0  0  0  0  0  0
   39.0310   26.0780   42.7870 C   0  0  0  0  0  0  0  0  0  0  0  0
   38.6540   27.0510   42.3200 N   0  0  0  0  0  0  0  0  0  0  0  0
   40.1050   25.7930   43.8150 C   0  0  0  0  0  0  0  0  0  0  0  0
   36.9421   29.4131   42.7983 H   0  0  0  0  0  0  0  0  0  0  0  0
   37.5009   27.9941   38.7796 H   0  0  0  0  0  0  0  0  0  0  0  0
   36.0833   31.9527   39.5558 H   0  0  0  0  0  0  0  0  0  0  0  0
   36.2791   25.9390   40.2585 H   0  0  0  0  0  0  0  0  0  0  0  0
   39.6844   25.9046   44.8253 H   0  0  0  0  0  0  0  0  0  0  0  0
   40.4752   24.7655   43.6834 H   0  0  0  0  0  0  0  0  0  0  0  0
   40.9359   26.5017   43.6834 H   0  0  0  0  0  0  0  0  0  0  0  0
  2  7  1  0
  2  1  2  0
  3  2  1  0
  4  3  2  0
  4  5  1  0
  5  6  2  0
  6  1  1  0
  7 11  1  0
  8  7  2  0
  8  9  1  0
  9 10  1  0
 10 12  1  0
 11 10  2  0
  1 13  1  0
  3 14  1  0
  5 15  1  0
  8 16  1  0
 12 17  1  0
 12 18  1  0
 12 19  1  0
M  ISO  7  13  14  14  14  15  14  16  14  17   8  18   8  19   8
M  END
>  <minimizedAffinity>  (1) 
-3.2247982

>  <minimizedRMSD>  (1) 
1.08211565

$$$$
