
     RDKit          3D

 34 37  0  0  0  0  0  0  0  0999 V2000
   37.7180   30.4220   41.2960 C   0  0  0  0  0  0  0  0  0  0  0  0
   36.4480   29.8090   41.0720 C   0  0  0  0  0  0  0  0  0  0  0  0
   36.6460   28.1310   41.8510 S   0  0  0  0  0  0  0  0  0  0  0  0
   38.4220   28.5700   42.3360 C   0  0  0  0  0  0  0  0  0  0  0  0
   38.5280   29.6180   41.9380 N   0  0  0  0  0  0  0  0  0  0  0  0
   39.3310   27.6590   43.0620 C   0  0  0  0  0  0  0  0  0  0  0  0
   38.9600   26.4540   43.4810 N   0  0  0  0  0  0  0  0  0  0  0  0
   39.9420   25.8600   44.0880 O   0  0  0  0  0  0  0  0  0  0  0  0
   40.9660   26.6990   44.0580 C   0  0  0  0  0  0  0  0  0  0  0  0
   40.6270   27.8440   43.4220 N   0  0  0  0  0  0  0  0  0  0  0  0
   42.3190   26.6260   44.5540 N   0  0  0  0  0  0  0  0  0  0  0  0
   42.7340   27.2570   45.6710 C   0  0  0  0  0  0  0  0  0  0  0  0
   44.0470   27.0930   46.0160 C   0  0  0  0  0  0  0  0  0  0  0  0
   44.5660   27.7680   47.2440 C   0  0  0  0  0  0  0  0  0  0  0  0
   44.9420   26.3320   45.2930 C   0  0  0  0  0  0  0  0  0  0  0  0
   46.1460   26.1940   45.6270 O   0  0  0  0  0  0  0  0  0  0  0  0
   44.4490   25.7300   44.1830 N   0  0  0  0  0  0  0  0  0  0  0  0
   43.1540   25.8640   43.8030 C   0  0  0  0  0  0  0  0  0  0  0  0
   42.7510   25.2760   42.7540 O   0  0  0  0  0  0  0  0  0  0  0  0
   39.1360   32.4510   41.1800 C   0  0  0  0  0  0  0  0  0  0  0  0
   37.9660   31.7830   40.8180 C   0  0  0  0  0  0  0  0  0  0  0  0
   37.0630   32.4520   40.0030 C   0  0  0  0  0  0  0  0  0  0  0  0
   37.3460   33.7140   39.5900 N   0  0  0  0  0  0  0  0  0  0  0  0
   38.5000   34.3290   39.9660 C   0  0  0  0  0  0  0  0  0  0  0  0
   39.3600   33.6930   40.7450 N   0  0  0  0  0  0  0  0  0  0  0  0
   35.5671   30.2270   40.5629 H   0  0  0  0  0  0  0  0  0  0  0  0
   42.0507   27.8727   46.2744 H   0  0  0  0  0  0  0  0  0  0  0  0
   44.1739   27.2580   48.1363 H   0  0  0  0  0  0  0  0  0  0  0  0
   45.6651   27.7240   47.2499 H   0  0  0  0  0  0  0  0  0  0  0  0
   44.2411   28.8189   47.2499 H   0  0  0  0  0  0  0  0  0  0  0  0
   45.0789   25.1515   43.6090 H   0  0  0  0  0  0  0  0  0  0  0  0
   39.8752   31.9534   41.8250 H   0  0  0  0  0  0  0  0  0  0  0  0
   36.1266   31.9640   39.6946 H   0  0  0  0  0  0  0  0  0  0  0  0
   38.7173   35.3515   39.6235 H   0  0  0  0  0  0  0  0  0  0  0  0
  1  5  1  0
  2  1  2  0
  2  3  1  0
  3  4  1  0
  4  6  1  0
  5  4  2  0
  6 10  1  0
  6  7  2  0
  7  8  1  0
  9  8  1  0
  9 11  1  0
 10  9  2  0
 11 12  1  0
 12 13  2  0
 13 14  1  0
 15 16  2  0
 15 13  1  0
 17 15  1  0
 18 17  1  0
 18 11  1  0
 19 18  2  0
 21 20  2  0
 21  1  1  0
 22 21  1  0
 23 24  1  0
 23 22  2  0
 24 25  2  0
 25 20  1  0
  2 26  1  0
 12 27  1  0
 14 28  1  0
 14 29  1  0
 14 30  1  0
 17 31  1  0
 20 32  1  0
 22 33  1  0
 24 34  1  0
M  ISO  8  26  14  27  14  28   8  29   8  30   8  31   9  32  14  33  14
M  ISO  1  34  14
M  END
>  <minimizedAffinity>  (1) 
-6.40409184

>  <minimizedRMSD>  (1) 
0.128633276

$$$$
