
     RDKit          3D

 35 38  0  0  0  0  0  0  0  0999 V2000
   38.5840   33.2690   40.2980 C   0  0  0  0  0  0  0  0  0  0  0  0
   37.3680   33.1570   39.5450 C   0  0  0  0  0  0  0  0  0  0  0  0
   36.8270   31.4060   39.8640 S   0  0  0  0  0  0  0  0  0  0  0  0
   38.3570   31.1500   40.9650 C   0  0  0  0  0  0  0  0  0  0  0  0
   38.8670   32.1600   40.9100 N   0  0  0  0  0  0  0  0  0  0  0  0
   38.6810   29.8920   41.6620 C   0  0  0  0  0  0  0  0  0  0  0  0
   39.5440   29.8450   42.6720 N   0  0  0  0  0  0  0  0  0  0  0  0
   39.6540   28.6290   43.1130 O   0  0  0  0  0  0  0  0  0  0  0  0
   38.8570   27.8840   42.3840 C   0  0  0  0  0  0  0  0  0  0  0  0
   38.2290   28.6490   41.4610 N   0  0  0  0  0  0  0  0  0  0  0  0
   38.7040   26.4980   42.5650 N   0  0  0  0  0  0  0  0  0  0  0  0
   37.4720   25.8290   42.2590 C   0  0  0  0  0  0  0  0  0  0  0  0
   37.8450   24.6200   41.4210 C   0  0  0  0  0  0  0  0  0  0  0  0
   38.7330   23.7160   42.0880 N   0  0  0  0  0  0  0  0  0  0  0  0
   39.4720   24.2530   43.1790 C   0  0  0  0  0  0  0  0  0  0  0  0
   39.8180   25.7070   43.0760 C   0  0  0  0  0  0  0  0  0  0  0  0
   40.6730   34.5540   40.5870 C   0  0  0  0  0  0  0  0  0  0  0  0
   39.3230   34.5330   40.2960 C   0  0  0  0  0  0  0  0  0  0  0  0
   38.7110   35.7460   40.0070 C   0  0  0  0  0  0  0  0  0  0  0  0
   39.4590   36.8810   40.0230 N   0  0  0  0  0  0  0  0  0  0  0  0
   40.7900   36.8490   40.3170 C   0  0  0  0  0  0  0  0  0  0  0  0
   41.3850   35.6870   40.5950 N   0  0  0  0  0  0  0  0  0  0  0  0
   36.8745   33.9221   38.9278 H   0  0  0  0  0  0  0  0  0  0  0  0
   36.9701   25.5113   43.1849 H   0  0  0  0  0  0  0  0  0  0  0  0
   36.7783   26.4917   41.7209 H   0  0  0  0  0  0  0  0  0  0  0  0
   38.3329   24.9716   40.5000 H   0  0  0  0  0  0  0  0  0  0  0  0
   36.9155   24.0688   41.2157 H   0  0  0  0  0  0  0  0  0  0  0  0
   38.1714   22.9299   42.4452 H   0  0  0  0  0  0  0  0  0  0  0  0
   38.8766   24.1112   44.0930 H   0  0  0  0  0  0  0  0  0  0  0  0
   40.4320   23.7159   43.1843 H   0  0  0  0  0  0  0  0  0  0  0  0
   40.6757   25.8209   42.3967 H   0  0  0  0  0  0  0  0  0  0  0  0
   40.0593   26.0716   44.0854 H   0  0  0  0  0  0  0  0  0  0  0  0
   41.1806   33.6064   40.8203 H   0  0  0  0  0  0  0  0  0  0  0  0
   37.6379   35.7875   39.7689 H   0  0  0  0  0  0  0  0  0  0  0  0
   41.3738   37.7813   40.3251 H   0  0  0  0  0  0  0  0  0  0  0  0
  1  5  1  0
  2  3  1  0
  2  1  2  0
  3  4  1  0
  4  6  1  0
  5  4  2  0
  6  7  2  0
  7  8  1  0
  9 11  1  0
  9  8  1  0
 10  6  1  0
 10  9  2  0
 11 16  1  0
 12 11  1  0
 13 14  1  0
 13 12  1  0
 14 15  1  0
 16 15  1  0
 17 22  2  0
 18  1  1  0
 18 17  1  0
 19 20  1  0
 19 18  2  0
 20 21  2  0
 21 22  1  0
  2 23  1  0
 12 24  1  0
 12 25  1  0
 13 26  1  0
 13 27  1  0
 14 28  1  0
 15 29  1  0
 15 30  1  0
 16 31  1  0
 16 32  1  0
 17 33  1  0
 19 34  1  0
 21 35  1  0
M  ISO  8  23  14  24  13  25  13  26  13  27  13  28   5  29  13  30  13
M  ISO  5  31  13  32  13  33  14  34  14  35  14
M  END
>  <minimizedAffinity>  (1) 
-6.2068119

>  <minimizedRMSD>  (1) 
4.18475294

$$$$
