
     RDKit          3D

 34 37  0  0  0  0  0  0  0  0999 V2000
   38.5830   33.2870   40.2650 C   0  0  0  0  0  0  0  0  0  0  0  0
   37.4050   33.2110   39.4670 C   0  0  0  0  0  0  0  0  0  0  0  0
   36.8020   31.4810   39.7610 S   0  0  0  0  0  0  0  0  0  0  0  0
   38.2620   31.1660   40.9190 C   0  0  0  0  0  0  0  0  0  0  0  0
   38.7900   32.1550   40.8810 N   0  0  0  0  0  0  0  0  0  0  0  0
   40.7180   34.4820   40.6280 C   0  0  0  0  0  0  0  0  0  0  0  0
   39.3650   34.5190   40.3060 C   0  0  0  0  0  0  0  0  0  0  0  0
   38.7950   35.7550   40.0280 C   0  0  0  0  0  0  0  0  0  0  0  0
   39.5630   36.8690   40.0790 N   0  0  0  0  0  0  0  0  0  0  0  0
   40.8810   36.7930   40.3980 C   0  0  0  0  0  0  0  0  0  0  0  0
   41.4360   35.6140   40.6650 N   0  0  0  0  0  0  0  0  0  0  0  0
   38.5160   29.8900   41.6260 C   0  0  0  0  0  0  0  0  0  0  0  0
   38.7120   29.8530   42.9420 N   0  0  0  0  0  0  0  0  0  0  0  0
   38.9140   28.6090   43.3160 O   0  0  0  0  0  0  0  0  0  0  0  0
   38.8440   27.8740   42.2320 C   0  0  0  0  0  0  0  0  0  0  0  0
   38.5950   28.6360   41.1420 N   0  0  0  0  0  0  0  0  0  0  0  0
   39.0060   26.4040   42.1480 C   0  0  0  0  0  0  0  0  0  0  0  0
   37.6780   25.6620   42.2660 C   0  0  0  0  0  0  0  0  0  0  0  0
   38.2180   24.2260   42.3050 C   0  0  0  0  0  0  0  0  0  0  0  0
   39.5190   24.3260   43.0960 C   0  0  0  0  0  0  0  0  0  0  0  0
   39.7610   25.8250   43.3060 C   0  0  0  0  0  0  0  0  0  0  0  0
   36.9603   33.9900   38.8303 H   0  0  0  0  0  0  0  0  0  0  0  0
   41.2010   33.5197   40.8533 H   0  0  0  0  0  0  0  0  0  0  0  0
   37.7285   35.8281   39.7686 H   0  0  0  0  0  0  0  0  0  0  0  0
   41.4905   37.7079   40.4356 H   0  0  0  0  0  0  0  0  0  0  0  0
   39.5138   26.2762   41.1806 H   0  0  0  0  0  0  0  0  0  0  0  0
   37.1369   25.9258   43.1867 H   0  0  0  0  0  0  0  0  0  0  0  0
   36.9427   25.8730   41.4756 H   0  0  0  0  0  0  0  0  0  0  0  0
   37.5063   23.5570   42.8109 H   0  0  0  0  0  0  0  0  0  0  0  0
   38.3725   23.8107   41.2982 H   0  0  0  0  0  0  0  0  0  0  0  0
   39.4196   23.8139   44.0645 H   0  0  0  0  0  0  0  0  0  0  0  0
   40.3558   23.8497   42.5641 H   0  0  0  0  0  0  0  0  0  0  0  0
   40.8316   26.0721   43.2539 H   0  0  0  0  0  0  0  0  0  0  0  0
   39.4410   26.2017   44.2887 H   0  0  0  0  0  0  0  0  0  0  0  0
  1  7  1  0
  1  5  1  0
  2  3  1  0
  2  1  2  0
  3  4  1  0
  4 12  1  0
  5  4  2  0
  6 11  2  0
  7  6  1  0
  8  9  1  0
  8  7  2  0
  9 10  2  0
 10 11  1  0
 12 13  2  0
 13 14  1  0
 15 14  1  0
 16 12  1  0
 16 15  2  0
 17 15  1  0
 17 18  1  0
 17 21  1  0
 18 19  1  0
 19 20  1  0
 20 21  1  0
  2 22  1  0
  6 23  1  0
  8 24  1  0
 10 25  1  0
 17 26  1  0
 18 27  1  0
 18 28  1  0
 19 29  1  0
 19 30  1  0
 20 31  1  0
 20 32  1  0
 21 33  1  0
 21 34  1  0
M  ISO  8  22  14  23  14  24  14  25  14  26  13  27  13  28  13  29  13
M  ISO  5  30  13  31  13  32  13  33  13  34  13
M  END
>  <minimizedAffinity>  (1) 
-5.96849394

>  <minimizedRMSD>  (1) 
3.95263934

$$$$
