
     RDKit          3D

 28 31  0  0  0  0  0  0  0  0999 V2000
   38.5500   33.0550   40.2800 C   0  0  0  0  0  0  0  0  0  0  0  0
   37.3640   33.0330   39.4880 C   0  0  0  0  0  0  0  0  0  0  0  0
   36.6820   31.3280   39.7880 S   0  0  0  0  0  0  0  0  0  0  0  0
   38.1470   30.9650   40.9410 C   0  0  0  0  0  0  0  0  0  0  0  0
   38.7240   31.9270   40.9010 N   0  0  0  0  0  0  0  0  0  0  0  0
   40.7520   34.1610   40.4950 C   0  0  0  0  0  0  0  0  0  0  0  0
   39.3730   34.2650   40.2960 C   0  0  0  0  0  0  0  0  0  0  0  0
   38.8090   35.5410   40.1140 C   0  0  0  0  0  0  0  0  0  0  0  0
   39.6520   36.6090   40.1440 N   0  0  0  0  0  0  0  0  0  0  0  0
   40.9760   36.4600   40.3400 C   0  0  0  0  0  0  0  0  0  0  0  0
   41.5240   35.2450   40.5140 N   0  0  0  0  0  0  0  0  0  0  0  0
   38.3500   29.6820   41.6510 C   0  0  0  0  0  0  0  0  0  0  0  0
   38.9070   29.6380   42.8780 N   0  0  0  0  0  0  0  0  0  0  0  0
   38.9640   28.3880   43.2640 O   0  0  0  0  0  0  0  0  0  0  0  0
   38.4550   27.6580   42.2990 C   0  0  0  0  0  0  0  0  0  0  0  0
   38.0490   28.4170   41.2570 N   0  0  0  0  0  0  0  0  0  0  0  0
   38.3380   26.2030   42.3460 C   0  0  0  0  0  0  0  0  0  0  0  0
   37.2660   25.4570   41.8980 C   0  0  0  0  0  0  0  0  0  0  0  0
   37.5590   24.1300   42.1280 C   0  0  0  0  0  0  0  0  0  0  0  0
   38.7640   24.0900   42.6930 N   0  0  0  0  0  0  0  0  0  0  0  0
   39.2350   25.3230   42.8270 N   0  0  0  0  0  0  0  0  0  0  0  0
   36.9520   33.8312   38.8531 H   0  0  0  0  0  0  0  0  0  0  0  0
   41.2060   33.1693   40.6380 H   0  0  0  0  0  0  0  0  0  0  0  0
   37.7285   35.6704   39.9537 H   0  0  0  0  0  0  0  0  0  0  0  0
   41.6218   37.3503   40.3581 H   0  0  0  0  0  0  0  0  0  0  0  0
   36.3459   25.8501   41.4409 H   0  0  0  0  0  0  0  0  0  0  0  0
   36.9189   23.2677   41.8900 H   0  0  0  0  0  0  0  0  0  0  0  0
   39.2557   23.2323   42.9820 H   0  0  0  0  0  0  0  0  0  0  0  0
  1  7  1  0
  1  5  1  0
  2  3  1  0
  2  1  2  0
  3  4  1  0
  4 12  1  0
  5  4  2  0
  6 11  2  0
  7  6  1  0
  8  9  1  0
  8  7  2  0
  9 10  2  0
 10 11  1  0
 12 13  2  0
 13 14  1  0
 15 17  1  0
 15 14  1  0
 16 12  1  0
 16 15  2  0
 17 21  2  0
 18 19  2  0
 18 17  1  0
 19 20  1  0
 20 21  1  0
  2 22  1  0
  6 23  1  0
  8 24  1  0
 10 25  1  0
 18 26  1  0
 19 27  1  0
 20 28  1  0
M  ISO  7  22  14  23  14  24  14  25  14  26  14  27  14  28   9
M  END
>  <minimizedAffinity>  (1) 
-5.86530638

>  <minimizedRMSD>  (1) 
4.02825499

$$$$
