
     RDKit          3D

 37 40  0  0  0  0  0  0  0  0999 V2000
   38.4780   32.4190   40.6570 C   0  0  0  0  0  0  0  0  0  0  0  0
   37.1650   32.5230   40.1100 C   0  0  0  0  0  0  0  0  0  0  0  0
   36.4170   30.8530   40.3990 S   0  0  0  0  0  0  0  0  0  0  0  0
   38.0290   30.2930   41.2200 C   0  0  0  0  0  0  0  0  0  0  0  0
   38.6510   31.2280   41.1370 N   0  0  0  0  0  0  0  0  0  0  0  0
   40.7630   33.3480   40.5850 C   0  0  0  0  0  0  0  0  0  0  0  0
   39.3870   33.5560   40.6150 C   0  0  0  0  0  0  0  0  0  0  0  0
   38.9110   34.8640   40.6050 C   0  0  0  0  0  0  0  0  0  0  0  0
   39.8150   35.8830   40.5660 N   0  0  0  0  0  0  0  0  0  0  0  0
   41.1390   35.6470   40.5380 C   0  0  0  0  0  0  0  0  0  0  0  0
   41.6060   34.3890   40.5470 N   0  0  0  0  0  0  0  0  0  0  0  0
   38.2610   28.9400   41.7790 C   0  0  0  0  0  0  0  0  0  0  0  0
   37.9060   28.6320   43.0240 N   0  0  0  0  0  0  0  0  0  0  0  0
   38.2200   27.3900   43.2600 O   0  0  0  0  0  0  0  0  0  0  0  0
   38.7730   26.9080   42.1740 C   0  0  0  0  0  0  0  0  0  0  0  0
   38.8230   27.8560   41.1970 N   0  0  0  0  0  0  0  0  0  0  0  0
   39.2950   25.5330   41.9620 C   0  0  0  0  0  0  0  0  0  0  0  0
   39.3140   25.2190   40.4810 C   0  0  0  0  0  0  0  0  0  0  0  0
   37.9580   25.3310   39.8530 C   0  0  0  0  0  0  0  0  0  0  0  0
   36.8370   24.8170   40.6720 C   0  0  0  0  0  0  0  0  0  0  0  0
   37.0370   24.6560   42.1240 C   0  0  0  0  0  0  0  0  0  0  0  0
   38.4320   24.4680   42.6050 C   0  0  0  0  0  0  0  0  0  0  0  0
   36.7020   33.3959   39.6266 H   0  0  0  0  0  0  0  0  0  0  0  0
   41.1610   32.3225   40.5925 H   0  0  0  0  0  0  0  0  0  0  0  0
   37.8308   35.0702   40.6280 H   0  0  0  0  0  0  0  0  0  0  0  0
   41.8437   36.4910   40.5075 H   0  0  0  0  0  0  0  0  0  0  0  0
   40.2972   25.5170   42.4151 H   0  0  0  0  0  0  0  0  0  0  0  0
   39.9941   25.9234   39.9798 H   0  0  0  0  0  0  0  0  0  0  0  0
   39.6514   24.1785   40.3643 H   0  0  0  0  0  0  0  0  0  0  0  0
   37.7669   26.3940   39.6443 H   0  0  0  0  0  0  0  0  0  0  0  0
   37.9881   24.7031   38.9503 H   0  0  0  0  0  0  0  0  0  0  0  0
   35.9928   25.5090   40.5361 H   0  0  0  0  0  0  0  0  0  0  0  0
   36.6885   23.7899   40.3072 H   0  0  0  0  0  0  0  0  0  0  0  0
   36.6372   25.5559   42.6142 H   0  0  0  0  0  0  0  0  0  0  0  0
   36.5227   23.7171   42.3769 H   0  0  0  0  0  0  0  0  0  0  0  0
   38.7947   23.4699   42.3181 H   0  0  0  0  0  0  0  0  0  0  0  0
   38.4734   24.5523   43.7010 H   0  0  0  0  0  0  0  0  0  0  0  0
  1  5  1  0
  2  3  1  0
  2  1  2  0
  3  4  1  0
  4 12  1  0
  5  4  2  0
  6  7  2  0
  7  1  1  0
  8  7  1  0
  9  8  2  0
 10 11  2  0
 10  9  1  0
 11  6  1  0
 12 13  2  0
 13 14  1  0
 15 14  1  0
 16 12  1  0
 16 15  2  0
 17 15  1  0
 17 22  1  0
 18 17  1  0
 19 18  1  0
 19 20  1  0
 20 21  1  0
 21 22  1  0
  2 23  1  0
  6 24  1  0
  8 25  1  0
 10 26  1  0
 17 27  1  0
 18 28  1  0
 18 29  1  0
 19 30  1  0
 19 31  1  0
 20 32  1  0
 20 33  1  0
 21 34  1  0
 21 35  1  0
 22 36  1  0
 22 37  1  0
M  ISO  8  23  14  24  14  25  14  26  14  27  13  28  13  29  13  30  13
M  ISO  7  31  13  32  13  33  13  34  13  35  13  36  13  37  13
M  END
>  <minimizedAffinity>  (1) 
-5.77362442

>  <minimizedRMSD>  (1) 
4.0906682

$$$$
