
     RDKit          3D

 31 34  0  0  0  0  0  0  0  0999 V2000
   38.6110   33.3980   40.4080 C   0  0  0  0  0  0  0  0  0  0  0  0
   37.3730   33.2340   39.7210 C   0  0  0  0  0  0  0  0  0  0  0  0
   36.8760   31.4960   40.1190 S   0  0  0  0  0  0  0  0  0  0  0  0
   38.4450   31.2930   41.1540 C   0  0  0  0  0  0  0  0  0  0  0  0
   38.9140   32.3050   41.0320 N   0  0  0  0  0  0  0  0  0  0  0  0
   40.6900   34.7140   40.6140 C   0  0  0  0  0  0  0  0  0  0  0  0
   39.3350   34.6670   40.3360 C   0  0  0  0  0  0  0  0  0  0  0  0
   38.6690   35.8560   39.9860 C   0  0  0  0  0  0  0  0  0  0  0  0
   39.4030   36.9970   39.9390 N   0  0  0  0  0  0  0  0  0  0  0  0
   40.7390   36.9910   40.2220 C   0  0  0  0  0  0  0  0  0  0  0  0
   41.3630   35.8690   40.5510 N   0  0  0  0  0  0  0  0  0  0  0  0
   38.8220   30.0590   41.8800 C   0  0  0  0  0  0  0  0  0  0  0  0
   37.9680   29.4560   42.7130 N   0  0  0  0  0  0  0  0  0  0  0  0
   38.5310   28.3960   43.2270 O   0  0  0  0  0  0  0  0  0  0  0  0
   39.7550   28.3360   42.7060 C   0  0  0  0  0  0  0  0  0  0  0  0
   39.9730   29.3640   41.8560 N   0  0  0  0  0  0  0  0  0  0  0  0
   40.7580   27.3010   42.9990 C   0  0  0  0  0  0  0  0  0  0  0  0
   41.5650   27.3410   44.1190 C   0  0  0  0  0  0  0  0  0  0  0  0
   42.4860   26.3310   44.3270 C   0  0  0  0  0  0  0  0  0  0  0  0
   42.6100   25.2760   43.4200 C   0  0  0  0  0  0  0  0  0  0  0  0
   41.8180   25.2090   42.2910 C   0  0  0  0  0  0  0  0  0  0  0  0
   40.9090   26.2410   42.1210 C   0  0  0  0  0  0  0  0  0  0  0  0
   36.8384   33.9680   39.1001 H   0  0  0  0  0  0  0  0  0  0  0  0
   41.2203   33.7906   40.8901 H   0  0  0  0  0  0  0  0  0  0  0  0
   37.5927   35.8608   39.7587 H   0  0  0  0  0  0  0  0  0  0  0  0
   41.3062   37.9324   40.1762 H   0  0  0  0  0  0  0  0  0  0  0  0
   41.4759   28.1683   44.8385 H   0  0  0  0  0  0  0  0  0  0  0  0
   43.1296   26.3586   45.2186 H   0  0  0  0  0  0  0  0  0  0  0  0
   43.3511   24.4852   43.6084 H   0  0  0  0  0  0  0  0  0  0  0  0
   41.9036   24.3841   41.5683 H   0  0  0  0  0  0  0  0  0  0  0  0
   40.2648   26.2165   41.2297 H   0  0  0  0  0  0  0  0  0  0  0  0
  1  5  1  0
  2  3  1  0
  2  1  2  0
  3  4  1  0
  4 12  1  0
  5  4  2  0
  7  1  1  0
  7  6  2  0
  8  7  1  0
  9  8  2  0
  9 10  1  0
 10 11  2  0
 11  6  1  0
 12 13  2  0
 13 14  1  0
 15 17  1  0
 15 14  1  0
 16 12  1  0
 16 15  2  0
 17 18  2  0
 18 19  1  0
 20 19  2  0
 21 20  1  0
 22 21  2  0
 22 17  1  0
  2 23  1  0
  6 24  1  0
  8 25  1  0
 10 26  1  0
 18 27  1  0
 19 28  1  0
 20 29  1  0
 21 30  1  0
 22 31  1  0
M  ISO  8  23  14  24  14  25  14  26  14  27  14  28  14  29  14  30  14
M  ISO  1  31  14
M  END
>  <minimizedAffinity>  (1) 
-5.71032095

>  <minimizedRMSD>  (1) 
3.1776638

$$$$
