
     RDKit          3D

 33 36  0  0  0  0  0  0  0  0999 V2000
   37.7200   30.2660   41.3620 C   0  0  0  0  0  0  0  0  0  0  0  0
   36.4280   29.6830   41.1990 C   0  0  0  0  0  0  0  0  0  0  0  0
   36.6120   28.0040   41.9600 S   0  0  0  0  0  0  0  0  0  0  0  0
   38.4240   28.4060   42.3630 C   0  0  0  0  0  0  0  0  0  0  0  0
   38.5400   29.4490   41.9620 N   0  0  0  0  0  0  0  0  0  0  0  0
   39.3390   27.4670   43.0400 C   0  0  0  0  0  0  0  0  0  0  0  0
   39.0580   26.1830   43.2450 N   0  0  0  0  0  0  0  0  0  0  0  0
   40.0480   25.6020   43.8540 O   0  0  0  0  0  0  0  0  0  0  0  0
   40.9780   26.5070   44.0450 C   0  0  0  0  0  0  0  0  0  0  0  0
   40.5770   27.6960   43.5510 N   0  0  0  0  0  0  0  0  0  0  0  0
   42.2980   26.6370   44.6180 N   0  0  0  0  0  0  0  0  0  0  0  0
   43.5580   26.1110   44.0540 C   0  0  0  0  0  0  0  0  0  0  0  0
   44.2950   27.4490   43.8880 C   0  0  0  0  0  0  0  0  0  0  0  0
   43.8560   28.2140   45.1480 C   0  0  0  0  0  0  0  0  0  0  0  0
   42.8770   27.2440   45.8230 C   0  0  0  0  0  0  0  0  0  0  0  0
   39.1400   32.2810   41.2210 C   0  0  0  0  0  0  0  0  0  0  0  0
   37.9660   31.6230   40.8680 C   0  0  0  0  0  0  0  0  0  0  0  0
   37.0320   32.2820   40.0450 C   0  0  0  0  0  0  0  0  0  0  0  0
   37.3390   33.5480   39.6360 N   0  0  0  0  0  0  0  0  0  0  0  0
   38.4970   34.1570   40.0020 C   0  0  0  0  0  0  0  0  0  0  0  0
   39.3870   33.5280   40.7880 N   0  0  0  0  0  0  0  0  0  0  0  0
   35.5353   30.1252   40.7326 H   0  0  0  0  0  0  0  0  0  0  0  0
   44.0752   25.4343   44.7501 H   0  0  0  0  0  0  0  0  0  0  0  0
   43.4609   25.4982   43.1457 H   0  0  0  0  0  0  0  0  0  0  0  0
   45.3853   27.3049   43.8674 H   0  0  0  0  0  0  0  0  0  0  0  0
   44.0611   27.9707   42.9483 H   0  0  0  0  0  0  0  0  0  0  0  0
   44.7157   28.4250   45.8010 H   0  0  0  0  0  0  0  0  0  0  0  0
   43.4079   29.1934   44.9242 H   0  0  0  0  0  0  0  0  0  0  0  0
   42.1216   27.7708   46.4245 H   0  0  0  0  0  0  0  0  0  0  0  0
   43.3234   26.5413   46.5420 H   0  0  0  0  0  0  0  0  0  0  0  0
   39.8751   31.7734   41.8628 H   0  0  0  0  0  0  0  0  0  0  0  0
   36.0924   31.7959   39.7437 H   0  0  0  0  0  0  0  0  0  0  0  0
   38.7086   35.1776   39.6505 H   0  0  0  0  0  0  0  0  0  0  0  0
  1  5  1  0
  2  1  2  0
  2  3  1  0
  3  4  1  0
  4  6  1  0
  5  4  2  0
  6  7  2  0
  6 10  1  0
  7  8  1  0
  8  9  1  0
  9 11  1  0
 10  9  2  0
 11 15  1  0
 12 11  1  0
 13 12  1  0
 13 14  1  0
 14 15  1  0
 17 16  2  0
 17  1  1  0
 18 17  1  0
 19 20  1  0
 19 18  2  0
 20 21  2  0
 21 16  1  0
  2 22  1  0
 12 23  1  0
 12 24  1  0
 13 25  1  0
 13 26  1  0
 14 27  1  0
 14 28  1  0
 15 29  1  0
 15 30  1  0
 16 31  1  0
 18 32  1  0
 20 33  1  0
M  ISO  8  22  14  23  13  24  13  25  13  26  13  27  13  28  13  29  13
M  ISO  4  30  13  31  14  32  14  33  14
M  END
>  <minimizedAffinity>  (1) 
-5.49880028

>  <minimizedRMSD>  (1) 
0.236491516

$$$$
