
     RDKit          3D

 26 29  0  0  0  0  0  0  0  0999 V2000
   38.5960   33.0800   40.3410 C   0  0  0  0  0  0  0  0  0  0  0  0
   37.2830   32.9220   39.8110 C   0  0  0  0  0  0  0  0  0  0  0  0
   36.7630   31.2510   40.4170 S   0  0  0  0  0  0  0  0  0  0  0  0
   38.4280   31.0540   41.2900 C   0  0  0  0  0  0  0  0  0  0  0  0
   38.9170   32.0260   41.0250 N   0  0  0  0  0  0  0  0  0  0  0  0
   40.6660   34.2080   39.6140 C   0  0  0  0  0  0  0  0  0  0  0  0
   39.3460   34.2950   40.0740 C   0  0  0  0  0  0  0  0  0  0  0  0
   38.7950   35.5590   40.2620 C   0  0  0  0  0  0  0  0  0  0  0  0
   39.5550   36.6480   39.9940 N   0  0  0  0  0  0  0  0  0  0  0  0
   40.8250   36.5290   39.5520 C   0  0  0  0  0  0  0  0  0  0  0  0
   41.3750   35.3140   39.3640 N   0  0  0  0  0  0  0  0  0  0  0  0
   38.8180   29.8640   42.0750 C   0  0  0  0  0  0  0  0  0  0  0  0
   37.9810   29.2730   42.9230 N   0  0  0  0  0  0  0  0  0  0  0  0
   38.5720   28.2530   43.4790 O   0  0  0  0  0  0  0  0  0  0  0  0
   39.7860   28.1980   42.9840 C   0  0  0  0  0  0  0  0  0  0  0  0
   39.9980   29.1980   42.0850 N   0  0  0  0  0  0  0  0  0  0  0  0
   40.7470   27.1830   43.3750 C   0  0  0  0  0  0  0  0  0  0  0  0
   40.8050   25.8760   43.0410 N   0  0  0  0  0  0  0  0  0  0  0  0
   41.8430   25.3470   43.6260 O   0  0  0  0  0  0  0  0  0  0  0  0
   42.4650   26.2490   44.3270 C   0  0  0  0  0  0  0  0  0  0  0  0
   41.7910   27.4260   44.1870 N   0  0  0  0  0  0  0  0  0  0  0  0
   36.7124   33.6267   39.1883 H   0  0  0  0  0  0  0  0  0  0  0  0
   41.1240   33.2203   39.4568 H   0  0  0  0  0  0  0  0  0  0  0  0
   37.7616   35.6718   40.6215 H   0  0  0  0  0  0  0  0  0  0  0  0
   41.4162   37.4329   39.3434 H   0  0  0  0  0  0  0  0  0  0  0  0
   43.3736   26.0904   44.9264 H   0  0  0  0  0  0  0  0  0  0  0  0
  1  5  1  0
  2  1  2  0
  2  3  1  0
  3  4  1  0
  4 12  1  0
  5  4  2  0
  6  7  2  0
  7  8  1  0
  7  1  1  0
  9  8  2  0
 10  9  1  0
 11 10  2  0
 11  6  1  0
 12 16  1  0
 12 13  2  0
 13 14  1  0
 15 17  1  0
 15 14  1  0
 16 15  2  0
 17 21  1  0
 18 17  2  0
 18 19  1  0
 19 20  1  0
 21 20  2  0
  2 22  1  0
  6 23  1  0
  8 24  1  0
 10 25  1  0
 20 26  1  0
M  ISO  5  22  14  23  14  24  14  25  14  26  14
M  END
>  <minimizedAffinity>  (1) 
-5.47706079

>  <minimizedRMSD>  (1) 
2.88545537

$$$$
