
     RDKit          3D

 27 30  0  0  0  0  0  0  0  0999 V2000
   37.8460   30.2870   41.2340 C   0  0  0  0  0  0  0  0  0  0  0  0
   36.6910   29.4990   40.9780 C   0  0  0  0  0  0  0  0  0  0  0  0
   37.0550   27.8720   41.7850 S   0  0  0  0  0  0  0  0  0  0  0  0
   38.7330   28.5450   42.3390 C   0  0  0  0  0  0  0  0  0  0  0  0
   38.6890   29.5820   41.9160 N   0  0  0  0  0  0  0  0  0  0  0  0
   39.7260   27.7710   43.1200 C   0  0  0  0  0  0  0  0  0  0  0  0
   39.4650   26.5400   43.5510 N   0  0  0  0  0  0  0  0  0  0  0  0
   40.4860   26.0690   44.2100 O   0  0  0  0  0  0  0  0  0  0  0  0
   41.4030   27.0220   44.1910 C   0  0  0  0  0  0  0  0  0  0  0  0
   40.9580   28.1160   43.5120 N   0  0  0  0  0  0  0  0  0  0  0  0
   42.6780   26.8890   44.8130 N   0  0  0  0  0  0  0  0  0  0  0  0
   43.7870   26.4150   44.1890 C   0  0  0  0  0  0  0  0  0  0  0  0
   44.7870   26.4360   45.0840 N   0  0  0  0  0  0  0  0  0  0  0  0
   44.3120   26.9130   46.2400 C   0  0  0  0  0  0  0  0  0  0  0  0
   43.0080   27.1930   46.0700 N   0  0  0  0  0  0  0  0  0  0  0  0
   38.9210   32.5030   41.2200 C   0  0  0  0  0  0  0  0  0  0  0  0
   37.9180   31.6520   40.7410 C   0  0  0  0  0  0  0  0  0  0  0  0
   37.0240   32.1470   39.8030 C   0  0  0  0  0  0  0  0  0  0  0  0
   37.1610   33.4330   39.3940 N   0  0  0  0  0  0  0  0  0  0  0  0
   38.1400   34.2320   39.8770 C   0  0  0  0  0  0  0  0  0  0  0  0
   39.0140   33.7640   40.7870 N   0  0  0  0  0  0  0  0  0  0  0  0
   35.7854   29.7898   40.4254 H   0  0  0  0  0  0  0  0  0  0  0  0
   43.8534   26.0768   43.1444 H   0  0  0  0  0  0  0  0  0  0  0  0
   44.8874   27.0518   47.1672 H   0  0  0  0  0  0  0  0  0  0  0  0
   39.6417   32.1291   41.9622 H   0  0  0  0  0  0  0  0  0  0  0  0
   36.2221   31.5110   39.4000 H   0  0  0  0  0  0  0  0  0  0  0  0
   38.2221   35.2705   39.5238 H   0  0  0  0  0  0  0  0  0  0  0  0
  1  5  1  0
  2  1  2  0
  2  3  1  0
  3  4  1  0
  4  6  1  0
  5  4  2  0
  6 10  1  0
  6  7  2  0
  7  8  1  0
  9  8  1  0
  9 11  1  0
 10  9  2  0
 11 15  1  0
 12 11  1  0
 12 13  2  0
 13 14  1  0
 15 14  2  0
 17 16  2  0
 17  1  1  0
 18 17  1  0
 19 18  2  0
 19 20  1  0
 20 21  2  0
 21 16  1  0
  2 22  1  0
 12 23  1  0
 14 24  1  0
 16 25  1  0
 18 26  1  0
 20 27  1  0
M  ISO  6  22  14  23  14  24  14  25  14  26  14  27  14
M  END
>  <minimizedAffinity>  (1) 
-5.2622776

>  <minimizedRMSD>  (1) 
0.596151412

$$$$
