
     RDKit          3D

 47 50  0  0  1  0  0  0  0  0999 V2000
   39.3370   28.1560   42.3810 C   0  0  2  0  0  0  0  0  0  0  0  0
   40.5320   27.2120   42.3110 C   0  0  2  0  0  0  0  0  0  0  0  0
   40.2610   25.9170   41.7160 C   0  0  0  0  0  0  0  0  0  0  0  0
   40.7060   24.8130   42.6530 C   0  0  0  0  0  0  0  0  0  0  0  0
   41.5130   25.4910   43.7210 C   0  0  0  0  0  0  0  0  0  0  0  0
   40.9410   26.8880   43.7370 C   0  0  1  0  0  0  0  0  0  0  0  0
   42.0250   27.7920   44.0820 N   0  0  0  0  0  0  0  0  0  0  0  0
   42.4010   28.9090   43.4400 N   0  0  0  0  0  0  0  0  0  0  0  0
   43.4330   29.4930   44.0340 C   0  0  0  0  0  0  0  0  0  0  0  0
   43.7750   28.7270   45.1420 C   0  0  0  0  0  0  0  0  0  0  0  0
   42.8630   27.6730   45.1270 C   0  0  0  0  0  0  0  0  0  0  0  0
   38.1550   27.4350   42.7580 N   0  0  0  0  0  0  0  0  0  0  0  0
   37.1420   28.0360   43.5450 C   0  0  0  0  0  0  0  0  0  0  0  0
   37.3430   29.2290   43.9990 N   0  0  0  0  0  0  0  0  0  0  0  0
   35.9570   27.3500   43.8180 N   0  0  0  0  0  0  0  0  0  0  0  0
   36.6150   29.7080   44.5640 H   0  0  0  0  0  0  0  0  0  0  0  0
   38.6180   29.1720   38.9810 C   0  0  0  0  0  0  0  0  0  0  0  0
   39.4400   30.2200   39.4000 C   0  0  0  0  0  0  0  0  0  0  0  0
   39.7550   29.9010   40.6910 C   0  0  0  0  0  0  0  0  0  0  0  0
   39.1610   28.7280   41.0430 N   0  0  0  0  0  0  0  0  0  0  0  0
   38.4790   28.3040   39.9970 N   0  0  0  0  0  0  0  0  0  0  0  0
   38.1910   27.9950   36.8030 C   0  0  0  0  0  0  0  0  0  0  0  0
   38.0260   29.0660   37.6610 C   0  0  0  0  0  0  0  0  0  0  0  0
   37.2360   30.1110   37.2240 C   0  0  0  0  0  0  0  0  0  0  0  0
   36.6440   30.0780   35.9870 N   0  0  0  0  0  0  0  0  0  0  0  0
   36.8560   28.9740   35.1840 C   0  0  0  0  0  0  0  0  0  0  0  0
   37.6430   27.9210   35.6060 N   0  0  0  0  0  0  0  0  0  0  0  0
   39.5091   28.9430   43.1300 H   0  0  0  0  0  0  0  0  0  0  0  0
   41.2815   27.7323   41.6966 H   0  0  0  0  0  0  0  0  0  0  0  0
   39.1815   25.8215   41.5273 H   0  0  0  0  0  0  0  0  0  0  0  0
   40.8142   25.8318   40.7691 H   0  0  0  0  0  0  0  0  0  0  0  0
   39.8335   24.3081   43.0933 H   0  0  0  0  0  0  0  0  0  0  0  0
   41.2911   24.0441   42.1272 H   0  0  0  0  0  0  0  0  0  0  0  0
   41.3774   24.9963   44.6941 H   0  0  0  0  0  0  0  0  0  0  0  0
   42.5960   25.4662   43.5300 H   0  0  0  0  0  0  0  0  0  0  0  0
   40.0984   26.9765   44.4385 H   0  0  0  0  0  0  0  0  0  0  0  0
   43.9297   30.4187   43.7078 H   0  0  0  0  0  0  0  0  0  0  0  0
   44.5822   28.9108   45.8664 H   0  0  0  0  0  0  0  0  0  0  0  0
   42.8330   26.8586   45.8658 H   0  0  0  0  0  0  0  0  0  0  0  0
   38.0406   26.4589   42.4496 H   0  0  0  0  0  0  0  0  0  0  0  0
   35.2253   27.7939   44.3911 H   0  0  0  0  0  0  0  0  0  0  0  0
   35.8145   26.4000   43.4463 H   0  0  0  0  0  0  0  0  0  0  0  0
   39.7604   31.1002   38.8234 H   0  0  0  0  0  0  0  0  0  0  0  0
   40.3959   30.5048   41.3503 H   0  0  0  0  0  0  0  0  0  0  0  0
   38.8165   27.1547   37.1386 H   0  0  0  0  0  0  0  0  0  0  0  0
   37.0792   30.9822   37.8771 H   0  0  0  0  0  0  0  0  0  0  0  0
   36.3887   28.9331   34.1890 H   0  0  0  0  0  0  0  0  0  0  0  0
  1 12  1  0
  2  1  1  0
  2  6  1  0
  3  2  1  0
  3  4  1  0
  4  5  1  0
  5  6  1  0
  6  7  1  0
  7 11  1  0
  8  9  2  0
  8  7  1  0
  9 10  1  0
 11 10  2  0
 12 13  1  0
 13 15  1  0
 13 14  2  0
 14 16  1  0
 17 18  1  0
 17 21  2  0
 18 19  2  0
 19 20  1  0
 20  1  1  0
 21 20  1  0
 22 23  2  0
 23 17  1  0
 24 23  1  0
 25 24  2  0
 26 27  2  0
 26 25  1  0
 27 22  1  0
  1 28  1  1
  2 29  1  6
  3 30  1  0
  3 31  1  0
  4 32  1  0
  4 33  1  0
  5 34  1  0
  5 35  1  0
  6 36  1  1
  9 37  1  0
 10 38  1  0
 11 39  1  0
 12 40  1  0
 15 41  1  0
 15 42  1  0
 18 43  1  0
 19 44  1  0
 22 45  1  0
 24 46  1  0
 26 47  1  0
M  ISO  8  28   8  29  13  30  13  31  13  32  13  33  13  34  13  35  13
M  ISO  8  36  13  37  14  38  14  39  14  43  14  44  14  45  14  46  14
M  ISO  1  47  14
M  END
>  <minimizedAffinity>  (1) 
-5.1282258

>  <minimizedRMSD>  (1) 
0.452579498

$$$$
