
     RDKit          3D

 28 31  0  0  0  0  0  0  0  0999 V2000
   37.8010   30.2910   41.3350 C   0  0  0  0  0  0  0  0  0  0  0  0
   36.6050   29.5320   41.1770 C   0  0  0  0  0  0  0  0  0  0  0  0
   36.9900   27.9210   42.0160 S   0  0  0  0  0  0  0  0  0  0  0  0
   38.7160   28.5710   42.4330 C   0  0  0  0  0  0  0  0  0  0  0  0
   38.6870   29.6000   41.9840 N   0  0  0  0  0  0  0  0  0  0  0  0
   39.7470   27.7970   43.1750 C   0  0  0  0  0  0  0  0  0  0  0  0
   39.4930   26.5600   43.6310 N   0  0  0  0  0  0  0  0  0  0  0  0
   40.5650   26.1110   44.2440 O   0  0  0  0  0  0  0  0  0  0  0  0
   41.4730   27.0570   44.1690 C   0  0  0  0  0  0  0  0  0  0  0  0
   41.0020   28.1480   43.5000 N   0  0  0  0  0  0  0  0  0  0  0  0
   42.7680   26.8920   44.7390 N   0  0  0  0  0  0  0  0  0  0  0  0
   42.9500   27.1900   46.0120 N   0  0  0  0  0  0  0  0  0  0  0  0
   44.2490   26.9590   46.3420 C   0  0  0  0  0  0  0  0  0  0  0  0
   44.9210   26.4900   45.2080 C   0  0  0  0  0  0  0  0  0  0  0  0
   43.9480   26.4630   44.2200 C   0  0  0  0  0  0  0  0  0  0  0  0
   38.8730   32.5090   41.2410 C   0  0  0  0  0  0  0  0  0  0  0  0
   37.8850   31.6420   40.7940 C   0  0  0  0  0  0  0  0  0  0  0  0
   36.9770   32.0950   39.8190 C   0  0  0  0  0  0  0  0  0  0  0  0
   37.1360   33.3780   39.3730 N   0  0  0  0  0  0  0  0  0  0  0  0
   38.1050   34.1910   39.8280 C   0  0  0  0  0  0  0  0  0  0  0  0
   38.9640   33.7550   40.7550 N   0  0  0  0  0  0  0  0  0  0  0  0
   35.6726   29.8306   40.6756 H   0  0  0  0  0  0  0  0  0  0  0  0
   44.6966   27.1149   47.3347 H   0  0  0  0  0  0  0  0  0  0  0  0
   45.9803   26.2070   45.1200 H   0  0  0  0  0  0  0  0  0  0  0  0
   44.1068   26.1442   43.1793 H   0  0  0  0  0  0  0  0  0  0  0  0
   39.5898   32.1694   42.0032 H   0  0  0  0  0  0  0  0  0  0  0  0
   36.1762   31.4469   39.4333 H   0  0  0  0  0  0  0  0  0  0  0  0
   38.1912   35.2157   39.4374 H   0  0  0  0  0  0  0  0  0  0  0  0
  1  5  1  0
  2  1  2  0
  2  3  1  0
  3  4  1  0
  4  6  1  0
  5  4  2  0
  6 10  1  0
  6  7  2  0
  7  8  1  0
  9  8  1  0
  9 11  1  0
 10  9  2  0
 11 12  1  0
 12 13  2  0
 14 13  1  0
 15 11  1  0
 15 14  2  0
 17 16  2  0
 17  1  1  0
 18 17  1  0
 19 18  2  0
 19 20  1  0
 20 21  2  0
 21 16  1  0
  2 22  1  0
 13 23  1  0
 14 24  1  0
 15 25  1  0
 16 26  1  0
 18 27  1  0
 20 28  1  0
M  ISO  7  22  14  23  14  24  14  25  14  26  14  27  14  28  14
M  END
>  <minimizedAffinity>  (1) 
-5.25229406

>  <minimizedRMSD>  (1) 
0.695411205

$$$$
