
     RDKit          3D

 28 31  0  0  0  0  0  0  0  0999 V2000
   37.7300   30.3840   41.2930 C   0  0  0  0  0  0  0  0  0  0  0  0
   36.5170   29.6600   41.1070 C   0  0  0  0  0  0  0  0  0  0  0  0
   36.8390   28.0240   41.9270 S   0  0  0  0  0  0  0  0  0  0  0  0
   38.5750   28.6190   42.3790 C   0  0  0  0  0  0  0  0  0  0  0  0
   38.5700   29.6490   41.9430 N   0  0  0  0  0  0  0  0  0  0  0  0
   38.8650   32.5700   41.2460 C   0  0  0  0  0  0  0  0  0  0  0  0
   37.8490   31.7360   40.7710 C   0  0  0  0  0  0  0  0  0  0  0  0
   36.9820   32.2390   39.8100 C   0  0  0  0  0  0  0  0  0  0  0  0
   37.1580   33.5110   39.3720 N   0  0  0  0  0  0  0  0  0  0  0  0
   38.1560   34.2900   39.8570 C   0  0  0  0  0  0  0  0  0  0  0  0
   39.0000   33.8200   40.7850 N   0  0  0  0  0  0  0  0  0  0  0  0
   39.5600   27.8020   43.1210 C   0  0  0  0  0  0  0  0  0  0  0  0
   39.2770   26.5670   43.5450 N   0  0  0  0  0  0  0  0  0  0  0  0
   40.2990   26.0680   44.1640 O   0  0  0  0  0  0  0  0  0  0  0  0
   41.2420   26.9990   44.1330 C   0  0  0  0  0  0  0  0  0  0  0  0
   40.8300   28.1150   43.4870 N   0  0  0  0  0  0  0  0  0  0  0  0
   42.5930   26.8850   44.7160 C   0  0  0  0  0  0  0  0  0  0  0  0
   43.0230   27.2690   45.9850 C   0  0  0  0  0  0  0  0  0  0  0  0
   44.3650   26.9640   46.0680 C   0  0  0  0  0  0  0  0  0  0  0  0
   44.6970   26.4100   44.8500 C   0  0  0  0  0  0  0  0  0  0  0  0
   43.6390   26.3760   44.0800 O   0  0  0  0  0  0  0  0  0  0  0  0
   35.6015   29.9927   40.5960 H   0  0  0  0  0  0  0  0  0  0  0  0
   39.5631   32.1946   42.0087 H   0  0  0  0  0  0  0  0  0  0  0  0
   36.1670   31.6173   39.4110 H   0  0  0  0  0  0  0  0  0  0  0  0
   38.2739   35.3184   39.4847 H   0  0  0  0  0  0  0  0  0  0  0  0
   42.4075   27.7289   46.7722 H   0  0  0  0  0  0  0  0  0  0  0  0
   45.0319   27.1284   46.9272 H   0  0  0  0  0  0  0  0  0  0  0  0
   45.6980   26.0514   44.5683 H   0  0  0  0  0  0  0  0  0  0  0  0
  1  5  1  0
  2  1  2  0
  2  3  1  0
  3  4  1  0
  4 12  1  0
  5  4  2  0
  7  6  2  0
  7  1  1  0
  8  7  1  0
  9  8  2  0
  9 10  1  0
 10 11  2  0
 11  6  1  0
 12 16  1  0
 12 13  2  0
 13 14  1  0
 15 14  1  0
 15 17  1  0
 16 15  2  0
 17 18  2  0
 18 19  1  0
 20 19  2  0
 21 17  1  0
 21 20  1  0
  2 22  1  0
  6 23  1  0
  8 24  1  0
 10 25  1  0
 18 26  1  0
 19 27  1  0
 20 28  1  0
M  ISO  7  22  14  23  14  24  14  25  14  26  14  27  14  28  14
M  END
>  <minimizedAffinity>  (1) 
-5.14375639

>  <minimizedRMSD>  (1) 
0.717705369

$$$$
