
     RDKit          3D

 22 24  0  0  0  0  0  0  0  0999 V2000
   37.6450   30.6340   41.1870 C   0  0  0  0  0  0  0  0  0  0  0  0
   36.3920   30.0110   40.9120 C   0  0  0  0  0  0  0  0  0  0  0  0
   36.5870   28.3310   41.6700 S   0  0  0  0  0  0  0  0  0  0  0  0
   38.3390   28.7770   42.2250 C   0  0  0  0  0  0  0  0  0  0  0  0
   38.4310   29.8270   41.8410 N   0  0  0  0  0  0  0  0  0  0  0  0
   39.0430   32.6810   41.1490 C   0  0  0  0  0  0  0  0  0  0  0  0
   37.9060   32.0100   40.7410 C   0  0  0  0  0  0  0  0  0  0  0  0
   36.9940   32.6600   39.8890 C   0  0  0  0  0  0  0  0  0  0  0  0
   37.2970   33.9330   39.5150 N   0  0  0  0  0  0  0  0  0  0  0  0
   38.4330   34.5600   39.9410 C   0  0  0  0  0  0  0  0  0  0  0  0
   39.2840   33.9310   40.7450 N   0  0  0  0  0  0  0  0  0  0  0  0
   39.2440   27.8700   42.9700 C   0  0  0  0  0  0  0  0  0  0  0  0
   38.8080   26.6850   43.4410 N   0  0  0  0  0  0  0  0  0  0  0  0
   39.7930   26.0820   44.0540 O   0  0  0  0  0  0  0  0  0  0  0  0
   40.8460   26.8930   43.9670 C   0  0  0  0  0  0  0  0  0  0  0  0
   40.5410   28.0260   43.2930 N   0  0  0  0  0  0  0  0  0  0  0  0
   42.5190   26.6620   44.6040 S   0  0  0  0  0  0  0  0  0  0  0  0
   35.5229   30.4258   40.3804 H   0  0  0  0  0  0  0  0  0  0  0  0
   39.7594   32.1787   41.8157 H   0  0  0  0  0  0  0  0  0  0  0  0
   36.0773   32.1616   39.5409 H   0  0  0  0  0  0  0  0  0  0  0  0
   38.6445   35.5898   39.6174 H   0  0  0  0  0  0  0  0  0  0  0  0
   42.4907   26.6659   45.9737 H   0  0  0  0  0  0  0  0  0  0  0  0
  1  5  1  0
  2  1  2  0
  2  3  1  0
  3  4  1  0
  4 12  1  0
  5  4  2  0
  7  6  2  0
  7  1  1  0
  8  7  1  0
  9  8  2  0
  9 10  1  0
 10 11  2  0
 11  6  1  0
 12 16  1  0
 12 13  2  0
 13 14  1  0
 15 14  1  0
 15 17  1  0
 16 15  2  0
  2 18  1  0
  6 19  1  0
  8 20  1  0
 10 21  1  0
 17 22  1  0
M  ISO  5  18  14  19  14  20  14  21  14  22  11
M  END
>  <minimizedAffinity>  (1) 
-4.64563799

>  <minimizedRMSD>  (1) 
0.330969453

$$$$
