
     RDKit          3D

 31 34  0  0  0  0  0  0  0  0999 V2000
   37.8990   30.2830   41.4070 C   0  0  0  0  0  0  0  0  0  0  0  0
   36.6670   29.5910   41.2460 C   0  0  0  0  0  0  0  0  0  0  0  0
   36.9720   27.9700   42.0550 S   0  0  0  0  0  0  0  0  0  0  0  0
   38.7360   28.5080   42.4790 C   0  0  0  0  0  0  0  0  0  0  0  0
   38.7520   29.5410   42.0410 N   0  0  0  0  0  0  0  0  0  0  0  0
   39.1760   32.4000   41.2300 C   0  0  0  0  0  0  0  0  0  0  0  0
   38.0590   31.6390   40.8890 C   0  0  0  0  0  0  0  0  0  0  0  0
   37.0710   32.1920   40.0370 C   0  0  0  0  0  0  0  0  0  0  0  0
   37.2710   33.4590   39.5940 N   0  0  0  0  0  0  0  0  0  0  0  0
   38.3700   34.1690   39.9490 C   0  0  0  0  0  0  0  0  0  0  0  0
   39.3050   33.6400   40.7550 N   0  0  0  0  0  0  0  0  0  0  0  0
   39.7100   27.6690   43.1950 C   0  0  0  0  0  0  0  0  0  0  0  0
   39.4420   26.3930   43.5400 N   0  0  0  0  0  0  0  0  0  0  0  0
   40.5000   25.9050   44.1590 O   0  0  0  0  0  0  0  0  0  0  0  0
   41.4100   26.8710   44.1950 C   0  0  0  0  0  0  0  0  0  0  0  0
   40.9610   27.9850   43.6080 N   0  0  0  0  0  0  0  0  0  0  0  0
   43.0400   26.8130   44.9000 S   0  0  0  0  0  0  0  0  0  0  0  0
   43.2090   27.7920   46.3660 C   0  0  0  0  0  0  0  0  0  0  0  0
   42.8300   27.6140   47.6750 C   0  0  0  0  0  0  0  0  0  0  0  0
   43.0900   28.5540   48.6450 C   0  0  0  0  0  0  0  0  0  0  0  0
   43.7500   29.7200   48.3260 C   0  0  0  0  0  0  0  0  0  0  0  0
   44.1170   29.8730   47.0180 C   0  0  0  0  0  0  0  0  0  0  0  0
   43.8630   28.9450   46.0490 N   0  0  0  0  0  0  0  0  0  0  0  0
   35.7486   29.9431   40.7535 H   0  0  0  0  0  0  0  0  0  0  0  0
   39.9494   31.9790   41.8893 H   0  0  0  0  0  0  0  0  0  0  0  0
   36.1787   31.6180   39.7467 H   0  0  0  0  0  0  0  0  0  0  0  0
   38.4979   35.1941   39.5711 H   0  0  0  0  0  0  0  0  0  0  0  0
   42.3021   26.6907   47.9559 H   0  0  0  0  0  0  0  0  0  0  0  0
   42.7689   28.3734   49.6815 H   0  0  0  0  0  0  0  0  0  0  0  0
   43.9700   30.4871   49.0831 H   0  0  0  0  0  0  0  0  0  0  0  0
   44.6457   30.7938   46.7305 H   0  0  0  0  0  0  0  0  0  0  0  0
  1  5  1  0
  2  1  2  0
  2  3  1  0
  3  4  1  0
  4 12  1  0
  5  4  2  0
  7  6  2  0
  7  1  1  0
  8  7  1  0
  9 10  1  0
  9  8  2  0
 10 11  2  0
 11  6  1  0
 12 13  2  0
 12 16  1  0
 13 14  1  0
 14 15  1  0
 15 17  1  0
 16 15  2  0
 17 18  1  0
 18 19  2  0
 19 20  1  0
 21 20  2  0
 22 21  1  0
 23 18  1  0
 23 22  2  0
  2 24  1  0
  6 25  1  0
  8 26  1  0
 10 27  1  0
 19 28  1  0
 20 29  1  0
 21 30  1  0
 22 31  1  0
M  ISO  8  24  14  25  14  26  14  27  14  28  14  29  14  30  14  31  14
M  END
>  <minimizedAffinity>  (1) 
-6.18162441

>  <minimizedRMSD>  (1) 
2.21282125

$$$$
