
     RDKit          3D

 47 50  0  0  1  0  0  0  0  0999 V2000
   39.3430   28.1430   42.3820 C   0  0  2  0  0  0  0  0  0  0  0  0
   40.5320   27.1910   42.3110 C   0  0  2  0  0  0  0  0  0  0  0  0
   40.2410   25.8840   41.7540 C   0  0  0  0  0  0  0  0  0  0  0  0
   40.7000   24.8010   42.7100 C   0  0  0  0  0  0  0  0  0  0  0  0
   41.5320   25.5010   43.7450 C   0  0  0  0  0  0  0  0  0  0  0  0
   40.9720   26.9020   43.7360 C   0  0  1  0  0  0  0  0  0  0  0  0
   42.0680   27.8090   44.0230 N   0  0  0  0  0  0  0  0  0  0  0  0
   42.8630   27.6490   45.0990 C   0  0  0  0  0  0  0  0  0  0  0  0
   43.8180   28.6440   45.1300 C   0  0  0  0  0  0  0  0  0  0  0  0
   43.5860   29.4190   44.0410 N   0  0  0  0  0  0  0  0  0  0  0  0
   42.5300   28.9070   43.3800 C   0  0  0  0  0  0  0  0  0  0  0  0
   38.1590   27.4350   42.7610 N   0  0  0  0  0  0  0  0  0  0  0  0
   37.1470   28.0420   43.5430 C   0  0  0  0  0  0  0  0  0  0  0  0
   37.3530   29.2370   43.9910 N   0  0  0  0  0  0  0  0  0  0  0  0
   35.9570   27.3640   43.8190 N   0  0  0  0  0  0  0  0  0  0  0  0
   36.6280   29.7250   44.5520 H   0  0  0  0  0  0  0  0  0  0  0  0
   38.6280   29.1660   38.9850 C   0  0  0  0  0  0  0  0  0  0  0  0
   39.4540   30.2070   39.4010 C   0  0  0  0  0  0  0  0  0  0  0  0
   39.7690   29.8860   40.6930 C   0  0  0  0  0  0  0  0  0  0  0  0
   39.1680   28.7150   41.0440 N   0  0  0  0  0  0  0  0  0  0  0  0
   38.4830   28.2940   39.9990 N   0  0  0  0  0  0  0  0  0  0  0  0
   38.1960   27.9920   36.8010 C   0  0  0  0  0  0  0  0  0  0  0  0
   38.0350   29.0630   37.6650 C   0  0  0  0  0  0  0  0  0  0  0  0
   37.2480   30.1060   37.2290 C   0  0  0  0  0  0  0  0  0  0  0  0
   36.6540   30.0810   35.9950 N   0  0  0  0  0  0  0  0  0  0  0  0
   36.8620   28.9710   35.1820 C   0  0  0  0  0  0  0  0  0  0  0  0
   37.6480   27.9210   35.6070 N   0  0  0  0  0  0  0  0  0  0  0  0
   39.5232   28.9286   43.1306 H   0  0  0  0  0  0  0  0  0  0  0  0
   41.2714   27.6910   41.6682 H   0  0  0  0  0  0  0  0  0  0  0  0
   39.1573   25.7905   41.5904 H   0  0  0  0  0  0  0  0  0  0  0  0
   40.7729   25.7717   40.7977 H   0  0  0  0  0  0  0  0  0  0  0  0
   39.8341   24.3119   43.1802 H   0  0  0  0  0  0  0  0  0  0  0  0
   41.2710   24.0164   42.1918 H   0  0  0  0  0  0  0  0  0  0  0  0
   41.4111   25.0327   44.7330 H   0  0  0  0  0  0  0  0  0  0  0  0
   42.6109   25.4629   43.5338 H   0  0  0  0  0  0  0  0  0  0  0  0
   40.1495   27.0134   44.4579 H   0  0  0  0  0  0  0  0  0  0  0  0
   42.7651   26.8443   45.8425 H   0  0  0  0  0  0  0  0  0  0  0  0
   44.6070   28.7811   45.8842 H   0  0  0  0  0  0  0  0  0  0  0  0
   42.1052   29.3205   42.4534 H   0  0  0  0  0  0  0  0  0  0  0  0
   38.0398   26.4581   42.4570 H   0  0  0  0  0  0  0  0  0  0  0  0
   35.2275   27.8153   44.3891 H   0  0  0  0  0  0  0  0  0  0  0  0
   35.8092   26.4129   43.4524 H   0  0  0  0  0  0  0  0  0  0  0  0
   39.7785   31.0853   38.8237 H   0  0  0  0  0  0  0  0  0  0  0  0
   40.4136   30.4860   41.3522 H   0  0  0  0  0  0  0  0  0  0  0  0
   38.8202   27.1495   37.1336 H   0  0  0  0  0  0  0  0  0  0  0  0
   37.0936   30.9758   37.8844 H   0  0  0  0  0  0  0  0  0  0  0  0
   36.3934   28.9308   34.1876 H   0  0  0  0  0  0  0  0  0  0  0  0
  1 12  1  0
  2  1  1  0
  2  6  1  0
  3  2  1  0
  3  4  1  0
  4  5  1  0
  6  5  1  0
  6  7  1  0
  7  8  1  0
  8  9  2  0
 10  9  1  0
 11  7  1  0
 11 10  2  0
 12 13  1  0
 13 15  1  0
 13 14  2  0
 14 16  1  0
 17 18  1  0
 17 21  2  0
 18 19  2  0
 19 20  1  0
 20  1  1  0
 21 20  1  0
 22 23  2  0
 23 17  1  0
 24 23  1  0
 25 24  2  0
 26 27  2  0
 26 25  1  0
 27 22  1  0
  1 28  1  1
  2 29  1  6
  3 30  1  0
  3 31  1  0
  4 32  1  0
  4 33  1  0
  5 34  1  0
  5 35  1  0
  6 36  1  1
  8 37  1  0
  9 38  1  0
 11 39  1  0
 12 40  1  0
 15 41  1  0
 15 42  1  0
 18 43  1  0
 19 44  1  0
 22 45  1  0
 24 46  1  0
 26 47  1  0
M  ISO  8  28   8  29  13  30  13  31  13  32  13  33  13  34  13  35  13
M  ISO  8  36  13  37  14  38  14  39  14  43  14  44  14  45  14  46  14
M  ISO  1  47  14
M  END
>  <minimizedAffinity>  (1) 
-5.0434823

>  <minimizedRMSD>  (1) 
0.396606266

$$$$
