
     RDKit          3D

 30 33  0  0  0  0  0  0  0  0999 V2000
   37.9440   30.3030   41.4740 C   0  0  0  0  0  0  0  0  0  0  0  0
   36.7070   29.6230   41.3520 C   0  0  0  0  0  0  0  0  0  0  0  0
   37.0370   28.0020   42.1700 S   0  0  0  0  0  0  0  0  0  0  0  0
   38.8080   28.5360   42.5380 C   0  0  0  0  0  0  0  0  0  0  0  0
   38.8000   29.5550   42.0910 N   0  0  0  0  0  0  0  0  0  0  0  0
   39.2420   32.3970   41.2050 C   0  0  0  0  0  0  0  0  0  0  0  0
   38.1100   31.6680   40.9350 C   0  0  0  0  0  0  0  0  0  0  0  0
   37.1020   32.2310   40.1390 C   0  0  0  0  0  0  0  0  0  0  0  0
   37.3340   33.4910   39.6830 N   0  0  0  0  0  0  0  0  0  0  0  0
   38.4630   34.1860   39.9670 C   0  0  0  0  0  0  0  0  0  0  0  0
   39.3970   33.6330   40.7200 N   0  0  0  0  0  0  0  0  0  0  0  0
   39.8080   27.6990   43.2410 C   0  0  0  0  0  0  0  0  0  0  0  0
   39.5350   26.4210   43.5870 N   0  0  0  0  0  0  0  0  0  0  0  0
   40.5790   25.9140   44.1910 O   0  0  0  0  0  0  0  0  0  0  0  0
   41.4970   26.8690   44.2210 C   0  0  0  0  0  0  0  0  0  0  0  0
   41.0570   28.0170   43.6330 N   0  0  0  0  0  0  0  0  0  0  0  0
   43.1580   26.8280   44.9060 S   0  0  0  0  0  0  0  0  0  0  0  0
   43.2820   27.8950   46.3340 C   0  0  0  0  0  0  0  0  0  0  0  0
   43.9770   29.0760   46.1590 C   0  0  0  0  0  0  0  0  0  0  0  0
   44.0910   29.9310   47.2620 C   0  0  0  0  0  0  0  0  0  0  0  0
   43.5360   29.6040   48.4530 N   0  0  0  0  0  0  0  0  0  0  0  0
   42.8640   28.4450   48.5960 C   0  0  0  0  0  0  0  0  0  0  0  0
   42.7470   27.6240   47.5600 N   0  0  0  0  0  0  0  0  0  0  0  0
   35.7762   29.9756   40.8836 H   0  0  0  0  0  0  0  0  0  0  0  0
   40.0333   31.9572   41.8299 H   0  0  0  0  0  0  0  0  0  0  0  0
   36.1778   31.6854   39.8976 H   0  0  0  0  0  0  0  0  0  0  0  0
   38.6004   35.2038   39.5729 H   0  0  0  0  0  0  0  0  0  0  0  0
   44.4247   29.3353   45.1883 H   0  0  0  0  0  0  0  0  0  0  0  0
   44.6381   30.8798   47.1597 H   0  0  0  0  0  0  0  0  0  0  0  0
   42.4153   28.1811   49.5650 H   0  0  0  0  0  0  0  0  0  0  0  0
  1  5  1  0
  2  1  2  0
  2  3  1  0
  3  4  1  0
  4 12  1  0
  5  4  2  0
  7  6  2  0
  7  1  1  0
  8  7  1  0
  9 10  1  0
  9  8  2  0
 10 11  2  0
 11  6  1  0
 12 13  2  0
 12 16  1  0
 13 14  1  0
 14 15  1  0
 15 17  1  0
 16 15  2  0
 17 18  1  0
 18 23  1  0
 19 18  2  0
 19 20  1  0
 20 21  2  0
 21 22  1  0
 23 22  2  0
  2 24  1  0
  6 25  1  0
  8 26  1  0
 10 27  1  0
 19 28  1  0
 20 29  1  0
 22 30  1  0
M  ISO  7  24  14  25  14  26  14  27  14  28  14  29  14  30  14
M  END
>  <minimizedAffinity>  (1) 
-5.81579351

>  <minimizedRMSD>  (1) 
0.738927901

$$$$
