
     RDKit          3D

 31 33  0  0  0  0  0  0  0  0999 V2000
   38.2900   32.3230   40.6070 C   0  0  0  0  0  0  0  0  0  0  0  0
   36.9790   32.2700   40.0800 C   0  0  0  0  0  0  0  0  0  0  0  0
   36.3240   30.6740   40.7490 S   0  0  0  0  0  0  0  0  0  0  0  0
   37.9610   30.3650   41.6310 C   0  0  0  0  0  0  0  0  0  0  0  0
   38.5570   31.2730   41.3440 N   0  0  0  0  0  0  0  0  0  0  0  0
   40.5080   33.2600   39.9720 C   0  0  0  0  0  0  0  0  0  0  0  0
   39.1720   33.4660   40.3020 C   0  0  0  0  0  0  0  0  0  0  0  0
   38.6830   34.7730   40.3400 C   0  0  0  0  0  0  0  0  0  0  0  0
   39.5310   35.7850   40.0520 N   0  0  0  0  0  0  0  0  0  0  0  0
   40.8450   35.5430   39.7290 C   0  0  0  0  0  0  0  0  0  0  0  0
   41.2830   34.3010   39.7010 N   0  0  0  0  0  0  0  0  0  0  0  0
   38.2620   29.1750   42.4680 C   0  0  0  0  0  0  0  0  0  0  0  0
   37.4000   28.7640   43.4180 N   0  0  0  0  0  0  0  0  0  0  0  0
   37.8850   27.7110   44.0080 O   0  0  0  0  0  0  0  0  0  0  0  0
   39.0540   27.4600   43.4270 C   0  0  0  0  0  0  0  0  0  0  0  0
   39.3430   28.3580   42.4430 N   0  0  0  0  0  0  0  0  0  0  0  0
   40.2420   26.1540   43.7580 S   0  0  0  0  0  0  0  0  0  0  0  0
   40.1430   24.8430   42.5240 C   0  0  0  0  0  0  0  0  0  0  0  0
   38.7150   24.3780   42.4360 C   0  0  0  0  0  0  0  0  0  0  0  0
   40.7580   25.1880   41.2090 C   0  0  0  0  0  0  0  0  0  0  0  0
   36.4723   32.9993   39.4309 H   0  0  0  0  0  0  0  0  0  0  0  0
   40.9185   32.2401   39.9362 H   0  0  0  0  0  0  0  0  0  0  0  0
   37.6328   34.9742   40.5981 H   0  0  0  0  0  0  0  0  0  0  0  0
   41.5232   36.3772   39.4965 H   0  0  0  0  0  0  0  0  0  0  0  0
   40.7684   24.0009   42.8553 H   0  0  0  0  0  0  0  0  0  0  0  0
   38.3093   24.2459   43.4499 H   0  0  0  0  0  0  0  0  0  0  0  0
   38.1177   25.1281   41.8969 H   0  0  0  0  0  0  0  0  0  0  0  0
   38.6739   23.4200   41.8969 H   0  0  0  0  0  0  0  0  0  0  0  0
   41.7062   25.7199   41.3760 H   0  0  0  0  0  0  0  0  0  0  0  0
   40.9500   24.2659   40.6408 H   0  0  0  0  0  0  0  0  0  0  0  0
   40.0711   25.8325   40.6408 H   0  0  0  0  0  0  0  0  0  0  0  0
  1  5  1  0
  2  1  2  0
  2  3  1  0
  3  4  1  0
  4 12  1  0
  5  4  2  0
  6  7  2  0
  7  8  1  0
  7  1  1  0
  9  8  2  0
 10  9  1  0
 11 10  2  0
 11  6  1  0
 12 13  2  0
 13 14  1  0
 15 17  1  0
 15 14  1  0
 16 12  1  0
 16 15  2  0
 18 17  1  0
 19 18  1  0
 20 18  1  0
  2 21  1  0
  6 22  1  0
  8 23  1  0
 10 24  1  0
 18 25  1  0
 19 26  1  0
 19 27  1  0
 19 28  1  0
 20 29  1  0
 20 30  1  0
 20 31  1  0
M  ISO  8  21  14  22  14  23  14  24  14  25   8  26   8  27   8  28   8
M  ISO  3  29   8  30   8  31   8
M  END
>  <minimizedAffinity>  (1) 
-5.33496571

>  <minimizedRMSD>  (1) 
2.79327965

$$$$
