
     RDKit          3D

 47 50  0  0  1  0  0  0  0  0999 V2000
   39.3390   28.1850   42.2700 C   0  0  2  0  0  0  0  0  0  0  0  0
   40.5420   27.2170   42.1610 C   0  0  2  0  0  0  0  0  0  0  0  0
   40.1440   25.8120   41.9350 C   0  0  0  0  0  0  0  0  0  0  0  0
   40.7970   24.9230   42.9600 C   0  0  0  0  0  0  0  0  0  0  0  0
   41.7920   25.7840   43.6690 C   0  0  0  0  0  0  0  0  0  0  0  0
   41.2200   27.2030   43.4860 C   0  0  1  0  0  0  0  0  0  0  0  0
   42.2830   28.2040   43.6360 C   0  0  0  0  0  0  0  0  0  0  0  0
   43.2630   28.2140   44.7430 C   0  0  0  0  0  0  0  0  0  0  0  0
   43.7200   27.8330   43.3340 C   0  0  0  0  0  0  0  0  0  0  0  0
   38.1640   27.4650   42.6940 N   0  0  0  0  0  0  0  0  0  0  0  0
   37.1660   28.0700   43.4990 C   0  0  0  0  0  0  0  0  0  0  0  0
   37.3850   29.2650   43.9370 N   0  0  0  0  0  0  0  0  0  0  0  0
   35.9810   27.4010   43.8100 N   0  0  0  0  0  0  0  0  0  0  0  0
   36.6780   29.7510   44.5290 H   0  0  0  0  0  0  0  0  0  0  0  0
   38.5280   29.1790   38.8920 C   0  0  0  0  0  0  0  0  0  0  0  0
   39.2610   30.2970   39.3440 C   0  0  0  0  0  0  0  0  0  0  0  0
   39.5930   29.9690   40.6260 C   0  0  0  0  0  0  0  0  0  0  0  0
   39.1090   28.7530   40.9470 N   0  0  0  0  0  0  0  0  0  0  0  0
   38.4700   28.2900   39.8910 N   0  0  0  0  0  0  0  0  0  0  0  0
   38.1330   27.9890   36.7290 C   0  0  0  0  0  0  0  0  0  0  0  0
   37.9540   29.0510   37.5660 C   0  0  0  0  0  0  0  0  0  0  0  0
   37.1660   30.0980   37.1160 C   0  0  0  0  0  0  0  0  0  0  0  0
   36.5930   30.0560   35.8750 N   0  0  0  0  0  0  0  0  0  0  0  0
   36.8180   28.9480   35.0820 C   0  0  0  0  0  0  0  0  0  0  0  0
   37.6000   27.9090   35.5300 N   0  0  0  0  0  0  0  0  0  0  0  0
   39.5493   28.9756   43.0053 H   0  0  0  0  0  0  0  0  0  0  0  0
   41.1580   27.5661   41.3192 H   0  0  0  0  0  0  0  0  0  0  0  0
   39.0508   25.7245   42.0198 H   0  0  0  0  0  0  0  0  0  0  0  0
   40.4651   25.5020   40.9296 H   0  0  0  0  0  0  0  0  0  0  0  0
   40.0476   24.5402   43.6685 H   0  0  0  0  0  0  0  0  0  0  0  0
   41.2762   24.0499   42.4931 H   0  0  0  0  0  0  0  0  0  0  0  0
   41.8557   25.5184   44.7345 H   0  0  0  0  0  0  0  0  0  0  0  0
   42.8141   25.6761   43.2769 H   0  0  0  0  0  0  0  0  0  0  0  0
   40.4821   27.4677   44.2577 H   0  0  0  0  0  0  0  0  0  0  0  0
   41.5622   28.9514   43.2728 H   0  0  0  0  0  0  0  0  0  0  0  0
   43.5829   29.1696   45.1841 H   0  0  0  0  0  0  0  0  0  0  0  0
   43.3201   27.7363   45.7322 H   0  0  0  0  0  0  0  0  0  0  0  0
   43.9871   26.7920   43.0995 H   0  0  0  0  0  0  0  0  0  0  0  0
   44.4943   28.1815   42.6347 H   0  0  0  0  0  0  0  0  0  0  0  0
   38.0464   26.4837   42.4040 H   0  0  0  0  0  0  0  0  0  0  0  0
   35.2694   27.8596   44.3967 H   0  0  0  0  0  0  0  0  0  0  0  0
   35.8182   26.4487   43.4528 H   0  0  0  0  0  0  0  0  0  0  0  0
   39.5068   31.2165   38.7925 H   0  0  0  0  0  0  0  0  0  0  0  0
   40.1758   30.6093   41.3045 H   0  0  0  0  0  0  0  0  0  0  0  0
   38.7580   27.1532   37.0765 H   0  0  0  0  0  0  0  0  0  0  0  0
   36.9996   30.9717   37.7633 H   0  0  0  0  0  0  0  0  0  0  0  0
   36.3665   28.8958   34.0803 H   0  0  0  0  0  0  0  0  0  0  0  0
  1 10  1  0
  2  1  1  0
  2  6  1  0
  3  2  1  0
  3  4  1  0
  4  5  1  0
  6  7  1  0
  6  5  1  0
  7  8  1  0
  9  7  1  0
  9  8  1  0
 10 11  1  0
 11 13  1  0
 11 12  2  0
 12 14  1  0
 15 16  1  0
 15 19  2  0
 16 17  2  0
 17 18  1  0
 18  1  1  0
 19 18  1  0
 20 21  2  0
 21 15  1  0
 22 21  1  0
 23 22  2  0
 24 25  2  0
 24 23  1  0
 25 20  1  0
  1 26  1  1
  2 27  1  6
  3 28  1  0
  3 29  1  0
  4 30  1  0
  4 31  1  0
  5 32  1  0
  5 33  1  0
  6 34  1  1
  7 35  1  0
  8 36  1  0
  8 37  1  0
  9 38  1  0
  9 39  1  0
 10 40  1  0
 13 41  1  0
 13 42  1  0
 16 43  1  0
 17 44  1  0
 20 45  1  0
 22 46  1  0
 24 47  1  0
M  ISO  8  26   8  27  13  28  13  29  13  30  13  31  13  32  13  33  13
M  ISO  8  34  13  35  13  36  13  37  13  38  13  39  13  43  14  44  14
M  ISO  3  45  14  46  14  47  14
M  END
>  <minimizedAffinity>  (1) 
-4.9937129

>  <minimizedRMSD>  (1) 
0.255388409

$$$$
