
     RDKit          3D

 49 51  0  0  1  0  0  0  0  0999 V2000
   39.2680   28.1840   42.3030 C   0  0  2  0  0  0  0  0  0  0  0  0
   40.4620   27.2400   42.2130 C   0  0  2  0  0  0  0  0  0  0  0  0
   40.1270   25.8450   41.9950 C   0  0  0  0  0  0  0  0  0  0  0  0
   40.7920   24.9850   43.0490 C   0  0  0  0  0  0  0  0  0  0  0  0
   41.7650   25.8970   43.7590 C   0  0  0  0  0  0  0  0  0  0  0  0
   41.1540   27.2510   43.5640 C   0  0  1  0  0  0  0  0  0  0  0  0
   42.2280   28.3170   43.4920 C   0  0  0  0  0  0  0  0  0  0  0  0
   43.2060   28.2020   44.6380 C   0  0  0  0  0  0  0  0  0  0  0  0
   42.9450   28.3660   42.1780 C   0  0  0  0  0  0  0  0  0  0  0  0
   38.0920   27.4670   42.6940 N   0  0  0  0  0  0  0  0  0  0  0  0
   37.1180   28.0430   43.5430 C   0  0  0  0  0  0  0  0  0  0  0  0
   37.3520   29.2130   44.0400 N   0  0  0  0  0  0  0  0  0  0  0  0
   35.9330   27.3620   43.8330 N   0  0  0  0  0  0  0  0  0  0  0  0
   36.6540   29.6790   44.6550 H   0  0  0  0  0  0  0  0  0  0  0  0
   38.5220   29.1960   38.9100 C   0  0  0  0  0  0  0  0  0  0  0  0
   39.2860   30.2880   39.3480 C   0  0  0  0  0  0  0  0  0  0  0  0
   39.6080   29.9720   40.6380 C   0  0  0  0  0  0  0  0  0  0  0  0
   39.0750   28.7630   40.9720 N   0  0  0  0  0  0  0  0  0  0  0  0
   38.4250   28.3140   39.9160 N   0  0  0  0  0  0  0  0  0  0  0  0
   38.1320   28.0010   36.7350 C   0  0  0  0  0  0  0  0  0  0  0  0
   37.9490   29.0780   37.5820 C   0  0  0  0  0  0  0  0  0  0  0  0
   37.1630   30.1100   37.1260 C   0  0  0  0  0  0  0  0  0  0  0  0
   36.5890   30.0750   35.8880 N   0  0  0  0  0  0  0  0  0  0  0  0
   36.8170   28.9540   35.0860 C   0  0  0  0  0  0  0  0  0  0  0  0
   37.6020   27.9160   35.5330 N   0  0  0  0  0  0  0  0  0  0  0  0
   39.4518   28.9667   43.0538 H   0  0  0  0  0  0  0  0  0  0  0  0
   41.0578   27.5976   41.3602 H   0  0  0  0  0  0  0  0  0  0  0  0
   39.0360   25.7180   42.0556 H   0  0  0  0  0  0  0  0  0  0  0  0
   40.4821   25.5383   41.0001 H   0  0  0  0  0  0  0  0  0  0  0  0
   40.0442   24.5959   43.7556 H   0  0  0  0  0  0  0  0  0  0  0  0
   41.2977   24.1144   42.6059 H   0  0  0  0  0  0  0  0  0  0  0  0
   41.8369   25.6449   44.8273 H   0  0  0  0  0  0  0  0  0  0  0  0
   42.7922   25.8231   43.3726 H   0  0  0  0  0  0  0  0  0  0  0  0
   40.4706   27.4654   44.3989 H   0  0  0  0  0  0  0  0  0  0  0  0
   41.6937   29.2741   43.5834 H   0  0  0  0  0  0  0  0  0  0  0  0
   42.6621   28.2660   45.5920 H   0  0  0  0  0  0  0  0  0  0  0  0
   43.7290   27.2362   44.5782 H   0  0  0  0  0  0  0  0  0  0  0  0
   43.9388   29.0202   44.5782 H   0  0  0  0  0  0  0  0  0  0  0  0
   44.0283   28.4400   42.3540 H   0  0  0  0  0  0  0  0  0  0  0  0
   42.7279   27.4509   41.6075 H   0  0  0  0  0  0  0  0  0  0  0  0
   42.6054   29.2430   41.6075 H   0  0  0  0  0  0  0  0  0  0  0  0
   37.9515   26.5070   42.3482 H   0  0  0  0  0  0  0  0  0  0  0  0
   35.2308   27.7911   44.4525 H   0  0  0  0  0  0  0  0  0  0  0  0
   35.7616   26.4309   43.4273 H   0  0  0  0  0  0  0  0  0  0  0  0
   39.5622   31.1906   38.7832 H   0  0  0  0  0  0  0  0  0  0  0  0
   40.2100   30.6020   41.3093 H   0  0  0  0  0  0  0  0  0  0  0  0
   38.7569   27.1664   37.0858 H   0  0  0  0  0  0  0  0  0  0  0  0
   36.9930   30.9831   37.7732 H   0  0  0  0  0  0  0  0  0  0  0  0
   36.3636   28.9005   34.0852 H   0  0  0  0  0  0  0  0  0  0  0  0
  1 10  1  0
  2  1  1  0
  2  6  1  0
  3  2  1  0
  3  4  1  0
  4  5  1  0
  6  5  1  0
  7  6  1  0
  7  8  1  0
  9  7  1  0
 10 11  1  0
 11 13  1  0
 11 12  2  0
 12 14  1  0
 15 16  1  0
 15 19  2  0
 16 17  2  0
 17 18  1  0
 18  1  1  0
 19 18  1  0
 20 21  2  0
 21 15  1  0
 22 21  1  0
 23 22  2  0
 24 25  2  0
 24 23  1  0
 25 20  1  0
  1 26  1  1
  2 27  1  6
  3 28  1  0
  3 29  1  0
  4 30  1  0
  4 31  1  0
  5 32  1  0
  5 33  1  0
  6 34  1  1
  7 35  1  0
  8 36  1  0
  8 37  1  0
  8 38  1  0
  9 39  1  0
  9 40  1  0
  9 41  1  0
 10 42  1  0
 13 43  1  0
 13 44  1  0
 16 45  1  0
 17 46  1  0
 20 47  1  0
 22 48  1  0
 24 49  1  0
M  ISO  8  26   8  27  13  28  13  29  13  30  13  31  13  32  13  33  13
M  ISO  8  34  13  35   8  36   8  37   8  38   8  39   8  40   8  41   8
M  ISO  5  45  14  46  14  47  14  48  14  49  14
M  END
>  <minimizedAffinity>  (1) 
-4.97653055

>  <minimizedRMSD>  (1) 
0.322592437

$$$$
