
     RDKit          3D

 42 47  0  0  1  0  0  0  0  0999 V2000
   39.2110   27.8840   42.9740 C   0  0  0  0  0  0  0  0  0  0  0  0
   38.7350   26.7300   43.4960 N   0  0  0  0  0  0  0  0  0  0  0  0
   39.7060   26.1170   44.1100 O   0  0  0  0  0  0  0  0  0  0  0  0
   40.7910   26.8900   43.9720 C   0  0  0  0  0  0  0  0  0  0  0  0
   40.5200   28.0200   43.2590 N   0  0  0  0  0  0  0  0  0  0  0  0
   37.6530   30.6540   41.1700 C   0  0  0  0  0  0  0  0  0  0  0  0
   36.4080   30.0370   40.8710 C   0  0  0  0  0  0  0  0  0  0  0  0
   36.5770   28.3610   41.6210 S   0  0  0  0  0  0  0  0  0  0  0  0
   38.3220   28.7890   42.2170 C   0  0  0  0  0  0  0  0  0  0  0  0
   38.3990   29.8310   41.8290 N   0  0  0  0  0  0  0  0  0  0  0  0
   39.0360   32.6820   41.1370 C   0  0  0  0  0  0  0  0  0  0  0  0
   37.9020   32.0230   40.7270 C   0  0  0  0  0  0  0  0  0  0  0  0
   36.9960   32.6890   39.8820 C   0  0  0  0  0  0  0  0  0  0  0  0
   37.3000   33.9600   39.5170 N   0  0  0  0  0  0  0  0  0  0  0  0
   38.4440   34.5810   39.9490 C   0  0  0  0  0  0  0  0  0  0  0  0
   39.2930   33.9310   40.7530 N   0  0  0  0  0  0  0  0  0  0  0  0
   42.4720   26.6370   44.5790 S   0  0  0  0  0  0  0  0  0  0  0  0
   43.2860   25.6010   43.3140 C   0  0  2  0  0  0  0  0  0  0  0  0
   44.7640   25.6660   43.1940 C   0  0  0  0  0  0  0  0  0  0  0  0
   43.8080   26.2130   42.0970 C   0  0  1  0  0  0  0  0  0  0  0  0
   43.8250   25.4450   40.8660 N   0  0  0  0  0  0  0  0  0  0  0  0
   44.9380   25.0290   40.2330 C   0  0  0  0  0  0  0  0  0  0  0  0
   44.5810   24.3430   39.1210 N   0  0  0  0  0  0  0  0  0  0  0  0
   43.2400   24.3520   39.0920 C   0  0  0  0  0  0  0  0  0  0  0  0
   42.3000   23.8270   38.2220 C   0  0  0  0  0  0  0  0  0  0  0  0
   40.9930   24.0250   38.4970 N   0  0  0  0  0  0  0  0  0  0  0  0
   40.5610   24.7060   39.5760 C   0  0  0  0  0  0  0  0  0  0  0  0
   41.4390   25.2340   40.4500 N   0  0  0  0  0  0  0  0  0  0  0  0
   42.7410   25.0440   40.1860 C   0  0  0  0  0  0  0  0  0  0  0  0
   42.6920   23.0990   37.0660 N   0  0  0  0  0  0  0  0  0  0  0  0
   35.5510   30.4575   40.3244 H   0  0  0  0  0  0  0  0  0  0  0  0
   39.7480   32.1658   41.7978 H   0  0  0  0  0  0  0  0  0  0  0  0
   36.0764   32.1983   39.5306 H   0  0  0  0  0  0  0  0  0  0  0  0
   38.6632   35.6121   39.6348 H   0  0  0  0  0  0  0  0  0  0  0  0
   42.5682   24.7863   43.4899 H   0  0  0  0  0  0  0  0  0  0  0  0
   45.3443   26.3574   43.8227 H   0  0  0  0  0  0  0  0  0  0  0  0
   45.5955   24.9470   43.2349 H   0  0  0  0  0  0  0  0  0  0  0  0
   43.6105   27.1685   41.5890 H   0  0  0  0  0  0  0  0  0  0  0  0
   45.9699   25.2159   40.5650 H   0  0  0  0  0  0  0  0  0  0  0  0
   39.4813   24.8319   39.7447 H   0  0  0  0  0  0  0  0  0  0  0  0
   43.6913   22.9527   36.8638 H   0  0  0  0  0  0  0  0  0  0  0  0
   41.9768   22.7177   36.4304 H   0  0  0  0  0  0  0  0  0  0  0  0
  1  5  1  0
  1  2  2  0
  2  3  1  0
  4  3  1  0
  4 17  1  0
  5  4  2  0
  6 10  1  0
  7  6  2  0
  7  8  1  0
  8  9  1  0
  9  1  1  0
 10  9  2  0
 12 11  2  0
 12  6  1  0
 13 12  1  0
 14 13  2  0
 14 15  1  0
 15 16  2  0
 16 11  1  0
 18 17  1  0
 19 18  1  0
 20 19  1  0
 20 18  1  0
 21 20  1  0
 22 21  1  0
 23 22  2  0
 24 23  1  0
 24 29  2  0
 25 26  2  0
 25 24  1  0
 26 27  1  0
 27 28  2  0
 29 28  1  0
 29 21  1  0
 30 25  1  0
  7 31  1  0
 11 32  1  0
 13 33  1  0
 15 34  1  0
 18 35  1  6
 19 36  1  0
 19 37  1  0
 20 38  1  6
 22 39  1  0
 27 40  1  0
 30 41  1  0
 30 42  1  0
M  ISO  8  31  14  32  14  33  14  34  14  35  13  36  13  37  13  38  13
M  ISO  2  39  14  40  14
M  END
>  <minimizedAffinity>  (1) 
-5.29416752

>  <minimizedRMSD>  (1) 
0.509838521

$$$$
