
     RDKit          3D

 38 42  0  0  1  0  0  0  0  0999 V2000
   39.2210   27.8850   42.9700 C   0  0  0  0  0  0  0  0  0  0  0  0
   38.7590   26.7110   43.4560 N   0  0  0  0  0  0  0  0  0  0  0  0
   39.7240   26.1020   44.0800 O   0  0  0  0  0  0  0  0  0  0  0  0
   40.8000   26.9040   43.9820 C   0  0  0  0  0  0  0  0  0  0  0  0
   40.5090   28.0330   43.2890 N   0  0  0  0  0  0  0  0  0  0  0  0
   37.6550   30.6520   41.1690 C   0  0  0  0  0  0  0  0  0  0  0  0
   36.4110   30.0290   40.8680 C   0  0  0  0  0  0  0  0  0  0  0  0
   36.5830   28.3500   41.6170 S   0  0  0  0  0  0  0  0  0  0  0  0
   38.3220   28.7850   42.2120 C   0  0  0  0  0  0  0  0  0  0  0  0
   38.3860   29.8250   41.8230 N   0  0  0  0  0  0  0  0  0  0  0  0
   39.0510   32.6850   41.1440 C   0  0  0  0  0  0  0  0  0  0  0  0
   37.9220   32.0310   40.7330 C   0  0  0  0  0  0  0  0  0  0  0  0
   36.9900   32.6790   39.8800 C   0  0  0  0  0  0  0  0  0  0  0  0
   37.2980   33.9560   39.5140 N   0  0  0  0  0  0  0  0  0  0  0  0
   38.4380   34.5690   39.9490 C   0  0  0  0  0  0  0  0  0  0  0  0
   39.2840   33.9350   40.7440 N   0  0  0  0  0  0  0  0  0  0  0  0
   42.4640   26.6620   44.6250 S   0  0  0  0  0  0  0  0  0  0  0  0
   43.2840   25.5600   43.4290 C   0  0  2  0  0  0  0  0  0  0  0  0
   44.7660   25.4470   43.4220 C   0  0  0  0  0  0  0  0  0  0  0  0
   44.0180   26.1620   42.2950 C   0  0  1  0  0  0  0  0  0  0  0  0
   43.8590   25.5220   40.9840 C   0  0  0  0  0  0  0  0  0  0  0  0
   42.5980   25.2300   40.4900 C   0  0  0  0  0  0  0  0  0  0  0  0
   42.4410   24.6290   39.2600 C   0  0  0  0  0  0  0  0  0  0  0  0
   43.5340   24.3000   38.4860 C   0  0  0  0  0  0  0  0  0  0  0  0
   44.7970   24.6010   39.0010 C   0  0  0  0  0  0  0  0  0  0  0  0
   44.9040   25.1890   40.2060 N   0  0  0  0  0  0  0  0  0  0  0  0
   35.5533   30.4473   40.3207 H   0  0  0  0  0  0  0  0  0  0  0  0
   39.7683   32.1781   41.8062 H   0  0  0  0  0  0  0  0  0  0  0  0
   36.0727   32.1798   39.5344 H   0  0  0  0  0  0  0  0  0  0  0  0
   38.6551   35.6007   39.6351 H   0  0  0  0  0  0  0  0  0  0  0  0
   42.4680   24.8278   43.5188 H   0  0  0  0  0  0  0  0  0  0  0  0
   45.3685   26.0235   44.1394 H   0  0  0  0  0  0  0  0  0  0  0  0
   45.4911   24.6221   43.4836 H   0  0  0  0  0  0  0  0  0  0  0  0
   44.1058   27.1561   41.8323 H   0  0  0  0  0  0  0  0  0  0  0  0
   41.7097   25.4815   41.0880 H   0  0  0  0  0  0  0  0  0  0  0  0
   41.4289   24.4084   38.8900 H   0  0  0  0  0  0  0  0  0  0  0  0
   43.4160   23.8202   37.5032 H   0  0  0  0  0  0  0  0  0  0  0  0
   45.7009   24.3580   38.4232 H   0  0  0  0  0  0  0  0  0  0  0  0
  1  5  1  0
  1  2  2  0
  2  3  1  0
  4  3  1  0
  4 17  1  0
  5  4  2  0
  6 10  1  0
  7  6  2  0
  7  8  1  0
  8  9  1  0
  9  1  1  0
 10  9  2  0
 12 11  2  0
 12  6  1  0
 13 12  1  0
 14 13  2  0
 14 15  1  0
 15 16  2  0
 16 11  1  0
 18 17  1  0
 19 18  1  0
 20 19  1  0
 20 18  1  0
 21 20  1  0
 22 21  2  0
 23 22  1  0
 24 25  1  0
 24 23  2  0
 25 26  2  0
 26 21  1  0
  7 27  1  0
 11 28  1  0
 13 29  1  0
 15 30  1  0
 18 31  1  6
 19 32  1  0
 19 33  1  0
 20 34  1  6
 22 35  1  0
 23 36  1  0
 24 37  1  0
 25 38  1  0
M  ISO  8  27  14  28  14  29  14  30  14  31  13  32  13  33  13  34  13
M  ISO  4  35  14  36  14  37  14  38  14
M  END
>  <minimizedAffinity>  (1) 
-5.03049994

>  <minimizedRMSD>  (1) 
0.217119053

$$$$
