
     RDKit          3D

 36 40  0  0  1  0  0  0  0  0999 V2000
   39.2070   27.8980   42.9750 C   0  0  0  0  0  0  0  0  0  0  0  0
   38.7430   26.7420   43.4900 N   0  0  0  0  0  0  0  0  0  0  0  0
   39.7020   26.1250   44.1100 O   0  0  0  0  0  0  0  0  0  0  0  0
   40.7850   26.9090   43.9810 C   0  0  0  0  0  0  0  0  0  0  0  0
   40.5100   28.0340   43.2710 N   0  0  0  0  0  0  0  0  0  0  0  0
   37.6520   30.6640   41.1660 C   0  0  0  0  0  0  0  0  0  0  0  0
   36.4070   30.0390   40.8590 C   0  0  0  0  0  0  0  0  0  0  0  0
   36.5840   28.3570   41.6160 S   0  0  0  0  0  0  0  0  0  0  0  0
   38.3190   28.8000   42.2140 C   0  0  0  0  0  0  0  0  0  0  0  0
   38.3920   29.8480   41.8250 N   0  0  0  0  0  0  0  0  0  0  0  0
   39.0340   32.6930   41.1370 C   0  0  0  0  0  0  0  0  0  0  0  0
   37.9090   32.0350   40.7280 C   0  0  0  0  0  0  0  0  0  0  0  0
   36.9860   32.6940   39.8730 C   0  0  0  0  0  0  0  0  0  0  0  0
   37.3110   33.9680   39.5210 N   0  0  0  0  0  0  0  0  0  0  0  0
   38.4480   34.5870   39.9540 C   0  0  0  0  0  0  0  0  0  0  0  0
   39.2920   33.9490   40.7500 N   0  0  0  0  0  0  0  0  0  0  0  0
   42.4780   26.6710   44.6000 S   0  0  0  0  0  0  0  0  0  0  0  0
   43.2680   25.5530   43.4110 C   0  0  2  0  0  0  0  0  0  0  0  0
   44.7360   25.4660   43.2950 C   0  0  0  0  0  0  0  0  0  0  0  0
   43.8800   26.1160   42.1850 C   0  0  1  0  0  0  0  0  0  0  0  0
   43.7480   25.3460   40.9300 C   0  0  0  0  0  0  0  0  0  0  0  0
   42.5620   25.1080   40.2330 C   0  0  0  0  0  0  0  0  0  0  0  0
   42.9270   24.3700   39.1650 N   0  0  0  0  0  0  0  0  0  0  0  0
   44.2680   24.1740   39.2190 C   0  0  0  0  0  0  0  0  0  0  0  0
   44.7940   24.7800   40.3200 N   0  0  0  0  0  0  0  0  0  0  0  0
   35.5507   30.4543   40.3074 H   0  0  0  0  0  0  0  0  0  0  0  0
   39.7452   32.1789   41.8002 H   0  0  0  0  0  0  0  0  0  0  0  0
   36.0666   32.2056   39.5177 H   0  0  0  0  0  0  0  0  0  0  0  0
   38.6637   35.6191   39.6406 H   0  0  0  0  0  0  0  0  0  0  0  0
   42.4894   24.8023   43.6115 H   0  0  0  0  0  0  0  0  0  0  0  0
   45.3797   26.0886   43.9338 H   0  0  0  0  0  0  0  0  0  0  0  0
   45.4810   24.6579   43.3406 H   0  0  0  0  0  0  0  0  0  0  0  0
   43.8420   27.0884   41.6721 H   0  0  0  0  0  0  0  0  0  0  0  0
   41.5500   25.4484   40.4975 H   0  0  0  0  0  0  0  0  0  0  0  0
   44.8492   23.6056   38.4780 H   0  0  0  0  0  0  0  0  0  0  0  0
   45.7801   24.7980   40.6168 H   0  0  0  0  0  0  0  0  0  0  0  0
  1  5  1  0
  1  2  2  0
  2  3  1  0
  4  3  1  0
  4 17  1  0
  5  4  2  0
  6 10  1  0
  7  6  2  0
  7  8  1  0
  8  9  1  0
  9  1  1  0
 10  9  2  0
 12 11  2  0
 12  6  1  0
 13 12  1  0
 14 13  2  0
 14 15  1  0
 15 16  2  0
 16 11  1  0
 18 17  1  0
 19 18  1  0
 20 19  1  0
 20 18  1  0
 21 20  1  0
 22 21  2  0
 23 24  2  0
 23 22  1  0
 24 25  1  0
 25 21  1  0
  7 26  1  0
 11 27  1  0
 13 28  1  0
 15 29  1  0
 18 30  1  6
 19 31  1  0
 19 32  1  0
 20 33  1  6
 22 34  1  0
 24 35  1  0
 25 36  1  0
M  ISO  8  26  14  27  14  28  14  29  14  30  13  31  13  32  13  33  13
M  ISO  3  34  14  35  14  36   9
M  END
>  <minimizedAffinity>  (1) 
-5.01435804

>  <minimizedRMSD>  (1) 
0.156642705

$$$$
