
     RDKit          3D

 36 40  0  0  1  0  0  0  0  0999 V2000
   39.2040   27.8100   42.9110 C   0  0  0  0  0  0  0  0  0  0  0  0
   38.8380   26.5420   43.1620 N   0  0  0  0  0  0  0  0  0  0  0  0
   39.7830   25.9480   43.8260 O   0  0  0  0  0  0  0  0  0  0  0  0
   40.7520   26.8550   43.9930 C   0  0  0  0  0  0  0  0  0  0  0  0
   40.4270   28.0460   43.4300 N   0  0  0  0  0  0  0  0  0  0  0  0
   37.6460   30.6030   41.1420 C   0  0  0  0  0  0  0  0  0  0  0  0
   36.3970   29.9890   40.8360 C   0  0  0  0  0  0  0  0  0  0  0  0
   36.5830   28.3020   41.5740 S   0  0  0  0  0  0  0  0  0  0  0  0
   38.3230   28.7320   42.1670 C   0  0  0  0  0  0  0  0  0  0  0  0
   38.3870   29.7790   41.7870 N   0  0  0  0  0  0  0  0  0  0  0  0
   39.0460   32.6320   41.1310 C   0  0  0  0  0  0  0  0  0  0  0  0
   37.9180   31.9830   40.7230 C   0  0  0  0  0  0  0  0  0  0  0  0
   37.0050   32.6590   39.8880 C   0  0  0  0  0  0  0  0  0  0  0  0
   37.3160   33.9370   39.5350 N   0  0  0  0  0  0  0  0  0  0  0  0
   38.4600   34.5440   39.9690 C   0  0  0  0  0  0  0  0  0  0  0  0
   39.3130   33.8830   40.7630 N   0  0  0  0  0  0  0  0  0  0  0  0
   42.3480   26.6980   44.8280 S   0  0  0  0  0  0  0  0  0  0  0  0
   43.6050   26.9270   43.5370 C   0  0  2  0  0  0  0  0  0  0  0  0
   44.7050   25.9630   43.3920 C   0  0  0  0  0  0  0  0  0  0  0  0
   44.9330   27.4370   43.8670 C   0  0  2  0  0  0  0  0  0  0  0  0
   45.3970   27.5750   45.2330 N   0  0  0  0  0  0  0  0  0  0  0  0
   45.1980   28.6830   45.9210 N   0  0  0  0  0  0  0  0  0  0  0  0
   45.7200   28.5570   47.1540 C   0  0  0  0  0  0  0  0  0  0  0  0
   46.2820   27.2890   47.2510 C   0  0  0  0  0  0  0  0  0  0  0  0
   46.0570   26.6960   46.0100 C   0  0  0  0  0  0  0  0  0  0  0  0
   35.5371   30.4121   40.2960 H   0  0  0  0  0  0  0  0  0  0  0  0
   39.7571   32.1053   41.7844 H   0  0  0  0  0  0  0  0  0  0  0  0
   36.0816   32.1752   39.5369 H   0  0  0  0  0  0  0  0  0  0  0  0
   38.6815   35.5780   39.6659 H   0  0  0  0  0  0  0  0  0  0  0  0
   42.8181   27.2796   42.8541 H   0  0  0  0  0  0  0  0  0  0  0  0
   44.8101   25.1272   44.0994 H   0  0  0  0  0  0  0  0  0  0  0  0
   45.0945   25.3196   42.5893 H   0  0  0  0  0  0  0  0  0  0  0  0
   45.4855   28.3360   43.5564 H   0  0  0  0  0  0  0  0  0  0  0  0
   45.7050   29.3212   47.9451 H   0  0  0  0  0  0  0  0  0  0  0  0
   46.7937   26.8489   48.1196 H   0  0  0  0  0  0  0  0  0  0  0  0
   46.3661   25.6822   45.7156 H   0  0  0  0  0  0  0  0  0  0  0  0
  1  2  2  0
  1  5  1  0
  2  3  1  0
  3  4  1  0
  4 17  1  0
  5  4  2  0
  6 10  1  0
  7  6  2  0
  7  8  1  0
  8  9  1  0
  9  1  1  0
 10  9  2  0
 12 11  2  0
 12  6  1  0
 13 12  1  0
 14 13  2  0
 14 15  1  0
 15 16  2  0
 16 11  1  0
 18 20  1  0
 18 17  1  0
 19 18  1  0
 19 20  1  0
 20 21  1  0
 21 22  1  0
 21 25  1  0
 22 23  2  0
 23 24  1  0
 25 24  2  0
  7 26  1  0
 11 27  1  0
 13 28  1  0
 15 29  1  0
 18 30  1  6
 19 31  1  0
 19 32  1  0
 20 33  1  6
 23 34  1  0
 24 35  1  0
 25 36  1  0
M  ISO  8  26  14  27  14  28  14  29  14  30  13  31  13  32  13  33  13
M  ISO  3  34  14  35  14  36  14
M  END
>  <minimizedAffinity>  (1) 
-4.95521545

>  <minimizedRMSD>  (1) 
2.356426

$$$$
