
     RDKit          3D

 46 48  0  0  1  0  0  0  0  0999 V2000
   39.3000   28.1610   42.3000 C   0  0  2  0  0  0  0  0  0  0  0  0
   40.4810   27.2050   42.1960 C   0  0  2  0  0  0  0  0  0  0  0  0
   40.1350   25.8230   41.9130 C   0  0  0  0  0  0  0  0  0  0  0  0
   40.7600   24.9070   42.9460 C   0  0  0  0  0  0  0  0  0  0  0  0
   41.7470   25.7650   43.6890 C   0  0  0  0  0  0  0  0  0  0  0  0
   41.1470   27.1460   43.5610 C   0  0  1  0  0  0  0  0  0  0  0  0
   42.2440   28.1850   43.6130 C   0  0  0  0  0  0  0  0  0  0  0  0
   43.1410   27.9070   44.8050 C   0  0  0  0  0  0  0  0  0  0  0  0
   38.1210   27.4520   42.7040 N   0  0  0  0  0  0  0  0  0  0  0  0
   37.1380   28.0520   43.5260 C   0  0  0  0  0  0  0  0  0  0  0  0
   37.3660   29.2370   43.9900 N   0  0  0  0  0  0  0  0  0  0  0  0
   35.9520   27.3790   43.8270 N   0  0  0  0  0  0  0  0  0  0  0  0
   36.6600   29.7180   44.5820 H   0  0  0  0  0  0  0  0  0  0  0  0
   38.5260   29.1810   38.9150 C   0  0  0  0  0  0  0  0  0  0  0  0
   39.2840   30.2840   39.3590 C   0  0  0  0  0  0  0  0  0  0  0  0
   39.6110   29.9570   40.6470 C   0  0  0  0  0  0  0  0  0  0  0  0
   39.0940   28.7460   40.9730 N   0  0  0  0  0  0  0  0  0  0  0  0
   38.4410   28.2920   39.9150 N   0  0  0  0  0  0  0  0  0  0  0  0
   38.1340   27.9980   36.7430 C   0  0  0  0  0  0  0  0  0  0  0  0
   37.9510   29.0690   37.5890 C   0  0  0  0  0  0  0  0  0  0  0  0
   37.1640   30.1080   37.1370 C   0  0  0  0  0  0  0  0  0  0  0  0
   36.5890   30.0690   35.8970 N   0  0  0  0  0  0  0  0  0  0  0  0
   36.8170   28.9550   35.0960 C   0  0  0  0  0  0  0  0  0  0  0  0
   37.6020   27.9120   35.5390 N   0  0  0  0  0  0  0  0  0  0  0  0
   39.5025   28.9417   43.0480 H   0  0  0  0  0  0  0  0  0  0  0  0
   41.0965   27.5928   41.3709 H   0  0  0  0  0  0  0  0  0  0  0  0
   39.0413   25.7090   41.9401 H   0  0  0  0  0  0  0  0  0  0  0  0
   40.5151   25.5538   40.9165 H   0  0  0  0  0  0  0  0  0  0  0  0
   39.9927   24.5193   43.6323 H   0  0  0  0  0  0  0  0  0  0  0  0
   41.2419   24.0335   42.4827 H   0  0  0  0  0  0  0  0  0  0  0  0
   41.8222   25.4611   44.7435 H   0  0  0  0  0  0  0  0  0  0  0  0
   42.7712   25.6951   43.2939 H   0  0  0  0  0  0  0  0  0  0  0  0
   40.4325   27.3420   44.3741 H   0  0  0  0  0  0  0  0  0  0  0  0
   42.8374   28.1396   42.6879 H   0  0  0  0  0  0  0  0  0  0  0  0
   41.7993   29.1862   43.7117 H   0  0  0  0  0  0  0  0  0  0  0  0
   42.5796   28.0810   45.7348 H   0  0  0  0  0  0  0  0  0  0  0  0
   43.4809   26.8614   44.7721 H   0  0  0  0  0  0  0  0  0  0  0  0
   44.0127   28.5771   44.7721 H   0  0  0  0  0  0  0  0  0  0  0  0
   37.9862   26.4811   42.3877 H   0  0  0  0  0  0  0  0  0  0  0  0
   35.2439   27.8263   44.4266 H   0  0  0  0  0  0  0  0  0  0  0  0
   35.7853   26.4353   43.4494 H   0  0  0  0  0  0  0  0  0  0  0  0
   39.5501   31.1938   38.8010 H   0  0  0  0  0  0  0  0  0  0  0  0
   40.2085   30.5870   41.3223 H   0  0  0  0  0  0  0  0  0  0  0  0
   38.7612   27.1645   37.0920 H   0  0  0  0  0  0  0  0  0  0  0  0
   36.9964   30.9815   37.7842 H   0  0  0  0  0  0  0  0  0  0  0  0
   36.3644   28.9055   34.0946 H   0  0  0  0  0  0  0  0  0  0  0  0
  1  9  1  0
  2  1  1  0
  2  6  1  0
  3  2  1  0
  3  4  1  0
  4  5  1  0
  6  7  1  0
  6  5  1  0
  7  8  1  0
  9 10  1  0
 10 12  1  0
 10 11  2  0
 11 13  1  0
 14 15  1  0
 14 18  2  0
 15 16  2  0
 16 17  1  0
 17  1  1  0
 18 17  1  0
 19 20  2  0
 20 14  1  0
 21 20  1  0
 22 21  2  0
 23 24  2  0
 23 22  1  0
 24 19  1  0
  1 25  1  1
  2 26  1  6
  3 27  1  0
  3 28  1  0
  4 29  1  0
  4 30  1  0
  5 31  1  0
  5 32  1  0
  6 33  1  1
  7 34  1  0
  7 35  1  0
  8 36  1  0
  8 37  1  0
  8 38  1  0
  9 39  1  0
 12 40  1  0
 12 41  1  0
 15 42  1  0
 16 43  1  0
 19 44  1  0
 21 45  1  0
 23 46  1  0
M  ISO  8  25   8  26  13  27  13  28  13  29  13  30  13  31  13  32  13
M  ISO  8  33  13  34   8  35   8  36   8  37   8  38   8  42  14  43  14
M  ISO  3  44  14  45  14  46  14
M  END
>  <minimizedAffinity>  (1) 
-4.89694262

>  <minimizedRMSD>  (1) 
0.200382978

$$$$
