
     RDKit          3D

 30 33  0  0  1  0  0  0  0  0999 V2000
   37.6280   30.6610   41.1660 C   0  0  0  0  0  0  0  0  0  0  0  0
   36.4030   30.0320   40.8920 C   0  0  0  0  0  0  0  0  0  0  0  0
   36.5550   28.3590   41.6290 S   0  0  0  0  0  0  0  0  0  0  0  0
   38.3200   28.7900   42.2150 C   0  0  0  0  0  0  0  0  0  0  0  0
   38.3780   29.8340   41.8220 N   0  0  0  0  0  0  0  0  0  0  0  0
   39.0280   32.6890   41.1390 C   0  0  0  0  0  0  0  0  0  0  0  0
   37.8940   32.0280   40.7320 C   0  0  0  0  0  0  0  0  0  0  0  0
   36.9860   32.6880   39.8790 C   0  0  0  0  0  0  0  0  0  0  0  0
   37.2870   33.9610   39.5020 N   0  0  0  0  0  0  0  0  0  0  0  0
   38.4520   34.5660   39.9520 C   0  0  0  0  0  0  0  0  0  0  0  0
   39.2950   33.9340   40.7530 N   0  0  0  0  0  0  0  0  0  0  0  0
   39.2090   27.8840   42.9620 C   0  0  0  0  0  0  0  0  0  0  0  0
   38.7510   26.7100   43.4490 N   0  0  0  0  0  0  0  0  0  0  0  0
   39.7190   26.0980   44.0630 O   0  0  0  0  0  0  0  0  0  0  0  0
   40.7900   26.8940   43.9590 C   0  0  0  0  0  0  0  0  0  0  0  0
   40.5100   28.0360   43.2700 N   0  0  0  0  0  0  0  0  0  0  0  0
   42.4710   26.6570   44.5870 S   0  0  0  0  0  0  0  0  0  0  0  0
   43.2520   25.4810   43.4290 C   0  0  2  0  0  0  0  0  0  0  0  0
   44.6640   25.6460   43.0290 C   0  0  0  0  0  0  0  0  0  0  0  0
   43.4940   25.8830   42.0390 C   0  0  1  0  0  0  0  0  0  0  0  0
   43.3680   24.9020   41.0600 O   0  0  0  0  0  0  0  0  0  0  0  0
   35.5404   30.4509   40.3531 H   0  0  0  0  0  0  0  0  0  0  0  0
   39.7364   32.1732   41.8040 H   0  0  0  0  0  0  0  0  0  0  0  0
   36.0678   32.1924   39.5308 H   0  0  0  0  0  0  0  0  0  0  0  0
   38.6801   35.5946   39.6357 H   0  0  0  0  0  0  0  0  0  0  0  0
   42.6961   24.6554   43.8973 H   0  0  0  0  0  0  0  0  0  0  0  0
   45.2530   26.4948   43.4066 H   0  0  0  0  0  0  0  0  0  0  0  0
   45.5686   25.0204   43.0476 H   0  0  0  0  0  0  0  0  0  0  0  0
   43.1328   26.7024   41.4002 H   0  0  0  0  0  0  0  0  0  0  0  0
   43.2545   24.0181   41.4912 H   0  0  0  0  0  0  0  0  0  0  0  0
  1  5  1  0
  2  1  2  0
  2  3  1  0
  3  4  1  0
  4 12  1  0
  5  4  2  0
  7  6  2  0
  7  1  1  0
  8  7  1  0
  9  8  2  0
  9 10  1  0
 10 11  2  0
 11  6  1  0
 12 16  1  0
 12 13  2  0
 13 14  1  0
 15 14  1  0
 15 17  1  0
 16 15  2  0
 18 17  1  0
 19 18  1  0
 20 19  1  0
 20 18  1  0
 21 20  1  0
  2 22  1  0
  6 23  1  0
  8 24  1  0
 10 25  1  0
 18 26  1  6
 19 27  1  0
 19 28  1  0
 20 29  1  6
 21 30  1  0
M  ISO  8  22  14  23  14  24  14  25  14  26  13  27  13  28  13  29  13
M  ISO  1  30   3
M  END
>  <minimizedAffinity>  (1) 
-4.94553423

>  <minimizedRMSD>  (1) 
0.183256269

$$$$
