
     RDKit          3D

 45 49  0  0  1  0  0  0  0  0999 V2000
   39.1980   27.8650   42.9680 C   0  0  0  0  0  0  0  0  0  0  0  0
   38.7330   26.6860   43.4440 N   0  0  0  0  0  0  0  0  0  0  0  0
   39.7070   26.0770   44.0570 O   0  0  0  0  0  0  0  0  0  0  0  0
   40.7760   26.8710   43.9650 C   0  0  0  0  0  0  0  0  0  0  0  0
   40.5010   28.0180   43.2800 N   0  0  0  0  0  0  0  0  0  0  0  0
   37.6410   30.6560   41.1640 C   0  0  0  0  0  0  0  0  0  0  0  0
   36.4160   30.0290   40.8870 C   0  0  0  0  0  0  0  0  0  0  0  0
   36.5480   28.3550   41.6250 S   0  0  0  0  0  0  0  0  0  0  0  0
   38.3120   28.7740   42.2200 C   0  0  0  0  0  0  0  0  0  0  0  0
   38.3770   29.8230   41.8220 N   0  0  0  0  0  0  0  0  0  0  0  0
   39.0490   32.6770   41.1430 C   0  0  0  0  0  0  0  0  0  0  0  0
   37.9050   32.0210   40.7280 C   0  0  0  0  0  0  0  0  0  0  0  0
   36.9810   32.6800   39.8750 C   0  0  0  0  0  0  0  0  0  0  0  0
   37.3060   33.9520   39.5210 N   0  0  0  0  0  0  0  0  0  0  0  0
   38.4470   34.5700   39.9510 C   0  0  0  0  0  0  0  0  0  0  0  0
   39.3060   33.9260   40.7580 N   0  0  0  0  0  0  0  0  0  0  0  0
   42.4600   26.6380   44.5940 S   0  0  0  0  0  0  0  0  0  0  0  0
   43.2950   25.5890   43.3690 C   0  0  2  0  0  0  0  0  0  0  0  0
   44.7650   25.4730   43.3360 C   0  0  0  0  0  0  0  0  0  0  0  0
   43.9820   26.2000   42.2100 C   0  0  1  0  0  0  0  0  0  0  0  0
   43.7940   25.5150   40.9000 C   0  0  0  0  0  0  0  0  0  0  0  0
   42.3640   25.2280   40.5350 C   0  0  0  0  0  0  0  0  0  0  0  0
   42.2900   25.2990   39.0030 C   0  0  0  0  0  0  0  0  0  0  0  0
   42.4290   26.7760   38.6650 C   0  0  0  0  0  0  0  0  0  0  0  0
   43.8210   27.2180   39.0320 C   0  0  0  0  0  0  0  0  0  0  0  0
   44.5780   26.2050   39.8200 C   0  0  0  0  0  0  0  0  0  0  0  0
   35.5587   30.4519   40.3428 H   0  0  0  0  0  0  0  0  0  0  0  0
   39.7598   32.1582   41.8030 H   0  0  0  0  0  0  0  0  0  0  0  0
   36.0601   32.1923   39.5227 H   0  0  0  0  0  0  0  0  0  0  0  0
   38.6629   35.6010   39.6341 H   0  0  0  0  0  0  0  0  0  0  0  0
   42.4856   24.8517   43.4751 H   0  0  0  0  0  0  0  0  0  0  0  0
   45.3823   26.0479   44.0420 H   0  0  0  0  0  0  0  0  0  0  0  0
   45.4904   24.6474   43.3833 H   0  0  0  0  0  0  0  0  0  0  0  0
   44.0458   27.1940   41.7432 H   0  0  0  0  0  0  0  0  0  0  0  0
   44.2145   24.5050   41.0145 H   0  0  0  0  0  0  0  0  0  0  0  0
   42.0750   24.2259   40.8846 H   0  0  0  0  0  0  0  0  0  0  0  0
   41.6784   25.9497   41.0031 H   0  0  0  0  0  0  0  0  0  0  0  0
   43.1089   24.7209   38.5500 H   0  0  0  0  0  0  0  0  0  0  0  0
   41.3512   24.8754   38.6166 H   0  0  0  0  0  0  0  0  0  0  0  0
   42.2625   26.9281   37.5884 H   0  0  0  0  0  0  0  0  0  0  0  0
   41.6859   27.3635   39.2241 H   0  0  0  0  0  0  0  0  0  0  0  0
   44.3765   27.4243   38.1052 H   0  0  0  0  0  0  0  0  0  0  0  0
   43.7202   28.1115   39.6657 H   0  0  0  0  0  0  0  0  0  0  0  0
   44.9449   25.4371   39.1230 H   0  0  0  0  0  0  0  0  0  0  0  0
   45.3811   26.7557   40.3316 H   0  0  0  0  0  0  0  0  0  0  0  0
  1  5  1  0
  1  2  2  0
  2  3  1  0
  4  3  1  0
  4 17  1  0
  5  4  2  0
  6 10  1  0
  7  6  2  0
  7  8  1  0
  8  9  1  0
  9  1  1  0
 10  9  2  0
 12 11  2  0
 12  6  1  0
 13 12  1  0
 14 13  2  0
 14 15  1  0
 15 16  2  0
 16 11  1  0
 18 17  1  0
 19 18  1  0
 20 19  1  0
 20 18  1  0
 21 20  1  0
 22 21  1  0
 23 22  1  0
 24 23  1  0
 24 25  1  0
 25 26  1  0
 26 21  1  0
  7 27  1  0
 11 28  1  0
 13 29  1  0
 15 30  1  0
 18 31  1  6
 19 32  1  0
 19 33  1  0
 20 34  1  6
 21 35  1  0
 22 36  1  0
 22 37  1  0
 23 38  1  0
 23 39  1  0
 24 40  1  0
 24 41  1  0
 25 42  1  0
 25 43  1  0
 26 44  1  0
 26 45  1  0
M  ISO  8  27  14  28  14  29  14  30  14  31  13  32  13  33  13  34  13
M  ISO  8  35  13  36  13  37  13  38  13  39  13  40  13  41  13  42  13
M  ISO  3  43  13  44  13  45  13
M  END
>  <minimizedAffinity>  (1) 
-4.94070864

>  <minimizedRMSD>  (1) 
0.255021423

$$$$
