
     RDKit          3D

 36 39  0  0  1  0  0  0  0  0999 V2000
   39.2250   27.8920   42.9660 C   0  0  0  0  0  0  0  0  0  0  0  0
   38.7620   26.7250   43.4680 N   0  0  0  0  0  0  0  0  0  0  0  0
   39.7320   26.1150   44.0810 O   0  0  0  0  0  0  0  0  0  0  0  0
   40.8060   26.9020   43.9650 C   0  0  0  0  0  0  0  0  0  0  0  0
   40.5280   28.0360   43.2660 N   0  0  0  0  0  0  0  0  0  0  0  0
   37.6430   30.6510   41.1730 C   0  0  0  0  0  0  0  0  0  0  0  0
   36.3970   30.0270   40.8830 C   0  0  0  0  0  0  0  0  0  0  0  0
   36.5900   28.3570   41.6350 S   0  0  0  0  0  0  0  0  0  0  0  0
   38.3330   28.7950   42.2160 C   0  0  0  0  0  0  0  0  0  0  0  0
   38.3860   29.8310   41.8240 N   0  0  0  0  0  0  0  0  0  0  0  0
   39.0300   32.6900   41.1360 C   0  0  0  0  0  0  0  0  0  0  0  0
   37.9100   32.0240   40.7370 C   0  0  0  0  0  0  0  0  0  0  0  0
   36.9920   32.6880   39.8830 C   0  0  0  0  0  0  0  0  0  0  0  0
   37.3140   33.9620   39.5230 N   0  0  0  0  0  0  0  0  0  0  0  0
   38.4530   34.5770   39.9540 C   0  0  0  0  0  0  0  0  0  0  0  0
   39.2920   33.9330   40.7510 N   0  0  0  0  0  0  0  0  0  0  0  0
   42.4820   26.6500   44.5880 S   0  0  0  0  0  0  0  0  0  0  0  0
   43.2610   25.5030   43.4200 C   0  0  2  0  0  0  0  0  0  0  0  0
   44.6090   25.7850   42.8600 C   0  0  0  0  0  0  0  0  0  0  0  0
   43.3430   25.8760   41.9930 C   0  0  1  0  0  0  0  0  0  0  0  0
   43.1160   24.9660   40.9310 N   0  0  0  0  0  0  0  0  0  0  0  0
   42.5680   25.3130   39.6560 C   0  0  0  0  0  0  0  0  0  0  0  0
   43.0000   26.4570   39.1920 N   0  0  0  0  0  0  0  0  0  0  0  0
   41.6340   24.3990   39.0430 N   0  0  0  0  0  0  0  0  0  0  0  0
   42.6530   26.7970   38.2590 H   0  0  0  0  0  0  0  0  0  0  0  0
   35.5323   30.4402   40.3430 H   0  0  0  0  0  0  0  0  0  0  0  0
   39.7423   32.1793   41.8008 H   0  0  0  0  0  0  0  0  0  0  0  0
   36.0707   32.2009   39.5308 H   0  0  0  0  0  0  0  0  0  0  0  0
   38.6744   35.6076   39.6396 H   0  0  0  0  0  0  0  0  0  0  0  0
   42.8390   24.6512   43.9735 H   0  0  0  0  0  0  0  0  0  0  0  0
   45.1494   26.6984   43.1494 H   0  0  0  0  0  0  0  0  0  0  0  0
   45.5654   25.2448   42.8016 H   0  0  0  0  0  0  0  0  0  0  0  0
   42.8564   26.6396   41.3683 H   0  0  0  0  0  0  0  0  0  0  0  0
   43.3646   23.9790   41.0891 H   0  0  0  0  0  0  0  0  0  0  0  0
   41.2227   24.6215   38.1253 H   0  0  0  0  0  0  0  0  0  0  0  0
   41.3789   23.5243   39.5233 H   0  0  0  0  0  0  0  0  0  0  0  0
  1  5  1  0
  1  2  2  0
  2  3  1  0
  4  3  1  0
  4 17  1  0
  5  4  2  0
  6 10  1  0
  7  6  2  0
  7  8  1  0
  8  9  1  0
  9  1  1  0
 10  9  2  0
 12 11  2  0
 12  6  1  0
 13 12  1  0
 14 13  2  0
 14 15  1  0
 15 16  2  0
 16 11  1  0
 18 17  1  0
 19 18  1  0
 20 19  1  0
 20 18  1  0
 21 20  1  0
 22 21  1  0
 23 22  2  0
 24 22  1  0
 25 23  1  0
  7 26  1  0
 11 27  1  0
 13 28  1  0
 15 29  1  0
 18 30  1  6
 19 31  1  0
 19 32  1  0
 20 33  1  1
 21 34  1  0
 24 35  1  0
 24 36  1  0
M  ISO  8  26  14  27  14  28  14  29  14  30  13  31  13  32  13  33  13
M  END
>  <minimizedAffinity>  (1) 
-4.93497944

>  <minimizedRMSD>  (1) 
0.375218302

$$$$
