
     RDKit          3D

 37 41  0  0  1  0  0  0  0  0999 V2000
   39.1970   27.8900   42.9710 C   0  0  0  0  0  0  0  0  0  0  0  0
   38.7130   26.7320   43.4790 N   0  0  0  0  0  0  0  0  0  0  0  0
   39.6820   26.1180   44.0990 O   0  0  0  0  0  0  0  0  0  0  0  0
   40.7670   26.8980   43.9750 C   0  0  0  0  0  0  0  0  0  0  0  0
   40.5040   28.0310   43.2670 N   0  0  0  0  0  0  0  0  0  0  0  0
   37.6410   30.6630   41.1630 C   0  0  0  0  0  0  0  0  0  0  0  0
   36.3980   30.0390   40.8610 C   0  0  0  0  0  0  0  0  0  0  0  0
   36.5660   28.3630   41.6100 S   0  0  0  0  0  0  0  0  0  0  0  0
   38.3070   28.7960   42.2100 C   0  0  0  0  0  0  0  0  0  0  0  0
   38.3790   29.8370   41.8240 N   0  0  0  0  0  0  0  0  0  0  0  0
   39.0430   32.6860   41.1390 C   0  0  0  0  0  0  0  0  0  0  0  0
   37.9090   32.0310   40.7320 C   0  0  0  0  0  0  0  0  0  0  0  0
   36.9890   32.6970   39.8790 C   0  0  0  0  0  0  0  0  0  0  0  0
   37.3040   33.9710   39.5180 N   0  0  0  0  0  0  0  0  0  0  0  0
   38.4510   34.5770   39.9540 C   0  0  0  0  0  0  0  0  0  0  0  0
   39.2980   33.9390   40.7500 N   0  0  0  0  0  0  0  0  0  0  0  0
   42.4390   26.6410   44.5970 S   0  0  0  0  0  0  0  0  0  0  0  0
   43.2750   25.5990   43.3510 C   0  0  2  0  0  0  0  0  0  0  0  0
   44.7430   25.4410   43.4150 C   0  0  0  0  0  0  0  0  0  0  0  0
   44.0250   26.2320   42.2660 C   0  0  1  0  0  0  0  0  0  0  0  0
   44.0050   25.5400   40.9500 C   0  0  0  0  0  0  0  0  0  0  0  0
   42.8660   25.0720   40.3180 C   0  0  0  0  0  0  0  0  0  0  0  0
   42.9000   24.4400   39.1030 C   0  0  0  0  0  0  0  0  0  0  0  0
   44.0910   24.2500   38.4680 N   0  0  0  0  0  0  0  0  0  0  0  0
   45.2120   24.7070   39.0860 C   0  0  0  0  0  0  0  0  0  0  0  0
   45.1610   25.3240   40.2730 N   0  0  0  0  0  0  0  0  0  0  0  0
   35.5415   30.4570   40.3118 H   0  0  0  0  0  0  0  0  0  0  0  0
   39.7565   32.1702   41.7984 H   0  0  0  0  0  0  0  0  0  0  0  0
   36.0684   32.2079   39.5279 H   0  0  0  0  0  0  0  0  0  0  0  0
   38.6733   35.6075   39.6398 H   0  0  0  0  0  0  0  0  0  0  0  0
   42.4389   24.8843   43.3640 H   0  0  0  0  0  0  0  0  0  0  0  0
   45.3283   25.9751   44.1780 H   0  0  0  0  0  0  0  0  0  0  0  0
   45.4483   24.5992   43.4780 H   0  0  0  0  0  0  0  0  0  0  0  0
   44.0745   27.2451   41.8405 H   0  0  0  0  0  0  0  0  0  0  0  0
   41.8932   25.2134   40.8117 H   0  0  0  0  0  0  0  0  0  0  0  0
   41.9669   24.0862   38.6403 H   0  0  0  0  0  0  0  0  0  0  0  0
   46.1875   24.5661   38.5976 H   0  0  0  0  0  0  0  0  0  0  0  0
  1  5  1  0
  1  2  2  0
  2  3  1  0
  4  3  1  0
  4 17  1  0
  5  4  2  0
  6 10  1  0
  7  6  2  0
  7  8  1  0
  8  9  1  0
  9  1  1  0
 10  9  2  0
 12 11  2  0
 12  6  1  0
 13 12  1  0
 14 13  2  0
 14 15  1  0
 15 16  2  0
 16 11  1  0
 18 19  1  0
 18 17  1  0
 20 18  1  0
 20 19  1  0
 21 20  1  0
 22 21  2  0
 23 22  1  0
 24 25  1  0
 24 23  2  0
 25 26  2  0
 26 21  1  0
  7 27  1  0
 11 28  1  0
 13 29  1  0
 15 30  1  0
 18 31  1  6
 19 32  1  0
 19 33  1  0
 20 34  1  6
 22 35  1  0
 23 36  1  0
 25 37  1  0
M  ISO  8  27  14  28  14  29  14  30  14  31  13  32  13  33  13  34  13
M  ISO  3  35  14  36  14  37  14
M  END
>  <minimizedAffinity>  (1) 
-4.92485571

>  <minimizedRMSD>  (1) 
0.346504033

$$$$
