
     RDKit          3D

 36 40  0  0  1  0  0  0  0  0999 V2000
   39.2150   27.8800   42.9770 C   0  0  0  0  0  0  0  0  0  0  0  0
   38.7530   26.7090   43.4680 N   0  0  0  0  0  0  0  0  0  0  0  0
   39.7240   26.1060   44.0900 O   0  0  0  0  0  0  0  0  0  0  0  0
   40.7920   26.8970   43.9880 C   0  0  0  0  0  0  0  0  0  0  0  0
   40.5170   28.0340   43.2920 N   0  0  0  0  0  0  0  0  0  0  0  0
   37.6500   30.6570   41.1560 C   0  0  0  0  0  0  0  0  0  0  0  0
   36.4370   30.0170   40.8620 C   0  0  0  0  0  0  0  0  0  0  0  0
   36.5820   28.3430   41.5980 S   0  0  0  0  0  0  0  0  0  0  0  0
   38.3320   28.7830   42.2180 C   0  0  0  0  0  0  0  0  0  0  0  0
   38.3860   29.8320   41.8220 N   0  0  0  0  0  0  0  0  0  0  0  0
   39.0560   32.6870   41.1460 C   0  0  0  0  0  0  0  0  0  0  0  0
   37.9140   32.0290   40.7260 C   0  0  0  0  0  0  0  0  0  0  0  0
   36.9920   32.6890   39.8760 C   0  0  0  0  0  0  0  0  0  0  0  0
   37.3160   33.9570   39.5290 N   0  0  0  0  0  0  0  0  0  0  0  0
   38.4500   34.5830   39.9570 C   0  0  0  0  0  0  0  0  0  0  0  0
   39.2920   33.9370   40.7510 N   0  0  0  0  0  0  0  0  0  0  0  0
   42.4760   26.6730   44.6220 S   0  0  0  0  0  0  0  0  0  0  0  0
   43.2960   25.5680   43.4190 C   0  0  2  0  0  0  0  0  0  0  0  0
   44.7670   25.4670   43.3780 C   0  0  0  0  0  0  0  0  0  0  0  0
   43.9520   26.1420   42.2350 C   0  0  1  0  0  0  0  0  0  0  0  0
   43.9090   25.4740   40.9710 N   0  0  0  0  0  0  0  0  0  0  0  0
   44.9610   25.1490   40.2020 C   0  0  0  0  0  0  0  0  0  0  0  0
   44.4550   24.5210   39.0800 C   0  0  0  0  0  0  0  0  0  0  0  0
   43.1150   24.4930   39.2190 N   0  0  0  0  0  0  0  0  0  0  0  0
   42.7790   25.0840   40.3920 C   0  0  0  0  0  0  0  0  0  0  0  0
   35.5813   30.4307   40.3082 H   0  0  0  0  0  0  0  0  0  0  0  0
   39.7711   32.1766   41.8079 H   0  0  0  0  0  0  0  0  0  0  0  0
   36.0718   32.2022   39.5208 H   0  0  0  0  0  0  0  0  0  0  0  0
   38.6640   35.6161   39.6455 H   0  0  0  0  0  0  0  0  0  0  0  0
   42.4976   24.8244   43.5594 H   0  0  0  0  0  0  0  0  0  0  0  0
   45.3849   26.0760   44.0543 H   0  0  0  0  0  0  0  0  0  0  0  0
   45.5051   24.6545   43.4482 H   0  0  0  0  0  0  0  0  0  0  0  0
   43.9163   27.1223   41.7373 H   0  0  0  0  0  0  0  0  0  0  0  0
   46.0207   25.3449   40.4227 H   0  0  0  0  0  0  0  0  0  0  0  0
   45.0349   24.1207   38.2353 H   0  0  0  0  0  0  0  0  0  0  0  0
   41.7618   25.2158   40.7895 H   0  0  0  0  0  0  0  0  0  0  0  0
  1  5  1  0
  1  2  2  0
  2  3  1  0
  4  3  1  0
  4 17  1  0
  5  4  2  0
  6 10  1  0
  7  6  2  0
  7  8  1  0
  8  9  1  0
  9  1  1  0
 10  9  2  0
 12 11  2  0
 12  6  1  0
 13 12  1  0
 14 13  2  0
 14 15  1  0
 15 16  2  0
 16 11  1  0
 18 17  1  0
 19 18  1  0
 20 19  1  0
 20 18  1  0
 21 20  1  0
 22 21  1  0
 23 24  1  0
 23 22  2  0
 24 25  2  0
 25 21  1  0
  7 26  1  0
 11 27  1  0
 13 28  1  0
 15 29  1  0
 18 30  1  6
 19 31  1  0
 19 32  1  0
 20 33  1  6
 22 34  1  0
 23 35  1  0
 25 36  1  0
M  ISO  8  26  14  27  14  28  14  29  14  30  13  31  13  32  13  33  13
M  ISO  3  34  14  35  14  36  14
M  END
>  <minimizedAffinity>  (1) 
-4.89571428

>  <minimizedRMSD>  (1) 
0.143912897

$$$$
