
     RDKit          3D

 44 48  0  0  1  0  0  0  0  0999 V2000
   39.2060   27.8720   42.9670 C   0  0  0  0  0  0  0  0  0  0  0  0
   38.7310   26.6990   43.4640 N   0  0  0  0  0  0  0  0  0  0  0  0
   39.6980   26.0870   44.0820 O   0  0  0  0  0  0  0  0  0  0  0  0
   40.7750   26.8720   43.9750 C   0  0  0  0  0  0  0  0  0  0  0  0
   40.5030   28.0070   43.2780 N   0  0  0  0  0  0  0  0  0  0  0  0
   37.6450   30.6510   41.1650 C   0  0  0  0  0  0  0  0  0  0  0  0
   36.4200   30.0250   40.8790 C   0  0  0  0  0  0  0  0  0  0  0  0
   36.5620   28.3520   41.6140 S   0  0  0  0  0  0  0  0  0  0  0  0
   38.3220   28.7720   42.2180 C   0  0  0  0  0  0  0  0  0  0  0  0
   38.3890   29.8230   41.8240 N   0  0  0  0  0  0  0  0  0  0  0  0
   39.0440   32.6790   41.1420 C   0  0  0  0  0  0  0  0  0  0  0  0
   37.9050   32.0180   40.7290 C   0  0  0  0  0  0  0  0  0  0  0  0
   36.9970   32.6840   39.8800 C   0  0  0  0  0  0  0  0  0  0  0  0
   37.3100   33.9510   39.5210 N   0  0  0  0  0  0  0  0  0  0  0  0
   38.4530   34.5660   39.9560 C   0  0  0  0  0  0  0  0  0  0  0  0
   39.2990   33.9270   40.7560 N   0  0  0  0  0  0  0  0  0  0  0  0
   42.4580   26.6320   44.6030 S   0  0  0  0  0  0  0  0  0  0  0  0
   43.2840   25.5900   43.3710 C   0  0  2  0  0  0  0  0  0  0  0  0
   44.7600   25.5170   43.2940 C   0  0  0  0  0  0  0  0  0  0  0  0
   43.9200   26.2140   42.1880 C   0  0  1  0  0  0  0  0  0  0  0  0
   43.8190   25.5740   40.9090 N   0  0  0  0  0  0  0  0  0  0  0  0
   42.4430   25.2430   40.6740 C   0  0  0  0  0  0  0  0  0  0  0  0
   41.7480   26.3080   39.8250 C   0  0  0  0  0  0  0  0  0  0  0  0
   42.4120   26.3550   38.4610 C   0  0  0  0  0  0  0  0  0  0  0  0
   43.8610   25.9070   38.5620 C   0  0  0  0  0  0  0  0  0  0  0  0
   44.3490   26.4670   39.9040 C   0  0  0  0  0  0  0  0  0  0  0  0
   35.5631   30.4468   40.3333 H   0  0  0  0  0  0  0  0  0  0  0  0
   39.7557   32.1638   41.8038 H   0  0  0  0  0  0  0  0  0  0  0  0
   36.0768   32.1963   39.5259 H   0  0  0  0  0  0  0  0  0  0  0  0
   38.6724   35.5968   39.6407 H   0  0  0  0  0  0  0  0  0  0  0  0
   42.5026   24.8282   43.5087 H   0  0  0  0  0  0  0  0  0  0  0  0
   45.3811   26.1143   43.9777 H   0  0  0  0  0  0  0  0  0  0  0  0
   45.5111   24.7138   43.3234 H   0  0  0  0  0  0  0  0  0  0  0  0
   43.8892   27.2092   41.7204 H   0  0  0  0  0  0  0  0  0  0  0  0
   42.3921   24.2778   40.1488 H   0  0  0  0  0  0  0  0  0  0  0  0
   41.9304   25.1873   41.6457 H   0  0  0  0  0  0  0  0  0  0  0  0
   40.6842   26.0530   39.7099 H   0  0  0  0  0  0  0  0  0  0  0  0
   41.8301   27.2894   40.3151 H   0  0  0  0  0  0  0  0  0  0  0  0
   42.3769   27.3848   38.0760 H   0  0  0  0  0  0  0  0  0  0  0  0
   41.8758   25.6784   37.7793 H   0  0  0  0  0  0  0  0  0  0  0  0
   43.9292   24.8092   38.5519 H   0  0  0  0  0  0  0  0  0  0  0  0
   44.4671   26.2647   37.7166 H   0  0  0  0  0  0  0  0  0  0  0  0
   45.4484   26.4772   39.9397 H   0  0  0  0  0  0  0  0  0  0  0  0
   44.0143   27.5031   40.0605 H   0  0  0  0  0  0  0  0  0  0  0  0
  1  5  1  0
  1  2  2  0
  2  3  1  0
  4  3  1  0
  4 17  1  0
  5  4  2  0
  6 10  1  0
  7  6  2  0
  7  8  1  0
  8  9  1  0
  9  1  1  0
 10  9  2  0
 12 11  2  0
 12  6  1  0
 13 12  1  0
 14 13  2  0
 14 15  1  0
 15 16  2  0
 16 11  1  0
 18 17  1  0
 19 18  1  0
 20 19  1  0
 20 18  1  0
 21 20  1  0
 22 21  1  0
 23 22  1  0
 24 25  1  0
 24 23  1  0
 25 26  1  0
 26 21  1  0
  7 27  1  0
 11 28  1  0
 13 29  1  0
 15 30  1  0
 18 31  1  6
 19 32  1  0
 19 33  1  0
 20 34  1  6
 22 35  1  0
 22 36  1  0
 23 37  1  0
 23 38  1  0
 24 39  1  0
 24 40  1  0
 25 41  1  0
 25 42  1  0
 26 43  1  0
 26 44  1  0
M  ISO  8  27  14  28  14  29  14  30  14  31  13  32  13  33  13  34  13
M  ISO  8  35  13  36  13  37  13  38  13  39  13  40  13  41  13  42  13
M  ISO  2  43  13  44  13
M  END
>  <minimizedAffinity>  (1) 
-4.87874174

>  <minimizedRMSD>  (1) 
0.236859441

$$$$
