
     RDKit          3D

 41 44  0  0  1  0  0  0  0  0999 V2000
   39.1840   27.8770   42.9640 C   0  0  0  0  0  0  0  0  0  0  0  0
   38.7270   26.7180   43.4600 N   0  0  0  0  0  0  0  0  0  0  0  0
   39.6860   26.0960   44.0720 O   0  0  0  0  0  0  0  0  0  0  0  0
   40.7680   26.8790   43.9590 C   0  0  0  0  0  0  0  0  0  0  0  0
   40.4970   28.0190   43.2650 N   0  0  0  0  0  0  0  0  0  0  0  0
   37.6280   30.6600   41.1710 C   0  0  0  0  0  0  0  0  0  0  0  0
   36.3800   30.0370   40.8760 C   0  0  0  0  0  0  0  0  0  0  0  0
   36.5660   28.3640   41.6260 S   0  0  0  0  0  0  0  0  0  0  0  0
   38.3070   28.7950   42.2140 C   0  0  0  0  0  0  0  0  0  0  0  0
   38.3780   29.8360   41.8280 N   0  0  0  0  0  0  0  0  0  0  0  0
   39.0400   32.6830   41.1440 C   0  0  0  0  0  0  0  0  0  0  0  0
   37.9080   32.0400   40.7350 C   0  0  0  0  0  0  0  0  0  0  0  0
   36.9840   32.6990   39.8780 C   0  0  0  0  0  0  0  0  0  0  0  0
   37.3200   33.9610   39.5250 N   0  0  0  0  0  0  0  0  0  0  0  0
   38.4620   34.5710   39.9550 C   0  0  0  0  0  0  0  0  0  0  0  0
   39.2990   33.9270   40.7530 N   0  0  0  0  0  0  0  0  0  0  0  0
   42.4430   26.6180   44.5830 S   0  0  0  0  0  0  0  0  0  0  0  0
   43.2810   25.6390   43.3030 C   0  0  2  0  0  0  0  0  0  0  0  0
   44.7490   25.5210   43.2660 C   0  0  0  0  0  0  0  0  0  0  0  0
   43.9790   26.3470   42.2140 C   0  0  1  0  0  0  0  0  0  0  0  0
   43.9640   25.9100   40.7950 C   0  0  0  0  0  0  0  0  0  0  0  0
   45.1790   25.0780   40.4190 C   0  0  0  0  0  0  0  0  0  0  0  0
   44.0090   27.1390   39.8960 C   0  0  0  0  0  0  0  0  0  0  0  0
   42.7380   25.1410   40.4070 C   0  0  0  0  0  0  0  0  0  0  0  0
   35.5179   30.4528   40.3339 H   0  0  0  0  0  0  0  0  0  0  0  0
   39.7485   32.1645   41.8068 H   0  0  0  0  0  0  0  0  0  0  0  0
   36.0603   32.2161   39.5266 H   0  0  0  0  0  0  0  0  0  0  0  0
   38.6876   35.5999   39.6380 H   0  0  0  0  0  0  0  0  0  0  0  0
   42.4767   24.8901   43.3500 H   0  0  0  0  0  0  0  0  0  0  0  0
   45.3649   26.0260   44.0247 H   0  0  0  0  0  0  0  0  0  0  0  0
   45.4712   24.6916   43.2403 H   0  0  0  0  0  0  0  0  0  0  0  0
   43.9668   27.3837   41.8463 H   0  0  0  0  0  0  0  0  0  0  0  0
   45.6838   24.7323   41.3331 H   0  0  0  0  0  0  0  0  0  0  0  0
   44.8588   24.2087   39.8259 H   0  0  0  0  0  0  0  0  0  0  0  0
   45.8737   25.6908   39.8259 H   0  0  0  0  0  0  0  0  0  0  0  0
   44.0422   28.0464   40.5169 H   0  0  0  0  0  0  0  0  0  0  0  0
   44.9062   27.0961   39.2610 H   0  0  0  0  0  0  0  0  0  0  0  0
   43.1111   27.1619   39.2610 H   0  0  0  0  0  0  0  0  0  0  0  0
   42.2105   24.8101   41.3138 H   0  0  0  0  0  0  0  0  0  0  0  0
   42.0745   25.7850   39.8112 H   0  0  0  0  0  0  0  0  0  0  0  0
   43.0290   24.2633   39.8112 H   0  0  0  0  0  0  0  0  0  0  0  0
  1  5  1  0
  1  2  2  0
  2  3  1  0
  4  3  1  0
  4 17  1  0
  5  4  2  0
  6 10  1  0
  7  6  2  0
  7  8  1  0
  8  9  1  0
  9  1  1  0
 10  9  2  0
 12 11  2  0
 12  6  1  0
 13 12  1  0
 14 13  2  0
 14 15  1  0
 15 16  2  0
 16 11  1  0
 18 17  1  0
 19 18  1  0
 20 19  1  0
 20 18  1  0
 21 20  1  0
 22 21  1  0
 23 21  1  0
 24 21  1  0
  7 25  1  0
 11 26  1  0
 13 27  1  0
 15 28  1  0
 18 29  1  6
 19 30  1  0
 19 31  1  0
 20 32  1  6
 22 33  1  0
 22 34  1  0
 22 35  1  0
 23 36  1  0
 23 37  1  0
 23 38  1  0
 24 39  1  0
 24 40  1  0
 24 41  1  0
M  ISO  8  25  14  26  14  27  14  28  14  29  13  30  13  31  13  32  13
M  ISO  8  33   8  34   8  35   8  36   8  37   8  38   8  39   8  40   8
M  ISO  1  41   8
M  END
>  <minimizedAffinity>  (1) 
-4.75723362

>  <minimizedRMSD>  (1) 
0.587698996

$$$$
