
     RDKit          3D

 34 38  0  0  1  0  0  0  0  0999 V2000
   39.2110   27.8510   42.9760 C   0  0  0  0  0  0  0  0  0  0  0  0
   38.7680   26.6680   43.4260 N   0  0  0  0  0  0  0  0  0  0  0  0
   39.7360   26.0620   44.0480 O   0  0  0  0  0  0  0  0  0  0  0  0
   40.7920   26.8730   43.9860 C   0  0  0  0  0  0  0  0  0  0  0  0
   40.5080   28.0250   43.3150 N   0  0  0  0  0  0  0  0  0  0  0  0
   37.6460   30.6390   41.1700 C   0  0  0  0  0  0  0  0  0  0  0  0
   36.4230   30.0050   40.8900 C   0  0  0  0  0  0  0  0  0  0  0  0
   36.5650   28.3290   41.6310 S   0  0  0  0  0  0  0  0  0  0  0  0
   38.3250   28.7620   42.2260 C   0  0  0  0  0  0  0  0  0  0  0  0
   38.3810   29.8090   41.8280 N   0  0  0  0  0  0  0  0  0  0  0  0
   39.0460   32.6630   41.1450 C   0  0  0  0  0  0  0  0  0  0  0  0
   37.9040   32.0040   40.7320 C   0  0  0  0  0  0  0  0  0  0  0  0
   36.9960   32.6660   39.8840 C   0  0  0  0  0  0  0  0  0  0  0  0
   37.3040   33.9340   39.5190 N   0  0  0  0  0  0  0  0  0  0  0  0
   38.4520   34.5520   39.9540 C   0  0  0  0  0  0  0  0  0  0  0  0
   39.3020   33.9120   40.7570 N   0  0  0  0  0  0  0  0  0  0  0  0
   42.4640   26.6520   44.6440 S   0  0  0  0  0  0  0  0  0  0  0  0
   43.3180   25.5980   43.4310 C   0  0  2  0  0  0  0  0  0  0  0  0
   44.7790   25.4270   43.4550 C   0  0  0  0  0  0  0  0  0  0  0  0
   44.0740   26.2300   42.3250 C   0  0  2  0  0  0  0  0  0  0  0  0
   44.3690   27.6960   42.3640 C   0  0  0  0  0  0  0  0  0  0  0  0
   43.9680   28.6160   43.2870 N   0  0  0  0  0  0  0  0  0  0  0  0
   44.4310   29.7760   42.9650 O   0  0  0  0  0  0  0  0  0  0  0  0
   45.1410   29.7160   41.8550 C   0  0  0  0  0  0  0  0  0  0  0  0
   45.0940   28.4200   41.4920 N   0  0  0  0  0  0  0  0  0  0  0  0
   35.5643   30.4228   40.3440 H   0  0  0  0  0  0  0  0  0  0  0  0
   39.7574   32.1470   41.8066 H   0  0  0  0  0  0  0  0  0  0  0  0
   36.0763   32.1751   39.5329 H   0  0  0  0  0  0  0  0  0  0  0  0
   38.6710   35.5824   39.6372 H   0  0  0  0  0  0  0  0  0  0  0  0
   42.4850   24.8814   43.4824 H   0  0  0  0  0  0  0  0  0  0  0  0
   45.3856   25.9488   44.2099 H   0  0  0  0  0  0  0  0  0  0  0  0
   45.4701   24.5723   43.4987 H   0  0  0  0  0  0  0  0  0  0  0  0
   43.9717   26.2030   41.2301 H   0  0  0  0  0  0  0  0  0  0  0  0
   45.6564   30.5405   41.3406 H   0  0  0  0  0  0  0  0  0  0  0  0
  1  5  1  0
  1  2  2  0
  2  3  1  0
  4  3  1  0
  4 17  1  0
  5  4  2  0
  6 10  1  0
  7  6  2  0
  7  8  1  0
  8  9  1  0
  9  1  1  0
 10  9  2  0
 12 11  2  0
 12  6  1  0
 13 12  1  0
 14 13  2  0
 14 15  1  0
 15 16  2  0
 16 11  1  0
 18 19  1  0
 18 17  1  0
 20 21  1  0
 20 18  1  0
 20 19  1  0
 21 22  2  0
 23 22  1  0
 24 23  1  0
 25 24  2  0
 25 21  1  0
  7 26  1  0
 11 27  1  0
 13 28  1  0
 15 29  1  0
 18 30  1  6
 19 31  1  0
 19 32  1  0
 20 33  1  6
 24 34  1  0
M  ISO  8  26  14  27  14  28  14  29  14  30  13  31  13  32  13  33  13
M  ISO  1  34  14
M  END
>  <minimizedAffinity>  (1) 
-4.73343563

>  <minimizedRMSD>  (1) 
0.252373815

$$$$
