
     RDKit          3D

 31 34  0  0  1  0  0  0  0  0999 V2000
   39.2200   27.8780   42.9730 C   0  0  0  0  0  0  0  0  0  0  0  0
   38.7490   26.7100   43.4710 N   0  0  0  0  0  0  0  0  0  0  0  0
   39.7170   26.0980   44.0890 O   0  0  0  0  0  0  0  0  0  0  0  0
   40.7950   26.8870   43.9760 C   0  0  0  0  0  0  0  0  0  0  0  0
   40.5210   28.0230   43.2760 N   0  0  0  0  0  0  0  0  0  0  0  0
   37.6570   30.6540   41.1510 C   0  0  0  0  0  0  0  0  0  0  0  0
   36.4400   30.0160   40.8630 C   0  0  0  0  0  0  0  0  0  0  0  0
   36.5760   28.3450   41.6040 S   0  0  0  0  0  0  0  0  0  0  0  0
   38.3330   28.7790   42.2150 C   0  0  0  0  0  0  0  0  0  0  0  0
   38.3950   29.8270   41.8170 N   0  0  0  0  0  0  0  0  0  0  0  0
   39.0600   32.6780   41.1420 C   0  0  0  0  0  0  0  0  0  0  0  0
   37.9150   32.0240   40.7190 C   0  0  0  0  0  0  0  0  0  0  0  0
   36.9970   32.6870   39.8750 C   0  0  0  0  0  0  0  0  0  0  0  0
   37.3080   33.9590   39.5250 N   0  0  0  0  0  0  0  0  0  0  0  0
   38.4480   34.5750   39.9610 C   0  0  0  0  0  0  0  0  0  0  0  0
   39.2930   33.9340   40.7500 N   0  0  0  0  0  0  0  0  0  0  0  0
   42.4750   26.6450   44.6010 S   0  0  0  0  0  0  0  0  0  0  0  0
   43.2720   25.5150   43.4040 C   0  0  2  0  0  0  0  0  0  0  0  0
   44.7320   25.6100   43.1630 C   0  0  0  0  0  0  0  0  0  0  0  0
   43.6910   26.0310   42.0850 C   0  0  2  0  0  0  0  0  0  0  0  0
   43.5250   27.4690   41.9130 N   0  0  0  0  0  0  0  0  0  0  0  0
   35.5851   30.4314   40.3094 H   0  0  0  0  0  0  0  0  0  0  0  0
   39.7766   32.1643   41.7997 H   0  0  0  0  0  0  0  0  0  0  0  0
   36.0782   32.1970   39.5204 H   0  0  0  0  0  0  0  0  0  0  0  0
   38.6631   35.6091   39.6537 H   0  0  0  0  0  0  0  0  0  0  0  0
   42.6107   24.6958   43.7226 H   0  0  0  0  0  0  0  0  0  0  0  0
   45.3321   26.3715   43.6826 H   0  0  0  0  0  0  0  0  0  0  0  0
   45.5856   24.9176   43.2074 H   0  0  0  0  0  0  0  0  0  0  0  0
   43.4969   25.7686   41.0346 H   0  0  0  0  0  0  0  0  0  0  0  0
   43.4728   27.9215   42.8368 H   0  0  0  0  0  0  0  0  0  0  0  0
   44.3279   27.8472   41.3903 H   0  0  0  0  0  0  0  0  0  0  0  0
  1  5  1  0
  1  2  2  0
  2  3  1  0
  4  3  1  0
  4 17  1  0
  5  4  2  0
  6 10  1  0
  7  6  2  0
  7  8  1  0
  8  9  1  0
  9  1  1  0
 10  9  2  0
 12 11  2  0
 12  6  1  0
 13 12  1  0
 14 13  2  0
 14 15  1  0
 15 16  2  0
 16 11  1  0
 18 17  1  0
 19 18  1  0
 20 19  1  0
 20 18  1  0
 21 20  1  0
  7 22  1  0
 11 23  1  0
 13 24  1  0
 15 25  1  0
 18 26  1  6
 19 27  1  0
 19 28  1  0
 20 29  1  6
 21 30  1  0
 21 31  1  0
M  ISO  8  22  14  23  14  24  14  25  14  26  13  27  13  28  13  29  13
M  ISO  2  30   5  31   5
M  END
>  <minimizedAffinity>  (1) 
-4.73337078

>  <minimizedRMSD>  (1) 
0.124075823

$$$$
