
     RDKit          3D

 21 22  0  0  0  0  0  0  0  0999 V2000
   39.5060   29.7180   40.9550 S   0  0  0  0  0  0  0  0  0  0  0  0
   39.1730   32.4810   40.9770 C   0  0  0  0  0  0  0  0  0  0  0  0
   38.7140   31.2470   40.4730 C   0  0  0  0  0  0  0  0  0  0  0  0
   37.6270   31.2740   39.5900 C   0  0  0  0  0  0  0  0  0  0  0  0
   37.0750   32.4780   39.2670 N   0  0  0  0  0  0  0  0  0  0  0  0
   37.5570   33.6300   39.7830 C   0  0  0  0  0  0  0  0  0  0  0  0
   38.5900   33.6530   40.6260 N   0  0  0  0  0  0  0  0  0  0  0  0
   38.3910   28.8210   42.0270 C   0  0  0  0  0  0  0  0  0  0  0  0
   38.1190   29.0980   43.3510 C   0  0  0  0  0  0  0  0  0  0  0  0
   37.2220   28.2910   44.0290 C   0  0  0  0  0  0  0  0  0  0  0  0
   36.6020   27.2240   43.4100 C   0  0  0  0  0  0  0  0  0  0  0  0
   36.8580   26.9230   42.0740 C   0  0  0  0  0  0  0  0  0  0  0  0
   37.7640   27.7420   41.3980 C   0  0  0  0  0  0  0  0  0  0  0  0
   40.0253   32.4929   41.6723 H   0  0  0  0  0  0  0  0  0  0  0  0
   37.2264   30.3417   39.1653 H   0  0  0  0  0  0  0  0  0  0  0  0
   37.0816   34.5802   39.4983 H   0  0  0  0  0  0  0  0  0  0  0  0
   38.6058   29.9441   43.8580 H   0  0  0  0  0  0  0  0  0  0  0  0
   36.9981   28.5045   45.0846 H   0  0  0  0  0  0  0  0  0  0  0  0
   35.8956   26.6025   43.9799 H   0  0  0  0  0  0  0  0  0  0  0  0
   36.3669   26.0757   41.5730 H   0  0  0  0  0  0  0  0  0  0  0  0
   37.9904   27.5325   40.3421 H   0  0  0  0  0  0  0  0  0  0  0  0
  1  8  1  0
  3  1  1  0
  3  2  2  0
  4  3  1  0
  5  4  2  0
  5  6  1  0
  6  7  2  0
  7  2  1  0
  8  9  2  0
  9 10  1  0
 11 10  2  0
 12 11  1  0
 13  8  1  0
 13 12  2  0
  2 14  1  0
  4 15  1  0
  6 16  1  0
  9 17  1  0
 10 18  1  0
 11 19  1  0
 12 20  1  0
 13 21  1  0
M  ISO  8  14  14  15  14  16  14  17  14  18  14  19  14  20  14  21  14
M  END
>  <minimizedAffinity>  (1) 
-4.21475363

>  <minimizedRMSD>  (1) 
3.78989053

$$$$
