
     RDKit          3D

 20 21  0  0  0  0  0  0  0  0999 V2000
   37.4220   31.4380   38.4600 C   0  0  0  0  0  0  0  0  0  0  0  0
   36.5830   30.5590   39.1830 C   0  0  0  0  0  0  0  0  0  0  0  0
   35.9680   29.5160   38.4800 C   0  0  0  0  0  0  0  0  0  0  0  0
   36.2070   29.4010   37.1390 N   0  0  0  0  0  0  0  0  0  0  0  0
   37.0180   30.2720   36.4940 C   0  0  0  0  0  0  0  0  0  0  0  0
   37.6300   31.2910   37.1340 N   0  0  0  0  0  0  0  0  0  0  0  0
   36.3330   30.7900   40.9400 S   0  0  0  0  0  0  0  0  0  0  0  0
   36.9460   29.3870   41.8360 C   0  0  0  0  0  0  0  0  0  0  0  0
   36.3180   28.1560   41.9490 C   0  0  0  0  0  0  0  0  0  0  0  0
   36.9680   27.1820   42.6990 C   0  0  0  0  0  0  0  0  0  0  0  0
   38.1860   27.4460   43.2990 C   0  0  0  0  0  0  0  0  0  0  0  0
   38.7760   28.6820   43.1620 C   0  0  0  0  0  0  0  0  0  0  0  0
   38.1330   29.6310   42.4250 N   0  0  0  0  0  0  0  0  0  0  0  0
   37.9183   32.2632   38.9917 H   0  0  0  0  0  0  0  0  0  0  0  0
   35.3066   28.8043   38.9958 H   0  0  0  0  0  0  0  0  0  0  0  0
   37.1836   30.1455   35.4139 H   0  0  0  0  0  0  0  0  0  0  0  0
   35.3491   27.9587   41.4670 H   0  0  0  0  0  0  0  0  0  0  0  0
   36.5081   26.1897   42.8165 H   0  0  0  0  0  0  0  0  0  0  0  0
   38.6860   26.6637   43.8890 H   0  0  0  0  0  0  0  0  0  0  0  0
   39.7444   28.8988   43.6366 H   0  0  0  0  0  0  0  0  0  0  0  0
  1  2  2  0
  2  7  1  0
  3  2  1  0
  4  3  2  0
  5  6  2  0
  5  4  1  0
  6  1  1  0
  7  8  1  0
  8  9  2  0
  8 13  1  0
  9 10  1  0
 10 11  2  0
 12 11  1  0
 13 12  2  0
  1 14  1  0
  3 15  1  0
  5 16  1  0
  9 17  1  0
 10 18  1  0
 11 19  1  0
 12 20  1  0
M  ISO  7  14  14  15  14  16  14  17  14  18  14  19  14  20  14
M  END
>  <minimizedAffinity>  (1) 
-3.93861294

>  <minimizedRMSD>  (1) 
4.21707439

$$$$
