
     RDKit          3D

 23 24  0  0  1  0  0  0  0  0999 V2000
   37.5700   29.9580   42.1190 C   0  0  0  0  0  0  0  0  0  0  0  0
   37.1080   28.6620   42.3690 C   0  0  0  0  0  0  0  0  0  0  0  0
   36.0480   28.1560   41.5790 C   0  0  0  0  0  0  0  0  0  0  0  0
   35.5420   28.9760   40.6140 N   0  0  0  0  0  0  0  0  0  0  0  0
   36.0110   30.2210   40.3990 C   0  0  0  0  0  0  0  0  0  0  0  0
   37.0220   30.7300   41.1390 N   0  0  0  0  0  0  0  0  0  0  0  0
   37.8360   27.6660   43.6650 S   0  0  0  0  0  0  0  0  0  0  0  0
   40.0740   26.3300   44.2280 N   0  0  0  0  0  0  0  0  0  0  0  0
   39.9450   25.0860   43.5070 C   0  0  0  0  0  0  0  0  0  0  0  0
   39.9850   25.3930   42.0460 C   0  0  0  0  0  0  0  0  0  0  0  0
   39.7540   26.8810   41.9470 C   0  0  0  0  0  0  0  0  0  0  0  0
   39.5990   27.3720   43.3480 C   0  0  1  0  0  0  0  0  0  0  0  0
   38.3931   30.3627   42.7262 H   0  0  0  0  0  0  0  0  0  0  0  0
   35.6489   27.1432   41.7370 H   0  0  0  0  0  0  0  0  0  0  0  0
   35.5621   30.8360   39.6051 H   0  0  0  0  0  0  0  0  0  0  0  0
   39.5049   26.3034   45.0861 H   0  0  0  0  0  0  0  0  0  0  0  0
   40.7753   24.4142   43.7701 H   0  0  0  0  0  0  0  0  0  0  0  0
   38.9984   24.5898   43.7674 H   0  0  0  0  0  0  0  0  0  0  0  0
   40.9644   25.1258   41.6225 H   0  0  0  0  0  0  0  0  0  0  0  0
   39.2302   24.8219   41.4854 H   0  0  0  0  0  0  0  0  0  0  0  0
   40.6137   27.3692   41.4647 H   0  0  0  0  0  0  0  0  0  0  0  0
   38.8646   27.1093   41.3413 H   0  0  0  0  0  0  0  0  0  0  0  0
   40.1629   28.3025   43.5100 H   0  0  0  0  0  0  0  0  0  0  0  0
  1  2  2  0
  2  7  1  0
  3  2  1  0
  4  3  2  0
  5  4  1  0
  5  6  2  0
  6  1  1  0
  9  8  1  0
 10  9  1  0
 11 10  1  0
 11 12  1  0
 12  7  1  0
 12  8  1  0
  1 13  1  0
  3 14  1  0
  5 15  1  0
  8 16  1  0
  9 17  1  0
  9 18  1  0
 10 19  1  0
 10 20  1  0
 11 21  1  0
 11 22  1  0
 12 23  1  6
M  ISO  8  13  14  14  14  15  14  16   5  17  13  18  13  19  13  20  13
M  ISO  3  21  13  22  13  23  13
M  END
>  <minimizedAffinity>  (1) 
-3.54136658

>  <minimizedRMSD>  (1) 
1.17265761

$$$$
