
     RDKit          3D

 23 23  0  0  0  0  0  0  0  0999 V2000
   36.4630   29.0420   39.8440 C   0  0  0  0  0  0  0  0  0  0  0  0
   37.8210   28.8750   40.1400 C   0  0  0  0  0  0  0  0  0  0  0  0
   38.7210   29.8250   39.6130 C   0  0  0  0  0  0  0  0  0  0  0  0
   38.1990   30.8360   38.8530 N   0  0  0  0  0  0  0  0  0  0  0  0
   36.8900   30.9450   38.6030 C   0  0  0  0  0  0  0  0  0  0  0  0
   35.9890   30.0600   39.0850 N   0  0  0  0  0  0  0  0  0  0  0  0
   38.3950   27.5160   41.1440 S   0  0  0  0  0  0  0  0  0  0  0  0
   38.0500   27.7810   42.8860 C   0  0  0  0  0  0  0  0  0  0  0  0
   39.0310   26.9710   43.7430 C   0  0  0  0  0  0  0  0  0  0  0  0
   36.6520   27.3370   43.2370 C   0  0  0  0  0  0  0  0  0  0  0  0
   38.2870   29.2500   43.2280 C   0  0  0  0  0  0  0  0  0  0  0  0
   35.7459   28.3117   40.2469 H   0  0  0  0  0  0  0  0  0  0  0  0
   39.8017   29.7556   39.8058 H   0  0  0  0  0  0  0  0  0  0  0  0
   36.5346   31.7825   37.9847 H   0  0  0  0  0  0  0  0  0  0  0  0
   38.8187   27.1463   44.8080 H   0  0  0  0  0  0  0  0  0  0  0  0
   38.9171   25.9003   43.5178 H   0  0  0  0  0  0  0  0  0  0  0  0
   40.0607   27.2855   43.5178 H   0  0  0  0  0  0  0  0  0  0  0  0
   36.5422   27.3021   44.3309 H   0  0  0  0  0  0  0  0  0  0  0  0
   35.9252   28.0485   42.8180 H   0  0  0  0  0  0  0  0  0  0  0  0
   36.4690   26.3365   42.8180 H   0  0  0  0  0  0  0  0  0  0  0  0
   38.3069   29.3734   44.3209 H   0  0  0  0  0  0  0  0  0  0  0  0
   39.2491   29.5744   42.8048 H   0  0  0  0  0  0  0  0  0  0  0  0
   37.4757   29.8605   42.8048 H   0  0  0  0  0  0  0  0  0  0  0  0
  1  2  2  0
  2  7  1  0
  3  2  1  0
  4  3  2  0
  5  4  1  0
  5  6  2  0
  6  1  1  0
  7  8  1  0
  8 11  1  0
  8 10  1  0
  8  9  1  0
  1 12  1  0
  3 13  1  0
  5 14  1  0
  9 15  1  0
  9 16  1  0
  9 17  1  0
 10 18  1  0
 10 19  1  0
 10 20  1  0
 11 21  1  0
 11 22  1  0
 11 23  1  0
M  ISO  8  12  14  13  14  14  14  15   8  16   8  17   8  18   8  19   8
M  ISO  4  20   8  21   8  22   8  23   8
M  END
>  <minimizedAffinity>  (1) 
-3.10211158

>  <minimizedRMSD>  (1) 
2.69320631

$$$$
