
     RDKit          3D

 14 14  0  0  0  0  0  0  0  0999 V2000
   37.8940   30.0100   41.9250 C   0  0  0  0  0  0  0  0  0  0  0  0
   37.5510   28.6760   42.2280 C   0  0  0  0  0  0  0  0  0  0  0  0
   36.3610   28.1680   41.6930 C   0  0  0  0  0  0  0  0  0  0  0  0
   35.5980   29.0000   40.9050 N   0  0  0  0  0  0  0  0  0  0  0  0
   35.9670   30.2580   40.6470 C   0  0  0  0  0  0  0  0  0  0  0  0
   37.1060   30.7750   41.1460 N   0  0  0  0  0  0  0  0  0  0  0  0
   38.6070   27.6690   43.2640 S   0  0  0  0  0  0  0  0  0  0  0  0
   38.7050   25.9730   42.6730 C   0  0  0  0  0  0  0  0  0  0  0  0
   38.8235   30.4338   42.3331 H   0  0  0  0  0  0  0  0  0  0  0  0
   36.0449   27.1342   41.8964 H   0  0  0  0  0  0  0  0  0  0  0  0
   35.3252   30.8863   40.0119 H   0  0  0  0  0  0  0  0  0  0  0  0
   38.7446   25.2871   43.5320 H   0  0  0  0  0  0  0  0  0  0  0  0
   37.8185   25.7456   42.0628 H   0  0  0  0  0  0  0  0  0  0  0  0
   39.6118   25.8492   42.0628 H   0  0  0  0  0  0  0  0  0  0  0  0
  1  2  2  0
  2  7  1  0
  3  2  1  0
  4  3  2  0
  5  4  1  0
  5  6  2  0
  6  1  1  0
  8  7  1  0
  1  9  1  0
  3 10  1  0
  5 11  1  0
  8 12  1  0
  8 13  1  0
  8 14  1  0
M  ISO  6   9  14  10  14  11  14  12   8  13   8  14   8
M  END
>  <minimizedAffinity>  (1) 
-2.45475578

>  <minimizedRMSD>  (1) 
0.433379769

$$$$
