
     RDKit          3D

 27 29  0  0  0  0  0  0  0  0999 V2000
   38.0400   31.5970   39.7520 C   0  0  0  0  0  0  0  0  0  0  0  0
   38.3540   31.1180   38.4330 C   0  0  0  0  0  0  0  0  0  0  0  0
   39.8640   32.1340   38.0660 S   0  0  0  0  0  0  0  0  0  0  0  0
   39.7760   32.9940   39.7480 C   0  0  0  0  0  0  0  0  0  0  0  0
   38.8570   32.5120   40.2140 N   0  0  0  0  0  0  0  0  0  0  0  0
   40.6040   34.0580   40.4630 N   0  0  0  0  0  0  0  0  0  0  0  0
   41.8530   33.8140   40.8240 C   0  0  0  0  0  0  0  0  0  0  0  0
   42.5190   34.8350   41.4630 C   0  0  0  0  0  0  0  0  0  0  0  0
   41.8370   36.0170   41.6720 C   0  0  0  0  0  0  0  0  0  0  0  0
   42.4330   36.9580   42.2550 O   0  0  0  0  0  0  0  0  0  0  0  0
   40.5520   36.1710   41.2640 N   0  0  0  0  0  0  0  0  0  0  0  0
   39.9060   35.1690   40.6400 C   0  0  0  0  0  0  0  0  0  0  0  0
   38.7100   35.3410   40.2710 O   0  0  0  0  0  0  0  0  0  0  0  0
   36.5780   30.8510   40.5350 S   0  0  0  0  0  0  0  0  0  0  0  0
   36.3660   28.3220   41.7400 C   0  0  0  0  0  0  0  0  0  0  0  0
   37.0660   29.5590   41.6560 C   0  0  0  0  0  0  0  0  0  0  0  0
   38.1700   29.7180   42.5080 C   0  0  0  0  0  0  0  0  0  0  0  0
   38.5120   28.6970   43.3580 N   0  0  0  0  0  0  0  0  0  0  0  0
   37.8070   27.5560   43.3830 C   0  0  0  0  0  0  0  0  0  0  0  0
   36.7490   27.3590   42.5930 N   0  0  0  0  0  0  0  0  0  0  0  0
   37.8440   30.3634   37.8162 H   0  0  0  0  0  0  0  0  0  0  0  0
   42.3344   32.8454   40.6239 H   0  0  0  0  0  0  0  0  0  0  0  0
   43.5602   34.7132   41.7962 H   0  0  0  0  0  0  0  0  0  0  0  0
   40.0665   37.0634   41.4336 H   0  0  0  0  0  0  0  0  0  0  0  0
   35.4932   28.1520   41.0924 H   0  0  0  0  0  0  0  0  0  0  0  0
   38.7540   30.6501   42.4943 H   0  0  0  0  0  0  0  0  0  0  0  0
   38.1102   26.7576   44.0762 H   0  0  0  0  0  0  0  0  0  0  0  0
  1  5  1  0
  1 14  1  0
  2  1  2  0
  3  2  1  0
  3  4  1  0
  4  5  2  0
  4  6  1  0
  6 12  1  0
  6  7  1  0
  7  8  2  0
  8  9  1  0
  9 10  2  0
 11  9  1  0
 12 11  1  0
 13 12  2  0
 14 16  1  0
 15 20  2  0
 16 15  1  0
 16 17  2  0
 17 18  1  0
 18 19  2  0
 20 19  1  0
  2 21  1  0
  7 22  1  0
  8 23  1  0
 11 24  1  0
 15 25  1  0
 17 26  1  0
 19 27  1  0
M  ISO  7  21  14  22  14  23  14  24   9  25  14  26  14  27  14
M  END
>  <minimizedAffinity>  (1) 
-5.70431232

>  <minimizedRMSD>  (1) 
1.64720953

$$$$
