
     RDKit          3D

 30 32  0  0  0  0  0  0  0  0999 V2000
   37.8470   31.6450   40.0420 C   0  0  0  0  0  0  0  0  0  0  0  0
   38.3720   30.9400   38.9120 C   0  0  0  0  0  0  0  0  0  0  0  0
   39.7340   32.1290   38.4030 S   0  0  0  0  0  0  0  0  0  0  0  0
   39.3060   33.3080   39.8090 C   0  0  0  0  0  0  0  0  0  0  0  0
   38.4430   32.7790   40.3110 N   0  0  0  0  0  0  0  0  0  0  0  0
   39.9150   34.5690   40.1960 N   0  0  0  0  0  0  0  0  0  0  0  0
   39.0250   35.6840   40.2370 C   0  0  0  0  0  0  0  0  0  0  0  0
   39.6880   36.9940   39.9420 C   0  0  0  0  0  0  0  0  0  0  0  0
   41.0080   37.0510   40.3330 O   0  0  0  0  0  0  0  0  0  0  0  0
   41.3230   36.1020   41.2890 C   0  0  0  0  0  0  0  0  0  0  0  0
   41.3080   34.7580   40.5390 C   0  0  0  0  0  0  0  0  0  0  0  0
   36.4670   30.8310   40.8900 S   0  0  0  0  0  0  0  0  0  0  0  0
   36.4070   28.1920   41.8390 C   0  0  0  0  0  0  0  0  0  0  0  0
   37.0700   29.4490   41.8570 C   0  0  0  0  0  0  0  0  0  0  0  0
   38.2210   29.5670   42.6710 C   0  0  0  0  0  0  0  0  0  0  0  0
   38.6250   28.4790   43.3820 N   0  0  0  0  0  0  0  0  0  0  0  0
   37.9450   27.3180   43.3170 C   0  0  0  0  0  0  0  0  0  0  0  0
   36.8570   27.1460   42.5710 N   0  0  0  0  0  0  0  0  0  0  0  0
   38.0663   29.9802   38.4700 H   0  0  0  0  0  0  0  0  0  0  0  0
   38.2304   35.5217   39.4939 H   0  0  0  0  0  0  0  0  0  0  0  0
   38.6334   35.7455   41.2631 H   0  0  0  0  0  0  0  0  0  0  0  0
   39.6399   37.1702   38.8573 H   0  0  0  0  0  0  0  0  0  0  0  0
   39.1504   37.7615   40.5181 H   0  0  0  0  0  0  0  0  0  0  0  0
   42.3192   36.2967   41.7130 H   0  0  0  0  0  0  0  0  0  0  0  0
   40.6142   36.1129   42.1301 H   0  0  0  0  0  0  0  0  0  0  0  0
   41.6660   33.9440   41.1865 H   0  0  0  0  0  0  0  0  0  0  0  0
   41.9669   34.7553   39.6582 H   0  0  0  0  0  0  0  0  0  0  0  0
   35.5087   28.0664   41.2167 H   0  0  0  0  0  0  0  0  0  0  0  0
   38.7760   30.5150   42.7279 H   0  0  0  0  0  0  0  0  0  0  0  0
   38.3085   26.4673   43.9121 H   0  0  0  0  0  0  0  0  0  0  0  0
  1  5  1  0
  1 12  1  0
  2  1  2  0
  3  2  1  0
  3  4  1  0
  4  6  1  0
  4  5  2  0
  6  7  1  0
  6 11  1  0
  8  7  1  0
  8  9  1  0
  9 10  1  0
 11 10  1  0
 12 14  1  0
 13 14  2  0
 13 18  1  0
 14 15  1  0
 15 16  2  0
 17 16  1  0
 18 17  2  0
  2 19  1  0
  7 20  1  0
  7 21  1  0
  8 22  1  0
  8 23  1  0
 10 24  1  0
 10 25  1  0
 11 26  1  0
 11 27  1  0
 13 28  1  0
 15 29  1  0
 17 30  1  0
M  ISO  8  19  14  20  13  21  13  22  13  23  13  24  13  25  13  26  13
M  ISO  4  27  13  28  14  29  14  30  14
M  END
>  <minimizedAffinity>  (1) 
-5.36709738

>  <minimizedRMSD>  (1) 
0.680991292

$$$$
