
     RDKit          3D

 27 29  0  0  0  0  0  0  0  0999 V2000
   37.6450   31.5850   40.1300 C   0  0  0  0  0  0  0  0  0  0  0  0
   38.3530   30.9720   39.0610 C   0  0  0  0  0  0  0  0  0  0  0  0
   39.5730   32.3450   38.7020 S   0  0  0  0  0  0  0  0  0  0  0  0
   38.8660   33.4410   40.0630 C   0  0  0  0  0  0  0  0  0  0  0  0
   38.0350   32.7860   40.4790 N   0  0  0  0  0  0  0  0  0  0  0  0
   39.5180   34.7670   40.2320 C   0  0  0  0  0  0  0  0  0  0  0  0
   38.9210   35.9550   39.9650 C   0  0  0  0  0  0  0  0  0  0  0  0
   39.6680   37.1150   40.1750 C   0  0  0  0  0  0  0  0  0  0  0  0
   40.9580   36.9820   40.6400 C   0  0  0  0  0  0  0  0  0  0  0  0
   41.5700   35.7610   40.9140 C   0  0  0  0  0  0  0  0  0  0  0  0
   40.7970   34.6260   40.6920 C   0  0  0  0  0  0  0  0  0  0  0  0
   36.2970   30.5990   40.8530 S   0  0  0  0  0  0  0  0  0  0  0  0
   36.3510   28.0170   41.9590 C   0  0  0  0  0  0  0  0  0  0  0  0
   36.9440   29.2940   41.8680 C   0  0  0  0  0  0  0  0  0  0  0  0
   38.1000   29.4970   42.6340 C   0  0  0  0  0  0  0  0  0  0  0  0
   38.5840   28.4830   43.4080 N   0  0  0  0  0  0  0  0  0  0  0  0
   37.9670   27.2850   43.4510 C   0  0  0  0  0  0  0  0  0  0  0  0
   36.8650   27.0340   42.7430 N   0  0  0  0  0  0  0  0  0  0  0  0
   38.2231   29.9876   38.5875 H   0  0  0  0  0  0  0  0  0  0  0  0
   37.8857   36.0026   39.5963 H   0  0  0  0  0  0  0  0  0  0  0  0
   39.2388   38.1078   39.9748 H   0  0  0  0  0  0  0  0  0  0  0  0
   41.5424   37.8991   40.8056 H   0  0  0  0  0  0  0  0  0  0  0  0
   42.6039   35.6980   41.2842 H   0  0  0  0  0  0  0  0  0  0  0  0
   41.2110   33.6253   40.8848 H   0  0  0  0  0  0  0  0  0  0  0  0
   35.4418   27.8105   41.3754 H   0  0  0  0  0  0  0  0  0  0  0  0
   38.6145   30.4690   42.6113 H   0  0  0  0  0  0  0  0  0  0  0  0
   38.3846   26.4917   44.0884 H   0  0  0  0  0  0  0  0  0  0  0  0
  1  5  1  0
  1 12  1  0
  2  1  2  0
  3  2  1  0
  3  4  1  0
  4  6  1  0
  4  5  2  0
  6 11  2  0
  7  8  2  0
  7  6  1  0
  8  9  1  0
  9 10  2  0
 11 10  1  0
 12 14  1  0
 13 18  2  0
 14 13  1  0
 14 15  2  0
 15 16  1  0
 16 17  2  0
 18 17  1  0
  2 19  1  0
  7 20  1  0
  8 21  1  0
  9 22  1  0
 10 23  1  0
 11 24  1  0
 13 25  1  0
 15 26  1  0
 17 27  1  0
M  ISO  8  19  14  20  14  21  14  22  14  23  14  24  14  25  14  26  14
M  ISO  1  27  14
M  END
>  <minimizedAffinity>  (1) 
-5.31879091

>  <minimizedRMSD>  (1) 
0.43628481

$$$$
