
     RDKit          3D

 26 28  0  0  0  0  0  0  0  0999 V2000
   37.7170   31.6080   40.1420 C   0  0  0  0  0  0  0  0  0  0  0  0
   38.2740   30.9670   39.0080 C   0  0  0  0  0  0  0  0  0  0  0  0
   39.5850   32.2300   38.5480 S   0  0  0  0  0  0  0  0  0  0  0  0
   39.1000   33.3470   39.9840 C   0  0  0  0  0  0  0  0  0  0  0  0
   38.2530   32.7600   40.4620 N   0  0  0  0  0  0  0  0  0  0  0  0
   39.7920   34.6610   40.2560 C   0  0  0  0  0  0  0  0  0  0  0  0
   39.0410   35.7820   39.9750 C   0  0  0  0  0  0  0  0  0  0  0  0
   39.6710   36.9690   40.2220 C   0  0  0  0  0  0  0  0  0  0  0  0
   40.9650   36.9690   40.7180 C   0  0  0  0  0  0  0  0  0  0  0  0
   41.6330   35.8010   40.9670 C   0  0  0  0  0  0  0  0  0  0  0  0
   41.0440   34.6060   40.7340 N   0  0  0  0  0  0  0  0  0  0  0  0
   36.3580   30.7130   40.9520 S   0  0  0  0  0  0  0  0  0  0  0  0
   36.3680   28.0710   41.9160 C   0  0  0  0  0  0  0  0  0  0  0  0
   36.9960   29.3450   41.9010 C   0  0  0  0  0  0  0  0  0  0  0  0
   38.1550   29.4850   42.6770 C   0  0  0  0  0  0  0  0  0  0  0  0
   38.6230   28.4170   43.3970 N   0  0  0  0  0  0  0  0  0  0  0  0
   37.9660   27.2260   43.3620 C   0  0  0  0  0  0  0  0  0  0  0  0
   36.8650   27.0560   42.6390 N   0  0  0  0  0  0  0  0  0  0  0  0
   38.0141   30.0086   38.5348 H   0  0  0  0  0  0  0  0  0  0  0  0
   38.0149   35.7255   39.5827 H   0  0  0  0  0  0  0  0  0  0  0  0
   39.1535   37.9201   40.0281 H   0  0  0  0  0  0  0  0  0  0  0  0
   41.4658   37.9282   40.9157 H   0  0  0  0  0  0  0  0  0  0  0  0
   42.6596   35.8343   41.3607 H   0  0  0  0  0  0  0  0  0  0  0  0
   35.4553   27.9134   41.3226 H   0  0  0  0  0  0  0  0  0  0  0  0
   38.6864   30.4477   42.7079 H   0  0  0  0  0  0  0  0  0  0  0  0
   38.3572   26.3814   43.9482 H   0  0  0  0  0  0  0  0  0  0  0  0
  1  5  1  0
  1 12  1  0
  2  1  2  0
  3  2  1  0
  3  4  1  0
  4  6  1  0
  4  5  2  0
  6 11  2  0
  7  8  2  0
  7  6  1  0
  8  9  1  0
  9 10  2  0
 11 10  1  0
 12 14  1  0
 13 18  2  0
 14 13  1  0
 14 15  2  0
 15 16  1  0
 17 16  2  0
 18 17  1  0
  2 19  1  0
  7 20  1  0
  8 21  1  0
  9 22  1  0
 10 23  1  0
 13 24  1  0
 15 25  1  0
 17 26  1  0
M  ISO  8  19  14  20  14  21  14  22  14  23  14  24  14  25  14  26  14
M  END
>  <minimizedAffinity>  (1) 
-5.25508118

>  <minimizedRMSD>  (1) 
0.508057117

$$$$
