
     RDKit          3D

 32 34  0  0  0  0  0  0  0  0999 V2000
   38.7850   31.9750   40.0770 C   0  0  0  0  0  0  0  0  0  0  0  0
   39.4450   31.0810   39.1890 C   0  0  0  0  0  0  0  0  0  0  0  0
   41.0440   31.9980   38.8930 S   0  0  0  0  0  0  0  0  0  0  0  0
   40.4910   33.4150   40.0440 C   0  0  0  0  0  0  0  0  0  0  0  0
   39.4590   33.0610   40.3770 N   0  0  0  0  0  0  0  0  0  0  0  0
   41.3120   34.5530   40.3060 N   0  0  0  0  0  0  0  0  0  0  0  0
   40.9140   35.8260   39.7150 C   0  0  0  0  0  0  0  0  0  0  0  0
   40.6960   36.7970   40.8230 C   0  0  0  0  0  0  0  0  0  0  0  0
   41.6170   36.7420   41.9700 C   0  0  0  0  0  0  0  0  0  0  0  0
   42.7480   35.7870   41.8930 C   0  0  0  0  0  0  0  0  0  0  0  0
   42.5270   34.5420   41.1220 C   0  0  0  0  0  0  0  0  0  0  0  0
   37.1430   31.4420   40.6220 S   0  0  0  0  0  0  0  0  0  0  0  0
   36.3470   28.9030   41.5170 C   0  0  0  0  0  0  0  0  0  0  0  0
   37.2700   29.9640   41.6290 C   0  0  0  0  0  0  0  0  0  0  0  0
   38.3060   29.8130   42.5700 C   0  0  0  0  0  0  0  0  0  0  0  0
   38.3640   28.6710   43.3140 N   0  0  0  0  0  0  0  0  0  0  0  0
   37.4550   27.6940   43.1640 C   0  0  0  0  0  0  0  0  0  0  0  0
   36.4460   27.7870   42.2780 N   0  0  0  0  0  0  0  0  0  0  0  0
   39.1063   30.1147   38.7871 H   0  0  0  0  0  0  0  0  0  0  0  0
   41.7078   36.1926   39.0476 H   0  0  0  0  0  0  0  0  0  0  0  0
   39.9930   35.7037   39.1261 H   0  0  0  0  0  0  0  0  0  0  0  0
   40.7657   37.8072   40.3934 H   0  0  0  0  0  0  0  0  0  0  0  0
   39.7145   36.5279   41.2404 H   0  0  0  0  0  0  0  0  0  0  0  0
   42.0430   37.7479   42.0993 H   0  0  0  0  0  0  0  0  0  0  0  0
   41.0015   36.3812   42.8072 H   0  0  0  0  0  0  0  0  0  0  0  0
   43.5970   36.3148   41.4342 H   0  0  0  0  0  0  0  0  0  0  0  0
   42.9122   35.4555   42.9289 H   0  0  0  0  0  0  0  0  0  0  0  0
   42.4595   33.7038   41.8311 H   0  0  0  0  0  0  0  0  0  0  0  0
   43.3747   34.4436   40.4280 H   0  0  0  0  0  0  0  0  0  0  0  0
   35.5241   28.9843   40.7915 H   0  0  0  0  0  0  0  0  0  0  0  0
   39.0581   30.6046   42.7035 H   0  0  0  0  0  0  0  0  0  0  0  0
   37.5376   26.7895   43.7845 H   0  0  0  0  0  0  0  0  0  0  0  0
  1  5  1  0
  1 12  1  0
  2  1  2  0
  3  2  1  0
  3  4  1  0
  4  6  1  0
  4  5  2  0
  6 11  1  0
  7  6  1  0
  7  8  1  0
  8  9  1  0
 10  9  1  0
 11 10  1  0
 12 14  1  0
 13 14  2  0
 13 18  1  0
 14 15  1  0
 15 16  2  0
 17 16  1  0
 18 17  2  0
  2 19  1  0
  7 20  1  0
  7 21  1  0
  8 22  1  0
  8 23  1  0
  9 24  1  0
  9 25  1  0
 10 26  1  0
 10 27  1  0
 11 28  1  0
 11 29  1  0
 13 30  1  0
 15 31  1  0
 17 32  1  0
M  ISO  8  19  14  20  13  21  13  22  13  23  13  24  13  25  13  26  13
M  ISO  6  27  13  28  13  29  13  30  14  31  14  32  14
M  END
>  <minimizedAffinity>  (1) 
-5.2036767

>  <minimizedRMSD>  (1) 
1.46343434

$$$$
