
     RDKit          3D

 24 26  0  0  0  0  0  0  0  0999 V2000
   37.9070   31.7570   40.1810 C   0  0  0  0  0  0  0  0  0  0  0  0
   38.6500   31.0100   39.2280 C   0  0  0  0  0  0  0  0  0  0  0  0
   39.9540   32.2690   38.7630 S   0  0  0  0  0  0  0  0  0  0  0  0
   39.2230   33.5420   39.9510 C   0  0  0  0  0  0  0  0  0  0  0  0
   38.3500   32.9680   40.3900 N   0  0  0  0  0  0  0  0  0  0  0  0
   39.8180   34.9250   40.1190 C   0  0  0  0  0  0  0  0  0  0  0  0
   39.1920   36.1440   40.0480 C   0  0  0  0  0  0  0  0  0  0  0  0
   40.1560   37.0790   40.2700 C   0  0  0  0  0  0  0  0  0  0  0  0
   41.3140   36.4230   40.4640 N   0  0  0  0  0  0  0  0  0  0  0  0
   41.1320   35.1140   40.3780 N   0  0  0  0  0  0  0  0  0  0  0  0
   36.4960   30.9060   40.9290 S   0  0  0  0  0  0  0  0  0  0  0  0
   36.4060   28.2160   41.7710 C   0  0  0  0  0  0  0  0  0  0  0  0
   37.0580   29.4770   41.8520 C   0  0  0  0  0  0  0  0  0  0  0  0
   38.1840   29.5570   42.7040 C   0  0  0  0  0  0  0  0  0  0  0  0
   38.5730   28.4470   43.3860 N   0  0  0  0  0  0  0  0  0  0  0  0
   37.8970   27.2750   43.2550 C   0  0  0  0  0  0  0  0  0  0  0  0
   36.8280   27.1470   42.4640 N   0  0  0  0  0  0  0  0  0  0  0  0
   38.5009   29.9821   38.8658 H   0  0  0  0  0  0  0  0  0  0  0  0
   38.1256   36.3285   39.8512 H   0  0  0  0  0  0  0  0  0  0  0  0
   40.0141   38.1697   40.2875 H   0  0  0  0  0  0  0  0  0  0  0  0
   42.2190   36.8768   40.6536 H   0  0  0  0  0  0  0  0  0  0  0  0
   35.5264   28.1132   41.1186 H   0  0  0  0  0  0  0  0  0  0  0  0
   38.7362   30.5021   42.8131 H   0  0  0  0  0  0  0  0  0  0  0  0
   38.2434   26.3984   43.8220 H   0  0  0  0  0  0  0  0  0  0  0  0
  1  5  1  0
  1 11  1  0
  2  1  2  0
  3  2  1  0
  3  4  1  0
  4  6  1  0
  4  5  2  0
  6 10  2  0
  7  6  1  0
  7  8  2  0
  8  9  1  0
 10  9  1  0
 11 13  1  0
 12 13  2  0
 12 17  1  0
 13 14  1  0
 14 15  2  0
 16 15  1  0
 17 16  2  0
  2 18  1  0
  7 19  1  0
  8 20  1  0
  9 21  1  0
 12 22  1  0
 14 23  1  0
 16 24  1  0
M  ISO  7  18  14  19  14  20  14  21   9  22  14  23  14  24  14
M  END
>  <minimizedAffinity>  (1) 
-5.15728331

>  <minimizedRMSD>  (1) 
0.467533469

$$$$
