
     RDKit          3D

 25 27  0  0  0  0  0  0  0  0999 V2000
   37.7360   31.6500   40.2020 C   0  0  0  0  0  0  0  0  0  0  0  0
   38.3820   30.9840   39.1010 C   0  0  0  0  0  0  0  0  0  0  0  0
   39.6700   32.2730   38.6620 S   0  0  0  0  0  0  0  0  0  0  0  0
   39.0750   33.4210   40.0350 C   0  0  0  0  0  0  0  0  0  0  0  0
   38.2230   32.8300   40.5010 N   0  0  0  0  0  0  0  0  0  0  0  0
   39.7270   34.7540   40.2690 C   0  0  0  0  0  0  0  0  0  0  0  0
   39.0340   35.9110   39.9720 C   0  0  0  0  0  0  0  0  0  0  0  0
   39.6880   37.0870   40.2090 C   0  0  0  0  0  0  0  0  0  0  0  0
   40.9370   37.0820   40.7060 N   0  0  0  0  0  0  0  0  0  0  0  0
   41.5900   35.9620   40.9850 C   0  0  0  0  0  0  0  0  0  0  0  0
   40.9760   34.7690   40.7640 N   0  0  0  0  0  0  0  0  0  0  0  0
   36.3780   30.7420   40.9730 S   0  0  0  0  0  0  0  0  0  0  0  0
   36.3890   28.0780   41.9120 C   0  0  0  0  0  0  0  0  0  0  0  0
   37.0150   29.3580   41.9130 C   0  0  0  0  0  0  0  0  0  0  0  0
   38.1820   29.4900   42.7020 C   0  0  0  0  0  0  0  0  0  0  0  0
   38.6280   28.4100   43.3990 N   0  0  0  0  0  0  0  0  0  0  0  0
   37.9820   27.2260   43.3490 C   0  0  0  0  0  0  0  0  0  0  0  0
   36.8650   27.0430   42.6140 N   0  0  0  0  0  0  0  0  0  0  0  0
   38.1785   30.0024   38.6483 H   0  0  0  0  0  0  0  0  0  0  0  0
   38.0116   35.8871   39.5669 H   0  0  0  0  0  0  0  0  0  0  0  0
   39.1896   38.0433   39.9919 H   0  0  0  0  0  0  0  0  0  0  0  0
   42.6125   35.9975   41.3890 H   0  0  0  0  0  0  0  0  0  0  0  0
   35.4790   27.9351   41.3107 H   0  0  0  0  0  0  0  0  0  0  0  0
   38.7191   30.4487   42.7510 H   0  0  0  0  0  0  0  0  0  0  0  0
   38.3802   26.3798   43.9281 H   0  0  0  0  0  0  0  0  0  0  0  0
  1  5  1  0
  1 12  1  0
  2  1  2  0
  3  2  1  0
  3  4  1  0
  4  6  1  0
  4  5  2  0
  6 11  2  0
  7  8  2  0
  7  6  1  0
  8  9  1  0
  9 10  2  0
 11 10  1  0
 12 14  1  0
 13 14  2  0
 13 18  1  0
 14 15  1  0
 15 16  2  0
 17 16  1  0
 18 17  2  0
  2 19  1  0
  7 20  1  0
  8 21  1  0
 10 22  1  0
 13 23  1  0
 15 24  1  0
 17 25  1  0
M  ISO  7  19  14  20  14  21  14  22  14  23  14  24  14  25  14
M  END
>  <minimizedAffinity>  (1) 
-5.14780664

>  <minimizedRMSD>  (1) 
0.551018775

$$$$
