
     RDKit          3D

 25 27  0  0  0  0  0  0  0  0999 V2000
   37.7540   31.6390   40.1870 C   0  0  0  0  0  0  0  0  0  0  0  0
   38.3510   30.9820   39.0590 C   0  0  0  0  0  0  0  0  0  0  0  0
   39.6480   32.2570   38.6190 S   0  0  0  0  0  0  0  0  0  0  0  0
   39.1140   33.3870   40.0300 C   0  0  0  0  0  0  0  0  0  0  0  0
   38.2620   32.8030   40.5080 N   0  0  0  0  0  0  0  0  0  0  0  0
   39.8130   34.7430   40.2900 C   0  0  0  0  0  0  0  0  0  0  0  0
   39.0450   35.8160   39.9770 C   0  0  0  0  0  0  0  0  0  0  0  0
   39.6580   37.0270   40.2040 C   0  0  0  0  0  0  0  0  0  0  0  0
   40.9270   37.0700   40.7020 N   0  0  0  0  0  0  0  0  0  0  0  0
   41.6210   35.9490   40.9870 C   0  0  0  0  0  0  0  0  0  0  0  0
   41.0450   34.7350   40.7730 N   0  0  0  0  0  0  0  0  0  0  0  0
   36.3890   30.7460   40.9860 S   0  0  0  0  0  0  0  0  0  0  0  0
   36.3820   28.0930   41.9070 C   0  0  0  0  0  0  0  0  0  0  0  0
   37.0020   29.3560   41.9090 C   0  0  0  0  0  0  0  0  0  0  0  0
   38.1600   29.4820   42.6940 C   0  0  0  0  0  0  0  0  0  0  0  0
   38.6220   28.4050   43.4000 N   0  0  0  0  0  0  0  0  0  0  0  0
   37.9660   27.2160   43.3450 C   0  0  0  0  0  0  0  0  0  0  0  0
   36.8640   27.0430   42.6180 N   0  0  0  0  0  0  0  0  0  0  0  0
   38.1156   30.0146   38.5913 H   0  0  0  0  0  0  0  0  0  0  0  0
   38.0240   35.7264   39.5776 H   0  0  0  0  0  0  0  0  0  0  0  0
   39.1232   37.9626   39.9833 H   0  0  0  0  0  0  0  0  0  0  0  0
   42.6429   36.0156   41.3886 H   0  0  0  0  0  0  0  0  0  0  0  0
   35.4717   27.9516   41.3060 H   0  0  0  0  0  0  0  0  0  0  0  0
   38.6933   30.4429   42.7409 H   0  0  0  0  0  0  0  0  0  0  0  0
   38.3596   26.3661   43.9218 H   0  0  0  0  0  0  0  0  0  0  0  0
  1  5  1  0
  1 12  1  0
  2  1  2  0
  3  2  1  0
  3  4  1  0
  4  6  1  0
  4  5  2  0
  6 11  2  0
  7  8  2  0
  7  6  1  0
  8  9  1  0
  9 10  2  0
 11 10  1  0
 12 14  1  0
 13 14  2  0
 13 18  1  0
 14 15  1  0
 15 16  2  0
 17 16  1  0
 18 17  2  0
  2 19  1  0
  7 20  1  0
  8 21  1  0
 10 22  1  0
 13 23  1  0
 15 24  1  0
 17 25  1  0
M  ISO  7  19  14  20  14  21  14  22  14  23  14  24  14  25  14
M  END
>  <minimizedAffinity>  (1) 
-5.1173563

>  <minimizedRMSD>  (1) 
0.59309411

$$$$
