
     RDKit          3D

 24 26  0  0  0  0  0  0  0  0999 V2000
   37.6590   31.6440   40.1490 C   0  0  0  0  0  0  0  0  0  0  0  0
   38.4890   31.0060   39.1830 C   0  0  0  0  0  0  0  0  0  0  0  0
   39.6520   32.4040   38.8150 S   0  0  0  0  0  0  0  0  0  0  0  0
   38.7820   33.5510   40.0330 C   0  0  0  0  0  0  0  0  0  0  0  0
   37.9540   32.8850   40.4370 N   0  0  0  0  0  0  0  0  0  0  0  0
   39.3580   34.9210   40.1420 C   0  0  0  0  0  0  0  0  0  0  0  0
   38.8930   36.1550   39.9680 C   0  0  0  0  0  0  0  0  0  0  0  0
   39.7290   37.2110   40.1600 C   0  0  0  0  0  0  0  0  0  0  0  0
   41.1420   36.8670   40.5640 C   0  0  0  0  0  0  0  0  0  0  0  0
   41.0300   34.9750   40.6030 S   0  0  0  0  0  0  0  0  0  0  0  0
   36.3120   30.6280   40.8350 S   0  0  0  0  0  0  0  0  0  0  0  0
   36.3660   28.0450   41.9430 C   0  0  0  0  0  0  0  0  0  0  0  0
   36.9750   29.3270   41.8620 C   0  0  0  0  0  0  0  0  0  0  0  0
   38.1280   29.5300   42.6270 C   0  0  0  0  0  0  0  0  0  0  0  0
   38.6020   28.5130   43.3960 N   0  0  0  0  0  0  0  0  0  0  0  0
   37.9790   27.3110   43.4340 C   0  0  0  0  0  0  0  0  0  0  0  0
   36.8800   27.0660   42.7260 N   0  0  0  0  0  0  0  0  0  0  0  0
   38.4515   29.9851   38.7753 H   0  0  0  0  0  0  0  0  0  0  0  0
   37.8462   36.3195   39.6727 H   0  0  0  0  0  0  0  0  0  0  0  0
   39.3958   38.2511   40.0289 H   0  0  0  0  0  0  0  0  0  0  0  0
   41.9957   37.5276   40.7759 H   0  0  0  0  0  0  0  0  0  0  0  0
   35.4572   27.8434   41.3569 H   0  0  0  0  0  0  0  0  0  0  0  0
   38.6454   30.5005   42.6071 H   0  0  0  0  0  0  0  0  0  0  0  0
   38.3940   26.5143   44.0688 H   0  0  0  0  0  0  0  0  0  0  0  0
  1  5  1  0
  1 11  1  0
  2  1  2  0
  3  2  1  0
  3  4  1  0
  4  6  1  0
  4  5  2  0
  6 10  1  0
  7  6  2  0
  7  8  1  0
  8  9  2  0
  9 10  1  0
 11 13  1  0
 12 17  2  0
 13 12  1  0
 13 14  2  0
 14 15  1  0
 15 16  2  0
 17 16  1  0
  2 18  1  0
  7 19  1  0
  8 20  1  0
  9 21  1  0
 12 22  1  0
 14 23  1  0
 16 24  1  0
M  ISO  7  18  14  19  14  20  14  21  14  22  14  23  14  24  14
M  END
>  <minimizedAffinity>  (1) 
-4.90421867

>  <minimizedRMSD>  (1) 
0.339378029

$$$$
