
     RDKit          3D

 20 21  0  0  0  0  0  0  0  0999 V2000
   36.4480   30.8840   40.8650 S   0  0  0  0  0  0  0  0  0  0  0  0
   36.4230   28.2170   41.7430 C   0  0  0  0  0  0  0  0  0  0  0  0
   37.0320   29.4880   41.7920 C   0  0  0  0  0  0  0  0  0  0  0  0
   38.1450   29.6020   42.6260 C   0  0  0  0  0  0  0  0  0  0  0  0
   38.5870   28.5180   43.3370 N   0  0  0  0  0  0  0  0  0  0  0  0
   37.9460   27.3220   43.2380 C   0  0  0  0  0  0  0  0  0  0  0  0
   36.8800   27.1750   42.4510 N   0  0  0  0  0  0  0  0  0  0  0  0
   37.8450   31.8570   40.2220 C   0  0  0  0  0  0  0  0  0  0  0  0
   38.7160   31.1640   39.3360 C   0  0  0  0  0  0  0  0  0  0  0  0
   39.9380   32.5010   38.9580 S   0  0  0  0  0  0  0  0  0  0  0  0
   39.0370   33.7390   40.0680 C   0  0  0  0  0  0  0  0  0  0  0  0
   38.1740   33.1050   40.4520 N   0  0  0  0  0  0  0  0  0  0  0  0
   39.2800   35.2090   40.4430 C   0  0  0  0  0  0  0  0  0  0  0  0
   38.7260   36.1770   39.8670 O   0  0  0  0  0  0  0  0  0  0  0  0
   40.1630   35.4200   41.4740 O   0  0  0  0  0  0  0  0  0  0  0  0
   35.5413   28.0758   41.1006 H   0  0  0  0  0  0  0  0  0  0  0  0
   38.6689   30.5653   42.7127 H   0  0  0  0  0  0  0  0  0  0  0  0
   38.3135   26.4619   43.8170 H   0  0  0  0  0  0  0  0  0  0  0  0
   38.6746   30.1252   38.9766 H   0  0  0  0  0  0  0  0  0  0  0  0
   40.3677   36.3424   41.7695 H   0  0  0  0  0  0  0  0  0  0  0  0
  1  3  1  0
  2  3  2  0
  2  7  1  0
  3  4  1  0
  4  5  2  0
  6  5  1  0
  7  6  2  0
  8 12  1  0
  8  1  1  0
  9  8  2  0
 10  9  1  0
 10 11  1  0
 11 13  1  0
 11 12  2  0
 13 15  1  0
 14 13  2  0
  2 16  1  0
  4 17  1  0
  6 18  1  0
  9 19  1  0
 15 20  1  0
M  ISO  5  16  14  17  14  18  14  19  14  20   3
M  END
>  <minimizedAffinity>  (1) 
-4.61415577

>  <minimizedRMSD>  (1) 
0.212116599

$$$$
