
     RDKit          3D

 24 26  0  0  0  0  0  0  0  0999 V2000
   36.5410   30.9670   40.7970 S   0  0  0  0  0  0  0  0  0  0  0  0
   36.3900   28.3130   41.7220 C   0  0  0  0  0  0  0  0  0  0  0  0
   37.0580   29.5530   41.7640 C   0  0  0  0  0  0  0  0  0  0  0  0
   38.1710   29.6400   42.6120 C   0  0  0  0  0  0  0  0  0  0  0  0
   38.5370   28.5370   43.3390 N   0  0  0  0  0  0  0  0  0  0  0  0
   37.8450   27.3830   43.2450 C   0  0  0  0  0  0  0  0  0  0  0  0
   36.7810   27.2520   42.4510 N   0  0  0  0  0  0  0  0  0  0  0  0
   37.9710   31.9470   40.2990 C   0  0  0  0  0  0  0  0  0  0  0  0
   38.8510   31.3400   39.3640 C   0  0  0  0  0  0  0  0  0  0  0  0
   40.1340   32.6890   39.1630 S   0  0  0  0  0  0  0  0  0  0  0  0
   39.2140   33.8100   40.3920 C   0  0  0  0  0  0  0  0  0  0  0  0
   38.3290   33.1510   40.6720 N   0  0  0  0  0  0  0  0  0  0  0  0
   39.6980   35.1640   40.7540 C   0  0  0  0  0  0  0  0  0  0  0  0
   40.5990   35.8770   39.7570 C   0  0  0  0  0  0  0  0  0  0  0  0
   39.2030   36.3490   39.9990 C   0  0  0  0  0  0  0  0  0  0  0  0
   35.5130   28.2082   41.0664 H   0  0  0  0  0  0  0  0  0  0  0  0
   38.7409   30.5774   42.6926 H   0  0  0  0  0  0  0  0  0  0  0  0
   38.1694   26.5195   43.8442 H   0  0  0  0  0  0  0  0  0  0  0  0
   38.7944   30.3497   38.8886 H   0  0  0  0  0  0  0  0  0  0  0  0
   39.7483   34.8979   41.8201 H   0  0  0  0  0  0  0  0  0  0  0  0
   40.8608   35.3926   38.8047 H   0  0  0  0  0  0  0  0  0  0  0  0
   41.5978   36.3364   39.7944 H   0  0  0  0  0  0  0  0  0  0  0  0
   39.0312   37.2994   40.5255 H   0  0  0  0  0  0  0  0  0  0  0  0
   38.3331   36.5428   39.3543 H   0  0  0  0  0  0  0  0  0  0  0  0
  1  3  1  0
  2  3  2  0
  2  7  1  0
  3  4  1  0
  4  5  2  0
  6  5  1  0
  7  6  2  0
  8 12  1  0
  8  1  1  0
  9  8  2  0
 10  9  1  0
 10 11  1  0
 11 12  2  0
 11 13  1  0
 14 15  1  0
 14 13  1  0
 15 13  1  0
  2 16  1  0
  4 17  1  0
  6 18  1  0
  9 19  1  0
 13 20  1  0
 14 21  1  0
 14 22  1  0
 15 23  1  0
 15 24  1  0
M  ISO  8  16  14  17  14  18  14  19  14  20  13  21  13  22  13  23  13
M  ISO  1  24  13
M  END
>  <minimizedAffinity>  (1) 
-4.53224421

>  <minimizedRMSD>  (1) 
0.282238841

$$$$
