
     RDKit          3D

 19 20  0  0  0  0  0  0  0  0999 V2000
   36.3950   30.7440   40.8140 S   0  0  0  0  0  0  0  0  0  0  0  0
   36.4100   28.1330   41.8670 C   0  0  0  0  0  0  0  0  0  0  0  0
   37.0140   29.4130   41.8160 C   0  0  0  0  0  0  0  0  0  0  0  0
   38.1560   29.5890   42.6140 C   0  0  0  0  0  0  0  0  0  0  0  0
   38.6220   28.5540   43.3810 N   0  0  0  0  0  0  0  0  0  0  0  0
   37.9810   27.3580   43.3710 C   0  0  0  0  0  0  0  0  0  0  0  0
   36.8850   27.1330   42.6270 N   0  0  0  0  0  0  0  0  0  0  0  0
   37.7590   31.8130   40.2630 C   0  0  0  0  0  0  0  0  0  0  0  0
   38.6960   31.2360   39.3550 C   0  0  0  0  0  0  0  0  0  0  0  0
   39.8400   32.6860   39.1170 S   0  0  0  0  0  0  0  0  0  0  0  0
   38.8210   33.7660   40.2860 C   0  0  0  0  0  0  0  0  0  0  0  0
   37.9880   33.0570   40.6000 N   0  0  0  0  0  0  0  0  0  0  0  0
   39.3330   35.1410   40.4720 C   0  0  0  0  0  0  0  0  0  0  0  0
   38.8330   36.1380   39.9130 O   0  0  0  0  0  0  0  0  0  0  0  0
   35.5127   27.9500   41.2575 H   0  0  0  0  0  0  0  0  0  0  0  0
   38.6764   30.5580   42.6232 H   0  0  0  0  0  0  0  0  0  0  0  0
   38.3734   26.5419   43.9955 H   0  0  0  0  0  0  0  0  0  0  0  0
   38.7322   30.2260   38.9208 H   0  0  0  0  0  0  0  0  0  0  0  0
   40.1971   35.2920   41.1358 H   0  0  0  0  0  0  0  0  0  0  0  0
  1  3  1  0
  2  7  2  0
  3  2  1  0
  3  4  2  0
  4  5  1  0
  6  5  2  0
  7  6  1  0
  8 12  1  0
  8  1  1  0
  9  8  2  0
 10  9  1  0
 10 11  1  0
 11 13  1  0
 11 12  2  0
 14 13  2  0
  2 15  1  0
  4 16  1  0
  6 17  1  0
  9 18  1  0
 13 19  1  0
M  ISO  5  15  14  16  14  17  14  18  14  19   6
M  END
>  <minimizedAffinity>  (1) 
-4.16914749

>  <minimizedRMSD>  (1) 
0.178590894

$$$$
