
     RDKit          3D

 18 19  0  0  0  0  0  0  0  0999 V2000
   36.4260   28.1430   41.8080 C   0  0  0  0  0  0  0  0  0  0  0  0
   37.0280   29.4300   41.8470 C   0  0  0  0  0  0  0  0  0  0  0  0
   38.1650   29.5670   42.6710 C   0  0  0  0  0  0  0  0  0  0  0  0
   38.6210   28.4870   43.3730 N   0  0  0  0  0  0  0  0  0  0  0  0
   37.9900   27.2890   43.2830 C   0  0  0  0  0  0  0  0  0  0  0  0
   36.9160   27.1080   42.5220 N   0  0  0  0  0  0  0  0  0  0  0  0
   36.3940   30.8080   40.9120 S   0  0  0  0  0  0  0  0  0  0  0  0
   37.7630   31.7740   40.2140 C   0  0  0  0  0  0  0  0  0  0  0  0
   38.6090   31.0740   39.3130 C   0  0  0  0  0  0  0  0  0  0  0  0
   39.8200   32.4280   38.8780 S   0  0  0  0  0  0  0  0  0  0  0  0
   38.9400   33.6650   39.9990 C   0  0  0  0  0  0  0  0  0  0  0  0
   38.0930   33.0270   40.4140 N   0  0  0  0  0  0  0  0  0  0  0  0
   39.2920   35.4430   40.3740 S   0  0  0  0  0  0  0  0  0  0  0  0
   35.5371   27.9865   41.1792 H   0  0  0  0  0  0  0  0  0  0  0  0
   38.6804   30.5357   42.7477 H   0  0  0  0  0  0  0  0  0  0  0  0
   38.3813   26.4382   43.8601 H   0  0  0  0  0  0  0  0  0  0  0  0
   38.5638   30.0302   38.9689 H   0  0  0  0  0  0  0  0  0  0  0  0
   39.3280   35.6250   41.7314 H   0  0  0  0  0  0  0  0  0  0  0  0
  1  2  2  0
  1  6  1  0
  2  3  1  0
  3  4  2  0
  5  4  1  0
  6  5  2  0
  7  2  1  0
  8 12  1  0
  8  7  1  0
  9  8  2  0
 10  9  1  0
 10 11  1  0
 11 13  1  0
 11 12  2  0
  1 14  1  0
  3 15  1  0
  5 16  1  0
  9 17  1  0
 13 18  1  0
M  ISO  5  14  14  15  14  16  14  17  14  18  11
M  END
>  <minimizedAffinity>  (1) 
-3.96971416

>  <minimizedRMSD>  (1) 
0.143151611

$$$$
