
     RDKit          3D

 19 20  0  0  0  0  0  0  0  0999 V2000
   36.3810   30.7800   40.8200 S   0  0  0  0  0  0  0  0  0  0  0  0
   36.4310   28.1320   41.7890 C   0  0  0  0  0  0  0  0  0  0  0  0
   37.0170   29.4240   41.8010 C   0  0  0  0  0  0  0  0  0  0  0  0
   38.1380   29.6040   42.6260 C   0  0  0  0  0  0  0  0  0  0  0  0
   38.6020   28.5520   43.3630 N   0  0  0  0  0  0  0  0  0  0  0  0
   37.9920   27.3420   43.3040 C   0  0  0  0  0  0  0  0  0  0  0  0
   36.9240   27.1220   42.5330 N   0  0  0  0  0  0  0  0  0  0  0  0
   37.7250   31.8500   40.2800 C   0  0  0  0  0  0  0  0  0  0  0  0
   38.7060   31.2540   39.4410 C   0  0  0  0  0  0  0  0  0  0  0  0
   39.8500   32.7050   39.1570 S   0  0  0  0  0  0  0  0  0  0  0  0
   38.7590   33.8330   40.2420 C   0  0  0  0  0  0  0  0  0  0  0  0
   37.9320   33.1160   40.5540 N   0  0  0  0  0  0  0  0  0  0  0  0
   39.0340   35.2140   40.5090 N   0  0  0  0  0  0  0  0  0  0  0  0
   35.5505   27.9496   41.1554 H   0  0  0  0  0  0  0  0  0  0  0  0
   38.6378   30.5825   42.6785 H   0  0  0  0  0  0  0  0  0  0  0  0
   38.3898   26.5152   43.9108 H   0  0  0  0  0  0  0  0  0  0  0  0
   38.7733   30.2231   39.0631 H   0  0  0  0  0  0  0  0  0  0  0  0
   38.3966   35.7599   41.1062 H   0  0  0  0  0  0  0  0  0  0  0  0
   39.8690   35.6606   40.1037 H   0  0  0  0  0  0  0  0  0  0  0  0
  1  3  1  0
  2  3  2  0
  2  7  1  0
  3  4  1  0
  4  5  2  0
  6  5  1  0
  7  6  2  0
  8 12  1  0
  8  1  1  0
  9  8  2  0
 10  9  1  0
 10 11  1  0
 11 13  1  0
 11 12  2  0
  2 14  1  0
  4 15  1  0
  6 16  1  0
  9 17  1  0
 13 18  1  0
 13 19  1  0
M  ISO  4  14  14  15  14  16  14  17  14
M  END
>  <minimizedAffinity>  (1) 
-3.93767333

>  <minimizedRMSD>  (1) 
0.205222949

$$$$
