
     RDKit          3D

 29 32  0  0  0  0  0  0  0  0999 V2000
   36.4220   30.4540   39.6380 C   0  0  0  0  0  0  0  0  0  0  0  0
   36.6550   30.1240   38.2950 C   0  0  0  0  0  0  0  0  0  0  0  0
   37.5130   31.6800   37.6930 S   0  0  0  0  0  0  0  0  0  0  0  0
   37.3730   32.4700   39.4310 C   0  0  0  0  0  0  0  0  0  0  0  0
   36.8490   31.6400   39.9840 N   0  0  0  0  0  0  0  0  0  0  0  0
   35.5870   29.1810   40.6040 S   0  0  0  0  0  0  0  0  0  0  0  0
   36.8740   27.0620   41.9100 C   0  0  0  0  0  0  0  0  0  0  0  0
   36.6920   28.4520   41.7740 C   0  0  0  0  0  0  0  0  0  0  0  0
   37.4490   29.2410   42.6360 C   0  0  0  0  0  0  0  0  0  0  0  0
   38.2950   28.6550   43.5320 N   0  0  0  0  0  0  0  0  0  0  0  0
   38.4180   27.3070   43.6050 C   0  0  0  0  0  0  0  0  0  0  0  0
   37.7150   26.5260   42.8020 N   0  0  0  0  0  0  0  0  0  0  0  0
   37.7860   33.7420   39.9560 O   0  0  0  0  0  0  0  0  0  0  0  0
   41.2330   36.7310   40.3990 N   0  0  0  0  0  0  0  0  0  0  0  0
   40.0360   37.2810   40.1100 C   0  0  0  0  0  0  0  0  0  0  0  0
   39.0460   36.3840   39.9860 N   0  0  0  0  0  0  0  0  0  0  0  0
   39.6120   35.1850   40.2030 C   0  0  0  0  0  0  0  0  0  0  0  0
   39.1400   33.8890   40.2180 C   0  0  0  0  0  0  0  0  0  0  0  0
   40.0010   32.8830   40.4780 N   0  0  0  0  0  0  0  0  0  0  0  0
   41.3060   33.1030   40.7230 C   0  0  0  0  0  0  0  0  0  0  0  0
   41.7760   34.3680   40.7120 N   0  0  0  0  0  0  0  0  0  0  0  0
   40.9510   35.3980   40.4570 C   0  0  0  0  0  0  0  0  0  0  0  0
   36.4036   29.2049   37.7453 H   0  0  0  0  0  0  0  0  0  0  0  0
   36.3008   26.3889   41.2555 H   0  0  0  0  0  0  0  0  0  0  0  0
   37.3650   30.3370   42.5947 H   0  0  0  0  0  0  0  0  0  0  0  0
   39.1069   26.8599   44.3368 H   0  0  0  0  0  0  0  0  0  0  0  0
   42.1379   37.2020   40.5410 H   0  0  0  0  0  0  0  0  0  0  0  0
   39.8854   38.3637   39.9874 H   0  0  0  0  0  0  0  0  0  0  0  0
   41.9824   32.2606   40.9300 H   0  0  0  0  0  0  0  0  0  0  0  0
  1  5  1  0
  1  6  1  0
  2  1  2  0
  3  2  1  0
  3  4  1  0
  4 13  1  0
  4  5  2  0
  6  8  1  0
  7 12  2  0
  8  7  1  0
  8  9  2  0
  9 10  1  0
 10 11  2  0
 12 11  1  0
 13 18  1  0
 14 22  1  0
 15 14  1  0
 16 15  2  0
 16 17  1  0
 17 18  1  0
 17 22  2  0
 18 19  2  0
 19 20  1  0
 21 20  2  0
 22 21  1  0
  2 23  1  0
  7 24  1  0
  9 25  1  0
 11 26  1  0
 14 27  1  0
 15 28  1  0
 20 29  1  0
M  ISO  7  23  14  24  14  25  14  26  14  27   9  28  14  29  14
M  END
>  <minimizedAffinity>  (1) 
-6.06368828

>  <minimizedRMSD>  (1) 
2.20197463

$$$$
