
     RDKit          3D

 32 35  0  0  0  0  0  0  0  0999 V2000
   38.9910   31.3460   39.8340 C   0  0  0  0  0  0  0  0  0  0  0  0
   39.2710   30.2910   38.9500 C   0  0  0  0  0  0  0  0  0  0  0  0
   40.9500   30.8250   38.3070 S   0  0  0  0  0  0  0  0  0  0  0  0
   40.9160   32.3880   39.3890 C   0  0  0  0  0  0  0  0  0  0  0  0
   39.9200   32.2630   39.9000 N   0  0  0  0  0  0  0  0  0  0  0  0
   37.4080   31.2430   40.7110 S   0  0  0  0  0  0  0  0  0  0  0  0
   36.4280   28.7620   41.5840 C   0  0  0  0  0  0  0  0  0  0  0  0
   37.3740   29.7920   41.7440 C   0  0  0  0  0  0  0  0  0  0  0  0
   38.2920   29.6080   42.7700 C   0  0  0  0  0  0  0  0  0  0  0  0
   38.2340   28.4890   43.5360 N   0  0  0  0  0  0  0  0  0  0  0  0
   37.3000   27.5360   43.3300 C   0  0  0  0  0  0  0  0  0  0  0  0
   36.4080   27.6770   42.3620 N   0  0  0  0  0  0  0  0  0  0  0  0
   41.8810   33.4410   39.5260 O   0  0  0  0  0  0  0  0  0  0  0  0
   41.3770   34.6490   40.0350 C   0  0  0  0  0  0  0  0  0  0  0  0
   40.2910   35.2860   39.5490 N   0  0  0  0  0  0  0  0  0  0  0  0
   39.8640   36.4430   40.0860 C   0  0  0  0  0  0  0  0  0  0  0  0
   40.5030   37.0070   41.1260 N   0  0  0  0  0  0  0  0  0  0  0  0
   41.6060   36.4160   41.6650 C   0  0  0  0  0  0  0  0  0  0  0  0
   42.2280   37.0140   42.7170 C   0  0  0  0  0  0  0  0  0  0  0  0
   43.3320   36.4560   43.2820 C   0  0  0  0  0  0  0  0  0  0  0  0
   43.7940   35.2690   42.7530 C   0  0  0  0  0  0  0  0  0  0  0  0
   43.1480   34.6790   41.6860 C   0  0  0  0  0  0  0  0  0  0  0  0
   42.0300   35.2260   41.0990 C   0  0  0  0  0  0  0  0  0  0  0  0
   38.6731   29.4011   38.7038 H   0  0  0  0  0  0  0  0  0  0  0  0
   35.6757   28.8546   40.7868 H   0  0  0  0  0  0  0  0  0  0  0  0
   39.0644   30.3675   42.9613 H   0  0  0  0  0  0  0  0  0  0  0  0
   37.2802   26.6402   43.9681 H   0  0  0  0  0  0  0  0  0  0  0  0
   38.9753   36.9371   39.6664 H   0  0  0  0  0  0  0  0  0  0  0  0
   41.8331   37.9603   43.1153 H   0  0  0  0  0  0  0  0  0  0  0  0
   43.8394   36.9352   44.1322 H   0  0  0  0  0  0  0  0  0  0  0  0
   44.6844   34.7889   43.1851 H   0  0  0  0  0  0  0  0  0  0  0  0
   43.5429   33.7325   41.2883 H   0  0  0  0  0  0  0  0  0  0  0  0
  1  5  1  0
  1  6  1  0
  2  1  2  0
  3  2  1  0
  3  4  1  0
  4 13  1  0
  4  5  2  0
  6  8  1  0
  7  8  2  0
  7 12  1  0
  8  9  1  0
  9 10  2  0
 11 10  1  0
 12 11  2  0
 13 14  1  0
 14 23  1  0
 15 14  2  0
 15 16  1  0
 16 17  2  0
 17 18  1  0
 18 19  1  0
 19 20  2  0
 21 20  1  0
 22 21  2  0
 23 18  2  0
 23 22  1  0
  2 24  1  0
  7 25  1  0
  9 26  1  0
 11 27  1  0
 16 28  1  0
 19 29  1  0
 20 30  1  0
 21 31  1  0
 22 32  1  0
M  ISO  8  24  14  25  14  26  14  27  14  28  14  29  14  30  14  31  14
M  ISO  1  32  14
M  END
>  <minimizedAffinity>  (1) 
-6.0612793

>  <minimizedRMSD>  (1) 
3.14164615

$$$$
