
     RDKit          3D

 26 28  0  0  0  0  0  0  0  0999 V2000
   36.4950   30.6010   39.6310 C   0  0  0  0  0  0  0  0  0  0  0  0
   36.9000   30.1890   38.3620 C   0  0  0  0  0  0  0  0  0  0  0  0
   37.7060   31.7380   37.7200 S   0  0  0  0  0  0  0  0  0  0  0  0
   37.3090   32.6530   39.3650 C   0  0  0  0  0  0  0  0  0  0  0  0
   36.7850   31.8370   39.9390 N   0  0  0  0  0  0  0  0  0  0  0  0
   35.6400   29.3220   40.5840 S   0  0  0  0  0  0  0  0  0  0  0  0
   36.8050   27.1770   41.9200 C   0  0  0  0  0  0  0  0  0  0  0  0
   36.7180   28.5680   41.7610 C   0  0  0  0  0  0  0  0  0  0  0  0
   37.5240   29.3420   42.5810 C   0  0  0  0  0  0  0  0  0  0  0  0
   38.3480   28.7490   43.4880 N   0  0  0  0  0  0  0  0  0  0  0  0
   38.3960   27.3910   43.6030 C   0  0  0  0  0  0  0  0  0  0  0  0
   37.6350   26.6170   42.8310 N   0  0  0  0  0  0  0  0  0  0  0  0
   37.5630   33.9940   39.8370 O   0  0  0  0  0  0  0  0  0  0  0  0
   38.8140   34.4730   40.0720 C   0  0  0  0  0  0  0  0  0  0  0  0
   40.0320   33.9060   40.3550 C   0  0  0  0  0  0  0  0  0  0  0  0
   41.1840   34.6340   40.5560 C   0  0  0  0  0  0  0  0  0  0  0  0
   41.1130   35.9930   40.4690 N   0  0  0  0  0  0  0  0  0  0  0  0
   39.9160   36.5400   40.1900 C   0  0  0  0  0  0  0  0  0  0  0  0
   38.7840   35.8390   39.9920 N   0  0  0  0  0  0  0  0  0  0  0  0
   36.7763   29.2117   37.8725 H   0  0  0  0  0  0  0  0  0  0  0  0
   36.1833   26.5251   41.2887 H   0  0  0  0  0  0  0  0  0  0  0  0
   37.4978   30.4386   42.4987 H   0  0  0  0  0  0  0  0  0  0  0  0
   39.0697   26.9303   44.3405 H   0  0  0  0  0  0  0  0  0  0  0  0
   40.0912   32.8098   40.4251 H   0  0  0  0  0  0  0  0  0  0  0  0
   42.1366   34.1320   40.7809 H   0  0  0  0  0  0  0  0  0  0  0  0
   39.8583   37.6362   40.1187 H   0  0  0  0  0  0  0  0  0  0  0  0
  1  5  1  0
  1  6  1  0
  2  1  2  0
  3  2  1  0
  3  4  1  0
  4 13  1  0
  4  5  2  0
  6  8  1  0
  7 12  2  0
  8  7  1  0
  8  9  2  0
  9 10  1  0
 10 11  2  0
 12 11  1  0
 13 14  1  0
 14 15  2  0
 15 16  1  0
 17 16  2  0
 18 17  1  0
 19 14  1  0
 19 18  2  0
  2 20  1  0
  7 21  1  0
  9 22  1  0
 11 23  1  0
 15 24  1  0
 16 25  1  0
 18 26  1  0
M  ISO  7  20  14  21  14  22  14  23  14  24  14  25  14  26  14
M  END
>  <minimizedAffinity>  (1) 
-5.29030418

>  <minimizedRMSD>  (1) 
1.87570429

$$$$
