
     RDKit          3D

 30 32  0  0  1  0  0  0  0  0999 V2000
   36.4490   30.4980   39.5570 C   0  0  0  0  0  0  0  0  0  0  0  0
   36.9260   30.0540   38.3120 C   0  0  0  0  0  0  0  0  0  0  0  0
   37.6470   31.6300   37.6160 S   0  0  0  0  0  0  0  0  0  0  0  0
   37.1420   32.5920   39.1950 C   0  0  0  0  0  0  0  0  0  0  0  0
   36.6570   31.7680   39.7870 N   0  0  0  0  0  0  0  0  0  0  0  0
   35.6510   29.2470   40.5870 S   0  0  0  0  0  0  0  0  0  0  0  0
   36.9500   27.1610   41.9310 C   0  0  0  0  0  0  0  0  0  0  0  0
   36.8150   28.5460   41.7280 C   0  0  0  0  0  0  0  0  0  0  0  0
   37.6620   29.3580   42.4850 C   0  0  0  0  0  0  0  0  0  0  0  0
   38.5490   28.8030   43.3540 N   0  0  0  0  0  0  0  0  0  0  0  0
   38.6270   27.4470   43.5020 C   0  0  0  0  0  0  0  0  0  0  0  0
   37.8400   26.6400   42.8000 N   0  0  0  0  0  0  0  0  0  0  0  0
   37.3200   33.9740   39.5490 O   0  0  0  0  0  0  0  0  0  0  0  0
   39.6470   33.5140   39.4540 N   0  0  0  0  0  0  0  0  0  0  0  0
   40.7920   34.3700   39.4190 C   0  0  0  0  0  0  0  0  0  0  0  0
   40.4780   35.5770   40.2760 C   0  0  0  0  0  0  0  0  0  0  0  0
   38.9700   35.6840   40.1190 C   0  0  0  0  0  0  0  0  0  0  0  0
   38.5840   34.2220   40.1380 C   0  0  1  0  0  0  0  0  0  0  0  0
   36.8856   29.0488   37.8671 H   0  0  0  0  0  0  0  0  0  0  0  0
   36.3054   26.4769   41.3595 H   0  0  0  0  0  0  0  0  0  0  0  0
   37.6116   30.4516   42.3780 H   0  0  0  0  0  0  0  0  0  0  0  0
   39.3505   27.0186   44.2112 H   0  0  0  0  0  0  0  0  0  0  0  0
   39.8734   32.6469   39.9617 H   0  0  0  0  0  0  0  0  0  0  0  0
   41.6694   33.8416   39.8201 H   0  0  0  0  0  0  0  0  0  0  0  0
   41.0195   34.6740   38.3866 H   0  0  0  0  0  0  0  0  0  0  0  0
   40.7607   35.4078   41.3255 H   0  0  0  0  0  0  0  0  0  0  0  0
   41.0227   36.4864   39.9824 H   0  0  0  0  0  0  0  0  0  0  0  0
   38.6941   36.1641   39.1685 H   0  0  0  0  0  0  0  0  0  0  0  0
   38.4729   36.2983   40.8842 H   0  0  0  0  0  0  0  0  0  0  0  0
   38.4728   33.8730   41.1752 H   0  0  0  0  0  0  0  0  0  0  0  0
  1  5  1  0
  1  6  1  0
  2  1  2  0
  3  2  1  0
  3  4  1  0
  4 13  1  0
  4  5  2  0
  6  8  1  0
  7 12  2  0
  8  7  1  0
  8  9  2  0
  9 10  1  0
 10 11  2  0
 12 11  1  0
 14 18  1  0
 15 14  1  0
 15 16  1  0
 17 18  1  0
 17 16  1  0
 18 13  1  0
  2 19  1  0
  7 20  1  0
  9 21  1  0
 11 22  1  0
 14 23  1  0
 15 24  1  0
 15 25  1  0
 16 26  1  0
 16 27  1  0
 17 28  1  0
 17 29  1  0
 18 30  1  1
M  ISO  8  19  14  20  14  21  14  22  14  23   5  24  13  25  13  26  13
M  ISO  4  27  13  28  13  29  13  30  13
M  END
>  <minimizedAffinity>  (1) 
-5.12478924

>  <minimizedRMSD>  (1) 
1.99838924

$$$$
