
     RDKit          3D

 25 27  0  0  0  0  0  0  0  0999 V2000
   36.4890   30.4470   39.5720 C   0  0  0  0  0  0  0  0  0  0  0  0
   37.0850   30.0370   38.3510 C   0  0  0  0  0  0  0  0  0  0  0  0
   37.8110   31.6580   37.7540 S   0  0  0  0  0  0  0  0  0  0  0  0
   37.1440   32.5450   39.2980 C   0  0  0  0  0  0  0  0  0  0  0  0
   36.6270   31.7230   39.8650 N   0  0  0  0  0  0  0  0  0  0  0  0
   35.6490   29.1570   40.5090 S   0  0  0  0  0  0  0  0  0  0  0  0
   36.9250   27.0740   41.8930 C   0  0  0  0  0  0  0  0  0  0  0  0
   36.7510   28.4610   41.7270 C   0  0  0  0  0  0  0  0  0  0  0  0
   37.5000   29.2910   42.5780 C   0  0  0  0  0  0  0  0  0  0  0  0
   38.3270   28.7270   43.4920 N   0  0  0  0  0  0  0  0  0  0  0  0
   38.4540   27.3790   43.6070 C   0  0  0  0  0  0  0  0  0  0  0  0
   37.7640   26.5720   42.8200 N   0  0  0  0  0  0  0  0  0  0  0  0
   37.2620   33.9490   39.6710 O   0  0  0  0  0  0  0  0  0  0  0  0
   38.5830   34.2880   39.9880 C   0  0  0  0  0  0  0  0  0  0  0  0
   39.7620   33.6940   40.4300 C   0  0  0  0  0  0  0  0  0  0  0  0
   40.6890   34.6760   40.5170 N   0  0  0  0  0  0  0  0  0  0  0  0
   40.1160   35.8560   40.1420 C   0  0  0  0  0  0  0  0  0  0  0  0
   38.8130   35.6140   39.8150 N   0  0  0  0  0  0  0  0  0  0  0  0
   37.1130   29.0416   37.8837 H   0  0  0  0  0  0  0  0  0  0  0  0
   36.3616   26.3824   41.2494 H   0  0  0  0  0  0  0  0  0  0  0  0
   37.4163   30.3853   42.5034 H   0  0  0  0  0  0  0  0  0  0  0  0
   39.1356   26.9567   44.3601 H   0  0  0  0  0  0  0  0  0  0  0  0
   39.9115   32.6296   40.6639 H   0  0  0  0  0  0  0  0  0  0  0  0
   40.6178   36.8343   40.1089 H   0  0  0  0  0  0  0  0  0  0  0  0
   38.1274   36.3126   39.4944 H   0  0  0  0  0  0  0  0  0  0  0  0
  1  5  1  0
  1  6  1  0
  2  1  2  0
  3  2  1  0
  3  4  1  0
  4 13  1  0
  4  5  2  0
  6  8  1  0
  7 12  2  0
  8  7  1  0
  8  9  2  0
  9 10  1  0
 10 11  2  0
 12 11  1  0
 13 14  1  0
 14 15  2  0
 15 16  1  0
 17 16  2  0
 18 14  1  0
 18 17  1  0
  2 19  1  0
  7 20  1  0
  9 21  1  0
 11 22  1  0
 15 23  1  0
 17 24  1  0
 18 25  1  0
M  ISO  7  19  14  20  14  21  14  22  14  23  14  24  14  25   9
M  END
>  <minimizedAffinity>  (1) 
-5.09358978

>  <minimizedRMSD>  (1) 
1.97913969

$$$$
