
     RDKit          3D

 25 27  0  0  0  0  0  0  0  0999 V2000
   36.4750   30.5510   39.6740 C   0  0  0  0  0  0  0  0  0  0  0  0
   36.8490   30.2160   38.3680 C   0  0  0  0  0  0  0  0  0  0  0  0
   37.6390   31.8070   37.8240 S   0  0  0  0  0  0  0  0  0  0  0  0
   37.2850   32.6130   39.5320 C   0  0  0  0  0  0  0  0  0  0  0  0
   36.7720   31.7620   40.0620 N   0  0  0  0  0  0  0  0  0  0  0  0
   35.6400   29.2380   40.6050 S   0  0  0  0  0  0  0  0  0  0  0  0
   36.8820   27.0880   41.8860 C   0  0  0  0  0  0  0  0  0  0  0  0
   36.7420   28.4890   41.7790 C   0  0  0  0  0  0  0  0  0  0  0  0
   37.5050   29.2840   42.6320 C   0  0  0  0  0  0  0  0  0  0  0  0
   38.3390   28.6700   43.5170 N   0  0  0  0  0  0  0  0  0  0  0  0
   38.4450   27.3240   43.5920 C   0  0  0  0  0  0  0  0  0  0  0  0
   37.7300   26.5540   42.7920 N   0  0  0  0  0  0  0  0  0  0  0  0
   37.5740   33.9250   40.0370 O   0  0  0  0  0  0  0  0  0  0  0  0
   40.1850   36.1580   39.9460 N   0  0  0  0  0  0  0  0  0  0  0  0
   38.9000   35.7770   40.0240 N   0  0  0  0  0  0  0  0  0  0  0  0
   38.8640   34.4140   39.9640 C   0  0  0  0  0  0  0  0  0  0  0  0
   40.1700   33.9810   39.8470 C   0  0  0  0  0  0  0  0  0  0  0  0
   40.9920   35.0880   39.8380 C   0  0  0  0  0  0  0  0  0  0  0  0
   36.7132   29.2736   37.8171 H   0  0  0  0  0  0  0  0  0  0  0  0
   36.2975   26.4279   41.2282 H   0  0  0  0  0  0  0  0  0  0  0  0
   37.4355   30.3811   42.5917 H   0  0  0  0  0  0  0  0  0  0  0  0
   39.1297   26.8685   44.3225 H   0  0  0  0  0  0  0  0  0  0  0  0
   40.5083   37.1358   39.9661 H   0  0  0  0  0  0  0  0  0  0  0  0
   40.4980   32.9336   39.7736 H   0  0  0  0  0  0  0  0  0  0  0  0
   42.0891   35.0945   39.7584 H   0  0  0  0  0  0  0  0  0  0  0  0
  1  5  1  0
  1  6  1  0
  2  1  2  0
  3  2  1  0
  3  4  1  0
  4 13  1  0
  4  5  2  0
  6  8  1  0
  7 12  2  0
  8  7  1  0
  8  9  2  0
  9 10  1  0
 10 11  2  0
 12 11  1  0
 14 15  1  0
 16 15  2  0
 16 13  1  0
 17 16  1  0
 18 17  2  0
 18 14  1  0
  2 19  1  0
  7 20  1  0
  9 21  1  0
 11 22  1  0
 14 23  1  0
 17 24  1  0
 18 25  1  0
M  ISO  7  19  14  20  14  21  14  22  14  23   9  24  14  25  14
M  END
>  <minimizedAffinity>  (1) 
-5.01337624

>  <minimizedRMSD>  (1) 
1.82023013

$$$$
