
     RDKit          3D

 21 22  0  0  0  0  0  0  0  0999 V2000
   37.6050   31.8750   40.3600 C   0  0  0  0  0  0  0  0  0  0  0  0
   38.7770   31.2490   39.9140 C   0  0  0  0  0  0  0  0  0  0  0  0
   39.8130   32.7260   39.3970 S   0  0  0  0  0  0  0  0  0  0  0  0
   38.3950   33.9050   39.9120 C   0  0  0  0  0  0  0  0  0  0  0  0
   37.6180   33.1790   40.2760 N   0  0  0  0  0  0  0  0  0  0  0  0
   36.3210   30.7690   40.9610 S   0  0  0  0  0  0  0  0  0  0  0  0
   36.5670   28.0720   41.6910 C   0  0  0  0  0  0  0  0  0  0  0  0
   37.0390   29.3950   41.8460 C   0  0  0  0  0  0  0  0  0  0  0  0
   38.1100   29.5890   42.7370 C   0  0  0  0  0  0  0  0  0  0  0  0
   38.6240   28.5220   43.3860 N   0  0  0  0  0  0  0  0  0  0  0  0
   38.1290   27.2610   43.1990 C   0  0  0  0  0  0  0  0  0  0  0  0
   37.1170   27.0460   42.3640 N   0  0  0  0  0  0  0  0  0  0  0  0
   38.3400   35.3490   39.8480 O   0  0  0  0  0  0  0  0  0  0  0  0
   39.5090   36.0890   40.1230 C   0  0  0  0  0  0  0  0  0  0  0  0
   40.5550   35.8040   39.2770 F   0  0  0  0  0  0  0  0  0  0  0  0
   39.9010   35.7200   41.3950 F   0  0  0  0  0  0  0  0  0  0  0  0
   39.3320   37.4450   40.1370 F   0  0  0  0  0  0  0  0  0  0  0  0
   39.0238   30.1777   39.8769 H   0  0  0  0  0  0  0  0  0  0  0  0
   35.7304   27.8770   41.0039 H   0  0  0  0  0  0  0  0  0  0  0  0
   38.5228   30.5950   42.9027 H   0  0  0  0  0  0  0  0  0  0  0  0
   38.5728   26.4156   43.7452 H   0  0  0  0  0  0  0  0  0  0  0  0
  1  6  1  0
  2  1  2  0
  3  4  1  0
  3  2  1  0
  4  5  2  0
  5  1  1  0
  6  8  1  0
  7  8  2  0
  7 12  1  0
  8  9  1  0
  9 10  2  0
 11 10  1  0
 12 11  2  0
 13  4  1  0
 13 14  1  0
 14 17  1  0
 14 16  1  0
 15 14  1  0
  2 18  1  0
  7 19  1  0
  9 20  1  0
 11 21  1  0
M  ISO  4  18  14  19  14  20  14  21  14
M  END
>  <minimizedAffinity>  (1) 
-4.92033005

>  <minimizedRMSD>  (1) 
1.28376377

$$$$
