
     RDKit          3D

 30 31  0  0  0  0  0  0  0  0999 V2000
   39.6340   31.0980   40.5620 C   0  0  0  0  0  0  0  0  0  0  0  0
   39.3640   30.5510   39.3000 C   0  0  0  0  0  0  0  0  0  0  0  0
   37.9070   29.4300   39.6790 S   0  0  0  0  0  0  0  0  0  0  0  0
   37.9700   29.9480   41.5100 C   0  0  0  0  0  0  0  0  0  0  0  0
   38.8330   30.6670   41.4980 N   0  0  0  0  0  0  0  0  0  0  0  0
   41.0010   32.2550   40.6150 S   0  0  0  0  0  0  0  0  0  0  0  0
   41.2920   35.0200   40.2580 C   0  0  0  0  0  0  0  0  0  0  0  0
   40.4150   33.9250   40.3790 C   0  0  0  0  0  0  0  0  0  0  0  0
   39.0520   34.2130   40.3050 C   0  0  0  0  0  0  0  0  0  0  0  0
   38.6520   35.4910   40.1270 N   0  0  0  0  0  0  0  0  0  0  0  0
   39.5560   36.5130   40.0160 C   0  0  0  0  0  0  0  0  0  0  0  0
   40.8510   36.2740   40.0820 N   0  0  0  0  0  0  0  0  0  0  0  0
   37.1420   29.5380   42.6200 O   0  0  0  0  0  0  0  0  0  0  0  0
   37.4490   28.2780   43.1760 C   0  0  0  0  0  0  0  0  0  0  0  0
   36.8220   27.2430   42.2580 C   0  0  0  0  0  0  0  0  0  0  0  0
   38.9640   28.1500   43.1860 C   0  0  0  0  0  0  0  0  0  0  0  0
   36.8670   28.0780   44.5550 C   0  0  0  0  0  0  0  0  0  0  0  0
   39.8718   30.7311   38.3410 H   0  0  0  0  0  0  0  0  0  0  0  0
   42.3760   34.8405   40.3096 H   0  0  0  0  0  0  0  0  0  0  0  0
   38.3092   33.4062   40.3909 H   0  0  0  0  0  0  0  0  0  0  0  0
   39.1987   37.5431   39.8704 H   0  0  0  0  0  0  0  0  0  0  0  0
   36.3459   26.4571   42.8626 H   0  0  0  0  0  0  0  0  0  0  0  0
   36.0648   27.7266   41.6233 H   0  0  0  0  0  0  0  0  0  0  0  0
   37.6012   26.7958   41.6233 H   0  0  0  0  0  0  0  0  0  0  0  0
   39.3226   28.1197   44.2255 H   0  0  0  0  0  0  0  0  0  0  0  0
   39.2571   27.2239   42.6699 H   0  0  0  0  0  0  0  0  0  0  0  0
   39.4084   29.0138   42.6699 H   0  0  0  0  0  0  0  0  0  0  0  0
   37.6213   28.3372   45.3125 H   0  0  0  0  0  0  0  0  0  0  0  0
   35.9860   28.7249   44.6785 H   0  0  0  0  0  0  0  0  0  0  0  0
   36.5697   27.0262   44.6785 H   0  0  0  0  0  0  0  0  0  0  0  0
  1  6  1  0
  1  5  1  0
  2  3  1  0
  2  1  2  0
  3  4  1  0
  4 13  1  0
  5  4  2  0
  7  8  2  0
  8  6  1  0
  9  8  1  0
 10  9  2  0
 11 12  2  0
 11 10  1  0
 12  7  1  0
 13 14  1  0
 14 16  1  0
 14 17  1  0
 15 14  1  0
  2 18  1  0
  7 19  1  0
  9 20  1  0
 11 21  1  0
 15 22  1  0
 15 23  1  0
 15 24  1  0
 16 25  1  0
 16 26  1  0
 16 27  1  0
 17 28  1  0
 17 29  1  0
 17 30  1  0
M  ISO  8  18  14  19  14  20  14  21  14  22   8  23   8  24   8  25   8
M  ISO  5  26   8  27   8  28   8  29   8  30   8
M  END
>  <minimizedAffinity>  (1) 
-4.80106688

>  <minimizedRMSD>  (1) 
7.09580898

$$$$
