
     RDKit          3D

 21 22  0  0  0  0  0  0  0  0999 V2000
   38.5040   30.8080   40.2950 C   0  0  0  0  0  0  0  0  0  0  0  0
   37.2300   30.8080   39.7160 C   0  0  0  0  0  0  0  0  0  0  0  0
   36.2290   29.9580   41.0500 S   0  0  0  0  0  0  0  0  0  0  0  0
   37.7930   29.7730   42.1460 C   0  0  0  0  0  0  0  0  0  0  0  0
   38.5600   30.2560   41.4790 N   0  0  0  0  0  0  0  0  0  0  0  0
   39.8050   31.5650   39.2920 S   0  0  0  0  0  0  0  0  0  0  0  0
   40.9750   34.1080   39.2120 C   0  0  0  0  0  0  0  0  0  0  0  0
   39.8790   33.3180   39.5990 C   0  0  0  0  0  0  0  0  0  0  0  0
   38.8410   33.9850   40.2430 C   0  0  0  0  0  0  0  0  0  0  0  0
   38.9310   35.3240   40.4610 N   0  0  0  0  0  0  0  0  0  0  0  0
   40.0200   36.0280   40.0610 C   0  0  0  0  0  0  0  0  0  0  0  0
   41.0370   35.4230   39.4400 N   0  0  0  0  0  0  0  0  0  0  0  0
   38.0040   29.1980   43.4490 O   0  0  0  0  0  0  0  0  0  0  0  0
   37.1620   28.1390   43.7890 C   0  0  0  0  0  0  0  0  0  0  0  0
   37.0350   27.0670   43.1510 O   0  0  0  0  0  0  0  0  0  0  0  0
   36.3470   28.1600   44.9120 O   0  0  0  0  0  0  0  0  0  0  0  0
   36.9050   31.2009   38.7413 H   0  0  0  0  0  0  0  0  0  0  0  0
   41.8184   33.6226   38.6991 H   0  0  0  0  0  0  0  0  0  0  0  0
   37.9506   33.4306   40.5746 H   0  0  0  0  0  0  0  0  0  0  0  0
   40.0662   37.1106   40.2504 H   0  0  0  0  0  0  0  0  0  0  0  0
   35.7646   27.3857   45.1155 H   0  0  0  0  0  0  0  0  0  0  0  0
  1  5  1  0
  2  1  2  0
  2  3  1  0
  3  4  1  0
  4 13  1  0
  5  4  2  0
  6  8  1  0
  6  1  1  0
  7 12  2  0
  7  8  1  0
  8  9  2  0
  9 10  1  0
 11 10  2  0
 12 11  1  0
 13 14  1  0
 14 16  1  0
 15 14  2  0
  2 17  1  0
  7 18  1  0
  9 19  1  0
 11 20  1  0
 16 21  1  0
M  ISO  5  17  14  18  14  19  14  20  14  21   3
M  END
>  <minimizedAffinity>  (1) 
-4.67934942

>  <minimizedRMSD>  (1) 
6.90328217

$$$$
