
     RDKit          3D

 25 27  0  0  0  0  0  0  0  0999 V2000
   36.2670   30.6240   40.9660 S   0  0  0  0  0  0  0  0  0  0  0  0
   36.5470   27.9450   41.7330 C   0  0  0  0  0  0  0  0  0  0  0  0
   36.9970   29.2790   41.8670 C   0  0  0  0  0  0  0  0  0  0  0  0
   38.0560   29.4860   42.7520 C   0  0  0  0  0  0  0  0  0  0  0  0
   38.5920   28.4380   43.4230 N   0  0  0  0  0  0  0  0  0  0  0  0
   38.1160   27.1730   43.2530 C   0  0  0  0  0  0  0  0  0  0  0  0
   37.1160   26.9320   42.4270 N   0  0  0  0  0  0  0  0  0  0  0  0
   37.5530   31.6860   40.2560 C   0  0  0  0  0  0  0  0  0  0  0  0
   38.5530   31.0240   39.5300 C   0  0  0  0  0  0  0  0  0  0  0  0
   39.6080   32.4670   39.0140 S   0  0  0  0  0  0  0  0  0  0  0  0
   38.4520   33.6980   39.9070 C   0  0  0  0  0  0  0  0  0  0  0  0
   37.6850   32.9840   40.3200 N   0  0  0  0  0  0  0  0  0  0  0  0
   38.4940   35.1390   40.0480 O   0  0  0  0  0  0  0  0  0  0  0  0
   39.7060   35.6720   40.5770 C   0  0  0  0  0  0  0  0  0  0  0  0
   40.8440   35.9730   39.6720 C   0  0  0  0  0  0  0  0  0  0  0  0
   39.9590   37.1140   40.1700 C   0  0  0  0  0  0  0  0  0  0  0  0
   35.7145   27.7255   41.0483 H   0  0  0  0  0  0  0  0  0  0  0  0
   38.4554   30.4995   42.9048 H   0  0  0  0  0  0  0  0  0  0  0  0
   38.5713   26.3419   43.8116 H   0  0  0  0  0  0  0  0  0  0  0  0
   38.6788   29.9510   39.3232 H   0  0  0  0  0  0  0  0  0  0  0  0
   39.6441   35.0912   41.5091 H   0  0  0  0  0  0  0  0  0  0  0  0
   40.8012   35.6664   38.6165 H   0  0  0  0  0  0  0  0  0  0  0  0
   41.9242   35.7659   39.6908 H   0  0  0  0  0  0  0  0  0  0  0  0
   40.3465   37.8372   40.9027 H   0  0  0  0  0  0  0  0  0  0  0  0
   39.3687   37.9151   39.7011 H   0  0  0  0  0  0  0  0  0  0  0  0
  1  3  1  0
  2  3  2  0
  2  7  1  0
  3  4  1  0
  4  5  2  0
  6  5  1  0
  7  6  2  0
  8 12  1  0
  8  1  1  0
  9  8  2  0
 10  9  1  0
 10 11  1  0
 11 13  1  0
 11 12  2  0
 13 14  1  0
 15 16  1  0
 15 14  1  0
 16 14  1  0
  2 17  1  0
  4 18  1  0
  6 19  1  0
  9 20  1  0
 14 21  1  0
 15 22  1  0
 15 23  1  0
 16 24  1  0
 16 25  1  0
M  ISO  8  17  14  18  14  19  14  20  14  21  13  22  13  23  13  24  13
M  ISO  1  25  13
M  END
>  <minimizedAffinity>  (1) 
-4.66535282

>  <minimizedRMSD>  (1) 
0.520840347

$$$$
