
     RDKit          3D

 30 33  0  0  1  0  0  0  0  0999 V2000
   37.7040   31.7430   40.1850 C   0  0  0  0  0  0  0  0  0  0  0  0
   38.5830   31.0450   39.3330 C   0  0  0  0  0  0  0  0  0  0  0  0
   39.6990   32.4290   38.8510 S   0  0  0  0  0  0  0  0  0  0  0  0
   38.7290   33.6970   39.9210 C   0  0  0  0  0  0  0  0  0  0  0  0
   37.9440   33.0290   40.3410 N   0  0  0  0  0  0  0  0  0  0  0  0
   36.3450   30.7890   40.9510 S   0  0  0  0  0  0  0  0  0  0  0  0
   36.4490   28.1180   41.7910 C   0  0  0  0  0  0  0  0  0  0  0  0
   37.0060   29.4170   41.8460 C   0  0  0  0  0  0  0  0  0  0  0  0
   38.1240   29.5670   42.6580 C   0  0  0  0  0  0  0  0  0  0  0  0
   38.6220   28.5020   43.3420 N   0  0  0  0  0  0  0  0  0  0  0  0
   38.0360   27.2700   43.2470 C   0  0  0  0  0  0  0  0  0  0  0  0
   36.9730   27.0840   42.4870 N   0  0  0  0  0  0  0  0  0  0  0  0
   39.0270   35.0690   40.0450 O   0  0  0  0  0  0  0  0  0  0  0  0
   40.3660   35.4800   40.3020 C   0  0  1  0  0  0  0  0  0  0  0  0
   40.6090   36.9650   40.0970 C   0  0  0  0  0  0  0  0  0  0  0  0
   40.5800   36.3420   41.5010 C   0  0  2  0  0  0  0  0  0  0  0  0
   41.9110   36.3800   42.1610 C   0  0  0  0  0  0  0  0  0  0  0  0
   42.4150   37.1890   43.1090 N   0  0  0  0  0  0  0  0  0  0  0  0
   43.6390   36.8650   43.4010 O   0  0  0  0  0  0  0  0  0  0  0  0
   43.9580   35.8380   42.6500 C   0  0  0  0  0  0  0  0  0  0  0  0
   42.9190   35.5120   41.8740 N   0  0  0  0  0  0  0  0  0  0  0  0
   38.5983   29.9845   39.0413 H   0  0  0  0  0  0  0  0  0  0  0  0
   35.5628   27.9437   41.1631 H   0  0  0  0  0  0  0  0  0  0  0  0
   38.6079   30.5507   42.7478 H   0  0  0  0  0  0  0  0  0  0  0  0
   38.4556   26.4238   43.8108 H   0  0  0  0  0  0  0  0  0  0  0  0
   40.8331   34.5507   39.9440 H   0  0  0  0  0  0  0  0  0  0  0  0
   41.5580   37.3170   39.6664 H   0  0  0  0  0  0  0  0  0  0  0  0
   40.0811   37.7858   39.5895 H   0  0  0  0  0  0  0  0  0  0  0  0
   40.0130   36.4498   42.4374 H   0  0  0  0  0  0  0  0  0  0  0  0
   44.9305   35.3240   42.6574 H   0  0  0  0  0  0  0  0  0  0  0  0
  1  5  1  0
  1  6  1  0
  2  1  2  0
  3  2  1  0
  3  4  1  0
  4 13  1  0
  4  5  2  0
  6  8  1  0
  7  8  2  0
  7 12  1  0
  8  9  1  0
  9 10  2  0
 11 10  1  0
 12 11  2  0
 13 14  1  0
 14 16  1  0
 15 14  1  0
 15 16  1  0
 16 17  1  0
 17 18  2  0
 18 19  1  0
 20 19  1  0
 21 17  1  0
 21 20  2  0
  2 22  1  0
  7 23  1  0
  9 24  1  0
 11 25  1  0
 14 26  1  6
 15 27  1  0
 15 28  1  0
 16 29  1  1
 20 30  1  0
M  ISO  8  22  14  23  14  24  14  25  14  26  13  27  13  28  13  29  13
M  ISO  1  30  14
M  END
>  <minimizedAffinity>  (1) 
-5.77548313

>  <minimizedRMSD>  (1) 
1.54731011

$$$$
