
     RDKit          3D

 32 34  0  0  1  0  0  0  0  0999 V2000
   37.6570   31.7650   40.2580 C   0  0  0  0  0  0  0  0  0  0  0  0
   38.6970   31.1260   39.5500 C   0  0  0  0  0  0  0  0  0  0  0  0
   39.7370   32.5990   39.1490 S   0  0  0  0  0  0  0  0  0  0  0  0
   38.5290   33.8000   40.0390 C   0  0  0  0  0  0  0  0  0  0  0  0
   37.7830   33.0490   40.3720 N   0  0  0  0  0  0  0  0  0  0  0  0
   36.3160   30.7000   40.8910 S   0  0  0  0  0  0  0  0  0  0  0  0
   36.5020   28.0310   41.7430 C   0  0  0  0  0  0  0  0  0  0  0  0
   36.9930   29.3580   41.8170 C   0  0  0  0  0  0  0  0  0  0  0  0
   38.0690   29.5560   42.6820 C   0  0  0  0  0  0  0  0  0  0  0  0
   38.5820   28.5110   43.3900 N   0  0  0  0  0  0  0  0  0  0  0  0
   38.0570   27.2650   43.2660 C   0  0  0  0  0  0  0  0  0  0  0  0
   37.0410   27.0180   42.4640 N   0  0  0  0  0  0  0  0  0  0  0  0
   38.6660   35.1990   40.1560 O   0  0  0  0  0  0  0  0  0  0  0  0
   39.9440   35.7960   39.9020 C   0  0  1  0  0  0  0  0  0  0  0  0
   40.0200   37.2660   40.2650 C   0  0  0  0  0  0  0  0  0  0  0  0
   40.7120   36.2010   41.1230 C   0  0  2  0  0  0  0  0  0  0  0  0
   42.1480   36.0530   40.9630 N   0  0  0  0  0  0  0  0  0  0  0  0
   42.7660   34.7580   41.0370 C   0  0  0  0  0  0  0  0  0  0  0  0
   42.1600   33.8550   41.7570 N   0  0  0  0  0  0  0  0  0  0  0  0
   43.9830   34.4600   40.3600 N   0  0  0  0  0  0  0  0  0  0  0  0
   42.5620   32.9170   41.8400 H   0  0  0  0  0  0  0  0  0  0  0  0
   38.8449   30.0632   39.3080 H   0  0  0  0  0  0  0  0  0  0  0  0
   35.6535   27.8154   41.0769 H   0  0  0  0  0  0  0  0  0  0  0  0
   38.5052   30.5597   42.7931 H   0  0  0  0  0  0  0  0  0  0  0  0
   38.4911   26.4402   43.8502 H   0  0  0  0  0  0  0  0  0  0  0  0
   40.1824   35.1992   39.0093 H   0  0  0  0  0  0  0  0  0  0  0  0
   40.6178   37.9568   39.6523 H   0  0  0  0  0  0  0  0  0  0  0  0
   39.2893   38.0676   40.4480 H   0  0  0  0  0  0  0  0  0  0  0  0
   40.6942   35.9675   42.1978 H   0  0  0  0  0  0  0  0  0  0  0  0
   42.7300   36.8860   40.7946 H   0  0  0  0  0  0  0  0  0  0  0  0
   44.3976   33.5202   40.4356 H   0  0  0  0  0  0  0  0  0  0  0  0
   44.4486   35.1843   39.7948 H   0  0  0  0  0  0  0  0  0  0  0  0
  1  5  1  0
  1  6  1  0
  2  1  2  0
  3  2  1  0
  3  4  1  0
  4 13  1  0
  4  5  2  0
  6  8  1  0
  7  8  2  0
  7 12  1  0
  8  9  1  0
  9 10  2  0
 11 10  1  0
 12 11  2  0
 14 13  1  0
 14 15  1  0
 14 16  1  0
 15 16  1  0
 17 18  1  0
 17 16  1  0
 18 19  2  0
 19 21  1  0
 20 18  1  0
  2 22  1  0
  7 23  1  0
  9 24  1  0
 11 25  1  0
 14 26  1  6
 15 27  1  0
 15 28  1  0
 16 29  1  1
 17 30  1  0
 20 31  1  0
 20 32  1  0
M  ISO  8  22  14  23  14  24  14  25  14  26  13  27  13  28  13  29  13
M  END
>  <minimizedAffinity>  (1) 
-5.66692114

>  <minimizedRMSD>  (1) 
1.57769287

$$$$
