
     RDKit          3D

 28 30  0  0  1  0  0  0  0  0999 V2000
   37.7050   31.7360   40.2110 C   0  0  0  0  0  0  0  0  0  0  0  0
   38.6090   31.1370   39.3120 C   0  0  0  0  0  0  0  0  0  0  0  0
   39.7270   32.5730   39.0110 S   0  0  0  0  0  0  0  0  0  0  0  0
   38.7190   33.7120   40.1860 C   0  0  0  0  0  0  0  0  0  0  0  0
   37.9290   32.9990   40.5140 N   0  0  0  0  0  0  0  0  0  0  0  0
   36.3480   30.6830   40.8290 S   0  0  0  0  0  0  0  0  0  0  0  0
   36.4020   28.1050   41.8930 C   0  0  0  0  0  0  0  0  0  0  0  0
   36.9940   29.3820   41.8330 C   0  0  0  0  0  0  0  0  0  0  0  0
   38.1260   29.5720   42.6140 C   0  0  0  0  0  0  0  0  0  0  0  0
   38.6070   28.5600   43.3810 N   0  0  0  0  0  0  0  0  0  0  0  0
   37.9970   27.3390   43.4040 C   0  0  0  0  0  0  0  0  0  0  0  0
   36.9130   27.1150   42.6730 N   0  0  0  0  0  0  0  0  0  0  0  0
   38.9820   35.0690   40.4890 O   0  0  0  0  0  0  0  0  0  0  0  0
   40.3500   35.5130   40.5020 C   0  0  1  0  0  0  0  0  0  0  0  0
   40.5280   36.9470   40.0550 C   0  0  0  0  0  0  0  0  0  0  0  0
   40.6850   36.5480   41.5320 C   0  0  2  0  0  0  0  0  0  0  0  0
   42.0980   36.4480   42.0430 C   0  0  0  0  0  0  0  0  0  0  0  0
   42.4430   37.1480   43.0540 O   0  0  0  0  0  0  0  0  0  0  0  0
   42.9940   35.6000   41.4100 O   0  0  0  0  0  0  0  0  0  0  0  0
   38.6393   30.1142   38.9084 H   0  0  0  0  0  0  0  0  0  0  0  0
   35.5024   27.9033   41.2929 H   0  0  0  0  0  0  0  0  0  0  0  0
   38.6356   30.5468   42.6114 H   0  0  0  0  0  0  0  0  0  0  0  0
   38.4072   26.5353   44.0331 H   0  0  0  0  0  0  0  0  0  0  0  0
   40.7935   34.5456   40.2235 H   0  0  0  0  0  0  0  0  0  0  0  0
   41.4090   37.2368   39.4636 H   0  0  0  0  0  0  0  0  0  0  0  0
   39.9207   37.6770   39.4996 H   0  0  0  0  0  0  0  0  0  0  0  0
   40.2440   36.9063   42.4739 H   0  0  0  0  0  0  0  0  0  0  0  0
   43.9248   35.5282   41.7394 H   0  0  0  0  0  0  0  0  0  0  0  0
  1  5  1  0
  1  6  1  0
  2  1  2  0
  3  2  1  0
  3  4  1  0
  4 13  1  0
  4  5  2  0
  6  8  1  0
  7 12  2  0
  8  7  1  0
  8  9  2  0
  9 10  1  0
 10 11  2  0
 12 11  1  0
 13 14  1  0
 14 16  1  0
 15 14  1  0
 15 16  1  0
 16 17  1  0
 17 18  2  0
 19 17  1  0
  2 20  1  0
  7 21  1  0
  9 22  1  0
 11 23  1  0
 14 24  1  6
 15 25  1  0
 15 26  1  0
 16 27  1  1
 19 28  1  0
M  ISO  8  20  14  21  14  22  14  23  14  24  13  25  13  26  13  27  13
M  ISO  1  28   3
M  END
>  <minimizedAffinity>  (1) 
-5.45977449

>  <minimizedRMSD>  (1) 
1.14883065

$$$$
