
     RDKit          3D

 33 36  0  0  1  0  0  0  0  0999 V2000
   37.9430   29.8440   42.2610 C   0  0  0  0  0  0  0  0  0  0  0  0
   36.9610   29.9060   41.2530 C   0  0  0  0  0  0  0  0  0  0  0  0
   37.7320   31.1810   40.1620 S   0  0  0  0  0  0  0  0  0  0  0  0
   39.2540   31.3700   41.3210 C   0  0  0  0  0  0  0  0  0  0  0  0
   38.9880   30.6360   42.1130 N   0  0  0  0  0  0  0  0  0  0  0  0
   37.6470   28.6860   43.6430 S   0  0  0  0  0  0  0  0  0  0  0  0
   37.8390   26.1970   42.3840 C   0  0  0  0  0  0  0  0  0  0  0  0
   38.3910   27.1250   43.2910 C   0  0  0  0  0  0  0  0  0  0  0  0
   39.5800   26.7340   43.9040 C   0  0  0  0  0  0  0  0  0  0  0  0
   40.1330   25.5310   43.6170 N   0  0  0  0  0  0  0  0  0  0  0  0
   39.5490   24.6740   42.7280 C   0  0  0  0  0  0  0  0  0  0  0  0
   38.4130   25.0070   42.1200 N   0  0  0  0  0  0  0  0  0  0  0  0
   40.3440   32.2370   41.1210 O   0  0  0  0  0  0  0  0  0  0  0  0
   41.1310   32.1300   39.9410 C   0  0  1  0  0  0  0  0  0  0  0  0
   40.7390   33.0560   38.8170 C   0  0  0  0  0  0  0  0  0  0  0  0
   42.0060   33.3050   39.6400 C   0  0  1  0  0  0  0  0  0  0  0  0
   41.9260   34.5200   40.4810 C   0  0  0  0  0  0  0  0  0  0  0  0
   41.0040   35.5320   40.3980 C   0  0  0  0  0  0  0  0  0  0  0  0
   41.0160   36.6250   41.2380 C   0  0  0  0  0  0  0  0  0  0  0  0
   41.9530   36.7500   42.2030 N   0  0  0  0  0  0  0  0  0  0  0  0
   42.8600   35.7600   42.2890 C   0  0  0  0  0  0  0  0  0  0  0  0
   42.8390   34.7010   41.4650 N   0  0  0  0  0  0  0  0  0  0  0  0
   36.0139   29.3567   41.1469 H   0  0  0  0  0  0  0  0  0  0  0  0
   36.9010   26.4554   41.8708 H   0  0  0  0  0  0  0  0  0  0  0  0
   40.0715   27.4050   44.6239 H   0  0  0  0  0  0  0  0  0  0  0  0
   40.0202   23.7034   42.5135 H   0  0  0  0  0  0  0  0  0  0  0  0
   41.2987   31.0463   40.0269 H   0  0  0  0  0  0  0  0  0  0  0  0
   39.8693   33.7207   38.9260 H   0  0  0  0  0  0  0  0  0  0  0  0
   40.5094   32.9377   37.7478 H   0  0  0  0  0  0  0  0  0  0  0  0
   43.0885   33.3989   39.4687 H   0  0  0  0  0  0  0  0  0  0  0  0
   40.2211   35.4688   39.6279 H   0  0  0  0  0  0  0  0  0  0  0  0
   40.2513   37.4069   41.1207 H   0  0  0  0  0  0  0  0  0  0  0  0
   43.6433   35.8205   43.0589 H   0  0  0  0  0  0  0  0  0  0  0  0
  1  6  1  0
  2  1  2  0
  3  2  1  0
  3  4  1  0
  4  5  2  0
  5  1  1  0
  7  8  2  0
  8  6  1  0
  8  9  1  0
 10  9  2  0
 11 10  1  0
 12  7  1  0
 12 11  2  0
 13  4  1  0
 14 13  1  0
 15 16  1  0
 15 14  1  0
 16 14  1  0
 16 17  1  0
 17 22  1  0
 18 17  2  0
 18 19  1  0
 19 20  2  0
 20 21  1  0
 22 21  2  0
  2 23  1  0
  7 24  1  0
  9 25  1  0
 11 26  1  0
 14 27  1  6
 15 28  1  0
 15 29  1  0
 16 30  1  6
 18 31  1  0
 19 32  1  0
 21 33  1  0
M  ISO  8  23  14  24  14  25  14  26  14  27  13  28  13  29  13  30  13
M  ISO  3  31  14  32  14  33  14
M  END
>  <minimizedAffinity>  (1) 
-5.28522348

>  <minimizedRMSD>  (1) 
4.0421772

$$$$
