
     RDKit          3D

 32 35  0  0  1  0  0  0  0  0999 V2000
   37.2240   29.4070   41.7670 C   0  0  0  0  0  0  0  0  0  0  0  0
   36.0730   28.9460   41.0960 C   0  0  0  0  0  0  0  0  0  0  0  0
   36.1920   29.9710   39.5630 S   0  0  0  0  0  0  0  0  0  0  0  0
   37.8050   30.8280   40.1590 C   0  0  0  0  0  0  0  0  0  0  0  0
   37.9190   30.3160   41.1380 N   0  0  0  0  0  0  0  0  0  0  0  0
   37.5750   28.6770   43.4040 S   0  0  0  0  0  0  0  0  0  0  0  0
   37.7590   26.0590   42.4350 C   0  0  0  0  0  0  0  0  0  0  0  0
   38.3290   27.0940   43.2140 C   0  0  0  0  0  0  0  0  0  0  0  0
   39.5360   26.7950   43.8360 C   0  0  0  0  0  0  0  0  0  0  0  0
   40.1020   25.5680   43.6780 N   0  0  0  0  0  0  0  0  0  0  0  0
   39.5020   24.6100   42.9120 C   0  0  0  0  0  0  0  0  0  0  0  0
   38.3510   24.8540   42.3030 N   0  0  0  0  0  0  0  0  0  0  0  0
   38.5470   31.8160   39.4690 O   0  0  0  0  0  0  0  0  0  0  0  0
   39.9110   31.5240   39.1150 C   0  0  1  0  0  0  0  0  0  0  0  0
   40.3190   32.1120   37.7780 C   0  0  0  0  0  0  0  0  0  0  0  0
   40.8390   32.6980   39.1010 C   0  0  1  0  0  0  0  0  0  0  0  0
   40.3510   33.9770   39.5410 N   0  0  0  0  0  0  0  0  0  0  0  0
   41.1070   35.0570   39.3090 N   0  0  0  0  0  0  0  0  0  0  0  0
   40.4310   36.1100   39.8130 C   0  0  0  0  0  0  0  0  0  0  0  0
   39.2190   35.6950   40.3760 C   0  0  0  0  0  0  0  0  0  0  0  0
   39.2130   34.3140   40.1770 C   0  0  0  0  0  0  0  0  0  0  0  0
   35.3251   28.1974   41.3963 H   0  0  0  0  0  0  0  0  0  0  0  0
   36.8038   26.2428   41.9213 H   0  0  0  0  0  0  0  0  0  0  0  0
   40.0349   27.5529   44.4578 H   0  0  0  0  0  0  0  0  0  0  0  0
   39.9793   23.6254   42.7994 H   0  0  0  0  0  0  0  0  0  0  0  0
   39.9535   30.5289   39.5818 H   0  0  0  0  0  0  0  0  0  0  0  0
   39.5898   32.6713   37.1735 H   0  0  0  0  0  0  0  0  0  0  0  0
   40.7778   31.7242   36.8565 H   0  0  0  0  0  0  0  0  0  0  0  0
   41.8342   32.9097   39.5190 H   0  0  0  0  0  0  0  0  0  0  0  0
   40.7839   37.1515   39.7852 H   0  0  0  0  0  0  0  0  0  0  0  0
   38.4501   36.3134   40.8622 H   0  0  0  0  0  0  0  0  0  0  0  0
   38.4168   33.6208   40.4861 H   0  0  0  0  0  0  0  0  0  0  0  0
  1  6  1  0
  2  1  2  0
  3  4  1  0
  3  2  1  0
  4  5  2  0
  5  1  1  0
  7  8  2  0
  8  6  1  0
  8  9  1  0
 10  9  2  0
 11 10  1  0
 12  7  1  0
 12 11  2  0
 13  4  1  0
 14 13  1  0
 15 16  1  0
 15 14  1  0
 16 14  1  0
 16 17  1  0
 17 21  1  0
 18 17  1  0
 18 19  2  0
 19 20  1  0
 21 20  2  0
  2 22  1  0
  7 23  1  0
  9 24  1  0
 11 25  1  0
 14 26  1  6
 15 27  1  0
 15 28  1  0
 16 29  1  6
 19 30  1  0
 20 31  1  0
 21 32  1  0
M  ISO  8  22  14  23  14  24  14  25  14  26  13  27  13  28  13  29  13
M  ISO  3  30  14  31  14  32  14
M  END
>  <minimizedAffinity>  (1) 
-5.1584115

>  <minimizedRMSD>  (1) 
3.5800674

$$$$
