
     RDKit          3D

 27 29  0  0  1  0  0  0  0  0999 V2000
   37.6220   31.6800   40.1920 C   0  0  0  0  0  0  0  0  0  0  0  0
   38.4620   31.0930   39.2540 C   0  0  0  0  0  0  0  0  0  0  0  0
   39.5960   32.5230   38.9150 S   0  0  0  0  0  0  0  0  0  0  0  0
   38.6580   33.6520   40.1590 C   0  0  0  0  0  0  0  0  0  0  0  0
   37.9030   32.9100   40.4730 N   0  0  0  0  0  0  0  0  0  0  0  0
   36.2790   30.6390   40.8590 S   0  0  0  0  0  0  0  0  0  0  0  0
   36.3850   28.0500   41.9300 C   0  0  0  0  0  0  0  0  0  0  0  0
   36.9510   29.3420   41.8510 C   0  0  0  0  0  0  0  0  0  0  0  0
   38.0980   29.5490   42.6160 C   0  0  0  0  0  0  0  0  0  0  0  0
   38.6030   28.5410   43.3730 N   0  0  0  0  0  0  0  0  0  0  0  0
   38.0040   27.3180   43.4020 C   0  0  0  0  0  0  0  0  0  0  0  0
   36.9240   27.0690   42.7030 N   0  0  0  0  0  0  0  0  0  0  0  0
   38.9640   34.9920   40.4570 O   0  0  0  0  0  0  0  0  0  0  0  0
   40.3270   35.4190   40.4540 C   0  0  1  0  0  0  0  0  0  0  0  0
   40.5340   36.8260   39.9300 C   0  0  0  0  0  0  0  0  0  0  0  0
   40.6780   36.4960   41.4270 C   0  0  2  0  0  0  0  0  0  0  0  0
   42.0860   36.5260   41.9650 C   0  0  0  0  0  0  0  0  0  0  0  0
   42.0960   36.9650   43.1060 O   0  0  0  0  0  0  0  0  0  0  0  0
   38.4567   30.0763   38.8342 H   0  0  0  0  0  0  0  0  0  0  0  0
   35.4784   27.8300   41.3471 H   0  0  0  0  0  0  0  0  0  0  0  0
   38.5947   30.5304   42.6064 H   0  0  0  0  0  0  0  0  0  0  0  0
   38.4364   26.5219   44.0259 H   0  0  0  0  0  0  0  0  0  0  0  0
   40.7535   34.4304   40.2286 H   0  0  0  0  0  0  0  0  0  0  0  0
   41.4223   37.0680   39.3280 H   0  0  0  0  0  0  0  0  0  0  0  0
   39.9438   37.5384   39.3349 H   0  0  0  0  0  0  0  0  0  0  0  0
   40.2300   36.8564   42.3647 H   0  0  0  0  0  0  0  0  0  0  0  0
   42.9777   36.1993   41.4098 H   0  0  0  0  0  0  0  0  0  0  0  0
  1  5  1  0
  1  6  1  0
  2  1  2  0
  3  2  1  0
  3  4  1  0
  4 13  1  0
  4  5  2  0
  6  8  1  0
  7 12  2  0
  8  7  1  0
  8  9  2  0
  9 10  1  0
 10 11  2  0
 12 11  1  0
 14 13  1  0
 14 16  1  0
 15 14  1  0
 15 16  1  0
 16 17  1  0
 17 18  2  0
  2 19  1  0
  7 20  1  0
  9 21  1  0
 11 22  1  0
 14 23  1  6
 15 24  1  0
 15 25  1  0
 16 26  1  1
 17 27  1  0
M  ISO  8  19  14  20  14  21  14  22  14  23  13  24  13  25  13  26  13
M  ISO  1  27   6
M  END
>  <minimizedAffinity>  (1) 
-5.07415009

>  <minimizedRMSD>  (1) 
1.07758367

$$$$
