
     RDKit          3D

 28 30  0  0  1  0  0  0  0  0999 V2000
   37.5430   31.6390   40.1960 C   0  0  0  0  0  0  0  0  0  0  0  0
   38.4940   31.0010   39.3740 C   0  0  0  0  0  0  0  0  0  0  0  0
   39.5300   32.4580   38.9150 S   0  0  0  0  0  0  0  0  0  0  0  0
   38.4420   33.6590   39.9500 C   0  0  0  0  0  0  0  0  0  0  0  0
   37.6950   32.9370   40.3490 N   0  0  0  0  0  0  0  0  0  0  0  0
   36.2370   30.5860   40.9170 S   0  0  0  0  0  0  0  0  0  0  0  0
   36.4940   27.9500   41.7900 C   0  0  0  0  0  0  0  0  0  0  0  0
   36.9660   29.2720   41.8450 C   0  0  0  0  0  0  0  0  0  0  0  0
   38.0530   29.5030   42.6820 C   0  0  0  0  0  0  0  0  0  0  0  0
   38.5990   28.4810   43.3910 N   0  0  0  0  0  0  0  0  0  0  0  0
   38.1010   27.2100   43.3000 C   0  0  0  0  0  0  0  0  0  0  0  0
   37.0630   26.9450   42.5120 N   0  0  0  0  0  0  0  0  0  0  0  0
   38.6200   35.0560   40.0980 O   0  0  0  0  0  0  0  0  0  0  0  0
   39.8640   35.5320   40.6370 C   0  0  1  0  0  0  0  0  0  0  0  0
   40.8710   35.9560   39.5890 C   0  0  0  0  0  0  0  0  0  0  0  0
   40.1370   36.9930   40.4510 C   0  0  1  0  0  0  0  0  0  0  0  0
   39.0900   37.8630   39.8330 C   0  0  0  0  0  0  0  0  0  0  0  0
   38.5906   29.9429   39.0891 H   0  0  0  0  0  0  0  0  0  0  0  0
   35.6358   27.7187   41.1419 H   0  0  0  0  0  0  0  0  0  0  0  0
   38.4716   30.5164   42.7699 H   0  0  0  0  0  0  0  0  0  0  0  0
   38.5632   26.4002   43.8837 H   0  0  0  0  0  0  0  0  0  0  0  0
   39.8774   34.8579   41.5061 H   0  0  0  0  0  0  0  0  0  0  0  0
   40.6320   35.8565   38.5199 H   0  0  0  0  0  0  0  0  0  0  0  0
   41.9231   35.7202   39.3711 H   0  0  0  0  0  0  0  0  0  0  0  0
   40.4493   37.8183   41.1078 H   0  0  0  0  0  0  0  0  0  0  0  0
   38.5035   38.3504   40.6258 H   0  0  0  0  0  0  0  0  0  0  0  0
   39.5721   38.6302   39.2093 H   0  0  0  0  0  0  0  0  0  0  0  0
   38.4241   37.2486   39.2093 H   0  0  0  0  0  0  0  0  0  0  0  0
  1  5  1  0
  1  6  1  0
  2  1  2  0
  3  2  1  0
  3  4  1  0
  4 13  1  0
  4  5  2  0
  6  8  1  0
  7  8  2  0
  7 12  1  0
  8  9  1  0
  9 10  2  0
 11 10  1  0
 12 11  2  0
 13 14  1  0
 15 16  1  0
 15 14  1  0
 16 14  1  0
 17 16  1  0
  2 18  1  0
  7 19  1  0
  9 20  1  0
 11 21  1  0
 14 22  1  1
 15 23  1  0
 15 24  1  0
 16 25  1  1
 17 26  1  0
 17 27  1  0
 17 28  1  0
M  ISO  8  18  14  19  14  20  14  21  14  22  13  23  13  24  13  25  13
M  ISO  3  26   8  27   8  28   8
M  END
>  <minimizedAffinity>  (1) 
-4.82271624

>  <minimizedRMSD>  (1) 
0.167948738

$$$$
