
     RDKit          3D

 26 28  0  0  1  0  0  0  0  0999 V2000
   37.5500   31.6210   40.1960 C   0  0  0  0  0  0  0  0  0  0  0  0
   38.4690   30.9800   39.3390 C   0  0  0  0  0  0  0  0  0  0  0  0
   39.5250   32.4270   38.8910 S   0  0  0  0  0  0  0  0  0  0  0  0
   38.4860   33.6280   39.9760 C   0  0  0  0  0  0  0  0  0  0  0  0
   37.7520   32.8910   40.3540 N   0  0  0  0  0  0  0  0  0  0  0  0
   36.2390   30.5850   40.9330 S   0  0  0  0  0  0  0  0  0  0  0  0
   36.4620   27.9390   41.8360 C   0  0  0  0  0  0  0  0  0  0  0  0
   36.9630   29.2720   41.8630 C   0  0  0  0  0  0  0  0  0  0  0  0
   38.0770   29.4950   42.6750 C   0  0  0  0  0  0  0  0  0  0  0  0
   38.6210   28.4640   43.3850 N   0  0  0  0  0  0  0  0  0  0  0  0
   38.0940   27.2180   43.3140 C   0  0  0  0  0  0  0  0  0  0  0  0
   37.0350   26.9500   42.5560 N   0  0  0  0  0  0  0  0  0  0  0  0
   38.7060   35.0110   40.1410 O   0  0  0  0  0  0  0  0  0  0  0  0
   39.9600   35.4640   40.6400 C   0  0  1  0  0  0  0  0  0  0  0  0
   40.9130   35.9480   39.5570 C   0  0  0  0  0  0  0  0  0  0  0  0
   40.2290   36.9280   40.5250 C   0  0  1  0  0  0  0  0  0  0  0  0
   38.9960   37.9890   39.7400 S   0  0  0  0  0  0  0  0  0  0  0  0
   38.5367   29.9269   39.0286 H   0  0  0  0  0  0  0  0  0  0  0  0
   35.5855   27.7088   41.2125 H   0  0  0  0  0  0  0  0  0  0  0  0
   38.5160   30.5013   42.7424 H   0  0  0  0  0  0  0  0  0  0  0  0
   38.5539   26.4074   43.8983 H   0  0  0  0  0  0  0  0  0  0  0  0
   40.0144   34.7473   41.4727 H   0  0  0  0  0  0  0  0  0  0  0  0
   40.6134   35.9138   38.4992 H   0  0  0  0  0  0  0  0  0  0  0  0
   41.9497   35.7257   39.2642 H   0  0  0  0  0  0  0  0  0  0  0  0
   40.5383   37.6903   41.2552 H   0  0  0  0  0  0  0  0  0  0  0  0
   38.2587   38.6234   40.7048 H   0  0  0  0  0  0  0  0  0  0  0  0
  1  5  1  0
  1  6  1  0
  2  1  2  0
  3  2  1  0
  3  4  1  0
  4 13  1  0
  4  5  2  0
  6  8  1  0
  7  8  2  0
  7 12  1  0
  8  9  1  0
  9 10  2  0
 11 10  1  0
 12 11  2  0
 13 14  1  0
 15 16  1  0
 15 14  1  0
 16 14  1  0
 17 16  1  0
  2 18  1  0
  7 19  1  0
  9 20  1  0
 11 21  1  0
 14 22  1  1
 15 23  1  0
 15 24  1  0
 16 25  1  1
 17 26  1  0
M  ISO  8  18  14  19  14  20  14  21  14  22  13  23  13  24  13  25  13
M  ISO  1  26  11
M  END
>  <minimizedAffinity>  (1) 
-4.30610895

>  <minimizedRMSD>  (1) 
0.255111724

$$$$
