
     RDKit          3D

 27 29  0  0  1  0  0  0  0  0999 V2000
   37.5320   31.6210   40.1920 C   0  0  0  0  0  0  0  0  0  0  0  0
   38.4900   30.9810   39.3730 C   0  0  0  0  0  0  0  0  0  0  0  0
   39.5180   32.4410   38.9130 S   0  0  0  0  0  0  0  0  0  0  0  0
   38.4240   33.6450   39.9380 C   0  0  0  0  0  0  0  0  0  0  0  0
   37.6850   32.9140   40.3330 N   0  0  0  0  0  0  0  0  0  0  0  0
   36.2320   30.5690   40.9230 S   0  0  0  0  0  0  0  0  0  0  0  0
   36.5090   27.9150   41.7890 C   0  0  0  0  0  0  0  0  0  0  0  0
   36.9650   29.2560   41.8470 C   0  0  0  0  0  0  0  0  0  0  0  0
   38.0420   29.4950   42.6880 C   0  0  0  0  0  0  0  0  0  0  0  0
   38.5970   28.4710   43.3970 N   0  0  0  0  0  0  0  0  0  0  0  0
   38.1130   27.1970   43.3000 C   0  0  0  0  0  0  0  0  0  0  0  0
   37.0930   26.9410   42.5100 N   0  0  0  0  0  0  0  0  0  0  0  0
   38.5980   35.0410   40.0780 O   0  0  0  0  0  0  0  0  0  0  0  0
   39.8330   35.5250   40.6360 C   0  0  1  0  0  0  0  0  0  0  0  0
   40.8460   35.9480   39.5910 C   0  0  0  0  0  0  0  0  0  0  0  0
   40.0990   36.9860   40.4450 C   0  0  1  0  0  0  0  0  0  0  0  0
   39.1100   37.8200   39.8390 N   0  0  0  0  0  0  0  0  0  0  0  0
   38.5923   29.9223   39.0924 H   0  0  0  0  0  0  0  0  0  0  0  0
   35.6575   27.6650   41.1391 H   0  0  0  0  0  0  0  0  0  0  0  0
   38.4490   30.5125   42.7831 H   0  0  0  0  0  0  0  0  0  0  0  0
   38.5758   26.3863   43.8819 H   0  0  0  0  0  0  0  0  0  0  0  0
   39.8418   34.8581   41.5107 H   0  0  0  0  0  0  0  0  0  0  0  0
   40.6145   35.8418   38.5209 H   0  0  0  0  0  0  0  0  0  0  0  0
   41.9006   35.7166   39.3808 H   0  0  0  0  0  0  0  0  0  0  0  0
   40.3969   37.8135   41.1057 H   0  0  0  0  0  0  0  0  0  0  0  0
   38.5574   38.2860   40.5728 H   0  0  0  0  0  0  0  0  0  0  0  0
   39.5719   38.5306   39.2537 H   0  0  0  0  0  0  0  0  0  0  0  0
  1  5  1  0
  1  6  1  0
  2  1  2  0
  3  2  1  0
  3  4  1  0
  4 13  1  0
  4  5  2  0
  6  8  1  0
  7  8  2  0
  7 12  1  0
  8  9  1  0
  9 10  2  0
 11 10  1  0
 12 11  2  0
 13 14  1  0
 15 16  1  0
 15 14  1  0
 16 14  1  0
 17 16  1  0
  2 18  1  0
  7 19  1  0
  9 20  1  0
 11 21  1  0
 14 22  1  1
 15 23  1  0
 15 24  1  0
 16 25  1  1
 17 26  1  0
 17 27  1  0
M  ISO  8  18  14  19  14  20  14  21  14  22  13  23  13  24  13  25  13
M  ISO  2  26   5  27   5
M  END
>  <minimizedAffinity>  (1) 
-4.73195744

>  <minimizedRMSD>  (1) 
0.155967504

$$$$
