
     RDKit          3D

 30 32  0  0  1  0  0  0  0  0999 V2000
   37.8310   31.8210   40.3180 C   0  0  0  0  0  0  0  0  0  0  0  0
   38.6970   31.3150   39.3100 C   0  0  0  0  0  0  0  0  0  0  0  0
   39.8530   32.7410   39.1920 S   0  0  0  0  0  0  0  0  0  0  0  0
   38.9140   33.7480   40.5530 C   0  0  0  0  0  0  0  0  0  0  0  0
   38.1320   33.0100   40.7660 N   0  0  0  0  0  0  0  0  0  0  0  0
   36.4340   30.7610   40.8390 S   0  0  0  0  0  0  0  0  0  0  0  0
   36.4000   28.1560   41.8740 C   0  0  0  0  0  0  0  0  0  0  0  0
   37.0250   29.4320   41.8210 C   0  0  0  0  0  0  0  0  0  0  0  0
   38.1550   29.5840   42.6030 C   0  0  0  0  0  0  0  0  0  0  0  0
   38.6090   28.5450   43.3650 N   0  0  0  0  0  0  0  0  0  0  0  0
   37.9630   27.3380   43.3750 C   0  0  0  0  0  0  0  0  0  0  0  0
   36.8930   27.1600   42.6480 N   0  0  0  0  0  0  0  0  0  0  0  0
   39.3170   35.0150   40.9600 O   0  0  0  0  0  0  0  0  0  0  0  0
   40.2960   35.7550   40.2060 C   0  0  1  0  0  0  0  0  0  0  0  0
   39.9540   37.2500   40.2060 C   0  0  0  0  0  0  0  0  0  0  0  0
   41.1560   36.6710   40.9930 C   0  0  1  0  0  0  0  0  0  0  0  0
   41.1340   36.6820   42.3950 N   0  0  0  0  0  0  0  0  0  0  0  0
   42.3970   36.9910   42.9880 C   0  0  0  0  0  0  0  0  0  0  0  0
   42.7130   38.3510   42.8140 F   0  0  0  0  0  0  0  0  0  0  0  0
   43.4380   36.3500   42.2730 F   0  0  0  0  0  0  0  0  0  0  0  0
   42.5430   36.5820   44.2850 F   0  0  0  0  0  0  0  0  0  0  0  0
   38.6806   30.3595   38.7653 H   0  0  0  0  0  0  0  0  0  0  0  0
   35.4966   27.9739   41.2734 H   0  0  0  0  0  0  0  0  0  0  0  0
   38.6904   30.5449   42.6116 H   0  0  0  0  0  0  0  0  0  0  0  0
   38.3464   26.5159   43.9972 H   0  0  0  0  0  0  0  0  0  0  0  0
   40.5261   34.9857   39.4542 H   0  0  0  0  0  0  0  0  0  0  0  0
   40.1197   37.8591   39.3051 H   0  0  0  0  0  0  0  0  0  0  0  0
   39.0708   37.8607   40.4449 H   0  0  0  0  0  0  0  0  0  0  0  0
   42.2396   36.8576   41.0239 H   0  0  0  0  0  0  0  0  0  0  0  0
   40.4490   37.3865   42.7038 H   0  0  0  0  0  0  0  0  0  0  0  0
  1  5  1  0
  1  6  1  0
  2  1  2  0
  3  2  1  0
  3  4  1  0
  4  5  2  0
  4 13  1  0
  6  8  1  0
  7 12  2  0
  8  7  1  0
  8  9  2  0
  9 10  1  0
 10 11  2  0
 12 11  1  0
 14 13  1  0
 14 16  1  0
 15 14  1  0
 15 16  1  0
 16 17  1  0
 17 18  1  0
 18 21  1  0
 19 18  1  0
 20 18  1  0
  2 22  1  0
  7 23  1  0
  9 24  1  0
 11 25  1  0
 14 26  1  6
 15 27  1  0
 15 28  1  0
 16 29  1  6
 17 30  1  0
M  ISO  8  22  14  23  14  24  14  25  14  26  13  27  13  28  13  29  13
M  ISO  1  30   5
M  END
>  <minimizedAffinity>  (1) 
-5.7329998

>  <minimizedRMSD>  (1) 
3.01950574

$$$$
