
     RDKit          3D

 33 35  0  0  1  0  0  0  0  0999 V2000
   38.1180   31.7410   40.0660 C   0  0  0  0  0  0  0  0  0  0  0  0
   38.5200   31.2650   38.7850 C   0  0  0  0  0  0  0  0  0  0  0  0
   40.0010   32.3300   38.5500 S   0  0  0  0  0  0  0  0  0  0  0  0
   39.7660   33.2160   40.2520 C   0  0  0  0  0  0  0  0  0  0  0  0
   38.8570   32.6840   40.5940 N   0  0  0  0  0  0  0  0  0  0  0  0
   36.6240   30.9880   40.8110 S   0  0  0  0  0  0  0  0  0  0  0  0
   36.3820   28.3420   41.7200 C   0  0  0  0  0  0  0  0  0  0  0  0
   37.0920   29.5800   41.7720 C   0  0  0  0  0  0  0  0  0  0  0  0
   38.1800   29.6100   42.6260 C   0  0  0  0  0  0  0  0  0  0  0  0
   38.5240   28.5110   43.3570 N   0  0  0  0  0  0  0  0  0  0  0  0
   37.7940   27.3550   43.2540 C   0  0  0  0  0  0  0  0  0  0  0  0
   36.7520   27.2840   42.4540 N   0  0  0  0  0  0  0  0  0  0  0  0
   40.6210   34.2140   40.7080 O   0  0  0  0  0  0  0  0  0  0  0  0
   40.7720   35.4510   39.9750 C   0  0  1  0  0  0  0  0  0  0  0  0
   39.4960   36.3020   40.1280 C   0  0  0  0  0  0  0  0  0  0  0  0
   40.8480   36.6950   40.7880 C   0  0  1  0  0  0  0  0  0  0  0  0
   40.9630   36.6030   42.2010 N   0  0  0  0  0  0  0  0  0  0  0  0
   42.2010   37.0030   42.7580 C   0  0  0  0  0  0  0  0  0  0  0  0
   43.2320   35.9110   42.6290 C   0  0  0  0  0  0  0  0  0  0  0  0
   38.0791   30.4952   38.1346 H   0  0  0  0  0  0  0  0  0  0  0  0
   35.5071   28.2546   41.0590 H   0  0  0  0  0  0  0  0  0  0  0  0
   38.7747   30.5310   42.7166 H   0  0  0  0  0  0  0  0  0  0  0  0
   38.0833   26.4755   43.8480 H   0  0  0  0  0  0  0  0  0  0  0  0
   41.3992   35.0720   39.1546 H   0  0  0  0  0  0  0  0  0  0  0  0
   39.1044   36.8768   39.2758 H   0  0  0  0  0  0  0  0  0  0  0  0
   38.4658   36.1306   40.4733 H   0  0  0  0  0  0  0  0  0  0  0  0
   41.4952   37.5842   40.7696 H   0  0  0  0  0  0  0  0  0  0  0  0
   40.2276   37.1938   42.6146 H   0  0  0  0  0  0  0  0  0  0  0  0
   42.5593   37.8995   42.2308 H   0  0  0  0  0  0  0  0  0  0  0  0
   42.0506   37.2172   43.8264 H   0  0  0  0  0  0  0  0  0  0  0  0
   43.5437   35.5808   43.6309 H   0  0  0  0  0  0  0  0  0  0  0  0
   42.7993   35.0611   42.0810 H   0  0  0  0  0  0  0  0  0  0  0  0
   44.1054   36.2942   42.0810 H   0  0  0  0  0  0  0  0  0  0  0  0
  1  5  1  0
  1  6  1  0
  2  1  2  0
  3  2  1  0
  3  4  1  0
  4  5  2  0
  4 13  1  0
  6  8  1  0
  7  8  2  0
  7 12  1  0
  8  9  1  0
  9 10  2  0
 11 10  1  0
 12 11  2  0
 14 15  1  0
 14 13  1  0
 14 16  1  0
 15 16  1  0
 16 17  1  0
 17 18  1  0
 19 18  1  0
  2 20  1  0
  7 21  1  0
  9 22  1  0
 11 23  1  0
 14 24  1  6
 15 25  1  0
 15 26  1  0
 16 27  1  6
 17 28  1  0
 18 29  1  0
 18 30  1  0
 19 31  1  0
 19 32  1  0
 19 33  1  0
M  ISO  8  20  14  21  14  22  14  23  14  24  13  25  13  26  13  27  13
M  ISO  6  28   5  29   8  30   8  31   8  32   8  33   8
M  END
>  <minimizedAffinity>  (1) 
-5.30485058

>  <minimizedRMSD>  (1) 
2.15358377

$$$$
