
     RDKit          3D

 34 37  0  0  1  0  0  0  0  0999 V2000
   37.1440   29.2420   41.6130 C   0  0  0  0  0  0  0  0  0  0  0  0
   35.8880   28.8430   41.0960 C   0  0  0  0  0  0  0  0  0  0  0  0
   35.9700   29.7000   39.4790 S   0  0  0  0  0  0  0  0  0  0  0  0
   37.7220   30.4430   39.8320 C   0  0  0  0  0  0  0  0  0  0  0  0
   37.8460   30.0040   40.8290 N   0  0  0  0  0  0  0  0  0  0  0  0
   37.6120   28.6520   43.2870 S   0  0  0  0  0  0  0  0  0  0  0  0
   37.8200   26.0010   42.4240 C   0  0  0  0  0  0  0  0  0  0  0  0
   38.3600   27.0700   43.1750 C   0  0  0  0  0  0  0  0  0  0  0  0
   39.5370   26.8070   43.8400 C   0  0  0  0  0  0  0  0  0  0  0  0
   40.1210   25.5690   43.7540 N   0  0  0  0  0  0  0  0  0  0  0  0
   39.5540   24.5690   43.0120 C   0  0  0  0  0  0  0  0  0  0  0  0
   38.4280   24.7930   42.3660 N   0  0  0  0  0  0  0  0  0  0  0  0
   38.3880   31.2530   38.9220 O   0  0  0  0  0  0  0  0  0  0  0  0
   39.7810   31.0140   38.6000 C   0  0  1  0  0  0  0  0  0  0  0  0
   40.2750   32.1090   37.6390 C   0  0  0  0  0  0  0  0  0  0  0  0
   40.7600   32.0160   39.0840 C   0  0  1  0  0  0  0  0  0  0  0  0
   40.3340   33.0010   40.0480 N   0  0  0  0  0  0  0  0  0  0  0  0
   40.0790   34.3960   40.0130 C   0  0  0  0  0  0  0  0  0  0  0  0
   38.9530   35.1730   40.2800 C   0  0  0  0  0  0  0  0  0  0  0  0
   39.3750   36.4640   40.0560 C   0  0  0  0  0  0  0  0  0  0  0  0
   40.6960   36.4550   39.6710 C   0  0  0  0  0  0  0  0  0  0  0  0
   41.0400   35.1930   39.6700 O   0  0  0  0  0  0  0  0  0  0  0  0
   35.1013   28.2102   41.5328 H   0  0  0  0  0  0  0  0  0  0  0  0
   36.8809   26.1549   41.8722 H   0  0  0  0  0  0  0  0  0  0  0  0
   40.0116   27.5946   44.4437 H   0  0  0  0  0  0  0  0  0  0  0  0
   40.0364   23.5821   42.9551 H   0  0  0  0  0  0  0  0  0  0  0  0
   39.7664   29.9154   38.6538 H   0  0  0  0  0  0  0  0  0  0  0  0
   40.9506   31.8564   36.8085 H   0  0  0  0  0  0  0  0  0  0  0  0
   39.8051   32.8803   37.0111 H   0  0  0  0  0  0  0  0  0  0  0  0
   41.7526   31.9633   39.5552 H   0  0  0  0  0  0  0  0  0  0  0  0
   40.1782   32.5958   40.9821 H   0  0  0  0  0  0  0  0  0  0  0  0
   37.9561   34.8327   40.5969 H   0  0  0  0  0  0  0  0  0  0  0  0
   38.7523   37.3639   40.1676 H   0  0  0  0  0  0  0  0  0  0  0  0
   41.3258   37.3209   39.4189 H   0  0  0  0  0  0  0  0  0  0  0  0
  1  6  1  0
  2  1  2  0
  3  4  1  0
  3  2  1  0
  4  5  2  0
  5  1  1  0
  7  8  2  0
  8  6  1  0
  8  9  1  0
 10  9  2  0
 11 10  1  0
 12  7  1  0
 12 11  2  0
 13  4  1  0
 14 13  1  0
 14 16  1  0
 15 14  1  0
 15 16  1  0
 16 17  1  0
 18 17  1  0
 18 19  2  0
 20 19  1  0
 21 20  2  0
 22 21  1  0
 22 18  1  0
  2 23  1  0
  7 24  1  0
  9 25  1  0
 11 26  1  0
 14 27  1  6
 15 28  1  0
 15 29  1  0
 16 30  1  6
 17 31  1  0
 19 32  1  0
 20 33  1  0
 21 34  1  0
M  ISO  8  23  14  24  14  25  14  26  14  27  13  28  13  29  13  30  13
M  ISO  3  32  14  33  14  34  14
M  END
>  <minimizedAffinity>  (1) 
-5.23115826

>  <minimizedRMSD>  (1) 
3.83809638

$$$$
