
     RDKit          3D

 30 32  0  0  1  0  0  0  0  0999 V2000
   37.2440   29.4380   42.0480 C   0  0  0  0  0  0  0  0  0  0  0  0
   36.2090   29.0450   41.1900 C   0  0  0  0  0  0  0  0  0  0  0  0
   36.4480   30.2930   39.8520 S   0  0  0  0  0  0  0  0  0  0  0  0
   37.9470   31.1180   40.7550 C   0  0  0  0  0  0  0  0  0  0  0  0
   37.9290   30.4500   41.6170 N   0  0  0  0  0  0  0  0  0  0  0  0
   37.4610   28.4980   43.5900 S   0  0  0  0  0  0  0  0  0  0  0  0
   37.8670   25.9980   42.3770 C   0  0  0  0  0  0  0  0  0  0  0  0
   38.3270   27.0020   43.2710 C   0  0  0  0  0  0  0  0  0  0  0  0
   39.5300   26.7390   43.8980 C   0  0  0  0  0  0  0  0  0  0  0  0
   40.1950   25.5760   43.6420 N   0  0  0  0  0  0  0  0  0  0  0  0
   39.6970   24.6480   42.7690 C   0  0  0  0  0  0  0  0  0  0  0  0
   38.5590   24.8710   42.1600 N   0  0  0  0  0  0  0  0  0  0  0  0
   38.6240   32.2040   40.2240 O   0  0  0  0  0  0  0  0  0  0  0  0
   39.9960   32.4770   40.5870 C   0  0  1  0  0  0  0  0  0  0  0  0
   40.8400   32.6530   39.3170 C   0  0  0  0  0  0  0  0  0  0  0  0
   40.5150   33.8220   40.2380 C   0  0  1  0  0  0  0  0  0  0  0  0
   39.6100   34.8440   39.8210 N   0  0  0  0  0  0  0  0  0  0  0  0
   39.9760   36.2290   39.8550 C   0  0  0  0  0  0  0  0  0  0  0  0
   39.2050   37.1790   40.0300 O   0  0  0  0  0  0  0  0  0  0  0  0
   41.3360   36.4450   39.6660 O   0  0  0  0  0  0  0  0  0  0  0  0
   35.4725   28.2335   41.2854 H   0  0  0  0  0  0  0  0  0  0  0  0
   36.9149   26.1502   41.8475 H   0  0  0  0  0  0  0  0  0  0  0  0
   39.9520   27.4687   44.6047 H   0  0  0  0  0  0  0  0  0  0  0  0
   40.2509   23.7168   42.5789 H   0  0  0  0  0  0  0  0  0  0  0  0
   40.0311   31.8885   41.5157 H   0  0  0  0  0  0  0  0  0  0  0  0
   40.3715   32.5811   38.3244 H   0  0  0  0  0  0  0  0  0  0  0  0
   41.7559   32.2006   38.9091 H   0  0  0  0  0  0  0  0  0  0  0  0
   41.1221   34.5769   40.7591 H   0  0  0  0  0  0  0  0  0  0  0  0
   38.6719   34.5797   39.4878 H   0  0  0  0  0  0  0  0  0  0  0  0
   41.6962   37.3671   39.6713 H   0  0  0  0  0  0  0  0  0  0  0  0
  1  6  1  0
  2  1  2  0
  3  4  1  0
  3  2  1  0
  4  5  2  0
  5  1  1  0
  7  8  2  0
  8  6  1  0
  8  9  1  0
 10  9  2  0
 11 10  1  0
 12  7  1  0
 12 11  2  0
 13 14  1  0
 13  4  1  0
 15 16  1  0
 15 14  1  0
 16 14  1  0
 17 18  1  0
 17 16  1  0
 18 19  2  0
 20 18  1  0
  2 21  1  0
  7 22  1  0
  9 23  1  0
 11 24  1  0
 14 25  1  1
 15 26  1  0
 15 27  1  0
 16 28  1  1
 17 29  1  0
 20 30  1  0
M  ISO  8  21  14  22  14  23  14  24  14  25  13  26  13  27  13  28  13
M  ISO  1  30   3
M  END
>  <minimizedAffinity>  (1) 
-5.17431211

>  <minimizedRMSD>  (1) 
3.13060737

$$$$
