
     RDKit          3D

 36 38  0  0  1  0  0  0  0  0999 V2000
   37.0330   29.1120   42.1170 C   0  0  0  0  0  0  0  0  0  0  0  0
   36.0750   28.7040   41.1470 C   0  0  0  0  0  0  0  0  0  0  0  0
   36.3110   30.0700   39.9430 S   0  0  0  0  0  0  0  0  0  0  0  0
   37.6760   30.9260   41.0140 C   0  0  0  0  0  0  0  0  0  0  0  0
   37.6980   30.2180   41.8520 N   0  0  0  0  0  0  0  0  0  0  0  0
   37.2290   28.0680   43.6140 S   0  0  0  0  0  0  0  0  0  0  0  0
   38.0440   25.6940   42.3720 C   0  0  0  0  0  0  0  0  0  0  0  0
   38.3360   26.7500   43.2770 C   0  0  0  0  0  0  0  0  0  0  0  0
   39.5700   26.6910   43.9070 C   0  0  0  0  0  0  0  0  0  0  0  0
   40.4340   25.6580   43.6440 N   0  0  0  0  0  0  0  0  0  0  0  0
   40.0980   24.6690   42.7620 C   0  0  0  0  0  0  0  0  0  0  0  0
   38.9280   24.6980   42.1460 N   0  0  0  0  0  0  0  0  0  0  0  0
   38.2990   32.1020   40.6110 O   0  0  0  0  0  0  0  0  0  0  0  0
   39.7100   32.1740   40.4160 C   0  0  1  0  0  0  0  0  0  0  0  0
   40.0490   32.8900   39.1080 C   0  0  0  0  0  0  0  0  0  0  0  0
   40.3040   33.5320   40.4910 C   0  0  1  0  0  0  0  0  0  0  0  0
   39.5750   34.6360   40.9050 N   0  0  0  0  0  0  0  0  0  0  0  0
   40.0340   35.9440   40.9700 C   0  0  0  0  0  0  0  0  0  0  0  0
   39.6850   36.9880   39.9990 C   0  0  0  0  0  0  0  0  0  0  0  0
   41.5620   35.8990   41.1780 C   0  0  0  0  0  0  0  0  0  0  0  0
   35.3997   27.8359   41.1252 H   0  0  0  0  0  0  0  0  0  0  0  0
   37.0786   25.6876   41.8449 H   0  0  0  0  0  0  0  0  0  0  0  0
   39.8577   27.4765   44.6213 H   0  0  0  0  0  0  0  0  0  0  0  0
   40.8022   23.8474   42.5642 H   0  0  0  0  0  0  0  0  0  0  0  0
   39.9732   31.2192   40.8946 H   0  0  0  0  0  0  0  0  0  0  0  0
   40.8920   32.5486   38.4893 H   0  0  0  0  0  0  0  0  0  0  0  0
   39.5032   33.1694   38.1947 H   0  0  0  0  0  0  0  0  0  0  0  0
   41.1762   33.9588   41.0078 H   0  0  0  0  0  0  0  0  0  0  0  0
   38.7574   34.6686   40.2793 H   0  0  0  0  0  0  0  0  0  0  0  0
   39.4218   36.3219   41.8021 H   0  0  0  0  0  0  0  0  0  0  0  0
   39.3803   37.8994   40.5342 H   0  0  0  0  0  0  0  0  0  0  0  0
   40.5584   37.2082   39.3676 H   0  0  0  0  0  0  0  0  0  0  0  0
   38.8548   36.6387   39.3676 H   0  0  0  0  0  0  0  0  0  0  0  0
   41.7854   35.8924   42.2551 H   0  0  0  0  0  0  0  0  0  0  0  0
   41.9686   34.9885   40.7136 H   0  0  0  0  0  0  0  0  0  0  0  0
   42.0215   36.7840   40.7136 H   0  0  0  0  0  0  0  0  0  0  0  0
  1  6  1  0
  2  1  2  0
  3  4  1  0
  3  2  1  0
  4  5  2  0
  5  1  1  0
  7  8  2  0
  8  6  1  0
  8  9  1  0
 10  9  2  0
 11 10  1  0
 12  7  1  0
 12 11  2  0
 13  4  1  0
 14 16  1  0
 14 13  1  0
 15 14  1  0
 15 16  1  0
 16 17  1  0
 17 18  1  0
 18 20  1  0
 19 18  1  0
  2 21  1  0
  7 22  1  0
  9 23  1  0
 11 24  1  0
 14 25  1  1
 15 26  1  0
 15 27  1  0
 16 28  1  1
 17 29  1  0
 18 30  1  0
 19 31  1  0
 19 32  1  0
 19 33  1  0
 20 34  1  0
 20 35  1  0
 20 36  1  0
M  ISO  8  21  14  22  14  23  14  24  14  25  13  26  13  27  13  28  13
M  ISO  8  29   5  30   8  31   8  32   8  33   8  34   8  35   8  36   8
M  END
>  <minimizedAffinity>  (1) 
-4.81542015

>  <minimizedRMSD>  (1) 
3.37193251

$$$$
