
     RDKit          3D

 30 32  0  0  1  0  0  0  0  0999 V2000
   37.4710   31.3270   40.0230 C   0  0  0  0  0  0  0  0  0  0  0  0
   38.0050   30.8560   38.7900 C   0  0  0  0  0  0  0  0  0  0  0  0
   39.1970   32.2160   38.4800 S   0  0  0  0  0  0  0  0  0  0  0  0
   38.7210   33.1560   40.1010 C   0  0  0  0  0  0  0  0  0  0  0  0
   37.9570   32.4640   40.4840 N   0  0  0  0  0  0  0  0  0  0  0  0
   36.1670   30.3160   40.8320 S   0  0  0  0  0  0  0  0  0  0  0  0
   36.3850   27.8150   42.0810 C   0  0  0  0  0  0  0  0  0  0  0  0
   36.9040   29.1220   41.8850 C   0  0  0  0  0  0  0  0  0  0  0  0
   38.0540   29.4240   42.5840 C   0  0  0  0  0  0  0  0  0  0  0  0
   38.6300   28.4930   43.4070 N   0  0  0  0  0  0  0  0  0  0  0  0
   38.0830   27.2450   43.5570 C   0  0  0  0  0  0  0  0  0  0  0  0
   36.9830   26.9310   42.8990 N   0  0  0  0  0  0  0  0  0  0  0  0
   39.3200   34.3560   40.4620 O   0  0  0  0  0  0  0  0  0  0  0  0
   40.7560   34.4910   40.4940 C   0  0  1  0  0  0  0  0  0  0  0  0
   41.2220   35.3680   39.3180 C   0  0  0  0  0  0  0  0  0  0  0  0
   41.2900   35.8400   40.7940 C   0  0  1  0  0  0  0  0  0  0  0  0
   40.4200   36.8810   41.2050 N   0  0  0  0  0  0  0  0  0  0  0  0
   39.7840   37.5040   40.0770 C   0  0  0  0  0  0  0  0  0  0  0  0
   37.7740   29.9544   38.2038 H   0  0  0  0  0  0  0  0  0  0  0  0
   35.4691   27.5176   41.5494 H   0  0  0  0  0  0  0  0  0  0  0  0
   38.5115   30.4189   42.4798 H   0  0  0  0  0  0  0  0  0  0  0  0
   38.5584   26.5092   44.2223 H   0  0  0  0  0  0  0  0  0  0  0  0
   40.9932   33.5010   40.9107 H   0  0  0  0  0  0  0  0  0  0  0  0
   42.1425   35.1208   38.7689 H   0  0  0  0  0  0  0  0  0  0  0  0
   40.7784   35.7442   38.3844 H   0  0  0  0  0  0  0  0  0  0  0  0
   42.0791   36.2124   41.4638 H   0  0  0  0  0  0  0  0  0  0  0  0
   39.6963   36.4889   41.8242 H   0  0  0  0  0  0  0  0  0  0  0  0
   39.0402   38.2326   40.4317 H   0  0  0  0  0  0  0  0  0  0  0  0
   40.5410   38.0197   39.4679 H   0  0  0  0  0  0  0  0  0  0  0  0
   39.2840   36.7365   39.4679 H   0  0  0  0  0  0  0  0  0  0  0  0
  1  5  1  0
  1  6  1  0
  2  1  2  0
  3  2  1  0
  3  4  1  0
  4 13  1  0
  4  5  2  0
  6  8  1  0
  7 12  2  0
  8  7  1  0
  8  9  2  0
  9 10  1  0
 10 11  2  0
 12 11  1  0
 13 14  1  0
 14 16  1  0
 15 14  1  0
 15 16  1  0
 16 17  1  0
 18 17  1  0
  2 19  1  0
  7 20  1  0
  9 21  1  0
 11 22  1  0
 14 23  1  1
 15 24  1  0
 15 25  1  0
 16 26  1  1
 17 27  1  0
 18 28  1  0
 18 29  1  0
 18 30  1  0
M  ISO  8  19  14  20  14  21  14  22  14  23  13  24  13  25  13  26  13
M  ISO  4  27   5  28   8  29   8  30   8
M  END
>  <minimizedAffinity>  (1) 
-4.37514925

>  <minimizedRMSD>  (1) 
0.955735683

$$$$
