
     RDKit          3D

 36 38  0  0  1  0  0  0  0  0999 V2000
   38.2830   33.1160   40.7210 C   0  0  1  0  0  0  0  0  0  0  0  0
   39.6570   32.4670   40.4400 C   0  0  0  0  0  0  0  0  0  0  0  0
   39.4730   33.9700   40.7790 C   0  0  1  0  0  0  0  0  0  0  0  0
   39.8290   34.7860   39.6440 N   0  0  0  0  0  0  0  0  0  0  0  0
   40.7250   35.8970   39.5690 C   0  0  0  0  0  0  0  0  0  0  0  0
   40.8150   37.0220   40.0770 O   0  0  0  0  0  0  0  0  0  0  0  0
   41.8620   35.7240   38.6580 N   0  0  0  0  0  0  0  0  0  0  0  0
   42.0940   34.5630   37.8700 C   0  0  0  0  0  0  0  0  0  0  0  0
   41.2290   33.6130   37.9790 N   0  0  0  0  0  0  0  0  0  0  0  0
   43.1970   34.3910   36.9880 N   0  0  0  0  0  0  0  0  0  0  0  0
   41.2630   32.7120   37.4710 H   0  0  0  0  0  0  0  0  0  0  0  0
   37.5290   33.1020   39.4810 O   0  0  0  0  0  0  0  0  0  0  0  0
   36.4530   29.9090   38.2680 C   0  0  0  0  0  0  0  0  0  0  0  0
   36.9980   29.9430   36.9750 C   0  0  0  0  0  0  0  0  0  0  0  0
   37.7840   31.6120   37.0560 S   0  0  0  0  0  0  0  0  0  0  0  0
   37.1930   31.9200   38.8750 C   0  0  0  0  0  0  0  0  0  0  0  0
   36.6800   30.9670   38.9840 N   0  0  0  0  0  0  0  0  0  0  0  0
   35.5350   28.4120   38.7610 S   0  0  0  0  0  0  0  0  0  0  0  0
   36.9220   26.4980   40.2970 C   0  0  0  0  0  0  0  0  0  0  0  0
   36.2270   27.7500   40.2380 C   0  0  0  0  0  0  0  0  0  0  0  0
   36.1190   28.4420   41.4190 C   0  0  0  0  0  0  0  0  0  0  0  0
   36.6670   27.9170   42.5730 N   0  0  0  0  0  0  0  0  0  0  0  0
   37.3120   26.7260   42.5610 C   0  0  0  0  0  0  0  0  0  0  0  0
   37.4350   26.0270   41.4330 N   0  0  0  0  0  0  0  0  0  0  0  0
   37.4463   33.0077   41.4269 H   0  0  0  0  0  0  0  0  0  0  0  0
   40.1111   31.7804   41.1697 H   0  0  0  0  0  0  0  0  0  0  0  0
   40.1118   31.8825   39.6267 H   0  0  0  0  0  0  0  0  0  0  0  0
   39.7995   34.6907   41.5431 H   0  0  0  0  0  0  0  0  0  0  0  0
   39.3703   34.5306   38.7578 H   0  0  0  0  0  0  0  0  0  0  0  0
   42.5390   36.4968   38.5840 H   0  0  0  0  0  0  0  0  0  0  0  0
   43.8979   35.1390   36.8880 H   0  0  0  0  0  0  0  0  0  0  0  0
   43.2946   33.5184   36.4495 H   0  0  0  0  0  0  0  0  0  0  0  0
   36.9665   29.2023   36.1623 H   0  0  0  0  0  0  0  0  0  0  0  0
   37.0355   25.9075   39.3759 H   0  0  0  0  0  0  0  0  0  0  0  0
   35.5982   29.4105   41.4460 H   0  0  0  0  0  0  0  0  0  0  0  0
   37.7397   26.3307   43.4942 H   0  0  0  0  0  0  0  0  0  0  0  0
  1  3  1  0
  2  1  1  0
  2  3  1  0
  4  3  1  0
  5  4  1  0
  5  6  2  0
  7  5  1  0
  8  9  2  0
  8  7  1  0
 10  8  1  0
 11  9  1  0
 12  1  1  0
 13 18  1  0
 13 17  1  0
 14 15  1  0
 14 13  2  0
 15 16  1  0
 16 17  2  0
 16 12  1  0
 18 20  1  0
 19 24  2  0
 20 19  1  0
 20 21  2  0
 21 22  1  0
 23 22  2  0
 24 23  1  0
  1 25  1  1
  2 26  1  0
  2 27  1  0
  3 28  1  1
  4 29  1  0
  7 30  1  0
 10 31  1  0
 10 32  1  0
 14 33  1  0
 19 34  1  0
 21 35  1  0
 23 36  1  0
M  ISO  8  25  13  26  13  27  13  28  13  33  14  34  14  35  14  36  14
M  END
>  <minimizedAffinity>  (1) 
-6.12606812

>  <minimizedRMSD>  (1) 
1.86181486

$$$$
