
     RDKit          3D

 35 38  0  0  1  0  0  0  0  0999 V2000
   37.8640   33.7480   39.7920 O   0  0  0  0  0  0  0  0  0  0  0  0
   38.9320   33.9450   40.7490 C   0  0  1  0  0  0  0  0  0  0  0  0
   39.7790   32.6610   40.7920 C   0  0  0  0  0  0  0  0  0  0  0  0
   40.3050   34.0140   40.2340 C   0  0  1  0  0  0  0  0  0  0  0  0
   40.5470   33.9260   38.8260 N   0  0  0  0  0  0  0  0  0  0  0  0
   41.7620   34.0770   38.0940 C   0  0  0  0  0  0  0  0  0  0  0  0
   42.4800   35.0830   37.7820 O   0  0  0  0  0  0  0  0  0  0  0  0
   42.3740   32.7990   37.5350 C   0  0  0  0  0  0  0  0  0  0  0  0
   41.4240   31.7440   37.2520 C   0  0  0  0  0  0  0  0  0  0  0  0
   42.4150   30.3750   36.6350 S   0  0  0  0  0  0  0  0  0  0  0  0
   44.0010   31.4000   36.8340 C   0  0  0  0  0  0  0  0  0  0  0  0
   43.5630   32.3450   37.2330 N   0  0  0  0  0  0  0  0  0  0  0  0
   36.4250   30.4720   39.5810 C   0  0  0  0  0  0  0  0  0  0  0  0
   36.7140   30.1660   38.2390 C   0  0  0  0  0  0  0  0  0  0  0  0
   37.5770   31.7320   37.7830 S   0  0  0  0  0  0  0  0  0  0  0  0
   37.3620   32.4940   39.5490 C   0  0  0  0  0  0  0  0  0  0  0  0
   36.8390   31.6390   39.9590 N   0  0  0  0  0  0  0  0  0  0  0  0
   35.5430   29.2250   40.5770 S   0  0  0  0  0  0  0  0  0  0  0  0
   36.8520   27.0950   41.8750 C   0  0  0  0  0  0  0  0  0  0  0  0
   36.6540   28.5000   41.7360 C   0  0  0  0  0  0  0  0  0  0  0  0
   37.3970   29.2960   42.5740 C   0  0  0  0  0  0  0  0  0  0  0  0
   38.2640   28.7320   43.4750 N   0  0  0  0  0  0  0  0  0  0  0  0
   38.4110   27.3750   43.5620 C   0  0  0  0  0  0  0  0  0  0  0  0
   37.7050   26.5810   42.7630 N   0  0  0  0  0  0  0  0  0  0  0  0
   38.3988   34.6034   41.4506 H   0  0  0  0  0  0  0  0  0  0  0  0
   40.1513   32.2687   41.7498 H   0  0  0  0  0  0  0  0  0  0  0  0
   39.6824   31.6297   40.4216 H   0  0  0  0  0  0  0  0  0  0  0  0
   41.1145   34.7312   40.4349 H   0  0  0  0  0  0  0  0  0  0  0  0
   39.7157   33.7222   38.2530 H   0  0  0  0  0  0  0  0  0  0  0  0
   40.3325   31.7731   37.3853 H   0  0  0  0  0  0  0  0  0  0  0  0
   45.0474   31.1380   36.6185 H   0  0  0  0  0  0  0  0  0  0  0  0
   36.4931   29.2679   37.6434 H   0  0  0  0  0  0  0  0  0  0  0  0
   36.2822   26.4115   41.2283 H   0  0  0  0  0  0  0  0  0  0  0  0
   37.2961   30.3901   42.5221 H   0  0  0  0  0  0  0  0  0  0  0  0
   39.1115   26.9418   44.2911 H   0  0  0  0  0  0  0  0  0  0  0  0
  1  2  1  0
  2  3  1  0
  4  2  1  0
  4  3  1  0
  5  4  1  0
  6  5  1  0
  7  6  2  0
  8  6  1  0
  9  8  2  0
 10 11  1  0
 10  9  1  0
 11 12  2  0
 12  8  1  0
 13 17  1  0
 13 18  1  0
 14 13  2  0
 15 14  1  0
 15 16  1  0
 16  1  1  0
 16 17  2  0
 18 20  1  0
 19 24  2  0
 20 19  1  0
 20 21  2  0
 21 22  1  0
 22 23  2  0
 24 23  1  0
  2 25  1  1
  3 26  1  0
  3 27  1  0
  4 28  1  1
  5 29  1  0
  9 30  1  0
 11 31  1  0
 14 32  1  0
 19 33  1  0
 21 34  1  0
 23 35  1  0
M  ISO  8  25  13  26  13  27  13  28  13  30  14  31  14  32  14  33  14
M  ISO  2  34  14  35  14
M  END
>  <minimizedAffinity>  (1) 
-5.5650363

>  <minimizedRMSD>  (1) 
3.6070652

$$$$
