
     RDKit          3D

 44 47  0  0  1  0  0  0  0  0999 V2000
   37.7850   32.6820   40.5590 C   0  0  1  0  0  0  0  0  0  0  0  0
   39.2320   32.2300   40.8450 C   0  0  0  0  0  0  0  0  0  0  0  0
   38.8110   33.7190   40.7400 C   0  0  1  0  0  0  0  0  0  0  0  0
   39.4080   34.3540   39.6160 N   0  0  0  0  0  0  0  0  0  0  0  0
   40.5630   35.1970   39.5650 C   0  0  0  0  0  0  0  0  0  0  0  0
   40.8460   36.3620   39.8670 O   0  0  0  0  0  0  0  0  0  0  0  0
   41.8370   34.7120   39.0380 N   0  0  0  0  0  0  0  0  0  0  0  0
   42.5240   34.1720   40.1820 C   0  0  0  0  0  0  0  0  0  0  0  0
   43.9050   33.6950   39.7210 C   0  0  0  0  0  0  0  0  0  0  0  0
   43.6640   32.6220   38.6770 C   0  0  0  0  0  0  0  0  0  0  0  0
   42.7660   33.1430   37.5620 C   0  0  0  0  0  0  0  0  0  0  0  0
   42.5220   34.6440   37.7750 C   0  0  0  0  0  0  0  0  0  0  0  0
   37.4550   32.3060   39.2010 O   0  0  0  0  0  0  0  0  0  0  0  0
   36.8040   28.8100   38.7700 C   0  0  0  0  0  0  0  0  0  0  0  0
   36.9430   28.7050   37.3800 C   0  0  0  0  0  0  0  0  0  0  0  0
   37.3370   30.4690   37.0140 S   0  0  0  0  0  0  0  0  0  0  0  0
   37.2280   30.9940   38.8730 C   0  0  0  0  0  0  0  0  0  0  0  0
   36.9880   30.0030   39.2400 N   0  0  0  0  0  0  0  0  0  0  0  0
   36.4050   27.2930   39.7030 S   0  0  0  0  0  0  0  0  0  0  0  0
   38.4870   26.7330   41.5150 C   0  0  0  0  0  0  0  0  0  0  0  0
   37.2120   27.3260   41.2650 C   0  0  0  0  0  0  0  0  0  0  0  0
   36.6190   27.9490   42.3360 C   0  0  0  0  0  0  0  0  0  0  0  0
   37.2470   27.9790   43.5600 N   0  0  0  0  0  0  0  0  0  0  0  0
   38.4720   27.3910   43.7370 C   0  0  0  0  0  0  0  0  0  0  0  0
   39.0690   26.7810   42.7170 N   0  0  0  0  0  0  0  0  0  0  0  0
   36.7858   32.5737   41.0060 H   0  0  0  0  0  0  0  0  0  0  0  0
   39.4986   31.7919   41.8182 H   0  0  0  0  0  0  0  0  0  0  0  0
   39.9723   31.5756   40.3615 H   0  0  0  0  0  0  0  0  0  0  0  0
   38.8160   34.6228   41.3670 H   0  0  0  0  0  0  0  0  0  0  0  0
   38.9440   34.1831   38.7124 H   0  0  0  0  0  0  0  0  0  0  0  0
   42.6352   34.9493   40.9523 H   0  0  0  0  0  0  0  0  0  0  0  0
   41.9535   33.3352   40.6114 H   0  0  0  0  0  0  0  0  0  0  0  0
   44.4692   34.5315   39.2829 H   0  0  0  0  0  0  0  0  0  0  0  0
   44.4927   33.3040   40.5647 H   0  0  0  0  0  0  0  0  0  0  0  0
   44.6287   32.3130   38.2482 H   0  0  0  0  0  0  0  0  0  0  0  0
   43.1673   31.7669   39.1588 H   0  0  0  0  0  0  0  0  0  0  0  0
   41.8056   32.6071   37.5815 H   0  0  0  0  0  0  0  0  0  0  0  0
   43.2512   32.9804   36.5882 H   0  0  0  0  0  0  0  0  0  0  0  0
   43.4746   35.1924   37.8174 H   0  0  0  0  0  0  0  0  0  0  0  0
   41.9445   35.0983   36.9564 H   0  0  0  0  0  0  0  0  0  0  0  0
   36.8467   27.8366   36.7117 H   0  0  0  0  0  0  0  0  0  0  0  0
   39.0065   26.2204   40.6919 H   0  0  0  0  0  0  0  0  0  0  0  0
   35.6358   28.4270   42.2144 H   0  0  0  0  0  0  0  0  0  0  0  0
   38.9611   27.4235   44.7217 H   0  0  0  0  0  0  0  0  0  0  0  0
  1  3  1  0
  1  2  1  0
  3  2  1  0
  4  3  1  0
  5  4  1  0
  5  6  2  0
  7  5  1  0
  7  8  1  0
  9  8  1  0
 10  9  1  0
 11 12  1  0
 11 10  1  0
 12  7  1  0
 13  1  1  0
 14 18  1  0
 14 19  1  0
 15 14  2  0
 16 15  1  0
 16 17  1  0
 17 13  1  0
 17 18  2  0
 19 21  1  0
 20 25  2  0
 21 20  1  0
 21 22  2  0
 22 23  1  0
 23 24  2  0
 25 24  1  0
  1 26  1  1
  2 27  1  0
  2 28  1  0
  3 29  1  1
  4 30  1  0
  8 31  1  0
  8 32  1  0
  9 33  1  0
  9 34  1  0
 10 35  1  0
 10 36  1  0
 11 37  1  0
 11 38  1  0
 12 39  1  0
 12 40  1  0
 15 41  1  0
 20 42  1  0
 22 43  1  0
 24 44  1  0
M  ISO  8  26  13  27  13  28  13  29  13  31  13  32  13  33  13  34  13
M  ISO  8  35  13  36  13  37  13  38  13  39  13  40  13  41  14  42  14
M  ISO  2  43  14  44  14
M  END
>  <minimizedAffinity>  (1) 
-5.46919775

>  <minimizedRMSD>  (1) 
2.70542693

$$$$
