
     RDKit          3D

 17 18  0  0  0  0  0  0  0  0999 V2000
   37.8120   28.8350   43.4510 C   0  0  0  0  0  0  0  0  0  0  0  0
   37.7220   27.4220   43.5170 C   0  0  0  0  0  0  0  0  0  0  0  0
   37.1190   26.7550   42.4310 C   0  0  0  0  0  0  0  0  0  0  0  0
   36.6620   27.5160   41.3910 N   0  0  0  0  0  0  0  0  0  0  0  0
   36.7660   28.8560   41.3640 C   0  0  0  0  0  0  0  0  0  0  0  0
   37.3400   29.5140   42.3930 N   0  0  0  0  0  0  0  0  0  0  0  0
   36.9950   25.2880   42.4390 C   0  0  0  0  0  0  0  0  0  0  0  0
   36.7990   24.4970   41.2300 C   0  0  0  0  0  0  0  0  0  0  0  0
   38.1990   24.5820   41.8200 C   0  0  0  0  0  0  0  0  0  0  0  0
   38.2772   29.3856   44.2819 H   0  0  0  0  0  0  0  0  0  0  0  0
   38.1085   26.8661   44.3839 H   0  0  0  0  0  0  0  0  0  0  0  0
   36.3819   29.4182   40.5001 H   0  0  0  0  0  0  0  0  0  0  0  0
   36.4323   25.2945   43.3841 H   0  0  0  0  0  0  0  0  0  0  0  0
   36.5766   25.0015   40.2781 H   0  0  0  0  0  0  0  0  0  0  0  0
   36.1306   23.6681   40.9542 H   0  0  0  0  0  0  0  0  0  0  0  0
   38.6493   23.7093   42.3156 H   0  0  0  0  0  0  0  0  0  0  0  0
   39.1955   24.8787   41.4609 H   0  0  0  0  0  0  0  0  0  0  0  0
  1  2  2  0
  3  7  1  0
  3  2  1  0
  4  3  2  0
  5  4  1  0
  5  6  2  0
  6  1  1  0
  8  9  1  0
  8  7  1  0
  9  7  1  0
  1 10  1  0
  2 11  1  0
  5 12  1  0
  7 13  1  0
  8 14  1  0
  8 15  1  0
  9 16  1  0
  9 17  1  0
M  ISO  8  10  14  11  14  12  14  13  13  14  13  15  13  16  13  17  13
M  END
>  <minimizedAffinity>  (1) 
-3.25651884

>  <minimizedRMSD>  (1) 
1.27970767

$$$$
