
     RDKit          3D

 30 32  0  0  1  0  0  0  0  0999 V2000
   36.6690   29.5860   38.9270 C   0  0  0  0  0  0  0  0  0  0  0  0
   36.8790   29.5230   37.5480 C   0  0  0  0  0  0  0  0  0  0  0  0
   37.5560   31.2180   37.3010 S   0  0  0  0  0  0  0  0  0  0  0  0
   37.4100   31.6730   39.1740 C   0  0  0  0  0  0  0  0  0  0  0  0
   37.0030   30.7140   39.4570 N   0  0  0  0  0  0  0  0  0  0  0  0
   35.9860   28.1080   39.7570 S   0  0  0  0  0  0  0  0  0  0  0  0
   37.5180   26.6310   41.6020 C   0  0  0  0  0  0  0  0  0  0  0  0
   36.8270   27.8370   41.2790 C   0  0  0  0  0  0  0  0  0  0  0  0
   36.8480   28.8180   42.2410 C   0  0  0  0  0  0  0  0  0  0  0  0
   37.5070   28.6100   43.4310 N   0  0  0  0  0  0  0  0  0  0  0  0
   38.1500   27.4350   43.6840 C   0  0  0  0  0  0  0  0  0  0  0  0
   38.1480   26.4660   42.7730 N   0  0  0  0  0  0  0  0  0  0  0  0
   37.8090   32.9160   39.5880 O   0  0  0  0  0  0  0  0  0  0  0  0
   38.5660   33.0900   40.8160 C   0  0  1  0  0  0  0  0  0  0  0  0
   40.0420   32.7610   40.4990 C   0  0  0  0  0  0  0  0  0  0  0  0
   39.5380   34.1880   40.8440 C   0  0  1  0  0  0  0  0  0  0  0  0
   39.6460   35.0830   39.7300 N   0  0  0  0  0  0  0  0  0  0  0  0
   40.0930   36.4340   39.7040 C   0  0  0  0  0  0  0  0  0  0  0  0
   39.6510   37.5310   40.0630 O   0  0  0  0  0  0  0  0  0  0  0  0
   41.3670   36.7320   39.1340 O   0  0  0  0  0  0  0  0  0  0  0  0
   36.6962   28.7103   36.8295 H   0  0  0  0  0  0  0  0  0  0  0  0
   37.5339   25.8122   40.8676 H   0  0  0  0  0  0  0  0  0  0  0  0
   36.3356   29.7742   42.0590 H   0  0  0  0  0  0  0  0  0  0  0  0
   38.6706   27.2882   44.6418 H   0  0  0  0  0  0  0  0  0  0  0  0
   37.7934   32.7971   41.5422 H   0  0  0  0  0  0  0  0  0  0  0  0
   40.6556   32.1959   41.2161 H   0  0  0  0  0  0  0  0  0  0  0  0
   40.5943   32.2880   39.6736 H   0  0  0  0  0  0  0  0  0  0  0  0
   39.7330   34.9626   41.6003 H   0  0  0  0  0  0  0  0  0  0  0  0
   39.3599   34.6939   38.8203 H   0  0  0  0  0  0  0  0  0  0  0  0
   41.6915   37.6670   39.1087 H   0  0  0  0  0  0  0  0  0  0  0  0
  1  5  1  0
  1  6  1  0
  2  1  2  0
  3  2  1  0
  3  4  1  0
  4  5  2  0
  4 13  1  0
  6  8  1  0
  7 12  2  0
  8  7  1  0
  8  9  2  0
  9 10  1  0
 10 11  2  0
 12 11  1  0
 13 14  1  0
 14 16  1  0
 15 14  1  0
 15 16  1  0
 17 16  1  0
 18 17  1  0
 18 19  2  0
 20 18  1  0
  2 21  1  0
  7 22  1  0
  9 23  1  0
 11 24  1  0
 14 25  1  1
 15 26  1  0
 15 27  1  0
 16 28  1  1
 17 29  1  0
 20 30  1  0
M  ISO  8  21  14  22  14  23  14  24  14  25  13  26  13  27  13  28  13
M  ISO  1  30   3
M  END
>  <minimizedAffinity>  (1) 
-4.83369064

>  <minimizedRMSD>  (1) 
0.928333819

$$$$
