
     RDKit          3D

 33 35  0  0  1  0  0  0  0  0999 V2000
   37.2020   32.0840   38.8920 O   0  0  0  0  0  0  0  0  0  0  0  0
   37.2990   32.5780   40.2610 C   0  0  1  0  0  0  0  0  0  0  0  0
   38.6340   32.0060   40.8190 C   0  0  0  0  0  0  0  0  0  0  0  0
   38.3640   33.5200   40.5480 C   0  0  1  0  0  0  0  0  0  0  0  0
   39.2300   33.9930   39.4940 N   0  0  0  0  0  0  0  0  0  0  0  0
   40.4900   34.6580   39.5800 C   0  0  0  0  0  0  0  0  0  0  0  0
   40.9040   35.7640   40.0010 O   0  0  0  0  0  0  0  0  0  0  0  0
   41.6250   33.9440   39.0750 O   0  0  0  0  0  0  0  0  0  0  0  0
   42.2240   34.1700   37.8770 C   0  0  0  0  0  0  0  0  0  0  0  0
   42.2740   33.2390   37.0350 O   0  0  0  0  0  0  0  0  0  0  0  0
   42.7730   35.4410   37.6090 O   0  0  0  0  0  0  0  0  0  0  0  0
   36.7420   28.5590   38.5810 C   0  0  0  0  0  0  0  0  0  0  0  0
   36.8560   28.4370   37.2030 C   0  0  0  0  0  0  0  0  0  0  0  0
   37.1360   30.2120   36.8040 S   0  0  0  0  0  0  0  0  0  0  0  0
   37.0390   30.7640   38.6490 C   0  0  0  0  0  0  0  0  0  0  0  0
   36.8690   29.7640   38.9930 N   0  0  0  0  0  0  0  0  0  0  0  0
   36.4540   27.0440   39.5630 S   0  0  0  0  0  0  0  0  0  0  0  0
   38.3960   26.6320   41.5780 C   0  0  0  0  0  0  0  0  0  0  0  0
   37.1630   27.2240   41.1680 C   0  0  0  0  0  0  0  0  0  0  0  0
   36.5160   27.9710   42.1090 C   0  0  0  0  0  0  0  0  0  0  0  0
   37.0580   28.1180   43.3680 N   0  0  0  0  0  0  0  0  0  0  0  0
   38.2420   27.5310   43.7100 C   0  0  0  0  0  0  0  0  0  0  0  0
   38.8920   26.7970   42.8100 N   0  0  0  0  0  0  0  0  0  0  0  0
   36.2326   32.6178   40.5280 H   0  0  0  0  0  0  0  0  0  0  0  0
   38.6943   31.6211   41.8477 H   0  0  0  0  0  0  0  0  0  0  0  0
   39.3768   31.2548   40.5124 H   0  0  0  0  0  0  0  0  0  0  0  0
   38.3357   34.4695   41.1026 H   0  0  0  0  0  0  0  0  0  0  0  0
   38.8874   33.8255   38.5372 H   0  0  0  0  0  0  0  0  0  0  0  0
   43.2120   35.6172   36.7393 H   0  0  0  0  0  0  0  0  0  0  0  0
   36.7972   27.5530   36.5510 H   0  0  0  0  0  0  0  0  0  0  0  0
   38.9572   26.0196   40.8568 H   0  0  0  0  0  0  0  0  0  0  0  0
   35.5603   28.4567   41.8625 H   0  0  0  0  0  0  0  0  0  0  0  0
   38.6553   27.6635   44.7208 H   0  0  0  0  0  0  0  0  0  0  0  0
  1  2  1  0
  2  4  1  0
  2  3  1  0
  4  3  1  0
  5  6  1  0
  5  4  1  0
  6  7  2  0
  8  6  1  0
  9  8  1  0
 10  9  2  0
 11  9  1  0
 12 16  1  0
 12 17  1  0
 13 12  2  0
 14 13  1  0
 14 15  1  0
 15  1  1  0
 15 16  2  0
 17 19  1  0
 18 23  2  0
 19 18  1  0
 19 20  2  0
 20 21  1  0
 21 22  2  0
 23 22  1  0
  2 24  1  1
  3 25  1  0
  3 26  1  0
  4 27  1  1
  5 28  1  0
 11 29  1  0
 13 30  1  0
 18 31  1  0
 20 32  1  0
 22 33  1  0
M  ISO  8  24  13  25  13  26  13  27  13  29   3  30  14  31  14  32  14
M  ISO  1  33  14
M  END
>  <minimizedAffinity>  (1) 
-5.12433386

>  <minimizedRMSD>  (1) 
2.04408789

$$$$
