
     RDKit          3D

 34 36  0  0  1  0  0  0  0  0999 V2000
   37.2440   31.9640   38.8230 O   0  0  0  0  0  0  0  0  0  0  0  0
   37.2380   32.4940   40.1840 C   0  0  1  0  0  0  0  0  0  0  0  0
   38.5610   31.9950   40.8330 C   0  0  0  0  0  0  0  0  0  0  0  0
   38.2450   33.4880   40.5100 C   0  0  1  0  0  0  0  0  0  0  0  0
   39.1390   33.9790   39.4920 N   0  0  0  0  0  0  0  0  0  0  0  0
   40.3140   34.7790   39.6110 C   0  0  0  0  0  0  0  0  0  0  0  0
   40.5670   35.9530   39.9690 O   0  0  0  0  0  0  0  0  0  0  0  0
   41.5550   34.1660   39.2530 O   0  0  0  0  0  0  0  0  0  0  0  0
   42.0270   34.0620   37.9880 C   0  0  0  0  0  0  0  0  0  0  0  0
   41.3240   33.1860   37.1210 N   0  0  0  0  0  0  0  0  0  0  0  0
   43.0330   34.7170   37.6330 O   0  0  0  0  0  0  0  0  0  0  0  0
   36.7070   28.4460   38.5780 C   0  0  0  0  0  0  0  0  0  0  0  0
   36.7410   28.3130   37.1790 C   0  0  0  0  0  0  0  0  0  0  0  0
   37.0280   30.0800   36.7560 S   0  0  0  0  0  0  0  0  0  0  0  0
   37.0440   30.6470   38.6000 C   0  0  0  0  0  0  0  0  0  0  0  0
   36.8780   29.6560   38.9670 N   0  0  0  0  0  0  0  0  0  0  0  0
   36.4510   26.9470   39.5820 S   0  0  0  0  0  0  0  0  0  0  0  0
   38.3910   26.5840   41.6130 C   0  0  0  0  0  0  0  0  0  0  0  0
   37.1610   27.1740   41.1810 C   0  0  0  0  0  0  0  0  0  0  0  0
   36.5190   27.9560   42.0940 C   0  0  0  0  0  0  0  0  0  0  0  0
   37.0610   28.1380   43.3470 N   0  0  0  0  0  0  0  0  0  0  0  0
   38.2390   27.5530   43.7120 C   0  0  0  0  0  0  0  0  0  0  0  0
   38.8830   26.7870   42.8430 N   0  0  0  0  0  0  0  0  0  0  0  0
   36.1568   32.4933   40.3867 H   0  0  0  0  0  0  0  0  0  0  0  0
   38.5764   31.6361   41.8727 H   0  0  0  0  0  0  0  0  0  0  0  0
   39.3519   31.2706   40.5887 H   0  0  0  0  0  0  0  0  0  0  0  0
   38.1497   34.4456   41.0428 H   0  0  0  0  0  0  0  0  0  0  0  0
   38.8911   33.7106   38.5290 H   0  0  0  0  0  0  0  0  0  0  0  0
   41.6360   33.0656   36.1468 H   0  0  0  0  0  0  0  0  0  0  0  0
   40.5016   32.6705   37.4658 H   0  0  0  0  0  0  0  0  0  0  0  0
   36.6303   27.4270   36.5365 H   0  0  0  0  0  0  0  0  0  0  0  0
   38.9498   25.9442   40.9141 H   0  0  0  0  0  0  0  0  0  0  0  0
   35.5680   28.4418   41.8302 H   0  0  0  0  0  0  0  0  0  0  0  0
   38.6504   27.7160   44.7191 H   0  0  0  0  0  0  0  0  0  0  0  0
  1  2  1  0
  2  4  1  0
  2  3  1  0
  4  3  1  0
  5  6  1  0
  5  4  1  0
  6  7  2  0
  8  6  1  0
  9  8  1  0
 10  9  1  0
 11  9  2  0
 12 16  1  0
 12 17  1  0
 13 12  2  0
 14 13  1  0
 14 15  1  0
 15  1  1  0
 15 16  2  0
 17 19  1  0
 18 23  2  0
 19 18  1  0
 19 20  2  0
 20 21  1  0
 21 22  2  0
 23 22  1  0
  2 24  1  1
  3 25  1  0
  3 26  1  0
  4 27  1  1
  5 28  1  0
 10 29  1  0
 10 30  1  0
 13 31  1  0
 18 32  1  0
 20 33  1  0
 22 34  1  0
M  ISO  8  24  13  25  13  26  13  27  13  31  14  32  14  33  14  34  14
M  END
>  <minimizedAffinity>  (1) 
-4.96057558

>  <minimizedRMSD>  (1) 
2.09471536

$$$$
