
     RDKit          3D

 32 34  0  0  1  0  0  0  0  0999 V2000
   38.3270   29.3600   42.9710 C   0  0  0  0  0  0  0  0  0  0  0  0
   37.7180   28.3180   43.7290 C   0  0  0  0  0  0  0  0  0  0  0  0
   36.6300   27.6250   43.1520 C   0  0  0  0  0  0  0  0  0  0  0  0
   36.2330   27.9990   41.9000 N   0  0  0  0  0  0  0  0  0  0  0  0
   36.8280   28.9780   41.2220 C   0  0  0  0  0  0  0  0  0  0  0  0
   37.8630   29.6420   41.7650 N   0  0  0  0  0  0  0  0  0  0  0  0
   36.3650   29.3180   39.9370 N   0  0  0  0  0  0  0  0  0  0  0  0
   35.7080   28.3410   39.0660 C   0  0  0  0  0  0  0  0  0  0  0  0
   35.9800   28.8720   37.6970 C   0  0  0  0  0  0  0  0  0  0  0  0
   36.6430   30.1980   37.8490 C   0  0  0  0  0  0  0  0  0  0  0  0
   36.4470   30.6010   39.3000 C   0  0  2  0  0  0  0  0  0  0  0  0
   37.7270   31.3240   39.6360 C   0  0  0  0  0  0  0  0  0  0  0  0
   39.0040   30.9630   39.2760 C   0  0  0  0  0  0  0  0  0  0  0  0
   40.0710   31.7280   39.6600 C   0  0  0  0  0  0  0  0  0  0  0  0
   39.9420   32.8670   40.4050 C   0  0  0  0  0  0  0  0  0  0  0  0
   38.6890   33.2580   40.7810 C   0  0  0  0  0  0  0  0  0  0  0  0
   37.6270   32.4940   40.3970 C   0  0  0  0  0  0  0  0  0  0  0  0
   39.1753   29.9246   43.3853 H   0  0  0  0  0  0  0  0  0  0  0  0
   38.0842   28.0607   44.7338 H   0  0  0  0  0  0  0  0  0  0  0  0
   36.1209   26.8131   43.6921 H   0  0  0  0  0  0  0  0  0  0  0  0
   36.1449   27.3398   39.1953 H   0  0  0  0  0  0  0  0  0  0  0  0
   34.6353   28.2236   39.2793 H   0  0  0  0  0  0  0  0  0  0  0  0
   35.0354   28.9865   37.1450 H   0  0  0  0  0  0  0  0  0  0  0  0
   36.6260   28.1801   37.1367 H   0  0  0  0  0  0  0  0  0  0  0  0
   37.7151   30.1181   37.6161 H   0  0  0  0  0  0  0  0  0  0  0  0
   36.2146   30.9433   37.1628 H   0  0  0  0  0  0  0  0  0  0  0  0
   35.5891   31.2347   39.5690 H   0  0  0  0  0  0  0  0  0  0  0  0
   39.1682   30.0553   38.6767 H   0  0  0  0  0  0  0  0  0  0  0  0
   41.0796   31.4121   39.3552 H   0  0  0  0  0  0  0  0  0  0  0  0
   40.8260   33.4541   40.6944 H   0  0  0  0  0  0  0  0  0  0  0  0
   38.5398   34.1685   41.3800 H   0  0  0  0  0  0  0  0  0  0  0  0
   36.6230   32.8196   40.7066 H   0  0  0  0  0  0  0  0  0  0  0  0
  1  2  2  0
  3  2  1  0
  4  3  2  0
  5  6  2  0
  5  4  1  0
  6  1  1  0
  7  5  1  0
  8  7  1  0
  9 10  1  0
  9  8  1  0
 10 11  1  0
 11 12  1  0
 11  7  1  0
 12 17  1  0
 13 12  2  0
 13 14  1  0
 14 15  2  0
 15 16  1  0
 17 16  2  0
  1 18  1  0
  2 19  1  0
  3 20  1  0
  8 21  1  0
  8 22  1  0
  9 23  1  0
  9 24  1  0
 10 25  1  0
 10 26  1  0
 11 27  1  6
 13 28  1  0
 14 29  1  0
 15 30  1  0
 16 31  1  0
 17 32  1  0
M  ISO  8  18  14  19  14  20  14  21  13  22  13  23  13  24  13  25  13
M  ISO  7  26  13  27  13  28  14  29  14  30  14  31  14  32  14
M  END
>  <minimizedAffinity>  (1) 
-4.93990421

>  <minimizedRMSD>  (1) 
1.3624295

$$$$
