
     RDKit          3D

 35 37  0  0  1  0  0  0  0  0999 V2000
   38.6860   28.5350   43.1660 C   0  0  0  0  0  0  0  0  0  0  0  0
   37.7000   27.8470   43.9460 C   0  0  0  0  0  0  0  0  0  0  0  0
   36.4970   27.4610   43.3130 C   0  0  0  0  0  0  0  0  0  0  0  0
   36.3530   27.7710   41.9880 N   0  0  0  0  0  0  0  0  0  0  0  0
   37.2980   28.4150   41.2930 C   0  0  0  0  0  0  0  0  0  0  0  0
   38.4460   28.7870   41.8890 N   0  0  0  0  0  0  0  0  0  0  0  0
   37.0500   28.6870   39.9440 N   0  0  0  0  0  0  0  0  0  0  0  0
   36.2120   27.8680   39.0770 C   0  0  0  0  0  0  0  0  0  0  0  0
   36.8410   28.0780   37.7300 C   0  0  0  0  0  0  0  0  0  0  0  0
   37.7640   29.2560   37.8380 C   0  0  0  0  0  0  0  0  0  0  0  0
   37.5850   29.8180   39.2070 C   0  0  1  0  0  0  0  0  0  0  0  0
   36.7340   31.0420   39.2650 C   0  0  0  0  0  0  0  0  0  0  0  0
   36.8440   31.6810   40.6160 C   0  0  0  0  0  0  0  0  0  0  0  0
   38.1280   32.4870   40.6120 C   0  0  0  0  0  0  0  0  0  0  0  0
   38.5910   32.5620   39.1740 C   0  0  0  0  0  0  0  0  0  0  0  0
   37.3950   32.0860   38.3780 C   0  0  0  0  0  0  0  0  0  0  0  0
   39.6345   28.8510   43.6249 H   0  0  0  0  0  0  0  0  0  0  0  0
   37.8750   27.6253   45.0091 H   0  0  0  0  0  0  0  0  0  0  0  0
   35.7062   26.9314   43.8645 H   0  0  0  0  0  0  0  0  0  0  0  0
   36.2485   26.8091   39.3727 H   0  0  0  0  0  0  0  0  0  0  0  0
   35.1464   28.1387   39.1118 H   0  0  0  0  0  0  0  0  0  0  0  0
   36.0621   28.2795   36.9798 H   0  0  0  0  0  0  0  0  0  0  0  0
   37.3956   27.1804   37.4189 H   0  0  0  0  0  0  0  0  0  0  0  0
   38.8062   28.9352   37.6934 H   0  0  0  0  0  0  0  0  0  0  0  0
   37.5357   30.0086   37.0690 H   0  0  0  0  0  0  0  0  0  0  0  0
   38.5233   30.2024   39.6333 H   0  0  0  0  0  0  0  0  0  0  0  0
   35.7041   30.7628   38.9980 H   0  0  0  0  0  0  0  0  0  0  0  0
   35.9824   32.3410   40.7947 H   0  0  0  0  0  0  0  0  0  0  0  0
   36.8545   30.9230   41.4131 H   0  0  0  0  0  0  0  0  0  0  0  0
   37.9419   33.4980   41.0034 H   0  0  0  0  0  0  0  0  0  0  0  0
   38.8917   32.0169   41.2490 H   0  0  0  0  0  0  0  0  0  0  0  0
   38.8557   33.5944   38.9020 H   0  0  0  0  0  0  0  0  0  0  0  0
   39.4910   31.9577   38.9873 H   0  0  0  0  0  0  0  0  0  0  0  0
   36.7049   32.9191   38.1785 H   0  0  0  0  0  0  0  0  0  0  0  0
   37.6822   31.6786   37.3974 H   0  0  0  0  0  0  0  0  0  0  0  0
  1  2  2  0
  3  2  1  0
  4  3  2  0
  5  6  2  0
  5  4  1  0
  6  1  1  0
  7  5  1  0
  8  7  1  0
  9 10  1  0
  9  8  1  0
 10 11  1  0
 11 12  1  0
 11  7  1  0
 12 13  1  0
 14 13  1  0
 15 14  1  0
 16 15  1  0
 16 12  1  0
  1 17  1  0
  2 18  1  0
  3 19  1  0
  8 20  1  0
  8 21  1  0
  9 22  1  0
  9 23  1  0
 10 24  1  0
 10 25  1  0
 11 26  1  1
 12 27  1  0
 13 28  1  0
 13 29  1  0
 14 30  1  0
 14 31  1  0
 15 32  1  0
 15 33  1  0
 16 34  1  0
 16 35  1  0
M  ISO  8  17  14  18  14  19  14  20  13  21  13  22  13  23  13  24  13
M  ISO  8  25  13  26  13  27  13  28  13  29  13  30  13  31  13  32  13
M  ISO  3  33  13  34  13  35  13
M  END
>  <minimizedAffinity>  (1) 
-4.61054707

>  <minimizedRMSD>  (1) 
1.91159523

$$$$
