
     RDKit          3D

 29 31  0  0  1  0  0  0  0  0999 V2000
   38.7880   28.7310   42.7220 C   0  0  0  0  0  0  0  0  0  0  0  0
   38.0500   27.9000   43.5950 C   0  0  0  0  0  0  0  0  0  0  0  0
   36.7180   27.5790   43.2410 C   0  0  0  0  0  0  0  0  0  0  0  0
   36.2210   28.0960   42.0690 N   0  0  0  0  0  0  0  0  0  0  0  0
   36.9630   28.8800   41.2770 C   0  0  0  0  0  0  0  0  0  0  0  0
   38.2470   29.2020   41.5970 N   0  0  0  0  0  0  0  0  0  0  0  0
   36.3810   29.3680   40.0960 N   0  0  0  0  0  0  0  0  0  0  0  0
   35.3840   28.6590   39.3330 C   0  0  0  0  0  0  0  0  0  0  0  0
   35.5770   29.1630   37.9360 C   0  0  0  0  0  0  0  0  0  0  0  0
   36.6020   30.2690   38.0000 C   0  0  0  0  0  0  0  0  0  0  0  0
   36.6660   30.6250   39.4540 C   0  0  2  0  0  0  0  0  0  0  0  0
   37.8890   31.2410   39.8560 N   0  0  0  0  0  0  0  0  0  0  0  0
   38.0310   32.2020   40.7880 C   0  0  0  0  0  0  0  0  0  0  0  0
   39.3830   32.4650   40.8160 C   0  0  0  0  0  0  0  0  0  0  0  0
   40.0440   31.6900   39.9340 N   0  0  0  0  0  0  0  0  0  0  0  0
   39.0990   30.9370   39.3460 C   0  0  0  0  0  0  0  0  0  0  0  0
   39.8259   28.9939   42.9743 H   0  0  0  0  0  0  0  0  0  0  0  0
   38.4979   27.5140   44.5226 H   0  0  0  0  0  0  0  0  0  0  0  0
   36.0997   26.9355   43.8842 H   0  0  0  0  0  0  0  0  0  0  0  0
   35.5507   27.5729   39.3842 H   0  0  0  0  0  0  0  0  0  0  0  0
   34.3635   28.8260   39.7080 H   0  0  0  0  0  0  0  0  0  0  0  0
   34.6269   29.5517   37.5406 H   0  0  0  0  0  0  0  0  0  0  0  0
   35.9152   28.3542   37.2716 H   0  0  0  0  0  0  0  0  0  0  0  0
   37.5801   29.9161   37.6411 H   0  0  0  0  0  0  0  0  0  0  0  0
   36.3359   31.1281   37.3666 H   0  0  0  0  0  0  0  0  0  0  0  0
   35.9513   31.4123   39.7357 H   0  0  0  0  0  0  0  0  0  0  0  0
   37.2423   32.6729   41.3931 H   0  0  0  0  0  0  0  0  0  0  0  0
   39.8596   33.2089   41.4714 H   0  0  0  0  0  0  0  0  0  0  0  0
   39.2851   30.1849   38.5652 H   0  0  0  0  0  0  0  0  0  0  0  0
  1  2  2  0
  3  2  1  0
  4  3  2  0
  5  6  2  0
  5  4  1  0
  6  1  1  0
  7  5  1  0
  8  7  1  0
  9 10  1  0
  9  8  1  0
 10 11  1  0
 11 12  1  0
 11  7  1  0
 12 13  1  0
 13 14  2  0
 15 14  1  0
 16 12  1  0
 16 15  2  0
  1 17  1  0
  2 18  1  0
  3 19  1  0
  8 20  1  0
  8 21  1  0
  9 22  1  0
  9 23  1  0
 10 24  1  0
 10 25  1  0
 11 26  1  6
 13 27  1  0
 14 28  1  0
 16 29  1  0
M  ISO  8  17  14  18  14  19  14  20  13  21  13  22  13  23  13  24  13
M  ISO  5  25  13  26  13  27  14  28  14  29  14
M  END
>  <minimizedAffinity>  (1) 
-4.36213064

>  <minimizedRMSD>  (1) 
1.49545312

$$$$
