
     RDKit          3D

 28 29  0  0  1  0  0  0  0  0999 V2000
   38.2570   29.2610   43.2760 C   0  0  0  0  0  0  0  0  0  0  0  0
   37.5810   28.0930   43.7560 C   0  0  0  0  0  0  0  0  0  0  0  0
   36.5460   27.5510   42.9620 C   0  0  0  0  0  0  0  0  0  0  0  0
   36.2540   28.1740   41.7850 N   0  0  0  0  0  0  0  0  0  0  0  0
   36.9080   29.2620   41.3710 C   0  0  0  0  0  0  0  0  0  0  0  0
   37.8970   29.7900   42.1170 N   0  0  0  0  0  0  0  0  0  0  0  0
   36.5300   29.8280   40.1470 N   0  0  0  0  0  0  0  0  0  0  0  0
   35.9860   29.0620   39.0280 C   0  0  0  0  0  0  0  0  0  0  0  0
   36.4040   29.8840   37.8400 C   0  0  0  0  0  0  0  0  0  0  0  0
   36.9830   31.1710   38.3450 C   0  0  0  0  0  0  0  0  0  0  0  0
   36.6090   31.2300   39.7950 C   0  0  2  0  0  0  0  0  0  0  0  0
   37.6160   32.0120   40.5430 C   0  0  0  0  0  0  0  0  0  0  0  0
   37.6730   33.3860   39.8580 C   0  0  0  0  0  0  0  0  0  0  0  0
   39.0679   29.7143   43.8650 H   0  0  0  0  0  0  0  0  0  0  0  0
   37.8597   27.6316   44.7149 H   0  0  0  0  0  0  0  0  0  0  0  0
   35.9936   26.6555   43.2829 H   0  0  0  0  0  0  0  0  0  0  0  0
   36.4222   28.0530   38.9871 H   0  0  0  0  0  0  0  0  0  0  0  0
   34.8995   28.9026   39.0916 H   0  0  0  0  0  0  0  0  0  0  0  0
   35.5305   30.0920   37.2046 H   0  0  0  0  0  0  0  0  0  0  0  0
   37.1498   29.3389   37.2427 H   0  0  0  0  0  0  0  0  0  0  0  0
   38.0768   31.1734   38.2287 H   0  0  0  0  0  0  0  0  0  0  0  0
   36.6020   32.0392   37.7873 H   0  0  0  0  0  0  0  0  0  0  0  0
   35.6660   31.7453   40.0300 H   0  0  0  0  0  0  0  0  0  0  0  0
   37.3125   32.1207   41.5947 H   0  0  0  0  0  0  0  0  0  0  0  0
   38.5981   31.5165   40.5385 H   0  0  0  0  0  0  0  0  0  0  0  0
   37.7058   34.1759   40.6228 H   0  0  0  0  0  0  0  0  0  0  0  0
   38.5744   33.4457   39.2304 H   0  0  0  0  0  0  0  0  0  0  0  0
   36.7796   33.5201   39.2304 H   0  0  0  0  0  0  0  0  0  0  0  0
  1  2  2  0
  3  2  1  0
  4  3  2  0
  5  4  1  0
  5  6  2  0
  6  1  1  0
  7  5  1  0
  8  7  1  0
  9 10  1  0
  9  8  1  0
 10 11  1  0
 11  7  1  0
 11 12  1  0
 13 12  1  0
  1 14  1  0
  2 15  1  0
  3 16  1  0
  8 17  1  0
  8 18  1  0
  9 19  1  0
  9 20  1  0
 10 21  1  0
 10 22  1  0
 11 23  1  6
 12 24  1  0
 12 25  1  0
 13 26  1  0
 13 27  1  0
 13 28  1  0
M  ISO  8  14  14  15  14  16  14  17  13  18  13  19  13  20  13  21  13
M  ISO  7  22  13  23  13  24   8  25   8  26   8  27   8  28   8
M  END
>  <minimizedAffinity>  (1) 
-4.35266495

>  <minimizedRMSD>  (1) 
0.819658279

$$$$
