
     RDKit          3D

 23 24  0  0  0  0  0  0  0  0999 V2000
   40.2790   31.1200   42.2300 C   0  0  0  0  0  0  0  0  0  0  0  0
   39.4010   30.1220   42.6800 C   0  0  0  0  0  0  0  0  0  0  0  0
   38.1350   30.0360   42.0620 C   0  0  0  0  0  0  0  0  0  0  0  0
   37.8450   30.9210   41.0750 N   0  0  0  0  0  0  0  0  0  0  0  0
   38.7150   31.8700   40.6660 C   0  0  0  0  0  0  0  0  0  0  0  0
   39.9200   31.9610   41.2440 N   0  0  0  0  0  0  0  0  0  0  0  0
   37.0820   29.0560   42.3990 C   0  0  0  0  0  0  0  0  0  0  0  0
   37.0860   27.8670   41.4600 C   0  0  0  0  0  0  0  0  0  0  0  0
   37.0660   26.6390   42.3380 C   0  0  0  0  0  0  0  0  0  0  0  0
   36.4480   27.1960   43.6270 C   0  0  0  0  0  0  0  0  0  0  0  0
   37.3210   28.4290   43.7780 C   0  0  0  0  0  0  0  0  0  0  0  0
   41.2737   31.2156   42.6898 H   0  0  0  0  0  0  0  0  0  0  0  0
   39.6893   29.4311   43.4860 H   0  0  0  0  0  0  0  0  0  0  0  0
   38.4349   32.5656   39.8612 H   0  0  0  0  0  0  0  0  0  0  0  0
   36.1436   29.6272   42.3437 H   0  0  0  0  0  0  0  0  0  0  0  0
   37.9924   27.8759   40.8369 H   0  0  0  0  0  0  0  0  0  0  0  0
   36.2212   27.8890   40.7806 H   0  0  0  0  0  0  0  0  0  0  0  0
   36.4417   25.8443   41.9036 H   0  0  0  0  0  0  0  0  0  0  0  0
   38.0517   26.1714   42.4784 H   0  0  0  0  0  0  0  0  0  0  0  0
   35.3859   27.4527   43.5006 H   0  0  0  0  0  0  0  0  0  0  0  0
   36.4357   26.5102   44.4870 H   0  0  0  0  0  0  0  0  0  0  0  0
   38.3782   28.1700   43.9366 H   0  0  0  0  0  0  0  0  0  0  0  0
   37.0889   29.0728   44.6392 H   0  0  0  0  0  0  0  0  0  0  0  0
  1  2  2  0
  3  7  1  0
  3  2  1  0
  4  3  2  0
  5  4  1  0
  5  6  2  0
  6  1  1  0
  7 11  1  0
  8  9  1  0
  8  7  1  0
  9 10  1  0
 10 11  1  0
  1 12  1  0
  2 13  1  0
  5 14  1  0
  7 15  1  0
  8 16  1  0
  8 17  1  0
  9 18  1  0
  9 19  1  0
 10 20  1  0
 10 21  1  0
 11 22  1  0
 11 23  1  0
M  ISO  8  12  14  13  14  14  14  15  13  16  13  17  13  18  13  19  13
M  ISO  4  20  13  21  13  22  13  23  13
M  END
>  <minimizedAffinity>  (1) 
-3.81675553

>  <minimizedRMSD>  (1) 
3.1524961

$$$$
