
     RDKit          3D

 51 55  0  0  1  0  0  0  0  0999 V2000
   37.2720   28.7720   41.3820 C   0  0  0  0  0  0  0  0  0  0  0  0
   37.4110   29.2580   42.7020 C   0  0  0  0  0  0  0  0  0  0  0  0
   37.3480   28.4380   43.8430 C   0  0  0  0  0  0  0  0  0  0  0  0
   37.1490   27.0660   43.6690 C   0  0  0  0  0  0  0  0  0  0  0  0
   37.0150   26.5510   42.4010 C   0  0  0  0  0  0  0  0  0  0  0  0
   36.8780   25.1960   42.1900 C   0  0  0  0  0  0  0  0  0  0  0  0
   36.7990   24.6460   40.9070 C   0  0  0  0  0  0  0  0  0  0  0  0
   36.8630   25.5580   39.8480 C   0  0  0  0  0  0  0  0  0  0  0  0
   37.0000   26.9160   40.0980 C   0  0  0  0  0  0  0  0  0  0  0  0
   37.0820   27.4260   41.3460 C   0  0  0  0  0  0  0  0  0  0  0  0
   41.3200   28.6030   41.5060 C   0  0  0  0  0  0  0  0  0  0  0  0
   42.3720   28.8530   40.5960 C   0  0  0  0  0  0  0  0  0  0  0  0
   42.0810   29.6260   39.4720 C   0  0  0  0  0  0  0  0  0  0  0  0
   40.7950   30.1110   39.2990 N   0  0  0  0  0  0  0  0  0  0  0  0
   39.8470   29.8410   40.1950 C   0  0  0  0  0  0  0  0  0  0  0  0
   40.1110   29.1040   41.2690 N   0  0  0  0  0  0  0  0  0  0  0  0
   38.5740   30.3350   39.9940 N   0  0  0  0  0  0  0  0  0  0  0  0
   38.2940   31.5620   39.2290 C   0  0  0  0  0  0  0  0  0  0  0  0
   37.0340   32.0850   39.8180 C   0  0  0  0  0  0  0  0  0  0  0  0
   36.5910   31.0810   40.8470 C   0  0  0  0  0  0  0  0  0  0  0  0
   37.2640   29.8000   40.4110 C   0  0  2  0  0  0  0  0  0  0  0  0
   35.9550   28.6150   36.3570 C   0  0  0  0  0  0  0  0  0  0  0  0
   37.2980   28.4190   36.5940 C   0  0  0  0  0  0  0  0  0  0  0  0
   37.7630   27.9060   37.7840 C   0  0  0  0  0  0  0  0  0  0  0  0
   36.9040   27.5600   38.8080 C   0  0  0  0  0  0  0  0  0  0  0  0
   35.5070   27.7570   38.5740 C   0  0  0  0  0  0  0  0  0  0  0  0
   35.0610   28.2820   37.3520 C   0  0  0  0  0  0  0  0  0  0  0  0
   35.4550   29.2720   34.8170 S   0  0  0  0  0  0  0  0  0  0  0  0
   35.5760   28.1620   33.7940 O   0  0  0  0  0  0  0  0  0  0  0  0
   36.2670   30.4460   34.3900 O   0  0  0  0  0  0  0  0  0  0  0  0
   37.5775   30.3359   42.8446 H   0  0  0  0  0  0  0  0  0  0  0  0
   37.4531   28.8674   44.8503 H   0  0  0  0  0  0  0  0  0  0  0  0
   37.0997   26.4002   44.5432 H   0  0  0  0  0  0  0  0  0  0  0  0
   36.8292   24.5248   43.0601 H   0  0  0  0  0  0  0  0  0  0  0  0
   36.6931   23.5638   40.7406 H   0  0  0  0  0  0  0  0  0  0  0  0
   36.8044   25.1963   38.8108 H   0  0  0  0  0  0  0  0  0  0  0  0
   41.5003   27.9969   42.4061 H   0  0  0  0  0  0  0  0  0  0  0  0
   43.3822   28.4531   40.7676 H   0  0  0  0  0  0  0  0  0  0  0  0
   42.8636   29.8479   38.7315 H   0  0  0  0  0  0  0  0  0  0  0  0
   38.1591   31.3330   38.1616 H   0  0  0  0  0  0  0  0  0  0  0  0
   39.1173   32.2892   39.2866 H   0  0  0  0  0  0  0  0  0  0  0  0
   37.2135   33.0609   40.2927 H   0  0  0  0  0  0  0  0  0  0  0  0
   36.2641   32.2270   39.0453 H   0  0  0  0  0  0  0  0  0  0  0  0
   36.9246   31.3767   41.8526 H   0  0  0  0  0  0  0  0  0  0  0  0
   35.4966   30.9880   40.9082 H   0  0  0  0  0  0  0  0  0  0  0  0
   36.7482   29.2439   39.6143 H   0  0  0  0  0  0  0  0  0  0  0  0
   38.0214   28.6806   35.8077 H   0  0  0  0  0  0  0  0  0  0  0  0
   38.8456   27.7684   37.9223 H   0  0  0  0  0  0  0  0  0  0  0  0
   34.7788   27.4956   39.3559 H   0  0  0  0  0  0  0  0  0  0  0  0
   33.9838   28.4299   37.1856 H   0  0  0  0  0  0  0  0  0  0  0  0
   34.1674   29.7257   34.9312 H   0  0  0  0  0  0  0  0  0  0  0  0
  1  2  2  0
  2  3  1  0
  4  3  2  0
  5  4  1  0
  6  5  2  0
  7  6  1  0
  8  9  1  0
  8  7  2  0
  9 10  2  0
 10  1  1  0
 10  5  1  0
 12 11  2  0
 13 12  1  0
 14 13  2  0
 14 15  1  0
 15 16  2  0
 16 11  1  0
 17 15  1  0
 17 21  1  0
 18 19  1  0
 18 17  1  0
 19 20  1  0
 21 20  1  0
 21  1  1  0
 22 23  2  0
 22 27  1  0
 23 24  1  0
 24 25  2  0
 25  9  1  0
 26 25  1  0
 27 26  2  0
 28 22  1  0
 29 28  2  0
 30 28  2  0
  2 31  1  0
  3 32  1  0
  4 33  1  0
  6 34  1  0
  7 35  1  0
  8 36  1  0
 11 37  1  0
 12 38  1  0
 13 39  1  0
 18 40  1  0
 18 41  1  0
 19 42  1  0
 19 43  1  0
 20 44  1  0
 20 45  1  0
 21 46  1  6
 23 47  1  0
 24 48  1  0
 26 49  1  0
 27 50  1  0
 28 51  1  0
M  ISO  8  31  14  32  14  33  14  34  14  35  14  36  14  37  14  38  14
M  ISO  8  39  14  40  13  41  13  42  13  43  13  44  13  45  13  46  13
M  ISO  5  47  14  48  14  49  14  50  14  51  11
M  END
>  <minimizedAffinity>  (1) 
-6.79365158

>  <minimizedRMSD>  (1) 
1.14093983

$$$$
