
     RDKit          3D

 45 49  0  0  1  0  0  0  0  0999 V2000
   41.2960   28.5350   40.9330 C   0  0  0  0  0  0  0  0  0  0  0  0
   42.2390   28.7300   39.8950 C   0  0  0  0  0  0  0  0  0  0  0  0
   41.8450   29.4900   38.7990 C   0  0  0  0  0  0  0  0  0  0  0  0
   40.5660   30.0190   38.7710 N   0  0  0  0  0  0  0  0  0  0  0  0
   39.7240   29.8010   39.7800 C   0  0  0  0  0  0  0  0  0  0  0  0
   40.0870   29.0750   40.8310 N   0  0  0  0  0  0  0  0  0  0  0  0
   38.4580   30.3480   39.7230 N   0  0  0  0  0  0  0  0  0  0  0  0
   38.1330   31.5700   38.9660 C   0  0  0  0  0  0  0  0  0  0  0  0
   36.9710   32.1520   39.6860 C   0  0  0  0  0  0  0  0  0  0  0  0
   36.6450   31.1960   40.8000 C   0  0  0  0  0  0  0  0  0  0  0  0
   37.1850   29.8740   40.3050 C   0  0  2  0  0  0  0  0  0  0  0  0
   37.2710   28.8660   41.2910 C   0  0  0  0  0  0  0  0  0  0  0  0
   37.5330   29.3700   42.5800 C   0  0  0  0  0  0  0  0  0  0  0  0
   37.5660   28.5690   43.7380 C   0  0  0  0  0  0  0  0  0  0  0  0
   37.3360   27.1970   43.6110 C   0  0  0  0  0  0  0  0  0  0  0  0
   37.0800   26.6590   42.3550 C   0  0  0  0  0  0  0  0  0  0  0  0
   36.9100   25.3100   42.1700 C   0  0  0  0  0  0  0  0  0  0  0  0
   36.7110   24.7360   40.9330 C   0  0  0  0  0  0  0  0  0  0  0  0
   36.6910   25.6300   39.8680 C   0  0  0  0  0  0  0  0  0  0  0  0
   36.8620   26.9870   40.0690 C   0  0  0  0  0  0  0  0  0  0  0  0
   37.0620   27.5200   41.2960 C   0  0  0  0  0  0  0  0  0  0  0  0
   36.6680   27.6300   38.7490 C   0  0  0  0  0  0  0  0  0  0  0  0
   35.3330   28.0550   38.5080 C   0  0  0  0  0  0  0  0  0  0  0  0
   34.9670   28.5970   37.3540 C   0  0  0  0  0  0  0  0  0  0  0  0
   35.9460   28.7000   36.4690 C   0  0  0  0  0  0  0  0  0  0  0  0
   37.5550   28.0130   37.2050 S   0  0  0  0  0  0  0  0  0  0  0  0
   41.5632   27.9398   41.8186 H   0  0  0  0  0  0  0  0  0  0  0  0
   43.2479   28.2956   39.9534 H   0  0  0  0  0  0  0  0  0  0  0  0
   42.5403   29.6684   37.9655 H   0  0  0  0  0  0  0  0  0  0  0  0
   37.8648   31.3250   37.9277 H   0  0  0  0  0  0  0  0  0  0  0  0
   38.9826   32.2663   38.9086 H   0  0  0  0  0  0  0  0  0  0  0  0
   37.2316   33.1393   40.0950 H   0  0  0  0  0  0  0  0  0  0  0  0
   36.1118   32.2911   39.0134 H   0  0  0  0  0  0  0  0  0  0  0  0
   37.1414   31.4978   41.7341 H   0  0  0  0  0  0  0  0  0  0  0  0
   35.5699   31.1589   41.0298 H   0  0  0  0  0  0  0  0  0  0  0  0
   36.5475   29.3303   39.5923 H   0  0  0  0  0  0  0  0  0  0  0  0
   37.7222   30.4482   42.6881 H   0  0  0  0  0  0  0  0  0  0  0  0
   37.7689   29.0149   44.7229 H   0  0  0  0  0  0  0  0  0  0  0  0
   37.3573   26.5472   44.4983 H   0  0  0  0  0  0  0  0  0  0  0  0
   36.9337   24.6542   43.0528 H   0  0  0  0  0  0  0  0  0  0  0  0
   36.5780   23.6524   40.7982 H   0  0  0  0  0  0  0  0  0  0  0  0
   36.5363   25.2505   38.8472 H   0  0  0  0  0  0  0  0  0  0  0  0
   34.5816   27.9308   39.3017 H   0  0  0  0  0  0  0  0  0  0  0  0
   33.9392   28.9318   37.1501 H   0  0  0  0  0  0  0  0  0  0  0  0
   35.8425   29.1209   35.4580 H   0  0  0  0  0  0  0  0  0  0  0  0
  2  1  2  0
  3  2  1  0
  4  3  2  0
  4  5  1  0
  5  6  2  0
  6  1  1  0
  7  5  1  0
  7 11  1  0
  8  9  1  0
  8  7  1  0
  9 10  1  0
 11 10  1  0
 11 12  1  0
 12 21  1  0
 12 13  2  0
 13 14  1  0
 15 14  2  0
 16 15  1  0
 17 16  2  0
 18 17  1  0
 19 20  1  0
 19 18  2  0
 20 21  2  0
 21 16  1  0
 22 20  1  0
 23 22  2  0
 24 23  1  0
 25 26  1  0
 25 24  2  0
 26 22  1  0
  1 27  1  0
  2 28  1  0
  3 29  1  0
  8 30  1  0
  8 31  1  0
  9 32  1  0
  9 33  1  0
 10 34  1  0
 10 35  1  0
 11 36  1  6
 13 37  1  0
 14 38  1  0
 15 39  1  0
 17 40  1  0
 18 41  1  0
 19 42  1  0
 23 43  1  0
 24 44  1  0
 25 45  1  0
M  ISO  8  27  14  28  14  29  14  30  13  31  13  32  13  33  13  34  13
M  ISO  8  35  13  36  13  37  14  38  14  39  14  40  14  41  14  42  14
M  ISO  3  43  14  44  14  45  14
M  END
>  <minimizedAffinity>  (1) 
-6.45238161

>  <minimizedRMSD>  (1) 
0.333057642

$$$$
