
     RDKit          3D

 45 49  0  0  1  0  0  0  0  0999 V2000
   37.2310   28.7290   41.3410 C   0  0  0  0  0  0  0  0  0  0  0  0
   37.4820   29.2360   42.6370 C   0  0  0  0  0  0  0  0  0  0  0  0
   37.5200   28.4360   43.7910 C   0  0  0  0  0  0  0  0  0  0  0  0
   37.3070   27.0590   43.6580 C   0  0  0  0  0  0  0  0  0  0  0  0
   37.0640   26.5200   42.4060 C   0  0  0  0  0  0  0  0  0  0  0  0
   36.9100   25.1700   42.2300 C   0  0  0  0  0  0  0  0  0  0  0  0
   36.7200   24.5970   40.9780 C   0  0  0  0  0  0  0  0  0  0  0  0
   36.6930   25.4900   39.9090 C   0  0  0  0  0  0  0  0  0  0  0  0
   36.8500   26.8550   40.1060 C   0  0  0  0  0  0  0  0  0  0  0  0
   37.0400   27.3820   41.3470 C   0  0  0  0  0  0  0  0  0  0  0  0
   41.2580   28.4430   40.9980 C   0  0  0  0  0  0  0  0  0  0  0  0
   42.2050   28.6480   39.9690 C   0  0  0  0  0  0  0  0  0  0  0  0
   41.8070   29.4150   38.8720 C   0  0  0  0  0  0  0  0  0  0  0  0
   40.5220   29.9310   38.8400 N   0  0  0  0  0  0  0  0  0  0  0  0
   39.6770   29.7010   39.8440 C   0  0  0  0  0  0  0  0  0  0  0  0
   40.0450   28.9730   40.8920 N   0  0  0  0  0  0  0  0  0  0  0  0
   38.4020   30.2290   39.7810 N   0  0  0  0  0  0  0  0  0  0  0  0
   38.0710   31.4490   39.0240 C   0  0  0  0  0  0  0  0  0  0  0  0
   36.8850   32.0030   39.7250 C   0  0  0  0  0  0  0  0  0  0  0  0
   36.5850   31.0600   40.8590 C   0  0  0  0  0  0  0  0  0  0  0  0
   37.1350   29.7420   40.3600 C   0  0  2  0  0  0  0  0  0  0  0  0
   36.6940   27.4750   38.8010 C   0  0  0  0  0  0  0  0  0  0  0  0
   37.3540   27.8670   37.6510 C   0  0  0  0  0  0  0  0  0  0  0  0
   36.4760   28.4280   36.7490 C   0  0  0  0  0  0  0  0  0  0  0  0
   35.2660   28.3550   37.4020 C   0  0  0  0  0  0  0  0  0  0  0  0
   35.4000   27.8040   38.5850 O   0  0  0  0  0  0  0  0  0  0  0  0
   37.6571   30.3163   42.7475 H   0  0  0  0  0  0  0  0  0  0  0  0
   37.7130   28.8820   44.7778 H   0  0  0  0  0  0  0  0  0  0  0  0
   37.3326   26.4079   44.5443 H   0  0  0  0  0  0  0  0  0  0  0  0
   36.9378   24.5147   43.1131 H   0  0  0  0  0  0  0  0  0  0  0  0
   36.5992   23.5123   40.8406 H   0  0  0  0  0  0  0  0  0  0  0  0
   36.5444   25.1059   38.8890 H   0  0  0  0  0  0  0  0  0  0  0  0
   41.5247   27.8468   41.8831 H   0  0  0  0  0  0  0  0  0  0  0  0
   43.2165   28.2199   40.0299 H   0  0  0  0  0  0  0  0  0  0  0  0
   42.5051   29.6069   38.0439 H   0  0  0  0  0  0  0  0  0  0  0  0
   37.8281   31.2057   37.9791 H   0  0  0  0  0  0  0  0  0  0  0  0
   38.9084   32.1612   38.9861 H   0  0  0  0  0  0  0  0  0  0  0  0
   37.1074   33.0076   40.1139 H   0  0  0  0  0  0  0  0  0  0  0  0
   36.0258   32.0956   39.0444 H   0  0  0  0  0  0  0  0  0  0  0  0
   37.0934   31.3767   41.7816 H   0  0  0  0  0  0  0  0  0  0  0  0
   35.5159   31.0149   41.1141 H   0  0  0  0  0  0  0  0  0  0  0  0
   36.4999   29.1953   39.6474 H   0  0  0  0  0  0  0  0  0  0  0  0
   38.4339   27.7473   37.4793 H   0  0  0  0  0  0  0  0  0  0  0  0
   36.6899   28.8353   35.7498 H   0  0  0  0  0  0  0  0  0  0  0  0
   34.3121   28.7119   36.9863 H   0  0  0  0  0  0  0  0  0  0  0  0
  1 10  1  0
  1  2  2  0
  2  3  1  0
  4  3  2  0
  5  4  1  0
  6  5  2  0
  7  6  1  0
  8  9  1  0
  8  7  2  0
  9 10  2  0
 10  5  1  0
 12 11  2  0
 13 12  1  0
 14 13  2  0
 14 15  1  0
 15 16  2  0
 16 11  1  0
 17 15  1  0
 17 21  1  0
 18 19  1  0
 18 17  1  0
 19 20  1  0
 21 20  1  0
 21  1  1  0
 22  9  1  0
 23 22  2  0
 24 25  2  0
 24 23  1  0
 25 26  1  0
 26 22  1  0
  2 27  1  0
  3 28  1  0
  4 29  1  0
  6 30  1  0
  7 31  1  0
  8 32  1  0
 11 33  1  0
 12 34  1  0
 13 35  1  0
 18 36  1  0
 18 37  1  0
 19 38  1  0
 19 39  1  0
 20 40  1  0
 20 41  1  0
 21 42  1  6
 23 43  1  0
 24 44  1  0
 25 45  1  0
M  ISO  8  27  14  28  14  29  14  30  14  31  14  32  14  33  14  34  14
M  ISO  8  35  14  36  13  37  13  38  13  39  13  40  13  41  13  42  13
M  ISO  3  43  14  44  14  45  14
M  END
>  <minimizedAffinity>  (1) 
-6.27394104

>  <minimizedRMSD>  (1) 
0.394899428

$$$$
