
     RDKit          3D

 43 47  0  0  1  0  0  0  0  0999 V2000
   37.2440   28.7320   41.3570 C   0  0  0  0  0  0  0  0  0  0  0  0
   37.4830   29.2360   42.6550 C   0  0  0  0  0  0  0  0  0  0  0  0
   37.5140   28.4260   43.7980 C   0  0  0  0  0  0  0  0  0  0  0  0
   37.3040   27.0500   43.6550 C   0  0  0  0  0  0  0  0  0  0  0  0
   37.0740   26.5250   42.4080 C   0  0  0  0  0  0  0  0  0  0  0  0
   36.9010   25.1720   42.1980 C   0  0  0  0  0  0  0  0  0  0  0  0
   36.7030   24.6110   40.9540 C   0  0  0  0  0  0  0  0  0  0  0  0
   36.6860   25.5130   39.8960 C   0  0  0  0  0  0  0  0  0  0  0  0
   36.8590   26.8770   40.0960 C   0  0  0  0  0  0  0  0  0  0  0  0
   37.0560   27.3880   41.3520 C   0  0  0  0  0  0  0  0  0  0  0  0
   41.2620   28.4410   40.9870 C   0  0  0  0  0  0  0  0  0  0  0  0
   42.2030   28.6480   39.9580 C   0  0  0  0  0  0  0  0  0  0  0  0
   41.8030   29.4250   38.8690 C   0  0  0  0  0  0  0  0  0  0  0  0
   40.5250   29.9460   38.8560 N   0  0  0  0  0  0  0  0  0  0  0  0
   39.6800   29.7180   39.8530 C   0  0  0  0  0  0  0  0  0  0  0  0
   40.0490   28.9800   40.8940 N   0  0  0  0  0  0  0  0  0  0  0  0
   38.3970   30.2330   39.7840 N   0  0  0  0  0  0  0  0  0  0  0  0
   38.0570   31.4380   39.0120 C   0  0  0  0  0  0  0  0  0  0  0  0
   36.8960   32.0150   39.7360 C   0  0  0  0  0  0  0  0  0  0  0  0
   36.5850   31.0640   40.8570 C   0  0  0  0  0  0  0  0  0  0  0  0
   37.1410   29.7490   40.3680 C   0  0  2  0  0  0  0  0  0  0  0  0
   36.7260   27.5230   38.7610 C   0  0  0  0  0  0  0  0  0  0  0  0
   37.4610   27.8870   37.6970 N   0  0  0  0  0  0  0  0  0  0  0  0
   36.6700   28.4040   36.8320 O   0  0  0  0  0  0  0  0  0  0  0  0
   35.4440   28.4040   37.2620 C   0  0  0  0  0  0  0  0  0  0  0  0
   35.4030   27.8560   38.4850 N   0  0  0  0  0  0  0  0  0  0  0  0
   37.6529   30.3163   42.7741 H   0  0  0  0  0  0  0  0  0  0  0  0
   37.7001   28.8639   44.7898 H   0  0  0  0  0  0  0  0  0  0  0  0
   37.3231   26.3929   44.5369 H   0  0  0  0  0  0  0  0  0  0  0  0
   36.9222   24.5039   43.0716 H   0  0  0  0  0  0  0  0  0  0  0  0
   36.5683   23.5289   40.8092 H   0  0  0  0  0  0  0  0  0  0  0  0
   36.5315   25.1369   38.8739 H   0  0  0  0  0  0  0  0  0  0  0  0
   41.5300   27.8351   41.8651 H   0  0  0  0  0  0  0  0  0  0  0  0
   43.2126   28.2145   40.0109 H   0  0  0  0  0  0  0  0  0  0  0  0
   42.4946   29.6186   38.0358 H   0  0  0  0  0  0  0  0  0  0  0  0
   37.7826   31.1760   37.9795 H   0  0  0  0  0  0  0  0  0  0  0  0
   38.8989   32.1417   38.9344 H   0  0  0  0  0  0  0  0  0  0  0  0
   37.1517   33.0067   40.1374 H   0  0  0  0  0  0  0  0  0  0  0  0
   36.0313   32.1434   39.0683 H   0  0  0  0  0  0  0  0  0  0  0  0
   37.0797   31.3782   41.7878 H   0  0  0  0  0  0  0  0  0  0  0  0
   35.5114   31.0145   41.0914 H   0  0  0  0  0  0  0  0  0  0  0  0
   36.5043   29.1962   39.6616 H   0  0  0  0  0  0  0  0  0  0  0  0
   34.5759   28.7926   36.7094 H   0  0  0  0  0  0  0  0  0  0  0  0
  1  2  2  0
  2  3  1  0
  4  3  2  0
  5  4  1  0
  6  5  2  0
  7  6  1  0
  8  9  1  0
  8  7  2  0
  9 10  2  0
 10  1  1  0
 10  5  1  0
 12 11  2  0
 13 12  1  0
 14 13  2  0
 14 15  1  0
 15 16  2  0
 16 11  1  0
 17 15  1  0
 17 21  1  0
 18 19  1  0
 18 17  1  0
 19 20  1  0
 21 20  1  0
 21  1  1  0
 22  9  1  0
 23 22  2  0
 24 25  1  0
 24 23  1  0
 25 26  2  0
 26 22  1  0
  2 27  1  0
  3 28  1  0
  4 29  1  0
  6 30  1  0
  7 31  1  0
  8 32  1  0
 11 33  1  0
 12 34  1  0
 13 35  1  0
 18 36  1  0
 18 37  1  0
 19 38  1  0
 19 39  1  0
 20 40  1  0
 20 41  1  0
 21 42  1  6
 25 43  1  0
M  ISO  8  27  14  28  14  29  14  30  14  31  14  32  14  33  14  34  14
M  ISO  8  35  14  36  13  37  13  38  13  39  13  40  13  41  13  42  13
M  ISO  1  43  14
M  END
>  <minimizedAffinity>  (1) 
-6.23763847

>  <minimizedRMSD>  (1) 
0.499461859

$$$$
