
     RDKit          3D

 44 48  0  0  1  0  0  0  0  0999 V2000
   41.2620   28.4420   40.9950 C   0  0  0  0  0  0  0  0  0  0  0  0
   42.2120   28.6470   39.9670 C   0  0  0  0  0  0  0  0  0  0  0  0
   41.8210   29.4210   38.8750 C   0  0  0  0  0  0  0  0  0  0  0  0
   40.5420   29.9480   38.8460 N   0  0  0  0  0  0  0  0  0  0  0  0
   39.6930   29.7190   39.8490 C   0  0  0  0  0  0  0  0  0  0  0  0
   40.0540   28.9820   40.8930 N   0  0  0  0  0  0  0  0  0  0  0  0
   38.4220   30.2540   39.7850 N   0  0  0  0  0  0  0  0  0  0  0  0
   38.0970   31.4800   39.0380 C   0  0  0  0  0  0  0  0  0  0  0  0
   36.9300   32.0520   39.7590 C   0  0  0  0  0  0  0  0  0  0  0  0
   36.5600   31.0680   40.8350 C   0  0  0  0  0  0  0  0  0  0  0  0
   37.1510   29.7630   40.3510 C   0  0  2  0  0  0  0  0  0  0  0  0
   37.2370   28.7480   41.3340 C   0  0  0  0  0  0  0  0  0  0  0  0
   37.4710   29.2490   42.6310 C   0  0  0  0  0  0  0  0  0  0  0  0
   37.4990   28.4430   43.7820 C   0  0  0  0  0  0  0  0  0  0  0  0
   37.2910   27.0670   43.6390 C   0  0  0  0  0  0  0  0  0  0  0  0
   37.0650   26.5350   42.3870 C   0  0  0  0  0  0  0  0  0  0  0  0
   36.9210   25.1810   42.2020 C   0  0  0  0  0  0  0  0  0  0  0  0
   36.7490   24.6170   40.9360 C   0  0  0  0  0  0  0  0  0  0  0  0
   36.7300   25.5150   39.8770 C   0  0  0  0  0  0  0  0  0  0  0  0
   36.8750   26.8790   40.0820 C   0  0  0  0  0  0  0  0  0  0  0  0
   37.0480   27.3990   41.3230 C   0  0  0  0  0  0  0  0  0  0  0  0
   36.7310   27.4950   38.8090 N   0  0  0  0  0  0  0  0  0  0  0  0
   37.4460   27.8180   37.6860 C   0  0  0  0  0  0  0  0  0  0  0  0
   36.6090   28.3310   36.7680 N   0  0  0  0  0  0  0  0  0  0  0  0
   35.3780   28.3310   37.3060 C   0  0  0  0  0  0  0  0  0  0  0  0
   35.4230   27.8160   38.5720 N   0  0  0  0  0  0  0  0  0  0  0  0
   41.5236   27.8372   41.8757 H   0  0  0  0  0  0  0  0  0  0  0  0
   43.2207   28.2124   40.0268 H   0  0  0  0  0  0  0  0  0  0  0  0
   42.5204   29.6102   38.0473 H   0  0  0  0  0  0  0  0  0  0  0  0
   37.8336   31.2433   37.9966 H   0  0  0  0  0  0  0  0  0  0  0  0
   38.9447   32.1794   38.9897 H   0  0  0  0  0  0  0  0  0  0  0  0
   37.1988   33.0200   40.2070 H   0  0  0  0  0  0  0  0  0  0  0  0
   36.0871   32.2230   39.0733 H   0  0  0  0  0  0  0  0  0  0  0  0
   36.9968   31.3613   41.8010 H   0  0  0  0  0  0  0  0  0  0  0  0
   35.4742   31.0073   41.0001 H   0  0  0  0  0  0  0  0  0  0  0  0
   36.5381   29.2108   39.6234 H   0  0  0  0  0  0  0  0  0  0  0  0
   37.6409   30.3294   42.7484 H   0  0  0  0  0  0  0  0  0  0  0  0
   37.6804   28.8842   44.7732 H   0  0  0  0  0  0  0  0  0  0  0  0
   37.3077   26.4116   44.5223 H   0  0  0  0  0  0  0  0  0  0  0  0
   36.9419   24.5192   43.0804 H   0  0  0  0  0  0  0  0  0  0  0  0
   36.6360   23.5329   40.7875 H   0  0  0  0  0  0  0  0  0  0  0  0
   36.5970   25.1362   38.8529 H   0  0  0  0  0  0  0  0  0  0  0  0
   38.5296   27.6799   37.5566 H   0  0  0  0  0  0  0  0  0  0  0  0
   34.4688   28.6917   36.8028 H   0  0  0  0  0  0  0  0  0  0  0  0
  2  1  2  0
  3  2  1  0
  4  3  2  0
  4  5  1  0
  5  6  2  0
  6  1  1  0
  7  5  1  0
  7 11  1  0
  8  9  1  0
  8  7  1  0
  9 10  1  0
 11 10  1  0
 11 12  1  0
 12 13  2  0
 13 14  1  0
 15 14  2  0
 16 15  1  0
 17 16  2  0
 18 17  1  0
 19 20  1  0
 19 18  2  0
 20 21  2  0
 21 12  1  0
 21 16  1  0
 22 20  1  0
 23 22  1  0
 24 25  1  0
 24 23  2  0
 25 26  2  0
 26 22  1  0
  1 27  1  0
  2 28  1  0
  3 29  1  0
  8 30  1  0
  8 31  1  0
  9 32  1  0
  9 33  1  0
 10 34  1  0
 10 35  1  0
 11 36  1  6
 13 37  1  0
 14 38  1  0
 15 39  1  0
 17 40  1  0
 18 41  1  0
 19 42  1  0
 23 43  1  0
 25 44  1  0
M  ISO  8  27  14  28  14  29  14  30  13  31  13  32  13  33  13  34  13
M  ISO  8  35  13  36  13  37  14  38  14  39  14  40  14  41  14  42  14
M  ISO  2  43  14  44  14
M  END
>  <minimizedAffinity>  (1) 
-6.20970249

>  <minimizedRMSD>  (1) 
0.509915113

$$$$
