
     RDKit          3D

 45 49  0  0  1  0  0  0  0  0999 V2000
   37.2440   28.7480   41.3400 C   0  0  0  0  0  0  0  0  0  0  0  0
   37.4760   29.2450   42.6490 C   0  0  0  0  0  0  0  0  0  0  0  0
   37.5020   28.4310   43.7900 C   0  0  0  0  0  0  0  0  0  0  0  0
   37.2970   27.0550   43.6380 C   0  0  0  0  0  0  0  0  0  0  0  0
   37.0730   26.5330   42.3810 C   0  0  0  0  0  0  0  0  0  0  0  0
   36.9120   25.1810   42.1820 C   0  0  0  0  0  0  0  0  0  0  0  0
   36.7280   24.6230   40.9260 C   0  0  0  0  0  0  0  0  0  0  0  0
   36.7120   25.5310   39.8680 C   0  0  0  0  0  0  0  0  0  0  0  0
   36.8740   26.8940   40.0810 C   0  0  0  0  0  0  0  0  0  0  0  0
   37.0580   27.4020   41.3250 C   0  0  0  0  0  0  0  0  0  0  0  0
   41.2680   28.4380   40.9840 C   0  0  0  0  0  0  0  0  0  0  0  0
   42.2110   28.6430   39.9530 C   0  0  0  0  0  0  0  0  0  0  0  0
   41.8190   29.4280   38.8670 C   0  0  0  0  0  0  0  0  0  0  0  0
   40.5430   29.9580   38.8600 N   0  0  0  0  0  0  0  0  0  0  0  0
   39.6980   29.7320   39.8570 C   0  0  0  0  0  0  0  0  0  0  0  0
   40.0590   28.9850   40.8950 N   0  0  0  0  0  0  0  0  0  0  0  0
   38.4230   30.2630   39.7920 N   0  0  0  0  0  0  0  0  0  0  0  0
   38.0840   31.4720   39.0330 C   0  0  0  0  0  0  0  0  0  0  0  0
   36.9260   32.0520   39.7600 C   0  0  0  0  0  0  0  0  0  0  0  0
   36.5590   31.0740   40.8410 C   0  0  0  0  0  0  0  0  0  0  0  0
   37.1600   29.7730   40.3660 C   0  0  2  0  0  0  0  0  0  0  0  0
   36.7280   27.5070   38.8040 N   0  0  0  0  0  0  0  0  0  0  0  0
   35.4230   27.8530   38.5620 N   0  0  0  0  0  0  0  0  0  0  0  0
   35.3870   28.3530   37.3120 C   0  0  0  0  0  0  0  0  0  0  0  0
   36.6340   28.3430   36.7280 C   0  0  0  0  0  0  0  0  0  0  0  0
   37.4650   27.8050   37.6840 C   0  0  0  0  0  0  0  0  0  0  0  0
   37.6441   30.3248   42.7747 H   0  0  0  0  0  0  0  0  0  0  0  0
   37.6800   28.8651   44.7849 H   0  0  0  0  0  0  0  0  0  0  0  0
   37.3144   26.3931   44.5164 H   0  0  0  0  0  0  0  0  0  0  0  0
   36.9300   24.5143   43.0568 H   0  0  0  0  0  0  0  0  0  0  0  0
   36.6035   23.5406   40.7750 H   0  0  0  0  0  0  0  0  0  0  0  0
   36.5680   25.1600   38.8425 H   0  0  0  0  0  0  0  0  0  0  0  0
   41.5330   27.8268   41.8594 H   0  0  0  0  0  0  0  0  0  0  0  0
   43.2169   28.2007   40.0037 H   0  0  0  0  0  0  0  0  0  0  0  0
   42.5115   29.6205   38.0343 H   0  0  0  0  0  0  0  0  0  0  0  0
   37.8069   31.2177   37.9993 H   0  0  0  0  0  0  0  0  0  0  0  0
   38.9286   32.1732   38.9622 H   0  0  0  0  0  0  0  0  0  0  0  0
   37.2030   33.0200   40.2030 H   0  0  0  0  0  0  0  0  0  0  0  0
   36.0790   32.2253   39.0798 H   0  0  0  0  0  0  0  0  0  0  0  0
   36.9909   31.3762   41.8065 H   0  0  0  0  0  0  0  0  0  0  0  0
   35.4733   31.0073   41.0047 H   0  0  0  0  0  0  0  0  0  0  0  0
   36.5460   29.2163   39.6427 H   0  0  0  0  0  0  0  0  0  0  0  0
   34.4757   28.7230   36.8193 H   0  0  0  0  0  0  0  0  0  0  0  0
   36.9059   28.6888   35.7198 H   0  0  0  0  0  0  0  0  0  0  0  0
   38.5465   27.6400   37.5694 H   0  0  0  0  0  0  0  0  0  0  0  0
  1  2  2  0
  2  3  1  0
  4  3  2  0
  5  4  1  0
  6  5  2  0
  7  6  1  0
  8  9  1  0
  8  7  2  0
  9 10  2  0
 10  1  1  0
 10  5  1  0
 12 11  2  0
 13 12  1  0
 14 13  2  0
 14 15  1  0
 15 16  2  0
 16 11  1  0
 17 15  1  0
 17 21  1  0
 18 19  1  0
 18 17  1  0
 19 20  1  0
 21 20  1  0
 21  1  1  0
 22  9  1  0
 23 22  1  0
 24 23  2  0
 25 24  1  0
 25 26  2  0
 26 22  1  0
  2 27  1  0
  3 28  1  0
  4 29  1  0
  6 30  1  0
  7 31  1  0
  8 32  1  0
 11 33  1  0
 12 34  1  0
 13 35  1  0
 18 36  1  0
 18 37  1  0
 19 38  1  0
 19 39  1  0
 20 40  1  0
 20 41  1  0
 21 42  1  6
 24 43  1  0
 25 44  1  0
 26 45  1  0
M  ISO  8  27  14  28  14  29  14  30  14  31  14  32  14  33  14  34  14
M  ISO  8  35  14  36  13  37  13  38  13  39  13  40  13  41  13  42  13
M  ISO  3  43  14  44  14  45  14
M  END
>  <minimizedAffinity>  (1) 
-6.19712543

>  <minimizedRMSD>  (1) 
0.580056489

$$$$
