
     RDKit          3D

 45 49  0  0  1  0  0  0  0  0999 V2000
   41.2960   28.5510   40.8350 C   0  0  0  0  0  0  0  0  0  0  0  0
   42.2170   28.7040   39.7710 C   0  0  0  0  0  0  0  0  0  0  0  0
   41.7940   29.4250   38.6520 C   0  0  0  0  0  0  0  0  0  0  0  0
   40.5120   29.9520   38.6320 N   0  0  0  0  0  0  0  0  0  0  0  0
   39.6980   29.7720   39.6660 C   0  0  0  0  0  0  0  0  0  0  0  0
   40.0850   29.0860   40.7390 N   0  0  0  0  0  0  0  0  0  0  0  0
   38.4300   30.3170   39.6240 N   0  0  0  0  0  0  0  0  0  0  0  0
   38.0910   31.5140   38.8390 C   0  0  0  0  0  0  0  0  0  0  0  0
   36.9270   32.1070   39.5480 C   0  0  0  0  0  0  0  0  0  0  0  0
   36.6700   31.2140   40.7330 C   0  0  0  0  0  0  0  0  0  0  0  0
   37.1700   29.8650   40.2560 C   0  0  2  0  0  0  0  0  0  0  0  0
   37.2830   28.8920   41.2700 C   0  0  0  0  0  0  0  0  0  0  0  0
   37.5720   29.4490   42.5290 C   0  0  0  0  0  0  0  0  0  0  0  0
   37.6360   28.6930   43.7220 C   0  0  0  0  0  0  0  0  0  0  0  0
   37.4070   27.3140   43.6480 C   0  0  0  0  0  0  0  0  0  0  0  0
   37.1270   26.7330   42.4200 C   0  0  0  0  0  0  0  0  0  0  0  0
   36.9620   25.3730   42.3330 C   0  0  0  0  0  0  0  0  0  0  0  0
   36.7370   24.7470   41.0970 C   0  0  0  0  0  0  0  0  0  0  0  0
   36.6940   25.6090   39.9780 C   0  0  0  0  0  0  0  0  0  0  0  0
   36.8590   26.9620   40.1180 C   0  0  0  0  0  0  0  0  0  0  0  0
   37.0800   27.5450   41.3270 C   0  0  0  0  0  0  0  0  0  0  0  0
   36.6800   27.7330   38.8500 C   0  0  0  0  0  0  0  0  0  0  0  0
   35.2050   27.9430   38.3170 C   0  0  0  0  0  0  0  0  0  0  0  0
   36.1170   27.0320   37.7500 C   0  0  0  0  0  0  0  0  0  0  0  0
   41.5826   27.9912   41.7375 H   0  0  0  0  0  0  0  0  0  0  0  0
   43.2271   28.2717   39.8234 H   0  0  0  0  0  0  0  0  0  0  0  0
   42.4700   29.5729   37.7969 H   0  0  0  0  0  0  0  0  0  0  0  0
   37.8201   31.2395   37.8088 H   0  0  0  0  0  0  0  0  0  0  0  0
   38.9347   32.2155   38.7607 H   0  0  0  0  0  0  0  0  0  0  0  0
   37.1616   33.1285   39.8819 H   0  0  0  0  0  0  0  0  0  0  0  0
   36.0457   32.1746   38.8933 H   0  0  0  0  0  0  0  0  0  0  0  0
   37.2322   31.5551   41.6148 H   0  0  0  0  0  0  0  0  0  0  0  0
   35.6155   31.2004   41.0457 H   0  0  0  0  0  0  0  0  0  0  0  0
   36.5035   29.3052   39.5834 H   0  0  0  0  0  0  0  0  0  0  0  0
   37.7583   30.5315   42.5885 H   0  0  0  0  0  0  0  0  0  0  0  0
   37.8602   29.1764   44.6843 H   0  0  0  0  0  0  0  0  0  0  0  0
   37.4488   26.6958   44.5569 H   0  0  0  0  0  0  0  0  0  0  0  0
   37.0069   24.7634   43.2475 H   0  0  0  0  0  0  0  0  0  0  0  0
   36.6032   23.6590   41.0056 H   0  0  0  0  0  0  0  0  0  0  0  0
   36.5250   25.1862   38.9767 H   0  0  0  0  0  0  0  0  0  0  0  0
   37.5570   28.3690   39.0407 H   0  0  0  0  0  0  0  0  0  0  0  0
   34.3432   27.5837   38.8985 H   0  0  0  0  0  0  0  0  0  0  0  0
   34.5965   28.7884   37.9633 H   0  0  0  0  0  0  0  0  0  0  0  0
   35.9206   25.9550   37.8570 H   0  0  0  0  0  0  0  0  0  0  0  0
   36.4662   26.9011   36.7151 H   0  0  0  0  0  0  0  0  0  0  0  0
  2  1  2  0
  3  2  1  0
  4  3  2  0
  4  5  1  0
  5  6  2  0
  6  1  1  0
  7  5  1  0
  7 11  1  0
  8  9  1  0
  8  7  1  0
  9 10  1  0
 11 10  1  0
 11 12  1  0
 12 21  1  0
 12 13  2  0
 13 14  1  0
 15 14  2  0
 16 15  1  0
 17 16  2  0
 18 17  1  0
 19 20  1  0
 19 18  2  0
 20 21  2  0
 21 16  1  0
 22 20  1  0
 23 22  1  0
 24 23  1  0
 24 22  1  0
  1 25  1  0
  2 26  1  0
  3 27  1  0
  8 28  1  0
  8 29  1  0
  9 30  1  0
  9 31  1  0
 10 32  1  0
 10 33  1  0
 11 34  1  6
 13 35  1  0
 14 36  1  0
 15 37  1  0
 17 38  1  0
 18 39  1  0
 19 40  1  0
 22 41  1  0
 23 42  1  0
 23 43  1  0
 24 44  1  0
 24 45  1  0
M  ISO  8  25  14  26  14  27  14  28  13  29  13  30  13  31  13  32  13
M  ISO  8  33  13  34  13  35  14  36  14  37  14  38  14  39  14  40  14
M  ISO  5  41  13  42  13  43  13  44  13  45  13
M  END
>  <minimizedAffinity>  (1) 
-6.14596224

>  <minimizedRMSD>  (1) 
0.763522625

$$$$
