
     RDKit          3D

 47 50  0  0  1  0  0  0  0  0999 V2000
   41.3020   28.4680   40.9970 C   0  0  0  0  0  0  0  0  0  0  0  0
   42.2400   28.6380   39.9520 C   0  0  0  0  0  0  0  0  0  0  0  0
   41.8430   29.3810   38.8470 C   0  0  0  0  0  0  0  0  0  0  0  0
   40.5670   29.9110   38.8240 N   0  0  0  0  0  0  0  0  0  0  0  0
   39.7310   29.7200   39.8280 C   0  0  0  0  0  0  0  0  0  0  0  0
   40.0960   29.0100   40.8950 N   0  0  0  0  0  0  0  0  0  0  0  0
   38.4380   30.2610   39.7460 N   0  0  0  0  0  0  0  0  0  0  0  0
   38.1260   31.4240   38.9320 C   0  0  0  0  0  0  0  0  0  0  0  0
   36.8940   31.9660   39.5580 C   0  0  0  0  0  0  0  0  0  0  0  0
   36.6400   31.0910   40.7550 C   0  0  0  0  0  0  0  0  0  0  0  0
   37.1930   29.7510   40.3140 C   0  0  2  0  0  0  0  0  0  0  0  0
   37.2930   28.7870   41.3540 C   0  0  0  0  0  0  0  0  0  0  0  0
   37.4850   29.3430   42.6190 C   0  0  0  0  0  0  0  0  0  0  0  0
   37.4980   28.5650   43.7910 C   0  0  0  0  0  0  0  0  0  0  0  0
   37.3140   27.1850   43.6960 C   0  0  0  0  0  0  0  0  0  0  0  0
   37.1260   26.6090   42.4590 C   0  0  0  0  0  0  0  0  0  0  0  0
   36.9430   25.2730   42.2810 C   0  0  0  0  0  0  0  0  0  0  0  0
   36.7520   24.6590   41.0830 C   0  0  0  0  0  0  0  0  0  0  0  0
   36.7590   25.5100   39.9990 C   0  0  0  0  0  0  0  0  0  0  0  0
   36.9490   26.9070   40.1030 C   0  0  0  0  0  0  0  0  0  0  0  0
   37.1260   27.4330   41.3730 C   0  0  0  0  0  0  0  0  0  0  0  0
   36.9290   27.5340   38.8220 C   0  0  0  0  0  0  0  0  0  0  0  0
   35.6870   26.8680   38.1540 C   0  0  0  0  0  0  0  0  0  0  0  0
   38.1180   26.8980   38.0330 C   0  0  0  0  0  0  0  0  0  0  0  0
   41.5721   27.8879   41.8917 H   0  0  0  0  0  0  0  0  0  0  0  0
   43.2465   28.1983   40.0119 H   0  0  0  0  0  0  0  0  0  0  0  0
   42.5322   29.5444   38.0054 H   0  0  0  0  0  0  0  0  0  0  0  0
   37.9411   31.1342   37.8871 H   0  0  0  0  0  0  0  0  0  0  0  0
   38.9467   32.1557   38.8986 H   0  0  0  0  0  0  0  0  0  0  0  0
   37.0470   33.0099   39.8692 H   0  0  0  0  0  0  0  0  0  0  0  0
   36.0438   31.9636   38.8600 H   0  0  0  0  0  0  0  0  0  0  0  0
   37.1723   31.4672   41.6410 H   0  0  0  0  0  0  0  0  0  0  0  0
   35.5805   31.0501   41.0478 H   0  0  0  0  0  0  0  0  0  0  0  0
   36.5858   29.1464   39.6243 H   0  0  0  0  0  0  0  0  0  0  0  0
   37.6316   30.4299   42.7031 H   0  0  0  0  0  0  0  0  0  0  0  0
   37.6515   29.0393   44.7716 H   0  0  0  0  0  0  0  0  0  0  0  0
   37.3191   26.5617   44.6024 H   0  0  0  0  0  0  0  0  0  0  0  0
   36.9501   24.6378   43.1790 H   0  0  0  0  0  0  0  0  0  0  0  0
   36.6042   23.5732   40.9870 H   0  0  0  0  0  0  0  0  0  0  0  0
   36.6085   25.0787   38.9983 H   0  0  0  0  0  0  0  0  0  0  0  0
   36.9474   28.6334   38.8524 H   0  0  0  0  0  0  0  0  0  0  0  0
   35.0035   26.5015   38.9341 H   0  0  0  0  0  0  0  0  0  0  0  0
   35.1663   27.6079   37.5284 H   0  0  0  0  0  0  0  0  0  0  0  0
   36.0152   26.0249   37.5284 H   0  0  0  0  0  0  0  0  0  0  0  0
   38.8589   26.5017   38.7429 H   0  0  0  0  0  0  0  0  0  0  0  0
   37.7425   26.0803   37.4003 H   0  0  0  0  0  0  0  0  0  0  0  0
   38.5898   27.6642   37.4003 H   0  0  0  0  0  0  0  0  0  0  0  0
  2  1  2  0
  3  2  1  0
  4  3  2  0
  4  5  1  0
  5  6  2  0
  6  1  1  0
  7  5  1  0
  7 11  1  0
  8  9  1  0
  8  7  1  0
  9 10  1  0
 11 10  1  0
 11 12  1  0
 12 21  1  0
 12 13  2  0
 13 14  1  0
 15 14  2  0
 16 15  1  0
 17 16  2  0
 18 17  1  0
 19 20  1  0
 19 18  2  0
 20 21  2  0
 21 16  1  0
 22 20  1  0
 23 22  1  0
 24 22  1  0
  1 25  1  0
  2 26  1  0
  3 27  1  0
  8 28  1  0
  8 29  1  0
  9 30  1  0
  9 31  1  0
 10 32  1  0
 10 33  1  0
 11 34  1  6
 13 35  1  0
 14 36  1  0
 15 37  1  0
 17 38  1  0
 18 39  1  0
 19 40  1  0
 22 41  1  0
 23 42  1  0
 23 43  1  0
 23 44  1  0
 24 45  1  0
 24 46  1  0
 24 47  1  0
M  ISO  8  25  14  26  14  27  14  28  13  29  13  30  13  31  13  32  13
M  ISO  8  33  13  34  13  35  14  36  14  37  14  38  14  39  14  40  14
M  ISO  7  41   8  42   8  43   8  44   8  45   8  46   8  47   8
M  END
>  <minimizedAffinity>  (1) 
-6.01895237

>  <minimizedRMSD>  (1) 
0.678663552

$$$$
