
     RDKit          3D

 40 43  0  0  1  0  0  0  0  0999 V2000
   41.2580   28.4130   40.9870 C   0  0  0  0  0  0  0  0  0  0  0  0
   42.1980   28.6120   39.9540 C   0  0  0  0  0  0  0  0  0  0  0  0
   41.8000   29.3910   38.8630 C   0  0  0  0  0  0  0  0  0  0  0  0
   40.5230   29.9200   38.8500 N   0  0  0  0  0  0  0  0  0  0  0  0
   39.6780   29.7000   39.8480 C   0  0  0  0  0  0  0  0  0  0  0  0
   40.0510   28.9580   40.8950 N   0  0  0  0  0  0  0  0  0  0  0  0
   38.4020   30.2270   39.7860 N   0  0  0  0  0  0  0  0  0  0  0  0
   38.0730   31.4380   39.0240 C   0  0  0  0  0  0  0  0  0  0  0  0
   36.9290   32.0320   39.7580 C   0  0  0  0  0  0  0  0  0  0  0  0
   36.5240   31.0420   40.8110 C   0  0  0  0  0  0  0  0  0  0  0  0
   37.1500   29.7460   40.3730 C   0  0  2  0  0  0  0  0  0  0  0  0
   37.2450   28.7360   41.3730 C   0  0  0  0  0  0  0  0  0  0  0  0
   37.4480   29.2470   42.6720 C   0  0  0  0  0  0  0  0  0  0  0  0
   37.4640   28.4400   43.8110 C   0  0  0  0  0  0  0  0  0  0  0  0
   37.2760   27.0600   43.6750 C   0  0  0  0  0  0  0  0  0  0  0  0
   37.0780   26.5220   42.4110 C   0  0  0  0  0  0  0  0  0  0  0  0
   36.9280   25.1710   42.2070 C   0  0  0  0  0  0  0  0  0  0  0  0
   36.7670   24.6040   40.9560 C   0  0  0  0  0  0  0  0  0  0  0  0
   36.7670   25.5070   39.8870 C   0  0  0  0  0  0  0  0  0  0  0  0
   36.9190   26.8600   40.1130 C   0  0  0  0  0  0  0  0  0  0  0  0
   37.0750   27.3870   41.3600 C   0  0  0  0  0  0  0  0  0  0  0  0
   36.9060   27.5430   38.8720 N   0  0  0  0  0  0  0  0  0  0  0  0
   41.5244   27.8080   41.8662 H   0  0  0  0  0  0  0  0  0  0  0  0
   43.2047   28.1716   40.0048 H   0  0  0  0  0  0  0  0  0  0  0  0
   42.4918   29.5797   38.0288 H   0  0  0  0  0  0  0  0  0  0  0  0
   37.7852   31.1838   37.9932 H   0  0  0  0  0  0  0  0  0  0  0  0
   38.9253   32.1287   38.9431 H   0  0  0  0  0  0  0  0  0  0  0  0
   37.2317   32.9800   40.2267 H   0  0  0  0  0  0  0  0  0  0  0  0
   36.0925   32.2455   39.0763 H   0  0  0  0  0  0  0  0  0  0  0  0
   36.9070   31.3448   41.7967 H   0  0  0  0  0  0  0  0  0  0  0  0
   35.4315   30.9645   40.9130 H   0  0  0  0  0  0  0  0  0  0  0  0
   36.5422   29.1680   39.6613 H   0  0  0  0  0  0  0  0  0  0  0  0
   37.6005   30.3296   42.7929 H   0  0  0  0  0  0  0  0  0  0  0  0
   37.6227   28.8841   44.8048 H   0  0  0  0  0  0  0  0  0  0  0  0
   37.2851   26.4081   44.5610 H   0  0  0  0  0  0  0  0  0  0  0  0
   36.9365   24.5068   43.0838 H   0  0  0  0  0  0  0  0  0  0  0  0
   36.6474   23.5201   40.8115 H   0  0  0  0  0  0  0  0  0  0  0  0
   36.6449   25.1357   38.8588 H   0  0  0  0  0  0  0  0  0  0  0  0
   37.0081   28.5676   38.8470 H   0  0  0  0  0  0  0  0  0  0  0  0
   36.7944   27.0150   37.9947 H   0  0  0  0  0  0  0  0  0  0  0  0
  2  1  2  0
  3  2  1  0
  4  3  2  0
  4  5  1  0
  5  6  2  0
  6  1  1  0
  7  5  1  0
  7 11  1  0
  8  9  1  0
  8  7  1  0
  9 10  1  0
 11 10  1  0
 11 12  1  0
 12 13  2  0
 13 14  1  0
 15 14  2  0
 16 15  1  0
 17 16  2  0
 18 17  1  0
 19 20  1  0
 19 18  2  0
 20 21  2  0
 21 12  1  0
 21 16  1  0
 22 20  1  0
  1 23  1  0
  2 24  1  0
  3 25  1  0
  8 26  1  0
  8 27  1  0
  9 28  1  0
  9 29  1  0
 10 30  1  0
 10 31  1  0
 11 32  1  6
 13 33  1  0
 14 34  1  0
 15 35  1  0
 17 36  1  0
 18 37  1  0
 19 38  1  0
 22 39  1  0
 22 40  1  0
M  ISO  8  23  14  24  14  25  14  26  13  27  13  28  13  29  13  30  13
M  ISO  8  31  13  32  13  33  14  34  14  35  14  36  14  37  14  38  14
M  END
>  <minimizedAffinity>  (1) 
-5.9647913

>  <minimizedRMSD>  (1) 
0.352109432

$$$$
