
     RDKit          3D

 39 42  0  0  1  0  0  0  0  0999 V2000
   41.3520   28.7010   41.0170 C   0  0  0  0  0  0  0  0  0  0  0  0
   42.3170   28.8910   40.0010 C   0  0  0  0  0  0  0  0  0  0  0  0
   41.9250   29.5960   38.8700 C   0  0  0  0  0  0  0  0  0  0  0  0
   40.6280   30.0720   38.7880 N   0  0  0  0  0  0  0  0  0  0  0  0
   39.7610   29.8670   39.7680 C   0  0  0  0  0  0  0  0  0  0  0  0
   40.1280   29.1910   40.8620 N   0  0  0  0  0  0  0  0  0  0  0  0
   38.4630   30.3280   39.6340 N   0  0  0  0  0  0  0  0  0  0  0  0
   38.0990   31.4720   38.7880 C   0  0  0  0  0  0  0  0  0  0  0  0
   36.9620   32.0920   39.5180 C   0  0  0  0  0  0  0  0  0  0  0  0
   36.5440   31.1230   40.5850 C   0  0  0  0  0  0  0  0  0  0  0  0
   37.2130   29.8290   40.2110 C   0  0  2  0  0  0  0  0  0  0  0  0
   37.3230   28.8740   41.2640 C   0  0  0  0  0  0  0  0  0  0  0  0
   37.5630   29.4590   42.5110 C   0  0  0  0  0  0  0  0  0  0  0  0
   37.5930   28.7200   43.7100 C   0  0  0  0  0  0  0  0  0  0  0  0
   37.3820   27.3400   43.6630 C   0  0  0  0  0  0  0  0  0  0  0  0
   37.1480   26.7310   42.4370 C   0  0  0  0  0  0  0  0  0  0  0  0
   36.9810   25.3720   42.3210 C   0  0  0  0  0  0  0  0  0  0  0  0
   36.7900   24.7310   41.1110 C   0  0  0  0  0  0  0  0  0  0  0  0
   36.7770   25.5650   39.9900 C   0  0  0  0  0  0  0  0  0  0  0  0
   36.9460   26.9290   40.1130 C   0  0  0  0  0  0  0  0  0  0  0  0
   37.1330   27.5300   41.3340 C   0  0  0  0  0  0  0  0  0  0  0  0
   36.9230   27.7360   38.5630 S   0  0  0  0  0  0  0  0  0  0  0  0
   41.6144   28.1495   41.9319 H   0  0  0  0  0  0  0  0  0  0  0  0
   43.3386   28.4958   40.1023 H   0  0  0  0  0  0  0  0  0  0  0  0
   42.6364   29.7737   38.0500 H   0  0  0  0  0  0  0  0  0  0  0  0
   37.7889   31.1383   37.7868 H   0  0  0  0  0  0  0  0  0  0  0  0
   38.9348   32.1680   38.6239 H   0  0  0  0  0  0  0  0  0  0  0  0
   37.2787   33.0419   39.9735 H   0  0  0  0  0  0  0  0  0  0  0  0
   36.1274   32.3068   38.8344 H   0  0  0  0  0  0  0  0  0  0  0  0
   36.8850   31.4641   41.5736 H   0  0  0  0  0  0  0  0  0  0  0  0
   35.4505   31.0221   40.6495 H   0  0  0  0  0  0  0  0  0  0  0  0
   36.6401   29.2025   39.5116 H   0  0  0  0  0  0  0  0  0  0  0  0
   37.7361   30.5443   42.5579 H   0  0  0  0  0  0  0  0  0  0  0  0
   37.7801   29.2229   44.6702 H   0  0  0  0  0  0  0  0  0  0  0  0
   37.4010   26.7425   44.5864 H   0  0  0  0  0  0  0  0  0  0  0  0
   37.0003   24.7634   43.2371 H   0  0  0  0  0  0  0  0  0  0  0  0
   36.6576   23.6416   41.0361 H   0  0  0  0  0  0  0  0  0  0  0  0
   36.6295   25.1266   38.9920 H   0  0  0  0  0  0  0  0  0  0  0  0
   36.8844   29.0920   38.7547 H   0  0  0  0  0  0  0  0  0  0  0  0
  2  1  2  0
  3  2  1  0
  4  3  2  0
  4  5  1  0
  5  6  2  0
  6  1  1  0
  7  5  1  0
  7 11  1  0
  8  9  1  0
  8  7  1  0
  9 10  1  0
 11 10  1  0
 11 12  1  0
 12 21  1  0
 12 13  2  0
 13 14  1  0
 15 14  2  0
 16 15  1  0
 17 16  2  0
 18 17  1  0
 19 20  1  0
 19 18  2  0
 20 21  2  0
 21 16  1  0
 22 20  1  0
  1 23  1  0
  2 24  1  0
  3 25  1  0
  8 26  1  0
  8 27  1  0
  9 28  1  0
  9 29  1  0
 10 30  1  0
 10 31  1  0
 11 32  1  6
 13 33  1  0
 14 34  1  0
 15 35  1  0
 17 36  1  0
 18 37  1  0
 19 38  1  0
 22 39  1  0
M  ISO  8  23  14  24  14  25  14  26  13  27  13  28  13  29  13  30  13
M  ISO  8  31  13  32  13  33  14  34  14  35  14  36  14  37  14  38  14
M  ISO  1  39  11
M  END
>  <minimizedAffinity>  (1) 
-5.94867659

>  <minimizedRMSD>  (1) 
0.425901413

$$$$
