
     RDKit          3D

 31 34  0  0  0  0  0  0  0  0999 V2000
   38.0300   30.6100   41.0010 C   0  0  0  0  0  0  0  0  0  0  0  0
   36.6520   30.6950   41.1250 C   0  0  0  0  0  0  0  0  0  0  0  0
   36.2700   29.7830   42.0010 N   0  0  0  0  0  0  0  0  0  0  0  0
   37.3230   29.0950   42.4690 C   0  0  0  0  0  0  0  0  0  0  0  0
   37.3580   28.0590   43.3980 C   0  0  0  0  0  0  0  0  0  0  0  0
   38.6060   27.5170   43.7050 C   0  0  0  0  0  0  0  0  0  0  0  0
   39.7430   27.9990   43.1060 C   0  0  0  0  0  0  0  0  0  0  0  0
   39.7090   29.0310   42.1810 C   0  0  0  0  0  0  0  0  0  0  0  0
   38.4740   29.5870   41.8590 C   0  0  0  0  0  0  0  0  0  0  0  0
   40.2850   31.5870   38.2740 C   0  0  0  0  0  0  0  0  0  0  0  0
   40.6180   32.9340   38.6260 C   0  0  0  0  0  0  0  0  0  0  0  0
   40.0530   33.4550   39.7860 C   0  0  0  0  0  0  0  0  0  0  0  0
   39.2260   32.6860   40.5230 N   0  0  0  0  0  0  0  0  0  0  0  0
   38.9330   31.4090   40.1570 C   0  0  0  0  0  0  0  0  0  0  0  0
   39.4570   30.8610   39.0420 N   0  0  0  0  0  0  0  0  0  0  0  0
   40.3490   34.7880   40.1830 N   0  0  0  0  0  0  0  0  0  0  0  0
   39.5520   35.8520   39.9750 C   0  0  0  0  0  0  0  0  0  0  0  0
   40.1950   36.9390   40.5030 C   0  0  0  0  0  0  0  0  0  0  0  0
   41.3690   36.5310   41.0220 N   0  0  0  0  0  0  0  0  0  0  0  0
   41.4630   35.1850   40.8210 C   0  0  0  0  0  0  0  0  0  0  0  0
   35.9946   31.3961   40.5900 H   0  0  0  0  0  0  0  0  0  0  0  0
   35.2937   29.6214   42.2869 H   0  0  0  0  0  0  0  0  0  0  0  0
   36.4387   27.6830   43.8708 H   0  0  0  0  0  0  0  0  0  0  0  0
   38.6796   26.6961   44.4335 H   0  0  0  0  0  0  0  0  0  0  0  0
   40.7131   27.5517   43.3685 H   0  0  0  0  0  0  0  0  0  0  0  0
   40.6336   29.4008   41.7137 H   0  0  0  0  0  0  0  0  0  0  0  0
   40.7125   31.1416   37.3636 H   0  0  0  0  0  0  0  0  0  0  0  0
   41.2958   33.5353   38.0022 H   0  0  0  0  0  0  0  0  0  0  0  0
   38.5716   35.8489   39.4762 H   0  0  0  0  0  0  0  0  0  0  0  0
   39.8166   37.9719   40.5034 H   0  0  0  0  0  0  0  0  0  0  0  0
   42.3004   34.5404   41.1264 H   0  0  0  0  0  0  0  0  0  0  0  0
  1  2  2  0
  1  9  1  0
  2  3  1  0
  3  4  1  0
  4  5  2  0
  5  6  1  0
  7  6  2  0
  8  7  1  0
  9  8  2  0
  9  4  1  0
 10 11  2  0
 10 15  1  0
 11 12  1  0
 12 16  1  0
 12 13  2  0
 14 13  1  0
 14  1  1  0
 15 14  2  0
 16 20  1  0
 17 16  1  0
 17 18  2  0
 18 19  1  0
 20 19  2  0
  2 21  1  0
  3 22  1  0
  5 23  1  0
  6 24  1  0
  7 25  1  0
  8 26  1  0
 10 27  1  0
 11 28  1  0
 17 29  1  0
 18 30  1  0
 20 31  1  0
M  ISO  8  21  14  22   9  23  14  24  14  25  14  26  14  27  14  28  14
M  ISO  3  29  14  30  14  31  14
M  END
>  <minimizedAffinity>  (1) 
-6.39878941

>  <minimizedRMSD>  (1) 
8.07835579

$$$$
