
     RDKit          3D

 31 34  0  0  0  0  0  0  0  0999 V2000
   37.4520   29.1210   41.4040 C   0  0  0  0  0  0  0  0  0  0  0  0
   37.5790   29.2690   42.7920 C   0  0  0  0  0  0  0  0  0  0  0  0
   37.4810   28.0610   43.3250 N   0  0  0  0  0  0  0  0  0  0  0  0
   37.2980   27.1090   42.3940 C   0  0  0  0  0  0  0  0  0  0  0  0
   37.1480   25.7330   42.5120 C   0  0  0  0  0  0  0  0  0  0  0  0
   36.9700   24.9920   41.3540 C   0  0  0  0  0  0  0  0  0  0  0  0
   36.9450   25.6120   40.1300 C   0  0  0  0  0  0  0  0  0  0  0  0
   37.0930   26.9820   40.0030 C   0  0  0  0  0  0  0  0  0  0  0  0
   37.2740   27.7580   41.1470 C   0  0  0  0  0  0  0  0  0  0  0  0
   36.8010   30.9240   38.3000 C   0  0  0  0  0  0  0  0  0  0  0  0
   37.5640   32.1240   38.4670 C   0  0  0  0  0  0  0  0  0  0  0  0
   38.2830   32.2750   39.6530 C   0  0  0  0  0  0  0  0  0  0  0  0
   38.2160   31.2850   40.5640 N   0  0  0  0  0  0  0  0  0  0  0  0
   37.4910   30.1610   40.3880 C   0  0  0  0  0  0  0  0  0  0  0  0
   36.7870   29.9830   39.2580 N   0  0  0  0  0  0  0  0  0  0  0  0
   39.0640   33.4850   39.8450 C   0  0  0  0  0  0  0  0  0  0  0  0
   38.6010   34.6910   40.3170 C   0  0  0  0  0  0  0  0  0  0  0  0
   39.6810   35.5630   40.3380 C   0  0  0  0  0  0  0  0  0  0  0  0
   40.7590   34.8120   39.8660 C   0  0  0  0  0  0  0  0  0  0  0  0
   40.3260   33.5920   39.5920 O   0  0  0  0  0  0  0  0  0  0  0  0
   37.7316   30.2124   43.3367 H   0  0  0  0  0  0  0  0  0  0  0  0
   37.5384   27.8726   44.3360 H   0  0  0  0  0  0  0  0  0  0  0  0
   37.1699   25.2447   43.4974 H   0  0  0  0  0  0  0  0  0  0  0  0
   36.8481   23.9006   41.4166 H   0  0  0  0  0  0  0  0  0  0  0  0
   36.8034   25.0032   39.2249 H   0  0  0  0  0  0  0  0  0  0  0  0
   37.0681   27.4539   39.0097 H   0  0  0  0  0  0  0  0  0  0  0  0
   36.2207   30.7714   37.3781 H   0  0  0  0  0  0  0  0  0  0  0  0
   37.5826   32.8998   37.6874 H   0  0  0  0  0  0  0  0  0  0  0  0
   37.5691   34.9213   40.6207 H   0  0  0  0  0  0  0  0  0  0  0  0
   39.6862   36.6157   40.6569 H   0  0  0  0  0  0  0  0  0  0  0  0
   41.7910   35.1725   39.7430 H   0  0  0  0  0  0  0  0  0  0  0  0
  1  2  2  0
  2  3  1  0
  4  5  2  0
  4  3  1  0
  6  5  1  0
  7  6  2  0
  8  7  1  0
  8  9  2  0
  9  1  1  0
  9  4  1  0
 10 11  2  0
 10 15  1  0
 11 12  1  0
 12 16  1  0
 12 13  2  0
 14 13  1  0
 14  1  1  0
 15 14  2  0
 16 17  2  0
 17 18  1  0
 19 18  2  0
 20 16  1  0
 20 19  1  0
  2 21  1  0
  3 22  1  0
  5 23  1  0
  6 24  1  0
  7 25  1  0
  8 26  1  0
 10 27  1  0
 11 28  1  0
 17 29  1  0
 18 30  1  0
 19 31  1  0
M  ISO  8  21  14  22   9  23  14  24  14  25  14  26  14  27  14  28  14
M  ISO  3  29  14  30  14  31  14
M  END
>  <minimizedAffinity>  (1) 
-5.85091448

>  <minimizedRMSD>  (1) 
7.7537055

$$$$
