
     RDKit          3D

 29 32  0  0  0  0  0  0  0  0999 V2000
   37.7200   28.8910   41.8630 C   0  0  0  0  0  0  0  0  0  0  0  0
   36.6840   28.1240   42.4070 C   0  0  0  0  0  0  0  0  0  0  0  0
   37.2280   27.2590   43.2510 N   0  0  0  0  0  0  0  0  0  0  0  0
   38.5720   27.4030   43.3020 C   0  0  0  0  0  0  0  0  0  0  0  0
   39.5030   26.7050   44.0480 C   0  0  0  0  0  0  0  0  0  0  0  0
   40.8430   27.0840   43.8900 C   0  0  0  0  0  0  0  0  0  0  0  0
   41.1920   28.1010   43.0300 C   0  0  0  0  0  0  0  0  0  0  0  0
   40.2570   28.7950   42.2860 C   0  0  0  0  0  0  0  0  0  0  0  0
   38.9200   28.4420   42.4230 C   0  0  0  0  0  0  0  0  0  0  0  0
   36.6560   30.7660   38.9160 C   0  0  0  0  0  0  0  0  0  0  0  0
   37.3670   31.9920   39.0360 C   0  0  0  0  0  0  0  0  0  0  0  0
   38.2010   32.1390   40.1410 C   0  0  0  0  0  0  0  0  0  0  0  0
   38.2740   31.1140   41.0130 N   0  0  0  0  0  0  0  0  0  0  0  0
   37.6010   29.9620   40.8920 C   0  0  0  0  0  0  0  0  0  0  0  0
   36.7860   29.7890   39.8350 N   0  0  0  0  0  0  0  0  0  0  0  0
   38.9450   33.3830   40.2950 C   0  0  0  0  0  0  0  0  0  0  0  0
   40.1990   33.7550   40.6130 N   0  0  0  0  0  0  0  0  0  0  0  0
   40.2710   35.0560   40.5870 O   0  0  0  0  0  0  0  0  0  0  0  0
   39.1080   35.5840   40.2610 C   0  0  0  0  0  0  0  0  0  0  0  0
   38.2790   34.5350   40.0780 N   0  0  0  0  0  0  0  0  0  0  0  0
   35.6129   28.2212   42.1762 H   0  0  0  0  0  0  0  0  0  0  0  0
   36.6961   26.5666   43.7974 H   0  0  0  0  0  0  0  0  0  0  0  0
   39.2076   25.8942   44.7302 H   0  0  0  0  0  0  0  0  0  0  0  0
   41.6258   26.5624   44.4603 H   0  0  0  0  0  0  0  0  0  0  0  0
   42.2538   28.3709   42.9316 H   0  0  0  0  0  0  0  0  0  0  0  0
   40.5621   29.6033   41.6052 H   0  0  0  0  0  0  0  0  0  0  0  0
   35.9871   30.6124   38.0564 H   0  0  0  0  0  0  0  0  0  0  0  0
   37.2623   32.7907   38.2869 H   0  0  0  0  0  0  0  0  0  0  0  0
   38.8650   36.6520   40.1597 H   0  0  0  0  0  0  0  0  0  0  0  0
  1  2  2  0
  1  9  1  0
  2  3  1  0
  3  4  1  0
  4  5  2  0
  6  5  1  0
  7  6  2  0
  8  9  2  0
  8  7  1  0
  9  4  1  0
 10 11  2  0
 10 15  1  0
 11 12  1  0
 12 16  1  0
 12 13  2  0
 14 13  1  0
 14  1  1  0
 15 14  2  0
 16 17  2  0
 18 17  1  0
 19 18  1  0
 20 19  2  0
 20 16  1  0
  2 21  1  0
  3 22  1  0
  5 23  1  0
  6 24  1  0
  7 25  1  0
  8 26  1  0
 10 27  1  0
 11 28  1  0
 19 29  1  0
M  ISO  8  21  14  22   9  23  14  24  14  25  14  26  14  27  14  28  14
M  ISO  1  29  14
M  END
>  <minimizedAffinity>  (1) 
-5.83797121

>  <minimizedRMSD>  (1) 
7.59575176

$$$$
