
     RDKit          3D

 37 40  0  0  0  0  0  0  0  0999 V2000
   37.3190   29.0030   41.7120 C   0  0  0  0  0  0  0  0  0  0  0  0
   35.9640   29.0370   41.4090 C   0  0  0  0  0  0  0  0  0  0  0  0
   35.7090   30.2340   40.8950 N   0  0  0  0  0  0  0  0  0  0  0  0
   36.8240   30.9960   40.8410 C   0  0  0  0  0  0  0  0  0  0  0  0
   36.9670   32.2910   40.3740 C   0  0  0  0  0  0  0  0  0  0  0  0
   38.2540   32.8300   40.4430 C   0  0  0  0  0  0  0  0  0  0  0  0
   39.3040   32.0980   40.9490 C   0  0  0  0  0  0  0  0  0  0  0  0
   39.1530   30.8110   41.4120 C   0  0  0  0  0  0  0  0  0  0  0  0
   37.8740   30.2370   41.3580 C   0  0  0  0  0  0  0  0  0  0  0  0
   39.8290   27.1780   43.6660 C   0  0  0  0  0  0  0  0  0  0  0  0
   39.5350   25.8230   43.3850 C   0  0  0  0  0  0  0  0  0  0  0  0
   38.4690   25.5820   42.5240 C   0  0  0  0  0  0  0  0  0  0  0  0
   37.7790   26.6150   42.0040 N   0  0  0  0  0  0  0  0  0  0  0  0
   38.0930   27.9030   42.2980 C   0  0  0  0  0  0  0  0  0  0  0  0
   39.1190   28.1800   43.1310 N   0  0  0  0  0  0  0  0  0  0  0  0
   38.0000   24.2310   42.1030 C   0  0  0  0  0  0  0  0  0  0  0  0
   36.6230   24.3210   41.5240 C   0  0  0  0  0  0  0  0  0  0  0  0
   36.6380   23.5070   40.2620 C   0  0  0  0  0  0  0  0  0  0  0  0
   38.0340   23.7610   39.7330 C   0  0  0  0  0  0  0  0  0  0  0  0
   38.8620   23.6810   40.9850 C   0  0  0  0  0  0  0  0  0  0  0  0
   35.2387   28.2249   41.5655 H   0  0  0  0  0  0  0  0  0  0  0  0
   34.7791   30.5430   40.5775 H   0  0  0  0  0  0  0  0  0  0  0  0
   36.1172   32.8623   39.9721 H   0  0  0  0  0  0  0  0  0  0  0  0
   38.4310   33.8557   40.0873 H   0  0  0  0  0  0  0  0  0  0  0  0
   40.3019   32.5594   40.9846 H   0  0  0  0  0  0  0  0  0  0  0  0
   40.0096   30.2490   41.8125 H   0  0  0  0  0  0  0  0  0  0  0  0
   40.6635   27.4152   44.3423 H   0  0  0  0  0  0  0  0  0  0  0  0
   40.1196   25.0016   43.8249 H   0  0  0  0  0  0  0  0  0  0  0  0
   38.0388   23.5909   42.9967 H   0  0  0  0  0  0  0  0  0  0  0  0
   35.8859   23.9127   42.2310 H   0  0  0  0  0  0  0  0  0  0  0  0
   36.3440   25.3654   41.3208 H   0  0  0  0  0  0  0  0  0  0  0  0
   36.4803   22.4393   40.4744 H   0  0  0  0  0  0  0  0  0  0  0  0
   35.8416   23.7774   39.5531 H   0  0  0  0  0  0  0  0  0  0  0  0
   38.3324   22.9908   39.0066 H   0  0  0  0  0  0  0  0  0  0  0  0
   38.1372   24.7139   39.1932 H   0  0  0  0  0  0  0  0  0  0  0  0
   39.1356   22.6363   41.1942 H   0  0  0  0  0  0  0  0  0  0  0  0
   39.7960   24.2530   40.8830 H   0  0  0  0  0  0  0  0  0  0  0  0
  1 14  1  0
  2  1  2  0
  3  2  1  0
  4  3  1  0
  4  9  2  0
  5  6  2  0
  5  4  1  0
  6  7  1  0
  7  8  2  0
  9  8  1  0
  9  1  1  0
 11 10  2  0
 12 11  1  0
 13 14  1  0
 13 12  2  0
 14 15  2  0
 15 10  1  0
 16 12  1  0
 17 16  1  0
 18 17  1  0
 19 18  1  0
 19 20  1  0
 20 16  1  0
  2 21  1  0
  3 22  1  0
  5 23  1  0
  6 24  1  0
  7 25  1  0
  8 26  1  0
 10 27  1  0
 11 28  1  0
 16 29  1  0
 17 30  1  0
 17 31  1  0
 18 32  1  0
 18 33  1  0
 19 34  1  0
 19 35  1  0
 20 36  1  0
 20 37  1  0
M  ISO  8  21  14  22   9  23  14  24  14  25  14  26  14  27  14  28  14
M  ISO  8  29  13  30  13  31  13  32  13  33  13  34  13  35  13  36  13
M  ISO  1  37  13
M  END
>  <minimizedAffinity>  (1) 
-5.83177948

>  <minimizedRMSD>  (1) 
2.33298707

$$$$
