
     RDKit          3D

 30 32  0  0  0  0  0  0  0  0999 V2000
   37.6520   30.3100   41.3900 C   0  0  0  0  0  0  0  0  0  0  0  0
   36.3390   30.7270   41.1590 C   0  0  0  0  0  0  0  0  0  0  0  0
   36.3970   31.9390   40.6220 N   0  0  0  0  0  0  0  0  0  0  0  0
   37.6790   32.3600   40.4810 C   0  0  0  0  0  0  0  0  0  0  0  0
   38.1850   33.5390   39.9760 C   0  0  0  0  0  0  0  0  0  0  0  0
   39.5640   33.6950   39.9550 C   0  0  0  0  0  0  0  0  0  0  0  0
   40.3830   32.6980   40.4280 C   0  0  0  0  0  0  0  0  0  0  0  0
   39.8690   31.5180   40.9330 C   0  0  0  0  0  0  0  0  0  0  0  0
   38.4950   31.3300   40.9680 C   0  0  0  0  0  0  0  0  0  0  0  0
   39.5990   27.9070   43.3430 C   0  0  0  0  0  0  0  0  0  0  0  0
   38.9480   26.6740   43.0850 C   0  0  0  0  0  0  0  0  0  0  0  0
   37.8400   26.6980   42.2360 C   0  0  0  0  0  0  0  0  0  0  0  0
   37.4590   27.8890   41.7130 N   0  0  0  0  0  0  0  0  0  0  0  0
   38.0890   29.0410   41.9710 C   0  0  0  0  0  0  0  0  0  0  0  0
   39.1620   29.0500   42.7880 N   0  0  0  0  0  0  0  0  0  0  0  0
   37.0180   25.5570   41.8280 C   0  0  0  0  0  0  0  0  0  0  0  0
   37.6390   24.2280   42.0980 C   0  0  0  0  0  0  0  0  0  0  0  0
   35.4255   30.1560   41.3813 H   0  0  0  0  0  0  0  0  0  0  0  0
   35.5721   32.4910   40.3467 H   0  0  0  0  0  0  0  0  0  0  0  0
   37.5179   34.3297   39.6022 H   0  0  0  0  0  0  0  0  0  0  0  0
   40.0037   34.6217   39.5576 H   0  0  0  0  0  0  0  0  0  0  0  0
   41.4733   32.8422   40.4043 H   0  0  0  0  0  0  0  0  0  0  0  0
   40.5449   30.7337   41.3045 H   0  0  0  0  0  0  0  0  0  0  0  0
   40.4752   27.9281   44.0077 H   0  0  0  0  0  0  0  0  0  0  0  0
   39.3021   25.7353   43.5361 H   0  0  0  0  0  0  0  0  0  0  0  0
   36.8297   25.6365   40.7472 H   0  0  0  0  0  0  0  0  0  0  0  0
   36.0958   25.6021   42.4259 H   0  0  0  0  0  0  0  0  0  0  0  0
   37.7122   24.0714   43.1843 H   0  0  0  0  0  0  0  0  0  0  0  0
   37.0177   23.4360   41.6544 H   0  0  0  0  0  0  0  0  0  0  0  0
   38.6451   24.1965   41.6544 H   0  0  0  0  0  0  0  0  0  0  0  0
  1 14  1  0
  2  1  2  0
  3  2  1  0
  4  3  1  0
  4  9  2  0
  5  4  1  0
  6  5  2  0
  6  7  1  0
  7  8  2  0
  8  9  1  0
  9  1  1  0
 11 10  2  0
 12 11  1  0
 13 14  1  0
 13 12  2  0
 14 15  2  0
 15 10  1  0
 16 17  1  0
 16 12  1  0
  2 18  1  0
  3 19  1  0
  5 20  1  0
  6 21  1  0
  7 22  1  0
  8 23  1  0
 10 24  1  0
 11 25  1  0
 16 26  1  0
 16 27  1  0
 17 28  1  0
 17 29  1  0
 17 30  1  0
M  ISO  8  18  14  19   9  20  14  21  14  22  14  23  14  24  14  25  14
M  ISO  5  26   8  27   8  28   8  29   8  30   8
M  END
>  <minimizedAffinity>  (1) 
-5.33540773

>  <minimizedRMSD>  (1) 
2.67395806

$$$$
