
     RDKit          3D

 30 33  0  0  0  0  0  0  0  0999 V2000
   37.6860   28.9550   42.0000 C   0  0  0  0  0  0  0  0  0  0  0  0
   37.9130   28.8340   43.3680 C   0  0  0  0  0  0  0  0  0  0  0  0
   37.7710   27.5490   43.6810 N   0  0  0  0  0  0  0  0  0  0  0  0
   37.4650   26.8100   42.6040 C   0  0  0  0  0  0  0  0  0  0  0  0
   37.2390   25.4490   42.5080 C   0  0  0  0  0  0  0  0  0  0  0  0
   36.9360   24.9490   41.2390 C   0  0  0  0  0  0  0  0  0  0  0  0
   36.8660   25.7830   40.1360 C   0  0  0  0  0  0  0  0  0  0  0  0
   37.0930   27.1430   40.2400 C   0  0  0  0  0  0  0  0  0  0  0  0
   37.4000   27.6720   41.5030 C   0  0  0  0  0  0  0  0  0  0  0  0
   36.6390   32.0200   40.2820 C   0  0  0  0  0  0  0  0  0  0  0  0
   37.8200   32.4100   39.6090 C   0  0  0  0  0  0  0  0  0  0  0  0
   38.9580   31.6080   39.7620 C   0  0  0  0  0  0  0  0  0  0  0  0
   38.8670   30.5140   40.5370 N   0  0  0  0  0  0  0  0  0  0  0  0
   37.7260   30.1620   41.1690 C   0  0  0  0  0  0  0  0  0  0  0  0
   36.6340   30.9070   41.0400 N   0  0  0  0  0  0  0  0  0  0  0  0
   40.2220   31.9760   39.0750 C   0  0  0  0  0  0  0  0  0  0  0  0
   40.2640   32.0620   37.6670 C   0  0  0  0  0  0  0  0  0  0  0  0
   42.0440   32.5440   37.3890 S   0  0  0  0  0  0  0  0  0  0  0  0
   42.3820   32.5320   39.2610 C   0  0  0  0  0  0  0  0  0  0  0  0
   41.3560   32.2370   39.7460 N   0  0  0  0  0  0  0  0  0  0  0  0
   38.1635   29.6500   44.0618 H   0  0  0  0  0  0  0  0  0  0  0  0
   37.8821   27.1688   44.6318 H   0  0  0  0  0  0  0  0  0  0  0  0
   37.2951   24.7918   43.3883 H   0  0  0  0  0  0  0  0  0  0  0  0
   36.7495   23.8722   41.1138 H   0  0  0  0  0  0  0  0  0  0  0  0
   36.6239   25.3531   39.1529 H   0  0  0  0  0  0  0  0  0  0  0  0
   37.0344   27.7938   39.3551 H   0  0  0  0  0  0  0  0  0  0  0  0
   35.7254   32.6252   40.1864 H   0  0  0  0  0  0  0  0  0  0  0  0
   37.8441   33.3153   38.9846 H   0  0  0  0  0  0  0  0  0  0  0  0
   39.4634   31.8910   36.9323 H   0  0  0  0  0  0  0  0  0  0  0  0
   43.3295   32.7528   39.7744 H   0  0  0  0  0  0  0  0  0  0  0  0
  1  2  2  0
  2  3  1  0
  4  3  1  0
  5  4  2  0
  6  5  1  0
  7  8  1  0
  7  6  2  0
  8  9  2  0
  9  1  1  0
  9  4  1  0
 10 15  2  0
 11 12  2  0
 11 10  1  0
 12 13  1  0
 13 14  2  0
 14  1  1  0
 15 14  1  0
 16 20  1  0
 16 12  1  0
 17 16  2  0
 18 17  1  0
 18 19  1  0
 19 20  2  0
  2 21  1  0
  3 22  1  0
  5 23  1  0
  6 24  1  0
  7 25  1  0
  8 26  1  0
 10 27  1  0
 11 28  1  0
 17 29  1  0
 19 30  1  0
M  ISO  8  21  14  22   9  23  14  24  14  25  14  26  14  27  14  28  14
M  ISO  2  29  14  30  14
M  END
>  <minimizedAffinity>  (1) 
-5.20651388

>  <minimizedRMSD>  (1) 
7.11862564

$$$$
