
     RDKit          3D

 27 29  0  0  0  0  0  0  0  0999 V2000
   37.4240   28.9570   41.4160 C   0  0  0  0  0  0  0  0  0  0  0  0
   36.3490   28.2270   41.9230 C   0  0  0  0  0  0  0  0  0  0  0  0
   36.8370   27.3990   42.8530 N   0  0  0  0  0  0  0  0  0  0  0  0
   38.1650   27.5400   42.9900 C   0  0  0  0  0  0  0  0  0  0  0  0
   39.0300   26.8740   43.8380 C   0  0  0  0  0  0  0  0  0  0  0  0
   40.3800   27.2280   43.7640 C   0  0  0  0  0  0  0  0  0  0  0  0
   40.8030   28.2010   42.8780 C   0  0  0  0  0  0  0  0  0  0  0  0
   39.9410   28.8640   42.0330 C   0  0  0  0  0  0  0  0  0  0  0  0
   38.5860   28.5320   42.0840 C   0  0  0  0  0  0  0  0  0  0  0  0
   37.1260   30.5350   38.1330 C   0  0  0  0  0  0  0  0  0  0  0  0
   37.3570   31.9170   38.4290 C   0  0  0  0  0  0  0  0  0  0  0  0
   37.6110   32.2650   39.7650 C   0  0  0  0  0  0  0  0  0  0  0  0
   37.6240   31.2780   40.7030 N   0  0  0  0  0  0  0  0  0  0  0  0
   37.4010   29.9830   40.3810 C   0  0  0  0  0  0  0  0  0  0  0  0
   37.1530   29.6090   39.1090 N   0  0  0  0  0  0  0  0  0  0  0  0
   37.8530   33.6710   40.1140 C   0  0  0  0  0  0  0  0  0  0  0  0
   35.2966   28.3157   41.6154 H   0  0  0  0  0  0  0  0  0  0  0  0
   36.2655   26.7362   43.3961 H   0  0  0  0  0  0  0  0  0  0  0  0
   38.6732   26.1031   44.5369 H   0  0  0  0  0  0  0  0  0  0  0  0
   41.1117   26.7284   44.4160 H   0  0  0  0  0  0  0  0  0  0  0  0
   41.8725   28.4563   42.8465 H   0  0  0  0  0  0  0  0  0  0  0  0
   40.3095   29.6329   41.3380 H   0  0  0  0  0  0  0  0  0  0  0  0
   36.9243   30.2271   37.0964 H   0  0  0  0  0  0  0  0  0  0  0  0
   37.3361   32.6797   37.6366 H   0  0  0  0  0  0  0  0  0  0  0  0
   37.8716   33.7791   41.2085 H   0  0  0  0  0  0  0  0  0  0  0  0
   38.8194   33.9911   39.6974 H   0  0  0  0  0  0  0  0  0  0  0  0
   37.0492   34.2958   39.6974 H   0  0  0  0  0  0  0  0  0  0  0  0
  1  2  2  0
  1  9  1  0
  2  3  1  0
  3  4  1  0
  4  5  2  0
  6  5  1  0
  7  6  2  0
  8  9  2  0
  8  7  1  0
  9  4  1  0
 10 11  2  0
 10 15  1  0
 11 12  1  0
 12 16  1  0
 12 13  2  0
 14 13  1  0
 14  1  1  0
 15 14  2  0
  2 17  1  0
  3 18  1  0
  5 19  1  0
  6 20  1  0
  7 21  1  0
  8 22  1  0
 10 23  1  0
 11 24  1  0
 16 25  1  0
 16 26  1  0
 16 27  1  0
M  ISO  8  17  14  18   9  19  14  20  14  21  14  22  14  23  14  24  14
M  ISO  3  25   8  26   8  27   8
M  END
>  <minimizedAffinity>  (1) 
-4.75056362

>  <minimizedRMSD>  (1) 
5.62062645

$$$$
