
     RDKit          3D

 25 27  0  0  0  0  0  0  0  0999 V2000
   37.8440   28.0900   42.3270 C   0  0  0  0  0  0  0  0  0  0  0  0
   36.4900   27.7750   42.2680 C   0  0  0  0  0  0  0  0  0  0  0  0
   35.8660   28.8110   41.7150 N   0  0  0  0  0  0  0  0  0  0  0  0
   36.7240   29.7960   41.4030 C   0  0  0  0  0  0  0  0  0  0  0  0
   36.4750   31.0200   40.8210 C   0  0  0  0  0  0  0  0  0  0  0  0
   37.5790   31.8550   40.6140 C   0  0  0  0  0  0  0  0  0  0  0  0
   38.8440   31.4610   40.9750 C   0  0  0  0  0  0  0  0  0  0  0  0
   39.0890   30.2300   41.5590 C   0  0  0  0  0  0  0  0  0  0  0  0
   37.9950   29.3750   41.7780 C   0  0  0  0  0  0  0  0  0  0  0  0
   41.0630   27.1720   43.8270 C   0  0  0  0  0  0  0  0  0  0  0  0
   41.0140   25.7600   43.8160 C   0  0  0  0  0  0  0  0  0  0  0  0
   39.8620   25.1340   43.2880 C   0  0  0  0  0  0  0  0  0  0  0  0
   38.8610   25.9280   42.8170 N   0  0  0  0  0  0  0  0  0  0  0  0
   38.9560   27.2800   42.8500 C   0  0  0  0  0  0  0  0  0  0  0  0
   40.0380   27.8890   43.3460 N   0  0  0  0  0  0  0  0  0  0  0  0
   39.7320   23.7530   43.2380 O   0  0  0  0  0  0  0  0  0  0  0  0
   36.0223   26.8417   42.6146 H   0  0  0  0  0  0  0  0  0  0  0  0
   34.8507   28.8528   41.5468 H   0  0  0  0  0  0  0  0  0  0  0  0
   35.4583   31.3258   40.5332 H   0  0  0  0  0  0  0  0  0  0  0  0
   37.4309   32.8434   40.1545 H   0  0  0  0  0  0  0  0  0  0  0  0
   39.6875   32.1437   40.7948 H   0  0  0  0  0  0  0  0  0  0  0  0
   40.1085   29.9301   41.8430 H   0  0  0  0  0  0  0  0  0  0  0  0
   41.9472   27.6856   44.2325 H   0  0  0  0  0  0  0  0  0  0  0  0
   41.8507   25.1633   44.2082 H   0  0  0  0  0  0  0  0  0  0  0  0
   38.9116   23.3463   42.8617 H   0  0  0  0  0  0  0  0  0  0  0  0
  1 14  1  0
  2  1  2  0
  3  2  1  0
  4  3  1  0
  4  9  2  0
  5  4  1  0
  6  5  2  0
  6  7  1  0
  7  8  2  0
  8  9  1  0
  9  1  1  0
 11 10  2  0
 12 11  1  0
 13 14  1  0
 13 12  2  0
 14 15  2  0
 15 10  1  0
 16 12  1  0
  2 17  1  0
  3 18  1  0
  5 19  1  0
  6 20  1  0
  7 21  1  0
  8 22  1  0
 10 23  1  0
 11 24  1  0
 16 25  1  0
M  ISO  8  17  14  18   9  19  14  20  14  21  14  22  14  23  14  24  14
M  ISO  1  25   3
M  END
>  <minimizedAffinity>  (1) 
-5.30559683

>  <minimizedRMSD>  (1) 
0.249558687

$$$$
