
     RDKit          3D

 32 35  0  0  0  0  0  0  0  0999 V2000
   38.1400   30.2210   41.4580 C   0  0  0  0  0  0  0  0  0  0  0  0
   36.7620   30.1520   41.6440 C   0  0  0  0  0  0  0  0  0  0  0  0
   36.5290   29.1380   42.4800 N   0  0  0  0  0  0  0  0  0  0  0  0
   37.6710   28.5330   42.8590 C   0  0  0  0  0  0  0  0  0  0  0  0
   37.8450   27.4580   43.7080 C   0  0  0  0  0  0  0  0  0  0  0  0
   39.1510   27.0390   43.9230 C   0  0  0  0  0  0  0  0  0  0  0  0
   40.1990   27.6690   43.3190 C   0  0  0  0  0  0  0  0  0  0  0  0
   40.0270   28.7450   42.4690 C   0  0  0  0  0  0  0  0  0  0  0  0
   38.7140   29.1890   42.2340 C   0  0  0  0  0  0  0  0  0  0  0  0
   40.1610   31.5400   38.7100 C   0  0  0  0  0  0  0  0  0  0  0  0
   40.3410   32.8960   39.0930 C   0  0  0  0  0  0  0  0  0  0  0  0
   39.7620   33.3350   40.2930 C   0  0  0  0  0  0  0  0  0  0  0  0
   39.0600   32.4350   41.0260 N   0  0  0  0  0  0  0  0  0  0  0  0
   38.9070   31.1520   40.6350 C   0  0  0  0  0  0  0  0  0  0  0  0
   39.4530   30.7100   39.4890 N   0  0  0  0  0  0  0  0  0  0  0  0
   39.8910   34.6320   40.7320 O   0  0  0  0  0  0  0  0  0  0  0  0
   40.9430   35.4940   40.4790 C   0  0  0  0  0  0  0  0  0  0  0  0
   41.1810   36.6420   41.4510 C   0  0  0  0  0  0  0  0  0  0  0  0
   40.5210   36.9450   40.1620 C   0  0  0  0  0  0  0  0  0  0  0  0
   36.0073   30.8095   41.1878 H   0  0  0  0  0  0  0  0  0  0  0  0
   35.5911   28.8532   42.7964 H   0  0  0  0  0  0  0  0  0  0  0  0
   36.9915   26.9586   44.1899 H   0  0  0  0  0  0  0  0  0  0  0  0
   39.3434   26.1861   44.5905 H   0  0  0  0  0  0  0  0  0  0  0  0
   41.2190   27.3073   43.5157 H   0  0  0  0  0  0  0  0  0  0  0  0
   40.8878   29.2371   41.9927 H   0  0  0  0  0  0  0  0  0  0  0  0
   40.6031   31.1705   37.7730 H   0  0  0  0  0  0  0  0  0  0  0  0
   40.9212   33.5862   38.4629 H   0  0  0  0  0  0  0  0  0  0  0  0
   41.5801   34.7167   40.0319 H   0  0  0  0  0  0  0  0  0  0  0  0
   40.6021   36.6940   42.3849 H   0  0  0  0  0  0  0  0  0  0  0  0
   42.0674   37.0361   41.9697 H   0  0  0  0  0  0  0  0  0  0  0  0
   41.0586   37.5169   39.3913 H   0  0  0  0  0  0  0  0  0  0  0  0
   39.5792   37.4319   39.8689 H   0  0  0  0  0  0  0  0  0  0  0  0
  1  2  2  0
  1  9  1  0
  2  3  1  0
  3  4  1  0
  4  5  2  0
  5  6  1  0
  7  6  2  0
  8  7  1  0
  9  8  2  0
  9  4  1  0
 10 11  2  0
 10 15  1  0
 11 12  1  0
 12 16  1  0
 12 13  2  0
 14 13  1  0
 14  1  1  0
 15 14  2  0
 17 16  1  0
 17 18  1  0
 19 17  1  0
 19 18  1  0
  2 20  1  0
  3 21  1  0
  5 22  1  0
  6 23  1  0
  7 24  1  0
  8 25  1  0
 10 26  1  0
 11 27  1  0
 17 28  1  0
 18 29  1  0
 18 30  1  0
 19 31  1  0
 19 32  1  0
M  ISO  8  20  14  21   9  22  14  23  14  24  14  25  14  26  14  27  14
M  ISO  5  28  13  29  13  30  13  31  13  32  13
M  END
>  <minimizedAffinity>  (1) 
-5.57151937

>  <minimizedRMSD>  (1) 
7.70421839

$$$$
