
     RDKit          3D

 28 30  0  0  0  0  0  0  0  0999 V2000
   38.0870   30.1420   41.1720 C   0  0  0  0  0  0  0  0  0  0  0  0
   36.7140   30.1670   41.4530 C   0  0  0  0  0  0  0  0  0  0  0  0
   36.4990   29.2500   42.3910 N   0  0  0  0  0  0  0  0  0  0  0  0
   37.6380   28.6210   42.7490 C   0  0  0  0  0  0  0  0  0  0  0  0
   37.8490   27.6220   43.6740 C   0  0  0  0  0  0  0  0  0  0  0  0
   39.1440   27.1610   43.8380 C   0  0  0  0  0  0  0  0  0  0  0  0
   40.1620   27.6820   43.1080 C   0  0  0  0  0  0  0  0  0  0  0  0
   39.9610   28.6850   42.1750 C   0  0  0  0  0  0  0  0  0  0  0  0
   38.6590   29.1660   41.9940 C   0  0  0  0  0  0  0  0  0  0  0  0
   39.8580   31.0780   38.1120 C   0  0  0  0  0  0  0  0  0  0  0  0
   40.1680   32.4490   38.3390 C   0  0  0  0  0  0  0  0  0  0  0  0
   39.7590   33.0260   39.5540 C   0  0  0  0  0  0  0  0  0  0  0  0
   39.0850   32.2620   40.4700 N   0  0  0  0  0  0  0  0  0  0  0  0
   38.8160   30.9530   40.1960 C   0  0  0  0  0  0  0  0  0  0  0  0
   39.1950   30.3690   39.0400 N   0  0  0  0  0  0  0  0  0  0  0  0
   40.0240   34.3440   39.8420 O   0  0  0  0  0  0  0  0  0  0  0  0
   39.0010   35.2050   40.2500 C   0  0  0  0  0  0  0  0  0  0  0  0
   39.2980   36.4740   39.8220 F   0  0  0  0  0  0  0  0  0  0  0  0
   38.8280   35.1760   41.6380 F   0  0  0  0  0  0  0  0  0  0  0  0
   37.8390   34.7600   39.6430 F   0  0  0  0  0  0  0  0  0  0  0  0
   35.9604   30.8192   40.9875 H   0  0  0  0  0  0  0  0  0  0  0  0
   35.5745   29.0443   42.7958 H   0  0  0  0  0  0  0  0  0  0  0  0
   37.0177   27.2053   44.2616 H   0  0  0  0  0  0  0  0  0  0  0  0
   39.3497   26.3640   44.5677 H   0  0  0  0  0  0  0  0  0  0  0  0
   41.1800   27.2950   43.2624 H   0  0  0  0  0  0  0  0  0  0  0  0
   40.8006   29.0923   41.5926 H   0  0  0  0  0  0  0  0  0  0  0  0
   40.1633   30.5968   37.1711 H   0  0  0  0  0  0  0  0  0  0  0  0
   40.7113   33.0391   37.5862 H   0  0  0  0  0  0  0  0  0  0  0  0
  1  2  2  0
  1  9  1  0
  2  3  1  0
  3  4  1  0
  4  5  2  0
  5  6  1  0
  7  6  2  0
  8  7  1  0
  9  8  2  0
  9  4  1  0
 10 11  2  0
 10 15  1  0
 11 12  1  0
 12 16  1  0
 12 13  2  0
 14 13  1  0
 14  1  1  0
 15 14  2  0
 16 17  1  0
 17 19  1  0
 18 17  1  0
 20 17  1  0
  2 21  1  0
  3 22  1  0
  5 23  1  0
  6 24  1  0
  7 25  1  0
  8 26  1  0
 10 27  1  0
 11 28  1  0
M  ISO  8  21  14  22   9  23  14  24  14  25  14  26  14  27  14  28  14
M  END
>  <minimizedAffinity>  (1) 
-5.82156324

>  <minimizedRMSD>  (1) 
7.83426905

$$$$
