
     RDKit          3D

 35 37  0  0  0  0  0  0  0  0999 V2000
   40.4770   31.5910   38.2840 C   0  0  0  0  0  0  0  0  0  0  0  0
   40.6850   32.9770   38.4580 C   0  0  0  0  0  0  0  0  0  0  0  0
   39.9760   33.6030   39.5110 C   0  0  0  0  0  0  0  0  0  0  0  0
   39.1430   32.8650   40.2910 N   0  0  0  0  0  0  0  0  0  0  0  0
   38.9830   31.5380   40.0760 C   0  0  0  0  0  0  0  0  0  0  0  0
   39.6420   30.9060   39.0830 N   0  0  0  0  0  0  0  0  0  0  0  0
   38.0910   30.7490   40.9100 C   0  0  0  0  0  0  0  0  0  0  0  0
   36.6930   30.8660   41.0100 C   0  0  0  0  0  0  0  0  0  0  0  0
   36.2950   29.9470   41.8870 N   0  0  0  0  0  0  0  0  0  0  0  0
   37.3310   29.2340   42.3720 C   0  0  0  0  0  0  0  0  0  0  0  0
   37.3610   28.1990   43.2900 C   0  0  0  0  0  0  0  0  0  0  0  0
   38.5920   27.6520   43.6000 C   0  0  0  0  0  0  0  0  0  0  0  0
   39.7240   28.1150   43.0220 C   0  0  0  0  0  0  0  0  0  0  0  0
   39.7100   29.1490   42.1020 C   0  0  0  0  0  0  0  0  0  0  0  0
   38.4770   29.7220   41.7700 C   0  0  0  0  0  0  0  0  0  0  0  0
   41.5570   33.7200   37.6190 N   0  0  0  0  0  0  0  0  0  0  0  0
   42.8930   34.0920   37.9330 C   0  0  0  0  0  0  0  0  0  0  0  0
   43.0140   34.5570   39.1540 N   0  0  0  0  0  0  0  0  0  0  0  0
   43.8840   33.9130   36.8980 N   0  0  0  0  0  0  0  0  0  0  0  0
   43.9230   34.8750   39.5500 H   0  0  0  0  0  0  0  0  0  0  0  0
   40.1290   34.9590   39.7450 O   0  0  0  0  0  0  0  0  0  0  0  0
   39.0900   35.7140   40.2720 C   0  0  0  0  0  0  0  0  0  0  0  0
   39.3800   37.0420   40.1030 F   0  0  0  0  0  0  0  0  0  0  0  0
   38.8410   35.4170   41.6170 F   0  0  0  0  0  0  0  0  0  0  0  0
   37.9580   35.3830   39.5350 F   0  0  0  0  0  0  0  0  0  0  0  0
   41.0087   31.0624   37.4791 H   0  0  0  0  0  0  0  0  0  0  0  0
   36.0530   31.5784   40.4688 H   0  0  0  0  0  0  0  0  0  0  0  0
   35.3135   29.7986   42.1619 H   0  0  0  0  0  0  0  0  0  0  0  0
   36.4378   27.8248   43.7566 H   0  0  0  0  0  0  0  0  0  0  0  0
   38.6520   26.8286   44.3269 H   0  0  0  0  0  0  0  0  0  0  0  0
   40.6862   27.6551   43.2917 H   0  0  0  0  0  0  0  0  0  0  0  0
   40.6426   29.5106   41.6442 H   0  0  0  0  0  0  0  0  0  0  0  0
   41.1897   34.0152   36.7031 H   0  0  0  0  0  0  0  0  0  0  0  0
   44.8661   34.1674   37.0758 H   0  0  0  0  0  0  0  0  0  0  0  0
   43.6087   33.5309   35.9820 H   0  0  0  0  0  0  0  0  0  0  0  0
  1  2  2  0
  1  6  1  0
  2  3  1  0
  3 21  1  0
  3  4  2  0
  5  4  1  0
  5  7  1  0
  6  5  2  0
  7  8  2  0
  7 15  1  0
  8  9  1  0
  9 10  1  0
 10 11  2  0
 11 12  1  0
 13 12  2  0
 14 13  1  0
 15 14  2  0
 15 10  1  0
 16 17  1  0
 16  2  1  0
 17 18  2  0
 18 20  1  0
 19 17  1  0
 21 22  1  0
 22 24  1  0
 23 22  1  0
 25 22  1  0
  1 26  1  0
  8 27  1  0
  9 28  1  0
 11 29  1  0
 12 30  1  0
 13 31  1  0
 14 32  1  0
 16 33  1  0
 19 34  1  0
 19 35  1  0
M  ISO  7  26  14  27  14  28   9  29  14  30  14  31  14  32  14
M  END
>  <minimizedAffinity>  (1) 
-7.12955952

>  <minimizedRMSD>  (1) 
1.30914724

$$$$
