
     RDKit          3D

 42 46  0  0  0  0  0  0  0  0999 V2000
   40.9140   31.0880   38.8340 C   0  0  0  0  0  0  0  0  0  0  0  0
   41.3750   32.3690   39.2150 C   0  0  0  0  0  0  0  0  0  0  0  0
   40.7620   32.9940   40.3160 C   0  0  0  0  0  0  0  0  0  0  0  0
   39.7530   32.3420   40.9680 N   0  0  0  0  0  0  0  0  0  0  0  0
   39.3460   31.1150   40.5650 C   0  0  0  0  0  0  0  0  0  0  0  0
   39.9210   30.4950   39.5080 N   0  0  0  0  0  0  0  0  0  0  0  0
   38.2720   30.4170   41.2560 C   0  0  0  0  0  0  0  0  0  0  0  0
   36.8930   30.6890   41.1850 C   0  0  0  0  0  0  0  0  0  0  0  0
   36.2940   29.8020   41.9780 N   0  0  0  0  0  0  0  0  0  0  0  0
   37.1790   28.9700   42.5640 C   0  0  0  0  0  0  0  0  0  0  0  0
   36.9650   27.9320   43.4400 C   0  0  0  0  0  0  0  0  0  0  0  0
   38.0710   27.2350   43.8910 C   0  0  0  0  0  0  0  0  0  0  0  0
   39.3250   27.5710   43.4770 C   0  0  0  0  0  0  0  0  0  0  0  0
   39.5350   28.6200   42.5920 C   0  0  0  0  0  0  0  0  0  0  0  0
   38.4300   29.3310   42.1300 C   0  0  0  0  0  0  0  0  0  0  0  0
   42.4240   33.1380   38.6010 C   0  0  0  0  0  0  0  0  0  0  0  0
   42.3320   33.9620   37.4920 C   0  0  0  0  0  0  0  0  0  0  0  0
   43.5190   34.5150   37.2120 N   0  0  0  0  0  0  0  0  0  0  0  0
   44.4290   34.0770   38.1220 C   0  0  0  0  0  0  0  0  0  0  0  0
   45.7820   34.2860   38.3520 C   0  0  0  0  0  0  0  0  0  0  0  0
   46.4090   33.6560   39.4060 C   0  0  0  0  0  0  0  0  0  0  0  0
   45.7210   32.8060   40.2590 C   0  0  0  0  0  0  0  0  0  0  0  0
   44.3770   32.5990   40.0320 C   0  0  0  0  0  0  0  0  0  0  0  0
   43.7520   33.2280   38.9770 C   0  0  0  0  0  0  0  0  0  0  0  0
   41.1460   34.2460   40.7620 O   0  0  0  0  0  0  0  0  0  0  0  0
   40.3470   35.3600   40.5210 C   0  0  0  0  0  0  0  0  0  0  0  0
   41.1590   36.4640   40.4240 F   0  0  0  0  0  0  0  0  0  0  0  0
   39.3970   35.5240   41.5400 F   0  0  0  0  0  0  0  0  0  0  0  0
   39.6920   35.1490   39.3300 F   0  0  0  0  0  0  0  0  0  0  0  0
   41.3748   30.5746   37.9772 H   0  0  0  0  0  0  0  0  0  0  0  0
   36.4064   31.4776   40.5923 H   0  0  0  0  0  0  0  0  0  0  0  0
   35.2757   29.7569   42.1261 H   0  0  0  0  0  0  0  0  0  0  0  0
   35.9502   27.6655   43.7703 H   0  0  0  0  0  0  0  0  0  0  0  0
   37.9367   26.3987   44.5929 H   0  0  0  0  0  0  0  0  0  0  0  0
   40.1876   27.0001   43.8512 H   0  0  0  0  0  0  0  0  0  0  0  0
   40.5511   28.8836   42.2632 H   0  0  0  0  0  0  0  0  0  0  0  0
   41.4096   34.1383   36.9191 H   0  0  0  0  0  0  0  0  0  0  0  0
   43.7107   35.1645   36.4359 H   0  0  0  0  0  0  0  0  0  0  0  0
   46.3545   34.9550   37.6926 H   0  0  0  0  0  0  0  0  0  0  0  0
   47.4817   33.8319   39.5746 H   0  0  0  0  0  0  0  0  0  0  0  0
   46.2347   32.3096   41.0955 H   0  0  0  0  0  0  0  0  0  0  0  0
   43.8037   31.9320   40.6927 H   0  0  0  0  0  0  0  0  0  0  0  0
  1  2  2  0
  1  6  1  0
  2  3  1  0
  3 25  1  0
  3  4  2  0
  5  4  1  0
  5  7  1  0
  6  5  2  0
  7 15  1  0
  8  7  2  0
  8  9  1  0
  9 10  1  0
 10 11  2  0
 11 12  1  0
 13 12  2  0
 14 13  1  0
 15 10  1  0
 15 14  2  0
 16 24  1  0
 16  2  1  0
 17 16  2  0
 18 17  1  0
 18 19  1  0
 19 20  2  0
 19 24  1  0
 20 21  1  0
 21 22  2  0
 23 22  1  0
 24 23  2  0
 26 25  1  0
 26 28  1  0
 27 26  1  0
 29 26  1  0
  1 30  1  0
  8 31  1  0
  9 32  1  0
 11 33  1  0
 12 34  1  0
 13 35  1  0
 14 36  1  0
 17 37  1  0
 18 38  1  0
 20 39  1  0
 21 40  1  0
 22 41  1  0
 23 42  1  0
M  ISO  8  30  14  31  14  32   9  33  14  34  14  35  14  36  14  37  14
M  ISO  5  38   9  39  14  40  14  41  14  42  14
M  END
>  <minimizedAffinity>  (1) 
-7.12180328

>  <minimizedRMSD>  (1) 
1.66021359

$$$$
