
     RDKit          3D

 37 40  0  0  0  0  0  0  0  0999 V2000
   38.5960   28.4310   39.5040 C   0  0  0  0  0  0  0  0  0  0  0  0
   37.9840   27.8130   40.6150 C   0  0  0  0  0  0  0  0  0  0  0  0
   37.3580   28.6110   41.5710 C   0  0  0  0  0  0  0  0  0  0  0  0
   37.3580   29.9780   41.4000 N   0  0  0  0  0  0  0  0  0  0  0  0
   37.9590   30.5290   40.3160 C   0  0  0  0  0  0  0  0  0  0  0  0
   38.5730   29.7700   39.3760 N   0  0  0  0  0  0  0  0  0  0  0  0
   37.9640   31.9770   40.1280 C   0  0  0  0  0  0  0  0  0  0  0  0
   36.8890   32.7930   39.7490 C   0  0  0  0  0  0  0  0  0  0  0  0
   37.3500   34.0390   39.7020 N   0  0  0  0  0  0  0  0  0  0  0  0
   38.6550   34.1020   40.0230 C   0  0  0  0  0  0  0  0  0  0  0  0
   39.5080   35.1870   40.0960 C   0  0  0  0  0  0  0  0  0  0  0  0
   40.8220   34.9560   40.4580 C   0  0  0  0  0  0  0  0  0  0  0  0
   41.2480   33.7000   40.7320 C   0  0  0  0  0  0  0  0  0  0  0  0
   40.4030   32.6050   40.6620 C   0  0  0  0  0  0  0  0  0  0  0  0
   39.0660   32.8170   40.2960 C   0  0  0  0  0  0  0  0  0  0  0  0
   37.9640   26.3800   40.8280 C   0  0  0  0  0  0  0  0  0  0  0  0
   36.8830   25.5750   40.5360 C   0  0  0  0  0  0  0  0  0  0  0  0
   36.8410   24.2090   40.7290 C   0  0  0  0  0  0  0  0  0  0  0  0
   37.9370   23.5780   41.2470 C   0  0  0  0  0  0  0  0  0  0  0  0
   39.0000   24.3800   41.5320 C   0  0  0  0  0  0  0  0  0  0  0  0
   39.0180   25.7080   41.3360 N   0  0  0  0  0  0  0  0  0  0  0  0
   36.7400   28.0760   42.6810 O   0  0  0  0  0  0  0  0  0  0  0  0
   37.3440   28.1300   43.9350 C   0  0  0  0  0  0  0  0  0  0  0  0
   38.2410   27.1040   44.0430 F   0  0  0  0  0  0  0  0  0  0  0  0
   36.4060   28.0760   44.9620 F   0  0  0  0  0  0  0  0  0  0  0  0
   38.0110   29.3410   44.0010 F   0  0  0  0  0  0  0  0  0  0  0  0
   39.0937   27.8158   38.7399 H   0  0  0  0  0  0  0  0  0  0  0  0
   35.8616   32.4653   39.5322 H   0  0  0  0  0  0  0  0  0  0  0  0
   36.7773   34.8573   39.4503 H   0  0  0  0  0  0  0  0  0  0  0  0
   39.1521   36.2036   39.8728 H   0  0  0  0  0  0  0  0  0  0  0  0
   41.5265   35.7982   40.5240 H   0  0  0  0  0  0  0  0  0  0  0  0
   42.2984   33.5447   41.0192 H   0  0  0  0  0  0  0  0  0  0  0  0
   40.7716   31.5936   40.8880 H   0  0  0  0  0  0  0  0  0  0  0  0
   35.9873   26.0577   40.1180 H   0  0  0  0  0  0  0  0  0  0  0  0
   35.9383   23.6364   40.4696 H   0  0  0  0  0  0  0  0  0  0  0  0
   37.9591   22.4923   41.4224 H   0  0  0  0  0  0  0  0  0  0  0  0
   39.9022   23.9093   41.9498 H   0  0  0  0  0  0  0  0  0  0  0  0
  1  2  2  0
  2 16  1  0
  2  3  1  0
  3 22  1  0
  4  3  2  0
  5  4  1  0
  6  1  1  0
  6  5  2  0
  7 15  1  0
  7  5  1  0
  8  7  2  0
  9  8  1  0
  9 10  1  0
 10 11  2  0
 10 15  1  0
 11 12  1  0
 12 13  2  0
 14 13  1  0
 15 14  2  0
 16 21  2  0
 17 18  2  0
 17 16  1  0
 18 19  1  0
 19 20  2  0
 21 20  1  0
 22 23  1  0
 23 26  1  0
 23 24  1  0
 23 25  1  0
  1 27  1  0
  8 28  1  0
  9 29  1  0
 11 30  1  0
 12 31  1  0
 13 32  1  0
 14 33  1  0
 17 34  1  0
 18 35  1  0
 19 36  1  0
 20 37  1  0
M  ISO  8  27  14  28  14  29   9  30  14  31  14  32  14  33  14  34  14
M  ISO  3  35  14  36  14  37  14
M  END
>  <minimizedAffinity>  (1) 
-6.94436646

>  <minimizedRMSD>  (1) 
7.52623463

$$$$
