
     RDKit          3D

 43 46  0  0  0  0  0  0  0  0999 V2000
   41.6580   31.5740   40.3180 C   0  0  0  0  0  0  0  0  0  0  0  0
   41.5240   32.9220   39.9150 C   0  0  0  0  0  0  0  0  0  0  0  0
   40.2490   33.5160   39.9740 C   0  0  0  0  0  0  0  0  0  0  0  0
   39.1880   32.7650   40.4180 N   0  0  0  0  0  0  0  0  0  0  0  0
   39.3710   31.4710   40.7940 C   0  0  0  0  0  0  0  0  0  0  0  0
   40.5890   30.8890   40.7440 N   0  0  0  0  0  0  0  0  0  0  0  0
   38.2520   30.6710   41.2660 C   0  0  0  0  0  0  0  0  0  0  0  0
   36.8820   30.8870   41.0050 C   0  0  0  0  0  0  0  0  0  0  0  0
   36.2170   29.9150   41.6340 N   0  0  0  0  0  0  0  0  0  0  0  0
   37.0620   29.0810   42.2870 C   0  0  0  0  0  0  0  0  0  0  0  0
   36.7840   27.9610   43.0520 C   0  0  0  0  0  0  0  0  0  0  0  0
   37.8500   27.2900   43.6070 C   0  0  0  0  0  0  0  0  0  0  0  0
   39.1200   27.7220   43.4050 C   0  0  0  0  0  0  0  0  0  0  0  0
   39.4030   28.8440   42.6400 C   0  0  0  0  0  0  0  0  0  0  0  0
   38.3450   29.5390   42.0680 C   0  0  0  0  0  0  0  0  0  0  0  0
   42.5430   33.7720   39.4470 N   0  0  0  0  0  0  0  0  0  0  0  0
   43.4430   34.3520   40.4260 C   0  0  0  0  0  0  0  0  0  0  0  0
   44.8550   34.0890   39.9820 C   0  0  0  0  0  0  0  0  0  0  0  0
   44.8800   33.0480   38.8630 C   0  0  0  0  0  0  0  0  0  0  0  0
   44.1150   33.5490   37.6610 C   0  0  0  0  0  0  0  0  0  0  0  0
   42.7910   34.1330   38.0630 C   0  0  0  0  0  0  0  0  0  0  0  0
   40.0350   34.8260   39.5980 O   0  0  0  0  0  0  0  0  0  0  0  0
   39.0340   35.5900   40.2100 C   0  0  0  0  0  0  0  0  0  0  0  0
   39.2570   36.9130   39.9270 F   0  0  0  0  0  0  0  0  0  0  0  0
   39.0040   35.3660   41.5850 F   0  0  0  0  0  0  0  0  0  0  0  0
   37.8400   35.1870   39.6580 F   0  0  0  0  0  0  0  0  0  0  0  0
   42.6432   31.0861   40.2816 H   0  0  0  0  0  0  0  0  0  0  0  0
   36.4472   31.6974   40.4015 H   0  0  0  0  0  0  0  0  0  0  0  0
   35.1922   29.8122   41.6241 H   0  0  0  0  0  0  0  0  0  0  0  0
   35.7502   27.6202   43.2103 H   0  0  0  0  0  0  0  0  0  0  0  0
   37.6704   26.3947   44.2203 H   0  0  0  0  0  0  0  0  0  0  0  0
   39.9513   27.1652   43.8621 H   0  0  0  0  0  0  0  0  0  0  0  0
   40.4410   29.1756   42.4898 H   0  0  0  0  0  0  0  0  0  0  0  0
   43.2702   35.4362   40.4940 H   0  0  0  0  0  0  0  0  0  0  0  0
   43.2668   33.9045   41.4153 H   0  0  0  0  0  0  0  0  0  0  0  0
   45.2993   35.0259   39.6147 H   0  0  0  0  0  0  0  0  0  0  0  0
   45.4309   33.7055   40.8371 H   0  0  0  0  0  0  0  0  0  0  0  0
   45.9229   32.8523   38.5732 H   0  0  0  0  0  0  0  0  0  0  0  0
   44.4087   32.1227   39.2258 H   0  0  0  0  0  0  0  0  0  0  0  0
   43.9421   32.7101   36.9708 H   0  0  0  0  0  0  0  0  0  0  0  0
   44.7090   34.3365   37.1742 H   0  0  0  0  0  0  0  0  0  0  0  0
   42.8200   35.2280   37.9623 H   0  0  0  0  0  0  0  0  0  0  0  0
   41.9899   33.7440   37.4172 H   0  0  0  0  0  0  0  0  0  0  0  0
  1  6  2  0
  2  3  2  0
  2  1  1  0
  3  4  1  0
  4  5  2  0
  5  7  1  0
  6  5  1  0
  7 15  1  0
  8  7  2  0
  8  9  1  0
  9 10  1  0
 10 11  2  0
 11 12  1  0
 13 12  2  0
 14 13  1  0
 15 10  1  0
 15 14  2  0
 16  2  1  0
 16 17  1  0
 18 17  1  0
 19 18  1  0
 20 21  1  0
 20 19  1  0
 21 16  1  0
 22  3  1  0
 22 23  1  0
 23 25  1  0
 24 23  1  0
 26 23  1  0
  1 27  1  0
  8 28  1  0
  9 29  1  0
 11 30  1  0
 12 31  1  0
 13 32  1  0
 14 33  1  0
 17 34  1  0
 17 35  1  0
 18 36  1  0
 18 37  1  0
 19 38  1  0
 19 39  1  0
 20 40  1  0
 20 41  1  0
 21 42  1  0
 21 43  1  0
M  ISO  8  27  14  28  14  29   9  30  14  31  14  32  14  33  14  34  13
M  ISO  8  35  13  36  13  37  13  38  13  39  13  40  13  41  13  42  13
M  ISO  1  43  13
M  END
>  <minimizedAffinity>  (1) 
-6.74525023

>  <minimizedRMSD>  (1) 
1.72365749

$$$$
