
     RDKit          3D

 29 31  0  0  0  0  0  0  0  0999 V2000
   38.0770   30.1270   41.1550 C   0  0  0  0  0  0  0  0  0  0  0  0
   36.7070   30.1590   41.4480 C   0  0  0  0  0  0  0  0  0  0  0  0
   36.5010   29.2460   42.4020 N   0  0  0  0  0  0  0  0  0  0  0  0
   37.6400   28.6240   42.7510 C   0  0  0  0  0  0  0  0  0  0  0  0
   37.8730   27.6280   43.6820 C   0  0  0  0  0  0  0  0  0  0  0  0
   39.1620   27.1710   43.8320 C   0  0  0  0  0  0  0  0  0  0  0  0
   40.1660   27.6780   43.0920 C   0  0  0  0  0  0  0  0  0  0  0  0
   39.9570   28.6720   42.1550 C   0  0  0  0  0  0  0  0  0  0  0  0
   38.6550   29.1560   41.9820 C   0  0  0  0  0  0  0  0  0  0  0  0
   39.8230   31.0540   38.0760 C   0  0  0  0  0  0  0  0  0  0  0  0
   40.1420   32.4190   38.2980 C   0  0  0  0  0  0  0  0  0  0  0  0
   39.7440   33.0030   39.5180 C   0  0  0  0  0  0  0  0  0  0  0  0
   39.0760   32.2500   40.4360 N   0  0  0  0  0  0  0  0  0  0  0  0
   38.7950   30.9430   40.1760 C   0  0  0  0  0  0  0  0  0  0  0  0
   39.1590   30.3490   39.0180 N   0  0  0  0  0  0  0  0  0  0  0  0
   40.8140   33.1440   37.3530 O   0  0  0  0  0  0  0  0  0  0  0  0
   40.0220   34.3220   39.7970 O   0  0  0  0  0  0  0  0  0  0  0  0
   39.0140   35.1870   40.2270 C   0  0  0  0  0  0  0  0  0  0  0  0
   39.3030   36.4540   39.8010 F   0  0  0  0  0  0  0  0  0  0  0  0
   38.8460   35.1580   41.6100 F   0  0  0  0  0  0  0  0  0  0  0  0
   37.8320   34.7510   39.6320 F   0  0  0  0  0  0  0  0  0  0  0  0
   35.9498   30.8081   40.9839 H   0  0  0  0  0  0  0  0  0  0  0  0
   35.5812   29.0437   42.8190 H   0  0  0  0  0  0  0  0  0  0  0  0
   37.0517   27.2134   44.2849 H   0  0  0  0  0  0  0  0  0  0  0  0
   39.3752   26.3805   44.5666 H   0  0  0  0  0  0  0  0  0  0  0  0
   41.1845   27.2888   43.2378 H   0  0  0  0  0  0  0  0  0  0  0  0
   40.7917   29.0723   41.5608 H   0  0  0  0  0  0  0  0  0  0  0  0
   40.1173   30.5685   37.1339 H   0  0  0  0  0  0  0  0  0  0  0  0
   41.0303   34.0954   37.5204 H   0  0  0  0  0  0  0  0  0  0  0  0
  1  2  2  0
  1  9  1  0
  2  3  1  0
  3  4  1  0
  4  5  2  0
  5  6  1  0
  7  6  2  0
  8  7  1  0
  9  8  2  0
  9  4  1  0
 10 11  2  0
 10 15  1  0
 11 12  1  0
 12 17  1  0
 12 13  2  0
 14 13  1  0
 14  1  1  0
 15 14  2  0
 16 11  1  0
 17 18  1  0
 18 20  1  0
 19 18  1  0
 21 18  1  0
  2 22  1  0
  3 23  1  0
  5 24  1  0
  6 25  1  0
  7 26  1  0
  8 27  1  0
 10 28  1  0
 16 29  1  0
M  ISO  8  22  14  23   9  24  14  25  14  26  14  27  14  28  14  29   3
M  END
>  <minimizedAffinity>  (1) 
-6.41520405

>  <minimizedRMSD>  (1) 
0.0344446488

$$$$
