
     RDKit          3D

 42 45  0  0  0  0  0  0  0  0999 V2000
   40.3960   30.6420   38.5140 C   0  0  0  0  0  0  0  0  0  0  0  0
   40.5430   32.0520   38.6520 C   0  0  0  0  0  0  0  0  0  0  0  0
   39.6670   32.7200   39.5360 C   0  0  0  0  0  0  0  0  0  0  0  0
   38.7280   32.0040   40.2130 N   0  0  0  0  0  0  0  0  0  0  0  0
   38.6290   30.6620   40.0460 C   0  0  0  0  0  0  0  0  0  0  0  0
   39.4500   29.9860   39.2080 N   0  0  0  0  0  0  0  0  0  0  0  0
   37.6280   29.8940   40.7660 C   0  0  0  0  0  0  0  0  0  0  0  0
   36.2350   29.8870   40.5430 C   0  0  0  0  0  0  0  0  0  0  0  0
   35.7050   29.0480   41.4260 N   0  0  0  0  0  0  0  0  0  0  0  0
   36.6490   28.4960   42.2170 C   0  0  0  0  0  0  0  0  0  0  0  0
   36.5400   27.5850   43.2510 C   0  0  0  0  0  0  0  0  0  0  0  0
   37.7000   27.1920   43.8950 C   0  0  0  0  0  0  0  0  0  0  0  0
   38.8970   27.6920   43.5170 C   0  0  0  0  0  0  0  0  0  0  0  0
   39.0260   28.6060   42.4820 C   0  0  0  0  0  0  0  0  0  0  0  0
   37.8600   29.0170   41.8170 C   0  0  0  0  0  0  0  0  0  0  0  0
   41.5250   32.8010   37.9440 N   0  0  0  0  0  0  0  0  0  0  0  0
   41.7650   34.1720   38.3620 C   0  0  0  0  0  0  0  0  0  0  0  0
   43.1890   34.4810   37.9250 C   0  0  0  0  0  0  0  0  0  0  0  0
   44.0440   33.3340   38.1450 N   0  0  0  0  0  0  0  0  0  0  0  0
   43.7440   32.2100   37.2940 C   0  0  0  0  0  0  0  0  0  0  0  0
   42.3080   32.2950   36.8320 C   0  0  0  0  0  0  0  0  0  0  0  0
   39.7530   34.0830   39.7180 O   0  0  0  0  0  0  0  0  0  0  0  0
   38.6530   34.8010   40.2160 C   0  0  0  0  0  0  0  0  0  0  0  0
   38.7790   36.1160   39.8170 F   0  0  0  0  0  0  0  0  0  0  0  0
   38.5470   34.6990   41.6030 F   0  0  0  0  0  0  0  0  0  0  0  0
   37.5190   34.2540   39.6230 F   0  0  0  0  0  0  0  0  0  0  0  0
   41.0604   30.0867   37.8356 H   0  0  0  0  0  0  0  0  0  0  0  0
   35.6910   30.4663   39.7824 H   0  0  0  0  0  0  0  0  0  0  0  0
   34.6980   28.8439   41.4981 H   0  0  0  0  0  0  0  0  0  0  0  0
   35.5609   27.1847   43.5527 H   0  0  0  0  0  0  0  0  0  0  0  0
   37.6473   26.4672   44.7208 H   0  0  0  0  0  0  0  0  0  0  0  0
   39.8015   27.3623   44.0492 H   0  0  0  0  0  0  0  0  0  0  0  0
   40.0121   28.9971   42.1910 H   0  0  0  0  0  0  0  0  0  0  0  0
   41.0549   34.8542   37.8719 H   0  0  0  0  0  0  0  0  0  0  0  0
   41.6318   34.2996   39.4464 H   0  0  0  0  0  0  0  0  0  0  0  0
   43.5697   35.3337   38.5063 H   0  0  0  0  0  0  0  0  0  0  0  0
   43.1882   34.7252   36.8525 H   0  0  0  0  0  0  0  0  0  0  0  0
   45.0190   33.6188   37.9743 H   0  0  0  0  0  0  0  0  0  0  0  0
   44.4115   32.2239   36.4198 H   0  0  0  0  0  0  0  0  0  0  0  0
   43.8931   31.2759   37.8554 H   0  0  0  0  0  0  0  0  0  0  0  0
   42.2287   32.9788   35.9740 H   0  0  0  0  0  0  0  0  0  0  0  0
   41.9419   31.3070   36.5162 H   0  0  0  0  0  0  0  0  0  0  0  0
  1  2  2  0
  1  6  1  0
  2  3  1  0
  3 22  1  0
  3  4  2  0
  5  4  1  0
  5  7  1  0
  6  5  2  0
  7 15  1  0
  8  7  2  0
  8  9  1  0
  9 10  1  0
 10 11  2  0
 11 12  1  0
 13 12  2  0
 14 13  1  0
 15 10  1  0
 15 14  2  0
 16 17  1  0
 16  2  1  0
 18 19  1  0
 18 17  1  0
 20 19  1  0
 21 20  1  0
 21 16  1  0
 22 23  1  0
 23 25  1  0
 24 23  1  0
 26 23  1  0
  1 27  1  0
  8 28  1  0
  9 29  1  0
 11 30  1  0
 12 31  1  0
 13 32  1  0
 14 33  1  0
 17 34  1  0
 17 35  1  0
 18 36  1  0
 18 37  1  0
 19 38  1  0
 20 39  1  0
 20 40  1  0
 21 41  1  0
 21 42  1  0
M  ISO  8  27  14  28  14  29   9  30  14  31  14  32  14  33  14  34  13
M  ISO  8  35  13  36  13  37  13  38   5  39  13  40  13  41  13  42  13
M  END
>  <minimizedAffinity>  (1) 
-6.40028

>  <minimizedRMSD>  (1) 
0.998987913

$$$$
