
     RDKit          3D

 33 36  0  0  0  0  0  0  0  0999 V2000
   40.7440   31.3920   38.8750 C   0  0  0  0  0  0  0  0  0  0  0  0
   41.1300   32.6710   39.3310 C   0  0  0  0  0  0  0  0  0  0  0  0
   40.4360   33.2520   40.3910 C   0  0  0  0  0  0  0  0  0  0  0  0
   39.3900   32.5580   40.9660 N   0  0  0  0  0  0  0  0  0  0  0  0
   39.0550   31.3330   40.4970 C   0  0  0  0  0  0  0  0  0  0  0  0
   39.7160   30.7520   39.4670 N   0  0  0  0  0  0  0  0  0  0  0  0
   37.9480   30.5860   41.0960 C   0  0  0  0  0  0  0  0  0  0  0  0
   36.5720   30.8330   40.9260 C   0  0  0  0  0  0  0  0  0  0  0  0
   35.9320   29.9190   41.6490 N   0  0  0  0  0  0  0  0  0  0  0  0
   36.7820   29.0950   42.2770 C   0  0  0  0  0  0  0  0  0  0  0  0
   36.5280   28.0310   43.1100 C   0  0  0  0  0  0  0  0  0  0  0  0
   37.6250   27.3450   43.6280 C   0  0  0  0  0  0  0  0  0  0  0  0
   38.8940   27.7210   43.3140 C   0  0  0  0  0  0  0  0  0  0  0  0
   39.1460   28.7940   42.4740 C   0  0  0  0  0  0  0  0  0  0  0  0
   38.0670   29.4930   41.9470 C   0  0  0  0  0  0  0  0  0  0  0  0
   42.2380   33.3700   38.6990 C   0  0  0  0  0  0  0  0  0  0  0  0
   42.2030   34.1030   37.5740 N   0  0  0  0  0  0  0  0  0  0  0  0
   43.4040   34.5530   37.3580 O   0  0  0  0  0  0  0  0  0  0  0  0
   44.2390   34.1430   38.3020 C   0  0  0  0  0  0  0  0  0  0  0  0
   43.5010   33.3920   39.1560 N   0  0  0  0  0  0  0  0  0  0  0  0
   40.7640   34.4910   40.8780 O   0  0  0  0  0  0  0  0  0  0  0  0
   39.9590   35.6100   40.6060 C   0  0  0  0  0  0  0  0  0  0  0  0
   40.2250   36.5610   41.5570 F   0  0  0  0  0  0  0  0  0  0  0  0
   38.6090   35.2830   40.5900 F   0  0  0  0  0  0  0  0  0  0  0  0
   40.3460   36.0610   39.3500 F   0  0  0  0  0  0  0  0  0  0  0  0
   41.2805   30.9191   38.0392 H   0  0  0  0  0  0  0  0  0  0  0  0
   36.1163   31.6262   40.3151 H   0  0  0  0  0  0  0  0  0  0  0  0
   34.9065   29.8523   41.7181 H   0  0  0  0  0  0  0  0  0  0  0  0
   35.4987   27.7327   43.3580 H   0  0  0  0  0  0  0  0  0  0  0  0
   37.4626   26.4888   44.2992 H   0  0  0  0  0  0  0  0  0  0  0  0
   39.7404   27.1600   43.7369 H   0  0  0  0  0  0  0  0  0  0  0  0
   40.1780   29.0860   42.2297 H   0  0  0  0  0  0  0  0  0  0  0  0
   45.3134   34.3668   38.3773 H   0  0  0  0  0  0  0  0  0  0  0  0
  1  2  2  0
  1  6  1  0
  2  3  1  0
  3 21  1  0
  3  4  2  0
  5  4  1  0
  5  7  1  0
  6  5  2  0
  7 15  1  0
  8  7  2  0
  8  9  1  0
  9 10  1  0
 10 11  2  0
 11 12  1  0
 13 12  2  0
 14 13  1  0
 15 10  1  0
 15 14  2  0
 16 20  1  0
 16  2  1  0
 17 16  2  0
 18 17  1  0
 18 19  1  0
 19 20  2  0
 22 21  1  0
 22 23  1  0
 24 22  1  0
 25 22  1  0
  1 26  1  0
  8 27  1  0
  9 28  1  0
 11 29  1  0
 12 30  1  0
 13 31  1  0
 14 32  1  0
 19 33  1  0
M  ISO  8  26  14  27  14  28   9  29  14  30  14  31  14  32  14  33  14
M  END
>  <minimizedAffinity>  (1) 
-6.31737137

>  <minimizedRMSD>  (1) 
1.57076895

$$$$
