
     RDKit          3D

 34 37  0  0  0  0  0  0  0  0999 V2000
   40.7890   31.2760   38.7670 C   0  0  0  0  0  0  0  0  0  0  0  0
   41.2370   32.5520   39.1800 C   0  0  0  0  0  0  0  0  0  0  0  0
   40.5920   33.1690   40.2590 C   0  0  0  0  0  0  0  0  0  0  0  0
   39.5580   32.5280   40.8780 N   0  0  0  0  0  0  0  0  0  0  0  0
   39.1600   31.3050   40.4510 C   0  0  0  0  0  0  0  0  0  0  0  0
   39.7730   30.6920   39.4080 N   0  0  0  0  0  0  0  0  0  0  0  0
   38.0570   30.6050   41.1010 C   0  0  0  0  0  0  0  0  0  0  0  0
   36.6810   30.8760   40.9570 C   0  0  0  0  0  0  0  0  0  0  0  0
   36.0320   30.0070   41.7200 N   0  0  0  0  0  0  0  0  0  0  0  0
   36.8920   29.1740   42.3630 C   0  0  0  0  0  0  0  0  0  0  0  0
   36.6390   28.1460   43.2350 C   0  0  0  0  0  0  0  0  0  0  0  0
   37.7330   27.4530   43.7480 C   0  0  0  0  0  0  0  0  0  0  0  0
   38.9930   27.7920   43.3900 C   0  0  0  0  0  0  0  0  0  0  0  0
   39.2520   28.8300   42.5080 C   0  0  0  0  0  0  0  0  0  0  0  0
   38.1680   29.5390   41.9820 C   0  0  0  0  0  0  0  0  0  0  0  0
   42.3020   33.2930   38.5960 N   0  0  0  0  0  0  0  0  0  0  0  0
   42.4150   34.0830   37.5060 C   0  0  0  0  0  0  0  0  0  0  0  0
   43.7010   34.5250   37.4580 N   0  0  0  0  0  0  0  0  0  0  0  0
   44.3720   34.0000   38.5240 C   0  0  0  0  0  0  0  0  0  0  0  0
   43.4970   33.2500   39.2070 N   0  0  0  0  0  0  0  0  0  0  0  0
   40.9750   34.4180   40.7200 O   0  0  0  0  0  0  0  0  0  0  0  0
   40.2780   35.5630   40.3560 C   0  0  0  0  0  0  0  0  0  0  0  0
   41.0250   36.2690   39.4490 F   0  0  0  0  0  0  0  0  0  0  0  0
   39.9700   36.3550   41.4740 F   0  0  0  0  0  0  0  0  0  0  0  0
   39.0920   35.1410   39.7710 F   0  0  0  0  0  0  0  0  0  0  0  0
   41.2749   30.7667   37.9218 H   0  0  0  0  0  0  0  0  0  0  0  0
   36.2309   31.6600   40.3303 H   0  0  0  0  0  0  0  0  0  0  0  0
   35.0070   29.9683   41.8134 H   0  0  0  0  0  0  0  0  0  0  0  0
   35.6104   27.8787   43.5187 H   0  0  0  0  0  0  0  0  0  0  0  0
   37.5711   26.6224   44.4507 H   0  0  0  0  0  0  0  0  0  0  0  0
   39.8375   27.2270   43.8115 H   0  0  0  0  0  0  0  0  0  0  0  0
   40.2841   29.0890   42.2292 H   0  0  0  0  0  0  0  0  0  0  0  0
   41.6156   34.3242   36.7900 H   0  0  0  0  0  0  0  0  0  0  0  0
   45.4307   34.1620   38.7749 H   0  0  0  0  0  0  0  0  0  0  0  0
  1  2  2  0
  1  6  1  0
  2  3  1  0
  3 21  1  0
  3  4  2  0
  5  4  1  0
  5  7  1  0
  6  5  2  0
  7 15  1  0
  8  7  2  0
  8  9  1  0
  9 10  1  0
 10 11  2  0
 11 12  1  0
 13 12  2  0
 14 13  1  0
 15 10  1  0
 15 14  2  0
 16  2  1  0
 16 20  1  0
 17 16  1  0
 18 17  2  0
 18 19  1  0
 19 20  2  0
 22 21  1  0
 22 24  1  0
 23 22  1  0
 25 22  1  0
  1 26  1  0
  8 27  1  0
  9 28  1  0
 11 29  1  0
 12 30  1  0
 13 31  1  0
 14 32  1  0
 17 33  1  0
 19 34  1  0
M  ISO  8  26  14  27  14  28   9  29  14  30  14  31  14  32  14  33  14
M  ISO  1  34  14
M  END
>  <minimizedAffinity>  (1) 
-6.14302349

>  <minimizedRMSD>  (1) 
1.64967346

$$$$
