
     RDKit          3D

 35 38  0  0  0  0  0  0  0  0999 V2000
   40.9910   31.3360   39.1030 C   0  0  0  0  0  0  0  0  0  0  0  0
   41.3080   32.6610   39.4830 C   0  0  0  0  0  0  0  0  0  0  0  0
   40.5110   33.3110   40.4250 C   0  0  0  0  0  0  0  0  0  0  0  0
   39.4350   32.6380   40.9610 N   0  0  0  0  0  0  0  0  0  0  0  0
   39.1660   31.3680   40.5710 C   0  0  0  0  0  0  0  0  0  0  0  0
   39.9240   30.7210   39.6590 N   0  0  0  0  0  0  0  0  0  0  0  0
   38.0220   30.6450   41.1340 C   0  0  0  0  0  0  0  0  0  0  0  0
   36.6570   30.9290   40.9400 C   0  0  0  0  0  0  0  0  0  0  0  0
   35.9850   30.0130   41.6410 N   0  0  0  0  0  0  0  0  0  0  0  0
   36.8100   29.1550   42.2760 C   0  0  0  0  0  0  0  0  0  0  0  0
   36.5130   28.0880   43.0860 C   0  0  0  0  0  0  0  0  0  0  0  0
   37.5830   27.3670   43.6150 C   0  0  0  0  0  0  0  0  0  0  0  0
   38.8560   27.7250   43.3270 C   0  0  0  0  0  0  0  0  0  0  0  0
   39.1610   28.7990   42.5110 C   0  0  0  0  0  0  0  0  0  0  0  0
   38.1020   29.5330   41.9730 C   0  0  0  0  0  0  0  0  0  0  0  0
   42.4630   33.2950   38.8670 C   0  0  0  0  0  0  0  0  0  0  0  0
   42.6730   33.8400   37.6220 C   0  0  0  0  0  0  0  0  0  0  0  0
   43.9650   34.3240   37.5240 C   0  0  0  0  0  0  0  0  0  0  0  0
   44.4930   34.0350   38.7700 C   0  0  0  0  0  0  0  0  0  0  0  0
   43.5990   33.4480   39.5000 O   0  0  0  0  0  0  0  0  0  0  0  0
   40.7750   34.5900   40.8240 O   0  0  0  0  0  0  0  0  0  0  0  0
   40.0800   35.6740   40.2630 C   0  0  0  0  0  0  0  0  0  0  0  0
   39.9710   36.6550   41.2170 F   0  0  0  0  0  0  0  0  0  0  0  0
   38.8180   35.3010   39.7960 F   0  0  0  0  0  0  0  0  0  0  0  0
   40.8480   36.1180   39.1940 F   0  0  0  0  0  0  0  0  0  0  0  0
   41.6086   30.8099   38.3602 H   0  0  0  0  0  0  0  0  0  0  0  0
   36.2304   31.7414   40.3334 H   0  0  0  0  0  0  0  0  0  0  0  0
   34.9573   29.9667   41.6912 H   0  0  0  0  0  0  0  0  0  0  0  0
   35.4718   27.8122   43.3093 H   0  0  0  0  0  0  0  0  0  0  0  0
   37.3916   26.5036   44.2691 H   0  0  0  0  0  0  0  0  0  0  0  0
   39.6804   27.1387   43.7589 H   0  0  0  0  0  0  0  0  0  0  0  0
   40.2053   29.0667   42.2926 H   0  0  0  0  0  0  0  0  0  0  0  0
   41.9218   33.8846   36.8197 H   0  0  0  0  0  0  0  0  0  0  0  0
   44.4515   34.8160   36.6688 H   0  0  0  0  0  0  0  0  0  0  0  0
   45.5185   34.2689   39.0921 H   0  0  0  0  0  0  0  0  0  0  0  0
  1  2  2  0
  1  6  1  0
  2  3  1  0
  3 21  1  0
  3  4  2  0
  5  4  1  0
  5  7  1  0
  6  5  2  0
  7 15  1  0
  8  7  2  0
  8  9  1  0
  9 10  1  0
 10 11  2  0
 11 12  1  0
 13 12  2  0
 14 13  1  0
 15 10  1  0
 15 14  2  0
 16  2  1  0
 16 20  1  0
 17 16  2  0
 18 17  1  0
 18 19  2  0
 19 20  1  0
 22 21  1  0
 22 23  1  0
 24 22  1  0
 25 22  1  0
  1 26  1  0
  8 27  1  0
  9 28  1  0
 11 29  1  0
 12 30  1  0
 13 31  1  0
 14 32  1  0
 17 33  1  0
 18 34  1  0
 19 35  1  0
M  ISO  8  26  14  27  14  28   9  29  14  30  14  31  14  32  14  33  14
M  ISO  2  34  14  35  14
M  END
>  <minimizedAffinity>  (1) 
-6.11605787

>  <minimizedRMSD>  (1) 
1.78996551

$$$$
