
     RDKit          3D

 40 42  0  0  0  0  0  0  0  0999 V2000
   41.2370   31.3790   39.0980 C   0  0  0  0  0  0  0  0  0  0  0  0
   41.5130   32.7400   39.4240 C   0  0  0  0  0  0  0  0  0  0  0  0
   40.6900   33.3620   40.3740 C   0  0  0  0  0  0  0  0  0  0  0  0
   39.6640   32.6660   40.9540 N   0  0  0  0  0  0  0  0  0  0  0  0
   39.4500   31.3700   40.6040 C   0  0  0  0  0  0  0  0  0  0  0  0
   40.2220   30.7290   39.6880 N   0  0  0  0  0  0  0  0  0  0  0  0
   38.3620   30.6060   41.2080 C   0  0  0  0  0  0  0  0  0  0  0  0
   36.9780   30.8320   41.0510 C   0  0  0  0  0  0  0  0  0  0  0  0
   36.3620   29.9020   41.7760 N   0  0  0  0  0  0  0  0  0  0  0  0
   37.2390   29.0830   42.3980 C   0  0  0  0  0  0  0  0  0  0  0  0
   37.0170   28.0050   43.2330 C   0  0  0  0  0  0  0  0  0  0  0  0
   38.1230   27.3420   43.7310 C   0  0  0  0  0  0  0  0  0  0  0  0
   39.3760   27.7460   43.4040 C   0  0  0  0  0  0  0  0  0  0  0  0
   39.6090   28.8220   42.5700 C   0  0  0  0  0  0  0  0  0  0  0  0
   38.5020   29.5110   42.0510 C   0  0  0  0  0  0  0  0  0  0  0  0
   42.5850   33.5460   38.8480 C   0  0  0  0  0  0  0  0  0  0  0  0
   43.4920   32.6060   38.0500 C   0  0  0  0  0  0  0  0  0  0  0  0
   43.4550   34.0380   39.9980 C   0  0  0  0  0  0  0  0  0  0  0  0
   42.1710   34.7080   38.0260 C   0  0  0  0  0  0  0  0  0  0  0  0
   40.8910   34.6760   40.7430 O   0  0  0  0  0  0  0  0  0  0  0  0
   39.8610   35.6040   40.6710 C   0  0  0  0  0  0  0  0  0  0  0  0
   40.3920   36.8630   40.6900 F   0  0  0  0  0  0  0  0  0  0  0  0
   38.9600   35.4460   41.7390 F   0  0  0  0  0  0  0  0  0  0  0  0
   39.1970   35.3750   39.4850 F   0  0  0  0  0  0  0  0  0  0  0  0
   41.8612   30.8581   38.3570 H   0  0  0  0  0  0  0  0  0  0  0  0
   36.5029   31.6204   40.4488 H   0  0  0  0  0  0  0  0  0  0  0  0
   35.3385   29.8163   41.8540 H   0  0  0  0  0  0  0  0  0  0  0  0
   35.9968   27.6857   43.4922 H   0  0  0  0  0  0  0  0  0  0  0  0
   37.9858   26.4787   44.3987 H   0  0  0  0  0  0  0  0  0  0  0  0
   40.2357   27.1980   43.8171 H   0  0  0  0  0  0  0  0  0  0  0  0
   40.6346   29.1306   42.3193 H   0  0  0  0  0  0  0  0  0  0  0  0
   44.0847   31.9918   38.7439 H   0  0  0  0  0  0  0  0  0  0  0  0
   42.8752   31.9517   37.4163 H   0  0  0  0  0  0  0  0  0  0  0  0
   44.1679   33.1990   37.4163 H   0  0  0  0  0  0  0  0  0  0  0  0
   42.9830   33.7711   40.9551 H   0  0  0  0  0  0  0  0  0  0  0  0
   44.4472   33.5673   39.9346 H   0  0  0  0  0  0  0  0  0  0  0  0
   43.5629   35.1309   39.9346 H   0  0  0  0  0  0  0  0  0  0  0  0
   41.8756   35.5372   38.6857 H   0  0  0  0  0  0  0  0  0  0  0  0
   43.0112   35.0260   37.3912 H   0  0  0  0  0  0  0  0  0  0  0  0
   41.3190   34.4231   37.3912 H   0  0  0  0  0  0  0  0  0  0  0  0
  1  2  2  0
  1  6  1  0
  2  3  1  0
  3 20  1  0
  3  4  2  0
  5  4  1  0
  5  7  1  0
  6  5  2  0
  7 15  1  0
  8  7  2  0
  8  9  1  0
  9 10  1  0
 10 11  2  0
 11 12  1  0
 13 12  2  0
 14 13  1  0
 15 10  1  0
 15 14  2  0
 16  2  1  0
 16 18  1  0
 17 16  1  0
 19 16  1  0
 21 22  1  0
 21 20  1  0
 21 23  1  0
 24 21  1  0
  1 25  1  0
  8 26  1  0
  9 27  1  0
 11 28  1  0
 12 29  1  0
 13 30  1  0
 14 31  1  0
 17 32  1  0
 17 33  1  0
 17 34  1  0
 18 35  1  0
 18 36  1  0
 18 37  1  0
 19 38  1  0
 19 39  1  0
 19 40  1  0
M  ISO  8  25  14  26  14  27   9  28  14  29  14  30  14  31  14  32   8
M  ISO  8  33   8  34   8  35   8  36   8  37   8  38   8  39   8  40   8
M  END
>  <minimizedAffinity>  (1) 
-6.06361914

>  <minimizedRMSD>  (1) 
1.39188039

$$$$
