
     RDKit          3D

 38 41  0  0  0  0  0  0  0  0999 V2000
   41.6660   30.8550   39.6810 C   0  0  0  0  0  0  0  0  0  0  0  0
   41.9770   32.2040   39.9740 C   0  0  0  0  0  0  0  0  0  0  0  0
   41.0680   32.9550   40.7370 C   0  0  0  0  0  0  0  0  0  0  0  0
   39.9100   32.3600   41.1750 N   0  0  0  0  0  0  0  0  0  0  0  0
   39.6610   31.0550   40.8630 C   0  0  0  0  0  0  0  0  0  0  0  0
   40.5240   30.3260   40.1330 N   0  0  0  0  0  0  0  0  0  0  0  0
   38.4310   30.4120   41.3240 C   0  0  0  0  0  0  0  0  0  0  0  0
   37.1070   30.7950   41.0350 C   0  0  0  0  0  0  0  0  0  0  0  0
   36.3140   29.9370   41.6560 N   0  0  0  0  0  0  0  0  0  0  0  0
   37.0260   29.0070   42.3420 C   0  0  0  0  0  0  0  0  0  0  0  0
   36.5880   27.9530   43.1100 C   0  0  0  0  0  0  0  0  0  0  0  0
   37.5540   27.1530   43.7020 C   0  0  0  0  0  0  0  0  0  0  0  0
   38.8810   27.4130   43.5200 C   0  0  0  0  0  0  0  0  0  0  0  0
   39.3080   28.4710   42.7500 C   0  0  0  0  0  0  0  0  0  0  0  0
   38.3610   29.2910   42.1440 C   0  0  0  0  0  0  0  0  0  0  0  0
   43.1850   32.9040   39.5440 C   0  0  0  0  0  0  0  0  0  0  0  0
   44.2860   33.0390   40.3780 C   0  0  0  0  0  0  0  0  0  0  0  0
   45.4240   33.7000   39.9650 C   0  0  0  0  0  0  0  0  0  0  0  0
   45.4660   34.2420   38.6840 C   0  0  0  0  0  0  0  0  0  0  0  0
   44.3670   34.1050   37.8590 C   0  0  0  0  0  0  0  0  0  0  0  0
   43.2340   33.4400   38.2850 C   0  0  0  0  0  0  0  0  0  0  0  0
   41.2970   34.2740   41.0640 O   0  0  0  0  0  0  0  0  0  0  0  0
   40.5270   35.2980   40.4920 C   0  0  0  0  0  0  0  0  0  0  0  0
   41.2710   36.4540   40.4800 F   0  0  0  0  0  0  0  0  0  0  0  0
   39.3360   35.4740   41.1910 F   0  0  0  0  0  0  0  0  0  0  0  0
   40.2480   34.9110   39.1970 F   0  0  0  0  0  0  0  0  0  0  0  0
   42.3600   30.2446   39.0845 H   0  0  0  0  0  0  0  0  0  0  0  0
   36.7922   31.6451   40.4120 H   0  0  0  0  0  0  0  0  0  0  0  0
   35.2851   29.9706   41.6230 H   0  0  0  0  0  0  0  0  0  0  0  0
   35.5153   27.7529   43.2489 H   0  0  0  0  0  0  0  0  0  0  0  0
   37.2471   26.2999   44.3248 H   0  0  0  0  0  0  0  0  0  0  0  0
   39.6268   26.7621   43.9997 H   0  0  0  0  0  0  0  0  0  0  0  0
   40.3823   28.6655   42.6156 H   0  0  0  0  0  0  0  0  0  0  0  0
   44.2504   32.6097   41.3901 H   0  0  0  0  0  0  0  0  0  0  0  0
   46.2873   33.7975   40.6396 H   0  0  0  0  0  0  0  0  0  0  0  0
   46.3632   34.7728   38.3330 H   0  0  0  0  0  0  0  0  0  0  0  0
   44.3945   34.5326   36.8459 H   0  0  0  0  0  0  0  0  0  0  0  0
   42.3697   33.3408   37.6119 H   0  0  0  0  0  0  0  0  0  0  0  0
  1  2  2  0
  1  6  1  0
  2  3  1  0
  3 22  1  0
  3  4  2  0
  5  4  1  0
  5  7  1  0
  6  5  2  0
  7 15  1  0
  8  7  2  0
  8  9  1  0
  9 10  1  0
 10 11  2  0
 11 12  1  0
 13 12  2  0
 14 13  1  0
 15 10  1  0
 15 14  2  0
 16  2  1  0
 16 17  2  0
 18 17  1  0
 19 18  2  0
 20 21  2  0
 20 19  1  0
 21 16  1  0
 23 22  1  0
 23 25  1  0
 24 23  1  0
 26 23  1  0
  1 27  1  0
  8 28  1  0
  9 29  1  0
 11 30  1  0
 12 31  1  0
 13 32  1  0
 14 33  1  0
 17 34  1  0
 18 35  1  0
 19 36  1  0
 20 37  1  0
 21 38  1  0
M  ISO  8  27  14  28  14  29   9  30  14  31  14  32  14  33  14  34  14
M  ISO  4  35  14  36  14  37  14  38  14
M  END
>  <minimizedAffinity>  (1) 
-5.94406128

>  <minimizedRMSD>  (1) 
2.32818007

$$$$
