
     RDKit          3D

 34 37  0  0  0  0  0  0  0  0999 V2000
   41.6680   30.9230   39.5760 C   0  0  0  0  0  0  0  0  0  0  0  0
   42.0270   32.2650   39.8820 C   0  0  0  0  0  0  0  0  0  0  0  0
   41.1510   32.9880   40.6870 C   0  0  0  0  0  0  0  0  0  0  0  0
   40.0020   32.3980   41.1470 N   0  0  0  0  0  0  0  0  0  0  0  0
   39.7040   31.1170   40.8300 C   0  0  0  0  0  0  0  0  0  0  0  0
   40.5340   30.3810   40.0450 N   0  0  0  0  0  0  0  0  0  0  0  0
   38.4890   30.4770   41.3070 C   0  0  0  0  0  0  0  0  0  0  0  0
   37.1610   30.8610   41.0220 C   0  0  0  0  0  0  0  0  0  0  0  0
   36.3790   29.9910   41.6630 N   0  0  0  0  0  0  0  0  0  0  0  0
   37.0890   29.0750   42.3390 C   0  0  0  0  0  0  0  0  0  0  0  0
   36.6710   28.0140   43.1250 C   0  0  0  0  0  0  0  0  0  0  0  0
   37.6390   27.2330   43.7070 C   0  0  0  0  0  0  0  0  0  0  0  0
   38.9640   27.4880   43.5220 C   0  0  0  0  0  0  0  0  0  0  0  0
   39.3970   28.5430   42.7400 C   0  0  0  0  0  0  0  0  0  0  0  0
   38.4380   29.3500   42.1380 C   0  0  0  0  0  0  0  0  0  0  0  0
   43.2720   32.8130   39.3460 C   0  0  0  0  0  0  0  0  0  0  0  0
   43.4210   33.0860   37.9920 C   0  0  0  0  0  0  0  0  0  0  0  0
   45.1200   33.7360   37.8730 S   0  0  0  0  0  0  0  0  0  0  0  0
   45.3610   33.5230   39.7530 C   0  0  0  0  0  0  0  0  0  0  0  0
   44.3280   33.0870   40.0810 N   0  0  0  0  0  0  0  0  0  0  0  0
   41.3990   34.2920   41.0440 O   0  0  0  0  0  0  0  0  0  0  0  0
   40.6560   35.3510   40.5150 C   0  0  0  0  0  0  0  0  0  0  0  0
   41.3550   36.5190   40.6950 F   0  0  0  0  0  0  0  0  0  0  0  0
   39.4010   35.4350   41.1170 F   0  0  0  0  0  0  0  0  0  0  0  0
   40.4950   35.0840   39.1700 F   0  0  0  0  0  0  0  0  0  0  0  0
   42.3332   30.3179   38.9425 H   0  0  0  0  0  0  0  0  0  0  0  0
   36.8366   31.7066   40.3977 H   0  0  0  0  0  0  0  0  0  0  0  0
   35.3496   30.0191   41.6415 H   0  0  0  0  0  0  0  0  0  0  0  0
   35.6020   27.8045   43.2776 H   0  0  0  0  0  0  0  0  0  0  0  0
   37.3376   26.3827   44.3365 H   0  0  0  0  0  0  0  0  0  0  0  0
   39.7080   26.8387   44.0066 H   0  0  0  0  0  0  0  0  0  0  0  0
   40.4702   28.7384   42.5981 H   0  0  0  0  0  0  0  0  0  0  0  0
   42.6882   32.9438   37.1840 H   0  0  0  0  0  0  0  0  0  0  0  0
   46.2435   33.7514   40.3686 H   0  0  0  0  0  0  0  0  0  0  0  0
  1  2  2  0
  1  6  1  0
  2  3  1  0
  3 21  1  0
  3  4  2  0
  5  4  1  0
  5  7  1  0
  6  5  2  0
  7 15  1  0
  8  7  2  0
  8  9  1  0
  9 10  1  0
 10 11  2  0
 11 12  1  0
 13 12  2  0
 14 13  1  0
 15 10  1  0
 15 14  2  0
 16  2  1  0
 16 20  1  0
 17 16  2  0
 18 17  1  0
 18 19  1  0
 19 20  2  0
 22 23  1  0
 22 21  1  0
 22 24  1  0
 25 22  1  0
  1 26  1  0
  8 27  1  0
  9 28  1  0
 11 29  1  0
 12 30  1  0
 13 31  1  0
 14 32  1  0
 17 33  1  0
 19 34  1  0
M  ISO  8  26  14  27  14  28   9  29  14  30  14  31  14  32  14  33  14
M  ISO  1  34  14
M  END
>  <minimizedAffinity>  (1) 
-5.81833792

>  <minimizedRMSD>  (1) 
2.32361937

$$$$
