
     RDKit          3D

 38 41  0  0  0  0  0  0  0  0999 V2000
   40.6130   30.6130   39.0050 C   0  0  0  0  0  0  0  0  0  0  0  0
   40.8900   31.9400   39.4090 C   0  0  0  0  0  0  0  0  0  0  0  0
   40.0540   32.5310   40.3760 C   0  0  0  0  0  0  0  0  0  0  0  0
   39.0050   31.8060   40.8900 N   0  0  0  0  0  0  0  0  0  0  0  0
   38.7850   30.5380   40.4660 C   0  0  0  0  0  0  0  0  0  0  0  0
   39.5760   29.9490   39.5370 N   0  0  0  0  0  0  0  0  0  0  0  0
   37.6780   29.7580   41.0000 C   0  0  0  0  0  0  0  0  0  0  0  0
   36.3360   29.7750   40.5730 C   0  0  0  0  0  0  0  0  0  0  0  0
   35.6810   28.9100   41.3400 N   0  0  0  0  0  0  0  0  0  0  0  0
   36.4880   28.3220   42.2410 C   0  0  0  0  0  0  0  0  0  0  0  0
   36.2210   27.3830   43.2080 C   0  0  0  0  0  0  0  0  0  0  0  0
   37.2720   26.9460   44.0140 C   0  0  0  0  0  0  0  0  0  0  0  0
   38.5090   27.4470   43.8300 C   0  0  0  0  0  0  0  0  0  0  0  0
   38.7970   28.3940   42.8610 C   0  0  0  0  0  0  0  0  0  0  0  0
   37.7560   28.8360   42.0520 C   0  0  0  0  0  0  0  0  0  0  0  0
   41.9900   32.7470   38.8940 C   0  0  0  0  0  0  0  0  0  0  0  0
   41.7690   33.5000   37.7540 C   0  0  0  0  0  0  0  0  0  0  0  0
   42.8090   34.2430   37.2940 C   0  0  0  0  0  0  0  0  0  0  0  0
   44.0260   34.2380   37.9450 C   0  0  0  0  0  0  0  0  0  0  0  0
   44.2360   33.4870   39.0810 C   0  0  0  0  0  0  0  0  0  0  0  0
   43.1880   32.7270   39.5590 C   0  0  0  0  0  0  0  0  0  0  0  0
   40.2520   33.8210   40.8280 O   0  0  0  0  0  0  0  0  0  0  0  0
   39.4440   34.8630   40.3860 C   0  0  0  0  0  0  0  0  0  0  0  0
   40.2120   35.7220   39.6390 F   0  0  0  0  0  0  0  0  0  0  0  0
   38.8590   35.5390   41.4690 F   0  0  0  0  0  0  0  0  0  0  0  0
   38.4450   34.3050   39.6140 F   0  0  0  0  0  0  0  0  0  0  0  0
   41.2496   30.1244   38.2527 H   0  0  0  0  0  0  0  0  0  0  0  0
   35.9124   30.3857   39.7621 H   0  0  0  0  0  0  0  0  0  0  0  0
   34.6736   28.7130   41.2546 H   0  0  0  0  0  0  0  0  0  0  0  0
   35.2041   26.9860   43.3430 H   0  0  0  0  0  0  0  0  0  0  0  0
   37.0916   26.1949   44.7972 H   0  0  0  0  0  0  0  0  0  0  0  0
   39.3242   27.0892   44.4761 H   0  0  0  0  0  0  0  0  0  0  0  0
   39.8177   28.7843   42.7354 H   0  0  0  0  0  0  0  0  0  0  0  0
   40.7948   33.4970   37.2433 H   0  0  0  0  0  0  0  0  0  0  0  0
   42.6795   34.8569   36.3905 H   0  0  0  0  0  0  0  0  0  0  0  0
   44.8493   34.8492   37.5468 H   0  0  0  0  0  0  0  0  0  0  0  0
   45.2102   33.4931   39.5918 H   0  0  0  0  0  0  0  0  0  0  0  0
   43.3128   32.1126   40.4629 H   0  0  0  0  0  0  0  0  0  0  0  0
  1  2  2  0
  1  6  1  0
  2  3  1  0
  3 22  1  0
  3  4  2  0
  5  4  1  0
  5  7  1  0
  6  5  2  0
  7 15  1  0
  8  7  2  0
  8  9  1  0
  9 10  1  0
 10 11  2  0
 11 12  1  0
 13 12  2  0
 14 13  1  0
 15 10  1  0
 15 14  2  0
 16  2  1  0
 16 21  1  0
 17 16  2  0
 18 17  1  0
 18 19  2  0
 19 20  1  0
 20 21  2  0
 23 22  1  0
 23 25  1  0
 24 23  1  0
 26 23  1  0
  1 27  1  0
  8 28  1  0
  9 29  1  0
 11 30  1  0
 12 31  1  0
 13 32  1  0
 14 33  1  0
 17 34  1  0
 18 35  1  0
 19 36  1  0
 20 37  1  0
 21 38  1  0
M  ISO  8  27  14  28  14  29   9  30  14  31  14  32  14  33  14  34  14
M  ISO  4  35  14  36  14  37  14  38  14
M  END
>  <minimizedAffinity>  (1) 
-5.76868153

>  <minimizedRMSD>  (1) 
1.64104199

$$$$
