
     RDKit          3D

 34 38  0  0  0  0  0  0  0  0999 V2000
   38.0360   30.2160   41.3340 N   0  0  0  0  0  0  0  0  0  0  0  0
   38.1200   29.8190   42.5890 C   0  0  0  0  0  0  0  0  0  0  0  0
   37.7520   28.5610   43.0260 C   0  0  0  0  0  0  0  0  0  0  0  0
   37.2560   27.6250   42.1050 C   0  0  0  0  0  0  0  0  0  0  0  0
   36.9160   26.4880   42.4590 O   0  0  0  0  0  0  0  0  0  0  0  0
   37.1880   28.0820   40.8160 N   0  0  0  0  0  0  0  0  0  0  0  0
   37.5620   29.3170   40.4570 C   0  0  0  0  0  0  0  0  0  0  0  0
   37.4590   29.6420   39.2330 O   0  0  0  0  0  0  0  0  0  0  0  0
   36.6810   27.1100   39.9050 C   0  0  0  0  0  0  0  0  0  0  0  0
   35.9690   27.3490   38.7670 N   0  0  0  0  0  0  0  0  0  0  0  0
   35.5660   26.2980   38.0210 C   0  0  0  0  0  0  0  0  0  0  0  0
   35.8300   25.0190   38.3410 N   0  0  0  0  0  0  0  0  0  0  0  0
   36.5350   24.7250   39.4640 C   0  0  0  0  0  0  0  0  0  0  0  0
   36.8050   23.4150   39.7920 C   0  0  0  0  0  0  0  0  0  0  0  0
   37.5240   23.1540   40.9410 C   0  0  0  0  0  0  0  0  0  0  0  0
   37.9740   24.1720   41.7610 C   0  0  0  0  0  0  0  0  0  0  0  0
   37.6630   25.4560   41.3640 C   0  0  0  0  0  0  0  0  0  0  0  0
   36.9530   25.8100   40.2380 C   0  0  0  0  0  0  0  0  0  0  0  0
   38.4180   31.5100   40.9060 C   0  0  0  0  0  0  0  0  0  0  0  0
   39.7440   32.0180   40.9220 C   0  0  0  0  0  0  0  0  0  0  0  0
   39.9590   33.3180   40.4650 C   0  0  0  0  0  0  0  0  0  0  0  0
   38.9040   34.0350   40.0290 N   0  0  0  0  0  0  0  0  0  0  0  0
   37.6430   33.5350   40.0190 C   0  0  0  0  0  0  0  0  0  0  0  0
   37.4150   32.2890   40.4530 N   0  0  0  0  0  0  0  0  0  0  0  0
   39.1776   29.9346   42.8686 H   0  0  0  0  0  0  0  0  0  0  0  0
   37.3427   30.4400   43.0582 H   0  0  0  0  0  0  0  0  0  0  0  0
   37.8471   28.2946   44.0890 H   0  0  0  0  0  0  0  0  0  0  0  0
   34.9921   26.4986   37.1042 H   0  0  0  0  0  0  0  0  0  0  0  0
   36.4545   22.5927   39.1509 H   0  0  0  0  0  0  0  0  0  0  0  0
   37.7443   22.1106   41.2108 H   0  0  0  0  0  0  0  0  0  0  0  0
   38.5473   23.9697   42.6777 H   0  0  0  0  0  0  0  0  0  0  0  0
   40.5799   31.4021   41.2854 H   0  0  0  0  0  0  0  0  0  0  0  0
   40.9705   33.7502   40.4604 H   0  0  0  0  0  0  0  0  0  0  0  0
   36.8087   34.1525   39.6548 H   0  0  0  0  0  0  0  0  0  0  0  0
  1  2  1  0
  2  3  1  0
  4  5  1  0
  4  3  2  0
  6  4  1  0
  7  6  1  0
  7  1  1  0
  8  7  2  0
  9 18  2  0
  9  6  1  0
 10  9  1  0
 11 12  1  0
 11 10  2  0
 12 13  2  0
 13 14  1  0
 13 18  1  0
 14 15  2  0
 15 16  1  0
 17 16  2  0
 17  5  1  0
 18 17  1  0
 19 20  2  0
 19  1  1  0
 21 20  1  0
 22 21  2  0
 23 22  1  0
 23 24  2  0
 24 19  1  0
  2 25  1  0
  2 26  1  0
  3 27  1  0
 11 28  1  0
 14 29  1  0
 15 30  1  0
 16 31  1  0
 20 32  1  0
 21 33  1  0
 23 34  1  0
M  ISO  8  25  13  26  13  27  13  28  14  29  14  30  14  31  14  32  14
M  ISO  2  33  14  34  14
M  END
>  <minimizedAffinity>  (1) 
-6.21319056

>  <minimizedRMSD>  (1) 
2.00904179

$$$$
