
     RDKit          3D

 32 33  0  0  0  0  0  0  0  0999 V2000
   37.7760   29.1660   41.8030 N   0  0  0  0  0  0  0  0  0  0  0  0
   37.4190   28.8870   43.0490 C   0  0  0  0  0  0  0  0  0  0  0  0
   37.0270   27.6300   43.4640 C   0  0  0  0  0  0  0  0  0  0  0  0
   36.9980   26.5770   42.5370 C   0  0  0  0  0  0  0  0  0  0  0  0
   36.6490   25.4370   42.8870 O   0  0  0  0  0  0  0  0  0  0  0  0
   37.3740   26.9160   41.2650 N   0  0  0  0  0  0  0  0  0  0  0  0
   37.7440   28.1510   40.9180 C   0  0  0  0  0  0  0  0  0  0  0  0
   38.0780   28.3870   39.7310 O   0  0  0  0  0  0  0  0  0  0  0  0
   38.1770   30.4820   41.4040 C   0  0  0  0  0  0  0  0  0  0  0  0
   39.4660   31.0150   41.5890 C   0  0  0  0  0  0  0  0  0  0  0  0
   39.6830   32.3210   41.1360 C   0  0  0  0  0  0  0  0  0  0  0  0
   38.6710   33.0000   40.5550 N   0  0  0  0  0  0  0  0  0  0  0  0
   37.4400   32.4560   40.3920 C   0  0  0  0  0  0  0  0  0  0  0  0
   37.1910   31.2080   40.8120 N   0  0  0  0  0  0  0  0  0  0  0  0
   37.3680   25.8960   40.2570 C   0  0  0  0  0  0  0  0  0  0  0  0
   38.6650   25.6310   39.5900 C   0  0  0  0  0  0  0  0  0  0  0  0
   36.8990   24.5480   40.8100 C   0  0  0  0  0  0  0  0  0  0  0  0
   36.3930   26.3670   39.1680 C   0  0  0  0  0  0  0  0  0  0  0  0
   37.4360   29.6992   43.7906 H   0  0  0  0  0  0  0  0  0  0  0  0
   36.7401   27.4556   44.5115 H   0  0  0  0  0  0  0  0  0  0  0  0
   40.2664   30.4318   42.0678 H   0  0  0  0  0  0  0  0  0  0  0  0
   40.6707   32.7909   41.2524 H   0  0  0  0  0  0  0  0  0  0  0  0
   36.6418   33.0418   39.9127 H   0  0  0  0  0  0  0  0  0  0  0  0
   39.4430   25.4720   40.3512 H   0  0  0  0  0  0  0  0  0  0  0  0
   38.5774   24.7322   38.9619 H   0  0  0  0  0  0  0  0  0  0  0  0
   38.9370   26.4921   38.9619 H   0  0  0  0  0  0  0  0  0  0  0  0
   36.9098   24.5790   41.9095 H   0  0  0  0  0  0  0  0  0  0  0  0
   35.8768   24.3433   40.4590 H   0  0  0  0  0  0  0  0  0  0  0  0
   37.5734   23.7530   40.4590 H   0  0  0  0  0  0  0  0  0  0  0  0
   35.4980   26.7994   39.6392 H   0  0  0  0  0  0  0  0  0  0  0  0
   36.8820   27.1282   38.5424 H   0  0  0  0  0  0  0  0  0  0  0  0
   36.1006   25.5108   38.5424 H   0  0  0  0  0  0  0  0  0  0  0  0
  1  2  1  0
  2  3  2  0
  4  5  2  0
  4  3  1  0
  6  4  1  0
  7  6  1  0
  7  1  1  0
  8  7  2  0
  9 10  2  0
  9  1  1  0
 11 10  1  0
 12 11  2  0
 13 12  1  0
 13 14  2  0
 14  9  1  0
 15 17  1  0
 15  6  1  0
 16 15  1  0
 18 15  1  0
  2 19  1  0
  3 20  1  0
 10 21  1  0
 11 22  1  0
 13 23  1  0
 16 24  1  0
 16 25  1  0
 16 26  1  0
 17 27  1  0
 17 28  1  0
 17 29  1  0
 18 30  1  0
 18 31  1  0
 18 32  1  0
M  ISO  8  19  14  20  14  21  14  22  14  23  14  24   8  25   8  26   8
M  ISO  6  27   8  28   8  29   8  30   8  31   8  32   8
M  END
>  <minimizedAffinity>  (1) 
-4.54386091

>  <minimizedRMSD>  (1) 
0.645055473

$$$$
