
     RDKit          3D

 27 29  0  0  0  0  0  0  0  0999 V2000
   37.7820   29.1810   41.7800 N   0  0  0  0  0  0  0  0  0  0  0  0
   37.4360   28.8740   43.0280 C   0  0  0  0  0  0  0  0  0  0  0  0
   37.0590   27.6000   43.4210 C   0  0  0  0  0  0  0  0  0  0  0  0
   37.0240   26.5630   42.5030 C   0  0  0  0  0  0  0  0  0  0  0  0
   36.6920   25.4050   42.8120 O   0  0  0  0  0  0  0  0  0  0  0  0
   37.3880   26.9250   41.2330 N   0  0  0  0  0  0  0  0  0  0  0  0
   37.7450   28.1700   40.9080 C   0  0  0  0  0  0  0  0  0  0  0  0
   38.0650   28.4040   39.7000 O   0  0  0  0  0  0  0  0  0  0  0  0
   38.1660   30.4820   41.3880 C   0  0  0  0  0  0  0  0  0  0  0  0
   39.4450   31.0440   41.5630 C   0  0  0  0  0  0  0  0  0  0  0  0
   39.6750   32.3400   41.1270 C   0  0  0  0  0  0  0  0  0  0  0  0
   38.6460   33.0170   40.5450 N   0  0  0  0  0  0  0  0  0  0  0  0
   37.4230   32.4640   40.3830 C   0  0  0  0  0  0  0  0  0  0  0  0
   37.1780   31.2080   40.7990 N   0  0  0  0  0  0  0  0  0  0  0  0
   37.3830   25.9180   40.2180 C   0  0  0  0  0  0  0  0  0  0  0  0
   36.4670   25.4360   39.3080 C   0  0  0  0  0  0  0  0  0  0  0  0
   37.1420   24.4360   38.6170 C   0  0  0  0  0  0  0  0  0  0  0  0
   38.4160   24.3630   39.1370 C   0  0  0  0  0  0  0  0  0  0  0  0
   38.4910   25.2600   40.0730 O   0  0  0  0  0  0  0  0  0  0  0  0
   37.4501   29.6717   43.7853 H   0  0  0  0  0  0  0  0  0  0  0  0
   36.7855   27.4105   44.4695 H   0  0  0  0  0  0  0  0  0  0  0  0
   40.2496   30.4638   42.0384 H   0  0  0  0  0  0  0  0  0  0  0  0
   40.6625   32.8092   41.2479 H   0  0  0  0  0  0  0  0  0  0  0  0
   36.6206   33.0464   39.9066 H   0  0  0  0  0  0  0  0  0  0  0  0
   35.4292   25.7694   39.1607 H   0  0  0  0  0  0  0  0  0  0  0  0
   36.7340   23.8169   37.8045 H   0  0  0  0  0  0  0  0  0  0  0  0
   39.2155   23.6770   38.8203 H   0  0  0  0  0  0  0  0  0  0  0  0
  1  2  1  0
  2  3  2  0
  4  5  2  0
  4  3  1  0
  6  4  1  0
  7  6  1  0
  7  1  1  0
  8  7  2  0
  9 10  2  0
  9  1  1  0
 11 10  1  0
 12 11  2  0
 13 12  1  0
 13 14  2  0
 14  9  1  0
 15  6  1  0
 16 15  2  0
 17 18  2  0
 17 16  1  0
 18 19  1  0
 19 15  1  0
  2 20  1  0
  3 21  1  0
 10 22  1  0
 11 23  1  0
 13 24  1  0
 16 25  1  0
 17 26  1  0
 18 27  1  0
M  ISO  8  20  14  21  14  22  14  23  14  24  14  25  14  26  14  27  14
M  END
>  <minimizedAffinity>  (1) 
-4.4963932

>  <minimizedRMSD>  (1) 
0.813105404

$$$$
