
     RDKit          3D

 27 29  0  0  0  0  0  0  0  0999 V2000
   37.6150   28.9020   41.6570 N   0  0  0  0  0  0  0  0  0  0  0  0
   37.2040   28.5420   42.8690 C   0  0  0  0  0  0  0  0  0  0  0  0
   36.9010   27.2440   43.2100 C   0  0  0  0  0  0  0  0  0  0  0  0
   37.0190   26.2270   42.2710 C   0  0  0  0  0  0  0  0  0  0  0  0
   36.7610   25.0300   42.5170 O   0  0  0  0  0  0  0  0  0  0  0  0
   37.4390   26.6470   41.0580 N   0  0  0  0  0  0  0  0  0  0  0  0
   37.7310   27.9270   40.7410 C   0  0  0  0  0  0  0  0  0  0  0  0
   38.1150   28.2140   39.5830 O   0  0  0  0  0  0  0  0  0  0  0  0
   37.9240   30.2510   41.3180 C   0  0  0  0  0  0  0  0  0  0  0  0
   39.1440   30.8970   41.5970 C   0  0  0  0  0  0  0  0  0  0  0  0
   39.2750   32.2320   41.1900 C   0  0  0  0  0  0  0  0  0  0  0  0
   38.2460   32.8340   40.5600 N   0  0  0  0  0  0  0  0  0  0  0  0
   37.0800   32.1910   40.3020 C   0  0  0  0  0  0  0  0  0  0  0  0
   36.9290   30.9180   40.6790 N   0  0  0  0  0  0  0  0  0  0  0  0
   37.5980   25.6530   39.9870 C   0  0  0  0  0  0  0  0  0  0  0  0
   36.8130   25.8790   38.7360 C   0  0  0  0  0  0  0  0  0  0  0  0
   36.4000   24.7850   39.6490 C   0  0  0  0  0  0  0  0  0  0  0  0
   37.1010   29.3215   43.6383 H   0  0  0  0  0  0  0  0  0  0  0  0
   36.5638   27.0105   44.2307 H   0  0  0  0  0  0  0  0  0  0  0  0
   39.9622   30.3743   42.1141 H   0  0  0  0  0  0  0  0  0  0  0  0
   40.2075   32.7827   41.3826 H   0  0  0  0  0  0  0  0  0  0  0  0
   36.2626   32.7149   39.7849 H   0  0  0  0  0  0  0  0  0  0  0  0
   38.6533   25.4635   40.2327 H   0  0  0  0  0  0  0  0  0  0  0  0
   37.2588   25.6371   37.7599 H   0  0  0  0  0  0  0  0  0  0  0  0
   36.3023   26.7469   38.2934 H   0  0  0  0  0  0  0  0  0  0  0  0
   35.4720   24.8755   40.2327 H   0  0  0  0  0  0  0  0  0  0  0  0
   36.2259   23.7042   39.5419 H   0  0  0  0  0  0  0  0  0  0  0  0
  1  2  1  0
  2  3  2  0
  4  5  2  0
  4  3  1  0
  6  4  1  0
  7  6  1  0
  7  1  1  0
  8  7  2  0
  9 10  2  0
  9  1  1  0
 11 10  1  0
 12 11  2  0
 13 12  1  0
 13 14  2  0
 14  9  1  0
 15  6  1  0
 16 17  1  0
 16 15  1  0
 17 15  1  0
  2 18  1  0
  3 19  1  0
 10 20  1  0
 11 21  1  0
 13 22  1  0
 15 23  1  0
 16 24  1  0
 16 25  1  0
 17 26  1  0
 17 27  1  0
M  ISO  8  18  14  19  14  20  14  21  14  22  14  23  13  24  13  25  13
M  ISO  2  26  13  27  13
M  END
>  <minimizedAffinity>  (1) 
-4.35302639

>  <minimizedRMSD>  (1) 
0.380767345

$$$$
