
     RDKit          3D

 29 30  0  0  0  0  0  0  0  0999 V2000
   37.6590   28.8440   41.6840 N   0  0  0  0  0  0  0  0  0  0  0  0
   37.1410   28.4840   42.8550 C   0  0  0  0  0  0  0  0  0  0  0  0
   36.8290   27.1880   43.1860 C   0  0  0  0  0  0  0  0  0  0  0  0
   37.0580   26.1610   42.2550 C   0  0  0  0  0  0  0  0  0  0  0  0
   36.7870   24.9740   42.5200 O   0  0  0  0  0  0  0  0  0  0  0  0
   37.5830   26.5780   41.0830 N   0  0  0  0  0  0  0  0  0  0  0  0
   37.8710   27.8560   40.8070 C   0  0  0  0  0  0  0  0  0  0  0  0
   38.3600   28.1410   39.6780 O   0  0  0  0  0  0  0  0  0  0  0  0
   37.9760   30.1920   41.3590 C   0  0  0  0  0  0  0  0  0  0  0  0
   39.1990   30.8320   41.6590 C   0  0  0  0  0  0  0  0  0  0  0  0
   39.3680   32.1550   41.2810 C   0  0  0  0  0  0  0  0  0  0  0  0
   38.3560   32.7710   40.6410 N   0  0  0  0  0  0  0  0  0  0  0  0
   37.1870   32.1480   40.3590 C   0  0  0  0  0  0  0  0  0  0  0  0
   36.9990   30.8680   40.7150 N   0  0  0  0  0  0  0  0  0  0  0  0
   37.8410   25.5590   40.0820 C   0  0  0  0  0  0  0  0  0  0  0  0
   38.8980   24.5660   40.5390 C   0  0  0  0  0  0  0  0  0  0  0  0
   36.5890   24.8000   39.6920 C   0  0  0  0  0  0  0  0  0  0  0  0
   36.9516   29.2695   43.6014 H   0  0  0  0  0  0  0  0  0  0  0  0
   36.4028   26.9558   44.1731 H   0  0  0  0  0  0  0  0  0  0  0  0
   40.0014   30.2913   42.1822 H   0  0  0  0  0  0  0  0  0  0  0  0
   40.3053   32.6882   41.4984 H   0  0  0  0  0  0  0  0  0  0  0  0
   36.3880   32.6938   39.8358 H   0  0  0  0  0  0  0  0  0  0  0  0
   38.2125   26.1025   39.2008 H   0  0  0  0  0  0  0  0  0  0  0  0
   38.9257   24.5400   41.6383 H   0  0  0  0  0  0  0  0  0  0  0  0
   38.6515   23.5652   40.1546 H   0  0  0  0  0  0  0  0  0  0  0  0
   39.8814   24.8744   40.1546 H   0  0  0  0  0  0  0  0  0  0  0  0
   36.0577   24.4779   40.5998 H   0  0  0  0  0  0  0  0  0  0  0  0
   35.9345   25.4535   39.0965 H   0  0  0  0  0  0  0  0  0  0  0  0
   36.8658   23.9175   39.0965 H   0  0  0  0  0  0  0  0  0  0  0  0
  1  2  1  0
  2  3  2  0
  4  5  2  0
  4  3  1  0
  6  4  1  0
  7  6  1  0
  7  1  1  0
  8  7  2  0
  9 10  2  0
  9  1  1  0
 11 10  1  0
 12 11  2  0
 13 12  1  0
 13 14  2  0
 14  9  1  0
 15 16  1  0
 15  6  1  0
 17 15  1  0
  2 18  1  0
  3 19  1  0
 10 20  1  0
 11 21  1  0
 13 22  1  0
 15 23  1  0
 16 24  1  0
 16 25  1  0
 16 26  1  0
 17 27  1  0
 17 28  1  0
 17 29  1  0
M  ISO  8  18  14  19  14  20  14  21  14  22  14  23   8  24   8  25   8
M  ISO  4  26   8  27   8  28   8  29   8
M  END
>  <minimizedAffinity>  (1) 
-4.3393302

>  <minimizedRMSD>  (1) 
0.123274051

$$$$
