
     RDKit          3D

 29 30  0  0  1  0  0  0  0  0999 V2000
   36.7890   28.7520   41.8710 C   0  0  1  0  0  0  0  0  0  0  0  0
   36.5650   27.8340   40.6650 C   0  0  0  0  0  0  0  0  0  0  0  0
   37.0460   26.4900   41.0980 C   0  0  0  0  0  0  0  0  0  0  0  0
   36.9910   26.5800   42.6290 C   0  0  0  0  0  0  0  0  0  0  0  0
   37.6330   27.9400   42.8170 C   0  0  2  0  0  0  0  0  0  0  0  0
   39.1970   31.6140   41.2820 C   0  0  0  0  0  0  0  0  0  0  0  0
   38.7610   30.3570   41.7320 C   0  0  0  0  0  0  0  0  0  0  0  0
   37.3990   30.0350   41.4780 C   0  0  0  0  0  0  0  0  0  0  0  0
   36.5930   30.9190   40.8350 N   0  0  0  0  0  0  0  0  0  0  0  0
   37.0760   32.1230   40.4230 C   0  0  0  0  0  0  0  0  0  0  0  0
   38.3630   32.4610   40.6470 N   0  0  0  0  0  0  0  0  0  0  0  0
   37.4570   28.4090   44.2390 C   0  0  0  0  0  0  0  0  0  0  0  0
   36.2050   27.9110   44.8880 C   0  0  0  0  0  0  0  0  0  0  0  0
   35.8487   29.0564   42.3540 H   0  0  0  0  0  0  0  0  0  0  0  0
   37.1421   28.1888   39.7983 H   0  0  0  0  0  0  0  0  0  0  0  0
   35.5092   27.8119   40.3572 H   0  0  0  0  0  0  0  0  0  0  0  0
   36.3845   25.6943   40.7248 H   0  0  0  0  0  0  0  0  0  0  0  0
   38.0469   26.2436   40.7141 H   0  0  0  0  0  0  0  0  0  0  0  0
   35.9577   26.5574   43.0055 H   0  0  0  0  0  0  0  0  0  0  0  0
   37.4766   25.7522   43.1666 H   0  0  0  0  0  0  0  0  0  0  0  0
   38.7159   27.9861   42.6293 H   0  0  0  0  0  0  0  0  0  0  0  0
   40.2418   31.9136   41.4515 H   0  0  0  0  0  0  0  0  0  0  0  0
   39.4352   29.6604   42.2519 H   0  0  0  0  0  0  0  0  0  0  0  0
   36.4106   32.8274   39.9023 H   0  0  0  0  0  0  0  0  0  0  0  0
   38.3166   28.0582   44.8289 H   0  0  0  0  0  0  0  0  0  0  0  0
   37.3874   29.5064   44.2082 H   0  0  0  0  0  0  0  0  0  0  0  0
   36.3162   27.9552   45.9815 H   0  0  0  0  0  0  0  0  0  0  0  0
   35.3570   28.5403   44.5799 H   0  0  0  0  0  0  0  0  0  0  0  0
   36.0209   26.8712   44.5799 H   0  0  0  0  0  0  0  0  0  0  0  0
  1  5  1  0
  2  3  1  0
  2  1  1  0
  3  4  1  0
  4  5  1  0
  5 12  1  0
  6  7  2  0
  8  7  1  0
  8  1  1  0
  9  8  2  0
 10 11  2  0
 10  9  1  0
 11  6  1  0
 12 13  1  0
  1 14  1  1
  2 15  1  0
  2 16  1  0
  3 17  1  0
  3 18  1  0
  4 19  1  0
  4 20  1  0
  5 21  1  6
  6 22  1  0
  7 23  1  0
 10 24  1  0
 12 25  1  0
 12 26  1  0
 13 27  1  0
 13 28  1  0
 13 29  1  0
M  ISO  8  14  13  15  13  16  13  17  13  18  13  19  13  20  13  21  13
M  ISO  8  22  14  23  14  24  14  25   8  26   8  27   8  28   8  29   8
M  END
>  <minimizedAffinity>  (1) 
-4.38973427

>  <minimizedRMSD>  (1) 
1.28544295

$$$$
