
     RDKit          3D

 33 35  0  0  0  0  0  0  0  0999 V2000
   37.6450   28.8420   41.7900 N   0  0  0  0  0  0  0  0  0  0  0  0
   37.0720   28.5190   42.9460 C   0  0  0  0  0  0  0  0  0  0  0  0
   36.7420   27.2250   43.2910 C   0  0  0  0  0  0  0  0  0  0  0  0
   37.0070   26.1760   42.4140 C   0  0  0  0  0  0  0  0  0  0  0  0
   36.7130   25.0040   42.7150 O   0  0  0  0  0  0  0  0  0  0  0  0
   37.5900   26.5460   41.2500 N   0  0  0  0  0  0  0  0  0  0  0  0
   37.8930   27.8160   40.9540 C   0  0  0  0  0  0  0  0  0  0  0  0
   38.4360   28.0600   39.8390 O   0  0  0  0  0  0  0  0  0  0  0  0
   37.9830   30.1670   41.4350 C   0  0  0  0  0  0  0  0  0  0  0  0
   39.2290   30.7870   41.7380 C   0  0  0  0  0  0  0  0  0  0  0  0
   39.3990   32.1110   41.3110 C   0  0  0  0  0  0  0  0  0  0  0  0
   38.3910   32.7190   40.6460 N   0  0  0  0  0  0  0  0  0  0  0  0
   37.2190   32.1130   40.3700 C   0  0  0  0  0  0  0  0  0  0  0  0
   37.0430   30.8500   40.7710 N   0  0  0  0  0  0  0  0  0  0  0  0
   37.9000   25.5090   40.2800 C   0  0  0  0  0  0  0  0  0  0  0  0
   36.7630   24.6020   39.9540 C   0  0  0  0  0  0  0  0  0  0  0  0
   37.4890   23.3880   39.3580 C   0  0  0  0  0  0  0  0  0  0  0  0
   38.5490   23.1650   40.3870 C   0  0  0  0  0  0  0  0  0  0  0  0
   38.9710   24.5560   40.8000 C   0  0  0  0  0  0  0  0  0  0  0  0
   36.8503   29.3237   43.6624 H   0  0  0  0  0  0  0  0  0  0  0  0
   36.2678   27.0208   44.2623 H   0  0  0  0  0  0  0  0  0  0  0  0
   40.0211   30.2515   42.2819 H   0  0  0  0  0  0  0  0  0  0  0  0
   40.3379   32.6471   41.5137 H   0  0  0  0  0  0  0  0  0  0  0  0
   36.4248   32.6461   39.8267 H   0  0  0  0  0  0  0  0  0  0  0  0
   38.2060   26.0900   39.3975 H   0  0  0  0  0  0  0  0  0  0  0  0
   36.1985   24.3271   40.8572 H   0  0  0  0  0  0  0  0  0  0  0  0
   36.0164   25.0486   39.2808 H   0  0  0  0  0  0  0  0  0  0  0  0
   36.8203   22.5190   39.2703 H   0  0  0  0  0  0  0  0  0  0  0  0
   37.8692   23.5399   38.3370 H   0  0  0  0  0  0  0  0  0  0  0  0
   38.1462   22.6092   41.2466 H   0  0  0  0  0  0  0  0  0  0  0  0
   39.3893   22.5694   40.0008 H   0  0  0  0  0  0  0  0  0  0  0  0
   39.9469   24.8037   40.3570 H   0  0  0  0  0  0  0  0  0  0  0  0
   39.0724   24.6316   41.8927 H   0  0  0  0  0  0  0  0  0  0  0  0
  1  2  1  0
  2  3  2  0
  4  5  2  0
  4  3  1  0
  6  4  1  0
  7  6  1  0
  7  1  1  0
  8  7  2  0
  9 10  2  0
  9  1  1  0
 11 10  1  0
 12 11  2  0
 13 12  1  0
 13 14  2  0
 14  9  1  0
 15 19  1  0
 15  6  1  0
 16 15  1  0
 17 16  1  0
 17 18  1  0
 18 19  1  0
  2 20  1  0
  3 21  1  0
 10 22  1  0
 11 23  1  0
 13 24  1  0
 15 25  1  0
 16 26  1  0
 16 27  1  0
 17 28  1  0
 17 29  1  0
 18 30  1  0
 18 31  1  0
 19 32  1  0
 19 33  1  0
M  ISO  8  20  14  21  14  22  14  23  14  24  14  25  13  26  13  27  13
M  ISO  6  28  13  29  13  30  13  31  13  32  13  33  13
M  END
>  <minimizedAffinity>  (1) 
-4.73939514

>  <minimizedRMSD>  (1) 
0.292888224

$$$$
