
     RDKit          3D

 26 27  0  0  1  0  0  0  0  0999 V2000
   36.9190   28.4420   42.2540 C   0  0  1  0  0  0  0  0  0  0  0  0
   37.0070   27.4840   41.0610 C   0  0  0  0  0  0  0  0  0  0  0  0
   37.2130   26.1310   41.6610 C   0  0  0  0  0  0  0  0  0  0  0  0
   36.6490   26.3010   43.0660 C   0  0  0  0  0  0  0  0  0  0  0  0
   37.3410   27.6130   43.4400 C   0  0  2  0  0  0  0  0  0  0  0  0
   39.7160   31.0210   42.3900 C   0  0  0  0  0  0  0  0  0  0  0  0
   38.9750   29.8680   42.6560 C   0  0  0  0  0  0  0  0  0  0  0  0
   37.7400   29.6310   42.0360 C   0  0  0  0  0  0  0  0  0  0  0  0
   37.3170   30.5770   41.1770 N   0  0  0  0  0  0  0  0  0  0  0  0
   38.0170   31.6900   40.9100 C   0  0  0  0  0  0  0  0  0  0  0  0
   39.2070   31.9160   41.5080 N   0  0  0  0  0  0  0  0  0  0  0  0
   36.7830   28.1590   44.7360 C   0  0  0  0  0  0  0  0  0  0  0  0
   35.9089   28.8479   42.4121 H   0  0  0  0  0  0  0  0  0  0  0  0
   37.8543   27.7518   40.4127 H   0  0  0  0  0  0  0  0  0  0  0  0
   36.1039   27.5232   40.4341 H   0  0  0  0  0  0  0  0  0  0  0  0
   36.6613   25.3607   41.1022 H   0  0  0  0  0  0  0  0  0  0  0  0
   38.2625   25.8018   41.6478 H   0  0  0  0  0  0  0  0  0  0  0  0
   35.5533   26.3983   43.0624 H   0  0  0  0  0  0  0  0  0  0  0  0
   36.8239   25.4596   43.7527 H   0  0  0  0  0  0  0  0  0  0  0  0
   38.4262   27.5606   43.6122 H   0  0  0  0  0  0  0  0  0  0  0  0
   40.6841   31.1980   42.8815 H   0  0  0  0  0  0  0  0  0  0  0  0
   39.3692   29.1284   43.3685 H   0  0  0  0  0  0  0  0  0  0  0  0
   37.6178   32.4261   40.1967 H   0  0  0  0  0  0  0  0  0  0  0  0
   37.2827   27.6700   45.5852 H   0  0  0  0  0  0  0  0  0  0  0  0
   36.9584   29.2439   44.7825 H   0  0  0  0  0  0  0  0  0  0  0  0
   35.7021   27.9600   44.7825 H   0  0  0  0  0  0  0  0  0  0  0  0
  1  5  1  0
  2  3  1  0
  2  1  1  0
  3  4  1  0
  4  5  1  0
  5 12  1  0
  6  7  2  0
  8  1  1  0
  8  7  1  0
  9  8  2  0
 10  9  1  0
 10 11  2  0
 11  6  1  0
  1 13  1  1
  2 14  1  0
  2 15  1  0
  3 16  1  0
  3 17  1  0
  4 18  1  0
  4 19  1  0
  5 20  1  1
  6 21  1  0
  7 22  1  0
 10 23  1  0
 12 24  1  0
 12 25  1  0
 12 26  1  0
M  ISO  8  13  13  14  13  15  13  16  13  17  13  18  13  19  13  20  13
M  ISO  6  21  14  22  14  23  14  24   8  25   8  26   8
M  END
>  <minimizedAffinity>  (1) 
-4.25031614

>  <minimizedRMSD>  (1) 
0.773835361

$$$$
