
     RDKit          3D

 49 53  0  0  1  0  0  0  0  0999 V2000
   37.8780   25.5370   40.4470 C   0  0  2  0  0  0  0  0  0  0  0  0
   36.7730   24.6460   40.0910 C   0  0  0  0  0  0  0  0  0  0  0  0
   37.4880   23.4000   39.5810 C   0  0  0  0  0  0  0  0  0  0  0  0
   38.5350   23.2120   40.6090 C   0  0  0  0  0  0  0  0  0  0  0  0
   38.9570   24.6250   41.0050 C   0  0  1  0  0  0  0  0  0  0  0  0
   37.5930   28.9200   41.8620 N   0  0  0  0  0  0  0  0  0  0  0  0
   36.9820   28.6290   42.9970 C   0  0  0  0  0  0  0  0  0  0  0  0
   36.6340   27.3460   43.3670 C   0  0  0  0  0  0  0  0  0  0  0  0
   36.9280   26.2770   42.5160 C   0  0  0  0  0  0  0  0  0  0  0  0
   36.6190   25.1150   42.8370 O   0  0  0  0  0  0  0  0  0  0  0  0
   37.5560   26.6160   41.3560 N   0  0  0  0  0  0  0  0  0  0  0  0
   37.8610   27.8760   41.0690 C   0  0  0  0  0  0  0  0  0  0  0  0
   38.4490   28.0880   39.9600 O   0  0  0  0  0  0  0  0  0  0  0  0
   37.9510   30.2350   41.4800 C   0  0  0  0  0  0  0  0  0  0  0  0
   39.2140   30.8310   41.7950 C   0  0  0  0  0  0  0  0  0  0  0  0
   39.4250   32.1420   41.3500 C   0  0  0  0  0  0  0  0  0  0  0  0
   38.4400   32.7580   40.6610 N   0  0  0  0  0  0  0  0  0  0  0  0
   37.2670   32.1780   40.3810 C   0  0  0  0  0  0  0  0  0  0  0  0
   37.0460   30.9240   40.7970 N   0  0  0  0  0  0  0  0  0  0  0  0
   40.2950   24.8630   40.4900 C   0  0  0  0  0  0  0  0  0  0  0  0
   40.5900   24.8150   39.1220 C   0  0  0  0  0  0  0  0  0  0  0  0
   41.8280   25.0310   38.5660 C   0  0  0  0  0  0  0  0  0  0  0  0
   42.8910   25.3200   39.3920 C   0  0  0  0  0  0  0  0  0  0  0  0
   42.6910   25.3870   40.7540 C   0  0  0  0  0  0  0  0  0  0  0  0
   43.7550   25.6760   41.5660 C   0  0  0  0  0  0  0  0  0  0  0  0
   43.6090   25.7530   42.9210 C   0  0  0  0  0  0  0  0  0  0  0  0
   42.3360   25.5280   43.4570 C   0  0  0  0  0  0  0  0  0  0  0  0
   41.3010   25.2430   42.5960 C   0  0  0  0  0  0  0  0  0  0  0  0
   41.4180   25.1580   41.2330 C   0  0  0  0  0  0  0  0  0  0  0  0
   38.1964   26.0894   39.5507 H   0  0  0  0  0  0  0  0  0  0  0  0
   36.1531   24.4143   40.9697 H   0  0  0  0  0  0  0  0  0  0  0  0
   36.0841   25.0831   39.3532 H   0  0  0  0  0  0  0  0  0  0  0  0
   36.8078   22.5365   39.5390 H   0  0  0  0  0  0  0  0  0  0  0  0
   37.8798   23.4978   38.5578 H   0  0  0  0  0  0  0  0  0  0  0  0
   38.1314   22.6711   41.4777 H   0  0  0  0  0  0  0  0  0  0  0  0
   39.3811   22.6176   40.2337 H   0  0  0  0  0  0  0  0  0  0  0  0
   39.0299   24.8030   42.0881 H   0  0  0  0  0  0  0  0  0  0  0  0
   36.7378   29.4533   43.6833 H   0  0  0  0  0  0  0  0  0  0  0  0
   36.1278   27.1655   44.3268 H   0  0  0  0  0  0  0  0  0  0  0  0
   39.9831   30.2845   42.3604 H   0  0  0  0  0  0  0  0  0  0  0  0
   40.3733   32.6594   41.5573 H   0  0  0  0  0  0  0  0  0  0  0  0
   36.4955   32.7231   39.8174 H   0  0  0  0  0  0  0  0  0  0  0  0
   39.7619   24.5853   38.4353 H   0  0  0  0  0  0  0  0  0  0  0  0
   41.9678   24.9738   37.4764 H   0  0  0  0  0  0  0  0  0  0  0  0
   43.8909   25.4958   38.9686 H   0  0  0  0  0  0  0  0  0  0  0  0
   44.7448   25.8492   41.1185 H   0  0  0  0  0  0  0  0  0  0  0  0
   44.4653   25.9847   43.5714 H   0  0  0  0  0  0  0  0  0  0  0  0
   42.1664   25.5779   44.5427 H   0  0  0  0  0  0  0  0  0  0  0  0
   40.3067   25.0707   43.0338 H   0  0  0  0  0  0  0  0  0  0  0  0
  1  5  1  0
  1 11  1  0
  2  1  1  0
  3  2  1  0
  3  4  1  0
  4  5  1  0
  6  7  1  0
  7  8  2  0
  9 10  2  0
  9  8  1  0
 11  9  1  0
 12 11  1  0
 12  6  1  0
 13 12  2  0
 14 15  2  0
 14  6  1  0
 16 15  1  0
 17 16  2  0
 18 17  1  0
 18 19  2  0
 19 14  1  0
 20  5  1  0
 20 29  1  0
 21 20  2  0
 22 21  1  0
 22 23  2  0
 23 24  1  0
 24 29  2  0
 24 25  1  0
 25 26  2  0
 26 27  1  0
 28 27  2  0
 29 28  1  0
  1 30  1  6
  2 31  1  0
  2 32  1  0
  3 33  1  0
  3 34  1  0
  4 35  1  0
  4 36  1  0
  5 37  1  1
  7 38  1  0
  8 39  1  0
 15 40  1  0
 16 41  1  0
 18 42  1  0
 21 43  1  0
 22 44  1  0
 23 45  1  0
 25 46  1  0
 26 47  1  0
 27 48  1  0
 28 49  1  0
M  ISO  8  30  13  31  13  32  13  33  13  34  13  35  13  36  13  37  13
M  ISO  8  38  14  39  14  40  14  41  14  42  14  43  14  44  14  45  14
M  ISO  4  46  14  47  14  48  14  49  14
M  END
>  <minimizedAffinity>  (1) 
-6.10152864

>  <minimizedRMSD>  (1) 
0.379251957

$$$$
