
     RDKit          3D

 47 51  0  0  1  0  0  0  0  0999 V2000
   37.7730   25.6210   40.5040 C   0  0  2  0  0  0  0  0  0  0  0  0
   36.6190   24.8390   40.0800 C   0  0  0  0  0  0  0  0  0  0  0  0
   37.2520   23.5280   39.5990 C   0  0  0  0  0  0  0  0  0  0  0  0
   38.2360   23.2510   40.6870 C   0  0  0  0  0  0  0  0  0  0  0  0
   38.7430   24.5990   41.0940 C   0  0  1  0  0  0  0  0  0  0  0  0
   37.6640   29.0170   41.8950 N   0  0  0  0  0  0  0  0  0  0  0  0
   37.0810   28.7590   43.0620 C   0  0  0  0  0  0  0  0  0  0  0  0
   36.7000   27.4900   43.4470 C   0  0  0  0  0  0  0  0  0  0  0  0
   36.9240   26.4050   42.5960 C   0  0  0  0  0  0  0  0  0  0  0  0
   36.5840   25.2560   42.9340 O   0  0  0  0  0  0  0  0  0  0  0  0
   37.5170   26.7080   41.4250 N   0  0  0  0  0  0  0  0  0  0  0  0
   37.8700   27.9620   41.0950 C   0  0  0  0  0  0  0  0  0  0  0  0
   38.4210   28.1410   39.9710 O   0  0  0  0  0  0  0  0  0  0  0  0
   38.0590   30.3190   41.4930 C   0  0  0  0  0  0  0  0  0  0  0  0
   39.3370   30.8790   41.7430 C   0  0  0  0  0  0  0  0  0  0  0  0
   39.5690   32.1830   41.2800 C   0  0  0  0  0  0  0  0  0  0  0  0
   38.5730   32.8240   40.6290 N   0  0  0  0  0  0  0  0  0  0  0  0
   37.3730   32.2740   40.4040 C   0  0  0  0  0  0  0  0  0  0  0  0
   37.1320   31.0310   40.8390 N   0  0  0  0  0  0  0  0  0  0  0  0
   40.1330   24.8700   40.7000 C   0  0  0  0  0  0  0  0  0  0  0  0
   40.6510   24.8940   39.4040 C   0  0  0  0  0  0  0  0  0  0  0  0
   41.9710   25.1820   39.4850 N   0  0  0  0  0  0  0  0  0  0  0  0
   42.3260   25.3440   40.7700 C   0  0  0  0  0  0  0  0  0  0  0  0
   43.5230   25.6430   41.3890 C   0  0  0  0  0  0  0  0  0  0  0  0
   43.5930   25.7510   42.7780 C   0  0  0  0  0  0  0  0  0  0  0  0
   42.4750   25.5650   43.5710 C   0  0  0  0  0  0  0  0  0  0  0  0
   41.2870   25.2680   42.9270 C   0  0  0  0  0  0  0  0  0  0  0  0
   41.1860   25.1540   41.5500 C   0  0  0  0  0  0  0  0  0  0  0  0
   38.1706   26.1625   39.6330 H   0  0  0  0  0  0  0  0  0  0  0  0
   35.9310   24.6616   40.9197 H   0  0  0  0  0  0  0  0  0  0  0  0
   36.0153   25.3388   39.3082 H   0  0  0  0  0  0  0  0  0  0  0  0
   36.5033   22.7258   39.5215 H   0  0  0  0  0  0  0  0  0  0  0  0
   37.7001   23.5896   38.5963 H   0  0  0  0  0  0  0  0  0  0  0  0
   37.7461   22.7489   41.5343 H   0  0  0  0  0  0  0  0  0  0  0  0
   39.0460   22.5847   40.3554 H   0  0  0  0  0  0  0  0  0  0  0  0
   38.7764   24.6551   42.1921 H   0  0  0  0  0  0  0  0  0  0  0  0
   36.8940   29.5953   43.7517 H   0  0  0  0  0  0  0  0  0  0  0  0
   36.2198   27.3326   44.4241 H   0  0  0  0  0  0  0  0  0  0  0  0
   40.1149   30.3144   42.2780 H   0  0  0  0  0  0  0  0  0  0  0  0
   40.5403   32.6729   41.4433 H   0  0  0  0  0  0  0  0  0  0  0  0
   36.5945   32.8368   39.8681 H   0  0  0  0  0  0  0  0  0  0  0  0
   40.0853   24.7109   38.4786 H   0  0  0  0  0  0  0  0  0  0  0  0
   42.6087   25.2647   38.6804 H   0  0  0  0  0  0  0  0  0  0  0  0
   44.4279   25.7972   40.7828 H   0  0  0  0  0  0  0  0  0  0  0  0
   44.5566   25.9889   43.2522 H   0  0  0  0  0  0  0  0  0  0  0  0
   42.5282   25.6496   44.6665 H   0  0  0  0  0  0  0  0  0  0  0  0
   40.3830   25.1157   43.5350 H   0  0  0  0  0  0  0  0  0  0  0  0
  1  5  1  0
  1 11  1  0
  2  1  1  0
  3  2  1  0
  3  4  1  0
  4  5  1  0
  6  7  1  0
  7  8  2  0
  9 10  2  0
  9  8  1  0
 11  9  1  0
 12 11  1  0
 12  6  1  0
 13 12  2  0
 14 15  2  0
 14  6  1  0
 16 15  1  0
 17 16  2  0
 18 17  1  0
 18 19  2  0
 19 14  1  0
 20  5  1  0
 20 28  1  0
 21 22  1  0
 21 20  2  0
 22 23  1  0
 23 24  1  0
 23 28  2  0
 24 25  2  0
 25 26  1  0
 27 26  2  0
 28 27  1  0
  1 29  1  6
  2 30  1  0
  2 31  1  0
  3 32  1  0
  3 33  1  0
  4 34  1  0
  4 35  1  0
  5 36  1  1
  7 37  1  0
  8 38  1  0
 15 39  1  0
 16 40  1  0
 18 41  1  0
 21 42  1  0
 22 43  1  0
 24 44  1  0
 25 45  1  0
 26 46  1  0
 27 47  1  0
M  ISO  8  29  13  30  13  31  13  32  13  33  13  34  13  35  13  36  13
M  ISO  8  37  14  38  14  39  14  40  14  41  14  42  14  43   9  44  14
M  ISO  3  45  14  46  14  47  14
M  END
>  <minimizedAffinity>  (1) 
-5.96240234

>  <minimizedRMSD>  (1) 
0.520739019

$$$$
