
     RDKit          3D

 47 51  0  0  1  0  0  0  0  0999 V2000
   37.6130   25.5780   40.3250 C   0  0  2  0  0  0  0  0  0  0  0  0
   36.5950   24.4930   40.3360 C   0  0  0  0  0  0  0  0  0  0  0  0
   37.3280   23.3510   39.6280 C   0  0  0  0  0  0  0  0  0  0  0  0
   38.6440   23.4000   40.2990 C   0  0  0  0  0  0  0  0  0  0  0  0
   38.9270   24.9070   40.4060 C   0  0  2  0  0  0  0  0  0  0  0  0
   39.9120   25.2170   41.4210 C   0  0  0  0  0  0  0  0  0  0  0  0
   39.9420   24.7710   42.6960 N   0  0  0  0  0  0  0  0  0  0  0  0
   40.9230   25.1060   43.5370 C   0  0  0  0  0  0  0  0  0  0  0  0
   41.9660   25.9160   43.1890 N   0  0  0  0  0  0  0  0  0  0  0  0
   42.0130   26.4110   41.9160 C   0  0  0  0  0  0  0  0  0  0  0  0
   43.0870   27.2150   41.6210 C   0  0  0  0  0  0  0  0  0  0  0  0
   43.1440   27.7120   40.3360 C   0  0  0  0  0  0  0  0  0  0  0  0
   42.1580   27.3990   39.4220 C   0  0  0  0  0  0  0  0  0  0  0  0
   41.1180   26.5820   39.8140 C   0  0  0  0  0  0  0  0  0  0  0  0
   40.9810   26.0430   41.0740 C   0  0  0  0  0  0  0  0  0  0  0  0
   37.5190   28.9440   41.7770 N   0  0  0  0  0  0  0  0  0  0  0  0
   37.0340   28.6370   42.9690 C   0  0  0  0  0  0  0  0  0  0  0  0
   36.7080   27.3450   43.3490 C   0  0  0  0  0  0  0  0  0  0  0  0
   36.8860   26.2930   42.4540 C   0  0  0  0  0  0  0  0  0  0  0  0
   36.5890   25.1430   42.7960 O   0  0  0  0  0  0  0  0  0  0  0  0
   37.3800   26.6440   41.2600 N   0  0  0  0  0  0  0  0  0  0  0  0
   37.6780   27.9140   40.9450 C   0  0  0  0  0  0  0  0  0  0  0  0
   38.1370   28.1370   39.7790 O   0  0  0  0  0  0  0  0  0  0  0  0
   37.8550   30.2620   41.3810 C   0  0  0  0  0  0  0  0  0  0  0  0
   39.1160   30.8870   41.6580 C   0  0  0  0  0  0  0  0  0  0  0  0
   39.2770   32.1990   41.1920 C   0  0  0  0  0  0  0  0  0  0  0  0
   38.2520   32.7890   40.5200 N   0  0  0  0  0  0  0  0  0  0  0  0
   37.0860   32.1730   40.2790 C   0  0  0  0  0  0  0  0  0  0  0  0
   36.9020   30.9200   40.7110 N   0  0  0  0  0  0  0  0  0  0  0  0
   37.5568   26.1564   39.3910 H   0  0  0  0  0  0  0  0  0  0  0  0
   36.3214   24.2139   41.3642 H   0  0  0  0  0  0  0  0  0  0  0  0
   35.6469   24.7736   39.8541 H   0  0  0  0  0  0  0  0  0  0  0  0
   37.4184   23.5376   38.5477 H   0  0  0  0  0  0  0  0  0  0  0  0
   36.8213   22.3770   39.6952 H   0  0  0  0  0  0  0  0  0  0  0  0
   38.5965   22.9358   41.2951 H   0  0  0  0  0  0  0  0  0  0  0  0
   39.4268   22.8514   39.7546 H   0  0  0  0  0  0  0  0  0  0  0  0
   39.4926   25.3563   39.5764 H   0  0  0  0  0  0  0  0  0  0  0  0
   40.8896   24.7095   44.5625 H   0  0  0  0  0  0  0  0  0  0  0  0
   43.8590   27.4495   42.3686 H   0  0  0  0  0  0  0  0  0  0  0  0
   43.9800   28.3616   40.0375 H   0  0  0  0  0  0  0  0  0  0  0  0
   42.2010   27.7951   38.3967 H   0  0  0  0  0  0  0  0  0  0  0  0
   40.3446   26.3446   39.0687 H   0  0  0  0  0  0  0  0  0  0  0  0
   36.8818   29.4488   43.6955 H   0  0  0  0  0  0  0  0  0  0  0  0
   36.3094   27.1506   44.3556 H   0  0  0  0  0  0  0  0  0  0  0  0
   39.9137   30.3647   42.2066 H   0  0  0  0  0  0  0  0  0  0  0  0
   40.2171   32.7428   41.3669 H   0  0  0  0  0  0  0  0  0  0  0  0
   36.2870   32.6934   39.7306 H   0  0  0  0  0  0  0  0  0  0  0  0
  1  2  1  0
  1  5  1  0
  1 21  1  0
  3  4  1  0
  3  2  1  0
  4  5  1  0
  5  6  1  0
  6  7  2  0
  7  8  1  0
  9  8  2  0
 10  9  1  0
 11 10  2  0
 12 11  1  0
 13 14  1  0
 13 12  2  0
 14 15  2  0
 15  6  1  0
 15 10  1  0
 16 17  1  0
 17 18  2  0
 19 20  2  0
 19 18  1  0
 21 19  1  0
 22 21  1  0
 22 16  1  0
 23 22  2  0
 24 25  2  0
 24 16  1  0
 26 25  1  0
 27 26  2  0
 28 27  1  0
 28 29  2  0
 29 24  1  0
  1 30  1  6
  2 31  1  0
  2 32  1  0
  3 33  1  0
  3 34  1  0
  4 35  1  0
  4 36  1  0
  5 37  1  6
  8 38  1  0
 11 39  1  0
 12 40  1  0
 13 41  1  0
 14 42  1  0
 17 43  1  0
 18 44  1  0
 25 45  1  0
 26 46  1  0
 28 47  1  0
M  ISO  8  30  13  31  13  32  13  33  13  34  13  35  13  36  13  37  13
M  ISO  8  38  14  39  14  40  14  41  14  42  14  43  14  44  14  45  14
M  ISO  2  46  14  47  14
M  END
>  <minimizedAffinity>  (1) 
-5.65008926

>  <minimizedRMSD>  (1) 
1.40871131

$$$$
