
     RDKit          3D

 43 46  0  0  1  0  0  0  0  0999 V2000
   37.6160   25.5570   40.3520 C   0  0  2  0  0  0  0  0  0  0  0  0
   36.4370   24.8250   39.9020 C   0  0  0  0  0  0  0  0  0  0  0  0
   37.0290   23.5160   39.3660 C   0  0  0  0  0  0  0  0  0  0  0  0
   37.9980   23.1600   40.4290 C   0  0  0  0  0  0  0  0  0  0  0  0
   38.5460   24.4810   40.8990 C   0  0  1  0  0  0  0  0  0  0  0  0
   37.5430   28.9180   41.8340 N   0  0  0  0  0  0  0  0  0  0  0  0
   37.0150   28.6140   43.0160 C   0  0  0  0  0  0  0  0  0  0  0  0
   36.6620   27.3290   43.3880 C   0  0  0  0  0  0  0  0  0  0  0  0
   36.8540   26.2680   42.5030 C   0  0  0  0  0  0  0  0  0  0  0  0
   36.5430   25.1170   42.8210 O   0  0  0  0  0  0  0  0  0  0  0  0
   37.3900   26.6150   41.3180 N   0  0  0  0  0  0  0  0  0  0  0  0
   37.7150   27.8810   41.0070 C   0  0  0  0  0  0  0  0  0  0  0  0
   38.2170   28.0990   39.8580 O   0  0  0  0  0  0  0  0  0  0  0  0
   37.9050   30.2280   41.4520 C   0  0  0  0  0  0  0  0  0  0  0  0
   39.1660   30.8270   41.7400 C   0  0  0  0  0  0  0  0  0  0  0  0
   39.3710   32.1310   41.2950 C   0  0  0  0  0  0  0  0  0  0  0  0
   38.3840   32.7530   40.6230 N   0  0  0  0  0  0  0  0  0  0  0  0
   37.1970   32.1670   40.3600 C   0  0  0  0  0  0  0  0  0  0  0  0
   36.9870   30.9170   40.7820 N   0  0  0  0  0  0  0  0  0  0  0  0
   39.9530   24.6880   40.5610 C   0  0  0  0  0  0  0  0  0  0  0  0
   40.8000   25.2230   41.5380 C   0  0  0  0  0  0  0  0  0  0  0  0
   42.1390   25.4430   41.2780 C   0  0  0  0  0  0  0  0  0  0  0  0
   42.6400   25.1220   40.0190 C   0  0  0  0  0  0  0  0  0  0  0  0
   41.8430   24.5910   39.0200 C   0  0  0  0  0  0  0  0  0  0  0  0
   40.4960   24.3830   39.3180 C   0  0  0  0  0  0  0  0  0  0  0  0
   38.0337   26.1221   39.5057 H   0  0  0  0  0  0  0  0  0  0  0  0
   35.7471   24.6343   40.7373 H   0  0  0  0  0  0  0  0  0  0  0  0
   35.8458   25.3726   39.1532 H   0  0  0  0  0  0  0  0  0  0  0  0
   36.2547   22.7426   39.2553 H   0  0  0  0  0  0  0  0  0  0  0  0
   37.4799   23.6087   38.3669 H   0  0  0  0  0  0  0  0  0  0  0  0
   37.4947   22.6328   41.2529 H   0  0  0  0  0  0  0  0  0  0  0  0
   38.7875   22.4856   40.0658 H   0  0  0  0  0  0  0  0  0  0  0  0
   38.5604   24.5172   41.9983 H   0  0  0  0  0  0  0  0  0  0  0  0
   36.8500   29.4282   43.7370 H   0  0  0  0  0  0  0  0  0  0  0  0
   36.2296   27.1439   44.3824 H   0  0  0  0  0  0  0  0  0  0  0  0
   39.9459   30.2814   42.2915 H   0  0  0  0  0  0  0  0  0  0  0  0
   40.3242   32.6444   41.4896 H   0  0  0  0  0  0  0  0  0  0  0  0
   36.4157   32.7095   39.8075 H   0  0  0  0  0  0  0  0  0  0  0  0
   40.3932   25.4724   42.5291 H   0  0  0  0  0  0  0  0  0  0  0  0
   42.7976   25.8643   42.0518 H   0  0  0  0  0  0  0  0  0  0  0  0
   43.7060   25.2965   39.8114 H   0  0  0  0  0  0  0  0  0  0  0  0
   42.2550   24.3429   38.0307 H   0  0  0  0  0  0  0  0  0  0  0  0
   39.8400   23.9626   38.5416 H   0  0  0  0  0  0  0  0  0  0  0  0
  1  5  1  0
  1 11  1  0
  2  1  1  0
  3  2  1  0
  3  4  1  0
  4  5  1  0
  6  7  1  0
  7  8  2  0
  9 10  2  0
  9  8  1  0
 11  9  1  0
 12 11  1  0
 12  6  1  0
 13 12  2  0
 14 15  2  0
 14  6  1  0
 16 15  1  0
 17 16  2  0
 18 17  1  0
 18 19  2  0
 19 14  1  0
 20  5  1  0
 20 21  2  0
 22 21  1  0
 23 22  2  0
 24 25  2  0
 24 23  1  0
 25 20  1  0
  1 26  1  6
  2 27  1  0
  2 28  1  0
  3 29  1  0
  3 30  1  0
  4 31  1  0
  4 32  1  0
  5 33  1  1
  7 34  1  0
  8 35  1  0
 15 36  1  0
 16 37  1  0
 18 38  1  0
 21 39  1  0
 22 40  1  0
 23 41  1  0
 24 42  1  0
 25 43  1  0
M  ISO  8  26  13  27  13  28  13  29  13  30  13  31  13  32  13  33  13
M  ISO  8  34  14  35  14  36  14  37  14  38  14  39  14  40  14  41  14
M  ISO  2  42  14  43  14
M  END
>  <minimizedAffinity>  (1) 
-5.46124744

>  <minimizedRMSD>  (1) 
0.442687511

$$$$
