
     RDKit          3D

 48 51  0  0  1  0  0  0  0  0999 V2000
   38.0770   28.5970   39.7810 C   0  0  2  0  0  0  0  0  0  0  0  0
   37.6490   28.1220   38.4670 C   0  0  0  0  0  0  0  0  0  0  0  0
   37.3280   26.6450   38.7290 C   0  0  0  0  0  0  0  0  0  0  0  0
   36.5520   26.7320   39.9880 C   0  0  0  0  0  0  0  0  0  0  0  0
   37.1900   27.8580   40.7570 C   0  0  1  0  0  0  0  0  0  0  0  0
   39.1640   32.0990   40.0820 N   0  0  0  0  0  0  0  0  0  0  0  0
   37.9970   32.6680   40.3370 C   0  0  0  0  0  0  0  0  0  0  0  0
   36.8110   31.9620   40.4240 C   0  0  0  0  0  0  0  0  0  0  0  0
   36.8010   30.5820   40.2420 C   0  0  0  0  0  0  0  0  0  0  0  0
   35.7450   29.9470   40.3190 O   0  0  0  0  0  0  0  0  0  0  0  0
   38.0110   30.0390   39.9850 N   0  0  0  0  0  0  0  0  0  0  0  0
   39.1310   30.7740   39.9100 C   0  0  0  0  0  0  0  0  0  0  0  0
   40.2180   30.1640   39.6630 O   0  0  0  0  0  0  0  0  0  0  0  0
   40.3800   32.8160   39.9910 C   0  0  0  0  0  0  0  0  0  0  0  0
   41.3430   32.8800   41.0490 C   0  0  0  0  0  0  0  0  0  0  0  0
   42.5000   33.6350   40.8030 C   0  0  0  0  0  0  0  0  0  0  0  0
   42.6380   34.2430   39.6100 N   0  0  0  0  0  0  0  0  0  0  0  0
   41.7150   34.1660   38.6320 C   0  0  0  0  0  0  0  0  0  0  0  0
   40.6040   33.4510   38.8480 N   0  0  0  0  0  0  0  0  0  0  0  0
   37.8180   27.4820   41.9620 N   0  0  0  0  0  0  0  0  0  0  0  0
   39.2020   27.7500   42.1120 C   0  0  0  0  0  0  0  0  0  0  0  0
   39.6280   27.1870   43.4750 C   0  0  0  0  0  0  0  0  0  0  0  0
   39.7450   25.6790   43.3230 C   0  0  0  0  0  0  0  0  0  0  0  0
   38.5710   25.1980   42.5240 C   0  0  0  0  0  0  0  0  0  0  0  0
   37.4580   26.1960   42.4450 C   0  0  0  0  0  0  0  0  0  0  0  0
   39.1500   28.3937   39.9129 H   0  0  0  0  0  0  0  0  0  0  0  0
   38.4548   28.2271   37.7256 H   0  0  0  0  0  0  0  0  0  0  0  0
   36.7995   28.6863   38.0548 H   0  0  0  0  0  0  0  0  0  0  0  0
   36.7268   26.2136   37.9151 H   0  0  0  0  0  0  0  0  0  0  0  0
   38.2146   25.9969   38.7917 H   0  0  0  0  0  0  0  0  0  0  0  0
   35.4959   26.9564   39.7774 H   0  0  0  0  0  0  0  0  0  0  0  0
   36.5652   25.7863   40.5497 H   0  0  0  0  0  0  0  0  0  0  0  0
   36.4108   28.5315   41.1435 H   0  0  0  0  0  0  0  0  0  0  0  0
   37.9687   33.7573   40.4874 H   0  0  0  0  0  0  0  0  0  0  0  0
   35.8718   32.4931   40.6379 H   0  0  0  0  0  0  0  0  0  0  0  0
   41.1837   32.3631   42.0068 H   0  0  0  0  0  0  0  0  0  0  0  0
   43.2809   33.7284   41.5720 H   0  0  0  0  0  0  0  0  0  0  0  0
   41.8713   34.6814   37.6729 H   0  0  0  0  0  0  0  0  0  0  0  0
   39.7702   27.2600   41.3076 H   0  0  0  0  0  0  0  0  0  0  0  0
   39.3987   28.8309   42.0571 H   0  0  0  0  0  0  0  0  0  0  0  0
   40.5982   27.6121   43.7716 H   0  0  0  0  0  0  0  0  0  0  0  0
   38.8920   27.4449   44.2508 H   0  0  0  0  0  0  0  0  0  0  0  0
   40.6796   25.4286   42.7998 H   0  0  0  0  0  0  0  0  0  0  0  0
   39.7562   25.1965   44.3114 H   0  0  0  0  0  0  0  0  0  0  0  0
   38.9123   24.9744   41.5025 H   0  0  0  0  0  0  0  0  0  0  0  0
   38.1738   24.3076   43.0333 H   0  0  0  0  0  0  0  0  0  0  0  0
   37.0416   26.3188   43.4557 H   0  0  0  0  0  0  0  0  0  0  0  0
   36.7425   25.7905   41.7145 H   0  0  0  0  0  0  0  0  0  0  0  0
  1 11  1  0
  1  5  1  0
  2  3  1  0
  2  1  1  0
  3  4  1  0
  4  5  1  0
  5 20  1  0
  6  7  1  0
  7  8  2  0
  9 10  2  0
  9  8  1  0
 11  9  1  0
 12 11  1  0
 12  6  1  0
 13 12  2  0
 14  6  1  0
 14 15  2  0
 16 15  1  0
 17 16  2  0
 18 19  2  0
 18 17  1  0
 19 14  1  0
 20 21  1  0
 20 25  1  0
 21 22  1  0
 23 22  1  0
 24 23  1  0
 25 24  1  0
  1 26  1  1
  2 27  1  0
  2 28  1  0
  3 29  1  0
  3 30  1  0
  4 31  1  0
  4 32  1  0
  5 33  1  1
  7 34  1  0
  8 35  1  0
 15 36  1  0
 16 37  1  0
 18 38  1  0
 21 39  1  0
 21 40  1  0
 22 41  1  0
 22 42  1  0
 23 43  1  0
 23 44  1  0
 24 45  1  0
 24 46  1  0
 25 47  1  0
 25 48  1  0
M  ISO  8  26  13  27  13  28  13  29  13  30  13  31  13  32  13  33  13
M  ISO  8  34  14  35  14  36  14  37  14  38  14  39  13  40  13  41  13
M  ISO  7  42  13  43  13  44  13  45  13  46  13  47  13  48  13
M  END
>  <minimizedAffinity>  (1) 
-5.44391203

>  <minimizedRMSD>  (1) 
4.30476284

$$$$
