
     RDKit          3D

 43 46  0  0  1  0  0  0  0  0999 V2000
   37.6070   25.5650   40.3160 C   0  0  2  0  0  0  0  0  0  0  0  0
   36.4140   24.7920   39.9350 C   0  0  0  0  0  0  0  0  0  0  0  0
   37.0380   23.5100   39.3530 C   0  0  0  0  0  0  0  0  0  0  0  0
   38.0530   23.1780   40.3820 C   0  0  0  0  0  0  0  0  0  0  0  0
   38.5910   24.5270   40.8070 C   0  0  1  0  0  0  0  0  0  0  0  0
   37.5510   28.9180   41.8240 N   0  0  0  0  0  0  0  0  0  0  0  0
   37.0370   28.6080   43.0080 C   0  0  0  0  0  0  0  0  0  0  0  0
   36.6900   27.3230   43.3710 C   0  0  0  0  0  0  0  0  0  0  0  0
   36.8690   26.2640   42.4840 C   0  0  0  0  0  0  0  0  0  0  0  0
   36.5580   25.1170   42.8120 O   0  0  0  0  0  0  0  0  0  0  0  0
   37.3980   26.6190   41.2790 N   0  0  0  0  0  0  0  0  0  0  0  0
   37.7160   27.8790   40.9850 C   0  0  0  0  0  0  0  0  0  0  0  0
   38.2030   28.1090   39.8350 O   0  0  0  0  0  0  0  0  0  0  0  0
   37.9090   30.2290   41.4450 C   0  0  0  0  0  0  0  0  0  0  0  0
   39.1690   30.8240   41.7350 C   0  0  0  0  0  0  0  0  0  0  0  0
   39.3790   32.1380   41.2930 C   0  0  0  0  0  0  0  0  0  0  0  0
   38.3900   32.7580   40.6270 N   0  0  0  0  0  0  0  0  0  0  0  0
   37.2000   32.1740   40.3630 C   0  0  0  0  0  0  0  0  0  0  0  0
   36.9870   30.9200   40.7800 N   0  0  0  0  0  0  0  0  0  0  0  0
   39.9840   24.7190   40.4870 C   0  0  0  0  0  0  0  0  0  0  0  0
   40.8690   25.2560   41.4320 C   0  0  0  0  0  0  0  0  0  0  0  0
   42.2300   25.4750   41.2070 C   0  0  0  0  0  0  0  0  0  0  0  0
   42.7280   25.1280   39.9490 C   0  0  0  0  0  0  0  0  0  0  0  0
   41.8600   24.5980   39.0160 C   0  0  0  0  0  0  0  0  0  0  0  0
   40.5240   24.3960   39.2730 C   0  0  0  0  0  0  0  0  0  0  0  0
   37.9681   26.1351   39.4473 H   0  0  0  0  0  0  0  0  0  0  0  0
   35.7854   24.5694   40.8098 H   0  0  0  0  0  0  0  0  0  0  0  0
   35.7479   25.3188   39.2359 H   0  0  0  0  0  0  0  0  0  0  0  0
   36.2905   22.7092   39.2536 H   0  0  0  0  0  0  0  0  0  0  0  0
   37.4509   23.6332   38.3409 H   0  0  0  0  0  0  0  0  0  0  0  0
   37.5920   22.6544   41.2325 H   0  0  0  0  0  0  0  0  0  0  0  0
   38.8382   22.5068   40.0039 H   0  0  0  0  0  0  0  0  0  0  0  0
   38.6443   24.6221   41.9016 H   0  0  0  0  0  0  0  0  0  0  0  0
   36.8797   29.4168   43.7368 H   0  0  0  0  0  0  0  0  0  0  0  0
   36.2685   27.1332   44.3691 H   0  0  0  0  0  0  0  0  0  0  0  0
   39.9476   30.2745   42.2844 H   0  0  0  0  0  0  0  0  0  0  0  0
   40.3328   32.6504   41.4872 H   0  0  0  0  0  0  0  0  0  0  0  0
   36.4189   32.7206   39.8142 H   0  0  0  0  0  0  0  0  0  0  0  0
   40.4637   25.5234   42.4190 H   0  0  0  0  0  0  0  0  0  0  0  0
   42.8801   25.9014   41.9852 H   0  0  0  0  0  0  0  0  0  0  0  0
   43.7910   25.2743   39.7067 H   0  0  0  0  0  0  0  0  0  0  0  0
   42.2531   24.3257   38.0254 H   0  0  0  0  0  0  0  0  0  0  0  0
   39.8803   23.9682   38.4903 H   0  0  0  0  0  0  0  0  0  0  0  0
  1  5  1  0
  1 11  1  0
  2  1  1  0
  3  2  1  0
  3  4  1  0
  4  5  1  0
  6  7  1  0
  7  8  2  0
  9 10  2  0
  9  8  1  0
 11  9  1  0
 12 11  1  0
 12  6  1  0
 13 12  2  0
 14 15  2  0
 14  6  1  0
 16 15  1  0
 17 16  2  0
 18 17  1  0
 18 19  2  0
 19 14  1  0
 20  5  1  0
 20 21  2  0
 22 21  1  0
 23 22  2  0
 24 25  2  0
 24 23  1  0
 25 20  1  0
  1 26  1  6
  2 27  1  0
  2 28  1  0
  3 29  1  0
  3 30  1  0
  4 31  1  0
  4 32  1  0
  5 33  1  1
  7 34  1  0
  8 35  1  0
 15 36  1  0
 16 37  1  0
 18 38  1  0
 21 39  1  0
 22 40  1  0
 23 41  1  0
 24 42  1  0
 25 43  1  0
M  ISO  8  26  13  27  13  28  13  29  13  30  13  31  13  32  13  33  13
M  ISO  8  34  14  35  14  36  14  37  14  38  14  39  14  40  14  41  14
M  ISO  2  42  14  43  14
M  END
>  <minimizedAffinity>  (1) 
-5.43479252

>  <minimizedRMSD>  (1) 
0.564656675

$$$$
