
     RDKit          3D

 42 45  0  0  1  0  0  0  0  0999 V2000
   37.7040   25.6540   40.3710 C   0  0  2  0  0  0  0  0  0  0  0  0
   36.5110   24.9290   39.9280 C   0  0  0  0  0  0  0  0  0  0  0  0
   37.1030   23.6070   39.3990 C   0  0  0  0  0  0  0  0  0  0  0  0
   38.0590   23.2560   40.4760 C   0  0  0  0  0  0  0  0  0  0  0  0
   38.6180   24.5770   40.9360 C   0  0  1  0  0  0  0  0  0  0  0  0
   37.6610   29.0260   41.8320 N   0  0  0  0  0  0  0  0  0  0  0  0
   37.1160   28.7430   43.0050 C   0  0  0  0  0  0  0  0  0  0  0  0
   36.7400   27.4700   43.3780 C   0  0  0  0  0  0  0  0  0  0  0  0
   36.9240   26.3930   42.5120 C   0  0  0  0  0  0  0  0  0  0  0  0
   36.5930   25.2480   42.8340 O   0  0  0  0  0  0  0  0  0  0  0  0
   37.4840   26.7290   41.3260 N   0  0  0  0  0  0  0  0  0  0  0  0
   37.8300   27.9820   41.0150 C   0  0  0  0  0  0  0  0  0  0  0  0
   38.3500   28.1830   39.8710 O   0  0  0  0  0  0  0  0  0  0  0  0
   38.0480   30.3260   41.4440 C   0  0  0  0  0  0  0  0  0  0  0  0
   39.3210   30.8940   41.6760 C   0  0  0  0  0  0  0  0  0  0  0  0
   39.5480   32.1980   41.2280 C   0  0  0  0  0  0  0  0  0  0  0  0
   38.5490   32.8480   40.6000 N   0  0  0  0  0  0  0  0  0  0  0  0
   37.3380   32.2970   40.3830 C   0  0  0  0  0  0  0  0  0  0  0  0
   37.1290   31.0500   40.8150 N   0  0  0  0  0  0  0  0  0  0  0  0
   40.0360   24.7730   40.6860 C   0  0  0  0  0  0  0  0  0  0  0  0
   40.8920   25.2100   41.6690 C   0  0  0  0  0  0  0  0  0  0  0  0
   42.2420   25.4240   41.5320 C   0  0  0  0  0  0  0  0  0  0  0  0
   42.7900   25.1750   40.2790 C   0  0  0  0  0  0  0  0  0  0  0  0
   41.9380   24.7310   39.2670 C   0  0  0  0  0  0  0  0  0  0  0  0
   40.6230   24.5430   39.4740 N   0  0  0  0  0  0  0  0  0  0  0  0
   38.1333   26.1996   39.5178 H   0  0  0  0  0  0  0  0  0  0  0  0
   35.8211   24.7489   40.7656 H   0  0  0  0  0  0  0  0  0  0  0  0
   35.9180   25.4751   39.1796 H   0  0  0  0  0  0  0  0  0  0  0  0
   36.3262   22.8366   39.2851 H   0  0  0  0  0  0  0  0  0  0  0  0
   37.5620   23.6894   38.4028 H   0  0  0  0  0  0  0  0  0  0  0  0
   37.5426   22.7446   41.3017 H   0  0  0  0  0  0  0  0  0  0  0  0
   38.8451   22.5699   40.1277 H   0  0  0  0  0  0  0  0  0  0  0  0
   38.6129   24.6212   42.0351 H   0  0  0  0  0  0  0  0  0  0  0  0
   36.9551   29.5650   43.7180 H   0  0  0  0  0  0  0  0  0  0  0  0
   36.2907   27.3026   44.3680 H   0  0  0  0  0  0  0  0  0  0  0  0
   40.1090   30.3271   42.1933 H   0  0  0  0  0  0  0  0  0  0  0  0
   40.5224   32.6838   41.3849 H   0  0  0  0  0  0  0  0  0  0  0  0
   36.5454   32.8574   39.8656 H   0  0  0  0  0  0  0  0  0  0  0  0
   40.4545   25.4069   42.6589 H   0  0  0  0  0  0  0  0  0  0  0  0
   42.8589   25.7751   42.3723 H   0  0  0  0  0  0  0  0  0  0  0  0
   43.8635   25.3236   40.0908 H   0  0  0  0  0  0  0  0  0  0  0  0
   42.3550   24.5286   38.2694 H   0  0  0  0  0  0  0  0  0  0  0  0
  1  5  1  0
  1 11  1  0
  2  1  1  0
  3  2  1  0
  3  4  1  0
  4  5  1  0
  6  7  1  0
  7  8  2  0
  9 10  2  0
  9  8  1  0
 11  9  1  0
 12 11  1  0
 12  6  1  0
 13 12  2  0
 14 15  2  0
 14  6  1  0
 16 15  1  0
 17 16  2  0
 18 17  1  0
 18 19  2  0
 19 14  1  0
 20  5  1  0
 20 21  2  0
 22 21  1  0
 23 22  2  0
 24 25  2  0
 24 23  1  0
 25 20  1  0
  1 26  1  6
  2 27  1  0
  2 28  1  0
  3 29  1  0
  3 30  1  0
  4 31  1  0
  4 32  1  0
  5 33  1  1
  7 34  1  0
  8 35  1  0
 15 36  1  0
 16 37  1  0
 18 38  1  0
 21 39  1  0
 22 40  1  0
 23 41  1  0
 24 42  1  0
M  ISO  8  26  13  27  13  28  13  29  13  30  13  31  13  32  13  33  13
M  ISO  8  34  14  35  14  36  14  37  14  38  14  39  14  40  14  41  14
M  ISO  1  42  14
M  END
>  <minimizedAffinity>  (1) 
-5.37181997

>  <minimizedRMSD>  (1) 
0.609380364

$$$$
