
     RDKit          3D

 49 52  0  0  1  0  0  0  0  0999 V2000
   37.5260   28.9220   41.8310 N   0  0  0  0  0  0  0  0  0  0  0  0
   36.9990   28.6240   43.0060 C   0  0  0  0  0  0  0  0  0  0  0  0
   36.6610   27.3450   43.3820 C   0  0  0  0  0  0  0  0  0  0  0  0
   36.8660   26.2770   42.5100 C   0  0  0  0  0  0  0  0  0  0  0  0
   36.5630   25.1240   42.8410 O   0  0  0  0  0  0  0  0  0  0  0  0
   37.4030   26.6180   41.3250 N   0  0  0  0  0  0  0  0  0  0  0  0
   37.7170   27.8840   41.0070 C   0  0  0  0  0  0  0  0  0  0  0  0
   38.2210   28.1010   39.8610 O   0  0  0  0  0  0  0  0  0  0  0  0
   37.6460   25.5530   40.3630 C   0  0  2  0  0  0  0  0  0  0  0  0
   36.4580   24.8520   39.8780 C   0  0  0  0  0  0  0  0  0  0  0  0
   37.0380   23.5290   39.3480 C   0  0  0  0  0  0  0  0  0  0  0  0
   37.9620   23.1540   40.4450 C   0  0  0  0  0  0  0  0  0  0  0  0
   38.5310   24.4610   40.9430 C   0  0  1  0  0  0  0  0  0  0  0  0
   39.9790   24.6230   40.6730 C   0  0  0  0  0  0  0  0  0  0  0  0
   40.1070   25.2230   39.2650 C   0  0  0  0  0  0  0  0  0  0  0  0
   41.5550   25.0190   38.8470 C   0  0  0  0  0  0  0  0  0  0  0  0
   42.5070   25.6480   39.8330 C   0  0  0  0  0  0  0  0  0  0  0  0
   42.2180   25.3010   41.2550 C   0  0  0  0  0  0  0  0  0  0  0  0
   40.7330   25.5460   41.5620 C   0  0  0  0  0  0  0  0  0  0  0  0
   37.8780   30.2340   41.4380 C   0  0  0  0  0  0  0  0  0  0  0  0
   39.1430   30.8410   41.7240 C   0  0  0  0  0  0  0  0  0  0  0  0
   39.3530   32.1420   41.2770 C   0  0  0  0  0  0  0  0  0  0  0  0
   38.3560   32.7590   40.6000 N   0  0  0  0  0  0  0  0  0  0  0  0
   37.1630   32.1650   40.3390 C   0  0  0  0  0  0  0  0  0  0  0  0
   36.9580   30.9200   40.7660 N   0  0  0  0  0  0  0  0  0  0  0  0
   36.8215   29.4415   43.7203 H   0  0  0  0  0  0  0  0  0  0  0  0
   36.2266   27.1639   44.3762 H   0  0  0  0  0  0  0  0  0  0  0  0
   38.1120   26.0993   39.5297 H   0  0  0  0  0  0  0  0  0  0  0  0
   35.7426   24.6726   40.6941 H   0  0  0  0  0  0  0  0  0  0  0  0
   35.8971   25.4175   39.1193 H   0  0  0  0  0  0  0  0  0  0  0  0
   36.2518   22.7725   39.2080 H   0  0  0  0  0  0  0  0  0  0  0  0
   37.5202   23.6122   38.3628 H   0  0  0  0  0  0  0  0  0  0  0  0
   37.4173   22.6383   41.2496 H   0  0  0  0  0  0  0  0  0  0  0  0
   38.7487   22.4648   40.1042 H   0  0  0  0  0  0  0  0  0  0  0  0
   38.5085   24.5079   42.0418 H   0  0  0  0  0  0  0  0  0  0  0  0
   40.4083   23.6216   40.8247 H   0  0  0  0  0  0  0  0  0  0  0  0
   39.4321   24.7056   38.5672 H   0  0  0  0  0  0  0  0  0  0  0  0
   39.8337   26.2885   39.2569 H   0  0  0  0  0  0  0  0  0  0  0  0
   41.7618   23.9402   38.7883 H   0  0  0  0  0  0  0  0  0  0  0  0
   41.7034   25.4991   37.8685 H   0  0  0  0  0  0  0  0  0  0  0  0
   43.5264   25.3108   39.5941 H   0  0  0  0  0  0  0  0  0  0  0  0
   42.3910   26.7379   39.7394 H   0  0  0  0  0  0  0  0  0  0  0  0
   42.4559   24.2409   41.4273 H   0  0  0  0  0  0  0  0  0  0  0  0
   42.8327   25.9321   41.9137 H   0  0  0  0  0  0  0  0  0  0  0  0
   40.4643   26.5906   41.3462 H   0  0  0  0  0  0  0  0  0  0  0  0
   40.5032   25.3653   42.6224 H   0  0  0  0  0  0  0  0  0  0  0  0
   39.9223   30.2974   42.2782 H   0  0  0  0  0  0  0  0  0  0  0  0
   40.3060   32.6567   41.4691 H   0  0  0  0  0  0  0  0  0  0  0  0
   36.3796   32.7026   39.7846 H   0  0  0  0  0  0  0  0  0  0  0  0
  1  2  1  0
  2  3  2  0
  4  5  2  0
  4  3  1  0
  6  4  1  0
  7  6  1  0
  7  1  1  0
  8  7  2  0
  9 13  1  0
  9  6  1  0
 10  9  1  0
 11 10  1  0
 11 12  1  0
 12 13  1  0
 14 13  1  0
 14 19  1  0
 15 14  1  0
 16 15  1  0
 16 17  1  0
 17 18  1  0
 18 19  1  0
 20 21  2  0
 20  1  1  0
 22 21  1  0
 23 22  2  0
 24 23  1  0
 24 25  2  0
 25 20  1  0
  2 26  1  0
  3 27  1  0
  9 28  1  6
 10 29  1  0
 10 30  1  0
 11 31  1  0
 11 32  1  0
 12 33  1  0
 12 34  1  0
 13 35  1  1
 14 36  1  0
 15 37  1  0
 15 38  1  0
 16 39  1  0
 16 40  1  0
 17 41  1  0
 17 42  1  0
 18 43  1  0
 18 44  1  0
 19 45  1  0
 19 46  1  0
 21 47  1  0
 22 48  1  0
 24 49  1  0
M  ISO  8  26  14  27  14  28  13  29  13  30  13  31  13  32  13  33  13
M  ISO  8  34  13  35  13  36  13  37  13  38  13  39  13  40  13  41  13
M  ISO  8  42  13  43  13  44  13  45  13  46  13  47  14  48  14  49  14
M  END
>  <minimizedAffinity>  (1) 
-5.33085489

>  <minimizedRMSD>  (1) 
0.413856387

$$$$
