
     RDKit          3D

 40 43  0  0  1  0  0  0  0  0999 V2000
   37.5500   28.8990   41.8540 N   0  0  0  0  0  0  0  0  0  0  0  0
   37.0180   28.6060   43.0260 C   0  0  0  0  0  0  0  0  0  0  0  0
   36.6660   27.3230   43.4010 C   0  0  0  0  0  0  0  0  0  0  0  0
   36.8680   26.2620   42.5240 C   0  0  0  0  0  0  0  0  0  0  0  0
   36.5540   25.1010   42.8540 O   0  0  0  0  0  0  0  0  0  0  0  0
   37.4120   26.6010   41.3400 N   0  0  0  0  0  0  0  0  0  0  0  0
   37.7400   27.8610   41.0160 C   0  0  0  0  0  0  0  0  0  0  0  0
   38.2500   28.0740   39.8690 O   0  0  0  0  0  0  0  0  0  0  0  0
   37.6450   25.5410   40.3770 C   0  0  2  0  0  0  0  0  0  0  0  0
   36.4700   24.7290   40.0140 C   0  0  0  0  0  0  0  0  0  0  0  0
   37.0870   23.4420   39.4620 C   0  0  0  0  0  0  0  0  0  0  0  0
   38.1450   23.1730   40.4790 C   0  0  0  0  0  0  0  0  0  0  0  0
   38.6520   24.5300   40.8780 C   0  0  1  0  0  0  0  0  0  0  0  0
   40.0040   24.7010   40.3690 C   0  0  0  0  0  0  0  0  0  0  0  0
   40.4960   24.3320   39.1840 C   0  0  0  0  0  0  0  0  0  0  0  0
   41.8050   24.5680   38.8580 C   0  0  0  0  0  0  0  0  0  0  0  0
   42.5740   25.2220   39.8610 C   0  0  0  0  0  0  0  0  0  0  0  0
   41.3000   25.4530   41.2500 S   0  0  0  0  0  0  0  0  0  0  0  0
   37.9110   30.2100   41.4670 C   0  0  0  0  0  0  0  0  0  0  0  0
   39.1730   30.8090   41.7600 C   0  0  0  0  0  0  0  0  0  0  0  0
   39.3770   32.1160   41.3080 C   0  0  0  0  0  0  0  0  0  0  0  0
   38.3940   32.7340   40.6320 N   0  0  0  0  0  0  0  0  0  0  0  0
   37.2040   32.1500   40.3630 C   0  0  0  0  0  0  0  0  0  0  0  0
   36.9980   30.8960   40.7920 N   0  0  0  0  0  0  0  0  0  0  0  0
   36.8461   29.4245   43.7405 H   0  0  0  0  0  0  0  0  0  0  0  0
   36.2262   27.1409   44.3927 H   0  0  0  0  0  0  0  0  0  0  0  0
   37.9865   26.1128   39.5015 H   0  0  0  0  0  0  0  0  0  0  0  0
   35.8475   24.5203   40.8966 H   0  0  0  0  0  0  0  0  0  0  0  0
   35.8062   25.2307   39.2945 H   0  0  0  0  0  0  0  0  0  0  0  0
   36.3501   22.6264   39.4206 H   0  0  0  0  0  0  0  0  0  0  0  0
   37.4606   23.5249   38.4307 H   0  0  0  0  0  0  0  0  0  0  0  0
   37.7220   22.6471   41.3477 H   0  0  0  0  0  0  0  0  0  0  0  0
   38.9462   22.5316   40.0832 H   0  0  0  0  0  0  0  0  0  0  0  0
   38.7370   24.6646   41.9664 H   0  0  0  0  0  0  0  0  0  0  0  0
   39.8394   23.8304   38.4579 H   0  0  0  0  0  0  0  0  0  0  0  0
   42.2323   24.2726   37.8884 H   0  0  0  0  0  0  0  0  0  0  0  0
   43.6333   25.5175   39.8377 H   0  0  0  0  0  0  0  0  0  0  0  0
   39.9508   30.2661   42.3170 H   0  0  0  0  0  0  0  0  0  0  0  0
   40.3291   32.6313   41.5031 H   0  0  0  0  0  0  0  0  0  0  0  0
   36.4243   32.6902   39.8061 H   0  0  0  0  0  0  0  0  0  0  0  0
  1  2  1  0
  2  3  2  0
  4  5  2  0
  4  3  1  0
  6  4  1  0
  7  6  1  0
  7  1  1  0
  8  7  2  0
  9 13  1  0
  9  6  1  0
 10  9  1  0
 11 10  1  0
 11 12  1  0
 12 13  1  0
 14 13  1  0
 14 18  1  0
 15 14  2  0
 16 15  1  0
 16 17  2  0
 17 18  1  0
 19 20  2  0
 19  1  1  0
 21 20  1  0
 22 21  2  0
 23 22  1  0
 23 24  2  0
 24 19  1  0
  2 25  1  0
  3 26  1  0
  9 27  1  6
 10 28  1  0
 10 29  1  0
 11 30  1  0
 11 31  1  0
 12 32  1  0
 12 33  1  0
 13 34  1  1
 15 35  1  0
 16 36  1  0
 17 37  1  0
 20 38  1  0
 21 39  1  0
 23 40  1  0
M  ISO  8  25  14  26  14  27  13  28  13  29  13  30  13  31  13  32  13
M  ISO  8  33  13  34  13  35  14  36  14  37  14  38  14  39  14  40  14
M  END
>  <minimizedAffinity>  (1) 
-5.16319275

>  <minimizedRMSD>  (1) 
0.545709491

$$$$
