
     RDKit          3D

 39 42  0  0  1  0  0  0  0  0999 V2000
   37.6910   29.0040   41.8110 N   0  0  0  0  0  0  0  0  0  0  0  0
   37.0390   28.7190   42.9220 C   0  0  0  0  0  0  0  0  0  0  0  0
   36.6850   27.4310   43.2850 C   0  0  0  0  0  0  0  0  0  0  0  0
   37.0150   26.3550   42.4610 C   0  0  0  0  0  0  0  0  0  0  0  0
   36.7010   25.1970   42.7780 O   0  0  0  0  0  0  0  0  0  0  0  0
   37.6810   26.6910   41.3370 N   0  0  0  0  0  0  0  0  0  0  0  0
   38.0010   27.9600   41.0320 C   0  0  0  0  0  0  0  0  0  0  0  0
   38.6310   28.1640   39.9450 O   0  0  0  0  0  0  0  0  0  0  0  0
   38.0520   25.6170   40.4400 C   0  0  2  0  0  0  0  0  0  0  0  0
   36.9560   24.8040   39.9100 C   0  0  0  0  0  0  0  0  0  0  0  0
   37.6550   23.5170   39.4630 C   0  0  0  0  0  0  0  0  0  0  0  0
   38.5520   23.2560   40.6190 C   0  0  0  0  0  0  0  0  0  0  0  0
   38.9840   24.6160   41.0980 C   0  0  1  0  0  0  0  0  0  0  0  0
   40.3680   24.8900   40.9110 N   0  0  0  0  0  0  0  0  0  0  0  0
   41.1890   25.2300   41.9280 C   0  0  0  0  0  0  0  0  0  0  0  0
   42.4280   25.4260   41.4530 N   0  0  0  0  0  0  0  0  0  0  0  0
   42.3460   25.2000   40.1330 C   0  0  0  0  0  0  0  0  0  0  0  0
   41.0750   24.8670   39.7880 N   0  0  0  0  0  0  0  0  0  0  0  0
   38.0550   30.3170   41.4370 C   0  0  0  0  0  0  0  0  0  0  0  0
   39.3140   30.9190   41.7180 C   0  0  0  0  0  0  0  0  0  0  0  0
   39.5210   32.2220   41.2840 C   0  0  0  0  0  0  0  0  0  0  0  0
   38.5220   32.8520   40.6200 N   0  0  0  0  0  0  0  0  0  0  0  0
   37.3320   32.2730   40.3590 C   0  0  0  0  0  0  0  0  0  0  0  0
   37.1310   31.0170   40.7760 N   0  0  0  0  0  0  0  0  0  0  0  0
   36.7631   29.5458   43.5930 H   0  0  0  0  0  0  0  0  0  0  0  0
   36.1422   27.2556   44.2255 H   0  0  0  0  0  0  0  0  0  0  0  0
   38.5172   26.1800   39.6174 H   0  0  0  0  0  0  0  0  0  0  0  0
   36.2077   24.5957   40.6889 H   0  0  0  0  0  0  0  0  0  0  0  0
   36.4070   25.3002   39.0961 H   0  0  0  0  0  0  0  0  0  0  0  0
   36.9357   22.6974   39.3184 H   0  0  0  0  0  0  0  0  0  0  0  0
   38.1764   23.5995   38.4979 H   0  0  0  0  0  0  0  0  0  0  0  0
   38.0114   22.7209   41.4136 H   0  0  0  0  0  0  0  0  0  0  0  0
   39.4099   22.6267   40.3399 H   0  0  0  0  0  0  0  0  0  0  0  0
   38.8955   24.6798   42.1926 H   0  0  0  0  0  0  0  0  0  0  0  0
   40.8885   25.3305   42.9814 H   0  0  0  0  0  0  0  0  0  0  0  0
   43.1886   25.2739   39.4298 H   0  0  0  0  0  0  0  0  0  0  0  0
   40.0974   30.3701   42.2612 H   0  0  0  0  0  0  0  0  0  0  0  0
   40.4766   32.7321   41.4755 H   0  0  0  0  0  0  0  0  0  0  0  0
   36.5462   32.8194   39.8169 H   0  0  0  0  0  0  0  0  0  0  0  0
  1  2  1  0
  2  3  2  0
  4  5  2  0
  4  3  1  0
  6  4  1  0
  7  6  1  0
  7  1  1  0
  8  7  2  0
  9 13  1  0
  9  6  1  0
 10  9  1  0
 11 10  1  0
 11 12  1  0
 12 13  1  0
 14 13  1  0
 14 15  1  0
 16 15  2  0
 17 16  1  0
 18 17  2  0
 18 14  1  0
 19 20  2  0
 19  1  1  0
 21 20  1  0
 22 21  2  0
 23 22  1  0
 23 24  2  0
 24 19  1  0
  2 25  1  0
  3 26  1  0
  9 27  1  6
 10 28  1  0
 10 29  1  0
 11 30  1  0
 11 31  1  0
 12 32  1  0
 12 33  1  0
 13 34  1  1
 15 35  1  0
 17 36  1  0
 20 37  1  0
 21 38  1  0
 23 39  1  0
M  ISO  8  25  14  26  14  27  13  28  13  29  13  30  13  31  13  32  13
M  ISO  7  33  13  34  13  35  14  36  14  37  14  38  14  39  14
M  END
>  <minimizedAffinity>  (1) 
-5.12786388

>  <minimizedRMSD>  (1) 
0.578071594

$$$$
