
     RDKit          3D

 39 41  0  0  1  0  0  0  0  0999 V2000
   37.5510   28.9090   41.8310 N   0  0  0  0  0  0  0  0  0  0  0  0
   37.0340   28.6080   43.0100 C   0  0  0  0  0  0  0  0  0  0  0  0
   36.6930   27.3210   43.3780 C   0  0  0  0  0  0  0  0  0  0  0  0
   36.8860   26.2600   42.4930 C   0  0  0  0  0  0  0  0  0  0  0  0
   36.5850   25.1060   42.8140 O   0  0  0  0  0  0  0  0  0  0  0  0
   37.4150   26.6160   41.3030 N   0  0  0  0  0  0  0  0  0  0  0  0
   37.7290   27.8790   40.9940 C   0  0  0  0  0  0  0  0  0  0  0  0
   38.2210   28.1010   39.8480 O   0  0  0  0  0  0  0  0  0  0  0  0
   37.6400   25.5520   40.3390 C   0  0  2  0  0  0  0  0  0  0  0  0
   36.4750   24.7540   39.9680 C   0  0  0  0  0  0  0  0  0  0  0  0
   37.1070   23.4670   39.4110 C   0  0  0  0  0  0  0  0  0  0  0  0
   38.1640   23.1870   40.4140 C   0  0  0  0  0  0  0  0  0  0  0  0
   38.6540   24.5400   40.8310 C   0  0  1  0  0  0  0  0  0  0  0  0
   40.0620   24.8320   40.4300 C   0  0  0  0  0  0  0  0  0  0  0  0
   40.8870   25.5770   41.4120 C   0  0  0  0  0  0  0  0  0  0  0  0
   37.9030   30.2250   41.4460 C   0  0  0  0  0  0  0  0  0  0  0  0
   39.1680   30.8300   41.7340 C   0  0  0  0  0  0  0  0  0  0  0  0
   39.3710   32.1370   41.2900 C   0  0  0  0  0  0  0  0  0  0  0  0
   38.3780   32.7550   40.6200 N   0  0  0  0  0  0  0  0  0  0  0  0
   37.1880   32.1640   40.3580 C   0  0  0  0  0  0  0  0  0  0  0  0
   36.9840   30.9130   40.7790 N   0  0  0  0  0  0  0  0  0  0  0  0
   36.8675   29.4209   43.7321 H   0  0  0  0  0  0  0  0  0  0  0  0
   36.2669   27.1317   44.3743 H   0  0  0  0  0  0  0  0  0  0  0  0
   37.9777   26.1271   39.4642 H   0  0  0  0  0  0  0  0  0  0  0  0
   35.8462   24.5394   40.8447 H   0  0  0  0  0  0  0  0  0  0  0  0
   35.8116   25.2592   39.2506 H   0  0  0  0  0  0  0  0  0  0  0  0
   36.3733   22.6488   39.3638 H   0  0  0  0  0  0  0  0  0  0  0  0
   37.4847   23.5660   38.3826 H   0  0  0  0  0  0  0  0  0  0  0  0
   37.7488   22.6417   41.2744 H   0  0  0  0  0  0  0  0  0  0  0  0
   38.9695   22.5575   40.0079 H   0  0  0  0  0  0  0  0  0  0  0  0
   38.7211   24.5895   41.9278 H   0  0  0  0  0  0  0  0  0  0  0  0
   40.5605   23.8710   40.2350 H   0  0  0  0  0  0  0  0  0  0  0  0
   39.9850   25.4918   39.5532 H   0  0  0  0  0  0  0  0  0  0  0  0
   40.5813   25.3010   42.4320 H   0  0  0  0  0  0  0  0  0  0  0  0
   41.9477   25.3247   41.2661 H   0  0  0  0  0  0  0  0  0  0  0  0
   40.7438   26.6578   41.2661 H   0  0  0  0  0  0  0  0  0  0  0  0
   39.9497   30.2856   42.2840 H   0  0  0  0  0  0  0  0  0  0  0  0
   40.3230   32.6532   41.4830 H   0  0  0  0  0  0  0  0  0  0  0  0
   36.4034   32.7046   39.8083 H   0  0  0  0  0  0  0  0  0  0  0  0
  1  2  1  0
  2  3  2  0
  4  5  2  0
  4  3  1  0
  6  4  1  0
  7  6  1  0
  7  1  1  0
  8  7  2  0
  9 13  1  0
  9  6  1  0
 10  9  1  0
 11 10  1  0
 11 12  1  0
 12 13  1  0
 14 13  1  0
 14 15  1  0
 16 17  2  0
 16  1  1  0
 18 17  1  0
 19 18  2  0
 20 19  1  0
 20 21  2  0
 21 16  1  0
  2 22  1  0
  3 23  1  0
  9 24  1  6
 10 25  1  0
 10 26  1  0
 11 27  1  0
 11 28  1  0
 12 29  1  0
 12 30  1  0
 13 31  1  1
 14 32  1  0
 14 33  1  0
 15 34  1  0
 15 35  1  0
 15 36  1  0
 17 37  1  0
 18 38  1  0
 20 39  1  0
M  ISO  8  22  14  23  14  24  13  25  13  26  13  27  13  28  13  29  13
M  ISO  8  30  13  31  13  32   8  33   8  34   8  35   8  36   8  37  14
M  ISO  2  38  14  39  14
M  END
>  <minimizedAffinity>  (1) 
-4.86386156

>  <minimizedRMSD>  (1) 
0.332222641

$$$$
