
     RDKit          3D

 36 38  0  0  1  0  0  0  0  0999 V2000
   37.5620   28.9150   41.8290 N   0  0  0  0  0  0  0  0  0  0  0  0
   37.0650   28.6070   43.0190 C   0  0  0  0  0  0  0  0  0  0  0  0
   36.7270   27.3210   43.3850 C   0  0  0  0  0  0  0  0  0  0  0  0
   36.8990   26.2610   42.4960 C   0  0  0  0  0  0  0  0  0  0  0  0
   36.6000   25.1050   42.8150 O   0  0  0  0  0  0  0  0  0  0  0  0
   37.4070   26.6240   41.2970 N   0  0  0  0  0  0  0  0  0  0  0  0
   37.7190   27.8860   40.9910 C   0  0  0  0  0  0  0  0  0  0  0  0
   38.1920   28.1090   39.8300 O   0  0  0  0  0  0  0  0  0  0  0  0
   37.6040   25.5620   40.3150 C   0  0  2  0  0  0  0  0  0  0  0  0
   36.4430   24.7290   40.0110 C   0  0  0  0  0  0  0  0  0  0  0  0
   37.0890   23.4680   39.4040 C   0  0  0  0  0  0  0  0  0  0  0  0
   38.1690   23.2040   40.3850 C   0  0  0  0  0  0  0  0  0  0  0  0
   38.6700   24.5770   40.7620 C   0  0  1  0  0  0  0  0  0  0  0  0
   39.9210   24.8070   39.9890 C   0  0  0  0  0  0  0  0  0  0  0  0
   40.6490   25.8540   40.0860 O   0  0  0  0  0  0  0  0  0  0  0  0
   40.3370   23.8450   39.1100 O   0  0  0  0  0  0  0  0  0  0  0  0
   37.9100   30.2230   41.4460 C   0  0  0  0  0  0  0  0  0  0  0  0
   39.1700   30.8340   41.7280 C   0  0  0  0  0  0  0  0  0  0  0  0
   39.3550   32.1470   41.2750 C   0  0  0  0  0  0  0  0  0  0  0  0
   38.3500   32.7610   40.6050 N   0  0  0  0  0  0  0  0  0  0  0  0
   37.1690   32.1660   40.3490 C   0  0  0  0  0  0  0  0  0  0  0  0
   36.9920   30.9140   40.7810 N   0  0  0  0  0  0  0  0  0  0  0  0
   36.9151   29.4159   43.7493 H   0  0  0  0  0  0  0  0  0  0  0  0
   36.3178   27.1298   44.3880 H   0  0  0  0  0  0  0  0  0  0  0  0
   37.8727   26.1416   39.4196 H   0  0  0  0  0  0  0  0  0  0  0  0
   35.8776   24.4866   40.9229 H   0  0  0  0  0  0  0  0  0  0  0  0
   35.7165   25.2151   39.3432 H   0  0  0  0  0  0  0  0  0  0  0  0
   36.3753   22.6325   39.3541 H   0  0  0  0  0  0  0  0  0  0  0  0
   37.4373   23.5906   38.3678 H   0  0  0  0  0  0  0  0  0  0  0  0
   37.7752   22.6767   41.2664 H   0  0  0  0  0  0  0  0  0  0  0  0
   38.9636   22.5633   39.9749 H   0  0  0  0  0  0  0  0  0  0  0  0
   38.8658   24.6849   41.8390 H   0  0  0  0  0  0  0  0  0  0  0  0
   39.8087   23.0153   38.9977 H   0  0  0  0  0  0  0  0  0  0  0  0
   39.9591   30.2982   42.2758 H   0  0  0  0  0  0  0  0  0  0  0  0
   40.3035   32.6723   41.4608 H   0  0  0  0  0  0  0  0  0  0  0  0
   36.3748   32.6944   39.8012 H   0  0  0  0  0  0  0  0  0  0  0  0
  1  2  1  0
  2  3  2  0
  4  5  2  0
  4  3  1  0
  6  4  1  0
  7  6  1  0
  7  1  1  0
  8  7  2  0
  9 13  1  0
  9  6  1  0
 10  9  1  0
 11 10  1  0
 11 12  1  0
 12 13  1  0
 14 15  2  0
 14 13  1  0
 16 14  1  0
 17 18  2  0
 17  1  1  0
 19 18  1  0
 20 19  2  0
 21 20  1  0
 21 22  2  0
 22 17  1  0
  2 23  1  0
  3 24  1  0
  9 25  1  6
 10 26  1  0
 10 27  1  0
 11 28  1  0
 11 29  1  0
 12 30  1  0
 12 31  1  0
 13 32  1  1
 16 33  1  0
 18 34  1  0
 19 35  1  0
 21 36  1  0
M  ISO  8  23  14  24  14  25  13  26  13  27  13  28  13  29  13  30  13
M  ISO  6  31  13  32  13  33   3  34  14  35  14  36  14
M  END
>  <minimizedAffinity>  (1) 
-4.85690594

>  <minimizedRMSD>  (1) 
0.241773754

$$$$
