
     RDKit          3D

 51 54  0  0  1  0  0  0  0  0999 V2000
   39.4620   29.4700   42.4040 N   0  0  0  0  0  0  0  0  0  0  0  0
   38.4220   29.6590   43.1850 C   0  0  0  0  0  0  0  0  0  0  0  0
   37.4620   28.6990   43.4210 C   0  0  0  0  0  0  0  0  0  0  0  0
   37.5580   27.4450   42.8210 C   0  0  0  0  0  0  0  0  0  0  0  0
   36.6920   26.5720   43.0310 O   0  0  0  0  0  0  0  0  0  0  0  0
   38.6470   27.2860   42.0200 N   0  0  0  0  0  0  0  0  0  0  0  0
   39.5460   28.2460   41.8240 C   0  0  0  0  0  0  0  0  0  0  0  0
   40.5250   27.9940   41.0580 O   0  0  0  0  0  0  0  0  0  0  0  0
   40.4500   30.4420   42.1550 C   0  0  0  0  0  0  0  0  0  0  0  0
   41.5910   30.6650   42.9920 C   0  0  0  0  0  0  0  0  0  0  0  0
   42.4920   31.6590   42.6310 C   0  0  0  0  0  0  0  0  0  0  0  0
   42.2500   32.3560   41.5220 N   0  0  0  0  0  0  0  0  0  0  0  0
   41.1760   32.1450   40.7350 C   0  0  0  0  0  0  0  0  0  0  0  0
   40.2900   31.1920   41.0590 N   0  0  0  0  0  0  0  0  0  0  0  0
   40.9950   32.9490   39.5510 N   0  0  0  0  0  0  0  0  0  0  0  0
   41.9490   33.9810   39.1940 C   0  0  0  0  0  0  0  0  0  0  0  0
   42.2720   33.7810   37.7130 C   0  0  0  0  0  0  0  0  0  0  0  0
   41.8400   32.4210   37.2190 C   0  0  0  0  0  0  0  0  0  0  0  0
   40.3540   32.1810   37.3850 C   0  0  0  0  0  0  0  0  0  0  0  0
   39.8570   32.7310   38.7080 C   0  0  0  0  0  0  0  0  0  0  0  0
   38.7870   26.0130   41.3820 C   0  0  2  0  0  0  0  0  0  0  0  0
   37.8530   25.6840   40.3220 C   0  0  0  0  0  0  0  0  0  0  0  0
   37.9370   24.1440   40.2530 C   0  0  0  0  0  0  0  0  0  0  0  0
   37.9220   23.7680   41.6920 C   0  0  0  0  0  0  0  0  0  0  0  0
   38.6690   24.8490   42.3940 C   0  0  1  0  0  0  0  0  0  0  0  0
   39.9880   24.4450   42.9630 C   0  0  0  0  0  0  0  0  0  0  0  0
   38.3119   30.6366   43.6770 H   0  0  0  0  0  0  0  0  0  0  0  0
   36.6155   28.9238   44.0865 H   0  0  0  0  0  0  0  0  0  0  0  0
   41.7500   30.0634   43.8991 H   0  0  0  0  0  0  0  0  0  0  0  0
   43.3814   31.8649   43.2446 H   0  0  0  0  0  0  0  0  0  0  0  0
   41.5101   34.9765   39.3560 H   0  0  0  0  0  0  0  0  0  0  0  0
   42.8569   33.9139   39.8115 H   0  0  0  0  0  0  0  0  0  0  0  0
   41.7509   34.5534   37.1283 H   0  0  0  0  0  0  0  0  0  0  0  0
   43.3624   33.8570   37.5895 H   0  0  0  0  0  0  0  0  0  0  0  0
   42.3856   31.6518   37.7852 H   0  0  0  0  0  0  0  0  0  0  0  0
   42.0651   32.3725   36.1434 H   0  0  0  0  0  0  0  0  0  0  0  0
   39.8159   32.6779   36.5644 H   0  0  0  0  0  0  0  0  0  0  0  0
   40.1708   31.0965   37.3663 H   0  0  0  0  0  0  0  0  0  0  0  0
   39.3274   33.6808   38.5424 H   0  0  0  0  0  0  0  0  0  0  0  0
   39.1613   32.0218   39.1801 H   0  0  0  0  0  0  0  0  0  0  0  0
   39.7846   26.1222   40.9315 H   0  0  0  0  0  0  0  0  0  0  0  0
   36.8347   26.0137   40.5755 H   0  0  0  0  0  0  0  0  0  0  0  0
   38.0901   26.1749   39.3666 H   0  0  0  0  0  0  0  0  0  0  0  0
   37.0730   23.7202   39.7203 H   0  0  0  0  0  0  0  0  0  0  0  0
   38.8164   23.7721   39.7069 H   0  0  0  0  0  0  0  0  0  0  0  0
   36.8883   23.7113   42.0637 H   0  0  0  0  0  0  0  0  0  0  0  0
   38.3779   22.7812   41.8606 H   0  0  0  0  0  0  0  0  0  0  0  0
   38.1129   25.1446   43.2959 H   0  0  0  0  0  0  0  0  0  0  0  0
   39.9340   24.4615   44.0615 H   0  0  0  0  0  0  0  0  0  0  0  0
   40.2381   23.4291   42.6234 H   0  0  0  0  0  0  0  0  0  0  0  0
   40.7642   25.1466   42.6234 H   0  0  0  0  0  0  0  0  0  0  0  0
  1  2  1  0
  2  3  2  0
  4  5  2  0
  4  3  1  0
  6  4  1  0
  7  6  1  0
  7  1  1  0
  8  7  2  0
  9  1  1  0
  9 10  2  0
 11 10  1  0
 12 11  2  0
 13 14  2  0
 13 12  1  0
 14  9  1  0
 15 13  1  0
 16 15  1  0
 17 16  1  0
 18 19  1  0
 18 17  1  0
 19 20  1  0
 20 15  1  0
 21  6  1  0
 21 25  1  0
 22 21  1  0
 23 22  1  0
 23 24  1  0
 24 25  1  0
 25 26  1  0
  2 27  1  0
  3 28  1  0
 10 29  1  0
 11 30  1  0
 16 31  1  0
 16 32  1  0
 17 33  1  0
 17 34  1  0
 18 35  1  0
 18 36  1  0
 19 37  1  0
 19 38  1  0
 20 39  1  0
 20 40  1  0
 21 41  1  6
 22 42  1  0
 22 43  1  0
 23 44  1  0
 23 45  1  0
 24 46  1  0
 24 47  1  0
 25 48  1  1
 26 49  1  0
 26 50  1  0
 26 51  1  0
M  ISO  8  27  14  28  14  29  14  30  14  31  13  32  13  33  13  34  13
M  ISO  8  35  13  36  13  37  13  38  13  39  13  40  13  41  13  42  13
M  ISO  8  43  13  44  13  45  13  46  13  47  13  48  13  49   8  50   8
M  ISO  1  51   8
M  END
>  <minimizedAffinity>  (1) 
-6.05431652

>  <minimizedRMSD>  (1) 
3.37642717

$$$$
