
     RDKit          3D

 39 41  0  0  1  0  0  0  0  0999 V2000
   37.9320   28.6920   41.9280 N   0  0  0  0  0  0  0  0  0  0  0  0
   37.2370   28.3880   43.0120 C   0  0  0  0  0  0  0  0  0  0  0  0
   36.7500   27.1210   43.2690 C   0  0  0  0  0  0  0  0  0  0  0  0
   36.9760   26.0860   42.3710 C   0  0  0  0  0  0  0  0  0  0  0  0
   36.5420   24.9390   42.5920 O   0  0  0  0  0  0  0  0  0  0  0  0
   37.6970   26.4440   41.2660 N   0  0  0  0  0  0  0  0  0  0  0  0
   38.1400   27.6800   41.0740 C   0  0  0  0  0  0  0  0  0  0  0  0
   38.8010   27.9020   40.0070 O   0  0  0  0  0  0  0  0  0  0  0  0
   37.9590   25.4020   40.3040 C   0  0  2  0  0  0  0  0  0  0  0  0
   36.8440   24.5740   39.8890 C   0  0  0  0  0  0  0  0  0  0  0  0
   37.5220   23.3160   39.3350 C   0  0  0  0  0  0  0  0  0  0  0  0
   38.5700   23.0610   40.3590 C   0  0  0  0  0  0  0  0  0  0  0  0
   39.0090   24.4150   40.8160 C   0  0  1  0  0  0  0  0  0  0  0  0
   40.4010   24.7960   40.4220 C   0  0  0  0  0  0  0  0  0  0  0  0
   38.4350   29.9880   41.6570 C   0  0  0  0  0  0  0  0  0  0  0  0
   39.5930   30.5360   42.2910 C   0  0  0  0  0  0  0  0  0  0  0  0
   39.9780   31.8260   41.9310 C   0  0  0  0  0  0  0  0  0  0  0  0
   39.2480   32.4740   41.0200 N   0  0  0  0  0  0  0  0  0  0  0  0
   38.1550   31.9450   40.4260 C   0  0  0  0  0  0  0  0  0  0  0  0
   37.7650   30.7060   40.7570 N   0  0  0  0  0  0  0  0  0  0  0  0
   37.3830   32.6890   39.4320 C   0  0  0  0  0  0  0  0  0  0  0  0
   37.2120   32.2650   38.2580 O   0  0  0  0  0  0  0  0  0  0  0  0
   36.7980   33.9100   39.7430 O   0  0  0  0  0  0  0  0  0  0  0  0
   37.0370   29.1835   43.7449 H   0  0  0  0  0  0  0  0  0  0  0  0
   36.1799   26.9308   44.1903 H   0  0  0  0  0  0  0  0  0  0  0  0
   38.2789   26.0000   39.4380 H   0  0  0  0  0  0  0  0  0  0  0  0
   36.1968   24.3282   40.7438 H   0  0  0  0  0  0  0  0  0  0  0  0
   36.1918   25.0690   39.1544 H   0  0  0  0  0  0  0  0  0  0  0  0
   36.8147   22.4762   39.2676 H   0  0  0  0  0  0  0  0  0  0  0  0
   37.9149   23.4338   38.3144 H   0  0  0  0  0  0  0  0  0  0  0  0
   38.1557   22.4856   41.2000 H   0  0  0  0  0  0  0  0  0  0  0  0
   39.4064   22.4727   39.9537 H   0  0  0  0  0  0  0  0  0  0  0  0
   39.0695   24.4219   41.9143 H   0  0  0  0  0  0  0  0  0  0  0  0
   41.0056   24.9615   41.3259 H   0  0  0  0  0  0  0  0  0  0  0  0
   40.8476   23.9870   39.8252 H   0  0  0  0  0  0  0  0  0  0  0  0
   40.3733   25.7196   39.8252 H   0  0  0  0  0  0  0  0  0  0  0  0
   40.1602   29.9597   43.0368 H   0  0  0  0  0  0  0  0  0  0  0  0
   40.8611   32.2985   42.3859 H   0  0  0  0  0  0  0  0  0  0  0  0
   36.2788   34.3993   39.0566 H   0  0  0  0  0  0  0  0  0  0  0  0
  1  2  1  0
  2  3  2  0
  4  5  2  0
  4  3  1  0
  6  4  1  0
  7  6  1  0
  7  1  1  0
  8  7  2  0
  9 13  1  0
  9  6  1  0
 10  9  1  0
 11 10  1  0
 11 12  1  0
 12 13  1  0
 14 13  1  0
 15  1  1  0
 15 16  2  0
 17 16  1  0
 18 17  2  0
 19 20  2  0
 19 18  1  0
 20 15  1  0
 21 23  1  0
 21 19  1  0
 22 21  2  0
  2 24  1  0
  3 25  1  0
  9 26  1  6
 10 27  1  0
 10 28  1  0
 11 29  1  0
 11 30  1  0
 12 31  1  0
 12 32  1  0
 13 33  1  1
 14 34  1  0
 14 35  1  0
 14 36  1  0
 16 37  1  0
 17 38  1  0
 23 39  1  0
M  ISO  8  24  14  25  14  26  13  27  13  28  13  29  13  30  13  31  13
M  ISO  8  32  13  33  13  34   8  35   8  36   8  37  14  38  14  39   3
M  END
>  <minimizedAffinity>  (1) 
-5.68179941

>  <minimizedRMSD>  (1) 
0.678014636

$$$$
