
     RDKit          3D

 42 44  0  0  1  0  0  0  0  0999 V2000
   38.1010   28.7650   42.0670 N   0  0  0  0  0  0  0  0  0  0  0  0
   37.4260   28.5030   43.1770 C   0  0  0  0  0  0  0  0  0  0  0  0
   36.8730   27.2800   43.4490 C   0  0  0  0  0  0  0  0  0  0  0  0
   37.0010   26.2290   42.5420 C   0  0  0  0  0  0  0  0  0  0  0  0
   36.5000   25.1160   42.7840 O   0  0  0  0  0  0  0  0  0  0  0  0
   37.7060   26.5510   41.4140 N   0  0  0  0  0  0  0  0  0  0  0  0
   38.2230   27.7520   41.1960 C   0  0  0  0  0  0  0  0  0  0  0  0
   38.8550   27.9340   40.1180 O   0  0  0  0  0  0  0  0  0  0  0  0
   37.8620   25.4870   40.4450 C   0  0  2  0  0  0  0  0  0  0  0  0
   36.6700   24.7280   40.0820 C   0  0  0  0  0  0  0  0  0  0  0  0
   37.2580   23.4380   39.4970 C   0  0  0  0  0  0  0  0  0  0  0  0
   38.3280   23.1180   40.4700 C   0  0  0  0  0  0  0  0  0  0  0  0
   38.8750   24.4390   40.9120 C   0  0  1  0  0  0  0  0  0  0  0  0
   40.2620   24.7490   40.4390 C   0  0  0  0  0  0  0  0  0  0  0  0
   38.6750   30.0280   41.7830 C   0  0  0  0  0  0  0  0  0  0  0  0
   39.9630   30.4450   42.2220 C   0  0  0  0  0  0  0  0  0  0  0  0
   40.3870   31.7220   41.8580 C   0  0  0  0  0  0  0  0  0  0  0  0
   39.5780   32.4850   41.1240 N   0  0  0  0  0  0  0  0  0  0  0  0
   38.3640   32.0900   40.7110 C   0  0  0  0  0  0  0  0  0  0  0  0
   37.9390   30.8640   41.0510 N   0  0  0  0  0  0  0  0  0  0  0  0
   37.4740   32.9630   39.8890 C   0  0  0  0  0  0  0  0  0  0  0  0
   37.2940   32.3310   38.5020 C   0  0  0  0  0  0  0  0  0  0  0  0
   37.3038   29.3080   43.9167 H   0  0  0  0  0  0  0  0  0  0  0  0
   36.3240   27.1259   44.3897 H   0  0  0  0  0  0  0  0  0  0  0  0
   38.1820   26.0590   39.5616 H   0  0  0  0  0  0  0  0  0  0  0  0
   36.0499   24.5164   40.9656 H   0  0  0  0  0  0  0  0  0  0  0  0
   36.0078   25.2618   39.3845 H   0  0  0  0  0  0  0  0  0  0  0  0
   36.5039   22.6383   39.4549 H   0  0  0  0  0  0  0  0  0  0  0  0
   37.6165   23.5435   38.4624 H   0  0  0  0  0  0  0  0  0  0  0  0
   37.9153   22.5665   41.3276 H   0  0  0  0  0  0  0  0  0  0  0  0
   39.1074   22.4820   40.0249 H   0  0  0  0  0  0  0  0  0  0  0  0
   38.9960   24.4283   42.0053 H   0  0  0  0  0  0  0  0  0  0  0  0
   40.9211   24.8963   41.3072 H   0  0  0  0  0  0  0  0  0  0  0  0
   40.6376   23.9127   39.8312 H   0  0  0  0  0  0  0  0  0  0  0  0
   40.2458   25.6657   39.8312 H   0  0  0  0  0  0  0  0  0  0  0  0
   40.6008   29.7835   42.8267 H   0  0  0  0  0  0  0  0  0  0  0  0
   41.3736   32.0939   42.1717 H   0  0  0  0  0  0  0  0  0  0  0  0
   36.4946   33.0578   40.3807 H   0  0  0  0  0  0  0  0  0  0  0  0
   37.9253   33.9609   39.7862 H   0  0  0  0  0  0  0  0  0  0  0  0
   36.9943   31.2786   38.6147 H   0  0  0  0  0  0  0  0  0  0  0  0
   36.5156   32.8767   37.9486 H   0  0  0  0  0  0  0  0  0  0  0  0
   38.2432   32.3847   37.9486 H   0  0  0  0  0  0  0  0  0  0  0  0
  1  2  1  0
  2  3  2  0
  4  5  2  0
  4  3  1  0
  6  4  1  0
  7  6  1  0
  7  1  1  0
  8  7  2  0
  9 13  1  0
  9  6  1  0
 10  9  1  0
 11 10  1  0
 11 12  1  0
 12 13  1  0
 14 13  1  0
 15  1  1  0
 15 16  2  0
 17 16  1  0
 18 17  2  0
 19 20  2  0
 19 18  1  0
 20 15  1  0
 21 19  1  0
 22 21  1  0
  2 23  1  0
  3 24  1  0
  9 25  1  6
 10 26  1  0
 10 27  1  0
 11 28  1  0
 11 29  1  0
 12 30  1  0
 12 31  1  0
 13 32  1  1
 14 33  1  0
 14 34  1  0
 14 35  1  0
 16 36  1  0
 17 37  1  0
 21 38  1  0
 21 39  1  0
 22 40  1  0
 22 41  1  0
 22 42  1  0
M  ISO  8  23  14  24  14  25  13  26  13  27  13  28  13  29  13  30  13
M  ISO  8  31  13  32  13  33   8  34   8  35   8  36  14  37  14  38   8
M  ISO  4  39   8  40   8  41   8  42   8
M  END
>  <minimizedAffinity>  (1) 
-5.24514532

>  <minimizedRMSD>  (1) 
0.766245127

$$$$
