
     RDKit          3D

 51 55  0  0  1  0  0  0  0  0999 V2000
   39.8920   29.2060   42.4150 N   0  0  0  0  0  0  0  0  0  0  0  0
   38.8730   29.8160   43.0060 C   0  0  0  0  0  0  0  0  0  0  0  0
   37.5990   29.2960   43.0360 C   0  0  0  0  0  0  0  0  0  0  0  0
   37.3300   28.0690   42.4240 C   0  0  0  0  0  0  0  0  0  0  0  0
   36.1690   27.6000   42.4550 O   0  0  0  0  0  0  0  0  0  0  0  0
   38.3880   27.4790   41.8340 N   0  0  0  0  0  0  0  0  0  0  0  0
   39.6090   28.0270   41.8340 C   0  0  0  0  0  0  0  0  0  0  0  0
   40.5330   27.3880   41.2500 O   0  0  0  0  0  0  0  0  0  0  0  0
   38.1310   26.2170   41.2010 C   0  0  2  0  0  0  0  0  0  0  0  0
   37.0700   26.1380   40.2200 C   0  0  0  0  0  0  0  0  0  0  0  0
   36.7500   24.6440   40.1570 C   0  0  0  0  0  0  0  0  0  0  0  0
   36.7890   24.2520   41.5990 C   0  0  0  0  0  0  0  0  0  0  0  0
   37.8410   25.1130   42.2250 C   0  0  1  0  0  0  0  0  0  0  0  0
   39.0670   24.3810   42.6380 C   0  0  0  0  0  0  0  0  0  0  0  0
   41.2100   29.7330   42.3780 C   0  0  0  0  0  0  0  0  0  0  0  0
   42.2760   29.2100   43.1630 C   0  0  0  0  0  0  0  0  0  0  0  0
   43.5230   29.8260   43.0290 C   0  0  0  0  0  0  0  0  0  0  0  0
   43.6320   30.8600   42.1780 N   0  0  0  0  0  0  0  0  0  0  0  0
   42.6090   31.3390   41.4450 C   0  0  0  0  0  0  0  0  0  0  0  0
   41.4080   30.7690   41.5540 N   0  0  0  0  0  0  0  0  0  0  0  0
   42.7710   32.4100   40.5790 O   0  0  0  0  0  0  0  0  0  0  0  0
   42.6780   33.7280   40.9270 C   0  0  0  0  0  0  0  0  0  0  0  0
   43.5110   34.6400   41.5620 C   0  0  0  0  0  0  0  0  0  0  0  0
   42.9440   35.8450   41.6670 N   0  0  0  0  0  0  0  0  0  0  0  0
   41.7200   35.7420   41.0980 C   0  0  0  0  0  0  0  0  0  0  0  0
   40.7910   36.7540   40.9870 C   0  0  0  0  0  0  0  0  0  0  0  0
   39.5910   36.4850   40.3810 C   0  0  0  0  0  0  0  0  0  0  0  0
   39.3510   35.2120   39.9000 C   0  0  0  0  0  0  0  0  0  0  0  0
   40.3130   34.2300   40.0340 C   0  0  0  0  0  0  0  0  0  0  0  0
   41.5360   34.4520   40.6380 C   0  0  0  0  0  0  0  0  0  0  0  0
   39.0550   30.7840   43.4957 H   0  0  0  0  0  0  0  0  0  0  0  0
   36.7922   29.8466   43.5420 H   0  0  0  0  0  0  0  0  0  0  0  0
   39.0755   26.0837   40.6532 H   0  0  0  0  0  0  0  0  0  0  0  0
   36.1912   26.7147   40.5444 H   0  0  0  0  0  0  0  0  0  0  0  0
   37.3581   26.5552   39.2438 H   0  0  0  0  0  0  0  0  0  0  0  0
   35.7551   24.4671   39.7223 H   0  0  0  0  0  0  0  0  0  0  0  0
   37.4431   24.0701   39.5244 H   0  0  0  0  0  0  0  0  0  0  0  0
   35.8129   24.4340   42.0724 H   0  0  0  0  0  0  0  0  0  0  0  0
   37.0136   23.1823   41.7228 H   0  0  0  0  0  0  0  0  0  0  0  0
   37.4744   25.5230   43.1776 H   0  0  0  0  0  0  0  0  0  0  0  0
   39.1220   24.3482   43.7361 H   0  0  0  0  0  0  0  0  0  0  0  0
   39.0327   23.3554   42.2417 H   0  0  0  0  0  0  0  0  0  0  0  0
   39.9536   24.8977   42.2417 H   0  0  0  0  0  0  0  0  0  0  0  0
   42.1250   28.3596   43.8441 H   0  0  0  0  0  0  0  0  0  0  0  0
   44.3918   29.4740   43.6046 H   0  0  0  0  0  0  0  0  0  0  0  0
   44.5177   34.3988   41.9341 H   0  0  0  0  0  0  0  0  0  0  0  0
   43.3564   36.6858   42.0959 H   0  0  0  0  0  0  0  0  0  0  0  0
   41.0084   37.7591   41.3775 H   0  0  0  0  0  0  0  0  0  0  0  0
   38.8293   37.2721   40.2790 H   0  0  0  0  0  0  0  0  0  0  0  0
   38.3936   34.9807   39.4103 H   0  0  0  0  0  0  0  0  0  0  0  0
   40.0958   33.2254   39.6421 H   0  0  0  0  0  0  0  0  0  0  0  0
  1  2  1  0
  2  3  2  0
  4  5  2  0
  4  3  1  0
  6  7  1  0
  6  4  1  0
  7  1  1  0
  8  7  2  0
  9  6  1  0
  9 13  1  0
 10  9  1  0
 11 10  1  0
 11 12  1  0
 12 13  1  0
 13 14  1  0
 15  1  1  0
 15 16  2  0
 17 16  1  0
 18 17  2  0
 19 20  2  0
 19 18  1  0
 20 15  1  0
 21 22  1  0
 21 19  1  0
 22 23  2  0
 23 24  1  0
 25 24  1  0
 26 25  2  0
 27 26  1  0
 28 29  1  0
 28 27  2  0
 29 30  2  0
 30 22  1  0
 30 25  1  0
  2 31  1  0
  3 32  1  0
  9 33  1  6
 10 34  1  0
 10 35  1  0
 11 36  1  0
 11 37  1  0
 12 38  1  0
 12 39  1  0
 13 40  1  1
 14 41  1  0
 14 42  1  0
 14 43  1  0
 16 44  1  0
 17 45  1  0
 23 46  1  0
 24 47  1  0
 26 48  1  0
 27 49  1  0
 28 50  1  0
 29 51  1  0
M  ISO  8  31  14  32  14  33  13  34  13  35  13  36  13  37  13  38  13
M  ISO  8  39  13  40  13  41   8  42   8  43   8  44  14  45  14  46  14
M  ISO  5  47   9  48  14  49  14  50  14  51  14
M  END
>  <minimizedAffinity>  (1) 
-6.85521746

>  <minimizedRMSD>  (1) 
4.0010705

$$$$
