
     RDKit          3D

 45 48  0  0  1  0  0  0  0  0999 V2000
   38.8250   29.2450   42.3470 N   0  0  0  0  0  0  0  0  0  0  0  0
   38.0720   29.2350   43.4400 C   0  0  0  0  0  0  0  0  0  0  0  0
   37.1860   28.2230   43.7400 C   0  0  0  0  0  0  0  0  0  0  0  0
   37.0540   27.1430   42.8710 C   0  0  0  0  0  0  0  0  0  0  0  0
   36.2510   26.2170   43.1360 O   0  0  0  0  0  0  0  0  0  0  0  0
   37.8360   27.1840   41.7660 N   0  0  0  0  0  0  0  0  0  0  0  0
   38.6820   28.1950   41.5230 C   0  0  0  0  0  0  0  0  0  0  0  0
   39.3640   28.1360   40.4630 O   0  0  0  0  0  0  0  0  0  0  0  0
   37.7100   26.0780   40.8610 C   0  0  2  0  0  0  0  0  0  0  0  0
   36.5850   26.0590   39.9530 C   0  0  0  0  0  0  0  0  0  0  0  0
   36.4790   24.5810   39.5560 C   0  0  0  0  0  0  0  0  0  0  0  0
   36.7230   23.8740   40.8440 C   0  0  0  0  0  0  0  0  0  0  0  0
   37.6860   24.7350   41.6040 C   0  0  1  0  0  0  0  0  0  0  0  0
   39.0390   24.1420   41.7720 C   0  0  0  0  0  0  0  0  0  0  0  0
   39.7350   30.2810   42.0310 C   0  0  0  0  0  0  0  0  0  0  0  0
   41.0510   30.3610   42.5500 C   0  0  0  0  0  0  0  0  0  0  0  0
   41.8370   31.4400   42.1490 C   0  0  0  0  0  0  0  0  0  0  0  0
   41.3090   32.3380   41.3010 N   0  0  0  0  0  0  0  0  0  0  0  0
   40.0620   32.2500   40.8190 C   0  0  0  0  0  0  0  0  0  0  0  0
   39.2980   31.2190   41.1950 N   0  0  0  0  0  0  0  0  0  0  0  0
   39.5610   33.1990   39.9470 O   0  0  0  0  0  0  0  0  0  0  0  0
   39.8930   34.5250   40.1920 C   0  0  0  0  0  0  0  0  0  0  0  0
   39.0380   35.5860   39.9710 C   0  0  0  0  0  0  0  0  0  0  0  0
   39.4270   36.8830   40.2340 C   0  0  0  0  0  0  0  0  0  0  0  0
   40.6630   37.0880   40.7110 N   0  0  0  0  0  0  0  0  0  0  0  0
   41.5380   36.0690   40.9420 C   0  0  0  0  0  0  0  0  0  0  0  0
   41.1150   34.8200   40.6710 N   0  0  0  0  0  0  0  0  0  0  0  0
   38.1596   30.0773   44.1420 H   0  0  0  0  0  0  0  0  0  0  0  0
   36.5863   28.2681   44.6610 H   0  0  0  0  0  0  0  0  0  0  0  0
   38.6072   26.2269   40.2422 H   0  0  0  0  0  0  0  0  0  0  0  0
   35.6673   26.3993   40.4550 H   0  0  0  0  0  0  0  0  0  0  0  0
   36.7159   26.7288   39.0903 H   0  0  0  0  0  0  0  0  0  0  0  0
   35.4797   24.3481   39.1595 H   0  0  0  0  0  0  0  0  0  0  0  0
   37.1826   24.2924   38.7612 H   0  0  0  0  0  0  0  0  0  0  0  0
   35.7831   23.7631   41.4045 H   0  0  0  0  0  0  0  0  0  0  0  0
   37.1238   22.8625   40.6820 H   0  0  0  0  0  0  0  0  0  0  0  0
   37.3503   24.8517   42.6450 H   0  0  0  0  0  0  0  0  0  0  0  0
   39.2653   24.0428   42.8439 H   0  0  0  0  0  0  0  0  0  0  0  0
   39.0658   23.1496   41.2982 H   0  0  0  0  0  0  0  0  0  0  0  0
   39.7869   24.7948   41.2982 H   0  0  0  0  0  0  0  0  0  0  0  0
   41.4380   29.5999   43.2436 H   0  0  0  0  0  0  0  0  0  0  0  0
   42.8667   31.5536   42.5187 H   0  0  0  0  0  0  0  0  0  0  0  0
   38.0287   35.3938   39.5782 H   0  0  0  0  0  0  0  0  0  0  0  0
   38.7422   37.7255   40.0573 H   0  0  0  0  0  0  0  0  0  0  0  0
   42.5481   36.2592   41.3337 H   0  0  0  0  0  0  0  0  0  0  0  0
  1  2  1  0
  2  3  2  0
  4  5  2  0
  4  3  1  0
  6  4  1  0
  7  6  1  0
  7  1  1  0
  8  7  2  0
  9 13  1  0
  9  6  1  0
 10  9  1  0
 11 10  1  0
 11 12  1  0
 12 13  1  0
 13 14  1  0
 15  1  1  0
 15 16  2  0
 17 16  1  0
 18 17  2  0
 19 20  2  0
 19 18  1  0
 20 15  1  0
 21 22  1  0
 21 19  1  0
 22 27  1  0
 23 22  2  0
 23 24  1  0
 24 25  2  0
 25 26  1  0
 27 26  2  0
  2 28  1  0
  3 29  1  0
  9 30  1  6
 10 31  1  0
 10 32  1  0
 11 33  1  0
 11 34  1  0
 12 35  1  0
 12 36  1  0
 13 37  1  1
 14 38  1  0
 14 39  1  0
 14 40  1  0
 16 41  1  0
 17 42  1  0
 23 43  1  0
 24 44  1  0
 26 45  1  0
M  ISO  8  28  14  29  14  30  13  31  13  32  13  33  13  34  13  35  13
M  ISO  8  36  13  37  13  38   8  39   8  40   8  41  14  42  14  43  14
M  ISO  2  44  14  45  14
M  END
>  <minimizedAffinity>  (1) 
-6.28667736

>  <minimizedRMSD>  (1) 
2.01359415

$$$$
