
     RDKit          3D

 53 56  0  0  1  0  0  0  0  0999 V2000
   39.3600   29.3860   42.3800 N   0  0  0  0  0  0  0  0  0  0  0  0
   38.3520   29.5890   43.1900 C   0  0  0  0  0  0  0  0  0  0  0  0
   37.3750   28.6590   43.4500 C   0  0  0  0  0  0  0  0  0  0  0  0
   37.4290   27.4050   42.8310 C   0  0  0  0  0  0  0  0  0  0  0  0
   36.5480   26.5530   43.0620 O   0  0  0  0  0  0  0  0  0  0  0  0
   38.4830   27.2210   41.9990 N   0  0  0  0  0  0  0  0  0  0  0  0
   39.4120   28.1710   41.7790 C   0  0  0  0  0  0  0  0  0  0  0  0
   40.3480   27.8890   40.9850 O   0  0  0  0  0  0  0  0  0  0  0  0
   38.5680   25.9390   41.3440 C   0  0  2  0  0  0  0  0  0  0  0  0
   37.6110   25.6470   40.3000 C   0  0  0  0  0  0  0  0  0  0  0  0
   37.6180   24.1160   40.2260 C   0  0  0  0  0  0  0  0  0  0  0  0
   37.6770   23.7190   41.6530 C   0  0  0  0  0  0  0  0  0  0  0  0
   38.4670   24.7850   42.3520 C   0  0  1  0  0  0  0  0  0  0  0  0
   39.7950   24.3440   42.8430 C   0  0  0  0  0  0  0  0  0  0  0  0
   40.3680   30.3370   42.1060 C   0  0  0  0  0  0  0  0  0  0  0  0
   41.4370   30.6350   43.0000 C   0  0  0  0  0  0  0  0  0  0  0  0
   42.3670   31.5960   42.6070 C   0  0  0  0  0  0  0  0  0  0  0  0
   42.2000   32.1900   41.4030 N   0  0  0  0  0  0  0  0  0  0  0  0
   41.1910   31.8940   40.5850 C   0  0  0  0  0  0  0  0  0  0  0  0
   40.2940   30.9770   40.9450 N   0  0  0  0  0  0  0  0  0  0  0  0
   41.0520   32.5310   39.3440 O   0  0  0  0  0  0  0  0  0  0  0  0
   40.4840   33.7960   39.1920 C   0  0  0  0  0  0  0  0  0  0  0  0
   39.3100   34.0240   40.1230 C   0  0  0  0  0  0  0  0  0  0  0  0
   38.9410   35.4780   40.2220 C   0  0  0  0  0  0  0  0  0  0  0  0
   40.0640   36.2120   40.8830 C   0  0  0  0  0  0  0  0  0  0  0  0
   41.4160   35.6640   40.5770 C   0  0  0  0  0  0  0  0  0  0  0  0
   41.5040   34.8900   39.2850 C   0  0  0  0  0  0  0  0  0  0  0  0
   38.2830   30.5645   43.6936 H   0  0  0  0  0  0  0  0  0  0  0  0
   36.5539   28.8988   44.1416 H   0  0  0  0  0  0  0  0  0  0  0  0
   39.5515   26.0196   40.8580 H   0  0  0  0  0  0  0  0  0  0  0  0
   36.6121   26.0232   40.5659 H   0  0  0  0  0  0  0  0  0  0  0  0
   37.8641   26.1234   39.3414 H   0  0  0  0  0  0  0  0  0  0  0  0
   36.7026   23.7382   39.7471 H   0  0  0  0  0  0  0  0  0  0  0  0
   38.4476   23.7125   39.6269 H   0  0  0  0  0  0  0  0  0  0  0  0
   36.6626   23.6583   42.0741 H   0  0  0  0  0  0  0  0  0  0  0  0
   38.1431   22.7301   41.7748 H   0  0  0  0  0  0  0  0  0  0  0  0
   37.9578   25.0858   43.2795 H   0  0  0  0  0  0  0  0  0  0  0  0
   39.7975   24.3432   43.9430 H   0  0  0  0  0  0  0  0  0  0  0  0
   40.0032   23.3285   42.4751 H   0  0  0  0  0  0  0  0  0  0  0  0
   40.5694   25.0332   42.4751 H   0  0  0  0  0  0  0  0  0  0  0  0
   41.5254   30.1229   43.9695 H   0  0  0  0  0  0  0  0  0  0  0  0
   43.2127   31.8638   43.2574 H   0  0  0  0  0  0  0  0  0  0  0  0
   40.0767   33.8303   38.1708 H   0  0  0  0  0  0  0  0  0  0  0  0
   38.4429   33.4630   39.7444 H   0  0  0  0  0  0  0  0  0  0  0  0
   39.6012   33.6793   41.1262 H   0  0  0  0  0  0  0  0  0  0  0  0
   38.7731   35.8870   39.2148 H   0  0  0  0  0  0  0  0  0  0  0  0
   38.0193   35.5922   40.8114 H   0  0  0  0  0  0  0  0  0  0  0  0
   40.0335   37.2603   40.5512 H   0  0  0  0  0  0  0  0  0  0  0  0
   39.9172   36.1038   41.9678 H   0  0  0  0  0  0  0  0  0  0  0  0
   42.1224   36.5054   40.5213 H   0  0  0  0  0  0  0  0  0  0  0  0
   41.6530   34.9531   41.3822 H   0  0  0  0  0  0  0  0  0  0  0  0
   42.5064   34.4430   39.2108 H   0  0  0  0  0  0  0  0  0  0  0  0
   41.3092   35.5947   38.4632 H   0  0  0  0  0  0  0  0  0  0  0  0
  1  2  1  0
  2  3  2  0
  4  5  2  0
  4  3  1  0
  6  4  1  0
  7  6  1  0
  7  1  1  0
  8  7  2  0
  9  6  1  0
  9 13  1  0
 10  9  1  0
 11 10  1  0
 11 12  1  0
 12 13  1  0
 13 14  1  0
 15  1  1  0
 15 16  2  0
 17 16  1  0
 18 17  2  0
 19 20  2  0
 19 18  1  0
 20 15  1  0
 21 19  1  0
 22 27  1  0
 22 21  1  0
 22 23  1  0
 23 24  1  0
 24 25  1  0
 26 25  1  0
 27 26  1  0
  2 28  1  0
  3 29  1  0
  9 30  1  6
 10 31  1  0
 10 32  1  0
 11 33  1  0
 11 34  1  0
 12 35  1  0
 12 36  1  0
 13 37  1  1
 14 38  1  0
 14 39  1  0
 14 40  1  0
 16 41  1  0
 17 42  1  0
 22 43  1  0
 23 44  1  0
 23 45  1  0
 24 46  1  0
 24 47  1  0
 25 48  1  0
 25 49  1  0
 26 50  1  0
 26 51  1  0
 27 52  1  0
 27 53  1  0
M  ISO  8  28  14  29  14  30  13  31  13  32  13  33  13  34  13  35  13
M  ISO  8  36  13  37  13  38   8  39   8  40   8  41  14  42  14  43  13
M  ISO  8  44  13  45  13  46  13  47  13  48  13  49  13  50  13  51  13
M  ISO  2  52  13  53  13
M  END
>  <minimizedAffinity>  (1) 
-6.2846756

>  <minimizedRMSD>  (1) 
2.36388969

$$$$
