
     RDKit          3D

 50 53  0  0  1  0  0  0  0  0999 V2000
   37.9580   26.8970   41.4340 N   0  0  0  0  0  0  0  0  0  0  0  0
   37.2670   26.1720   42.2840 C   0  0  0  0  0  0  0  0  0  0  0  0
   36.9140   24.8610   42.0510 C   0  0  0  0  0  0  0  0  0  0  0  0
   37.2970   24.2400   40.8520 C   0  0  0  0  0  0  0  0  0  0  0  0
   36.9800   23.0550   40.6370 O   0  0  0  0  0  0  0  0  0  0  0  0
   38.0050   25.0180   40.0050 N   0  0  0  0  0  0  0  0  0  0  0  0
   38.3220   26.2960   40.2880 C   0  0  0  0  0  0  0  0  0  0  0  0
   38.9860   26.9300   39.4270 O   0  0  0  0  0  0  0  0  0  0  0  0
   38.4110   24.4080   38.7690 C   0  0  2  0  0  0  0  0  0  0  0  0
   37.3980   23.7070   37.9900 C   0  0  0  0  0  0  0  0  0  0  0  0
   38.2320   22.7790   37.0970 C   0  0  0  0  0  0  0  0  0  0  0  0
   39.2720   22.2740   38.0350 C   0  0  0  0  0  0  0  0  0  0  0  0
   39.5450   23.4080   38.9760 C   0  0  1  0  0  0  0  0  0  0  0  0
   40.8920   24.0450   38.8190 C   0  0  0  0  0  0  0  0  0  0  0  0
   38.3260   28.2460   41.6660 C   0  0  0  0  0  0  0  0  0  0  0  0
   38.9050   28.7240   42.8800 C   0  0  0  0  0  0  0  0  0  0  0  0
   39.2140   30.0760   42.9670 C   0  0  0  0  0  0  0  0  0  0  0  0
   38.9550   30.8650   41.9030 N   0  0  0  0  0  0  0  0  0  0  0  0
   38.4070   30.3940   40.7620 C   0  0  0  0  0  0  0  0  0  0  0  0
   38.1070   29.0960   40.6770 N   0  0  0  0  0  0  0  0  0  0  0  0
   38.1590   31.2470   39.6990 O   0  0  0  0  0  0  0  0  0  0  0  0
   39.8800   34.9560   39.8830 C   0  0  0  0  0  0  0  0  0  0  0  0
   38.5480   34.8360   40.2230 C   0  0  0  0  0  0  0  0  0  0  0  0
   37.9300   33.5880   40.1720 C   0  0  0  0  0  0  0  0  0  0  0  0
   38.7100   32.5250   39.7740 C   0  0  0  0  0  0  0  0  0  0  0  0
   40.0360   32.5920   39.4260 C   0  0  0  0  0  0  0  0  0  0  0  0
   40.6240   33.8610   39.4890 C   0  0  0  0  0  0  0  0  0  0  0  0
   40.5550   36.5440   39.9780 S   0  0  0  0  0  0  0  0  0  0  0  0
   41.3160   36.7480   41.2590 O   0  0  0  0  0  0  0  0  0  0  0  0
   39.3970   37.5210   39.9500 O   0  0  0  0  0  0  0  0  0  0  0  0
   36.9540   26.6359   43.2310 H   0  0  0  0  0  0  0  0  0  0  0  0
   36.3345   24.3033   42.8014 H   0  0  0  0  0  0  0  0  0  0  0  0
   38.7041   25.2977   38.1923 H   0  0  0  0  0  0  0  0  0  0  0  0
   36.7266   23.1296   38.6426 H   0  0  0  0  0  0  0  0  0  0  0  0
   36.7431   24.3833   37.4211 H   0  0  0  0  0  0  0  0  0  0  0  0
   37.6209   21.9548   36.7006 H   0  0  0  0  0  0  0  0  0  0  0  0
   38.6484   23.2818   36.2117 H   0  0  0  0  0  0  0  0  0  0  0  0
   38.9001   21.3977   38.5862 H   0  0  0  0  0  0  0  0  0  0  0  0
   40.1812   21.9555   37.5041 H   0  0  0  0  0  0  0  0  0  0  0  0
   39.5761   23.0239   40.0063 H   0  0  0  0  0  0  0  0  0  0  0  0
   41.3199   24.2473   39.8120 H   0  0  0  0  0  0  0  0  0  0  0  0
   41.5565   23.3657   38.2649 H   0  0  0  0  0  0  0  0  0  0  0  0
   40.7886   24.9896   38.2649 H   0  0  0  0  0  0  0  0  0  0  0  0
   39.1007   28.0427   43.7212 H   0  0  0  0  0  0  0  0  0  0  0  0
   39.6594   30.4936   43.8820 H   0  0  0  0  0  0  0  0  0  0  0  0
   37.9758   35.7227   40.5333 H   0  0  0  0  0  0  0  0  0  0  0  0
   36.8703   33.4582   40.4369 H   0  0  0  0  0  0  0  0  0  0  0  0
   40.6029   31.7017   39.1161 H   0  0  0  0  0  0  0  0  0  0  0  0
   41.6840   33.9867   39.2233 H   0  0  0  0  0  0  0  0  0  0  0  0
   41.4241   36.7296   38.9353 H   0  0  0  0  0  0  0  0  0  0  0  0
  1 15  1  0
  1  2  1  0
  3  2  2  0
  4  3  1  0
  5  4  2  0
  6  7  1  0
  6  4  1  0
  7  1  1  0
  8  7  2  0
  9 13  1  0
  9  6  1  0
 10  9  1  0
 11 10  1  0
 11 12  1  0
 12 13  1  0
 14 13  1  0
 15 16  2  0
 16 17  1  0
 18 17  2  0
 19 18  1  0
 20 19  2  0
 20 15  1  0
 21 25  1  0
 21 19  1  0
 22 28  1  0
 22 23  2  0
 24 23  1  0
 25 24  2  0
 26 27  2  0
 26 25  1  0
 27 22  1  0
 28 29  2  0
 30 28  2  0
  2 31  1  0
  3 32  1  0
  9 33  1  6
 10 34  1  0
 10 35  1  0
 11 36  1  0
 11 37  1  0
 12 38  1  0
 12 39  1  0
 13 40  1  1
 14 41  1  0
 14 42  1  0
 14 43  1  0
 16 44  1  0
 17 45  1  0
 23 46  1  0
 24 47  1  0
 26 48  1  0
 27 49  1  0
 28 50  1  0
M  ISO  8  31  14  32  14  33  13  34  13  35  13  36  13  37  13  38  13
M  ISO  8  39  13  40  13  41   8  42   8  43   8  44  14  45  14  46  14
M  ISO  4  47  14  48  14  49  14  50  11
M  END
>  <minimizedAffinity>  (1) 
-6.11941719

>  <minimizedRMSD>  (1) 
2.52944827

$$$$
