
     RDKit          3D

 46 48  0  0  1  0  0  0  0  0999 V2000
   38.9320   29.3430   42.3850 N   0  0  0  0  0  0  0  0  0  0  0  0
   38.0990   29.3980   43.4000 C   0  0  0  0  0  0  0  0  0  0  0  0
   37.2270   28.3910   43.7060 C   0  0  0  0  0  0  0  0  0  0  0  0
   37.1910   27.2260   42.9210 C   0  0  0  0  0  0  0  0  0  0  0  0
   36.3960   26.3100   43.2020 O   0  0  0  0  0  0  0  0  0  0  0  0
   38.0610   27.2060   41.8860 N   0  0  0  0  0  0  0  0  0  0  0  0
   38.8970   28.2220   41.6280 C   0  0  0  0  0  0  0  0  0  0  0  0
   39.6710   28.0980   40.6320 O   0  0  0  0  0  0  0  0  0  0  0  0
   38.0430   26.0250   41.0690 C   0  0  2  0  0  0  0  0  0  0  0  0
   36.8270   25.7110   40.3490 C   0  0  0  0  0  0  0  0  0  0  0  0
   36.9740   24.2150   40.0460 C   0  0  0  0  0  0  0  0  0  0  0  0
   37.5430   23.6790   41.3180 C   0  0  0  0  0  0  0  0  0  0  0  0
   38.3950   24.7730   41.8610 C   0  0  1  0  0  0  0  0  0  0  0  0
   39.8650   24.4720   41.8460 C   0  0  0  0  0  0  0  0  0  0  0  0
   39.8480   30.3850   42.0500 C   0  0  0  0  0  0  0  0  0  0  0  0
   41.1570   30.4950   42.6060 C   0  0  0  0  0  0  0  0  0  0  0  0
   41.9420   31.5710   42.1820 C   0  0  0  0  0  0  0  0  0  0  0  0
   41.4270   32.4290   41.2850 N   0  0  0  0  0  0  0  0  0  0  0  0
   40.1920   32.3010   40.7780 C   0  0  0  0  0  0  0  0  0  0  0  0
   39.4350   31.2820   41.1750 N   0  0  0  0  0  0  0  0  0  0  0  0
   39.7060   33.2250   39.8490 O   0  0  0  0  0  0  0  0  0  0  0  0
   38.6600   34.0540   40.3010 C   0  0  0  0  0  0  0  0  0  0  0  0
   37.3860   33.7630   39.5510 C   0  0  0  0  0  0  0  0  0  0  0  0
   39.0210   35.5220   40.1950 C   0  0  0  0  0  0  0  0  0  0  0  0
   38.1038   30.2973   44.0334 H   0  0  0  0  0  0  0  0  0  0  0  0
   36.5520   28.4927   44.5686 H   0  0  0  0  0  0  0  0  0  0  0  0
   38.7991   26.2999   40.3188 H   0  0  0  0  0  0  0  0  0  0  0  0
   35.9401   25.9020   40.9710 H   0  0  0  0  0  0  0  0  0  0  0  0
   36.6916   26.3225   39.4447 H   0  0  0  0  0  0  0  0  0  0  0  0
   35.9988   23.7573   39.8234 H   0  0  0  0  0  0  0  0  0  0  0  0
   37.5991   24.0065   39.1652 H   0  0  0  0  0  0  0  0  0  0  0  0
   36.7380   23.4307   42.0254 H   0  0  0  0  0  0  0  0  0  0  0  0
   38.1181   22.7560   41.1524 H   0  0  0  0  0  0  0  0  0  0  0  0
   38.1839   24.9083   42.9321 H   0  0  0  0  0  0  0  0  0  0  0  0
   40.2343   24.3964   42.8794 H   0  0  0  0  0  0  0  0  0  0  0  0
   40.0390   23.5196   41.3238 H   0  0  0  0  0  0  0  0  0  0  0  0
   40.3993   25.2794   41.3238 H   0  0  0  0  0  0  0  0  0  0  0  0
   41.5327   29.7642   43.3373 H   0  0  0  0  0  0  0  0  0  0  0  0
   42.9599   31.7125   42.5743 H   0  0  0  0  0  0  0  0  0  0  0  0
   38.4983   33.8296   41.3657 H   0  0  0  0  0  0  0  0  0  0  0  0
   36.5727   33.5772   40.2680 H   0  0  0  0  0  0  0  0  0  0  0  0
   37.1276   34.6253   38.9187 H   0  0  0  0  0  0  0  0  0  0  0  0
   37.5276   32.8741   38.9187 H   0  0  0  0  0  0  0  0  0  0  0  0
   39.1257   35.9476   41.2039 H   0  0  0  0  0  0  0  0  0  0  0  0
   39.9718   35.6275   39.6521 H   0  0  0  0  0  0  0  0  0  0  0  0
   38.2275   36.0564   39.6521 H   0  0  0  0  0  0  0  0  0  0  0  0
  1  2  1  0
  2  3  2  0
  4  5  2  0
  4  3  1  0
  6  4  1  0
  7  6  1  0
  7  1  1  0
  8  7  2  0
  9 13  1  0
  9  6  1  0
 10  9  1  0
 11 10  1  0
 11 12  1  0
 12 13  1  0
 14 13  1  0
 15  1  1  0
 15 16  2  0
 17 16  1  0
 18 17  2  0
 19 20  2  0
 19 18  1  0
 20 15  1  0
 21 22  1  0
 21 19  1  0
 23 22  1  0
 24 22  1  0
  2 25  1  0
  3 26  1  0
  9 27  1  6
 10 28  1  0
 10 29  1  0
 11 30  1  0
 11 31  1  0
 12 32  1  0
 12 33  1  0
 13 34  1  1
 14 35  1  0
 14 36  1  0
 14 37  1  0
 16 38  1  0
 17 39  1  0
 22 40  1  0
 23 41  1  0
 23 42  1  0
 23 43  1  0
 24 44  1  0
 24 45  1  0
 24 46  1  0
M  ISO  8  25  14  26  14  27  13  28  13  29  13  30  13  31  13  32  13
M  ISO  8  33  13  34  13  35   8  36   8  37   8  38  14  39  14  40   8
M  ISO  6  41   8  42   8  43   8  44   8  45   8  46   8
M  END
>  <minimizedAffinity>  (1) 
-5.59246063

>  <minimizedRMSD>  (1) 
1.6371119

$$$$
