
     RDKit          3D

 40 42  0  0  1  0  0  0  0  0999 V2000
   38.5930   29.0230   42.1570 N   0  0  0  0  0  0  0  0  0  0  0  0
   37.8780   28.9450   43.2610 C   0  0  0  0  0  0  0  0  0  0  0  0
   37.1390   27.8360   43.5960 C   0  0  0  0  0  0  0  0  0  0  0  0
   37.1200   26.7180   42.7530 C   0  0  0  0  0  0  0  0  0  0  0  0
   36.4450   25.7160   43.0650 O   0  0  0  0  0  0  0  0  0  0  0  0
   37.8690   26.8420   41.6280 N   0  0  0  0  0  0  0  0  0  0  0  0
   38.5680   27.9380   41.3490 C   0  0  0  0  0  0  0  0  0  0  0  0
   39.2320   27.9350   40.2660 O   0  0  0  0  0  0  0  0  0  0  0  0
   37.8620   25.7100   40.7520 C   0  0  2  0  0  0  0  0  0  0  0  0
   36.5870   25.1450   40.3540 C   0  0  0  0  0  0  0  0  0  0  0  0
   36.9450   23.7280   39.9010 C   0  0  0  0  0  0  0  0  0  0  0  0
   37.9250   23.2930   40.9420 C   0  0  0  0  0  0  0  0  0  0  0  0
   38.6650   24.5320   41.3230 C   0  0  1  0  0  0  0  0  0  0  0  0
   40.0940   24.5500   40.8990 C   0  0  0  0  0  0  0  0  0  0  0  0
   39.3620   30.1550   41.7930 C   0  0  0  0  0  0  0  0  0  0  0  0
   40.6220   30.4860   42.3990 C   0  0  0  0  0  0  0  0  0  0  0  0
   41.2710   31.6300   41.9430 C   0  0  0  0  0  0  0  0  0  0  0  0
   40.6850   32.3560   40.9650 N   0  0  0  0  0  0  0  0  0  0  0  0
   39.5020   32.0210   40.4150 C   0  0  0  0  0  0  0  0  0  0  0  0
   38.8660   30.9270   40.8410 N   0  0  0  0  0  0  0  0  0  0  0  0
   38.9540   32.8040   39.4170 O   0  0  0  0  0  0  0  0  0  0  0  0
   37.8100   33.5720   39.7950 C   0  0  0  0  0  0  0  0  0  0  0  0
   36.9620   33.8060   38.7310 F   0  0  0  0  0  0  0  0  0  0  0  0
   37.0390   32.8540   40.7170 F   0  0  0  0  0  0  0  0  0  0  0  0
   38.1570   34.7930   40.3300 F   0  0  0  0  0  0  0  0  0  0  0  0
   37.8724   29.8063   43.9452 H   0  0  0  0  0  0  0  0  0  0  0  0
   36.5595   27.8264   44.5309 H   0  0  0  0  0  0  0  0  0  0  0  0
   38.3052   26.1714   39.8572 H   0  0  0  0  0  0  0  0  0  0  0  0
   35.8867   25.1208   41.2019 H   0  0  0  0  0  0  0  0  0  0  0  0
   36.0873   25.7307   39.5683 H   0  0  0  0  0  0  0  0  0  0  0  0
   36.0582   23.0772   39.8934 H   0  0  0  0  0  0  0  0  0  0  0  0
   37.3443   23.6829   38.8770 H   0  0  0  0  0  0  0  0  0  0  0  0
   37.4014   22.8728   41.8134 H   0  0  0  0  0  0  0  0  0  0  0  0
   38.6001   22.5084   40.5696 H   0  0  0  0  0  0  0  0  0  0  0  0
   38.7372   24.5933   42.4189 H   0  0  0  0  0  0  0  0  0  0  0  0
   40.7404   24.5581   41.7890 H   0  0  0  0  0  0  0  0  0  0  0  0
   40.3093   23.6545   40.2976 H   0  0  0  0  0  0  0  0  0  0  0  0
   40.2867   25.4506   40.2976 H   0  0  0  0  0  0  0  0  0  0  0  0
   41.0568   29.8600   43.1922 H   0  0  0  0  0  0  0  0  0  0  0  0
   42.2381   31.9360   42.3686 H   0  0  0  0  0  0  0  0  0  0  0  0
  1  2  1  0
  2  3  2  0
  4  5  2  0
  4  3  1  0
  6  4  1  0
  7  6  1  0
  7  1  1  0
  8  7  2  0
  9 13  1  0
  9  6  1  0
 10  9  1  0
 11 10  1  0
 11 12  1  0
 12 13  1  0
 14 13  1  0
 15  1  1  0
 15 16  2  0
 17 16  1  0
 18 17  2  0
 19 20  2  0
 19 18  1  0
 20 15  1  0
 21 22  1  0
 21 19  1  0
 22 25  1  0
 22 24  1  0
 23 22  1  0
  2 26  1  0
  3 27  1  0
  9 28  1  6
 10 29  1  0
 10 30  1  0
 11 31  1  0
 11 32  1  0
 12 33  1  0
 12 34  1  0
 13 35  1  1
 14 36  1  0
 14 37  1  0
 14 38  1  0
 16 39  1  0
 17 40  1  0
M  ISO  8  26  14  27  14  28  13  29  13  30  13  31  13  32  13  33  13
M  ISO  7  34  13  35  13  36   8  37   8  38   8  39  14  40  14
M  END
>  <minimizedAffinity>  (1) 
-5.47705126

>  <minimizedRMSD>  (1) 
1.33036876

$$$$
