
     RDKit          3D

 31 34  0  0  0  0  0  0  0  0999 V2000
   40.9210   25.7960   43.7280 C   0  0  0  0  0  0  0  0  0  0  0  0
   39.9170   24.9570   43.1660 C   0  0  0  0  0  0  0  0  0  0  0  0
   38.9260   25.5540   42.3860 C   0  0  0  0  0  0  0  0  0  0  0  0
   38.9620   26.8980   42.1970 N   0  0  0  0  0  0  0  0  0  0  0  0
   39.9300   27.6650   42.7450 C   0  0  0  0  0  0  0  0  0  0  0  0
   40.9030   27.1190   43.5060 N   0  0  0  0  0  0  0  0  0  0  0  0
   39.9920   29.0660   42.5650 N   0  0  0  0  0  0  0  0  0  0  0  0
   41.1210   29.6610   42.9620 N   0  0  0  0  0  0  0  0  0  0  0  0
   41.0190   30.9910   42.7220 C   0  0  0  0  0  0  0  0  0  0  0  0
   39.7780   31.1860   42.1610 C   0  0  0  0  0  0  0  0  0  0  0  0
   39.1290   29.9660   42.0620 C   0  0  0  0  0  0  0  0  0  0  0  0
   37.8630   29.6160   41.5700 N   0  0  0  0  0  0  0  0  0  0  0  0
   36.7440   29.1030   42.1170 C   0  0  0  0  0  0  0  0  0  0  0  0
   35.8160   28.9760   41.1360 N   0  0  0  0  0  0  0  0  0  0  0  0
   36.3450   29.4110   39.9640 C   0  0  0  0  0  0  0  0  0  0  0  0
   35.8000   29.4810   38.6990 C   0  0  0  0  0  0  0  0  0  0  0  0
   34.6250   29.1150   38.4380 O   0  0  0  0  0  0  0  0  0  0  0  0
   36.5340   29.9610   37.6630 N   0  0  0  0  0  0  0  0  0  0  0  0
   37.7880   30.3490   37.9510 C   0  0  0  0  0  0  0  0  0  0  0  0
   38.7170   30.8790   37.0030 N   0  0  0  0  0  0  0  0  0  0  0  0
   38.3150   30.2830   39.1670 N   0  0  0  0  0  0  0  0  0  0  0  0
   37.6510   29.8200   40.2440 C   0  0  0  0  0  0  0  0  0  0  0  0
   41.7163   25.3566   44.3480 H   0  0  0  0  0  0  0  0  0  0  0  0
   39.9225   23.8711   43.3415 H   0  0  0  0  0  0  0  0  0  0  0  0
   38.1294   24.9463   41.9321 H   0  0  0  0  0  0  0  0  0  0  0  0
   41.7764   31.7602   42.9333 H   0  0  0  0  0  0  0  0  0  0  0  0
   39.3670   32.1552   41.8422 H   0  0  0  0  0  0  0  0  0  0  0  0
   36.6068   28.8340   43.1747 H   0  0  0  0  0  0  0  0  0  0  0  0
   36.1511   30.0243   36.7089 H   0  0  0  0  0  0  0  0  0  0  0  0
   39.6623   31.1535   37.3064 H   0  0  0  0  0  0  0  0  0  0  0  0
   38.4412   30.9865   36.0164 H   0  0  0  0  0  0  0  0  0  0  0  0
  2  1  2  0
  3  2  1  0
  4  3  2  0
  4  5  1  0
  5  6  2  0
  6  1  1  0
  7  5  1  0
  7  8  1  0
  9  8  2  0
 10  9  1  0
 11 10  2  0
 11  7  1  0
 12 11  1  0
 12 13  1  0
 14 13  2  0
 15 22  2  0
 15 14  1  0
 16 15  1  0
 17 16  2  0
 18 19  1  0
 18 16  1  0
 19 21  2  0
 20 19  1  0
 21 22  1  0
 22 12  1  0
  1 23  1  0
  2 24  1  0
  3 25  1  0
  9 26  1  0
 10 27  1  0
 13 28  1  0
 18 29  1  0
 20 30  1  0
 20 31  1  0
M  ISO  7  23  14  24  14  25  14  26  14  27  14  28  14  29   9
M  END
>  <minimizedAffinity>  (1) 
-5.15896606

>  <minimizedRMSD>  (1) 
3.39931655

$$$$
