
     RDKit          3D

 46 48  0  0  1  0  0  0  0  0999 V2000
   39.4190   30.8770   39.1350 N   0  0  0  0  0  0  0  0  0  0  0  0
   38.5360   31.8830   39.1460 C   0  0  0  0  0  0  0  0  0  0  0  0
   37.4090   31.8700   39.9420 C   0  0  0  0  0  0  0  0  0  0  0  0
   37.1490   30.7870   40.7760 C   0  0  0  0  0  0  0  0  0  0  0  0
   36.1350   30.7820   41.4890 O   0  0  0  0  0  0  0  0  0  0  0  0
   38.0750   29.7880   40.7320 N   0  0  0  0  0  0  0  0  0  0  0  0
   39.1530   29.8510   39.9400 C   0  0  0  0  0  0  0  0  0  0  0  0
   39.9590   28.8570   39.9740 O   0  0  0  0  0  0  0  0  0  0  0  0
   37.8280   28.6620   41.5830 C   0  0  2  0  0  0  0  0  0  0  0  0
   36.4640   28.1880   41.6990 C   0  0  0  0  0  0  0  0  0  0  0  0
   36.4790   27.3890   43.0090 C   0  0  0  0  0  0  0  0  0  0  0  0
   37.3050   28.2490   43.9000 C   0  0  0  0  0  0  0  0  0  0  0  0
   38.3160   28.9090   43.0160 C   0  0  1  0  0  0  0  0  0  0  0  0
   39.7140   28.4300   43.2160 C   0  0  0  0  0  0  0  0  0  0  0  0
   40.5770   30.8800   38.3260 C   0  0  0  0  0  0  0  0  0  0  0  0
   40.8910   29.8560   37.3870 C   0  0  0  0  0  0  0  0  0  0  0  0
   42.0690   29.9790   36.6570 C   0  0  0  0  0  0  0  0  0  0  0  0
   42.8490   31.0540   36.8760 N   0  0  0  0  0  0  0  0  0  0  0  0
   42.5410   31.9900   37.7490 C   0  0  0  0  0  0  0  0  0  0  0  0
   41.4150   31.8810   38.4520 N   0  0  0  0  0  0  0  0  0  0  0  0
   43.3570   33.1200   37.9830 O   0  0  0  0  0  0  0  0  0  0  0  0
   42.8260   34.1640   38.6960 C   0  0  0  0  0  0  0  0  0  0  0  0
   42.3800   35.0210   37.8110 O   0  0  0  0  0  0  0  0  0  0  0  0
   42.5370   34.7290   40.0140 N   0  0  0  0  0  0  0  0  0  0  0  0
   41.3250   35.3200   40.3860 C   0  0  0  0  0  0  0  0  0  0  0  0
   40.3560   35.3980   39.5410 N   0  0  0  0  0  0  0  0  0  0  0  0
   41.4350   35.7520   41.7570 N   0  0  0  0  0  0  0  0  0  0  0  0
   39.4890   35.8500   39.8920 H   0  0  0  0  0  0  0  0  0  0  0  0
   38.7155   32.7523   38.4963 H   0  0  0  0  0  0  0  0  0  0  0  0
   36.7121   32.7207   39.9171 H   0  0  0  0  0  0  0  0  0  0  0  0
   38.3955   27.8822   41.0540 H   0  0  0  0  0  0  0  0  0  0  0  0
   35.7580   29.0294   41.7586 H   0  0  0  0  0  0  0  0  0  0  0  0
   36.1405   27.5907   40.8338 H   0  0  0  0  0  0  0  0  0  0  0  0
   35.4623   27.2624   43.4093 H   0  0  0  0  0  0  0  0  0  0  0  0
   36.8727   26.3681   42.8960 H   0  0  0  0  0  0  0  0  0  0  0  0
   36.6756   29.0054   44.3917 H   0  0  0  0  0  0  0  0  0  0  0  0
   37.7877   27.6599   44.6937 H   0  0  0  0  0  0  0  0  0  0  0  0
   38.3813   29.9799   43.2589 H   0  0  0  0  0  0  0  0  0  0  0  0
   39.9262   28.3573   44.2929 H   0  0  0  0  0  0  0  0  0  0  0  0
   39.8324   27.4400   42.7513 H   0  0  0  0  0  0  0  0  0  0  0  0
   40.4146   29.1393   42.7513 H   0  0  0  0  0  0  0  0  0  0  0  0
   40.2226   28.9943   37.2434 H   0  0  0  0  0  0  0  0  0  0  0  0
   42.3561   29.2160   35.9185 H   0  0  0  0  0  0  0  0  0  0  0  0
   43.2834   34.6885   40.7226 H   0  0  0  0  0  0  0  0  0  0  0  0
   40.6379   36.2150   42.2166 H   0  0  0  0  0  0  0  0  0  0  0  0
   42.3107   35.5977   42.2769 H   0  0  0  0  0  0  0  0  0  0  0  0
  1  2  1  0
  1  7  1  0
  2  3  2  0
  3  4  1  0
  4  5  2  0
  6  4  1  0
  6  9  1  0
  7  8  2  0
  7  6  1  0
  9 10  1  0
  9 13  1  0
 10 11  1  0
 11 12  1  0
 13 14  1  0
 13 12  1  0
 15 20  1  0
 15  1  1  0
 16 15  2  0
 17 18  2  0
 17 16  1  0
 18 19  1  0
 19 21  1  0
 19 20  2  0
 21 22  1  0
 22 24  1  0
 23 22  2  0
 24 25  1  0
 25 27  1  0
 26 28  1  0
 26 25  2  0
  2 29  1  0
  3 30  1  0
  9 31  1  6
 10 32  1  0
 10 33  1  0
 11 34  1  0
 11 35  1  0
 12 36  1  0
 12 37  1  0
 13 38  1  1
 14 39  1  0
 14 40  1  0
 14 41  1  0
 16 42  1  0
 17 43  1  0
 24 44  1  0
 27 45  1  0
 27 46  1  0
M  ISO  8  29  14  30  14  31  13  32  13  33  13  34  13  35  13  36  13
M  ISO  7  37  13  38  13  39   8  40   8  41   8  42  14  43  14
M  END
>  <minimizedAffinity>  (1) 
-6.65459442

>  <minimizedRMSD>  (1) 
4.29681635

$$$$
