
     RDKit          3D

 41 43  0  0  1  0  0  0  0  0999 V2000
   39.0480   29.3610   42.3820 N   0  0  0  0  0  0  0  0  0  0  0  0
   38.2020   29.4560   43.4140 C   0  0  0  0  0  0  0  0  0  0  0  0
   37.2720   28.4810   43.6990 C   0  0  0  0  0  0  0  0  0  0  0  0
   37.1840   27.3320   42.8950 C   0  0  0  0  0  0  0  0  0  0  0  0
   36.3480   26.4580   43.1540 O   0  0  0  0  0  0  0  0  0  0  0  0
   38.0650   27.2880   41.8630 N   0  0  0  0  0  0  0  0  0  0  0  0
   38.9490   28.2650   41.6320 C   0  0  0  0  0  0  0  0  0  0  0  0
   39.7290   28.1160   40.6310 O   0  0  0  0  0  0  0  0  0  0  0  0
   37.9880   26.1220   41.0350 C   0  0  2  0  0  0  0  0  0  0  0  0
   36.8140   25.9410   40.2130 C   0  0  0  0  0  0  0  0  0  0  0  0
   36.8320   24.4380   39.9000 C   0  0  0  0  0  0  0  0  0  0  0  0
   37.2300   23.8420   41.2080 C   0  0  0  0  0  0  0  0  0  0  0  0
   38.1630   24.8250   41.8490 C   0  0  1  0  0  0  0  0  0  0  0  0
   39.5890   24.3890   41.9120 C   0  0  0  0  0  0  0  0  0  0  0  0
   40.0070   30.3590   42.0800 C   0  0  0  0  0  0  0  0  0  0  0  0
   41.3560   30.3310   42.5380 C   0  0  0  0  0  0  0  0  0  0  0  0
   42.1840   31.3830   42.1640 C   0  0  0  0  0  0  0  0  0  0  0  0
   41.6690   32.3560   41.4010 N   0  0  0  0  0  0  0  0  0  0  0  0
   40.4180   32.3720   40.9840 C   0  0  0  0  0  0  0  0  0  0  0  0
   39.6190   31.3740   41.3340 N   0  0  0  0  0  0  0  0  0  0  0  0
   39.9160   33.4060   40.1900 O   0  0  0  0  0  0  0  0  0  0  0  0
   38.5370   33.5830   40.1750 C   0  0  0  0  0  0  0  0  0  0  0  0
   38.3730   34.8660   40.1000 O   0  0  0  0  0  0  0  0  0  0  0  0
   37.1000   33.3330   40.1860 N   0  0  0  0  0  0  0  0  0  0  0  0
   38.2510   30.3458   44.0588 H   0  0  0  0  0  0  0  0  0  0  0  0
   36.5962   28.6021   44.5584 H   0  0  0  0  0  0  0  0  0  0  0  0
   38.8198   26.3188   40.3426 H   0  0  0  0  0  0  0  0  0  0  0  0
   35.9019   26.2186   40.7617 H   0  0  0  0  0  0  0  0  0  0  0  0
   36.8190   26.5694   39.3101 H   0  0  0  0  0  0  0  0  0  0  0  0
   35.8381   24.0848   39.5879 H   0  0  0  0  0  0  0  0  0  0  0  0
   37.5052   24.1699   39.0724 H   0  0  0  0  0  0  0  0  0  0  0  0
   36.3444   23.6876   41.8419 H   0  0  0  0  0  0  0  0  0  0  0  0
   37.7114   22.8623   41.0722 H   0  0  0  0  0  0  0  0  0  0  0  0
   37.9075   24.9486   42.9118 H   0  0  0  0  0  0  0  0  0  0  0  0
   39.8975   24.2947   42.9636 H   0  0  0  0  0  0  0  0  0  0  0  0
   39.6977   23.4166   41.4094 H   0  0  0  0  0  0  0  0  0  0  0  0
   40.2229   25.1344   41.4094 H   0  0  0  0  0  0  0  0  0  0  0  0
   41.7285   29.5071   43.1645 H   0  0  0  0  0  0  0  0  0  0  0  0
   43.2352   31.4156   42.4864 H   0  0  0  0  0  0  0  0  0  0  0  0
   36.4396   34.1218   40.1357 H   0  0  0  0  0  0  0  0  0  0  0  0
   36.7456   32.3676   40.2441 H   0  0  0  0  0  0  0  0  0  0  0  0
  1  2  1  0
  2  3  2  0
  4  5  2  0
  4  3  1  0
  6  4  1  0
  7  6  1  0
  7  1  1  0
  8  7  2  0
  9 13  1  0
  9  6  1  0
 10  9  1  0
 11 10  1  0
 11 12  1  0
 12 13  1  0
 13 14  1  0
 15  1  1  0
 15 16  2  0
 17 16  1  0
 18 17  2  0
 19 20  2  0
 19 18  1  0
 20 15  1  0
 21 19  1  0
 22 24  1  0
 22 21  1  0
 23 22  2  0
  2 25  1  0
  3 26  1  0
  9 27  1  6
 10 28  1  0
 10 29  1  0
 11 30  1  0
 11 31  1  0
 12 32  1  0
 12 33  1  0
 13 34  1  1
 14 35  1  0
 14 36  1  0
 14 37  1  0
 16 38  1  0
 17 39  1  0
 24 40  1  0
 24 41  1  0
M  ISO  8  25  14  26  14  27  13  28  13  29  13  30  13  31  13  32  13
M  ISO  7  33  13  34  13  35   8  36   8  37   8  38  14  39  14
M  END
>  <minimizedAffinity>  (1) 
-5.75412464

>  <minimizedRMSD>  (1) 
0.49975276

$$$$
