
     RDKit          3D

 29 32  0  0  0  0  0  0  0  0999 V2000
   39.7770   28.5220   41.3500 N   0  0  0  0  0  0  0  0  0  0  0  0
   41.0430   28.0580   41.1740 C   0  0  0  0  0  0  0  0  0  0  0  0
   41.6780   28.8110   40.2640 N   0  0  0  0  0  0  0  0  0  0  0  0
   40.8060   29.7550   39.8640 C   0  0  0  0  0  0  0  0  0  0  0  0
   39.6600   29.5500   40.5440 N   0  0  0  0  0  0  0  0  0  0  0  0
   40.9930   30.7970   38.9120 N   0  0  0  0  0  0  0  0  0  0  0  0
   40.2740   31.0680   37.7960 C   0  0  0  0  0  0  0  0  0  0  0  0
   40.8000   32.1600   37.1690 N   0  0  0  0  0  0  0  0  0  0  0  0
   41.8370   32.5550   37.8970 C   0  0  0  0  0  0  0  0  0  0  0  0
   42.7680   33.5610   37.8230 C   0  0  0  0  0  0  0  0  0  0  0  0
   43.7390   33.7180   38.7440 N   0  0  0  0  0  0  0  0  0  0  0  0
   43.8440   32.8840   39.7940 C   0  0  0  0  0  0  0  0  0  0  0  0
   42.9480   31.8900   39.8940 N   0  0  0  0  0  0  0  0  0  0  0  0
   41.9850   31.7270   38.9900 C   0  0  0  0  0  0  0  0  0  0  0  0
   37.9000   26.9780   41.9010 C   0  0  0  0  0  0  0  0  0  0  0  0
   38.6740   28.1470   42.1520 C   0  0  0  0  0  0  0  0  0  0  0  0
   38.2930   28.9300   43.2440 C   0  0  0  0  0  0  0  0  0  0  0  0
   37.2200   28.5300   43.9920 N   0  0  0  0  0  0  0  0  0  0  0  0
   36.5210   27.4240   43.7200 C   0  0  0  0  0  0  0  0  0  0  0  0
   36.8640   26.6590   42.6820 N   0  0  0  0  0  0  0  0  0  0  0  0
   42.7370   34.4870   36.7530 N   0  0  0  0  0  0  0  0  0  0  0  0
   41.4801   27.1956   41.6986 H   0  0  0  0  0  0  0  0  0  0  0  0
   39.4009   30.4960   37.4489 H   0  0  0  0  0  0  0  0  0  0  0  0
   44.6373   33.0123   40.5452 H   0  0  0  0  0  0  0  0  0  0  0  0
   38.1589   26.3284   41.0519 H   0  0  0  0  0  0  0  0  0  0  0  0
   38.8437   29.8480   43.4969 H   0  0  0  0  0  0  0  0  0  0  0  0
   35.6642   27.1447   44.3508 H   0  0  0  0  0  0  0  0  0  0  0  0
   43.4383   35.2397   36.7029 H   0  0  0  0  0  0  0  0  0  0  0  0
   42.0132   34.4081   36.0245 H   0  0  0  0  0  0  0  0  0  0  0  0
  1 16  1  0
  2  1  1  0
  3  2  2  0
  4  3  1  0
  4  5  2  0
  5  1  1  0
  6 14  1  0
  6  4  1  0
  7  6  1  0
  8  7  2  0
  8  9  1  0
  9 14  2  0
 10  9  1  0
 10 11  2  0
 11 12  1  0
 12 13  2  0
 14 13  1  0
 15 16  2  0
 15 20  1  0
 16 17  1  0
 17 18  2  0
 19 18  1  0
 20 19  2  0
 21 10  1  0
  2 22  1  0
  7 23  1  0
 12 24  1  0
 15 25  1  0
 17 26  1  0
 19 27  1  0
 21 28  1  0
 21 29  1  0
M  ISO  6  22  14  23  14  24  14  25  14  26  14  27  14
M  END
>  <minimizedAffinity>  (1) 
-5.39593554

>  <minimizedRMSD>  (1) 
8.9183073

$$$$
