
     RDKit          3D

 32 34  0  0  0  0  0  0  0  0999 V2000
   39.3650   30.7930   41.6950 N   0  0  0  0  0  0  0  0  0  0  0  0
   40.6820   30.9710   41.9450 C   0  0  0  0  0  0  0  0  0  0  0  0
   41.1020   32.1180   41.4000 N   0  0  0  0  0  0  0  0  0  0  0  0
   40.0310   32.6680   40.7960 C   0  0  0  0  0  0  0  0  0  0  0  0
   38.9970   31.8470   40.9900 N   0  0  0  0  0  0  0  0  0  0  0  0
   37.2040   29.6150   41.2450 C   0  0  0  0  0  0  0  0  0  0  0  0
   38.3820   29.8100   41.9960 C   0  0  0  0  0  0  0  0  0  0  0  0
   38.5750   28.9690   43.1020 C   0  0  0  0  0  0  0  0  0  0  0  0
   37.6210   28.0390   43.3690 N   0  0  0  0  0  0  0  0  0  0  0  0
   36.5190   27.8890   42.6300 C   0  0  0  0  0  0  0  0  0  0  0  0
   36.3160   28.6780   41.5720 N   0  0  0  0  0  0  0  0  0  0  0  0
   39.9520   33.9580   40.0340 C   0  0  0  0  0  0  0  0  0  0  0  0
   38.9090   34.8470   40.7080 C   0  0  0  0  0  0  0  0  0  0  0  0
   38.9590   36.1640   39.9450 C   0  0  0  0  0  0  0  0  0  0  0  0
   40.1970   36.8920   40.4000 C   0  0  0  0  0  0  0  0  0  0  0  0
   41.3340   35.9610   40.7180 C   0  0  0  0  0  0  0  0  0  0  0  0
   41.2660   34.6560   39.9630 C   0  0  0  0  0  0  0  0  0  0  0  0
   41.3154   30.2742   42.5136 H   0  0  0  0  0  0  0  0  0  0  0  0
   37.0144   30.2520   40.3685 H   0  0  0  0  0  0  0  0  0  0  0  0
   39.4710   29.0596   43.7336 H   0  0  0  0  0  0  0  0  0  0  0  0
   35.7802   27.1173   42.8921 H   0  0  0  0  0  0  0  0  0  0  0  0
   39.6620   33.7382   38.9959 H   0  0  0  0  0  0  0  0  0  0  0  0
   37.9091   34.3947   40.6328 H   0  0  0  0  0  0  0  0  0  0  0  0
   39.1139   34.9833   41.7801 H   0  0  0  0  0  0  0  0  0  0  0  0
   38.0646   36.7640   40.1687 H   0  0  0  0  0  0  0  0  0  0  0  0
   38.9851   35.9873   38.8596 H   0  0  0  0  0  0  0  0  0  0  0  0
   40.5162   37.5770   39.6007 H   0  0  0  0  0  0  0  0  0  0  0  0
   39.9433   37.4339   41.3231 H   0  0  0  0  0  0  0  0  0  0  0  0
   42.2786   36.4634   40.4624 H   0  0  0  0  0  0  0  0  0  0  0  0
   41.2688   35.7212   41.7896 H   0  0  0  0  0  0  0  0  0  0  0  0
   42.0330   33.9831   40.3740 H   0  0  0  0  0  0  0  0  0  0  0  0
   41.4267   34.9039   38.9034 H   0  0  0  0  0  0  0  0  0  0  0  0
  1  2  1  0
  1  7  1  0
  3  2  2  0
  4  5  2  0
  4  3  1  0
  5  1  1  0
  6 11  2  0
  6  7  1  0
  7  8  2  0
  8  9  1  0
 10  9  2  0
 11 10  1  0
 12 13  1  0
 12  4  1  0
 14 15  1  0
 14 13  1  0
 15 16  1  0
 17 12  1  0
 17 16  1  0
  2 18  1  0
  6 19  1  0
  8 20  1  0
 10 21  1  0
 12 22  1  0
 13 23  1  0
 13 24  1  0
 14 25  1  0
 14 26  1  0
 15 27  1  0
 15 28  1  0
 16 29  1  0
 16 30  1  0
 17 31  1  0
 17 32  1  0
M  ISO  8  18  14  19  14  20  14  21  14  22  13  23  13  24  13  25  13
M  ISO  7  26  13  27  13  28  13  29  13  30  13  31  13  32  13
M  END
>  <minimizedAffinity>  (1) 
-5.00388527

>  <minimizedRMSD>  (1) 
7.9803257

$$$$
