
     RDKit          3D

 19 20  0  0  0  0  0  0  0  0999 V2000
   38.6180   30.4560   41.7480 N   0  0  0  0  0  0  0  0  0  0  0  0
   39.7780   29.8120   42.0340 C   0  0  0  0  0  0  0  0  0  0  0  0
   39.5040   28.7810   42.8580 N   0  0  0  0  0  0  0  0  0  0  0  0
   38.1900   28.7810   43.0840 C   0  0  0  0  0  0  0  0  0  0  0  0
   37.6620   29.8130   42.3960 N   0  0  0  0  0  0  0  0  0  0  0  0
   37.2120   31.5550   39.9940 C   0  0  0  0  0  0  0  0  0  0  0  0
   38.2520   31.5850   40.9600 C   0  0  0  0  0  0  0  0  0  0  0  0
   38.9450   32.8020   41.1350 C   0  0  0  0  0  0  0  0  0  0  0  0
   38.5810   33.8650   40.3760 N   0  0  0  0  0  0  0  0  0  0  0  0
   37.5850   33.7800   39.4710 C   0  0  0  0  0  0  0  0  0  0  0  0
   36.9070   32.6400   39.2810 N   0  0  0  0  0  0  0  0  0  0  0  0
   37.4230   27.8150   43.9420 C   0  0  0  0  0  0  0  0  0  0  0  0
   36.8270   28.5310   44.9690 F   0  0  0  0  0  0  0  0  0  0  0  0
   36.5100   27.1240   43.1850 F   0  0  0  0  0  0  0  0  0  0  0  0
   38.3480   26.9380   44.4880 F   0  0  0  0  0  0  0  0  0  0  0  0
   40.7744   30.0855   41.6567 H   0  0  0  0  0  0  0  0  0  0  0  0
   36.6498   30.6236   39.8313 H   0  0  0  0  0  0  0  0  0  0  0  0
   39.7601   32.8861   41.8689 H   0  0  0  0  0  0  0  0  0  0  0  0
   37.3231   34.6668   38.8751 H   0  0  0  0  0  0  0  0  0  0  0  0
  1  2  1  0
  1  5  1  0
  2  3  2  0
  3  4  1  0
  4 12  1  0
  5  4  2  0
  6  7  2  0
  7  8  1  0
  7  1  1  0
  9  8  2  0
 10  9  1  0
 11 10  2  0
 11  6  1  0
 12 15  1  0
 12 13  1  0
 14 12  1  0
  2 16  1  0
  6 17  1  0
  8 18  1  0
 10 19  1  0
M  ISO  4  16  14  17  14  18  14  19  14
M  END
>  <minimizedAffinity>  (1) 
-4.61871576

>  <minimizedRMSD>  (1) 
2.26238322

$$$$
