
     RDKit          3D

 22 23  0  0  0  0  0  0  0  0999 V2000
   37.1060   31.6230   40.3330 C   0  0  0  0  0  0  0  0  0  0  0  0
   38.2380   31.3990   41.1540 C   0  0  0  0  0  0  0  0  0  0  0  0
   39.2180   32.4200   41.2050 C   0  0  0  0  0  0  0  0  0  0  0  0
   38.9950   33.5370   40.4630 N   0  0  0  0  0  0  0  0  0  0  0  0
   37.9100   33.7030   39.7010 C   0  0  0  0  0  0  0  0  0  0  0  0
   36.9730   32.7540   39.6360 N   0  0  0  0  0  0  0  0  0  0  0  0
   38.4490   30.2220   41.9220 N   0  0  0  0  0  0  0  0  0  0  0  0
   39.4960   29.4810   42.3380 C   0  0  0  0  0  0  0  0  0  0  0  0
   39.0430   28.4420   43.0640 N   0  0  0  0  0  0  0  0  0  0  0  0
   37.7160   28.5240   43.1090 C   0  0  0  0  0  0  0  0  0  0  0  0
   37.3800   29.6130   42.4080 N   0  0  0  0  0  0  0  0  0  0  0  0
   36.7730   27.5980   43.7970 C   0  0  0  0  0  0  0  0  0  0  0  0
   36.4200   28.1260   45.1760 C   0  0  0  0  0  0  0  0  0  0  0  0
   36.3235   30.8526   40.2685 H   0  0  0  0  0  0  0  0  0  0  0  0
   40.1235   32.3135   41.8204 H   0  0  0  0  0  0  0  0  0  0  0  0
   37.7876   34.6301   39.1218 H   0  0  0  0  0  0  0  0  0  0  0  0
   40.5530   29.6922   42.1187 H   0  0  0  0  0  0  0  0  0  0  0  0
   35.8546   27.5062   43.1986 H   0  0  0  0  0  0  0  0  0  0  0  0
   37.2551   26.6152   43.9052 H   0  0  0  0  0  0  0  0  0  0  0  0
   36.8583   27.4704   45.9429 H   0  0  0  0  0  0  0  0  0  0  0  0
   36.8196   29.1442   45.2921 H   0  0  0  0  0  0  0  0  0  0  0  0
   35.3263   28.1459   45.2921 H   0  0  0  0  0  0  0  0  0  0  0  0
  1  2  2  0
  2  3  1  0
  2  7  1  0
  4  3  2  0
  5  4  1  0
  6  5  2  0
  6  1  1  0
  7  8  1  0
  7 11  1  0
  8  9  2  0
  9 10  1  0
 10 12  1  0
 11 10  2  0
 12 13  1  0
  1 14  1  0
  3 15  1  0
  5 16  1  0
  8 17  1  0
 12 18  1  0
 12 19  1  0
 13 20  1  0
 13 21  1  0
 13 22  1  0
M  ISO  8  14  14  15  14  16  14  17  14  18   8  19   8  20   8  21   8
M  ISO  1  22   8
M  END
>  <minimizedAffinity>  (1) 
-4.24856853

>  <minimizedRMSD>  (1) 
1.55606675

$$$$
