
     RDKit          3D

 19 20  0  0  0  0  0  0  0  0999 V2000
   37.6320   30.6800   41.2590 N   0  0  0  0  0  0  0  0  0  0  0  0
   36.6220   31.2120   40.5340 C   0  0  0  0  0  0  0  0  0  0  0  0
   36.9810   32.4220   40.0720 N   0  0  0  0  0  0  0  0  0  0  0  0
   38.2310   32.6470   40.5150 C   0  0  0  0  0  0  0  0  0  0  0  0
   38.5950   31.5710   41.2310 N   0  0  0  0  0  0  0  0  0  0  0  0
   39.0480   29.1770   42.6600 C   0  0  0  0  0  0  0  0  0  0  0  0
   37.8390   29.4630   41.9780 C   0  0  0  0  0  0  0  0  0  0  0  0
   36.8260   28.5030   42.0240 C   0  0  0  0  0  0  0  0  0  0  0  0
   37.0560   27.3540   42.7180 N   0  0  0  0  0  0  0  0  0  0  0  0
   38.2160   27.1300   43.3470 C   0  0  0  0  0  0  0  0  0  0  0  0
   39.2150   28.0280   43.3270 N   0  0  0  0  0  0  0  0  0  0  0  0
   39.1370   33.7980   40.3270 C   0  0  0  0  0  0  0  0  0  0  0  0
   40.3610   33.8080   40.6370 O   0  0  0  0  0  0  0  0  0  0  0  0
   38.6530   34.9920   39.7650 O   0  0  0  0  0  0  0  0  0  0  0  0
   35.6520   30.7271   40.3500 H   0  0  0  0  0  0  0  0  0  0  0  0
   39.8651   29.9132   42.6410 H   0  0  0  0  0  0  0  0  0  0  0  0
   35.8666   28.6706   41.5127 H   0  0  0  0  0  0  0  0  0  0  0  0
   38.3550   26.1861   43.8945 H   0  0  0  0  0  0  0  0  0  0  0  0
   39.2618   35.7626   39.6397 H   0  0  0  0  0  0  0  0  0  0  0  0
  1  7  1  0
  2  1  1  0
  3  4  1  0
  3  2  2  0
  4  5  2  0
  5  1  1  0
  6 11  2  0
  7  8  2  0
  7  6  1  0
  8  9  1  0
  9 10  2  0
 11 10  1  0
 12  4  1  0
 12 13  2  0
 14 12  1  0
  2 15  1  0
  6 16  1  0
  8 17  1  0
 10 18  1  0
 14 19  1  0
M  ISO  5  15  14  16  14  17  14  18  14  19   3
M  END
>  <minimizedAffinity>  (1) 
-4.17151308

>  <minimizedRMSD>  (1) 
6.13632202

$$$$
