
     RDKit          3D

 17 18  0  0  0  0  0  0  0  0999 V2000
   36.7450   30.7750   40.8680 C   0  0  0  0  0  0  0  0  0  0  0  0
   37.9170   30.3470   41.5270 C   0  0  0  0  0  0  0  0  0  0  0  0
   39.0250   31.2180   41.4850 C   0  0  0  0  0  0  0  0  0  0  0  0
   38.8920   32.3930   40.8230 N   0  0  0  0  0  0  0  0  0  0  0  0
   37.7620   32.7570   40.2120 C   0  0  0  0  0  0  0  0  0  0  0  0
   36.6990   31.9470   40.2380 N   0  0  0  0  0  0  0  0  0  0  0  0
   38.0420   29.1150   42.2170 N   0  0  0  0  0  0  0  0  0  0  0  0
   38.8340   28.6020   43.1750 C   0  0  0  0  0  0  0  0  0  0  0  0
   38.4700   27.3270   43.4400 N   0  0  0  0  0  0  0  0  0  0  0  0
   37.4440   27.0500   42.6380 C   0  0  0  0  0  0  0  0  0  0  0  0
   37.1980   28.1490   41.9010 N   0  0  0  0  0  0  0  0  0  0  0  0
   36.7330   25.8610   42.5480 O   0  0  0  0  0  0  0  0  0  0  0  0
   35.8544   30.1295   40.8749 H   0  0  0  0  0  0  0  0  0  0  0  0
   39.9721   30.9509   41.9765 H   0  0  0  0  0  0  0  0  0  0  0  0
   37.7059   33.7224   39.6878 H   0  0  0  0  0  0  0  0  0  0  0  0
   39.6561   29.1399   43.6698 H   0  0  0  0  0  0  0  0  0  0  0  0
   35.9838   25.7796   41.9059 H   0  0  0  0  0  0  0  0  0  0  0  0
  1  2  2  0
  2  7  1  0
  3  2  1  0
  4  3  2  0
  5  6  2  0
  5  4  1  0
  6  1  1  0
  7  8  1  0
  8  9  2  0
 10  9  1  0
 11  7  1  0
 11 10  2  0
 12 10  1  0
  1 13  1  0
  3 14  1  0
  5 15  1  0
  8 16  1  0
 12 17  1  0
M  ISO  5  13  14  14  14  15  14  16  14  17   3
M  END
>  <minimizedAffinity>  (1) 
-3.41087651

>  <minimizedRMSD>  (1) 
0.479447037

$$$$
