
     RDKit          3D

 38 40  0  0  1  0  0  0  0  0999 V2000
   36.9910   27.7710   43.1510 C   0  0  2  0  0  0  0  0  0  0  0  0
   38.4380   30.7950   41.7480 N   0  0  0  0  0  0  0  0  0  0  0  0
   39.5050   30.2220   42.3700 C   0  0  0  0  0  0  0  0  0  0  0  0
   39.1250   29.0710   42.9490 N   0  0  0  0  0  0  0  0  0  0  0  0
   37.8070   28.9140   42.6900 C   0  0  0  0  0  0  0  0  0  0  0  0
   37.4330   29.9870   41.9580 N   0  0  0  0  0  0  0  0  0  0  0  0
   37.1940   32.1110   40.0570 C   0  0  0  0  0  0  0  0  0  0  0  0
   38.2550   31.9760   40.9970 C   0  0  0  0  0  0  0  0  0  0  0  0
   39.1180   33.0730   41.1410 C   0  0  0  0  0  0  0  0  0  0  0  0
   38.8820   34.1760   40.3800 N   0  0  0  0  0  0  0  0  0  0  0  0
   37.8630   34.2540   39.5030 C   0  0  0  0  0  0  0  0  0  0  0  0
   37.0150   33.2220   39.3390 N   0  0  0  0  0  0  0  0  0  0  0  0
   36.7510   28.0260   44.6480 C   0  0  0  0  0  0  0  0  0  0  0  0
   37.6260   26.4470   42.9380 C   0  0  0  0  0  0  0  0  0  0  0  0
   36.1680   24.4250   39.4500 C   0  0  0  0  0  0  0  0  0  0  0  0
   36.3400   23.7890   40.6630 C   0  0  0  0  0  0  0  0  0  0  0  0
   36.8150   24.5190   41.7350 C   0  0  0  0  0  0  0  0  0  0  0  0
   37.1330   25.8810   41.6540 C   0  0  0  0  0  0  0  0  0  0  0  0
   36.9490   26.4890   40.4290 C   0  0  0  0  0  0  0  0  0  0  0  0
   36.4740   25.7430   39.3700 C   0  0  0  0  0  0  0  0  0  0  0  0
   35.5730   23.5290   38.0920 S   0  0  0  0  0  0  0  0  0  0  0  0
   36.1760   22.1540   38.0310 O   0  0  0  0  0  0  0  0  0  0  0  0
   35.9780   24.2280   36.8180 O   0  0  0  0  0  0  0  0  0  0  0  0
   36.0610   27.7181   42.5660 H   0  0  0  0  0  0  0  0  0  0  0  0
   40.5230   30.6381   42.3946 H   0  0  0  0  0  0  0  0  0  0  0  0
   36.4978   31.2708   39.9177 H   0  0  0  0  0  0  0  0  0  0  0  0
   39.9602   33.0422   41.8480 H   0  0  0  0  0  0  0  0  0  0  0  0
   37.7221   35.1721   38.9137 H   0  0  0  0  0  0  0  0  0  0  0  0
   37.3859   27.3515   45.2412 H   0  0  0  0  0  0  0  0  0  0  0  0
   37.0017   29.0701   44.8869 H   0  0  0  0  0  0  0  0  0  0  0  0
   35.6937   27.8389   44.8869 H   0  0  0  0  0  0  0  0  0  0  0  0
   38.7190   26.5636   42.8954 H   0  0  0  0  0  0  0  0  0  0  0  0
   37.3699   25.7715   43.7675 H   0  0  0  0  0  0  0  0  0  0  0  0
   36.1031   22.7205   40.7738 H   0  0  0  0  0  0  0  0  0  0  0  0
   36.9501   24.0063   42.6988 H   0  0  0  0  0  0  0  0  0  0  0  0
   37.1785   27.5568   40.2982 H   0  0  0  0  0  0  0  0  0  0  0  0
   36.3353   26.2482   38.4028 H   0  0  0  0  0  0  0  0  0  0  0  0
   34.2126   23.4410   38.2279 H   0  0  0  0  0  0  0  0  0  0  0  0
  1 13  1  0
  2  6  1  0
  2  3  1  0
  3  4  2  0
  5  4  1  0
  5  1  1  0
  6  5  2  0
  7  8  2  0
  8  9  1  0
  8  2  1  0
 10  9  2  0
 11 10  1  0
 12 11  2  0
 12  7  1  0
 14  1  1  0
 15 16  2  0
 16 17  1  0
 18 17  2  0
 18 14  1  0
 19 18  1  0
 20 15  1  0
 20 19  2  0
 21 15  1  0
 22 21  2  0
 23 21  2  0
  1 24  1  6
  3 25  1  0
  7 26  1  0
  9 27  1  0
 11 28  1  0
 13 29  1  0
 13 30  1  0
 13 31  1  0
 14 32  1  0
 14 33  1  0
 16 34  1  0
 17 35  1  0
 19 36  1  0
 20 37  1  0
 21 38  1  0
M  ISO  8  24   8  25  14  26  14  27  14  28  14  29   8  30   8  31   8
M  ISO  7  32   8  33   8  34  14  35  14  36  14  37  14  38  11
M  END
>  <minimizedAffinity>  (1) 
-5.53705883

>  <minimizedRMSD>  (1) 
1.31420577

$$$$
