
     RDKit          3D

 36 39  0  0  1  0  0  0  0  0999 V2000
   37.1000   27.7980   43.0240 C   0  0  2  0  0  0  0  0  0  0  0  0
   38.4860   30.9060   41.7240 N   0  0  0  0  0  0  0  0  0  0  0  0
   39.5160   30.3910   42.4290 C   0  0  0  0  0  0  0  0  0  0  0  0
   39.1460   29.2240   42.9740 N   0  0  0  0  0  0  0  0  0  0  0  0
   37.8620   28.9980   42.6070 C   0  0  0  0  0  0  0  0  0  0  0  0
   37.4950   30.0420   41.8490 N   0  0  0  0  0  0  0  0  0  0  0  0
   37.1970   32.1760   39.9880 C   0  0  0  0  0  0  0  0  0  0  0  0
   38.2240   32.0700   40.9370 C   0  0  0  0  0  0  0  0  0  0  0  0
   39.0620   33.2010   41.1330 C   0  0  0  0  0  0  0  0  0  0  0  0
   38.8070   34.3070   40.3850 N   0  0  0  0  0  0  0  0  0  0  0  0
   37.8140   34.3510   39.4930 C   0  0  0  0  0  0  0  0  0  0  0  0
   37.0130   33.2990   39.2920 N   0  0  0  0  0  0  0  0  0  0  0  0
   36.8210   27.9770   44.5230 C   0  0  0  0  0  0  0  0  0  0  0  0
   37.7850   26.5110   42.7830 C   0  0  0  0  0  0  0  0  0  0  0  0
   37.2200   25.7350   41.7160 N   0  0  0  0  0  0  0  0  0  0  0  0
   36.9280   24.4170   41.9210 C   0  0  0  0  0  0  0  0  0  0  0  0
   36.4000   23.8620   40.7910 N   0  0  0  0  0  0  0  0  0  0  0  0
   36.3480   24.8140   39.8530 C   0  0  0  0  0  0  0  0  0  0  0  0
   35.9590   24.9850   38.5410 C   0  0  0  0  0  0  0  0  0  0  0  0
   36.0570   26.1480   37.8790 N   0  0  0  0  0  0  0  0  0  0  0  0
   36.5520   27.2170   38.4900 C   0  0  0  0  0  0  0  0  0  0  0  0
   36.9510   27.1100   39.7780 N   0  0  0  0  0  0  0  0  0  0  0  0
   36.8560   25.9490   40.4490 C   0  0  0  0  0  0  0  0  0  0  0  0
   36.1868   27.7341   42.4140 H   0  0  0  0  0  0  0  0  0  0  0  0
   40.5061   30.8574   42.5390 H   0  0  0  0  0  0  0  0  0  0  0  0
   36.5312   31.3177   39.8144 H   0  0  0  0  0  0  0  0  0  0  0  0
   39.8854   33.1821   41.8621 H   0  0  0  0  0  0  0  0  0  0  0  0
   37.6517   35.2709   38.9120 H   0  0  0  0  0  0  0  0  0  0  0  0
   37.6067   27.4729   45.1049 H   0  0  0  0  0  0  0  0  0  0  0  0
   36.8132   29.0491   44.7691 H   0  0  0  0  0  0  0  0  0  0  0  0
   35.8432   27.5372   44.7691 H   0  0  0  0  0  0  0  0  0  0  0  0
   38.8367   26.7205   42.5379 H   0  0  0  0  0  0  0  0  0  0  0  0
   37.6720   25.9158   43.7011 H   0  0  0  0  0  0  0  0  0  0  0  0
   37.0949   23.8776   42.8650 H   0  0  0  0  0  0  0  0  0  0  0  0
   35.5444   24.1177   38.0063 H   0  0  0  0  0  0  0  0  0  0  0  0
   36.6365   28.1756   37.9571 H   0  0  0  0  0  0  0  0  0  0  0  0
  1 13  1  0
  2  6  1  0
  2  3  1  0
  3  4  2  0
  5  4  1  0
  5  1  1  0
  6  5  2  0
  7  8  2  0
  8  9  1  0
  8  2  1  0
 10  9  2  0
 11 10  1  0
 12 11  2  0
 12  7  1  0
 14  1  1  0
 15 16  1  0
 15 14  1  0
 17 16  2  0
 18 23  2  0
 18 17  1  0
 19 18  1  0
 20 21  1  0
 20 19  2  0
 21 22  2  0
 22 23  1  0
 23 15  1  0
  1 24  1  6
  3 25  1  0
  7 26  1  0
  9 27  1  0
 11 28  1  0
 13 29  1  0
 13 30  1  0
 13 31  1  0
 14 32  1  0
 14 33  1  0
 16 34  1  0
 19 35  1  0
 21 36  1  0
M  ISO  8  24   8  25  14  26  14  27  14  28  14  29   8  30   8  31   8
M  ISO  5  32   8  33   8  34  14  35  14  36  14
M  END
>  <minimizedAffinity>  (1) 
-5.34616327

>  <minimizedRMSD>  (1) 
1.26401937

$$$$
