
     RDKit          3D

 33 35  0  0  1  0  0  0  0  0999 V2000
   37.0090   27.7780   43.0550 C   0  0  2  0  0  0  0  0  0  0  0  0
   38.4840   30.8210   41.6880 N   0  0  0  0  0  0  0  0  0  0  0  0
   39.5230   30.2500   42.3140 C   0  0  0  0  0  0  0  0  0  0  0  0
   39.1460   29.0920   42.8840 N   0  0  0  0  0  0  0  0  0  0  0  0
   37.8250   28.9290   42.6060 C   0  0  0  0  0  0  0  0  0  0  0  0
   37.4590   30.0060   41.8740 N   0  0  0  0  0  0  0  0  0  0  0  0
   37.1980   32.1470   39.9890 C   0  0  0  0  0  0  0  0  0  0  0  0
   38.2280   31.9990   40.9290 C   0  0  0  0  0  0  0  0  0  0  0  0
   39.0830   33.1140   41.1420 C   0  0  0  0  0  0  0  0  0  0  0  0
   38.8420   34.2460   40.4190 N   0  0  0  0  0  0  0  0  0  0  0  0
   37.8500   34.3320   39.5410 C   0  0  0  0  0  0  0  0  0  0  0  0
   37.0290   33.2800   39.3290 N   0  0  0  0  0  0  0  0  0  0  0  0
   36.7860   28.0140   44.5670 C   0  0  0  0  0  0  0  0  0  0  0  0
   37.6520   26.4650   42.8520 C   0  0  0  0  0  0  0  0  0  0  0  0
   37.1230   25.7700   41.6720 C   0  0  0  0  0  0  0  0  0  0  0  0
   36.8050   24.4270   41.6590 C   0  0  0  0  0  0  0  0  0  0  0  0
   36.3120   23.8550   40.5010 C   0  0  0  0  0  0  0  0  0  0  0  0
   36.1650   24.6550   39.4250 N   0  0  0  0  0  0  0  0  0  0  0  0
   36.4750   25.9680   39.4360 C   0  0  0  0  0  0  0  0  0  0  0  0
   36.9550   26.5110   40.5710 N   0  0  0  0  0  0  0  0  0  0  0  0
   36.0821   27.7335   42.4643 H   0  0  0  0  0  0  0  0  0  0  0  0
   40.5392   30.6691   42.3554 H   0  0  0  0  0  0  0  0  0  0  0  0
   36.5176   31.3042   39.7971 H   0  0  0  0  0  0  0  0  0  0  0  0
   39.9107   33.0662   41.8649 H   0  0  0  0  0  0  0  0  0  0  0  0
   37.6953   35.2666   38.9819 H   0  0  0  0  0  0  0  0  0  0  0  0
   37.4295   27.3330   45.1432 H   0  0  0  0  0  0  0  0  0  0  0  0
   37.0377   29.0553   44.8166 H   0  0  0  0  0  0  0  0  0  0  0  0
   35.7321   27.8216   44.8166 H   0  0  0  0  0  0  0  0  0  0  0  0
   38.7336   26.6159   42.7201 H   0  0  0  0  0  0  0  0  0  0  0  0
   37.4416   25.8436   43.7349 H   0  0  0  0  0  0  0  0  0  0  0  0
   36.9428   23.8162   42.5634 H   0  0  0  0  0  0  0  0  0  0  0  0
   36.0495   22.7876   40.4587 H   0  0  0  0  0  0  0  0  0  0  0  0
   36.3382   26.5835   38.5347 H   0  0  0  0  0  0  0  0  0  0  0  0
  1 13  1  0
  2  6  1  0
  2  3  1  0
  3  4  2  0
  5  4  1  0
  5  1  1  0
  6  5  2  0
  7  8  2  0
  8  9  1  0
  8  2  1  0
 10  9  2  0
 11 10  1  0
 12 11  2  0
 12  7  1  0
 14  1  1  0
 15 14  1  0
 16 15  2  0
 17 16  1  0
 18 19  1  0
 18 17  2  0
 19 20  2  0
 20 15  1  0
  1 21  1  6
  3 22  1  0
  7 23  1  0
  9 24  1  0
 11 25  1  0
 13 26  1  0
 13 27  1  0
 13 28  1  0
 14 29  1  0
 14 30  1  0
 16 31  1  0
 17 32  1  0
 19 33  1  0
M  ISO  8  21   8  22  14  23  14  24  14  25  14  26   8  27   8  28   8
M  ISO  5  29   8  30   8  31  14  32  14  33  14
M  END
>  <minimizedAffinity>  (1) 
-5.28713179

>  <minimizedRMSD>  (1) 
0.892590344

$$$$
