
     RDKit          3D

 32 34  0  0  1  0  0  0  0  0999 V2000
   38.5340   30.8360   41.6740 N   0  0  0  0  0  0  0  0  0  0  0  0
   39.5830   30.2670   42.2860 C   0  0  0  0  0  0  0  0  0  0  0  0
   39.2300   29.1110   42.8510 N   0  0  0  0  0  0  0  0  0  0  0  0
   37.9070   28.9320   42.5940 C   0  0  0  0  0  0  0  0  0  0  0  0
   37.5230   30.0080   41.8720 N   0  0  0  0  0  0  0  0  0  0  0  0
   37.2260   32.1580   39.9850 C   0  0  0  0  0  0  0  0  0  0  0  0
   38.2710   32.0220   40.9280 C   0  0  0  0  0  0  0  0  0  0  0  0
   39.1040   33.1540   41.1430 C   0  0  0  0  0  0  0  0  0  0  0  0
   38.8310   34.2740   40.4250 N   0  0  0  0  0  0  0  0  0  0  0  0
   37.8320   34.3400   39.5500 C   0  0  0  0  0  0  0  0  0  0  0  0
   37.0200   33.2820   39.3210 N   0  0  0  0  0  0  0  0  0  0  0  0
   37.0970   27.7770   43.0420 C   0  0  2  0  0  0  0  0  0  0  0  0
   36.8070   28.0420   44.5230 C   0  0  0  0  0  0  0  0  0  0  0  0
   37.8080   26.4710   42.8920 C   0  0  0  0  0  0  0  0  0  0  0  0
   37.2210   25.6670   41.7470 C   0  0  0  0  0  0  0  0  0  0  0  0
   36.7860   24.3250   41.6850 C   0  0  0  0  0  0  0  0  0  0  0  0
   36.3080   23.9210   40.4900 C   0  0  0  0  0  0  0  0  0  0  0  0
   36.2610   24.7610   39.4530 C   0  0  0  0  0  0  0  0  0  0  0  0
   36.9460   26.3940   40.0560 S   0  0  0  0  0  0  0  0  0  0  0  0
   40.5959   30.6949   42.3178 H   0  0  0  0  0  0  0  0  0  0  0  0
   36.5630   31.3004   39.7980 H   0  0  0  0  0  0  0  0  0  0  0  0
   39.9360   33.1239   41.8619 H   0  0  0  0  0  0  0  0  0  0  0  0
   37.6616   35.2768   38.9992 H   0  0  0  0  0  0  0  0  0  0  0  0
   36.1885   27.6904   42.4279 H   0  0  0  0  0  0  0  0  0  0  0  0
   37.4776   27.4292   45.1433 H   0  0  0  0  0  0  0  0  0  0  0  0
   36.9735   29.1065   44.7445 H   0  0  0  0  0  0  0  0  0  0  0  0
   35.7617   27.7805   44.7445 H   0  0  0  0  0  0  0  0  0  0  0  0
   38.8726   26.6609   42.6909 H   0  0  0  0  0  0  0  0  0  0  0  0
   37.6910   25.8966   43.8228 H   0  0  0  0  0  0  0  0  0  0  0  0
   36.8338   23.6529   42.5545 H   0  0  0  0  0  0  0  0  0  0  0  0
   35.9526   22.8871   40.3683 H   0  0  0  0  0  0  0  0  0  0  0  0
   35.8916   24.5365   38.4415 H   0  0  0  0  0  0  0  0  0  0  0  0
  1  5  1  0
  1  2  1  0
  2  3  2  0
  4  3  1  0
  4 12  1  0
  5  4  2  0
  6  7  2  0
  7  8  1  0
  7  1  1  0
  9  8  2  0
 10  9  1  0
 11 10  2  0
 11  6  1  0
 12 13  1  0
 14 12  1  0
 15 14  1  0
 16 15  2  0
 17 16  1  0
 18 19  1  0
 18 17  2  0
 19 15  1  0
  2 20  1  0
  6 21  1  0
  8 22  1  0
 10 23  1  0
 12 24  1  6
 13 25  1  0
 13 26  1  0
 13 27  1  0
 14 28  1  0
 14 29  1  0
 16 30  1  0
 17 31  1  0
 18 32  1  0
M  ISO  8  20  14  21  14  22  14  23  14  24   8  25   8  26   8  27   8
M  ISO  5  28   8  29   8  30  14  31  14  32  14
M  END
>  <minimizedAffinity>  (1) 
-5.15425062

>  <minimizedRMSD>  (1) 
1.07146382

$$$$
