
     RDKit          3D

 40 42  0  0  1  0  0  0  0  0999 V2000
   37.1320   27.7660   43.0290 C   0  0  2  0  0  0  0  0  0  0  0  0
   38.5200   30.8400   41.6810 N   0  0  0  0  0  0  0  0  0  0  0  0
   39.5810   30.2690   42.2980 C   0  0  0  0  0  0  0  0  0  0  0  0
   39.2000   29.0990   42.8510 N   0  0  0  0  0  0  0  0  0  0  0  0
   37.9020   28.9380   42.5820 C   0  0  0  0  0  0  0  0  0  0  0  0
   37.5150   30.0140   41.8690 N   0  0  0  0  0  0  0  0  0  0  0  0
   37.2300   32.1790   40.0050 C   0  0  0  0  0  0  0  0  0  0  0  0
   38.2730   32.0330   40.9450 C   0  0  0  0  0  0  0  0  0  0  0  0
   39.1140   33.1410   41.1560 C   0  0  0  0  0  0  0  0  0  0  0  0
   38.8480   34.2650   40.4330 N   0  0  0  0  0  0  0  0  0  0  0  0
   37.8550   34.3620   39.5580 C   0  0  0  0  0  0  0  0  0  0  0  0
   37.0330   33.3140   39.3370 N   0  0  0  0  0  0  0  0  0  0  0  0
   36.7940   28.0260   44.5150 C   0  0  0  0  0  0  0  0  0  0  0  0
   37.7360   26.4560   42.8170 C   0  0  0  0  0  0  0  0  0  0  0  0
   37.2290   25.8330   41.6110 N   0  0  0  0  0  0  0  0  0  0  0  0
   37.2100   24.3710   41.7740 C   0  0  0  0  0  0  0  0  0  0  0  0
   36.1880   23.8810   40.7590 C   0  0  0  0  0  0  0  0  0  0  0  0
   36.4180   24.6160   39.4300 C   0  0  0  0  0  0  0  0  0  0  0  0
   37.8940   25.0200   39.4550 C   0  0  0  0  0  0  0  0  0  0  0  0
   38.0560   26.1580   40.4510 C   0  0  0  0  0  0  0  0  0  0  0  0
   36.2386   27.6840   42.3925 H   0  0  0  0  0  0  0  0  0  0  0  0
   40.5952   30.6927   42.3416 H   0  0  0  0  0  0  0  0  0  0  0  0
   36.5585   31.3280   39.8184 H   0  0  0  0  0  0  0  0  0  0  0  0
   39.9482   33.1017   41.8719 H   0  0  0  0  0  0  0  0  0  0  0  0
   37.7006   35.3026   39.0090 H   0  0  0  0  0  0  0  0  0  0  0  0
   37.5040   27.4799   45.1535 H   0  0  0  0  0  0  0  0  0  0  0  0
   36.8664   29.1035   44.7244 H   0  0  0  0  0  0  0  0  0  0  0  0
   35.7712   27.6797   44.7244 H   0  0  0  0  0  0  0  0  0  0  0  0
   38.8261   26.5738   42.7287 H   0  0  0  0  0  0  0  0  0  0  0  0
   37.4828   25.8136   43.6732 H   0  0  0  0  0  0  0  0  0  0  0  0
   38.2016   23.9444   41.5625 H   0  0  0  0  0  0  0  0  0  0  0  0
   36.9532   24.0706   42.8006 H   0  0  0  0  0  0  0  0  0  0  0  0
   36.3071   22.7980   40.6079 H   0  0  0  0  0  0  0  0  0  0  0  0
   35.1708   24.0823   41.1261 H   0  0  0  0  0  0  0  0  0  0  0  0
   35.7742   25.5054   39.3629 H   0  0  0  0  0  0  0  0  0  0  0  0
   36.1751   23.9869   38.5609 H   0  0  0  0  0  0  0  0  0  0  0  0
   38.5099   24.1629   39.7649 H   0  0  0  0  0  0  0  0  0  0  0  0
   38.2181   25.3408   38.4540 H   0  0  0  0  0  0  0  0  0  0  0  0
   39.1100   26.2489   40.7523 H   0  0  0  0  0  0  0  0  0  0  0  0
   37.7479   27.1155   40.0058 H   0  0  0  0  0  0  0  0  0  0  0  0
  1 13  1  0
  2  6  1  0
  2  3  1  0
  3  4  2  0
  5  4  1  0
  5  1  1  0
  6  5  2  0
  7  8  2  0
  8  9  1  0
  8  2  1  0
 10  9  2  0
 11 10  1  0
 12 11  2  0
 12  7  1  0
 14  1  1  0
 15 16  1  0
 15 14  1  0
 17 16  1  0
 18 19  1  0
 18 17  1  0
 19 20  1  0
 20 15  1  0
  1 21  1  6
  3 22  1  0
  7 23  1  0
  9 24  1  0
 11 25  1  0
 13 26  1  0
 13 27  1  0
 13 28  1  0
 14 29  1  0
 14 30  1  0
 16 31  1  0
 16 32  1  0
 17 33  1  0
 17 34  1  0
 18 35  1  0
 18 36  1  0
 19 37  1  0
 19 38  1  0
 20 39  1  0
 20 40  1  0
M  ISO  8  21   8  22  14  23  14  24  14  25  14  26   8  27   8  28   8
M  ISO  8  29   8  30   8  31  13  32  13  33  13  34  13  35  13  36  13
M  ISO  4  37  13  38  13  39  13  40  13
M  END
>  <minimizedAffinity>  (1) 
-5.05300331

>  <minimizedRMSD>  (1) 
0.831852734

$$$$
