
     RDKit          3D

 32 34  0  0  1  0  0  0  0  0999 V2000
   38.4870   30.7000   41.7490 N   0  0  0  0  0  0  0  0  0  0  0  0
   39.5160   30.0800   42.3510 C   0  0  0  0  0  0  0  0  0  0  0  0
   39.0880   28.9530   42.9230 N   0  0  0  0  0  0  0  0  0  0  0  0
   37.7540   28.8510   42.6820 C   0  0  0  0  0  0  0  0  0  0  0  0
   37.4340   29.9420   41.9610 N   0  0  0  0  0  0  0  0  0  0  0  0
   37.2200   32.1050   40.1040 C   0  0  0  0  0  0  0  0  0  0  0  0
   38.2850   31.8960   40.9930 C   0  0  0  0  0  0  0  0  0  0  0  0
   39.2220   32.9550   41.1500 C   0  0  0  0  0  0  0  0  0  0  0  0
   39.0060   34.0870   40.4220 N   0  0  0  0  0  0  0  0  0  0  0  0
   37.9610   34.2240   39.5840 C   0  0  0  0  0  0  0  0  0  0  0  0
   37.0590   33.2220   39.4230 N   0  0  0  0  0  0  0  0  0  0  0  0
   36.8870   27.7370   43.1490 C   0  0  2  0  0  0  0  0  0  0  0  0
   36.7210   27.9800   44.6670 C   0  0  0  0  0  0  0  0  0  0  0  0
   37.4950   26.3950   42.9500 C   0  0  0  0  0  0  0  0  0  0  0  0
   37.0890   25.7230   41.7110 C   0  0  0  0  0  0  0  0  0  0  0  0
   36.9240   26.0290   40.3780 C   0  0  0  0  0  0  0  0  0  0  0  0
   36.5120   24.9480   39.6950 N   0  0  0  0  0  0  0  0  0  0  0  0
   36.4180   23.9730   40.5880 C   0  0  0  0  0  0  0  0  0  0  0  0
   36.7580   24.4020   41.8170 N   0  0  0  0  0  0  0  0  0  0  0  0
   40.5532   30.4458   42.3695 H   0  0  0  0  0  0  0  0  0  0  0  0
   36.4844   31.2984   39.9689 H   0  0  0  0  0  0  0  0  0  0  0  0
   40.0828   32.8643   41.8289 H   0  0  0  0  0  0  0  0  0  0  0  0
   37.8363   35.1612   39.0217 H   0  0  0  0  0  0  0  0  0  0  0  0
   35.9452   27.7331   42.5807 H   0  0  0  0  0  0  0  0  0  0  0  0
   37.2559   27.1969   45.2243 H   0  0  0  0  0  0  0  0  0  0  0  0
   37.1361   28.9646   44.9283 H   0  0  0  0  0  0  0  0  0  0  0  0
   35.6529   27.9514   44.9283 H   0  0  0  0  0  0  0  0  0  0  0  0
   38.5887   26.5116   42.9355 H   0  0  0  0  0  0  0  0  0  0  0  0
   37.1417   25.7644   43.7792 H   0  0  0  0  0  0  0  0  0  0  0  0
   37.1043   27.0196   39.9350 H   0  0  0  0  0  0  0  0  0  0  0  0
   36.1026   22.9454   40.3543 H   0  0  0  0  0  0  0  0  0  0  0  0
   36.7670   23.8382   42.6790 H   0  0  0  0  0  0  0  0  0  0  0  0
  1  5  1  0
  1  2  1  0
  2  3  2  0
  4  3  1  0
  4 12  1  0
  5  4  2  0
  6  7  2  0
  7  8  1  0
  7  1  1  0
  9  8  2  0
 10  9  1  0
 11 10  2  0
 11  6  1  0
 12 13  1  0
 14 12  1  0
 15 19  1  0
 15 14  1  0
 16 15  2  0
 17 16  1  0
 17 18  2  0
 18 19  1  0
  2 20  1  0
  6 21  1  0
  8 22  1  0
 10 23  1  0
 12 24  1  6
 13 25  1  0
 13 26  1  0
 13 27  1  0
 14 28  1  0
 14 29  1  0
 16 30  1  0
 18 31  1  0
 19 32  1  0
M  ISO  8  20  14  21  14  22  14  23  14  24   8  25   8  26   8  27   8
M  ISO  5  28   8  29   8  30  14  31  14  32   9
M  END
>  <minimizedAffinity>  (1) 
-4.98504972

>  <minimizedRMSD>  (1) 
0.764723003

$$$$
