
     RDKit          3D

 32 34  0  0  1  0  0  0  0  0999 V2000
   37.0160   27.6080   42.8870 C   0  0  2  0  0  0  0  0  0  0  0  0
   38.4870   30.7330   41.7530 N   0  0  0  0  0  0  0  0  0  0  0  0
   39.5150   30.1700   42.4480 C   0  0  0  0  0  0  0  0  0  0  0  0
   39.1260   28.9830   42.9420 N   0  0  0  0  0  0  0  0  0  0  0  0
   37.8370   28.7930   42.5560 C   0  0  0  0  0  0  0  0  0  0  0  0
   37.4870   29.8820   41.8340 N   0  0  0  0  0  0  0  0  0  0  0  0
   37.1980   32.1730   40.2010 C   0  0  0  0  0  0  0  0  0  0  0  0
   38.3050   31.9420   41.0310 C   0  0  0  0  0  0  0  0  0  0  0  0
   39.2550   32.9720   41.1270 C   0  0  0  0  0  0  0  0  0  0  0  0
   39.0330   34.1030   40.4180 N   0  0  0  0  0  0  0  0  0  0  0  0
   37.9710   34.2850   39.6400 C   0  0  0  0  0  0  0  0  0  0  0  0
   37.0480   33.3200   39.5290 N   0  0  0  0  0  0  0  0  0  0  0  0
   36.5630   27.8270   44.3450 C   0  0  0  0  0  0  0  0  0  0  0  0
   37.7700   26.3190   42.7670 C   0  0  0  0  0  0  0  0  0  0  0  0
   37.1590   25.5730   41.6270 C   0  0  0  0  0  0  0  0  0  0  0  0
   36.7770   24.2450   41.6060 C   0  0  0  0  0  0  0  0  0  0  0  0
   36.2600   23.9970   40.3330 C   0  0  0  0  0  0  0  0  0  0  0  0
   36.3350   25.1410   39.6270 N   0  0  0  0  0  0  0  0  0  0  0  0
   36.8700   26.0590   40.4150 N   0  0  0  0  0  0  0  0  0  0  0  0
   36.1761   27.5171   42.1825 H   0  0  0  0  0  0  0  0  0  0  0  0
   40.5102   30.6185   42.5836 H   0  0  0  0  0  0  0  0  0  0  0  0
   36.4324   31.3897   40.0999 H   0  0  0  0  0  0  0  0  0  0  0  0
   40.1497   32.8629   41.7575 H   0  0  0  0  0  0  0  0  0  0  0  0
   37.8497   35.2281   39.0870 H   0  0  0  0  0  0  0  0  0  0  0  0
   37.3379   27.4524   45.0299 H   0  0  0  0  0  0  0  0  0  0  0  0
   36.4049   28.9010   44.5224 H   0  0  0  0  0  0  0  0  0  0  0  0
   35.6231   27.2838   44.5224 H   0  0  0  0  0  0  0  0  0  0  0  0
   38.8327   26.5182   42.5644 H   0  0  0  0  0  0  0  0  0  0  0  0
   37.7125   25.7371   43.6987 H   0  0  0  0  0  0  0  0  0  0  0  0
   36.8635   23.5235   42.4318 H   0  0  0  0  0  0  0  0  0  0  0  0
   35.8621   23.0375   39.9711 H   0  0  0  0  0  0  0  0  0  0  0  0
   36.0315   25.2765   38.6521 H   0  0  0  0  0  0  0  0  0  0  0  0
  1 13  1  0
  2  6  1  0
  2  3  1  0
  3  4  2  0
  5  1  1  0
  5  4  1  0
  6  5  2  0
  7  8  2  0
  8  9  1  0
  8  2  1  0
 10  9  2  0
 11 10  1  0
 12 11  2  0
 12  7  1  0
 14  1  1  0
 15 14  1  0
 16 15  1  0
 17 16  2  0
 18 17  1  0
 18 19  1  0
 19 15  2  0
  1 20  1  6
  3 21  1  0
  7 22  1  0
  9 23  1  0
 11 24  1  0
 13 25  1  0
 13 26  1  0
 13 27  1  0
 14 28  1  0
 14 29  1  0
 16 30  1  0
 17 31  1  0
 18 32  1  0
M  ISO  8  20   8  21  14  22  14  23  14  24  14  25   8  26   8  27   8
M  ISO  5  28   8  29   8  30  14  31  14  32   9
M  END
>  <minimizedAffinity>  (1) 
-4.9767313

>  <minimizedRMSD>  (1) 
0.980139971

$$$$
