
     RDKit          3D

 31 33  0  0  1  0  0  0  0  0999 V2000
   38.9440   30.6410   41.6690 N   0  0  0  0  0  0  0  0  0  0  0  0
   40.1430   30.1250   41.9770 C   0  0  0  0  0  0  0  0  0  0  0  0
   39.9890   29.0320   42.7450 N   0  0  0  0  0  0  0  0  0  0  0  0
   38.6600   28.8530   42.9250 C   0  0  0  0  0  0  0  0  0  0  0  0
   38.0560   29.8570   42.2520 N   0  0  0  0  0  0  0  0  0  0  0  0
   37.3430   31.6850   40.0390 C   0  0  0  0  0  0  0  0  0  0  0  0
   38.4370   31.7510   40.9240 C   0  0  0  0  0  0  0  0  0  0  0  0
   39.0710   33.0150   41.0880 C   0  0  0  0  0  0  0  0  0  0  0  0
   38.5670   34.0550   40.3770 N   0  0  0  0  0  0  0  0  0  0  0  0
   37.5300   33.9290   39.5560 C   0  0  0  0  0  0  0  0  0  0  0  0
   36.9180   32.7520   39.3850 N   0  0  0  0  0  0  0  0  0  0  0  0
   38.0590   27.7580   43.7180 C   0  0  2  0  0  0  0  0  0  0  0  0
   39.1980   26.7320   43.9140 C   0  0  0  0  0  0  0  0  0  0  0  0
   36.8980   27.1080   43.0760 C   0  0  0  0  0  0  0  0  0  0  0  0
   37.2690   26.1380   42.0070 C   0  0  0  0  0  0  0  0  0  0  0  0
   36.9560   24.7960   42.2070 C   0  0  0  0  0  0  0  0  0  0  0  0
   37.5590   23.9640   40.7170 S   0  0  0  0  0  0  0  0  0  0  0  0
   38.1690   25.6230   40.0180 C   0  0  0  0  0  0  0  0  0  0  0  0
   37.8720   26.3300   40.8500 N   0  0  0  0  0  0  0  0  0  0  0  0
   41.1097   30.5353   41.6497 H   0  0  0  0  0  0  0  0  0  0  0  0
   36.8306   30.7233   39.8888 H   0  0  0  0  0  0  0  0  0  0  0  0
   39.9314   33.1429   41.7613 H   0  0  0  0  0  0  0  0  0  0  0  0
   37.1676   34.8100   39.0060 H   0  0  0  0  0  0  0  0  0  0  0  0
   37.6603   28.1639   44.6594 H   0  0  0  0  0  0  0  0  0  0  0  0
   39.3705   26.5766   44.9892 H   0  0  0  0  0  0  0  0  0  0  0  0
   38.9160   25.7772   43.4461 H   0  0  0  0  0  0  0  0  0  0  0  0
   40.1182   27.1119   43.4461 H   0  0  0  0  0  0  0  0  0  0  0  0
   36.3290   26.5714   43.8495 H   0  0  0  0  0  0  0  0  0  0  0  0
   36.3086   27.9038   42.5971 H   0  0  0  0  0  0  0  0  0  0  0  0
   36.4549   24.3433   43.0753 H   0  0  0  0  0  0  0  0  0  0  0  0
   38.6734   25.8374   39.0643 H   0  0  0  0  0  0  0  0  0  0  0  0
  1  2  1  0
  1  5  1  0
  2  3  2  0
  3  4  1  0
  4 12  1  0
  5  4  2  0
  6  7  2  0
  7  8  1  0
  7  1  1  0
  9  8  2  0
 10  9  1  0
 11 10  2  0
 11  6  1  0
 12 13  1  0
 14 12  1  0
 15 16  2  0
 15 14  1  0
 17 16  1  0
 18 17  1  0
 18 19  2  0
 19 15  1  0
  2 20  1  0
  6 21  1  0
  8 22  1  0
 10 23  1  0
 12 24  1  1
 13 25  1  0
 13 26  1  0
 13 27  1  0
 14 28  1  0
 14 29  1  0
 16 30  1  0
 18 31  1  0
M  ISO  8  20  14  21  14  22  14  23  14  24   8  25   8  26   8  27   8
M  ISO  4  28   8  29   8  30  14  31  14
M  END
>  <minimizedAffinity>  (1) 
-4.85997629

>  <minimizedRMSD>  (1) 
2.10881305

$$$$
