
     RDKit          3D

 26 27  0  0  1  0  0  0  0  0999 V2000
   38.4390   30.7170   41.6920 N   0  0  0  0  0  0  0  0  0  0  0  0
   39.4260   30.0460   42.3060 C   0  0  0  0  0  0  0  0  0  0  0  0
   38.9530   28.9100   42.8330 N   0  0  0  0  0  0  0  0  0  0  0  0
   37.6290   28.8530   42.5490 C   0  0  0  0  0  0  0  0  0  0  0  0
   37.3530   29.9760   41.8500 N   0  0  0  0  0  0  0  0  0  0  0  0
   37.2220   32.2270   40.0990 C   0  0  0  0  0  0  0  0  0  0  0  0
   38.2810   31.9350   40.9690 C   0  0  0  0  0  0  0  0  0  0  0  0
   39.2770   32.9350   41.1430 C   0  0  0  0  0  0  0  0  0  0  0  0
   39.1370   34.0980   40.4600 N   0  0  0  0  0  0  0  0  0  0  0  0
   38.1030   34.3280   39.6390 C   0  0  0  0  0  0  0  0  0  0  0  0
   37.1570   33.3970   39.4650 N   0  0  0  0  0  0  0  0  0  0  0  0
   36.7120   27.7590   42.9480 C   0  0  2  0  0  0  0  0  0  0  0  0
   36.7480   27.7600   44.4920 C   0  0  0  0  0  0  0  0  0  0  0  0
   37.1420   26.4240   42.4430 C   0  0  0  0  0  0  0  0  0  0  0  0
   38.4020   26.1630   43.0300 O   0  0  0  0  0  0  0  0  0  0  0  0
   40.4720   30.3810   42.3673 H   0  0  0  0  0  0  0  0  0  0  0  0
   36.4322   31.4787   39.9370 H   0  0  0  0  0  0  0  0  0  0  0  0
   40.1350   32.7701   41.8114 H   0  0  0  0  0  0  0  0  0  0  0  0
   38.0313   35.2871   39.1052 H   0  0  0  0  0  0  0  0  0  0  0  0
   35.7102   27.9278   42.5262 H   0  0  0  0  0  0  0  0  0  0  0  0
   35.7201   27.7314   44.8827 H   0  0  0  0  0  0  0  0  0  0  0  0
   37.2997   26.8768   44.8465 H   0  0  0  0  0  0  0  0  0  0  0  0
   37.2498   28.6724   44.8465 H   0  0  0  0  0  0  0  0  0  0  0  0
   36.4164   25.6527   42.7406 H   0  0  0  0  0  0  0  0  0  0  0  0
   37.2034   26.4135   41.3448 H   0  0  0  0  0  0  0  0  0  0  0  0
   38.3167   26.1807   44.0162 H   0  0  0  0  0  0  0  0  0  0  0  0
  1  5  1  0
  1  2  1  0
  2  3  2  0
  4  3  1  0
  4 12  1  0
  5  4  2  0
  6  7  2  0
  7  8  1  0
  7  1  1  0
  9  8  2  0
 10  9  1  0
 11 10  2  0
 11  6  1  0
 12 13  1  0
 14 12  1  0
 14 15  1  0
  2 16  1  0
  6 17  1  0
  8 18  1  0
 10 19  1  0
 12 20  1  1
 13 21  1  0
 13 22  1  0
 13 23  1  0
 14 24  1  0
 14 25  1  0
 15 26  1  0
M  ISO  8  16  14  17  14  18  14  19  14  20   8  21   8  22   8  23   8
M  ISO  3  24   8  25   8  26   3
M  END
>  <minimizedAffinity>  (1) 
-4.22966385

>  <minimizedRMSD>  (1) 
0.338717163

$$$$
