
     RDKit          3D

 26 27  0  0  1  0  0  0  0  0999 V2000
   39.5550   31.8560   41.5480 N   0  0  0  0  0  0  0  0  0  0  0  0
   40.3010   31.0100   42.3130 C   0  0  0  0  0  0  0  0  0  0  0  0
   39.5750   29.9200   42.6180 N   0  0  0  0  0  0  0  0  0  0  0  0
   38.3560   30.0800   42.0360 C   0  0  0  0  0  0  0  0  0  0  0  0
   38.3830   31.2650   41.3980 N   0  0  0  0  0  0  0  0  0  0  0  0
   38.7380   34.0640   40.7490 C   0  0  0  0  0  0  0  0  0  0  0  0
   39.7580   33.1200   40.9360 C   0  0  0  0  0  0  0  0  0  0  0  0
   41.0420   33.4700   40.4820 C   0  0  0  0  0  0  0  0  0  0  0  0
   41.2040   34.6860   39.8980 N   0  0  0  0  0  0  0  0  0  0  0  0
   40.2040   35.5490   39.7420 C   0  0  0  0  0  0  0  0  0  0  0  0
   38.9580   35.2420   40.1690 N   0  0  0  0  0  0  0  0  0  0  0  0
   37.2380   29.1000   42.1240 C   0  0  2  0  0  0  0  0  0  0  0  0
   37.3670   28.4880   43.5360 C   0  0  0  0  0  0  0  0  0  0  0  0
   37.3060   28.0340   41.1020 C   0  0  0  0  0  0  0  0  0  0  0  0
   37.3910   26.3930   41.8850 S   0  0  0  0  0  0  0  0  0  0  0  0
   41.3380   31.1911   42.6320 H   0  0  0  0  0  0  0  0  0  0  0  0
   37.7214   33.8230   41.0933 H   0  0  0  0  0  0  0  0  0  0  0  0
   41.8905   32.7794   40.5963 H   0  0  0  0  0  0  0  0  0  0  0  0
   40.3920   36.5206   39.2617 H   0  0  0  0  0  0  0  0  0  0  0  0
   36.2758   29.6021   41.9448 H   0  0  0  0  0  0  0  0  0  0  0  0
   37.2021   29.2705   44.2913 H   0  0  0  0  0  0  0  0  0  0  0  0
   36.6166   27.6935   43.6612 H   0  0  0  0  0  0  0  0  0  0  0  0
   38.3742   28.0640   43.6612 H   0  0  0  0  0  0  0  0  0  0  0  0
   38.2023   28.1849   40.4825 H   0  0  0  0  0  0  0  0  0  0  0  0
   36.3992   28.0821   40.4812 H   0  0  0  0  0  0  0  0  0  0  0  0
   37.3836   26.5362   43.2475 H   0  0  0  0  0  0  0  0  0  0  0  0
  1  2  1  0
  2  3  2  0
  4 12  1  0
  4  3  1  0
  5  1  1  0
  5  4  2  0
  6  7  2  0
  7  1  1  0
  8  7  1  0
  9  8  2  0
 10  9  1  0
 10 11  2  0
 11  6  1  0
 12 13  1  0
 14 15  1  0
 14 12  1  0
  2 16  1  0
  6 17  1  0
  8 18  1  0
 10 19  1  0
 12 20  1  1
 13 21  1  0
 13 22  1  0
 13 23  1  0
 14 24  1  0
 14 25  1  0
 15 26  1  0
M  ISO  8  16  14  17  14  18  14  19  14  20   8  21   8  22   8  23   8
M  ISO  3  24   8  25   8  26  11
M  END
>  <minimizedAffinity>  (1) 
-4.0043211

>  <minimizedRMSD>  (1) 
2.0075798

$$$$
