
     RDKit          3D

 47 51  0  0  1  0  0  0  0  0999 V2000
   37.8420   26.5180   42.8310 C   0  0  0  0  0  0  0  0  0  0  0  0
   37.3250   25.7020   41.7230 C   0  0  0  0  0  0  0  0  0  0  0  0
   36.7460   24.4680   41.9230 C   0  0  0  0  0  0  0  0  0  0  0  0
   36.3050   23.8160   40.7870 C   0  0  0  0  0  0  0  0  0  0  0  0
   36.4580   24.4060   39.5580 C   0  0  0  0  0  0  0  0  0  0  0  0
   37.0400   25.6420   39.3750 C   0  0  0  0  0  0  0  0  0  0  0  0
   37.4640   26.2610   40.5000 N   0  0  0  0  0  0  0  0  0  0  0  0
   37.1810   26.2220   38.0790 N   0  0  0  0  0  0  0  0  0  0  0  0
   37.6910   25.5350   37.0300 C   0  0  0  0  0  0  0  0  0  0  0  0
   37.6850   26.3730   35.9560 N   0  0  0  0  0  0  0  0  0  0  0  0
   37.1710   27.5640   36.3590 C   0  0  0  0  0  0  0  0  0  0  0  0
   36.9050   28.7840   35.7690 C   0  0  0  0  0  0  0  0  0  0  0  0
   36.3720   29.7870   36.4950 N   0  0  0  0  0  0  0  0  0  0  0  0
   36.0720   29.6560   37.8150 C   0  0  0  0  0  0  0  0  0  0  0  0
   36.3150   28.4730   38.4370 N   0  0  0  0  0  0  0  0  0  0  0  0
   36.8430   27.4910   37.7060 C   0  0  0  0  0  0  0  0  0  0  0  0
   37.2140   28.9390   34.3880 N   0  0  0  0  0  0  0  0  0  0  0  0
   37.1420   27.8170   42.9860 C   0  0  2  0  0  0  0  0  0  0  0  0
   38.6030   30.9040   41.6970 N   0  0  0  0  0  0  0  0  0  0  0  0
   39.6310   30.3330   42.3250 C   0  0  0  0  0  0  0  0  0  0  0  0
   39.2650   29.1650   42.8670 N   0  0  0  0  0  0  0  0  0  0  0  0
   37.9430   28.9910   42.5650 C   0  0  0  0  0  0  0  0  0  0  0  0
   37.5800   30.0710   41.8540 N   0  0  0  0  0  0  0  0  0  0  0  0
   37.2440   32.2690   40.0720 C   0  0  0  0  0  0  0  0  0  0  0  0
   38.3280   32.1010   40.9520 C   0  0  0  0  0  0  0  0  0  0  0  0
   39.2410   33.1890   41.1420 C   0  0  0  0  0  0  0  0  0  0  0  0
   38.9740   34.3160   40.4390 N   0  0  0  0  0  0  0  0  0  0  0  0
   37.9270   34.4250   39.6120 C   0  0  0  0  0  0  0  0  0  0  0  0
   37.0800   33.4160   39.4350 N   0  0  0  0  0  0  0  0  0  0  0  0
   36.8270   28.0490   44.4780 C   0  0  0  0  0  0  0  0  0  0  0  0
   38.9085   26.7167   42.6490 H   0  0  0  0  0  0  0  0  0  0  0  0
   37.6760   25.9484   43.7573 H   0  0  0  0  0  0  0  0  0  0  0  0
   36.6411   24.0284   42.9259 H   0  0  0  0  0  0  0  0  0  0  0  0
   35.8323   22.8261   40.8681 H   0  0  0  0  0  0  0  0  0  0  0  0
   36.0971   23.8639   38.6715 H   0  0  0  0  0  0  0  0  0  0  0  0
   38.0446   24.4935   37.0425 H   0  0  0  0  0  0  0  0  0  0  0  0
   35.6374   30.4986   38.3728 H   0  0  0  0  0  0  0  0  0  0  0  0
   37.0285   29.8356   33.9162 H   0  0  0  0  0  0  0  0  0  0  0  0
   37.6230   28.1545   33.8606 H   0  0  0  0  0  0  0  0  0  0  0  0
   36.2498   27.7431   42.3468 H   0  0  0  0  0  0  0  0  0  0  0  0
   40.6415   30.7628   42.3890 H   0  0  0  0  0  0  0  0  0  0  0  0
   36.5320   31.4456   39.9135 H   0  0  0  0  0  0  0  0  0  0  0  0
   40.1059   33.1138   41.8175 H   0  0  0  0  0  0  0  0  0  0  0  0
   37.7645   35.3675   39.0686 H   0  0  0  0  0  0  0  0  0  0  0  0
   37.5599   27.5092   45.0957 H   0  0  0  0  0  0  0  0  0  0  0  0
   36.8809   29.1248   44.7012 H   0  0  0  0  0  0  0  0  0  0  0  0
   35.8156   27.6784   44.7012 H   0  0  0  0  0  0  0  0  0  0  0  0
  1 18  1  0
  2  3  2  0
  2  1  1  0
  4  3  1  0
  5  4  2  0
  6  5  1  0
  6  7  2  0
  7  2  1  0
  8  6  1  0
  9  8  1  0
 10 11  1  0
 10  9  2  0
 11 16  2  0
 12 11  1  0
 12 13  2  0
 13 14  1  0
 14 15  2  0
 16  8  1  0
 16 15  1  0
 17 12  1  0
 18 30  1  0
 19 23  1  0
 19 20  1  0
 20 21  2  0
 22 21  1  0
 22 18  1  0
 23 22  2  0
 24 25  2  0
 25 26  1  0
 25 19  1  0
 27 26  2  0
 28 27  1  0
 29 28  2  0
 29 24  1  0
  1 31  1  0
  1 32  1  0
  3 33  1  0
  4 34  1  0
  5 35  1  0
  9 36  1  0
 14 37  1  0
 17 38  1  0
 17 39  1  0
 18 40  1  6
 20 41  1  0
 24 42  1  0
 26 43  1  0
 28 44  1  0
 30 45  1  0
 30 46  1  0
 30 47  1  0
M  ISO  8  31   8  32   8  33  14  34  14  35  14  36  14  37  14  40   8
M  ISO  7  41  14  42  14  43  14  44  14  45   8  46   8  47   8
M  END
>  <minimizedAffinity>  (1) 
-7.00602818

>  <minimizedRMSD>  (1) 
0.991972327

$$$$
