
     RDKit          3D

 47 50  0  0  1  0  0  0  0  0999 V2000
   37.4870   26.4180   42.9670 C   0  0  0  0  0  0  0  0  0  0  0  0
   37.0350   25.7890   41.7220 C   0  0  0  0  0  0  0  0  0  0  0  0
   36.8250   24.4310   41.6170 C   0  0  0  0  0  0  0  0  0  0  0  0
   36.3940   23.9900   40.3640 C   0  0  0  0  0  0  0  0  0  0  0  0
   36.2110   24.8830   39.3470 C   0  0  0  0  0  0  0  0  0  0  0  0
   36.4280   26.2390   39.4730 C   0  0  0  0  0  0  0  0  0  0  0  0
   36.8460   26.6510   40.6980 N   0  0  0  0  0  0  0  0  0  0  0  0
   36.2440   27.1940   38.4260 N   0  0  0  0  0  0  0  0  0  0  0  0
   36.8300   28.3820   38.2330 C   0  0  0  0  0  0  0  0  0  0  0  0
   36.4880   29.1380   37.1370 C   0  0  0  0  0  0  0  0  0  0  0  0
   37.1700   30.4360   36.9840 C   0  0  0  0  0  0  0  0  0  0  0  0
   35.5560   28.7110   36.2220 C   0  0  0  0  0  0  0  0  0  0  0  0
   35.2970   29.4560   35.2500 O   0  0  0  0  0  0  0  0  0  0  0  0
   34.9870   27.5000   36.4570 N   0  0  0  0  0  0  0  0  0  0  0  0
   35.3180   26.7600   37.5260 C   0  0  0  0  0  0  0  0  0  0  0  0
   34.6820   25.6570   37.5800 O   0  0  0  0  0  0  0  0  0  0  0  0
   36.9090   27.7650   43.2020 C   0  0  2  0  0  0  0  0  0  0  0  0
   38.5200   30.7250   41.8070 N   0  0  0  0  0  0  0  0  0  0  0  0
   39.5330   30.1070   42.4240 C   0  0  0  0  0  0  0  0  0  0  0  0
   39.1110   28.9760   43.0000 N   0  0  0  0  0  0  0  0  0  0  0  0
   37.7700   28.8760   42.7360 C   0  0  0  0  0  0  0  0  0  0  0  0
   37.4540   29.9620   42.0080 N   0  0  0  0  0  0  0  0  0  0  0  0
   37.1710   32.1610   40.2350 C   0  0  0  0  0  0  0  0  0  0  0  0
   38.2970   31.9210   41.0400 C   0  0  0  0  0  0  0  0  0  0  0  0
   39.3190   32.9240   41.1250 C   0  0  0  0  0  0  0  0  0  0  0  0
   39.0940   34.0500   40.3950 N   0  0  0  0  0  0  0  0  0  0  0  0
   38.0130   34.2320   39.6470 C   0  0  0  0  0  0  0  0  0  0  0  0
   37.0670   33.3020   39.5700 N   0  0  0  0  0  0  0  0  0  0  0  0
   36.7390   27.9880   44.7190 C   0  0  0  0  0  0  0  0  0  0  0  0
   38.5823   26.5122   42.9302 H   0  0  0  0  0  0  0  0  0  0  0  0
   37.1472   25.7752   43.7924 H   0  0  0  0  0  0  0  0  0  0  0  0
   36.9855   23.7432   42.4603 H   0  0  0  0  0  0  0  0  0  0  0  0
   36.2013   22.9202   40.1957 H   0  0  0  0  0  0  0  0  0  0  0  0
   35.8717   24.4994   38.3735 H   0  0  0  0  0  0  0  0  0  0  0  0
   37.5808   28.7511   38.9472 H   0  0  0  0  0  0  0  0  0  0  0  0
   37.3897   30.8541   37.9774 H   0  0  0  0  0  0  0  0  0  0  0  0
   38.1097   30.2934   36.4302 H   0  0  0  0  0  0  0  0  0  0  0  0
   36.5195   31.1289   36.4302 H   0  0  0  0  0  0  0  0  0  0  0  0
   34.2828   27.1404   35.7970 H   0  0  0  0  0  0  0  0  0  0  0  0
   35.9629   27.7788   42.6410 H   0  0  0  0  0  0  0  0  0  0  0  0
   40.5684   30.4771   42.4536 H   0  0  0  0  0  0  0  0  0  0  0  0
   36.3775   31.4032   40.1570 H   0  0  0  0  0  0  0  0  0  0  0  0
   40.2226   32.7919   41.7383 H   0  0  0  0  0  0  0  0  0  0  0  0
   37.8982   35.1684   39.0813 H   0  0  0  0  0  0  0  0  0  0  0  0
   37.3169   27.2300   45.2681 H   0  0  0  0  0  0  0  0  0  0  0  0
   37.1037   28.9910   44.9853 H   0  0  0  0  0  0  0  0  0  0  0  0
   35.6752   27.9020   44.9853 H   0  0  0  0  0  0  0  0  0  0  0  0
  1 17  1  0
  2  1  1  0
  3  2  2  0
  4  3  1  0
  5  6  1  0
  5  4  2  0
  6  7  2  0
  7  2  1  0
  8  6  1  0
  9  8  1  0
 10  9  2  0
 11 10  1  0
 12 14  1  0
 12 10  1  0
 13 12  2  0
 14 15  1  0
 15 16  2  0
 15  8  1  0
 17 29  1  0
 18 22  1  0
 18 19  1  0
 19 20  2  0
 21 20  1  0
 21 17  1  0
 22 21  2  0
 23 24  2  0
 24 25  1  0
 24 18  1  0
 26 25  2  0
 27 26  1  0
 28 27  2  0
 28 23  1  0
  1 30  1  0
  1 31  1  0
  3 32  1  0
  4 33  1  0
  5 34  1  0
  9 35  1  0
 11 36  1  0
 11 37  1  0
 11 38  1  0
 14 39  1  0
 17 40  1  6
 19 41  1  0
 23 42  1  0
 25 43  1  0
 27 44  1  0
 29 45  1  0
 29 46  1  0
 29 47  1  0
M  ISO  8  30   8  31   8  32  14  33  14  34  14  35  14  36   8  37   8
M  ISO  8  38   8  39   9  40   8  41  14  42  14  43  14  44  14  45   8
M  ISO  2  46   8  47   8
M  END
>  <minimizedAffinity>  (1) 
-6.82881784

>  <minimizedRMSD>  (1) 
0.366381049

$$$$
