
     RDKit          3D

 45 49  0  0  1  0  0  0  0  0999 V2000
   37.6110   26.4390   42.9330 C   0  0  0  0  0  0  0  0  0  0  0  0
   37.1310   25.7270   41.7430 C   0  0  0  0  0  0  0  0  0  0  0  0
   36.9880   24.3570   41.7020 C   0  0  0  0  0  0  0  0  0  0  0  0
   36.5250   23.8350   40.5130 C   0  0  0  0  0  0  0  0  0  0  0  0
   36.2380   24.6700   39.4610 C   0  0  0  0  0  0  0  0  0  0  0  0
   36.3840   26.0370   39.5100 C   0  0  0  0  0  0  0  0  0  0  0  0
   36.8430   26.5240   40.6950 N   0  0  0  0  0  0  0  0  0  0  0  0
   36.0770   26.8710   38.3970 N   0  0  0  0  0  0  0  0  0  0  0  0
   35.0700   26.5560   37.5330 C   0  0  0  0  0  0  0  0  0  0  0  0
   34.9960   27.5020   36.5860 N   0  0  0  0  0  0  0  0  0  0  0  0
   35.9270   28.4260   36.8090 C   0  0  0  0  0  0  0  0  0  0  0  0
   36.3770   29.6050   36.2450 C   0  0  0  0  0  0  0  0  0  0  0  0
   37.4000   30.3040   36.7770 N   0  0  0  0  0  0  0  0  0  0  0  0
   38.0420   29.8900   37.8890 C   0  0  0  0  0  0  0  0  0  0  0  0
   37.6360   28.7310   38.4830 N   0  0  0  0  0  0  0  0  0  0  0  0
   36.6020   28.0240   37.9460 C   0  0  0  0  0  0  0  0  0  0  0  0
   37.0330   27.7960   43.0900 C   0  0  2  0  0  0  0  0  0  0  0  0
   38.7590   30.7290   41.7870 N   0  0  0  0  0  0  0  0  0  0  0  0
   39.7450   30.0510   42.3730 C   0  0  0  0  0  0  0  0  0  0  0  0
   39.2800   28.9210   42.9130 N   0  0  0  0  0  0  0  0  0  0  0  0
   37.9350   28.8870   42.6550 C   0  0  0  0  0  0  0  0  0  0  0  0
   37.6630   30.0040   41.9700 N   0  0  0  0  0  0  0  0  0  0  0  0
   37.4090   32.3480   40.4040 C   0  0  0  0  0  0  0  0  0  0  0  0
   38.5870   31.9580   41.0610 C   0  0  0  0  0  0  0  0  0  0  0  0
   39.7180   32.8400   41.0190 C   0  0  0  0  0  0  0  0  0  0  0  0
   39.5530   33.9960   40.3360 N   0  0  0  0  0  0  0  0  0  0  0  0
   38.4200   34.3130   39.7350 C   0  0  0  0  0  0  0  0  0  0  0  0
   37.3480   33.5100   39.7590 N   0  0  0  0  0  0  0  0  0  0  0  0
   36.7660   28.0540   44.5900 C   0  0  0  0  0  0  0  0  0  0  0  0
   38.7047   26.5334   42.8635 H   0  0  0  0  0  0  0  0  0  0  0  0
   37.2949   25.8520   43.8079 H   0  0  0  0  0  0  0  0  0  0  0  0
   37.2286   23.7190   42.5652 H   0  0  0  0  0  0  0  0  0  0  0  0
   36.3854   22.7491   40.4068 H   0  0  0  0  0  0  0  0  0  0  0  0
   35.8707   24.2204   38.5267 H   0  0  0  0  0  0  0  0  0  0  0  0
   34.4230   25.6691   37.6020 H   0  0  0  0  0  0  0  0  0  0  0  0
   35.8865   29.9838   35.3362 H   0  0  0  0  0  0  0  0  0  0  0  0
   38.8747   30.4743   38.3076 H   0  0  0  0  0  0  0  0  0  0  0  0
   36.1283   27.8082   42.4644 H   0  0  0  0  0  0  0  0  0  0  0  0
   40.7952   30.3763   42.4074 H   0  0  0  0  0  0  0  0  0  0  0  0
   36.5296   31.6875   40.4227 H   0  0  0  0  0  0  0  0  0  0  0  0
   40.6674   32.5898   41.5151 H   0  0  0  0  0  0  0  0  0  0  0  0
   38.3546   35.2697   39.1961 H   0  0  0  0  0  0  0  0  0  0  0  0
   37.4266   27.4157   45.1951 H   0  0  0  0  0  0  0  0  0  0  0  0
   36.9648   29.1109   44.8213 H   0  0  0  0  0  0  0  0  0  0  0  0
   35.7166   27.8191   44.8213 H   0  0  0  0  0  0  0  0  0  0  0  0
  1 17  1  0
  2  1  1  0
  3  2  2  0
  4  3  1  0
  5  6  1  0
  5  4  2  0
  6  7  2  0
  7  2  1  0
  8  6  1  0
  9  8  1  0
 10 11  1  0
 10  9  2  0
 11 16  2  0
 12 13  2  0
 12 11  1  0
 13 14  1  0
 14 15  2  0
 16  8  1  0
 16 15  1  0
 17 29  1  0
 18 22  1  0
 18 19  1  0
 19 20  2  0
 21 20  1  0
 21 17  1  0
 22 21  2  0
 23 24  2  0
 24 18  1  0
 25 24  1  0
 26 25  2  0
 27 28  2  0
 27 26  1  0
 28 23  1  0
  1 30  1  0
  1 31  1  0
  3 32  1  0
  4 33  1  0
  5 34  1  0
  9 35  1  0
 12 36  1  0
 14 37  1  0
 17 38  1  6
 19 39  1  0
 23 40  1  0
 25 41  1  0
 27 42  1  0
 29 43  1  0
 29 44  1  0
 29 45  1  0
M  ISO  8  30   8  31   8  32  14  33  14  34  14  35  14  36  14  37  14
M  ISO  8  38   8  39  14  40  14  41  14  42  14  43   8  44   8  45   8
M  END
>  <minimizedAffinity>  (1) 
-6.65311289

>  <minimizedRMSD>  (1) 
0.456566662

$$$$
