
     RDKit          3D

 48 51  0  0  1  0  0  0  0  0999 V2000
   36.8790   27.7610   43.1800 C   0  0  2  0  0  0  0  0  0  0  0  0
   38.5020   30.7310   41.8250 N   0  0  0  0  0  0  0  0  0  0  0  0
   39.5010   30.1210   42.4620 C   0  0  0  0  0  0  0  0  0  0  0  0
   39.0770   28.9880   43.0300 N   0  0  0  0  0  0  0  0  0  0  0  0
   37.7430   28.8780   42.7340 C   0  0  0  0  0  0  0  0  0  0  0  0
   37.4380   29.9600   42.0010 N   0  0  0  0  0  0  0  0  0  0  0  0
   37.1850   32.1630   40.2250 C   0  0  0  0  0  0  0  0  0  0  0  0
   38.2940   31.9250   41.0540 C   0  0  0  0  0  0  0  0  0  0  0  0
   39.3060   32.9340   41.1570 C   0  0  0  0  0  0  0  0  0  0  0  0
   39.0950   34.0600   40.4240 N   0  0  0  0  0  0  0  0  0  0  0  0
   38.0320   34.2400   39.6540 C   0  0  0  0  0  0  0  0  0  0  0  0
   37.0910   33.3030   39.5580 N   0  0  0  0  0  0  0  0  0  0  0  0
   36.7140   27.9540   44.7030 C   0  0  0  0  0  0  0  0  0  0  0  0
   37.4530   26.4160   42.9220 C   0  0  0  0  0  0  0  0  0  0  0  0
   37.0280   25.8260   41.6500 C   0  0  0  0  0  0  0  0  0  0  0  0
   36.8350   24.4710   41.4920 C   0  0  0  0  0  0  0  0  0  0  0  0
   36.4320   24.0610   40.2240 C   0  0  0  0  0  0  0  0  0  0  0  0
   36.2530   24.9880   39.2360 C   0  0  0  0  0  0  0  0  0  0  0  0
   36.4510   26.3400   39.4090 C   0  0  0  0  0  0  0  0  0  0  0  0
   36.8440   26.7200   40.6510 N   0  0  0  0  0  0  0  0  0  0  0  0
   36.2710   27.3300   38.3950 N   0  0  0  0  0  0  0  0  0  0  0  0
   37.2130   27.5310   37.3100 C   0  0  0  0  0  0  0  0  0  0  0  0
   37.6380   28.9990   37.3670 C   0  0  0  0  0  0  0  0  0  0  0  0
   36.5080   29.8710   37.4740 N   0  0  0  0  0  0  0  0  0  0  0  0
   35.2400   29.1820   37.3320 C   0  0  0  0  0  0  0  0  0  0  0  0
   35.0950   28.1750   38.4490 C   0  0  0  0  0  0  0  0  0  0  0  0
   35.9330   27.7900   42.6194 H   0  0  0  0  0  0  0  0  0  0  0  0
   40.5330   30.4983   42.5133 H   0  0  0  0  0  0  0  0  0  0  0  0
   36.3955   31.4030   40.1301 H   0  0  0  0  0  0  0  0  0  0  0  0
   40.1972   32.8060   41.7889 H   0  0  0  0  0  0  0  0  0  0  0  0
   37.9254   35.1762   39.0864 H   0  0  0  0  0  0  0  0  0  0  0  0
   37.3396   27.2223   45.2352 H   0  0  0  0  0  0  0  0  0  0  0  0
   37.0251   28.9722   44.9794 H   0  0  0  0  0  0  0  0  0  0  0  0
   35.6598   27.8050   44.9794 H   0  0  0  0  0  0  0  0  0  0  0  0
   38.5496   26.5024   42.9151 H   0  0  0  0  0  0  0  0  0  0  0  0
   37.0880   25.7533   43.7205 H   0  0  0  0  0  0  0  0  0  0  0  0
   36.9895   23.7583   42.3155 H   0  0  0  0  0  0  0  0  0  0  0  0
   36.2583   22.9945   40.0181 H   0  0  0  0  0  0  0  0  0  0  0  0
   35.9322   24.6339   38.2452 H   0  0  0  0  0  0  0  0  0  0  0  0
   36.7327   27.3121   36.3449 H   0  0  0  0  0  0  0  0  0  0  0  0
   38.0809   26.8625   37.4091 H   0  0  0  0  0  0  0  0  0  0  0  0
   38.2884   29.1486   38.2414 H   0  0  0  0  0  0  0  0  0  0  0  0
   38.1709   29.2393   36.4352 H   0  0  0  0  0  0  0  0  0  0  0  0
   36.5318   30.3260   38.3977 H   0  0  0  0  0  0  0  0  0  0  0  0
   34.4174   29.9105   37.3841 H   0  0  0  0  0  0  0  0  0  0  0  0
   35.2064   28.6654   36.3615 H   0  0  0  0  0  0  0  0  0  0  0  0
   34.1867   27.5723   38.3020 H   0  0  0  0  0  0  0  0  0  0  0  0
   35.0073   28.6735   39.4256 H   0  0  0  0  0  0  0  0  0  0  0  0
  1 13  1  0
  2  6  1  0
  2  3  1  0
  3  4  2  0
  5  4  1  0
  5  1  1  0
  6  5  2  0
  7  8  2  0
  8  9  1  0
  8  2  1  0
 10  9  2  0
 11 10  1  0
 12 11  2  0
 12  7  1  0
 14  1  1  0
 15 14  1  0
 16 15  2  0
 17 16  1  0
 18 19  1  0
 18 17  2  0
 19 20  2  0
 20 15  1  0
 21 26  1  0
 21 19  1  0
 22 23  1  0
 22 21  1  0
 23 24  1  0
 25 24  1  0
 25 26  1  0
  1 27  1  6
  3 28  1  0
  7 29  1  0
  9 30  1  0
 11 31  1  0
 13 32  1  0
 13 33  1  0
 13 34  1  0
 14 35  1  0
 14 36  1  0
 16 37  1  0
 17 38  1  0
 18 39  1  0
 22 40  1  0
 22 41  1  0
 23 42  1  0
 23 43  1  0
 24 44  1  0
 25 45  1  0
 25 46  1  0
 26 47  1  0
 26 48  1  0
M  ISO  8  27   8  28  14  29  14  30  14  31  14  32   8  33   8  34   8
M  ISO  8  35   8  36   8  37  14  38  14  39  14  40  13  41  13  42  13
M  ISO  6  43  13  44   5  45  13  46  13  47  13  48  13
M  END
>  <minimizedAffinity>  (1) 
-6.29734325

>  <minimizedRMSD>  (1) 
0.394100666

$$$$
