
     RDKit          3D

 33 35  0  0  0  0  0  0  0  0999 V2000
   38.5360   27.8130   43.5120 C   0  0  0  0  0  0  0  0  0  0  0  0
   37.7000   26.8430   42.9120 C   0  0  0  0  0  0  0  0  0  0  0  0
   37.0330   27.1820   41.7410 C   0  0  0  0  0  0  0  0  0  0  0  0
   37.2160   28.4180   41.2340 N   0  0  0  0  0  0  0  0  0  0  0  0
   38.0070   29.3290   41.8060 C   0  0  0  0  0  0  0  0  0  0  0  0
   38.6650   29.0180   42.9480 N   0  0  0  0  0  0  0  0  0  0  0  0
   38.2260   30.6360   41.3110 N   0  0  0  0  0  0  0  0  0  0  0  0
   39.2760   31.2910   41.8160 N   0  0  0  0  0  0  0  0  0  0  0  0
   39.3140   32.5210   41.2120 C   0  0  0  0  0  0  0  0  0  0  0  0
   38.2350   32.5540   40.3270 C   0  0  0  0  0  0  0  0  0  0  0  0
   37.5440   31.3490   40.3940 C   0  0  0  0  0  0  0  0  0  0  0  0
   36.3550   30.9560   39.6440 C   0  0  0  0  0  0  0  0  0  0  0  0
   36.6840   30.3800   38.3000 C   0  0  0  0  0  0  0  0  0  0  0  0
   36.5500   28.9070   38.1540 C   0  0  0  0  0  0  0  0  0  0  0  0
   35.3890   28.2770   38.8490 C   0  0  0  0  0  0  0  0  0  0  0  0
   34.5780   29.2260   39.6860 C   0  0  0  0  0  0  0  0  0  0  0  0
   35.5970   29.9840   40.5260 C   0  0  0  0  0  0  0  0  0  0  0  0
   39.0782   27.5768   44.4395 H   0  0  0  0  0  0  0  0  0  0  0  0
   37.5808   25.8458   43.3607 H   0  0  0  0  0  0  0  0  0  0  0  0
   36.3719   26.4597   41.2399 H   0  0  0  0  0  0  0  0  0  0  0  0
   40.0475   33.3213   41.3892 H   0  0  0  0  0  0  0  0  0  0  0  0
   37.9720   33.4018   39.6773 H   0  0  0  0  0  0  0  0  0  0  0  0
   35.7348   31.8346   39.4128 H   0  0  0  0  0  0  0  0  0  0  0  0
   36.0159   30.8501   37.5633 H   0  0  0  0  0  0  0  0  0  0  0  0
   37.7534   30.5892   38.1498 H   0  0  0  0  0  0  0  0  0  0  0  0
   36.4599   28.6833   37.0808 H   0  0  0  0  0  0  0  0  0  0  0  0
   37.4446   28.4820   38.6327 H   0  0  0  0  0  0  0  0  0  0  0  0
   34.7278   27.8391   38.0867 H   0  0  0  0  0  0  0  0  0  0  0  0
   35.8044   27.5267   39.5378 H   0  0  0  0  0  0  0  0  0  0  0  0
   34.0129   29.9194   39.0458 H   0  0  0  0  0  0  0  0  0  0  0  0
   33.8405   28.6989   40.3091 H   0  0  0  0  0  0  0  0  0  0  0  0
   36.3029   29.2714   40.9776 H   0  0  0  0  0  0  0  0  0  0  0  0
   35.0773   30.5386   41.3211 H   0  0  0  0  0  0  0  0  0  0  0  0
  2  1  2  0
  3  2  1  0
  4  3  2  0
  4  5  1  0
  5  6  2  0
  6  1  1  0
  7  5  1  0
  7  8  1  0
  9  8  2  0
 10 11  2  0
 10  9  1  0
 11  7  1  0
 12 11  1  0
 12 17  1  0
 13 12  1  0
 14 13  1  0
 14 15  1  0
 15 16  1  0
 16 17  1  0
  1 18  1  0
  2 19  1  0
  3 20  1  0
  9 21  1  0
 10 22  1  0
 12 23  1  0
 13 24  1  0
 13 25  1  0
 14 26  1  0
 14 27  1  0
 15 28  1  0
 15 29  1  0
 16 30  1  0
 16 31  1  0
 17 32  1  0
 17 33  1  0
M  ISO  8  18  14  19  14  20  14  21  14  22  14  23  13  24  13  25  13
M  ISO  8  26  13  27  13  28  13  29  13  30  13  31  13  32  13  33  13
M  END
>  <minimizedAffinity>  (1) 
-5.03013515

>  <minimizedRMSD>  (1) 
1.08417785

$$$$
