
     RDKit          3D

 47 50  0  0  1  0  0  0  0  0999 V2000
   37.5960   26.4730   42.9730 C   0  0  0  0  0  0  0  0  0  0  0  0
   37.1150   25.7500   41.7960 C   0  0  0  0  0  0  0  0  0  0  0  0
   36.8600   24.3980   41.7970 C   0  0  0  0  0  0  0  0  0  0  0  0
   36.4100   23.8580   40.6050 C   0  0  0  0  0  0  0  0  0  0  0  0
   36.2450   24.6660   39.5110 C   0  0  0  0  0  0  0  0  0  0  0  0
   36.5040   26.0200   39.5150 C   0  0  0  0  0  0  0  0  0  0  0  0
   36.9420   26.5270   40.6920 N   0  0  0  0  0  0  0  0  0  0  0  0
   36.0190   28.6920   36.3220 C   0  0  0  0  0  0  0  0  0  0  0  0
   35.9150   29.1510   37.6310 C   0  0  0  0  0  0  0  0  0  0  0  0
   36.0820   28.2310   38.6610 C   0  0  0  0  0  0  0  0  0  0  0  0
   36.3420   26.9150   38.3750 C   0  0  0  0  0  0  0  0  0  0  0  0
   36.4420   26.4780   37.0830 C   0  0  0  0  0  0  0  0  0  0  0  0
   36.2760   27.3890   36.0370 C   0  0  0  0  0  0  0  0  0  0  0  0
   35.8310   29.7380   34.9120 S   0  0  0  0  0  0  0  0  0  0  0  0
   34.3760   29.7930   34.5380 O   0  0  0  0  0  0  0  0  0  0  0  0
   36.6510   29.2200   33.7640 O   0  0  0  0  0  0  0  0  0  0  0  0
   36.9570   27.7990   43.1690 C   0  0  2  0  0  0  0  0  0  0  0  0
   38.4630   30.7890   41.7250 N   0  0  0  0  0  0  0  0  0  0  0  0
   39.4910   30.2280   42.3610 C   0  0  0  0  0  0  0  0  0  0  0  0
   39.1080   29.0940   42.9590 N   0  0  0  0  0  0  0  0  0  0  0  0
   37.7740   28.9330   42.6860 C   0  0  0  0  0  0  0  0  0  0  0  0
   37.4290   29.9840   41.9370 N   0  0  0  0  0  0  0  0  0  0  0  0
   37.1710   32.0810   39.9890 C   0  0  0  0  0  0  0  0  0  0  0  0
   38.2070   31.9580   40.9310 C   0  0  0  0  0  0  0  0  0  0  0  0
   39.0860   33.0730   41.1290 C   0  0  0  0  0  0  0  0  0  0  0  0
   38.8460   34.1720   40.3840 N   0  0  0  0  0  0  0  0  0  0  0  0
   37.8510   34.2360   39.5070 C   0  0  0  0  0  0  0  0  0  0  0  0
   37.0230   33.2080   39.3090 N   0  0  0  0  0  0  0  0  0  0  0  0
   36.7590   28.0460   44.6810 C   0  0  0  0  0  0  0  0  0  0  0  0
   38.6805   26.6237   42.8673 H   0  0  0  0  0  0  0  0  0  0  0  0
   37.3373   25.8618   43.8502 H   0  0  0  0  0  0  0  0  0  0  0  0
   37.0058   23.7805   42.6956 H   0  0  0  0  0  0  0  0  0  0  0  0
   36.1855   22.7834   40.5361 H   0  0  0  0  0  0  0  0  0  0  0  0
   35.8858   24.2088   38.5772 H   0  0  0  0  0  0  0  0  0  0  0  0
   35.7069   30.2097   37.8452 H   0  0  0  0  0  0  0  0  0  0  0  0
   36.0053   28.5599   39.7079 H   0  0  0  0  0  0  0  0  0  0  0  0
   36.6511   25.4194   36.8695 H   0  0  0  0  0  0  0  0  0  0  0  0
   36.3527   27.0542   34.9920 H   0  0  0  0  0  0  0  0  0  0  0  0
   36.2733   30.9995   35.2119 H   0  0  0  0  0  0  0  0  0  0  0  0
   36.0179   27.7619   42.5974 H   0  0  0  0  0  0  0  0  0  0  0  0
   40.5108   30.6393   42.3902 H   0  0  0  0  0  0  0  0  0  0  0  0
   36.4826   31.2406   39.8164 H   0  0  0  0  0  0  0  0  0  0  0  0
   39.9143   33.0345   41.8518 H   0  0  0  0  0  0  0  0  0  0  0  0
   37.7053   35.1603   38.9286 H   0  0  0  0  0  0  0  0  0  0  0  0
   37.3469   27.3126   45.2524 H   0  0  0  0  0  0  0  0  0  0  0  0
   37.0953   29.0624   44.9336 H   0  0  0  0  0  0  0  0  0  0  0  0
   35.6938   27.9389   44.9336 H   0  0  0  0  0  0  0  0  0  0  0  0
  1 17  1  0
  2  3  2  0
  2  1  1  0
  4  3  1  0
  5  6  1  0
  5  4  2  0
  6  7  2  0
  7  2  1  0
  8  9  2  0
  9 10  1  0
 11 10  2  0
 11  6  1  0
 12 11  1  0
 13  8  1  0
 13 12  2  0
 14  8  1  0
 15 14  2  0
 16 14  2  0
 17 29  1  0
 18 22  1  0
 18 19  1  0
 19 20  2  0
 21 20  1  0
 21 17  1  0
 22 21  2  0
 23 24  2  0
 24 25  1  0
 24 18  1  0
 26 25  2  0
 27 26  1  0
 28 27  2  0
 28 23  1  0
  1 30  1  0
  1 31  1  0
  3 32  1  0
  4 33  1  0
  5 34  1  0
  9 35  1  0
 10 36  1  0
 12 37  1  0
 13 38  1  0
 14 39  1  0
 17 40  1  6
 19 41  1  0
 23 42  1  0
 25 43  1  0
 27 44  1  0
 29 45  1  0
 29 46  1  0
 29 47  1  0
M  ISO  8  30   8  31   8  32  14  33  14  34  14  35  14  36  14  37  14
M  ISO  8  38  14  39  11  40   8  41  14  42  14  43  14  44  14  45   8
M  ISO  2  46   8  47   8
M  END
>  <minimizedAffinity>  (1) 
-6.26819611

>  <minimizedRMSD>  (1) 
0.142940462

$$$$
