
     RDKit          3D

 44 47  0  0  1  0  0  0  0  0999 V2000
   36.9050   27.7670   43.2160 C   0  0  2  0  0  0  0  0  0  0  0  0
   38.4680   30.7350   41.7820 N   0  0  0  0  0  0  0  0  0  0  0  0
   39.4860   30.1480   42.4320 C   0  0  0  0  0  0  0  0  0  0  0  0
   39.0800   29.0220   43.0240 N   0  0  0  0  0  0  0  0  0  0  0  0
   37.7460   28.8870   42.7400 C   0  0  0  0  0  0  0  0  0  0  0  0
   37.4240   29.9430   41.9890 N   0  0  0  0  0  0  0  0  0  0  0  0
   37.1920   32.0740   40.0890 C   0  0  0  0  0  0  0  0  0  0  0  0
   38.2530   31.9060   40.9930 C   0  0  0  0  0  0  0  0  0  0  0  0
   39.1970   32.9740   41.1500 C   0  0  0  0  0  0  0  0  0  0  0  0
   38.9650   34.0740   40.3870 N   0  0  0  0  0  0  0  0  0  0  0  0
   37.9440   34.1800   39.5470 C   0  0  0  0  0  0  0  0  0  0  0  0
   37.0570   33.1890   39.3940 N   0  0  0  0  0  0  0  0  0  0  0  0
   36.7450   27.9910   44.7350 C   0  0  0  0  0  0  0  0  0  0  0  0
   37.4950   26.4260   42.9830 C   0  0  0  0  0  0  0  0  0  0  0  0
   37.0580   25.7960   41.7320 C   0  0  0  0  0  0  0  0  0  0  0  0
   36.9060   24.4300   41.6090 C   0  0  0  0  0  0  0  0  0  0  0  0
   36.4830   23.9870   40.3650 C   0  0  0  0  0  0  0  0  0  0  0  0
   36.2460   24.8930   39.3580 C   0  0  0  0  0  0  0  0  0  0  0  0
   36.4030   26.2530   39.5010 C   0  0  0  0  0  0  0  0  0  0  0  0
   36.8160   26.6620   40.7240 N   0  0  0  0  0  0  0  0  0  0  0  0
   36.1550   27.2020   38.4510 C   0  0  0  0  0  0  0  0  0  0  0  0
   36.1960   26.8730   37.1140 C   0  0  0  0  0  0  0  0  0  0  0  0
   35.9520   27.8090   36.1220 C   0  0  0  0  0  0  0  0  0  0  0  0
   35.6530   29.1240   36.4260 C   0  0  0  0  0  0  0  0  0  0  0  0
   35.6120   29.4530   37.7820 C   0  0  0  0  0  0  0  0  0  0  0  0
   35.8590   28.5080   38.7640 C   0  0  0  0  0  0  0  0  0  0  0  0
   35.9558   27.7689   42.6601 H   0  0  0  0  0  0  0  0  0  0  0  0
   40.5128   30.5406   42.4713 H   0  0  0  0  0  0  0  0  0  0  0  0
   36.4606   31.2630   39.9573 H   0  0  0  0  0  0  0  0  0  0  0  0
   40.0504   32.9072   41.8408 H   0  0  0  0  0  0  0  0  0  0  0  0
   37.8232   35.1039   38.9623 H   0  0  0  0  0  0  0  0  0  0  0  0
   37.3001   27.2138   45.2807 H   0  0  0  0  0  0  0  0  0  0  0  0
   37.1413   28.9814   45.0033 H   0  0  0  0  0  0  0  0  0  0  0  0
   35.6796   27.9374   45.0033 H   0  0  0  0  0  0  0  0  0  0  0  0
   38.5898   26.5288   42.9555 H   0  0  0  0  0  0  0  0  0  0  0  0
   37.1534   25.7786   43.8041 H   0  0  0  0  0  0  0  0  0  0  0  0
   37.1068   23.7394   42.4413 H   0  0  0  0  0  0  0  0  0  0  0  0
   36.3372   22.9119   40.1838 H   0  0  0  0  0  0  0  0  0  0  0  0
   35.9120   24.5091   38.3828 H   0  0  0  0  0  0  0  0  0  0  0  0
   36.4292   25.8374   36.8256 H   0  0  0  0  0  0  0  0  0  0  0  0
   35.9973   27.4984   35.0677 H   0  0  0  0  0  0  0  0  0  0  0  0
   35.4580   29.8705   35.6420 H   0  0  0  0  0  0  0  0  0  0  0  0
   35.3782   30.4865   38.0774 H   0  0  0  0  0  0  0  0  0  0  0  0
   35.8174   28.8097   39.8210 H   0  0  0  0  0  0  0  0  0  0  0  0
  1 13  1  0
  2  6  1  0
  2  3  1  0
  3  4  2  0
  5  4  1  0
  5  1  1  0
  6  5  2  0
  7  8  2  0
  8  9  1  0
  8  2  1  0
 10  9  2  0
 11 10  1  0
 12 11  2  0
 12  7  1  0
 14  1  1  0
 15 14  1  0
 16 15  2  0
 17 16  1  0
 18 19  1  0
 18 17  2  0
 19 20  2  0
 20 15  1  0
 21 26  1  0
 21 19  1  0
 22 21  2  0
 23 24  2  0
 23 22  1  0
 24 25  1  0
 25 26  2  0
  1 27  1  6
  3 28  1  0
  7 29  1  0
  9 30  1  0
 11 31  1  0
 13 32  1  0
 13 33  1  0
 13 34  1  0
 14 35  1  0
 14 36  1  0
 16 37  1  0
 17 38  1  0
 18 39  1  0
 22 40  1  0
 23 41  1  0
 24 42  1  0
 25 43  1  0
 26 44  1  0
M  ISO  8  27   8  28  14  29  14  30  14  31  14  32   8  33   8  34   8
M  ISO  8  35   8  36   8  37  14  38  14  39  14  40  14  41  14  42  14
M  ISO  2  43  14  44  14
M  END
>  <minimizedAffinity>  (1) 
-6.22111511

>  <minimizedRMSD>  (1) 
0.347923845

$$$$
