
     RDKit          3D

 44 47  0  0  1  0  0  0  0  0999 V2000
   36.8910   27.7660   43.2180 C   0  0  2  0  0  0  0  0  0  0  0  0
   38.4780   30.7270   41.7910 N   0  0  0  0  0  0  0  0  0  0  0  0
   39.4890   30.1390   42.4350 C   0  0  0  0  0  0  0  0  0  0  0  0
   39.0760   29.0130   43.0280 N   0  0  0  0  0  0  0  0  0  0  0  0
   37.7410   28.8820   42.7470 C   0  0  0  0  0  0  0  0  0  0  0  0
   37.4220   29.9490   41.9900 N   0  0  0  0  0  0  0  0  0  0  0  0
   37.1860   32.0750   40.1060 C   0  0  0  0  0  0  0  0  0  0  0  0
   38.2590   31.9040   40.9980 C   0  0  0  0  0  0  0  0  0  0  0  0
   39.2130   32.9640   41.1470 C   0  0  0  0  0  0  0  0  0  0  0  0
   38.9860   34.0710   40.3880 N   0  0  0  0  0  0  0  0  0  0  0  0
   37.9520   34.1790   39.5570 C   0  0  0  0  0  0  0  0  0  0  0  0
   37.0660   33.1990   39.4180 N   0  0  0  0  0  0  0  0  0  0  0  0
   36.7440   27.9860   44.7380 C   0  0  0  0  0  0  0  0  0  0  0  0
   37.4760   26.4230   42.9800 C   0  0  0  0  0  0  0  0  0  0  0  0
   37.0460   25.8020   41.7250 C   0  0  0  0  0  0  0  0  0  0  0  0
   36.8910   24.4410   41.5870 C   0  0  0  0  0  0  0  0  0  0  0  0
   36.4750   24.0010   40.3390 C   0  0  0  0  0  0  0  0  0  0  0  0
   36.2460   24.9130   39.3350 C   0  0  0  0  0  0  0  0  0  0  0  0
   36.4070   26.2730   39.4920 C   0  0  0  0  0  0  0  0  0  0  0  0
   36.8130   26.6750   40.7200 N   0  0  0  0  0  0  0  0  0  0  0  0
   36.1670   27.2250   38.4400 C   0  0  0  0  0  0  0  0  0  0  0  0
   36.1450   26.9060   37.1120 C   0  0  0  0  0  0  0  0  0  0  0  0
   35.9170   27.8120   36.1090 C   0  0  0  0  0  0  0  0  0  0  0  0
   35.6920   29.1310   36.4200 C   0  0  0  0  0  0  0  0  0  0  0  0
   35.7090   29.4820   37.7660 C   0  0  0  0  0  0  0  0  0  0  0  0
   35.9420   28.5480   38.7600 C   0  0  0  0  0  0  0  0  0  0  0  0
   35.9395   27.7749   42.6661 H   0  0  0  0  0  0  0  0  0  0  0  0
   40.5179   30.5263   42.4728 H   0  0  0  0  0  0  0  0  0  0  0  0
   36.4443   31.2725   39.9796 H   0  0  0  0  0  0  0  0  0  0  0  0
   40.0720   32.8877   41.8299 H   0  0  0  0  0  0  0  0  0  0  0  0
   37.8281   35.1018   38.9713 H   0  0  0  0  0  0  0  0  0  0  0  0
   37.2767   27.1887   45.2771 H   0  0  0  0  0  0  0  0  0  0  0  0
   37.1720   28.9620   45.0103 H   0  0  0  0  0  0  0  0  0  0  0  0
   35.6785   27.9641   45.0103 H   0  0  0  0  0  0  0  0  0  0  0  0
   38.5715   26.5210   42.9604 H   0  0  0  0  0  0  0  0  0  0  0  0
   37.1245   25.7728   43.7947 H   0  0  0  0  0  0  0  0  0  0  0  0
   37.0853   23.7447   42.4161 H   0  0  0  0  0  0  0  0  0  0  0  0
   36.3288   22.9268   40.1529 H   0  0  0  0  0  0  0  0  0  0  0  0
   35.9170   24.5371   38.3550 H   0  0  0  0  0  0  0  0  0  0  0  0
   36.3211   25.8574   36.8301 H   0  0  0  0  0  0  0  0  0  0  0  0
   35.9142   27.4841   35.0590 H   0  0  0  0  0  0  0  0  0  0  0  0
   35.5058   29.8798   35.6360 H   0  0  0  0  0  0  0  0  0  0  0  0
   35.5324   30.5305   38.0478 H   0  0  0  0  0  0  0  0  0  0  0  0
   35.9479   28.8629   39.8139 H   0  0  0  0  0  0  0  0  0  0  0  0
  1 13  1  0
  2  6  1  0
  2  3  1  0
  3  4  2  0
  5  4  1  0
  5  1  1  0
  6  5  2  0
  7  8  2  0
  8  9  1  0
  8  2  1  0
 10  9  2  0
 11 10  1  0
 12 11  2  0
 12  7  1  0
 14  1  1  0
 15 14  1  0
 16 15  2  0
 17 16  1  0
 18 19  1  0
 18 17  2  0
 19 20  2  0
 20 15  1  0
 21 26  1  0
 21 19  1  0
 22 21  2  0
 23 24  2  0
 23 22  1  0
 24 25  1  0
 25 26  2  0
  1 27  1  6
  3 28  1  0
  7 29  1  0
  9 30  1  0
 11 31  1  0
 13 32  1  0
 13 33  1  0
 13 34  1  0
 14 35  1  0
 14 36  1  0
 16 37  1  0
 17 38  1  0
 18 39  1  0
 22 40  1  0
 23 41  1  0
 24 42  1  0
 25 43  1  0
 26 44  1  0
M  ISO  8  27   8  28  14  29  14  30  14  31  14  32   8  33   8  34   8
M  ISO  8  35   8  36   8  37  14  38  14  39  14  40  14  41  14  42  14
M  ISO  2  43  14  44  14
M  END
>  <minimizedAffinity>  (1) 
-6.22082424

>  <minimizedRMSD>  (1) 
0.361554682

$$$$
