
     RDKit          3D

 47 50  0  0  1  0  0  0  0  0999 V2000
   36.9010   27.7470   43.1440 C   0  0  2  0  0  0  0  0  0  0  0  0
   38.5150   30.7260   41.7860 N   0  0  0  0  0  0  0  0  0  0  0  0
   39.5300   30.0980   42.3920 C   0  0  0  0  0  0  0  0  0  0  0  0
   39.1070   28.9610   42.9540 N   0  0  0  0  0  0  0  0  0  0  0  0
   37.7660   28.8610   42.6960 C   0  0  0  0  0  0  0  0  0  0  0  0
   37.4470   29.9610   41.9790 N   0  0  0  0  0  0  0  0  0  0  0  0
   37.1880   32.1780   40.2130 C   0  0  0  0  0  0  0  0  0  0  0  0
   38.3020   31.9320   41.0340 C   0  0  0  0  0  0  0  0  0  0  0  0
   39.3090   32.9460   41.1450 C   0  0  0  0  0  0  0  0  0  0  0  0
   39.1080   34.0740   40.4410 N   0  0  0  0  0  0  0  0  0  0  0  0
   38.0240   34.2570   39.6700 C   0  0  0  0  0  0  0  0  0  0  0  0
   37.0850   33.3230   39.5610 N   0  0  0  0  0  0  0  0  0  0  0  0
   36.7240   27.9640   44.6610 C   0  0  0  0  0  0  0  0  0  0  0  0
   37.4910   26.4050   42.9090 C   0  0  0  0  0  0  0  0  0  0  0  0
   37.0270   25.7690   41.6690 C   0  0  0  0  0  0  0  0  0  0  0  0
   36.7450   24.4210   41.5910 C   0  0  0  0  0  0  0  0  0  0  0  0
   36.3170   23.9680   40.3540 C   0  0  0  0  0  0  0  0  0  0  0  0
   36.1970   24.8470   39.3030 C   0  0  0  0  0  0  0  0  0  0  0  0
   36.4850   26.1950   39.4020 C   0  0  0  0  0  0  0  0  0  0  0  0
   36.9010   26.6120   40.6200 N   0  0  0  0  0  0  0  0  0  0  0  0
   36.3540   27.1460   38.2610 C   0  0  0  0  0  0  0  0  0  0  0  0
   36.6660   28.5620   38.6240 C   0  0  0  0  0  0  0  0  0  0  0  0
   35.3330   29.2580   38.8170 C   0  0  0  0  0  0  0  0  0  0  0  0
   34.2900   28.3830   38.1780 C   0  0  0  0  0  0  0  0  0  0  0  0
   34.9550   27.1350   37.6910 C   0  0  0  0  0  0  0  0  0  0  0  0
   35.9588   27.7583   42.5764 H   0  0  0  0  0  0  0  0  0  0  0  0
   40.5663   30.4657   42.4232 H   0  0  0  0  0  0  0  0  0  0  0  0
   36.4007   31.4164   40.1130 H   0  0  0  0  0  0  0  0  0  0  0  0
   40.2008   32.8085   41.7740 H   0  0  0  0  0  0  0  0  0  0  0  0
   37.9107   35.2008   39.1164 H   0  0  0  0  0  0  0  0  0  0  0  0
   37.3266   27.2253   45.2098 H   0  0  0  0  0  0  0  0  0  0  0  0
   37.0556   28.9784   44.9274 H   0  0  0  0  0  0  0  0  0  0  0  0
   35.6636   27.8430   44.9274 H   0  0  0  0  0  0  0  0  0  0  0  0
   38.5848   26.5098   42.8582 H   0  0  0  0  0  0  0  0  0  0  0  0
   37.1713   25.7611   43.7416 H   0  0  0  0  0  0  0  0  0  0  0  0
   36.8530   23.7492   42.4553 H   0  0  0  0  0  0  0  0  0  0  0  0
   36.0730   22.9048   40.2122 H   0  0  0  0  0  0  0  0  0  0  0  0
   35.8540   24.4568   38.3334 H   0  0  0  0  0  0  0  0  0  0  0  0
   37.0898   26.7926   37.5237 H   0  0  0  0  0  0  0  0  0  0  0  0
   37.2512   28.5960   39.5548 H   0  0  0  0  0  0  0  0  0  0  0  0
   37.2622   29.0525   37.8404 H   0  0  0  0  0  0  0  0  0  0  0  0
   35.1206   29.3789   39.8895 H   0  0  0  0  0  0  0  0  0  0  0  0
   35.3409   30.2595   38.3621 H   0  0  0  0  0  0  0  0  0  0  0  0
   33.5160   28.1276   38.9167 H   0  0  0  0  0  0  0  0  0  0  0  0
   33.8163   28.9116   37.3376 H   0  0  0  0  0  0  0  0  0  0  0  0
   34.4071   26.2492   38.0449 H   0  0  0  0  0  0  0  0  0  0  0  0
   34.9729   27.0959   36.5918 H   0  0  0  0  0  0  0  0  0  0  0  0
  1 13  1  0
  2  6  1  0
  2  3  1  0
  3  4  2  0
  5  4  1  0
  5  1  1  0
  6  5  2  0
  7  8  2  0
  8  9  1  0
  8  2  1  0
 10  9  2  0
 11 10  1  0
 12 11  2  0
 12  7  1  0
 14  1  1  0
 15 14  1  0
 16 15  2  0
 17 16  1  0
 18 19  1  0
 18 17  2  0
 19 20  2  0
 20 15  1  0
 21 22  1  0
 21 19  1  0
 22 23  1  0
 24 23  1  0
 25 24  1  0
 25 21  1  0
  1 26  1  6
  3 27  1  0
  7 28  1  0
  9 29  1  0
 11 30  1  0
 13 31  1  0
 13 32  1  0
 13 33  1  0
 14 34  1  0
 14 35  1  0
 16 36  1  0
 17 37  1  0
 18 38  1  0
 21 39  1  0
 22 40  1  0
 22 41  1  0
 23 42  1  0
 23 43  1  0
 24 44  1  0
 24 45  1  0
 25 46  1  0
 25 47  1  0
M  ISO  8  26   8  27  14  28  14  29  14  30  14  31   8  32   8  33   8
M  ISO  8  34   8  35   8  36  14  37  14  38  14  39  13  40  13  41  13
M  ISO  6  42  13  43  13  44  13  45  13  46  13  47  13
M  END
>  <minimizedAffinity>  (1) 
-6.19220686

>  <minimizedRMSD>  (1) 
1.24798429

$$$$
