
     RDKit          3D

 43 46  0  0  1  0  0  0  0  0999 V2000
   36.9100   27.7820   43.2420 C   0  0  2  0  0  0  0  0  0  0  0  0
   38.4840   30.7340   41.7900 N   0  0  0  0  0  0  0  0  0  0  0  0
   39.4970   30.1450   42.4250 C   0  0  0  0  0  0  0  0  0  0  0  0
   39.0910   29.0220   43.0260 N   0  0  0  0  0  0  0  0  0  0  0  0
   37.7540   28.8970   42.7550 C   0  0  0  0  0  0  0  0  0  0  0  0
   37.4270   29.9600   42.0010 N   0  0  0  0  0  0  0  0  0  0  0  0
   37.1920   32.0650   40.0800 C   0  0  0  0  0  0  0  0  0  0  0  0
   38.2480   31.9070   40.9940 C   0  0  0  0  0  0  0  0  0  0  0  0
   39.1690   32.9900   41.1590 C   0  0  0  0  0  0  0  0  0  0  0  0
   38.9560   34.0920   40.4200 N   0  0  0  0  0  0  0  0  0  0  0  0
   37.9300   34.1900   39.5610 C   0  0  0  0  0  0  0  0  0  0  0  0
   37.0680   33.1900   39.3990 N   0  0  0  0  0  0  0  0  0  0  0  0
   36.7620   28.0130   44.7600 C   0  0  0  0  0  0  0  0  0  0  0  0
   37.4880   26.4380   43.0060 C   0  0  0  0  0  0  0  0  0  0  0  0
   37.0550   25.8260   41.7420 C   0  0  0  0  0  0  0  0  0  0  0  0
   36.9150   24.4650   41.5830 C   0  0  0  0  0  0  0  0  0  0  0  0
   36.4960   24.0400   40.3320 C   0  0  0  0  0  0  0  0  0  0  0  0
   36.2510   24.9620   39.3510 C   0  0  0  0  0  0  0  0  0  0  0  0
   36.3930   26.3240   39.5180 C   0  0  0  0  0  0  0  0  0  0  0  0
   36.8030   26.7110   40.7470 N   0  0  0  0  0  0  0  0  0  0  0  0
   36.1280   27.2970   38.4640 C   0  0  0  0  0  0  0  0  0  0  0  0
   35.7120   28.5440   38.8080 C   0  0  0  0  0  0  0  0  0  0  0  0
   35.4840   29.4050   37.7550 C   0  0  0  0  0  0  0  0  0  0  0  0
   35.6580   29.0530   36.4190 C   0  0  0  0  0  0  0  0  0  0  0  0
   36.0890   27.7500   36.1490 C   0  0  0  0  0  0  0  0  0  0  0  0
   36.3080   26.9210   37.1890 N   0  0  0  0  0  0  0  0  0  0  0  0
   35.9560   27.7866   42.6944 H   0  0  0  0  0  0  0  0  0  0  0  0
   40.5269   30.5304   42.4510 H   0  0  0  0  0  0  0  0  0  0  0  0
   36.4677   31.2505   39.9316 H   0  0  0  0  0  0  0  0  0  0  0  0
   40.0141   32.9233   41.8600 H   0  0  0  0  0  0  0  0  0  0  0  0
   37.7992   35.1147   38.9798 H   0  0  0  0  0  0  0  0  0  0  0  0
   37.2774   27.2086   45.3053 H   0  0  0  0  0  0  0  0  0  0  0  0
   37.2078   28.9821   45.0286 H   0  0  0  0  0  0  0  0  0  0  0  0
   35.6953   28.0130   45.0286 H   0  0  0  0  0  0  0  0  0  0  0  0
   38.5842   26.5284   42.9913 H   0  0  0  0  0  0  0  0  0  0  0  0
   37.1333   25.7867   43.8184 H   0  0  0  0  0  0  0  0  0  0  0  0
   37.1232   23.7580   42.3996 H   0  0  0  0  0  0  0  0  0  0  0  0
   36.3612   22.9674   40.1289 H   0  0  0  0  0  0  0  0  0  0  0  0
   35.9203   24.5944   38.3684 H   0  0  0  0  0  0  0  0  0  0  0  0
   35.5669   28.8464   39.8556 H   0  0  0  0  0  0  0  0  0  0  0  0
   35.1459   30.4266   37.9832 H   0  0  0  0  0  0  0  0  0  0  0  0
   35.4643   29.7709   35.6084 H   0  0  0  0  0  0  0  0  0  0  0  0
   36.2452   27.4105   35.1144 H   0  0  0  0  0  0  0  0  0  0  0  0
  1 13  1  0
  2  6  1  0
  2  3  1  0
  3  4  2  0
  5  4  1  0
  5  1  1  0
  6  5  2  0
  7  8  2  0
  8  9  1  0
  8  2  1  0
 10  9  2  0
 11 10  1  0
 12 11  2  0
 12  7  1  0
 14  1  1  0
 15 14  1  0
 16 15  2  0
 17 16  1  0
 18 19  1  0
 18 17  2  0
 19 20  2  0
 20 15  1  0
 21 22  2  0
 21 19  1  0
 23 22  1  0
 24 23  2  0
 25 24  1  0
 25 26  2  0
 26 21  1  0
  1 27  1  6
  3 28  1  0
  7 29  1  0
  9 30  1  0
 11 31  1  0
 13 32  1  0
 13 33  1  0
 13 34  1  0
 14 35  1  0
 14 36  1  0
 16 37  1  0
 17 38  1  0
 18 39  1  0
 22 40  1  0
 23 41  1  0
 24 42  1  0
 25 43  1  0
M  ISO  8  27   8  28  14  29  14  30  14  31  14  32   8  33   8  34   8
M  ISO  8  35   8  36   8  37  14  38  14  39  14  40  14  41  14  42  14
M  ISO  1  43  14
M  END
>  <minimizedAffinity>  (1) 
-6.16049099

>  <minimizedRMSD>  (1) 
0.51464659

$$$$
