
     RDKit          3D

 42 45  0  0  1  0  0  0  0  0999 V2000
   36.9000   27.7680   43.2080 C   0  0  2  0  0  0  0  0  0  0  0  0
   38.4760   30.7380   41.7870 N   0  0  0  0  0  0  0  0  0  0  0  0
   39.4900   30.1540   42.4360 C   0  0  0  0  0  0  0  0  0  0  0  0
   39.0820   29.0270   43.0270 N   0  0  0  0  0  0  0  0  0  0  0  0
   37.7500   28.8870   42.7400 C   0  0  0  0  0  0  0  0  0  0  0  0
   37.4220   29.9540   41.9810 N   0  0  0  0  0  0  0  0  0  0  0  0
   37.1880   32.0720   40.0830 C   0  0  0  0  0  0  0  0  0  0  0  0
   38.2480   31.9120   40.9920 C   0  0  0  0  0  0  0  0  0  0  0  0
   39.1830   32.9860   41.1570 C   0  0  0  0  0  0  0  0  0  0  0  0
   38.9670   34.0870   40.4110 N   0  0  0  0  0  0  0  0  0  0  0  0
   37.9380   34.1910   39.5550 C   0  0  0  0  0  0  0  0  0  0  0  0
   37.0670   33.1990   39.3980 N   0  0  0  0  0  0  0  0  0  0  0  0
   36.7430   27.9940   44.7250 C   0  0  0  0  0  0  0  0  0  0  0  0
   37.4990   26.4300   42.9710 C   0  0  0  0  0  0  0  0  0  0  0  0
   37.0550   25.7990   41.7240 C   0  0  0  0  0  0  0  0  0  0  0  0
   36.8890   24.4330   41.6020 C   0  0  0  0  0  0  0  0  0  0  0  0
   36.4640   23.9920   40.3580 C   0  0  0  0  0  0  0  0  0  0  0  0
   36.2400   24.8910   39.3490 C   0  0  0  0  0  0  0  0  0  0  0  0
   36.4100   26.2530   39.4850 C   0  0  0  0  0  0  0  0  0  0  0  0
   36.8240   26.6660   40.7050 N   0  0  0  0  0  0  0  0  0  0  0  0
   36.1850   27.2440   38.4450 C   0  0  0  0  0  0  0  0  0  0  0  0
   35.9330   28.5660   38.7370 C   0  0  0  0  0  0  0  0  0  0  0  0
   35.7260   29.4650   37.7140 C   0  0  0  0  0  0  0  0  0  0  0  0
   35.7650   29.0680   36.4110 N   0  0  0  0  0  0  0  0  0  0  0  0
   36.0120   27.7770   36.1550 C   0  0  0  0  0  0  0  0  0  0  0  0
   36.2140   26.8980   37.1410 N   0  0  0  0  0  0  0  0  0  0  0  0
   35.9488   27.7668   42.6556 H   0  0  0  0  0  0  0  0  0  0  0  0
   40.5166   30.5469   42.4773 H   0  0  0  0  0  0  0  0  0  0  0  0
   36.4587   31.2609   39.9405 H   0  0  0  0  0  0  0  0  0  0  0  0
   40.0306   32.9151   41.8546 H   0  0  0  0  0  0  0  0  0  0  0  0
   37.8131   35.1154   38.9720 H   0  0  0  0  0  0  0  0  0  0  0  0
   37.2879   27.2097   45.2709 H   0  0  0  0  0  0  0  0  0  0  0  0
   37.1522   28.9792   44.9932 H   0  0  0  0  0  0  0  0  0  0  0  0
   35.6769   27.9544   44.9932 H   0  0  0  0  0  0  0  0  0  0  0  0
   38.5928   26.5405   42.9342 H   0  0  0  0  0  0  0  0  0  0  0  0
   37.1709   25.7798   43.7954 H   0  0  0  0  0  0  0  0  0  0  0  0
   37.0811   23.7416   42.4357 H   0  0  0  0  0  0  0  0  0  0  0  0
   36.3064   22.9178   40.1810 H   0  0  0  0  0  0  0  0  0  0  0  0
   35.9055   24.5047   38.3749 H   0  0  0  0  0  0  0  0  0  0  0  0
   35.8971   28.9029   39.7835 H   0  0  0  0  0  0  0  0  0  0  0  0
   35.5261   30.5200   37.9527 H   0  0  0  0  0  0  0  0  0  0  0  0
   36.0494   27.4328   35.1109 H   0  0  0  0  0  0  0  0  0  0  0  0
  1 13  1  0
  2  6  1  0
  2  3  1  0
  3  4  2  0
  5  4  1  0
  5  1  1  0
  6  5  2  0
  7  8  2  0
  8  9  1  0
  8  2  1  0
 10  9  2  0
 11 10  1  0
 12 11  2  0
 12  7  1  0
 14  1  1  0
 15 14  1  0
 16 15  2  0
 17 16  1  0
 18 19  1  0
 18 17  2  0
 19 20  2  0
 20 15  1  0
 21 22  2  0
 21 19  1  0
 23 22  1  0
 24 23  2  0
 25 24  1  0
 25 26  2  0
 26 21  1  0
  1 27  1  6
  3 28  1  0
  7 29  1  0
  9 30  1  0
 11 31  1  0
 13 32  1  0
 13 33  1  0
 13 34  1  0
 14 35  1  0
 14 36  1  0
 16 37  1  0
 17 38  1  0
 18 39  1  0
 22 40  1  0
 23 41  1  0
 25 42  1  0
M  ISO  8  27   8  28  14  29  14  30  14  31  14  32   8  33   8  34   8
M  ISO  8  35   8  36   8  37  14  38  14  39  14  40  14  41  14  42  14
M  END
>  <minimizedAffinity>  (1) 
-6.02651644

>  <minimizedRMSD>  (1) 
0.70998174

$$$$
