
     RDKit          3D

 41 44  0  0  1  0  0  0  0  0999 V2000
   36.8700   27.7710   43.2150 C   0  0  2  0  0  0  0  0  0  0  0  0
   38.4680   30.7240   41.7920 N   0  0  0  0  0  0  0  0  0  0  0  0
   39.4760   30.1300   42.4330 C   0  0  0  0  0  0  0  0  0  0  0  0
   39.0610   29.0050   43.0250 N   0  0  0  0  0  0  0  0  0  0  0  0
   37.7260   28.8830   42.7450 C   0  0  0  0  0  0  0  0  0  0  0  0
   37.4080   29.9500   41.9920 N   0  0  0  0  0  0  0  0  0  0  0  0
   37.1960   32.0750   40.0880 C   0  0  0  0  0  0  0  0  0  0  0  0
   38.2500   31.9020   40.9990 C   0  0  0  0  0  0  0  0  0  0  0  0
   39.1940   32.9660   41.1720 C   0  0  0  0  0  0  0  0  0  0  0  0
   38.9800   34.0780   40.4180 N   0  0  0  0  0  0  0  0  0  0  0  0
   37.9640   34.1890   39.5690 C   0  0  0  0  0  0  0  0  0  0  0  0
   37.0860   33.2040   39.4060 N   0  0  0  0  0  0  0  0  0  0  0  0
   36.7490   27.9660   44.7400 C   0  0  0  0  0  0  0  0  0  0  0  0
   37.4320   26.4260   42.9380 C   0  0  0  0  0  0  0  0  0  0  0  0
   37.0160   25.8640   41.6490 C   0  0  0  0  0  0  0  0  0  0  0  0
   36.8850   24.5030   41.4480 C   0  0  0  0  0  0  0  0  0  0  0  0
   36.4830   24.1180   40.1830 C   0  0  0  0  0  0  0  0  0  0  0  0
   36.2410   25.0710   39.2220 C   0  0  0  0  0  0  0  0  0  0  0  0
   36.3750   26.4270   39.4410 C   0  0  0  0  0  0  0  0  0  0  0  0
   36.7720   26.7810   40.6890 N   0  0  0  0  0  0  0  0  0  0  0  0
   36.1190   27.4240   38.4220 C   0  0  0  0  0  0  0  0  0  0  0  0
   35.7460   28.7230   38.7030 C   0  0  0  0  0  0  0  0  0  0  0  0
   35.6090   29.3150   37.4450 C   0  0  0  0  0  0  0  0  0  0  0  0
   35.9010   28.3500   36.4780 C   0  0  0  0  0  0  0  0  0  0  0  0
   36.1970   27.2480   37.1310 O   0  0  0  0  0  0  0  0  0  0  0  0
   35.9072   27.8024   42.6840 H   0  0  0  0  0  0  0  0  0  0  0  0
   40.5066   30.5129   42.4695 H   0  0  0  0  0  0  0  0  0  0  0  0
   36.4601   31.2707   39.9407 H   0  0  0  0  0  0  0  0  0  0  0  0
   40.0396   32.8885   41.8713 H   0  0  0  0  0  0  0  0  0  0  0  0
   37.8467   35.1159   38.9884 H   0  0  0  0  0  0  0  0  0  0  0  0
   37.2610   27.1410   45.2569 H   0  0  0  0  0  0  0  0  0  0  0  0
   37.2130   28.9216   45.0254 H   0  0  0  0  0  0  0  0  0  0  0  0
   35.6867   27.9745   45.0254 H   0  0  0  0  0  0  0  0  0  0  0  0
   38.5294   26.5005   42.9457 H   0  0  0  0  0  0  0  0  0  0  0  0
   37.0499   25.7524   43.7192 H   0  0  0  0  0  0  0  0  0  0  0  0
   37.0879   23.7722   42.2447 H   0  0  0  0  0  0  0  0  0  0  0  0
   36.3569   23.0514   39.9455 H   0  0  0  0  0  0  0  0  0  0  0  0
   35.9233   24.7343   38.2242 H   0  0  0  0  0  0  0  0  0  0  0  0
   35.5922   29.1851   39.6893 H   0  0  0  0  0  0  0  0  0  0  0  0
   35.3214   30.3587   37.2500 H   0  0  0  0  0  0  0  0  0  0  0  0
   35.8862   28.4854   35.3865 H   0  0  0  0  0  0  0  0  0  0  0  0
  1 13  1  0
  2  6  1  0
  2  3  1  0
  3  4  2  0
  5  4  1  0
  5  1  1  0
  6  5  2  0
  7  8  2  0
  8  9  1  0
  8  2  1  0
 10  9  2  0
 11 10  1  0
 12 11  2  0
 12  7  1  0
 14  1  1  0
 15 14  1  0
 16 15  2  0
 17 16  1  0
 18 19  1  0
 18 17  2  0
 19 20  2  0
 20 15  1  0
 21 22  2  0
 21 19  1  0
 23 22  1  0
 24 25  1  0
 24 23  2  0
 25 21  1  0
  1 26  1  6
  3 27  1  0
  7 28  1  0
  9 29  1  0
 11 30  1  0
 13 31  1  0
 13 32  1  0
 13 33  1  0
 14 34  1  0
 14 35  1  0
 16 36  1  0
 17 37  1  0
 18 38  1  0
 22 39  1  0
 23 40  1  0
 24 41  1  0
M  ISO  8  26   8  27  14  28  14  29  14  30  14  31   8  32   8  33   8
M  ISO  8  34   8  35   8  36  14  37  14  38  14  39  14  40  14  41  14
M  END
>  <minimizedAffinity>  (1) 
-5.93810749

>  <minimizedRMSD>  (1) 
0.489371538

$$$$
