
     RDKit          3D

 46 48  0  0  1  0  0  0  0  0999 V2000
   36.9750   27.7960   43.1190 C   0  0  2  0  0  0  0  0  0  0  0  0
   38.4600   30.8130   41.7070 N   0  0  0  0  0  0  0  0  0  0  0  0
   39.4930   30.2530   42.3490 C   0  0  0  0  0  0  0  0  0  0  0  0
   39.1170   29.1120   42.9350 N   0  0  0  0  0  0  0  0  0  0  0  0
   37.7870   28.9450   42.6510 C   0  0  0  0  0  0  0  0  0  0  0  0
   37.4290   30.0000   41.9040 N   0  0  0  0  0  0  0  0  0  0  0  0
   37.1690   32.1080   39.9820 C   0  0  0  0  0  0  0  0  0  0  0  0
   38.2070   31.9890   40.9210 C   0  0  0  0  0  0  0  0  0  0  0  0
   39.0890   33.1010   41.1290 C   0  0  0  0  0  0  0  0  0  0  0  0
   38.8280   34.1960   40.3770 N   0  0  0  0  0  0  0  0  0  0  0  0
   37.8280   34.2630   39.4970 C   0  0  0  0  0  0  0  0  0  0  0  0
   37.0110   33.2330   39.3030 N   0  0  0  0  0  0  0  0  0  0  0  0
   36.7630   28.0360   44.6270 C   0  0  0  0  0  0  0  0  0  0  0  0
   37.6250   26.4750   42.9230 C   0  0  0  0  0  0  0  0  0  0  0  0
   37.1280   25.7470   41.7470 C   0  0  0  0  0  0  0  0  0  0  0  0
   36.9390   24.3820   41.7620 C   0  0  0  0  0  0  0  0  0  0  0  0
   36.4600   23.8340   40.5700 C   0  0  0  0  0  0  0  0  0  0  0  0
   36.2120   24.6450   39.4910 C   0  0  0  0  0  0  0  0  0  0  0  0
   36.4130   26.0120   39.5090 C   0  0  0  0  0  0  0  0  0  0  0  0
   36.8750   26.5220   40.6690 N   0  0  0  0  0  0  0  0  0  0  0  0
   36.1400   26.8720   38.3370 C   0  0  0  0  0  0  0  0  0  0  0  0
   35.0780   26.2130   37.5040 C   0  0  0  0  0  0  0  0  0  0  0  0
   37.4040   26.9680   37.4920 C   0  0  0  0  0  0  0  0  0  0  0  0
   35.7270   28.2700   38.6970 C   0  0  0  0  0  0  0  0  0  0  0  0
   36.0434   27.7508   42.5359 H   0  0  0  0  0  0  0  0  0  0  0  0
   40.5088   30.6731   42.3886 H   0  0  0  0  0  0  0  0  0  0  0  0
   36.4853   31.2635   39.8105 H   0  0  0  0  0  0  0  0  0  0  0  0
   39.9196   33.0664   41.8494 H   0  0  0  0  0  0  0  0  0  0  0  0
   37.6767   35.1879   38.9212 H   0  0  0  0  0  0  0  0  0  0  0  0
   37.3842   27.3328   45.2011 H   0  0  0  0  0  0  0  0  0  0  0  0
   37.0499   29.0678   44.8780 H   0  0  0  0  0  0  0  0  0  0  0  0
   35.7036   27.8786   44.8780 H   0  0  0  0  0  0  0  0  0  0  0  0
   38.7069   26.6334   42.8031 H   0  0  0  0  0  0  0  0  0  0  0  0
   37.3889   25.8634   43.8063 H   0  0  0  0  0  0  0  0  0  0  0  0
   37.1504   23.7677   42.6497 H   0  0  0  0  0  0  0  0  0  0  0  0
   36.2813   22.7511   40.4959 H   0  0  0  0  0  0  0  0  0  0  0  0
   35.8346   24.1841   38.5663 H   0  0  0  0  0  0  0  0  0  0  0  0
   34.3300   25.7489   38.1636 H   0  0  0  0  0  0  0  0  0  0  0  0
   34.5895   26.9669   36.8692 H   0  0  0  0  0  0  0  0  0  0  0  0
   35.5367   25.4406   36.8692 H   0  0  0  0  0  0  0  0  0  0  0  0
   38.2818   27.0347   38.1516 H   0  0  0  0  0  0  0  0  0  0  0  0
   37.4894   26.0738   36.8572 H   0  0  0  0  0  0  0  0  0  0  0  0
   37.3534   27.8649   36.8572 H   0  0  0  0  0  0  0  0  0  0  0  0
   35.6966   28.3729   39.7918 H   0  0  0  0  0  0  0  0  0  0  0  0
   36.4523   28.9851   38.2815 H   0  0  0  0  0  0  0  0  0  0  0  0
   34.7296   28.4762   38.2815 H   0  0  0  0  0  0  0  0  0  0  0  0
  1 13  1  0
  2  6  1  0
  2  3  1  0
  3  4  2  0
  5  4  1  0
  5  1  1  0
  6  5  2  0
  7  8  2  0
  8  9  1  0
  8  2  1  0
 10  9  2  0
 11 10  1  0
 12 11  2  0
 12  7  1  0
 14  1  1  0
 15 16  2  0
 15 14  1  0
 17 16  1  0
 18 19  1  0
 18 17  2  0
 19 20  2  0
 20 15  1  0
 21 24  1  0
 21 19  1  0
 22 21  1  0
 23 21  1  0
  1 25  1  6
  3 26  1  0
  7 27  1  0
  9 28  1  0
 11 29  1  0
 13 30  1  0
 13 31  1  0
 13 32  1  0
 14 33  1  0
 14 34  1  0
 16 35  1  0
 17 36  1  0
 18 37  1  0
 22 38  1  0
 22 39  1  0
 22 40  1  0
 23 41  1  0
 23 42  1  0
 23 43  1  0
 24 44  1  0
 24 45  1  0
 24 46  1  0
M  ISO  8  25   8  26  14  27  14  28  14  29  14  30   8  31   8  32   8
M  ISO  8  33   8  34   8  35  14  36  14  37  14  38   8  39   8  40   8
M  ISO  6  41   8  42   8  43   8  44   8  45   8  46   8
M  END
>  <minimizedAffinity>  (1) 
-5.81852531

>  <minimizedRMSD>  (1) 
0.354851395

$$$$
