
     RDKit          3D

 41 44  0  0  1  0  0  0  0  0999 V2000
   36.9860   27.8030   43.0920 C   0  0  2  0  0  0  0  0  0  0  0  0
   38.4820   30.8250   41.6910 N   0  0  0  0  0  0  0  0  0  0  0  0
   39.5130   30.2500   42.3120 C   0  0  0  0  0  0  0  0  0  0  0  0
   39.1360   29.1060   42.8920 N   0  0  0  0  0  0  0  0  0  0  0  0
   37.8040   28.9470   42.6270 C   0  0  0  0  0  0  0  0  0  0  0  0
   37.4450   30.0190   41.8910 N   0  0  0  0  0  0  0  0  0  0  0  0
   37.1820   32.1340   39.9760 C   0  0  0  0  0  0  0  0  0  0  0  0
   38.2190   32.0060   40.9170 C   0  0  0  0  0  0  0  0  0  0  0  0
   39.0890   33.1230   41.1370 C   0  0  0  0  0  0  0  0  0  0  0  0
   38.8260   34.2300   40.3980 N   0  0  0  0  0  0  0  0  0  0  0  0
   37.8360   34.3050   39.5230 C   0  0  0  0  0  0  0  0  0  0  0  0
   37.0230   33.2690   39.3140 N   0  0  0  0  0  0  0  0  0  0  0  0
   36.7910   28.0340   44.6040 C   0  0  0  0  0  0  0  0  0  0  0  0
   37.6320   26.4810   42.8800 C   0  0  0  0  0  0  0  0  0  0  0  0
   37.1110   25.7610   41.7090 C   0  0  0  0  0  0  0  0  0  0  0  0
   36.8210   24.4120   41.7350 C   0  0  0  0  0  0  0  0  0  0  0  0
   36.3370   23.8750   40.5540 C   0  0  0  0  0  0  0  0  0  0  0  0
   36.1750   24.6750   39.4560 C   0  0  0  0  0  0  0  0  0  0  0  0
   36.4700   26.0240   39.4460 C   0  0  0  0  0  0  0  0  0  0  0  0
   36.9400   26.5270   40.6070 N   0  0  0  0  0  0  0  0  0  0  0  0
   36.2930   26.9040   38.2460 C   0  0  0  0  0  0  0  0  0  0  0  0
   35.1010   26.8550   37.4050 C   0  0  0  0  0  0  0  0  0  0  0  0
   35.1980   27.9820   38.3760 C   0  0  0  0  0  0  0  0  0  0  0  0
   36.0471   27.7671   42.5201 H   0  0  0  0  0  0  0  0  0  0  0  0
   40.5330   30.6606   42.3427 H   0  0  0  0  0  0  0  0  0  0  0  0
   36.5020   31.2897   39.7898 H   0  0  0  0  0  0  0  0  0  0  0  0
   39.9177   33.0854   41.8594 H   0  0  0  0  0  0  0  0  0  0  0  0
   37.6814   35.2368   38.9592 H   0  0  0  0  0  0  0  0  0  0  0  0
   37.4006   27.3118   45.1669 H   0  0  0  0  0  0  0  0  0  0  0  0
   37.1029   29.0568   44.8619 H   0  0  0  0  0  0  0  0  0  0  0  0
   35.7303   27.8981   44.8619 H   0  0  0  0  0  0  0  0  0  0  0  0
   38.7119   26.6382   42.7414 H   0  0  0  0  0  0  0  0  0  0  0  0
   37.4133   25.8655   43.7651 H   0  0  0  0  0  0  0  0  0  0  0  0
   36.9654   23.8010   42.6382 H   0  0  0  0  0  0  0  0  0  0  0  0
   36.0830   22.8062   40.4987 H   0  0  0  0  0  0  0  0  0  0  0  0
   35.7893   24.2194   38.5321 H   0  0  0  0  0  0  0  0  0  0  0  0
   37.3659   26.8444   38.0107 H   0  0  0  0  0  0  0  0  0  0  0  0
   35.1896   27.0593   36.3278 H   0  0  0  0  0  0  0  0  0  0  0  0
   34.3408   26.0845   37.2089 H   0  0  0  0  0  0  0  0  0  0  0  0
   34.5474   28.0107   39.2625 H   0  0  0  0  0  0  0  0  0  0  0  0
   35.1569   29.0799   38.3220 H   0  0  0  0  0  0  0  0  0  0  0  0
  1 13  1  0
  2  6  1  0
  2  3  1  0
  3  4  2  0
  5  4  1  0
  5  1  1  0
  6  5  2  0
  7  8  2  0
  8  9  1  0
  8  2  1  0
 10  9  2  0
 11 10  1  0
 12 11  2  0
 12  7  1  0
 14  1  1  0
 15 16  2  0
 15 14  1  0
 17 16  1  0
 18 17  2  0
 19 18  1  0
 19 20  2  0
 20 15  1  0
 21 23  1  0
 21 19  1  0
 22 21  1  0
 22 23  1  0
  1 24  1  6
  3 25  1  0
  7 26  1  0
  9 27  1  0
 11 28  1  0
 13 29  1  0
 13 30  1  0
 13 31  1  0
 14 32  1  0
 14 33  1  0
 16 34  1  0
 17 35  1  0
 18 36  1  0
 21 37  1  0
 22 38  1  0
 22 39  1  0
 23 40  1  0
 23 41  1  0
M  ISO  8  24   8  25  14  26  14  27  14  28  14  29   8  30   8  31   8
M  ISO  8  32   8  33   8  34  14  35  14  36  14  37  13  38  13  39  13
M  ISO  2  40  13  41  13
M  END
>  <minimizedAffinity>  (1) 
-5.74978161

>  <minimizedRMSD>  (1) 
0.347293347

$$$$
