
     RDKit          3D

 37 39  0  0  1  0  0  0  0  0999 V2000
   36.9820   27.7940   43.1160 C   0  0  2  0  0  0  0  0  0  0  0  0
   38.4850   30.8120   41.7150 N   0  0  0  0  0  0  0  0  0  0  0  0
   39.5070   30.2460   42.3560 C   0  0  0  0  0  0  0  0  0  0  0  0
   39.1290   29.1060   42.9400 N   0  0  0  0  0  0  0  0  0  0  0  0
   37.8000   28.9420   42.6520 C   0  0  0  0  0  0  0  0  0  0  0  0
   37.4510   30.0010   41.9060 N   0  0  0  0  0  0  0  0  0  0  0  0
   37.1890   32.1070   39.9910 C   0  0  0  0  0  0  0  0  0  0  0  0
   38.2270   31.9870   40.9300 C   0  0  0  0  0  0  0  0  0  0  0  0
   39.0980   33.1050   41.1410 C   0  0  0  0  0  0  0  0  0  0  0  0
   38.8470   34.2070   40.4050 N   0  0  0  0  0  0  0  0  0  0  0  0
   37.8520   34.2710   39.5300 C   0  0  0  0  0  0  0  0  0  0  0  0
   37.0160   33.2350   39.3100 N   0  0  0  0  0  0  0  0  0  0  0  0
   36.7610   28.0330   44.6230 C   0  0  0  0  0  0  0  0  0  0  0  0
   37.6410   26.4770   42.9200 C   0  0  0  0  0  0  0  0  0  0  0  0
   37.1380   25.7410   41.7500 C   0  0  0  0  0  0  0  0  0  0  0  0
   36.9520   24.3740   41.7560 C   0  0  0  0  0  0  0  0  0  0  0  0
   36.4720   23.8230   40.5820 C   0  0  0  0  0  0  0  0  0  0  0  0
   36.2130   24.6300   39.5120 C   0  0  0  0  0  0  0  0  0  0  0  0
   36.4020   25.9950   39.5160 C   0  0  0  0  0  0  0  0  0  0  0  0
   36.8720   26.5140   40.6700 N   0  0  0  0  0  0  0  0  0  0  0  0
   36.1020   26.8130   38.3210 C   0  0  0  0  0  0  0  0  0  0  0  0
   36.0510   28.1320   38.7610 F   0  0  0  0  0  0  0  0  0  0  0  0
   34.8840   26.4370   37.8260 F   0  0  0  0  0  0  0  0  0  0  0  0
   37.1040   26.6440   37.3790 F   0  0  0  0  0  0  0  0  0  0  0  0
   36.0504   27.7479   42.5329 H   0  0  0  0  0  0  0  0  0  0  0  0
   40.5246   30.6616   42.3984 H   0  0  0  0  0  0  0  0  0  0  0  0
   36.5118   31.2577   39.8175 H   0  0  0  0  0  0  0  0  0  0  0  0
   39.9262   33.0666   41.8639 H   0  0  0  0  0  0  0  0  0  0  0  0
   37.7031   35.2021   38.9635 H   0  0  0  0  0  0  0  0  0  0  0  0
   37.3967   27.3456   45.2004 H   0  0  0  0  0  0  0  0  0  0  0  0
   37.0238   29.0717   44.8719 H   0  0  0  0  0  0  0  0  0  0  0  0
   35.7049   27.8522   44.8719 H   0  0  0  0  0  0  0  0  0  0  0  0
   38.7206   26.6431   42.7899 H   0  0  0  0  0  0  0  0  0  0  0  0
   37.4185   25.8670   43.8079 H   0  0  0  0  0  0  0  0  0  0  0  0
   37.1722   23.7594   42.6413 H   0  0  0  0  0  0  0  0  0  0  0  0
   36.2996   22.7389   40.5107 H   0  0  0  0  0  0  0  0  0  0  0  0
   35.8308   24.1632   38.5922 H   0  0  0  0  0  0  0  0  0  0  0  0
  1 13  1  0
  2  6  1  0
  2  3  1  0
  3  4  2  0
  5  4  1  0
  5  1  1  0
  6  5  2  0
  7  8  2  0
  8  9  1  0
  8  2  1  0
 10  9  2  0
 11 10  1  0
 12 11  2  0
 12  7  1  0
 14  1  1  0
 15 16  2  0
 15 14  1  0
 17 16  1  0
 18 19  1  0
 18 17  2  0
 19 20  2  0
 20 15  1  0
 21 22  1  0
 21 19  1  0
 23 21  1  0
 24 21  1  0
  1 25  1  6
  3 26  1  0
  7 27  1  0
  9 28  1  0
 11 29  1  0
 13 30  1  0
 13 31  1  0
 13 32  1  0
 14 33  1  0
 14 34  1  0
 16 35  1  0
 17 36  1  0
 18 37  1  0
M  ISO  8  25   8  26  14  27  14  28  14  29  14  30   8  31   8  32   8
M  ISO  5  33   8  34   8  35  14  36  14  37  14
M  END
>  <minimizedAffinity>  (1) 
-5.7175889

>  <minimizedRMSD>  (1) 
0.161497071

$$$$
