
     RDKit          3D

 37 39  0  0  1  0  0  0  0  0999 V2000
   36.9700   27.8080   43.0980 C   0  0  2  0  0  0  0  0  0  0  0  0
   38.4410   30.8520   41.7430 N   0  0  0  0  0  0  0  0  0  0  0  0
   39.4550   30.3240   42.4280 C   0  0  0  0  0  0  0  0  0  0  0  0
   39.0850   29.1750   43.0030 N   0  0  0  0  0  0  0  0  0  0  0  0
   37.7740   28.9730   42.6620 C   0  0  0  0  0  0  0  0  0  0  0  0
   37.4260   30.0160   41.8960 N   0  0  0  0  0  0  0  0  0  0  0  0
   37.1610   32.1320   39.9900 C   0  0  0  0  0  0  0  0  0  0  0  0
   38.1910   32.0170   40.9390 C   0  0  0  0  0  0  0  0  0  0  0  0
   39.0690   33.1350   41.1340 C   0  0  0  0  0  0  0  0  0  0  0  0
   38.8280   34.2280   40.3750 N   0  0  0  0  0  0  0  0  0  0  0  0
   37.8420   34.2840   39.4950 C   0  0  0  0  0  0  0  0  0  0  0  0
   37.0150   33.2540   39.3000 N   0  0  0  0  0  0  0  0  0  0  0  0
   36.7380   28.0100   44.6090 C   0  0  0  0  0  0  0  0  0  0  0  0
   37.6480   26.5040   42.8810 C   0  0  0  0  0  0  0  0  0  0  0  0
   37.1290   25.7550   41.7210 C   0  0  0  0  0  0  0  0  0  0  0  0
   36.8800   24.3970   41.7760 C   0  0  0  0  0  0  0  0  0  0  0  0
   36.3970   23.8380   40.6120 C   0  0  0  0  0  0  0  0  0  0  0  0
   36.1960   24.6230   39.5020 C   0  0  0  0  0  0  0  0  0  0  0  0
   36.4500   25.9830   39.4630 C   0  0  0  0  0  0  0  0  0  0  0  0
   36.9260   26.5050   40.6230 N   0  0  0  0  0  0  0  0  0  0  0  0
   36.2160   26.7870   38.2350 C   0  0  0  0  0  0  0  0  0  0  0  0
   36.0424   27.7645   42.5084 H   0  0  0  0  0  0  0  0  0  0  0  0
   40.4567   30.7712   42.5090 H   0  0  0  0  0  0  0  0  0  0  0  0
   36.4748   31.2893   39.8196 H   0  0  0  0  0  0  0  0  0  0  0  0
   39.8935   33.1047   41.8615 H   0  0  0  0  0  0  0  0  0  0  0  0
   37.6996   35.2035   38.9083 H   0  0  0  0  0  0  0  0  0  0  0  0
   37.4493   27.3907   45.1752 H   0  0  0  0  0  0  0  0  0  0  0  0
   36.8894   29.0691   44.8649 H   0  0  0  0  0  0  0  0  0  0  0  0
   35.7098   27.7143   44.8649 H   0  0  0  0  0  0  0  0  0  0  0  0
   38.7202   26.6916   42.7225 H   0  0  0  0  0  0  0  0  0  0  0  0
   37.4585   25.8892   43.7733 H   0  0  0  0  0  0  0  0  0  0  0  0
   37.0550   23.8032   42.6853 H   0  0  0  0  0  0  0  0  0  0  0  0
   36.1722   22.7620   40.5716 H   0  0  0  0  0  0  0  0  0  0  0  0
   35.8105   24.1421   38.5909 H   0  0  0  0  0  0  0  0  0  0  0  0
   35.9188   27.8080   38.5163 H   0  0  0  0  0  0  0  0  0  0  0  0
   37.1404   26.8250   37.6399 H   0  0  0  0  0  0  0  0  0  0  0  0
   35.4156   26.3230   37.6399 H   0  0  0  0  0  0  0  0  0  0  0  0
  1 13  1  0
  2  6  1  0
  2  3  1  0
  3  4  2  0
  5  4  1  0
  5  1  1  0
  6  5  2  0
  7  8  2  0
  8  9  1  0
  8  2  1  0
 10  9  2  0
 11 10  1  0
 12 11  2  0
 12  7  1  0
 14  1  1  0
 15 16  2  0
 15 14  1  0
 17 16  1  0
 18 17  2  0
 19 18  1  0
 19 20  2  0
 20 15  1  0
 21 19  1  0
  1 22  1  6
  3 23  1  0
  7 24  1  0
  9 25  1  0
 11 26  1  0
 13 27  1  0
 13 28  1  0
 13 29  1  0
 14 30  1  0
 14 31  1  0
 16 32  1  0
 17 33  1  0
 18 34  1  0
 21 35  1  0
 21 36  1  0
 21 37  1  0
M  ISO  8  22   8  23  14  24  14  25  14  26  14  27   8  28   8  29   8
M  ISO  8  30   8  31   8  32  14  33  14  34  14  35   8  36   8  37   8
M  END
>  <minimizedAffinity>  (1) 
-5.61878586

>  <minimizedRMSD>  (1) 
0.0652643219

$$$$
