
     RDKit          3D

 35 37  0  0  1  0  0  0  0  0999 V2000
   36.9870   27.8110   43.0750 C   0  0  2  0  0  0  0  0  0  0  0  0
   38.4600   30.8690   41.7350 N   0  0  0  0  0  0  0  0  0  0  0  0
   39.4680   30.3380   42.4270 C   0  0  0  0  0  0  0  0  0  0  0  0
   39.0970   29.1870   42.9970 N   0  0  0  0  0  0  0  0  0  0  0  0
   37.7890   28.9810   42.6470 C   0  0  0  0  0  0  0  0  0  0  0  0
   37.4440   30.0260   41.8800 N   0  0  0  0  0  0  0  0  0  0  0  0
   37.1720   32.1420   39.9840 C   0  0  0  0  0  0  0  0  0  0  0  0
   38.2000   32.0310   40.9330 C   0  0  0  0  0  0  0  0  0  0  0  0
   39.0670   33.1510   41.1370 C   0  0  0  0  0  0  0  0  0  0  0  0
   38.8290   34.2490   40.3910 N   0  0  0  0  0  0  0  0  0  0  0  0
   37.8330   34.2980   39.5010 C   0  0  0  0  0  0  0  0  0  0  0  0
   37.0150   33.2620   39.2980 N   0  0  0  0  0  0  0  0  0  0  0  0
   36.7450   28.0100   44.5840 C   0  0  0  0  0  0  0  0  0  0  0  0
   37.6660   26.5080   42.8570 C   0  0  0  0  0  0  0  0  0  0  0  0
   37.1370   25.7590   41.7050 C   0  0  0  0  0  0  0  0  0  0  0  0
   36.8570   24.4100   41.7660 C   0  0  0  0  0  0  0  0  0  0  0  0
   36.3670   23.8450   40.6080 C   0  0  0  0  0  0  0  0  0  0  0  0
   36.1850   24.6230   39.4900 C   0  0  0  0  0  0  0  0  0  0  0  0
   36.4680   25.9670   39.4440 C   0  0  0  0  0  0  0  0  0  0  0  0
   36.9510   26.5020   40.5930 N   0  0  0  0  0  0  0  0  0  0  0  0
   36.2790   26.7410   38.3040 O   0  0  0  0  0  0  0  0  0  0  0  0
   36.0638   27.7654   42.4787 H   0  0  0  0  0  0  0  0  0  0  0  0
   40.4687   30.7858   42.5168 H   0  0  0  0  0  0  0  0  0  0  0  0
   36.4937   31.2937   39.8099 H   0  0  0  0  0  0  0  0  0  0  0  0
   39.8886   33.1179   41.8676 H   0  0  0  0  0  0  0  0  0  0  0  0
   37.6826   35.2189   38.9185 H   0  0  0  0  0  0  0  0  0  0  0  0
   37.4717   27.4124   45.1538 H   0  0  0  0  0  0  0  0  0  0  0  0
   36.8657   29.0735   44.8376 H   0  0  0  0  0  0  0  0  0  0  0  0
   35.7248   27.6861   44.8376 H   0  0  0  0  0  0  0  0  0  0  0  0
   38.7366   26.6965   42.6886 H   0  0  0  0  0  0  0  0  0  0  0  0
   37.4879   25.8949   43.7527 H   0  0  0  0  0  0  0  0  0  0  0  0
   37.0149   23.8214   42.6818 H   0  0  0  0  0  0  0  0  0  0  0  0
   36.1221   22.7730   40.5789 H   0  0  0  0  0  0  0  0  0  0  0  0
   35.7910   24.1435   38.5818 H   0  0  0  0  0  0  0  0  0  0  0  0
   36.4976   27.7064   38.3193 H   0  0  0  0  0  0  0  0  0  0  0  0
  1 13  1  0
  2  6  1  0
  2  3  1  0
  3  4  2  0
  5  4  1  0
  5  1  1  0
  6  5  2  0
  7  8  2  0
  8  9  1  0
  8  2  1  0
 10  9  2  0
 11 10  1  0
 12 11  2  0
 12  7  1  0
 14  1  1  0
 15 16  2  0
 15 14  1  0
 17 16  1  0
 18 17  2  0
 19 18  1  0
 19 20  2  0
 20 15  1  0
 21 19  1  0
  1 22  1  6
  3 23  1  0
  7 24  1  0
  9 25  1  0
 11 26  1  0
 13 27  1  0
 13 28  1  0
 13 29  1  0
 14 30  1  0
 14 31  1  0
 16 32  1  0
 17 33  1  0
 18 34  1  0
 21 35  1  0
M  ISO  8  22   8  23  14  24  14  25  14  26  14  27   8  28   8  29   8
M  ISO  6  30   8  31   8  32  14  33  14  34  14  35   3
M  END
>  <minimizedAffinity>  (1) 
-5.55609179

>  <minimizedRMSD>  (1) 
0.0581658445

$$$$
