
     RDKit          3D

 51 55  0  0  1  0  0  0  0  0999 V2000
   37.4740   26.4490   43.0120 C   0  0  0  0  0  0  0  0  0  0  0  0
   37.0490   25.8370   41.7520 C   0  0  0  0  0  0  0  0  0  0  0  0
   36.9140   24.4710   41.6040 C   0  0  0  0  0  0  0  0  0  0  0  0
   36.5060   24.0430   40.3690 C   0  0  0  0  0  0  0  0  0  0  0  0
   36.2580   24.9590   39.3640 C   0  0  0  0  0  0  0  0  0  0  0  0
   36.3970   26.3320   39.5240 C   0  0  0  0  0  0  0  0  0  0  0  0
   36.8030   26.7180   40.7630 N   0  0  0  0  0  0  0  0  0  0  0  0
   36.1410   27.2980   38.4860 C   0  0  0  0  0  0  0  0  0  0  0  0
   35.7650   28.5420   38.8720 N   0  0  0  0  0  0  0  0  0  0  0  0
   35.5710   29.2940   37.8560 O   0  0  0  0  0  0  0  0  0  0  0  0
   35.8170   28.5550   36.7930 C   0  0  0  0  0  0  0  0  0  0  0  0
   36.1810   27.2850   37.1610 N   0  0  0  0  0  0  0  0  0  0  0  0
   35.7300   28.9780   35.4180 N   0  0  0  0  0  0  0  0  0  0  0  0
   34.6850   29.7430   34.7940 C   0  0  0  0  0  0  0  0  0  0  0  0
   35.4450   30.6440   33.8430 C   0  0  0  0  0  0  0  0  0  0  0  0
   36.6350   29.8500   33.4140 C   0  0  0  0  0  0  0  0  0  0  0  0
   36.6970   28.7040   34.3950 C   0  0  0  0  0  0  0  0  0  0  0  0
   36.9060   27.7880   43.2470 C   0  0  2  0  0  0  0  0  0  0  0  0
   38.4690   30.7350   41.7880 N   0  0  0  0  0  0  0  0  0  0  0  0
   39.4830   30.1530   42.4150 C   0  0  0  0  0  0  0  0  0  0  0  0
   39.0810   29.0320   43.0190 N   0  0  0  0  0  0  0  0  0  0  0  0
   37.7420   28.8960   42.7610 C   0  0  0  0  0  0  0  0  0  0  0  0
   37.4180   29.9630   42.0050 N   0  0  0  0  0  0  0  0  0  0  0  0
   37.1870   32.0640   40.0760 C   0  0  0  0  0  0  0  0  0  0  0  0
   38.2380   31.9030   40.9930 C   0  0  0  0  0  0  0  0  0  0  0  0
   39.1700   32.9880   41.1620 C   0  0  0  0  0  0  0  0  0  0  0  0
   38.9690   34.0890   40.4270 N   0  0  0  0  0  0  0  0  0  0  0  0
   37.9420   34.1890   39.5610 C   0  0  0  0  0  0  0  0  0  0  0  0
   37.0810   33.1950   39.3990 N   0  0  0  0  0  0  0  0  0  0  0  0
   36.7810   28.0160   44.7780 C   0  0  0  0  0  0  0  0  0  0  0  0
   38.5706   26.5347   43.0028 H   0  0  0  0  0  0  0  0  0  0  0  0
   37.1078   25.8004   43.8214 H   0  0  0  0  0  0  0  0  0  0  0  0
   37.1212   23.7706   42.4265 H   0  0  0  0  0  0  0  0  0  0  0  0
   36.3753   22.9679   40.1762 H   0  0  0  0  0  0  0  0  0  0  0  0
   35.9328   24.5801   38.3839 H   0  0  0  0  0  0  0  0  0  0  0  0
   33.9885   29.0896   34.2482 H   0  0  0  0  0  0  0  0  0  0  0  0
   34.0641   30.2969   35.5135 H   0  0  0  0  0  0  0  0  0  0  0  0
   34.8206   30.9020   32.9749 H   0  0  0  0  0  0  0  0  0  0  0  0
   35.7348   31.5920   34.3197 H   0  0  0  0  0  0  0  0  0  0  0  0
   36.5042   29.4768   32.3876 H   0  0  0  0  0  0  0  0  0  0  0  0
   37.5582   30.4481   33.4099 H   0  0  0  0  0  0  0  0  0  0  0  0
   36.4537   27.7586   33.8880 H   0  0  0  0  0  0  0  0  0  0  0  0
   37.7057   28.6064   34.8229 H   0  0  0  0  0  0  0  0  0  0  0  0
   35.9495   27.7974   42.7039 H   0  0  0  0  0  0  0  0  0  0  0  0
   40.5124   30.5403   42.4346 H   0  0  0  0  0  0  0  0  0  0  0  0
   36.4573   31.2554   39.9219 H   0  0  0  0  0  0  0  0  0  0  0  0
   40.0122   32.9152   41.8659 H   0  0  0  0  0  0  0  0  0  0  0  0
   37.8159   35.1129   38.9776 H   0  0  0  0  0  0  0  0  0  0  0  0
   37.2430   27.1733   45.3131 H   0  0  0  0  0  0  0  0  0  0  0  0
   37.2933   28.9499   45.0527 H   0  0  0  0  0  0  0  0  0  0  0  0
   35.7182   28.0863   45.0527 H   0  0  0  0  0  0  0  0  0  0  0  0
  1 18  1  0
  2  1  1  0
  3  2  2  0
  4  3  1  0
  5  6  1  0
  5  4  2  0
  6  7  2  0
  7  2  1  0
  8  9  2  0
  8  6  1  0
 10  9  1  0
 11 12  2  0
 11 10  1  0
 12  8  1  0
 13 11  1  0
 14 13  1  0
 15 14  1  0
 16 15  1  0
 16 17  1  0
 17 13  1  0
 18 30  1  0
 19 23  1  0
 19 20  1  0
 20 21  2  0
 22 21  1  0
 22 18  1  0
 23 22  2  0
 24 25  2  0
 25 26  1  0
 25 19  1  0
 27 26  2  0
 28 27  1  0
 29 28  2  0
 29 24  1  0
  1 31  1  0
  1 32  1  0
  3 33  1  0
  4 34  1  0
  5 35  1  0
 14 36  1  0
 14 37  1  0
 15 38  1  0
 15 39  1  0
 16 40  1  0
 16 41  1  0
 17 42  1  0
 17 43  1  0
 18 44  1  6
 20 45  1  0
 24 46  1  0
 26 47  1  0
 28 48  1  0
 30 49  1  0
 30 50  1  0
 30 51  1  0
M  ISO  8  31   8  32   8  33  14  34  14  35  14  36  13  37  13  38  13
M  ISO  8  39  13  40  13  41  13  42  13  43  13  44   8  45  14  46  14
M  ISO  5  47  14  48  14  49   8  50   8  51   8
M  END
>  <minimizedAffinity>  (1) 
-6.43095303

>  <minimizedRMSD>  (1) 
0.698358178

$$$$
