
     RDKit          3D

 46 50  0  0  1  0  0  0  0  0999 V2000
   37.3380   26.4070   42.9440 C   0  0  0  0  0  0  0  0  0  0  0  0
   36.9990   25.8880   41.6220 C   0  0  0  0  0  0  0  0  0  0  0  0
   36.7970   24.5470   41.3770 C   0  0  0  0  0  0  0  0  0  0  0  0
   36.4820   24.2050   40.0740 C   0  0  0  0  0  0  0  0  0  0  0  0
   36.3890   25.1930   39.1100 C   0  0  0  0  0  0  0  0  0  0  0  0
   36.5940   26.5230   39.3730 C   0  0  0  0  0  0  0  0  0  0  0  0
   36.9010   26.8330   40.6570 N   0  0  0  0  0  0  0  0  0  0  0  0
   36.4980   27.5600   38.3660 C   0  0  0  0  0  0  0  0  0  0  0  0
   36.1580   28.8020   38.7930 N   0  0  0  0  0  0  0  0  0  0  0  0
   36.1100   29.6170   37.7980 O   0  0  0  0  0  0  0  0  0  0  0  0
   36.4150   28.9270   36.7160 C   0  0  0  0  0  0  0  0  0  0  0  0
   36.6610   27.6360   37.0590 N   0  0  0  0  0  0  0  0  0  0  0  0
   36.4740   29.4900   35.3690 C   0  0  0  0  0  0  0  0  0  0  0  0
   36.3440   28.7540   34.1950 C   0  0  0  0  0  0  0  0  0  0  0  0
   36.4550   29.6390   33.1600 N   0  0  0  0  0  0  0  0  0  0  0  0
   36.6430   30.8600   33.6920 C   0  0  0  0  0  0  0  0  0  0  0  0
   36.6570   30.7800   35.0340 N   0  0  0  0  0  0  0  0  0  0  0  0
   36.8250   27.7610   43.2100 C   0  0  2  0  0  0  0  0  0  0  0  0
   38.4820   30.6840   41.8070 N   0  0  0  0  0  0  0  0  0  0  0  0
   39.4780   30.0530   42.4130 C   0  0  0  0  0  0  0  0  0  0  0  0
   39.0410   28.9370   42.9920 N   0  0  0  0  0  0  0  0  0  0  0  0
   37.6940   28.8540   42.7400 C   0  0  0  0  0  0  0  0  0  0  0  0
   37.3980   29.9420   42.0140 N   0  0  0  0  0  0  0  0  0  0  0  0
   37.1800   32.1270   40.2000 C   0  0  0  0  0  0  0  0  0  0  0  0
   38.2720   31.8810   41.0340 C   0  0  0  0  0  0  0  0  0  0  0  0
   39.2910   32.8900   41.1540 C   0  0  0  0  0  0  0  0  0  0  0  0
   39.1110   34.0170   40.4380 N   0  0  0  0  0  0  0  0  0  0  0  0
   38.0470   34.2010   39.6550 C   0  0  0  0  0  0  0  0  0  0  0  0
   37.1040   33.2730   39.5410 N   0  0  0  0  0  0  0  0  0  0  0  0
   36.7200   27.9570   44.7470 C   0  0  0  0  0  0  0  0  0  0  0  0
   38.4340   26.4291   43.0354 H   0  0  0  0  0  0  0  0  0  0  0  0
   36.8628   25.7390   43.6775 H   0  0  0  0  0  0  0  0  0  0  0  0
   36.8814   23.7916   42.1721 H   0  0  0  0  0  0  0  0  0  0  0  0
   36.3064   23.1528   39.8058 H   0  0  0  0  0  0  0  0  0  0  0  0
   36.1380   24.8967   38.0808 H   0  0  0  0  0  0  0  0  0  0  0  0
   36.1829   27.6688   34.1156 H   0  0  0  0  0  0  0  0  0  0  0  0
   36.7671   31.7877   33.1140 H   0  0  0  0  0  0  0  0  0  0  0  0
   36.7849   31.5653   35.6881 H   0  0  0  0  0  0  0  0  0  0  0  0
   35.8677   27.8178   42.6712 H   0  0  0  0  0  0  0  0  0  0  0  0
   40.5206   30.4030   42.4344 H   0  0  0  0  0  0  0  0  0  0  0  0
   36.3868   31.3728   40.0908 H   0  0  0  0  0  0  0  0  0  0  0  0
   40.1719   32.7484   41.7974 H   0  0  0  0  0  0  0  0  0  0  0  0
   37.9486   35.1409   39.0920 H   0  0  0  0  0  0  0  0  0  0  0  0
   37.1799   27.0985   45.2584 H   0  0  0  0  0  0  0  0  0  0  0  0
   37.2446   28.8798   45.0356 H   0  0  0  0  0  0  0  0  0  0  0  0
   35.6612   28.0315   45.0356 H   0  0  0  0  0  0  0  0  0  0  0  0
  1 18  1  0
  2  1  1  0
  3  2  2  0
  4  3  1  0
  5  6  1  0
  5  4  2  0
  6  7  2  0
  7  2  1  0
  8  9  2  0
  8  6  1  0
 10  9  1  0
 11 12  2  0
 11 10  1  0
 12  8  1  0
 13 11  1  0
 14 13  2  0
 15 16  2  0
 15 14  1  0
 16 17  1  0
 17 13  1  0
 18 30  1  0
 19 23  1  0
 19 20  1  0
 20 21  2  0
 22 21  1  0
 22 18  1  0
 23 22  2  0
 24 25  2  0
 25 26  1  0
 25 19  1  0
 27 26  2  0
 28 27  1  0
 29 28  2  0
 29 24  1  0
  1 31  1  0
  1 32  1  0
  3 33  1  0
  4 34  1  0
  5 35  1  0
 14 36  1  0
 16 37  1  0
 17 38  1  0
 18 39  1  6
 20 40  1  0
 24 41  1  0
 26 42  1  0
 28 43  1  0
 30 44  1  0
 30 45  1  0
 30 46  1  0
M  ISO  8  31   8  32   8  33  14  34  14  35  14  36  14  37  14  38   9
M  ISO  8  39   8  40  14  41  14  42  14  43  14  44   8  45   8  46   8
M  END
>  <minimizedAffinity>  (1) 
-6.37904501

>  <minimizedRMSD>  (1) 
1.06376016

$$$$
