
     RDKit          3D

 52 56  0  0  1  0  0  0  0  0999 V2000
   37.4170   26.4540   43.0620 C   0  0  0  0  0  0  0  0  0  0  0  0
   37.0430   25.8810   41.7760 C   0  0  0  0  0  0  0  0  0  0  0  0
   36.9850   24.5270   41.5460 C   0  0  0  0  0  0  0  0  0  0  0  0
   36.6140   24.1350   40.2820 C   0  0  0  0  0  0  0  0  0  0  0  0
   36.3270   25.0890   39.3290 C   0  0  0  0  0  0  0  0  0  0  0  0
   36.3870   26.4430   39.5620 C   0  0  0  0  0  0  0  0  0  0  0  0
   36.7550   26.8000   40.8190 N   0  0  0  0  0  0  0  0  0  0  0  0
   36.0860   27.4440   38.5650 C   0  0  0  0  0  0  0  0  0  0  0  0
   36.1270   28.7400   38.9620 N   0  0  0  0  0  0  0  0  0  0  0  0
   35.8430   29.5240   37.9870 O   0  0  0  0  0  0  0  0  0  0  0  0
   35.6110   28.7550   36.9370 C   0  0  0  0  0  0  0  0  0  0  0  0
   35.7580   27.4440   37.2760 N   0  0  0  0  0  0  0  0  0  0  0  0
   35.2460   29.3110   35.6060 C   0  0  0  0  0  0  0  0  0  0  0  0
   36.4260   29.9460   34.9430 C   0  0  0  0  0  0  0  0  0  0  0  0
   36.4430   29.5360   33.4980 C   0  0  0  0  0  0  0  0  0  0  0  0
   35.8060   28.1570   33.5450 C   0  0  0  0  0  0  0  0  0  0  0  0
   34.8110   28.1990   34.6590 C   0  0  0  0  0  0  0  0  0  0  0  0
   36.8850   27.8070   43.2940 C   0  0  2  0  0  0  0  0  0  0  0  0
   38.4960   30.7140   41.8080 N   0  0  0  0  0  0  0  0  0  0  0  0
   39.5080   30.1040   42.4110 C   0  0  0  0  0  0  0  0  0  0  0  0
   39.0890   28.9960   43.0200 N   0  0  0  0  0  0  0  0  0  0  0  0
   37.7310   28.9000   42.7870 C   0  0  0  0  0  0  0  0  0  0  0  0
   37.4200   29.9690   42.0450 N   0  0  0  0  0  0  0  0  0  0  0  0
   37.2020   32.0820   40.1310 C   0  0  0  0  0  0  0  0  0  0  0  0
   38.2660   31.8930   41.0150 C   0  0  0  0  0  0  0  0  0  0  0  0
   39.2300   32.9500   41.1620 C   0  0  0  0  0  0  0  0  0  0  0  0
   39.0410   34.0590   40.4380 N   0  0  0  0  0  0  0  0  0  0  0  0
   37.9980   34.1890   39.6020 C   0  0  0  0  0  0  0  0  0  0  0  0
   37.1070   33.2180   39.4600 N   0  0  0  0  0  0  0  0  0  0  0  0
   36.7880   28.0450   44.8270 C   0  0  0  0  0  0  0  0  0  0  0  0
   38.5148   26.5008   43.1133 H   0  0  0  0  0  0  0  0  0  0  0  0
   36.9831   25.8050   43.8370 H   0  0  0  0  0  0  0  0  0  0  0  0
   37.2230   23.7956   42.3324 H   0  0  0  0  0  0  0  0  0  0  0  0
   36.5464   23.0659   40.0321 H   0  0  0  0  0  0  0  0  0  0  0  0
   36.0334   24.7478   38.3253 H   0  0  0  0  0  0  0  0  0  0  0  0
   34.4421   30.0392   35.7888 H   0  0  0  0  0  0  0  0  0  0  0  0
   36.3475   31.0407   35.0165 H   0  0  0  0  0  0  0  0  0  0  0  0
   37.3538   29.6210   35.4364 H   0  0  0  0  0  0  0  0  0  0  0  0
   37.4711   29.4869   33.1099 H   0  0  0  0  0  0  0  0  0  0  0  0
   35.9202   30.2403   32.8342 H   0  0  0  0  0  0  0  0  0  0  0  0
   35.3032   27.9359   32.5920 H   0  0  0  0  0  0  0  0  0  0  0  0
   36.5587   27.3715   33.7074 H   0  0  0  0  0  0  0  0  0  0  0  0
   33.8080   28.4128   34.2613 H   0  0  0  0  0  0  0  0  0  0  0  0
   34.7684   27.2327   35.1828 H   0  0  0  0  0  0  0  0  0  0  0  0
   35.9232   27.8329   42.7608 H   0  0  0  0  0  0  0  0  0  0  0  0
   40.5478   30.4630   42.4084 H   0  0  0  0  0  0  0  0  0  0  0  0
   36.4486   31.2924   39.9936 H   0  0  0  0  0  0  0  0  0  0  0  0
   40.0885   32.8506   41.8426 H   0  0  0  0  0  0  0  0  0  0  0  0
   37.8810   35.1180   39.0247 H   0  0  0  0  0  0  0  0  0  0  0  0
   37.1512   27.1540   45.3601 H   0  0  0  0  0  0  0  0  0  0  0  0
   37.4038   28.9137   45.1029 H   0  0  0  0  0  0  0  0  0  0  0  0
   35.7404   28.2357   45.1029 H   0  0  0  0  0  0  0  0  0  0  0  0
  1 18  1  0
  2  1  1  0
  3  2  2  0
  4  3  1  0
  5  6  1  0
  5  4  2  0
  6  7  2  0
  7  2  1  0
  8  9  2  0
  8  6  1  0
 10  9  1  0
 11 12  2  0
 11 10  1  0
 12  8  1  0
 13 11  1  0
 14 13  1  0
 15 16  1  0
 15 14  1  0
 16 17  1  0
 17 13  1  0
 18 30  1  0
 19 23  1  0
 19 20  1  0
 20 21  2  0
 22 21  1  0
 22 18  1  0
 23 22  2  0
 24 25  2  0
 25 26  1  0
 25 19  1  0
 27 26  2  0
 28 27  1  0
 29 28  2  0
 29 24  1  0
  1 31  1  0
  1 32  1  0
  3 33  1  0
  4 34  1  0
  5 35  1  0
 13 36  1  0
 14 37  1  0
 14 38  1  0
 15 39  1  0
 15 40  1  0
 16 41  1  0
 16 42  1  0
 17 43  1  0
 17 44  1  0
 18 45  1  6
 20 46  1  0
 24 47  1  0
 26 48  1  0
 28 49  1  0
 30 50  1  0
 30 51  1  0
 30 52  1  0
M  ISO  8  31   8  32   8  33  14  34  14  35  14  36  13  37  13  38  13
M  ISO  8  39  13  40  13  41  13  42  13  43  13  44  13  45   8  46  14
M  ISO  6  47  14  48  14  49  14  50   8  51   8  52   8
M  END
>  <minimizedAffinity>  (1) 
-6.23814249

>  <minimizedRMSD>  (1) 
0.637474537

$$$$
