
     RDKit          3D

 48 51  0  0  1  0  0  0  0  0999 V2000
   36.8330   27.7560   43.2010 C   0  0  2  0  0  0  0  0  0  0  0  0
   38.4930   30.6840   41.8170 N   0  0  0  0  0  0  0  0  0  0  0  0
   39.4880   30.0530   42.4250 C   0  0  0  0  0  0  0  0  0  0  0  0
   39.0540   28.9330   42.9990 N   0  0  0  0  0  0  0  0  0  0  0  0
   37.7010   28.8550   42.7370 C   0  0  0  0  0  0  0  0  0  0  0  0
   37.4080   29.9440   42.0140 N   0  0  0  0  0  0  0  0  0  0  0  0
   37.1780   32.1440   40.2300 C   0  0  0  0  0  0  0  0  0  0  0  0
   38.2800   31.8860   41.0470 C   0  0  0  0  0  0  0  0  0  0  0  0
   39.3140   32.8810   41.1540 C   0  0  0  0  0  0  0  0  0  0  0  0
   39.1470   34.0160   40.4480 N   0  0  0  0  0  0  0  0  0  0  0  0
   38.0700   34.2080   39.6810 C   0  0  0  0  0  0  0  0  0  0  0  0
   37.1150   33.2920   39.5800 N   0  0  0  0  0  0  0  0  0  0  0  0
   36.7250   27.9470   44.7390 C   0  0  0  0  0  0  0  0  0  0  0  0
   37.3510   26.4040   42.9300 C   0  0  0  0  0  0  0  0  0  0  0  0
   36.9870   25.8790   41.6190 C   0  0  0  0  0  0  0  0  0  0  0  0
   36.8760   24.5330   41.3580 C   0  0  0  0  0  0  0  0  0  0  0  0
   36.5230   24.1870   40.0730 C   0  0  0  0  0  0  0  0  0  0  0  0
   36.3060   25.1700   39.1390 C   0  0  0  0  0  0  0  0  0  0  0  0
   36.4180   26.5190   39.4050 C   0  0  0  0  0  0  0  0  0  0  0  0
   36.7660   26.8260   40.6830 N   0  0  0  0  0  0  0  0  0  0  0  0
   36.1900   27.5570   38.4260 C   0  0  0  0  0  0  0  0  0  0  0  0
   36.2230   28.8410   38.8600 N   0  0  0  0  0  0  0  0  0  0  0  0
   36.0070   29.6530   37.8980 O   0  0  0  0  0  0  0  0  0  0  0  0
   35.8270   28.9130   36.8120 C   0  0  0  0  0  0  0  0  0  0  0  0
   35.9390   27.5920   37.1230 N   0  0  0  0  0  0  0  0  0  0  0  0
   35.5430   29.4450   35.4360 C   0  0  0  0  0  0  0  0  0  0  0  0
   34.1310   29.1080   35.0090 C   0  0  0  0  0  0  0  0  0  0  0  0
   36.5410   28.9370   34.4280 C   0  0  0  0  0  0  0  0  0  0  0  0
   35.8763   27.8109   42.6609 H   0  0  0  0  0  0  0  0  0  0  0  0
   40.5293   30.4065   42.4515 H   0  0  0  0  0  0  0  0  0  0  0  0
   36.3730   31.4012   40.1289 H   0  0  0  0  0  0  0  0  0  0  0  0
   40.2014   32.7219   41.7843 H   0  0  0  0  0  0  0  0  0  0  0  0
   37.9724   35.1487   39.1193 H   0  0  0  0  0  0  0  0  0  0  0  0
   37.2049   27.0984   45.2485 H   0  0  0  0  0  0  0  0  0  0  0  0
   37.2287   28.8810   45.0288 H   0  0  0  0  0  0  0  0  0  0  0  0
   35.6650   27.9969   45.0288 H   0  0  0  0  0  0  0  0  0  0  0  0
   38.4485   26.4346   42.9974 H   0  0  0  0  0  0  0  0  0  0  0  0
   36.8982   25.7351   43.6766 H   0  0  0  0  0  0  0  0  0  0  0  0
   37.0592   23.7746   42.1334 H   0  0  0  0  0  0  0  0  0  0  0  0
   36.4153   23.1280   39.7958 H   0  0  0  0  0  0  0  0  0  0  0  0
   36.0268   24.8641   38.1199 H   0  0  0  0  0  0  0  0  0  0  0  0
   35.6409   30.5398   35.4783 H   0  0  0  0  0  0  0  0  0  0  0  0
   33.5042   28.9584   35.9005 H   0  0  0  0  0  0  0  0  0  0  0  0
   33.7227   29.9339   34.4081 H   0  0  0  0  0  0  0  0  0  0  0  0
   34.1397   28.1867   34.4081 H   0  0  0  0  0  0  0  0  0  0  0  0
   37.4022   28.4986   34.9535 H   0  0  0  0  0  0  0  0  0  0  0  0
   36.0673   28.1703   33.7973 H   0  0  0  0  0  0  0  0  0  0  0  0
   36.8821   29.7712   33.7973 H   0  0  0  0  0  0  0  0  0  0  0  0
  1 13  1  0
  2  6  1  0
  2  3  1  0
  3  4  2  0
  5  4  1  0
  5  1  1  0
  6  5  2  0
  7  8  2  0
  8  9  1  0
  8  2  1  0
 10  9  2  0
 11 10  1  0
 12 11  2  0
 12  7  1  0
 14  1  1  0
 15 14  1  0
 16 15  2  0
 17 16  1  0
 18 19  1  0
 18 17  2  0
 19 20  2  0
 20 15  1  0
 21 22  2  0
 21 19  1  0
 23 22  1  0
 24 25  2  0
 24 23  1  0
 25 21  1  0
 26 24  1  0
 27 26  1  0
 28 26  1  0
  1 29  1  6
  3 30  1  0
  7 31  1  0
  9 32  1  0
 11 33  1  0
 13 34  1  0
 13 35  1  0
 13 36  1  0
 14 37  1  0
 14 38  1  0
 16 39  1  0
 17 40  1  0
 18 41  1  0
 26 42  1  0
 27 43  1  0
 27 44  1  0
 27 45  1  0
 28 46  1  0
 28 47  1  0
 28 48  1  0
M  ISO  8  29   8  30  14  31  14  32  14  33  14  34   8  35   8  36   8
M  ISO  8  37   8  38   8  39  14  40  14  41  14  42   8  43   8  44   8
M  ISO  4  45   8  46   8  47   8  48   8
M  END
>  <minimizedAffinity>  (1) 
-6.14456081

>  <minimizedRMSD>  (1) 
0.629415691

$$$$
