
     RDKit          3D

 45 48  0  0  1  0  0  0  0  0999 V2000
   36.8690   27.7720   43.1820 C   0  0  2  0  0  0  0  0  0  0  0  0
   38.4660   30.7270   41.7880 N   0  0  0  0  0  0  0  0  0  0  0  0
   39.4650   30.1380   42.4320 C   0  0  0  0  0  0  0  0  0  0  0  0
   39.0520   29.0080   43.0190 N   0  0  0  0  0  0  0  0  0  0  0  0
   37.7110   28.8880   42.7200 C   0  0  0  0  0  0  0  0  0  0  0  0
   37.4100   29.9540   41.9730 N   0  0  0  0  0  0  0  0  0  0  0  0
   37.1960   32.0920   40.0920 C   0  0  0  0  0  0  0  0  0  0  0  0
   38.2440   31.9100   40.9950 C   0  0  0  0  0  0  0  0  0  0  0  0
   39.1990   32.9710   41.1690 C   0  0  0  0  0  0  0  0  0  0  0  0
   39.0140   34.0820   40.4420 N   0  0  0  0  0  0  0  0  0  0  0  0
   37.9900   34.2070   39.5900 C   0  0  0  0  0  0  0  0  0  0  0  0
   37.1100   33.2310   39.4270 N   0  0  0  0  0  0  0  0  0  0  0  0
   36.7450   27.9530   44.7170 C   0  0  0  0  0  0  0  0  0  0  0  0
   37.4060   26.4290   42.9070 C   0  0  0  0  0  0  0  0  0  0  0  0
   37.0040   25.8640   41.6170 C   0  0  0  0  0  0  0  0  0  0  0  0
   36.8990   24.5140   41.4110 C   0  0  0  0  0  0  0  0  0  0  0  0
   36.5080   24.1350   40.1370 C   0  0  0  0  0  0  0  0  0  0  0  0
   36.2540   25.0930   39.1770 C   0  0  0  0  0  0  0  0  0  0  0  0
   36.3670   26.4460   39.4130 C   0  0  0  0  0  0  0  0  0  0  0  0
   36.7520   26.7850   40.6700 N   0  0  0  0  0  0  0  0  0  0  0  0
   36.1030   27.4560   38.4120 C   0  0  0  0  0  0  0  0  0  0  0  0
   36.0980   28.7480   38.8300 N   0  0  0  0  0  0  0  0  0  0  0  0
   35.8520   29.5400   37.8430 O   0  0  0  0  0  0  0  0  0  0  0  0
   35.6960   28.7770   36.7750 C   0  0  0  0  0  0  0  0  0  0  0  0
   35.8500   27.4650   37.1090 N   0  0  0  0  0  0  0  0  0  0  0  0
   35.3960   29.2970   35.4100 C   0  0  0  0  0  0  0  0  0  0  0  0
   36.6140   29.0380   34.5170 C   0  0  0  0  0  0  0  0  0  0  0  0
   35.9146   27.8138   42.6368 H   0  0  0  0  0  0  0  0  0  0  0  0
   40.4934   30.5256   42.4775 H   0  0  0  0  0  0  0  0  0  0  0  0
   36.4511   31.2979   39.9356 H   0  0  0  0  0  0  0  0  0  0  0  0
   40.0435   32.8752   41.8674 H   0  0  0  0  0  0  0  0  0  0  0  0
   37.8770   35.1375   39.0144 H   0  0  0  0  0  0  0  0  0  0  0  0
   37.2959   27.1488   45.2267 H   0  0  0  0  0  0  0  0  0  0  0  0
   37.1665   28.9269   45.0066 H   0  0  0  0  0  0  0  0  0  0  0  0
   35.6846   27.9117   45.0066 H   0  0  0  0  0  0  0  0  0  0  0  0
   38.5042   26.4876   42.9286 H   0  0  0  0  0  0  0  0  0  0  0  0
   36.9940   25.7642   43.6805 H   0  0  0  0  0  0  0  0  0  0  0  0
   37.1107   23.7806   42.2031 H   0  0  0  0  0  0  0  0  0  0  0  0
   36.3999   23.0685   39.8904 H   0  0  0  0  0  0  0  0  0  0  0  0
   35.9464   24.7606   38.1746 H   0  0  0  0  0  0  0  0  0  0  0  0
   34.5170   28.7785   34.9995 H   0  0  0  0  0  0  0  0  0  0  0  0
   35.1813   30.3749   35.4542 H   0  0  0  0  0  0  0  0  0  0  0  0
   37.4966   28.8503   35.1461 H   0  0  0  0  0  0  0  0  0  0  0  0
   36.4231   28.1604   33.8819 H   0  0  0  0  0  0  0  0  0  0  0  0
   36.7967   29.9174   33.8819 H   0  0  0  0  0  0  0  0  0  0  0  0
  1 13  1  0
  2  6  1  0
  2  3  1  0
  3  4  2  0
  5  4  1  0
  5  1  1  0
  6  5  2  0
  7  8  2  0
  8  9  1  0
  8  2  1  0
 10  9  2  0
 11 10  1  0
 12 11  2  0
 12  7  1  0
 14  1  1  0
 15 14  1  0
 16 15  2  0
 17 16  1  0
 18 19  1  0
 18 17  2  0
 19 20  2  0
 20 15  1  0
 21 22  2  0
 21 19  1  0
 23 22  1  0
 24 25  2  0
 24 23  1  0
 25 21  1  0
 26 24  1  0
 27 26  1  0
  1 28  1  6
  3 29  1  0
  7 30  1  0
  9 31  1  0
 11 32  1  0
 13 33  1  0
 13 34  1  0
 13 35  1  0
 14 36  1  0
 14 37  1  0
 16 38  1  0
 17 39  1  0
 18 40  1  0
 26 41  1  0
 26 42  1  0
 27 43  1  0
 27 44  1  0
 27 45  1  0
M  ISO  8  28   8  29  14  30  14  31  14  32  14  33   8  34   8  35   8
M  ISO  8  36   8  37   8  38  14  39  14  40  14  41   8  42   8  43   8
M  ISO  2  44   8  45   8
M  END
>  <minimizedAffinity>  (1) 
-5.95534563

>  <minimizedRMSD>  (1) 
0.608907282

$$$$
