
     RDKit          3D

 40 43  0  0  1  0  0  0  0  0999 V2000
   36.9620   27.8040   43.1200 C   0  0  2  0  0  0  0  0  0  0  0  0
   38.4590   30.8060   41.7070 N   0  0  0  0  0  0  0  0  0  0  0  0
   39.4780   30.2420   42.3400 C   0  0  0  0  0  0  0  0  0  0  0  0
   39.1000   29.1080   42.9260 N   0  0  0  0  0  0  0  0  0  0  0  0
   37.7650   28.9430   42.6480 C   0  0  0  0  0  0  0  0  0  0  0  0
   37.4180   30.0000   41.9030 N   0  0  0  0  0  0  0  0  0  0  0  0
   37.1670   32.1000   39.9730 C   0  0  0  0  0  0  0  0  0  0  0  0
   38.1910   31.9810   40.9140 C   0  0  0  0  0  0  0  0  0  0  0  0
   39.0710   33.0980   41.1390 C   0  0  0  0  0  0  0  0  0  0  0  0
   38.8430   34.2020   40.4150 N   0  0  0  0  0  0  0  0  0  0  0  0
   37.8450   34.2720   39.5200 C   0  0  0  0  0  0  0  0  0  0  0  0
   37.0330   33.2390   39.3120 N   0  0  0  0  0  0  0  0  0  0  0  0
   36.7810   28.0300   44.6470 C   0  0  0  0  0  0  0  0  0  0  0  0
   37.5840   26.4830   42.9150 C   0  0  0  0  0  0  0  0  0  0  0  0
   37.1020   25.7770   41.7280 C   0  0  0  0  0  0  0  0  0  0  0  0
   36.9070   24.4140   41.7030 C   0  0  0  0  0  0  0  0  0  0  0  0
   36.4480   23.8850   40.5220 C   0  0  0  0  0  0  0  0  0  0  0  0
   36.2130   24.7230   39.4530 C   0  0  0  0  0  0  0  0  0  0  0  0
   36.4090   26.0830   39.4840 C   0  0  0  0  0  0  0  0  0  0  0  0
   36.8620   26.5750   40.6630 N   0  0  0  0  0  0  0  0  0  0  0  0
   36.1630   26.9630   38.3630 C   0  0  0  0  0  0  0  0  0  0  0  0
   36.6710   28.2230   38.4330 N   0  0  0  0  0  0  0  0  0  0  0  0
   36.3790   28.8880   37.3810 O   0  0  0  0  0  0  0  0  0  0  0  0
   35.6780   28.0790   36.6050 C   0  0  0  0  0  0  0  0  0  0  0  0
   35.5280   26.8620   37.1990 N   0  0  0  0  0  0  0  0  0  0  0  0
   35.0400   28.5590   35.0110 S   0  0  0  0  0  0  0  0  0  0  0  0
   36.0249   27.7780   42.5445 H   0  0  0  0  0  0  0  0  0  0  0  0
   40.4970   30.6547   42.3761 H   0  0  0  0  0  0  0  0  0  0  0  0
   36.4820   31.2604   39.7837 H   0  0  0  0  0  0  0  0  0  0  0  0
   39.8912   33.0474   41.8702 H   0  0  0  0  0  0  0  0  0  0  0  0
   37.6960   35.2000   38.9485 H   0  0  0  0  0  0  0  0  0  0  0  0
   37.3753   27.2880   45.2005 H   0  0  0  0  0  0  0  0  0  0  0  0
   37.1209   29.0424   44.9106 H   0  0  0  0  0  0  0  0  0  0  0  0
   35.7188   27.9195   44.9106 H   0  0  0  0  0  0  0  0  0  0  0  0
   38.6705   26.6236   42.8166 H   0  0  0  0  0  0  0  0  0  0  0  0
   37.3143   25.8655   43.7844 H   0  0  0  0  0  0  0  0  0  0  0  0
   37.1081   23.7833   42.5815 H   0  0  0  0  0  0  0  0  0  0  0  0
   36.2696   22.8035   40.4298 H   0  0  0  0  0  0  0  0  0  0  0  0
   35.8460   24.2757   38.5175 H   0  0  0  0  0  0  0  0  0  0  0  0
   33.9537   29.3763   35.1811 H   0  0  0  0  0  0  0  0  0  0  0  0
  1 13  1  0
  2  6  1  0
  2  3  1  0
  3  4  2  0
  5  4  1  0
  5  1  1  0
  6  5  2  0
  7  8  2  0
  8  9  1  0
  8  2  1  0
 10  9  2  0
 11 10  1  0
 12 11  2  0
 12  7  1  0
 14  1  1  0
 15 14  1  0
 16 15  2  0
 17 16  1  0
 18 19  1  0
 18 17  2  0
 19 20  2  0
 20 15  1  0
 21 22  2  0
 21 19  1  0
 23 22  1  0
 24 25  2  0
 24 23  1  0
 25 21  1  0
 26 24  1  0
  1 27  1  6
  3 28  1  0
  7 29  1  0
  9 30  1  0
 11 31  1  0
 13 32  1  0
 13 33  1  0
 13 34  1  0
 14 35  1  0
 14 36  1  0
 16 37  1  0
 17 38  1  0
 18 39  1  0
 26 40  1  0
M  ISO  8  27   8  28  14  29  14  30  14  31  14  32   8  33   8  34   8
M  ISO  6  35   8  36   8  37  14  38  14  39  14  40  11
M  END
>  <minimizedAffinity>  (1) 
-5.94987154

>  <minimizedRMSD>  (1) 
0.0344086513

$$$$
