
     RDKit          3D

 42 45  0  0  1  0  0  0  0  0999 V2000
   36.9550   27.8010   43.1120 C   0  0  2  0  0  0  0  0  0  0  0  0
   38.4530   30.7990   41.7030 N   0  0  0  0  0  0  0  0  0  0  0  0
   39.4770   30.2400   42.3350 C   0  0  0  0  0  0  0  0  0  0  0  0
   39.1030   29.0990   42.9260 N   0  0  0  0  0  0  0  0  0  0  0  0
   37.7620   28.9390   42.6430 C   0  0  0  0  0  0  0  0  0  0  0  0
   37.4190   29.9940   41.9010 N   0  0  0  0  0  0  0  0  0  0  0  0
   37.1650   32.1000   39.9740 C   0  0  0  0  0  0  0  0  0  0  0  0
   38.1890   31.9740   40.9120 C   0  0  0  0  0  0  0  0  0  0  0  0
   39.0720   33.0910   41.1320 C   0  0  0  0  0  0  0  0  0  0  0  0
   38.8420   34.1920   40.4060 N   0  0  0  0  0  0  0  0  0  0  0  0
   37.8440   34.2640   39.5160 C   0  0  0  0  0  0  0  0  0  0  0  0
   37.0330   33.2400   39.3130 N   0  0  0  0  0  0  0  0  0  0  0  0
   36.7900   28.0190   44.6440 C   0  0  0  0  0  0  0  0  0  0  0  0
   37.5600   26.4760   42.8950 C   0  0  0  0  0  0  0  0  0  0  0  0
   37.0850   25.7870   41.7020 C   0  0  0  0  0  0  0  0  0  0  0  0
   36.9040   24.4230   41.6530 C   0  0  0  0  0  0  0  0  0  0  0  0
   36.4490   23.9100   40.4590 C   0  0  0  0  0  0  0  0  0  0  0  0
   36.2030   24.7640   39.3980 C   0  0  0  0  0  0  0  0  0  0  0  0
   36.3880   26.1290   39.4600 C   0  0  0  0  0  0  0  0  0  0  0  0
   36.8370   26.5980   40.6540 N   0  0  0  0  0  0  0  0  0  0  0  0
   36.1330   27.0300   38.3540 C   0  0  0  0  0  0  0  0  0  0  0  0
   36.6600   28.2700   38.4320 N   0  0  0  0  0  0  0  0  0  0  0  0
   36.3570   28.9550   37.3910 O   0  0  0  0  0  0  0  0  0  0  0  0
   35.6280   28.1710   36.6190 C   0  0  0  0  0  0  0  0  0  0  0  0
   35.4720   26.9510   37.2030 N   0  0  0  0  0  0  0  0  0  0  0  0
   35.0900   28.6280   35.3100 C   0  0  0  0  0  0  0  0  0  0  0  0
   36.0151   27.7861   42.5408 H   0  0  0  0  0  0  0  0  0  0  0  0
   40.4942   30.6573   42.3686 H   0  0  0  0  0  0  0  0  0  0  0  0
   36.4759   31.2636   39.7855 H   0  0  0  0  0  0  0  0  0  0  0  0
   39.8946   33.0416   41.8606 H   0  0  0  0  0  0  0  0  0  0  0  0
   37.6964   35.1917   38.9437 H   0  0  0  0  0  0  0  0  0  0  0  0
   37.3673   27.2563   45.1872 H   0  0  0  0  0  0  0  0  0  0  0  0
   37.1592   29.0194   44.9139 H   0  0  0  0  0  0  0  0  0  0  0  0
   35.7269   27.9354   44.9139 H   0  0  0  0  0  0  0  0  0  0  0  0
   38.6489   26.6048   42.8076 H   0  0  0  0  0  0  0  0  0  0  0  0
   37.2702   25.8533   43.7543 H   0  0  0  0  0  0  0  0  0  0  0  0
   37.1115   23.7786   42.5200 H   0  0  0  0  0  0  0  0  0  0  0  0
   36.2821   22.8283   40.3491 H   0  0  0  0  0  0  0  0  0  0  0  0
   35.8403   24.3304   38.4544 H   0  0  0  0  0  0  0  0  0  0  0  0
   34.2617   29.3316   35.4795 H   0  0  0  0  0  0  0  0  0  0  0  0
   35.8867   29.1297   34.7411 H   0  0  0  0  0  0  0  0  0  0  0  0
   34.7237   27.7607   34.7411 H   0  0  0  0  0  0  0  0  0  0  0  0
  1 13  1  0
  2  6  1  0
  2  3  1  0
  3  4  2  0
  5  4  1  0
  5  1  1  0
  6  5  2  0
  7  8  2  0
  8  9  1  0
  8  2  1  0
 10  9  2  0
 11 10  1  0
 12 11  2  0
 12  7  1  0
 14  1  1  0
 15 14  1  0
 16 15  2  0
 17 16  1  0
 18 19  1  0
 18 17  2  0
 19 20  2  0
 20 15  1  0
 21 22  2  0
 21 19  1  0
 23 22  1  0
 24 25  2  0
 24 23  1  0
 25 21  1  0
 26 24  1  0
  1 27  1  6
  3 28  1  0
  7 29  1  0
  9 30  1  0
 11 31  1  0
 13 32  1  0
 13 33  1  0
 13 34  1  0
 14 35  1  0
 14 36  1  0
 16 37  1  0
 17 38  1  0
 18 39  1  0
 26 40  1  0
 26 41  1  0
 26 42  1  0
M  ISO  8  27   8  28  14  29  14  30  14  31  14  32   8  33   8  34   8
M  ISO  8  35   8  36   8  37  14  38  14  39  14  40   8  41   8  42   8
M  END
>  <minimizedAffinity>  (1) 
-5.94554663

>  <minimizedRMSD>  (1) 
0.0724629685

$$$$
