
     RDKit          3D

 28 30  0  0  0  0  0  0  0  0999 V2000
   40.1880   26.9080   43.6930 C   0  0  0  0  0  0  0  0  0  0  0  0
   39.9160   25.5340   43.5650 C   0  0  0  0  0  0  0  0  0  0  0  0
   38.8190   25.2000   42.7630 C   0  0  0  0  0  0  0  0  0  0  0  0
   38.1510   26.2180   42.2060 N   0  0  0  0  0  0  0  0  0  0  0  0
   38.4040   27.5170   42.3240 C   0  0  0  0  0  0  0  0  0  0  0  0
   39.4440   27.8170   43.0850 N   0  0  0  0  0  0  0  0  0  0  0  0
   38.3690   23.8740   42.5010 N   0  0  0  0  0  0  0  0  0  0  0  0
   37.4780   28.3690   41.5820 C   0  0  0  0  0  0  0  0  0  0  0  0
   37.2150   29.6640   41.9890 C   0  0  0  0  0  0  0  0  0  0  0  0
   36.3670   30.5150   41.3510 C   0  0  0  0  0  0  0  0  0  0  0  0
   35.7010   30.1150   40.2260 C   0  0  0  0  0  0  0  0  0  0  0  0
   35.9220   28.8510   39.7820 C   0  0  0  0  0  0  0  0  0  0  0  0
   35.2530   28.4390   38.6450 C   0  0  0  0  0  0  0  0  0  0  0  0
   35.4200   27.1610   38.1200 C   0  0  0  0  0  0  0  0  0  0  0  0
   36.3020   26.3300   38.8140 C   0  0  0  0  0  0  0  0  0  0  0  0
   36.9520   26.7730   39.9440 C   0  0  0  0  0  0  0  0  0  0  0  0
   36.7860   28.0170   40.4500 C   0  0  0  0  0  0  0  0  0  0  0  0
   41.0373   27.2334   44.3117 H   0  0  0  0  0  0  0  0  0  0  0  0
   40.5281   24.7688   44.0647 H   0  0  0  0  0  0  0  0  0  0  0  0
   37.5496   23.7182   41.8967 H   0  0  0  0  0  0  0  0  0  0  0  0
   38.8630   23.0711   42.9159 H   0  0  0  0  0  0  0  0  0  0  0  0
   37.7267   30.0313   42.8908 H   0  0  0  0  0  0  0  0  0  0  0  0
   36.2161   31.5317   41.7428 H   0  0  0  0  0  0  0  0  0  0  0  0
   35.0117   30.7920   39.7001 H   0  0  0  0  0  0  0  0  0  0  0  0
   34.5705   29.1397   38.1417 H   0  0  0  0  0  0  0  0  0  0  0  0
   34.8907   26.8266   37.2156 H   0  0  0  0  0  0  0  0  0  0  0  0
   36.4801   25.3065   38.4526 H   0  0  0  0  0  0  0  0  0  0  0  0
   37.6377   26.0841   40.4591 H   0  0  0  0  0  0  0  0  0  0  0  0
  2  1  2  0
  3  2  1  0
  4  5  1  0
  4  3  2  0
  5  6  2  0
  6  1  1  0
  7  3  1  0
  8  9  2  0
  8  5  1  0
 10  9  1  0
 11 10  2  0
 12 11  1  0
 12 17  2  0
 13 12  1  0
 14 13  2  0
 14 15  1  0
 15 16  2  0
 16 17  1  0
 17  8  1  0
  1 18  1  0
  2 19  1  0
  7 20  1  0
  7 21  1  0
  9 22  1  0
 10 23  1  0
 11 24  1  0
 13 25  1  0
 14 26  1  0
 15 27  1  0
 16 28  1  0
M  ISO  8  18  14  19  14  22  14  23  14  24  14  25  14  26  14  27  14
M  ISO  1  28  14
M  END
>  <minimizedAffinity>  (1) 
-5.23975277

>  <minimizedRMSD>  (1) 
2.31543326

$$$$
