
     RDKit          3D

 21 22  0  0  0  0  0  0  0  0999 V2000
   40.0620   26.5670   43.8990 C   0  0  0  0  0  0  0  0  0  0  0  0
   39.8910   25.2000   43.5450 C   0  0  0  0  0  0  0  0  0  0  0  0
   38.8820   24.9360   42.5990 C   0  0  0  0  0  0  0  0  0  0  0  0
   38.1650   25.9630   42.1050 N   0  0  0  0  0  0  0  0  0  0  0  0
   38.3570   27.2380   42.4650 C   0  0  0  0  0  0  0  0  0  0  0  0
   39.3100   27.5290   43.3640 N   0  0  0  0  0  0  0  0  0  0  0  0
   38.5730   23.6340   42.1290 N   0  0  0  0  0  0  0  0  0  0  0  0
   37.5390   28.2990   41.8850 C   0  0  0  0  0  0  0  0  0  0  0  0
   36.3310   27.9860   41.2970 C   0  0  0  0  0  0  0  0  0  0  0  0
   35.5190   28.9490   40.7360 C   0  0  0  0  0  0  0  0  0  0  0  0
   35.9430   30.2540   40.7730 C   0  0  0  0  0  0  0  0  0  0  0  0
   37.1630   30.5670   41.3670 C   0  0  0  0  0  0  0  0  0  0  0  0
   37.9040   29.5740   41.8960 N   0  0  0  0  0  0  0  0  0  0  0  0
   40.8350   26.8374   44.6334 H   0  0  0  0  0  0  0  0  0  0  0  0
   40.5073   24.4006   43.9821 H   0  0  0  0  0  0  0  0  0  0  0  0
   37.8232   23.5013   41.4354 H   0  0  0  0  0  0  0  0  0  0  0  0
   39.0984   22.8211   42.4813 H   0  0  0  0  0  0  0  0  0  0  0  0
   36.0054   26.9355   41.2750 H   0  0  0  0  0  0  0  0  0  0  0  0
   34.5588   28.6791   40.2721 H   0  0  0  0  0  0  0  0  0  0  0  0
   35.3217   31.0492   40.3353 H   0  0  0  0  0  0  0  0  0  0  0  0
   37.5160   31.6082   41.4037 H   0  0  0  0  0  0  0  0  0  0  0  0
  2  1  2  0
  3  2  1  0
  4  5  1  0
  4  3  2  0
  5  6  2  0
  6  1  1  0
  7  3  1  0
  8 13  1  0
  8  5  1  0
  9  8  2  0
 10 11  2  0
 10  9  1  0
 11 12  1  0
 12 13  2  0
  1 14  1  0
  2 15  1  0
  7 16  1  0
  7 17  1  0
  9 18  1  0
 10 19  1  0
 11 20  1  0
 12 21  1  0
M  ISO  6  14  14  15  14  18  14  19  14  20  14  21  14
M  END
>  <minimizedAffinity>  (1) 
-4.36916018

>  <minimizedRMSD>  (1) 
2.8379972

$$$$
