
     RDKit          3D

 20 21  0  0  0  0  0  0  0  0999 V2000
   38.7880   28.8230   42.1770 C   0  0  0  0  0  0  0  0  0  0  0  0
   38.1200   29.1340   43.3790 C   0  0  0  0  0  0  0  0  0  0  0  0
   37.1980   28.1890   43.8580 C   0  0  0  0  0  0  0  0  0  0  0  0
   37.0110   27.0440   43.1360 N   0  0  0  0  0  0  0  0  0  0  0  0
   37.6710   26.7960   41.9970 C   0  0  0  0  0  0  0  0  0  0  0  0
   38.5560   27.6760   41.5130 N   0  0  0  0  0  0  0  0  0  0  0  0
   36.4420   28.3270   45.0350 N   0  0  0  0  0  0  0  0  0  0  0  0
   37.4160   25.5500   41.2810 C   0  0  0  0  0  0  0  0  0  0  0  0
   37.9690   24.3570   41.7020 C   0  0  0  0  0  0  0  0  0  0  0  0
   37.7020   23.2010   40.9950 C   0  0  0  0  0  0  0  0  0  0  0  0
   36.9000   23.2490   39.8930 N   0  0  0  0  0  0  0  0  0  0  0  0
   36.3620   24.4320   39.4890 C   0  0  0  0  0  0  0  0  0  0  0  0
   36.6330   25.5370   40.1880 N   0  0  0  0  0  0  0  0  0  0  0  0
   39.5189   29.5377   41.7709 H   0  0  0  0  0  0  0  0  0  0  0  0
   38.3122   30.0739   43.9171 H   0  0  0  0  0  0  0  0  0  0  0  0
   35.7858   27.5843   45.3157 H   0  0  0  0  0  0  0  0  0  0  0  0
   36.5442   29.1708   45.6168 H   0  0  0  0  0  0  0  0  0  0  0  0
   38.6156   24.3275   42.5914 H   0  0  0  0  0  0  0  0  0  0  0  0
   38.1353   22.2436   41.3201 H   0  0  0  0  0  0  0  0  0  0  0  0
   35.7144   24.4772   38.6010 H   0  0  0  0  0  0  0  0  0  0  0  0
  1  2  2  0
  2  3  1  0
  3  7  1  0
  4  3  2  0
  5  4  1  0
  6  5  2  0
  6  1  1  0
  8  9  2  0
  8  5  1  0
 10  9  1  0
 11 10  2  0
 12 11  1  0
 12 13  2  0
 13  8  1  0
  1 14  1  0
  2 15  1  0
  7 16  1  0
  7 17  1  0
  9 18  1  0
 10 19  1  0
 12 20  1  0
M  ISO  5  14  14  15  14  18  14  19  14  20  14
M  END
>  <minimizedAffinity>  (1) 
-4.21089363

>  <minimizedRMSD>  (1) 
4.89601755

$$$$
