
     RDKit          3D

 18 19  0  0  0  0  0  0  0  0999 V2000
   40.0710   26.5520   43.9100 C   0  0  0  0  0  0  0  0  0  0  0  0
   39.8290   25.2210   43.5070 C   0  0  0  0  0  0  0  0  0  0  0  0
   38.7980   25.0070   42.5750 C   0  0  0  0  0  0  0  0  0  0  0  0
   38.1010   26.0890   42.1210 N   0  0  0  0  0  0  0  0  0  0  0  0
   38.3670   27.3420   42.5330 C   0  0  0  0  0  0  0  0  0  0  0  0
   39.3440   27.5710   43.4220 N   0  0  0  0  0  0  0  0  0  0  0  0
   38.4280   23.7480   42.0700 N   0  0  0  0  0  0  0  0  0  0  0  0
   37.5160   28.4020   41.9420 C   0  0  0  0  0  0  0  0  0  0  0  0
   37.8090   29.7900   41.9610 C   0  0  0  0  0  0  0  0  0  0  0  0
   36.4200   30.5270   41.1010 S   0  0  0  0  0  0  0  0  0  0  0  0
   35.6200   28.8210   40.8310 C   0  0  0  0  0  0  0  0  0  0  0  0
   36.3950   28.0470   41.3480 N   0  0  0  0  0  0  0  0  0  0  0  0
   40.8699   26.7588   44.6373 H   0  0  0  0  0  0  0  0  0  0  0  0
   40.4227   24.3852   43.9058 H   0  0  0  0  0  0  0  0  0  0  0  0
   37.6600   23.6722   41.3878 H   0  0  0  0  0  0  0  0  0  0  0  0
   38.9249   22.9016   42.3822 H   0  0  0  0  0  0  0  0  0  0  0  0
   38.6824   30.2946   42.3999 H   0  0  0  0  0  0  0  0  0  0  0  0
   34.6721   28.5910   40.3225 H   0  0  0  0  0  0  0  0  0  0  0  0
  2  1  2  0
  3  2  1  0
  4  5  1  0
  4  3  2  0
  5  6  2  0
  6  1  1  0
  7  3  1  0
  8  9  2  0
  8  5  1  0
 10  9  1  0
 11 10  1  0
 11 12  2  0
 12  8  1  0
  1 13  1  0
  2 14  1  0
  7 15  1  0
  7 16  1  0
  9 17  1  0
 11 18  1  0
M  ISO  4  13  14  14  14  17  14  18  14
M  END
>  <minimizedAffinity>  (1) 
-3.96309805

>  <minimizedRMSD>  (1) 
2.7074945

$$$$
