
     RDKit          3D

 19 20  0  0  0  0  0  0  0  0999 V2000
   37.1900   27.8310   43.7300 C   0  0  0  0  0  0  0  0  0  0  0  0
   36.9960   26.7310   42.8680 C   0  0  0  0  0  0  0  0  0  0  0  0
   37.0550   26.9690   41.4720 C   0  0  0  0  0  0  0  0  0  0  0  0
   37.2970   28.2460   41.0600 N   0  0  0  0  0  0  0  0  0  0  0  0
   37.4760   29.2610   41.9130 C   0  0  0  0  0  0  0  0  0  0  0  0
   37.4230   29.0510   43.2360 N   0  0  0  0  0  0  0  0  0  0  0  0
   36.8830   25.9890   40.4810 N   0  0  0  0  0  0  0  0  0  0  0  0
   37.7230   30.5520   41.3150 N   0  0  0  0  0  0  0  0  0  0  0  0
   38.8630   31.2690   41.1840 C   0  0  0  0  0  0  0  0  0  0  0  0
   38.5550   32.4450   40.5330 C   0  0  0  0  0  0  0  0  0  0  0  0
   37.2180   32.4590   40.2600 N   0  0  0  0  0  0  0  0  0  0  0  0
   36.7320   31.2940   40.7460 C   0  0  0  0  0  0  0  0  0  0  0  0
   37.1491   27.6832   44.8193 H   0  0  0  0  0  0  0  0  0  0  0  0
   36.8055   25.7233   43.2657 H   0  0  0  0  0  0  0  0  0  0  0  0
   36.9416   26.2473   39.4856 H   0  0  0  0  0  0  0  0  0  0  0  0
   36.6983   25.0119   40.7495 H   0  0  0  0  0  0  0  0  0  0  0  0
   39.8606   30.9668   41.5352 H   0  0  0  0  0  0  0  0  0  0  0  0
   39.2695   33.2409   40.2760 H   0  0  0  0  0  0  0  0  0  0  0  0
   35.6773   30.9866   40.6894 H   0  0  0  0  0  0  0  0  0  0  0  0
  2  1  2  0
  3  2  1  0
  4  3  2  0
  4  5  1  0
  5  6  2  0
  6  1  1  0
  7  3  1  0
  8  5  1  0
  9  8  1  0
 10  9  2  0
 11 10  1  0
 11 12  2  0
 12  8  1  0
  1 13  1  0
  2 14  1  0
  7 15  1  0
  7 16  1  0
  9 17  1  0
 10 18  1  0
 12 19  1  0
M  ISO  5  13  14  14  14  17  14  18  14  19  14
M  END
>  <minimizedAffinity>  (1) 
-3.9217701

>  <minimizedRMSD>  (1) 
2.33787227

$$$$
