
     RDKit          3D

 43 46  0  0  1  0  0  0  0  0999 V2000
   39.2290   26.0150   42.1980 C   0  0  1  0  0  0  0  0  0  0  0  0
   39.0240   24.5990   41.6090 C   0  0  0  0  0  0  0  0  0  0  0  0
   37.6400   24.2020   41.9720 C   0  0  0  0  0  0  0  0  0  0  0  0
   36.9580   25.5570   42.1370 C   0  0  0  0  0  0  0  0  0  0  0  0
   38.0030   26.2660   42.9750 C   0  0  2  0  0  0  0  0  0  0  0  0
   41.9290   26.9370   44.6760 C   0  0  0  0  0  0  0  0  0  0  0  0
   40.6750   26.9740   44.0540 C   0  0  0  0  0  0  0  0  0  0  0  0
   40.4780   26.0940   42.9460 C   0  0  0  0  0  0  0  0  0  0  0  0
   41.4920   25.2750   42.5510 N   0  0  0  0  0  0  0  0  0  0  0  0
   42.6790   25.2760   43.1820 C   0  0  0  0  0  0  0  0  0  0  0  0
   42.9040   26.1010   44.2390 N   0  0  0  0  0  0  0  0  0  0  0  0
   37.5410   27.6750   43.0640 C   0  0  2  0  0  0  0  0  0  0  0  0
   36.9490   28.0860   44.3700 C   0  0  0  0  0  0  0  0  0  0  0  0
   36.4820   27.8400   41.9910 C   0  0  0  0  0  0  0  0  0  0  0  0
   36.8930   29.0240   41.2340 N   0  0  0  0  0  0  0  0  0  0  0  0
   36.5440   30.3080   41.4600 C   0  0  0  0  0  0  0  0  0  0  0  0
   37.0850   31.1500   40.5870 N   0  0  0  0  0  0  0  0  0  0  0  0
   37.8180   30.4090   39.7500 C   0  0  0  0  0  0  0  0  0  0  0  0
   38.6000   30.7250   38.6540 C   0  0  0  0  0  0  0  0  0  0  0  0
   39.2290   29.7240   38.0030 N   0  0  0  0  0  0  0  0  0  0  0  0
   39.0980   28.4450   38.4130 C   0  0  0  0  0  0  0  0  0  0  0  0
   38.3450   28.1260   39.4720 N   0  0  0  0  0  0  0  0  0  0  0  0
   37.7030   29.0920   40.1450 C   0  0  0  0  0  0  0  0  0  0  0  0
   39.3527   26.8053   41.4429 H   0  0  0  0  0  0  0  0  0  0  0  0
   39.7498   23.8956   42.0430 H   0  0  0  0  0  0  0  0  0  0  0  0
   39.1733   24.5901   40.5192 H   0  0  0  0  0  0  0  0  0  0  0  0
   37.1698   23.6121   41.1714 H   0  0  0  0  0  0  0  0  0  0  0  0
   37.5804   23.5623   42.8649 H   0  0  0  0  0  0  0  0  0  0  0  0
   36.8000   26.0568   41.1699 H   0  0  0  0  0  0  0  0  0  0  0  0
   35.9507   25.5223   42.5777 H   0  0  0  0  0  0  0  0  0  0  0  0
   38.1744   25.9499   44.0146 H   0  0  0  0  0  0  0  0  0  0  0  0
   42.1269   27.5970   45.5335 H   0  0  0  0  0  0  0  0  0  0  0  0
   39.8791   27.6488   44.4021 H   0  0  0  0  0  0  0  0  0  0  0  0
   43.4775   24.6015   42.8392 H   0  0  0  0  0  0  0  0  0  0  0  0
   38.4284   28.3135   42.9417 H   0  0  0  0  0  0  0  0  0  0  0  0
   37.5494   27.6692   45.1921 H   0  0  0  0  0  0  0  0  0  0  0  0
   36.9427   29.1837   44.4405 H   0  0  0  0  0  0  0  0  0  0  0  0
   35.9183   27.7082   44.4405 H   0  0  0  0  0  0  0  0  0  0  0  0
   36.4512   26.9550   41.3384 H   0  0  0  0  0  0  0  0  0  0  0  0
   35.4743   27.9509   42.4178 H   0  0  0  0  0  0  0  0  0  0  0  0
   35.8820   30.6235   42.2799 H   0  0  0  0  0  0  0  0  0  0  0  0
   38.7068   31.7678   38.3206 H   0  0  0  0  0  0  0  0  0  0  0  0
   39.6214   27.6477   37.8649 H   0  0  0  0  0  0  0  0  0  0  0  0
  1  8  1  0
  1  5  1  0
  2  3  1  0
  2  1  1  0
  3  4  1  0
  4  5  1  0
  5 12  1  0
  7  6  2  0
  8  7  1  0
  9  8  2  0
  9 10  1  0
 10 11  2  0
 11  6  1  0
 12 13  1  0
 14 12  1  0
 15 16  1  0
 15 14  1  0
 17 16  2  0
 18 23  2  0
 18 17  1  0
 19 18  1  0
 20 21  1  0
 20 19  2  0
 21 22  2  0
 22 23  1  0
 23 15  1  0
  1 24  1  6
  2 25  1  0
  2 26  1  0
  3 27  1  0
  3 28  1  0
  4 29  1  0
  4 30  1  0
  5 31  1  1
  6 32  1  0
  7 33  1  0
 10 34  1  0
 12 35  1  6
 13 36  1  0
 13 37  1  0
 13 38  1  0
 14 39  1  0
 14 40  1  0
 16 41  1  0
 19 42  1  0
 21 43  1  0
M  ISO  8  24  13  25  13  26  13  27  13  28  13  29  13  30  13  31  13
M  ISO  8  32  14  33  14  34  14  35   8  36   8  37   8  38   8  39   8
M  ISO  4  40   8  41  14  42  14  43  14
M  END
>  <minimizedAffinity>  (1) 
-5.53984547

>  <minimizedRMSD>  (1) 
2.08446097

$$$$
