
     RDKit          3D

 15 15  0  0  0  0  0  0  0  0999 V2000
   38.4440   28.7100   43.3610 C   0  0  0  0  0  0  0  0  0  0  0  0
   38.3150   27.3050   43.3480 C   0  0  0  0  0  0  0  0  0  0  0  0
   37.3600   26.7710   42.4690 C   0  0  0  0  0  0  0  0  0  0  0  0
   36.6370   27.6240   41.7050 N   0  0  0  0  0  0  0  0  0  0  0  0
   36.7890   28.9600   41.7460 C   0  0  0  0  0  0  0  0  0  0  0  0
   37.6940   29.4940   42.5750 N   0  0  0  0  0  0  0  0  0  0  0  0
   37.0890   25.3980   42.3170 N   0  0  0  0  0  0  0  0  0  0  0  0
   35.9850   29.8350   40.9010 C   0  0  0  0  0  0  0  0  0  0  0  0
   35.6310   29.4720   39.7500 O   0  0  0  0  0  0  0  0  0  0  0  0
   35.5860   31.0900   41.3400 O   0  0  0  0  0  0  0  0  0  0  0  0
   39.1798   29.1739   44.0343 H   0  0  0  0  0  0  0  0  0  0  0  0
   38.9310   26.6615   43.9933 H   0  0  0  0  0  0  0  0  0  0  0  0
   36.3704   25.0858   41.6484 H   0  0  0  0  0  0  0  0  0  0  0  0
   37.6093   24.7056   42.8744 H   0  0  0  0  0  0  0  0  0  0  0  0
   35.0403   31.6698   40.7517 H   0  0  0  0  0  0  0  0  0  0  0  0
  2  1  2  0
  3  2  1  0
  4  5  1  0
  4  3  2  0
  5  6  2  0
  6  1  1  0
  7  3  1  0
  8 10  1  0
  8  5  1  0
  9  8  2  0
  1 11  1  0
  2 12  1  0
  7 13  1  0
  7 14  1  0
 10 15  1  0
M  ISO  3  11  14  12  14  15   3
M  END
>  <minimizedAffinity>  (1) 
-3.86919665

>  <minimizedRMSD>  (1) 
0.485231608

$$$$
