
     RDKit          3D

 18 18  0  0  0  0  0  0  0  0999 V2000
   38.1740   29.0070   43.2880 C   0  0  0  0  0  0  0  0  0  0  0  0
   38.1160   27.5990   43.3350 C   0  0  0  0  0  0  0  0  0  0  0  0
   37.2580   26.9580   42.4160 C   0  0  0  0  0  0  0  0  0  0  0  0
   36.5530   27.7360   41.5580 N   0  0  0  0  0  0  0  0  0  0  0  0
   36.6360   29.0730   41.5440 C   0  0  0  0  0  0  0  0  0  0  0  0
   37.4450   29.7000   42.4090 N   0  0  0  0  0  0  0  0  0  0  0  0
   37.0820   25.5670   42.3290 N   0  0  0  0  0  0  0  0  0  0  0  0
   35.8700   29.9380   40.6090 C   0  0  0  0  0  0  0  0  0  0  0  0
   34.7750   29.1830   39.8770 C   0  0  0  0  0  0  0  0  0  0  0  0
   38.8312   29.5443   43.9876 H   0  0  0  0  0  0  0  0  0  0  0  0
   38.7143   27.0244   44.0575 H   0  0  0  0  0  0  0  0  0  0  0  0
   36.4363   25.1723   41.6303 H   0  0  0  0  0  0  0  0  0  0  0  0
   37.5987   24.9418   42.9639 H   0  0  0  0  0  0  0  0  0  0  0  0
   35.4103   30.7561   41.1829 H   0  0  0  0  0  0  0  0  0  0  0  0
   36.5745   30.3169   39.8539 H   0  0  0  0  0  0  0  0  0  0  0  0
   34.0989   28.7168   40.6088 H   0  0  0  0  0  0  0  0  0  0  0  0
   34.2065   29.8820   39.2459 H   0  0  0  0  0  0  0  0  0  0  0  0
   35.2262   28.4032   39.2459 H   0  0  0  0  0  0  0  0  0  0  0  0
  1  2  2  0
  3  2  1  0
  4  3  2  0
  5  4  1  0
  5  6  2  0
  6  1  1  0
  7  3  1  0
  8  5  1  0
  9  8  1  0
  1 10  1  0
  2 11  1  0
  7 12  1  0
  7 13  1  0
  8 14  1  0
  8 15  1  0
  9 16  1  0
  9 17  1  0
  9 18  1  0
M  ISO  7  10  14  11  14  14   8  15   8  16   8  17   8  18   8
M  END
>  <minimizedAffinity>  (1) 
-3.24857807

>  <minimizedRMSD>  (1) 
0.304977268

$$$$
