
     RDKit          3D

 13 13  0  0  0  0  0  0  0  0999 V2000
   38.0190   28.8900   43.3990 C   0  0  0  0  0  0  0  0  0  0  0  0
   38.0050   27.4790   43.4350 C   0  0  0  0  0  0  0  0  0  0  0  0
   37.2500   26.8220   42.4430 C   0  0  0  0  0  0  0  0  0  0  0  0
   36.5870   27.5630   41.5210 N   0  0  0  0  0  0  0  0  0  0  0  0
   36.6280   28.9140   41.5240 C   0  0  0  0  0  0  0  0  0  0  0  0
   37.3450   29.5600   42.4660 N   0  0  0  0  0  0  0  0  0  0  0  0
   37.1330   25.4150   42.3390 N   0  0  0  0  0  0  0  0  0  0  0  0
   35.7170   29.7840   40.2630 S   0  0  0  0  0  0  0  0  0  0  0  0
   38.5958   29.4450   44.1535 H   0  0  0  0  0  0  0  0  0  0  0  0
   38.5583   26.9178   44.2025 H   0  0  0  0  0  0  0  0  0  0  0  0
   36.5636   24.9997   41.5878 H   0  0  0  0  0  0  0  0  0  0  0  0
   37.6172   24.8066   43.0145 H   0  0  0  0  0  0  0  0  0  0  0  0
   34.8227   30.6380   40.8528 H   0  0  0  0  0  0  0  0  0  0  0  0
  1  2  2  0
  3  2  1  0
  4  5  1  0
  4  3  2  0
  5  6  2  0
  6  1  1  0
  7  3  1  0
  8  5  1  0
  1  9  1  0
  2 10  1  0
  7 11  1  0
  7 12  1  0
  8 13  1  0
M  ISO  3   9  14  10  14  13  11
M  END
>  <minimizedAffinity>  (1) 
-2.86060548

>  <minimizedRMSD>  (1) 
0.153677389

$$$$
