
     RDKit          3D

 30 32  0  0  0  0  0  0  0  0999 V2000
   37.9650   28.2600   43.5740 C   0  0  0  0  0  0  0  0  0  0  0  0
   37.6080   26.9720   43.1250 C   0  0  0  0  0  0  0  0  0  0  0  0
   37.1720   26.8670   41.8120 C   0  0  0  0  0  0  0  0  0  0  0  0
   37.1150   27.9830   41.0540 N   0  0  0  0  0  0  0  0  0  0  0  0
   37.4550   29.1900   41.4940 C   0  0  0  0  0  0  0  0  0  0  0  0
   37.8820   29.3200   42.7650 N   0  0  0  0  0  0  0  0  0  0  0  0
   37.4080   30.3830   40.7410 N   0  0  0  0  0  0  0  0  0  0  0  0
   38.1430   31.3850   41.1890 N   0  0  0  0  0  0  0  0  0  0  0  0
   37.9560   32.4460   40.3500 C   0  0  0  0  0  0  0  0  0  0  0  0
   37.0720   32.0270   39.3830 C   0  0  0  0  0  0  0  0  0  0  0  0
   36.7280   30.7110   39.6350 C   0  0  0  0  0  0  0  0  0  0  0  0
   34.3850   28.4410   36.8820 C   0  0  0  0  0  0  0  0  0  0  0  0
   35.5750   29.0290   36.5840 C   0  0  0  0  0  0  0  0  0  0  0  0
   36.2590   29.7490   37.5300 C   0  0  0  0  0  0  0  0  0  0  0  0
   35.8060   29.9340   38.8450 C   0  0  0  0  0  0  0  0  0  0  0  0
   34.6050   29.3300   39.1220 C   0  0  0  0  0  0  0  0  0  0  0  0
   33.9130   28.6080   38.1810 C   0  0  0  0  0  0  0  0  0  0  0  0
   33.3710   27.4950   35.8350 S   0  0  0  0  0  0  0  0  0  0  0  0
   33.7330   27.6910   34.3920 O   0  0  0  0  0  0  0  0  0  0  0  0
   31.9260   27.8620   36.0870 O   0  0  0  0  0  0  0  0  0  0  0  0
   38.3176   28.3943   44.6073 H   0  0  0  0  0  0  0  0  0  0  0  0
   37.6720   26.0932   43.7836 H   0  0  0  0  0  0  0  0  0  0  0  0
   36.8780   25.8921   41.3960 H   0  0  0  0  0  0  0  0  0  0  0  0
   38.4206   33.4397   40.4314 H   0  0  0  0  0  0  0  0  0  0  0  0
   36.7000   32.6377   38.5471 H   0  0  0  0  0  0  0  0  0  0  0  0
   35.9937   28.9258   35.5721 H   0  0  0  0  0  0  0  0  0  0  0  0
   37.2165   30.2072   37.2415 H   0  0  0  0  0  0  0  0  0  0  0  0
   34.1822   29.4277   40.1328 H   0  0  0  0  0  0  0  0  0  0  0  0
   32.9549   28.1468   38.4627 H   0  0  0  0  0  0  0  0  0  0  0  0
   33.5604   26.1670   36.1134 H   0  0  0  0  0  0  0  0  0  0  0  0
  2  1  2  0
  3  2  1  0
  4  5  1  0
  4  3  2  0
  5  6  2  0
  6  1  1  0
  7  8  1  0
  7  5  1  0
  9  8  2  0
 10 11  2  0
 10  9  1  0
 11  7  1  0
 12 17  2  0
 13 12  1  0
 13 14  2  0
 14 15  1  0
 15 16  2  0
 15 11  1  0
 17 16  1  0
 18 20  2  0
 18 12  1  0
 19 18  2  0
  1 21  1  0
  2 22  1  0
  3 23  1  0
  9 24  1  0
 10 25  1  0
 13 26  1  0
 14 27  1  0
 16 28  1  0
 17 29  1  0
 18 30  1  0
M  ISO  8  21  14  22  14  23  14  24  14  25  14  26  14  27  14  28  14
M  ISO  2  29  14  30  11
M  END
>  <minimizedAffinity>  (1) 
-4.9710269

>  <minimizedRMSD>  (1) 
2.31313801

$$$$
