
     RDKit          3D

 29 31  0  0  0  0  0  0  0  0999 V2000
   36.2570   29.6890   40.3440 C   0  0  0  0  0  0  0  0  0  0  0  0
   37.3140   30.2400   39.5330 N   0  0  0  0  0  0  0  0  0  0  0  0
   37.8300   29.6390   38.4270 C   0  0  0  0  0  0  0  0  0  0  0  0
   38.8080   30.3550   37.8460 N   0  0  0  0  0  0  0  0  0  0  0  0
   38.9400   31.4770   38.6050 C   0  0  0  0  0  0  0  0  0  0  0  0
   39.7830   32.5650   38.4890 C   0  0  0  0  0  0  0  0  0  0  0  0
   40.6330   32.6550   37.5480 O   0  0  0  0  0  0  0  0  0  0  0  0
   39.6740   33.5380   39.4120 N   0  0  0  0  0  0  0  0  0  0  0  0
   38.7620   33.4390   40.4190 C   0  0  0  0  0  0  0  0  0  0  0  0
   38.7030   34.5100   41.3630 N   0  0  0  0  0  0  0  0  0  0  0  0
   37.9330   32.3640   40.5290 N   0  0  0  0  0  0  0  0  0  0  0  0
   38.0100   31.3810   39.6340 C   0  0  0  0  0  0  0  0  0  0  0  0
   37.7720   28.7460   43.6010 C   0  0  0  0  0  0  0  0  0  0  0  0
   37.7050   27.3340   43.5550 C   0  0  0  0  0  0  0  0  0  0  0  0
   37.1360   26.7650   42.3920 C   0  0  0  0  0  0  0  0  0  0  0  0
   36.6960   27.5830   41.4110 N   0  0  0  0  0  0  0  0  0  0  0  0
   36.7880   28.9360   41.5160 C   0  0  0  0  0  0  0  0  0  0  0  0
   37.3220   29.4950   42.6030 N   0  0  0  0  0  0  0  0  0  0  0  0
   36.9910   25.3680   42.1800 N   0  0  0  0  0  0  0  0  0  0  0  0
   35.6545   29.0065   39.7266 H   0  0  0  0  0  0  0  0  0  0  0  0
   35.6489   30.5236   40.7231 H   0  0  0  0  0  0  0  0  0  0  0  0
   37.4825   28.6669   38.0472 H   0  0  0  0  0  0  0  0  0  0  0  0
   40.2855   34.3650   39.3566 H   0  0  0  0  0  0  0  0  0  0  0  0
   38.0277   34.4751   42.1399 H   0  0  0  0  0  0  0  0  0  0  0  0
   39.3358   35.3170   41.2665 H   0  0  0  0  0  0  0  0  0  0  0  0
   38.2075   29.2345   44.4851 H   0  0  0  0  0  0  0  0  0  0  0  0
   38.0764   26.7103   44.3815 H   0  0  0  0  0  0  0  0  0  0  0  0
   36.5669   25.0207   41.3080 H   0  0  0  0  0  0  0  0  0  0  0  0
   37.3100   24.7023   42.8983 H   0  0  0  0  0  0  0  0  0  0  0  0
  1 17  1  0
  2 12  1  0
  2  1  1  0
  3  2  1  0
  4  3  2  0
  4  5  1  0
  5 12  2  0
  6  5  1  0
  6  8  1  0
  7  6  2  0
  8  9  1  0
  9 11  2  0
  9 10  1  0
 12 11  1  0
 14 13  2  0
 15 14  1  0
 16 17  1  0
 16 15  2  0
 17 18  2  0
 18 13  1  0
 19 15  1  0
  1 20  1  0
  1 21  1  0
  3 22  1  0
  8 23  1  0
 10 24  1  0
 10 25  1  0
 13 26  1  0
 14 27  1  0
 19 28  1  0
 19 29  1  0
M  ISO  6  20   8  21   8  22  14  23   9  26  14  27  14
M  END
>  <minimizedAffinity>  (1) 
-5.49545765

>  <minimizedRMSD>  (1) 
1.67548037

$$$$
