
     RDKit          3D

 31 33  0  0  0  0  0  0  0  0999 V2000
   36.2070   29.2180   41.5190 C   0  0  0  0  0  0  0  0  0  0  0  0
   39.3530   31.1730   41.3700 C   0  0  0  0  0  0  0  0  0  0  0  0
   38.9340   32.3730   40.7660 C   0  0  0  0  0  0  0  0  0  0  0  0
   37.5730   32.4630   40.4320 C   0  0  0  0  0  0  0  0  0  0  0  0
   36.7540   31.4180   40.6990 N   0  0  0  0  0  0  0  0  0  0  0  0
   37.2170   30.2850   41.2830 C   0  0  0  0  0  0  0  0  0  0  0  0
   38.5060   30.1800   41.6080 N   0  0  0  0  0  0  0  0  0  0  0  0
   36.9700   33.5870   39.8210 N   0  0  0  0  0  0  0  0  0  0  0  0
   36.1970   28.2170   40.4340 C   0  0  0  0  0  0  0  0  0  0  0  0
   35.7960   28.4240   39.1310 C   0  0  0  0  0  0  0  0  0  0  0  0
   35.8460   27.3890   38.2390 C   0  0  0  0  0  0  0  0  0  0  0  0
   36.2810   26.1110   38.5510 C   0  0  0  0  0  0  0  0  0  0  0  0
   36.6770   25.9290   39.8640 C   0  0  0  0  0  0  0  0  0  0  0  0
   37.1210   24.6610   40.2210 C   0  0  0  0  0  0  0  0  0  0  0  0
   37.5320   24.3880   41.4960 C   0  0  0  0  0  0  0  0  0  0  0  0
   37.5020   25.3950   42.4370 C   0  0  0  0  0  0  0  0  0  0  0  0
   37.0590   26.6550   42.0710 C   0  0  0  0  0  0  0  0  0  0  0  0
   36.6340   26.9580   40.7750 C   0  0  0  0  0  0  0  0  0  0  0  0
   36.4401   28.7117   42.4673 H   0  0  0  0  0  0  0  0  0  0  0  0
   35.2145   29.6911   41.5543 H   0  0  0  0  0  0  0  0  0  0  0  0
   40.4097   31.0553   41.6520 H   0  0  0  0  0  0  0  0  0  0  0  0
   39.6352   33.1966   40.5662 H   0  0  0  0  0  0  0  0  0  0  0  0
   37.5380   34.4151   39.5917 H   0  0  0  0  0  0  0  0  0  0  0  0
   35.9629   33.5775   39.6053 H   0  0  0  0  0  0  0  0  0  0  0  0
   35.4387   29.4141   38.8117 H   0  0  0  0  0  0  0  0  0  0  0  0
   35.5197   27.5835   37.2067 H   0  0  0  0  0  0  0  0  0  0  0  0
   36.3094   25.2999   37.8085 H   0  0  0  0  0  0  0  0  0  0  0  0
   37.1420   23.8631   39.4641 H   0  0  0  0  0  0  0  0  0  0  0  0
   37.8811   23.3806   41.7668 H   0  0  0  0  0  0  0  0  0  0  0  0
   37.8271   25.1994   43.4695 H   0  0  0  0  0  0  0  0  0  0  0  0
   37.0410   27.4495   42.8315 H   0  0  0  0  0  0  0  0  0  0  0  0
  2  7  2  0
  3  2  1  0
  4  5  1  0
  4  3  2  0
  5  6  2  0
  6  1  1  0
  6  7  1  0
  8  4  1  0
  9 18  1  0
  9  1  1  0
 10  9  2  0
 11 12  2  0
 11 10  1  0
 12 13  1  0
 13 14  1  0
 13 18  2  0
 14 15  2  0
 15 16  1  0
 17 16  2  0
 18 17  1  0
  1 19  1  0
  1 20  1  0
  2 21  1  0
  3 22  1  0
  8 23  1  0
  8 24  1  0
 10 25  1  0
 11 26  1  0
 12 27  1  0
 14 28  1  0
 15 29  1  0
 16 30  1  0
 17 31  1  0
M  ISO  8  19   8  20   8  21  14  22  14  25  14  26  14  27  14  28  14
M  ISO  3  29  14  30  14  31  14
M  END
>  <minimizedAffinity>  (1) 
-5.48380423

>  <minimizedRMSD>  (1) 
4.28269243

$$$$
