
     RDKit          3D

 29 31  0  0  0  0  0  0  0  0999 V2000
   35.5440   28.7210   40.9830 C   0  0  0  0  0  0  0  0  0  0  0  0
   38.2410   28.4780   43.5020 C   0  0  0  0  0  0  0  0  0  0  0  0
   38.6080   27.1250   43.4120 C   0  0  0  0  0  0  0  0  0  0  0  0
   37.9210   26.3320   42.4900 C   0  0  0  0  0  0  0  0  0  0  0  0
   36.9550   26.9040   41.7460 N   0  0  0  0  0  0  0  0  0  0  0  0
   36.6300   28.2150   41.8630 C   0  0  0  0  0  0  0  0  0  0  0  0
   37.2830   28.9990   42.7500 N   0  0  0  0  0  0  0  0  0  0  0  0
   38.1490   24.9490   42.2560 N   0  0  0  0  0  0  0  0  0  0  0  0
   36.0920   29.2370   39.6900 C   0  0  0  0  0  0  0  0  0  0  0  0
   36.1680   28.5510   38.4950 C   0  0  0  0  0  0  0  0  0  0  0  0
   36.7330   29.4240   37.6200 N   0  0  0  0  0  0  0  0  0  0  0  0
   36.9980   30.5990   38.2280 C   0  0  0  0  0  0  0  0  0  0  0  0
   37.5580   31.7850   37.7860 C   0  0  0  0  0  0  0  0  0  0  0  0
   37.7150   32.8570   38.6460 C   0  0  0  0  0  0  0  0  0  0  0  0
   37.3230   32.7890   39.9750 C   0  0  0  0  0  0  0  0  0  0  0  0
   36.7580   31.5910   40.4150 C   0  0  0  0  0  0  0  0  0  0  0  0
   36.6060   30.5240   39.5470 C   0  0  0  0  0  0  0  0  0  0  0  0
   34.8409   27.9014   40.7732 H   0  0  0  0  0  0  0  0  0  0  0  0
   35.0334   29.5472   41.4995 H   0  0  0  0  0  0  0  0  0  0  0  0
   38.7659   29.1255   44.2198 H   0  0  0  0  0  0  0  0  0  0  0  0
   39.4056   26.7062   44.0433 H   0  0  0  0  0  0  0  0  0  0  0  0
   37.5894   24.4467   41.5521 H   0  0  0  0  0  0  0  0  0  0  0  0
   38.8738   24.4489   42.7903 H   0  0  0  0  0  0  0  0  0  0  0  0
   35.8416   27.5199   38.2940 H   0  0  0  0  0  0  0  0  0  0  0  0
   36.9313   29.2175   36.6306 H   0  0  0  0  0  0  0  0  0  0  0  0
   37.8820   31.8762   36.7387 H   0  0  0  0  0  0  0  0  0  0  0  0
   38.1622   33.7875   38.2663 H   0  0  0  0  0  0  0  0  0  0  0  0
   37.4522   33.6444   40.6544 H   0  0  0  0  0  0  0  0  0  0  0  0
   36.4307   31.4941   41.4607 H   0  0  0  0  0  0  0  0  0  0  0  0
  1  6  1  0
  3  2  2  0
  4  3  1  0
  5  6  1  0
  5  4  2  0
  6  7  2  0
  7  2  1  0
  8  4  1  0
  9  1  1  0
 10  9  2  0
 11 12  1  0
 11 10  1  0
 12 17  2  0
 13 12  1  0
 13 14  2  0
 14 15  1  0
 15 16  2  0
 17  9  1  0
 17 16  1  0
  1 18  1  0
  1 19  1  0
  2 20  1  0
  3 21  1  0
  8 22  1  0
  8 23  1  0
 10 24  1  0
 11 25  1  0
 13 26  1  0
 14 27  1  0
 15 28  1  0
 16 29  1  0
M  ISO  8  18   8  19   8  20  14  21  14  24  14  25   9  26  14  27  14
M  ISO  2  28  14  29  14
M  END
>  <minimizedAffinity>  (1) 
-4.9459033

>  <minimizedRMSD>  (1) 
1.02358973

$$$$
