
     RDKit          3D

 31 32  0  0  0  0  0  0  0  0999 V2000
   39.3360   27.2250   42.5530 C   0  0  0  0  0  0  0  0  0  0  0  0
   38.4950   27.3560   43.6830 C   0  0  0  0  0  0  0  0  0  0  0  0
   37.5460   28.3880   43.6560 C   0  0  0  0  0  0  0  0  0  0  0  0
   37.4770   29.2000   42.5690 N   0  0  0  0  0  0  0  0  0  0  0  0
   38.3050   29.0320   41.5150 C   0  0  0  0  0  0  0  0  0  0  0  0
   39.2180   28.0610   41.5090 N   0  0  0  0  0  0  0  0  0  0  0  0
   36.6300   28.6580   44.6970 N   0  0  0  0  0  0  0  0  0  0  0  0
   38.1200   29.9890   40.3990 C   0  0  0  0  0  0  0  0  0  0  0  0
   38.2460   31.4290   40.8560 C   0  0  0  0  0  0  0  0  0  0  0  0
   37.1150   32.2010   40.2660 C   0  0  0  0  0  0  0  0  0  0  0  0
   37.4910   33.4610   39.5590 C   0  0  0  0  0  0  0  0  0  0  0  0
   38.5500   34.1460   40.4190 C   0  0  0  0  0  0  0  0  0  0  0  0
   39.7960   33.3360   40.2720 C   0  0  0  0  0  0  0  0  0  0  0  0
   39.6040   31.8710   40.3800 C   0  0  0  0  0  0  0  0  0  0  0  0
   40.0951   26.4293   42.5294 H   0  0  0  0  0  0  0  0  0  0  0  0
   38.5817   26.6781   44.5449 H   0  0  0  0  0  0  0  0  0  0  0  0
   35.9606   29.4354   44.6052 H   0  0  0  0  0  0  0  0  0  0  0  0
   36.6315   28.0774   45.5478 H   0  0  0  0  0  0  0  0  0  0  0  0
   37.1196   29.8404   39.9664 H   0  0  0  0  0  0  0  0  0  0  0  0
   38.9084   29.7992   39.6557 H   0  0  0  0  0  0  0  0  0  0  0  0
   38.1811   31.5777   41.9440 H   0  0  0  0  0  0  0  0  0  0  0  0
   36.6007   31.5491   39.5445 H   0  0  0  0  0  0  0  0  0  0  0  0
   36.4870   32.5092   41.1149 H   0  0  0  0  0  0  0  0  0  0  0  0
   37.9010   33.2301   38.5647 H   0  0  0  0  0  0  0  0  0  0  0  0
   36.6155   34.1114   39.4160 H   0  0  0  0  0  0  0  0  0  0  0  0
   38.7201   35.1742   40.0670 H   0  0  0  0  0  0  0  0  0  0  0  0
   38.2337   34.2064   41.4708 H   0  0  0  0  0  0  0  0  0  0  0  0
   40.5005   33.6471   41.0575 H   0  0  0  0  0  0  0  0  0  0  0  0
   40.1680   33.5242   39.2540 H   0  0  0  0  0  0  0  0  0  0  0  0
   39.7738   31.4327   39.3855 H   0  0  0  0  0  0  0  0  0  0  0  0
   40.3180   31.5282   41.1433 H   0  0  0  0  0  0  0  0  0  0  0  0
  1  2  2  0
  3  2  1  0
  3  7  1  0
  4  3  2  0
  5  4  1  0
  6  5  2  0
  6  1  1  0
  8  9  1  0
  8  5  1  0
 10  9  1  0
 11 10  1  0
 11 12  1  0
 13 14  1  0
 13 12  1  0
 14  9  1  0
  1 15  1  0
  2 16  1  0
  7 17  1  0
  7 18  1  0
  8 19  1  0
  8 20  1  0
  9 21  1  0
 10 22  1  0
 10 23  1  0
 11 24  1  0
 11 25  1  0
 12 26  1  0
 12 27  1  0
 13 28  1  0
 13 29  1  0
 14 30  1  0
 14 31  1  0
M  ISO  8  15  14  16  14  19   8  20   8  21  13  22  13  23  13  24  13
M  ISO  7  25  13  26  13  27  13  28  13  29  13  30  13  31  13
M  END
>  <minimizedAffinity>  (1) 
-4.7213335

>  <minimizedRMSD>  (1) 
2.20056248

$$$$
