
     RDKit          3D

 22 22  0  0  0  0  0  0  0  0999 V2000
   38.2770   28.8260   43.3570 C   0  0  0  0  0  0  0  0  0  0  0  0
   38.1670   27.4130   43.3510 C   0  0  0  0  0  0  0  0  0  0  0  0
   37.2620   26.8330   42.4590 C   0  0  0  0  0  0  0  0  0  0  0  0
   36.5450   27.6440   41.6560 N   0  0  0  0  0  0  0  0  0  0  0  0
   36.6810   28.9910   41.6940 C   0  0  0  0  0  0  0  0  0  0  0  0
   37.5450   29.5750   42.5430 N   0  0  0  0  0  0  0  0  0  0  0  0
   37.0340   25.4390   42.3300 N   0  0  0  0  0  0  0  0  0  0  0  0
   35.8190   29.7610   40.7440 C   0  0  0  0  0  0  0  0  0  0  0  0
   35.9660   31.1850   40.9470 N   0  0  0  0  0  0  0  0  0  0  0  0
   36.9560   31.8700   40.1850 C   0  0  0  0  0  0  0  0  0  0  0  0
   37.9130   31.2750   39.5490 N   0  0  0  0  0  0  0  0  0  0  0  0
   36.9330   33.3060   40.0860 N   0  0  0  0  0  0  0  0  0  0  0  0
   37.9580   30.2350   39.6010 H   0  0  0  0  0  0  0  0  0  0  0  0
   38.9819   29.3101   44.0489 H   0  0  0  0  0  0  0  0  0  0  0  0
   38.7746   26.7932   44.0268 H   0  0  0  0  0  0  0  0  0  0  0  0
   36.3472   25.0906   41.6460 H   0  0  0  0  0  0  0  0  0  0  0  0
   37.5552   24.7751   42.9203 H   0  0  0  0  0  0  0  0  0  0  0  0
   34.7674   29.4815   40.9055 H   0  0  0  0  0  0  0  0  0  0  0  0
   36.1290   29.5202   39.7164 H   0  0  0  0  0  0  0  0  0  0  0  0
   35.3731   31.6888   41.6219 H   0  0  0  0  0  0  0  0  0  0  0  0
   37.6513   33.7957   39.5337 H   0  0  0  0  0  0  0  0  0  0  0  0
   36.1982   33.8437   40.5675 H   0  0  0  0  0  0  0  0  0  0  0  0
  2  1  2  0
  3  2  1  0
  4  5  1  0
  4  3  2  0
  5  6  2  0
  6  1  1  0
  7  3  1  0
  8  9  1  0
  8  5  1  0
 10  9  1  0
 11 13  1  0
 11 10  2  0
 12 10  1  0
  1 14  1  0
  2 15  1  0
  7 16  1  0
  7 17  1  0
  8 18  1  0
  8 19  1  0
  9 20  1  0
 12 21  1  0
 12 22  1  0
M  ISO  4  14  14  15  14  18   8  19   8
M  END
>  <minimizedAffinity>  (1) 
-4.60492611

>  <minimizedRMSD>  (1) 
2.09254336

$$$$
