
     RDKit          3D

 23 24  0  0  0  0  0  0  0  0999 V2000
   38.1930   28.7220   43.4080 C   0  0  0  0  0  0  0  0  0  0  0  0
   38.3240   27.3120   43.3610 C   0  0  0  0  0  0  0  0  0  0  0  0
   37.5330   26.6310   42.4280 C   0  0  0  0  0  0  0  0  0  0  0  0
   36.7040   27.3450   41.6400 N   0  0  0  0  0  0  0  0  0  0  0  0
   36.6080   28.6970   41.7180 C   0  0  0  0  0  0  0  0  0  0  0  0
   37.3590   29.3710   42.6060 N   0  0  0  0  0  0  0  0  0  0  0  0
   37.5220   25.2310   42.2320 N   0  0  0  0  0  0  0  0  0  0  0  0
   35.6550   29.3610   40.7900 C   0  0  0  0  0  0  0  0  0  0  0  0
   36.2950   30.3710   39.9270 C   0  0  0  0  0  0  0  0  0  0  0  0
   36.5900   29.9500   38.6430 C   0  0  0  0  0  0  0  0  0  0  0  0
   37.1980   30.8620   37.7770 C   0  0  0  0  0  0  0  0  0  0  0  0
   37.5030   32.1180   38.1430 N   0  0  0  0  0  0  0  0  0  0  0  0
   37.1970   32.4940   39.4150 C   0  0  0  0  0  0  0  0  0  0  0  0
   36.6020   31.6340   40.2940 N   0  0  0  0  0  0  0  0  0  0  0  0
   38.7981   29.2930   44.1276 H   0  0  0  0  0  0  0  0  0  0  0  0
   39.0160   26.7765   44.0276 H   0  0  0  0  0  0  0  0  0  0  0  0
   36.9050   24.8156   41.5195 H   0  0  0  0  0  0  0  0  0  0  0  0
   38.1310   24.6264   42.8017 H   0  0  0  0  0  0  0  0  0  0  0  0
   35.1976   28.5926   40.1494 H   0  0  0  0  0  0  0  0  0  0  0  0
   34.9077   29.8827   41.4060 H   0  0  0  0  0  0  0  0  0  0  0  0
   36.3529   28.9276   38.3136 H   0  0  0  0  0  0  0  0  0  0  0  0
   37.4369   30.5383   36.7532 H   0  0  0  0  0  0  0  0  0  0  0  0
   37.4349   33.5165   39.7435 H   0  0  0  0  0  0  0  0  0  0  0  0
  2  1  2  0
  3  2  1  0
  4  5  1  0
  4  3  2  0
  5  6  2  0
  6  1  1  0
  7  3  1  0
  8  5  1  0
  9 14  1  0
  9  8  1  0
 10  9  2  0
 11 12  2  0
 11 10  1  0
 12 13  1  0
 13 14  2  0
  1 15  1  0
  2 16  1  0
  7 17  1  0
  7 18  1  0
  8 19  1  0
  8 20  1  0
 10 21  1  0
 11 22  1  0
 13 23  1  0
M  ISO  7  15  14  16  14  19   8  20   8  21  14  22  14  23  14
M  END
>  <minimizedAffinity>  (1) 
-4.27226639

>  <minimizedRMSD>  (1) 
1.32333958

$$$$
