
     RDKit          3D

 20 21  0  0  0  0  0  0  0  0999 V2000
   38.1180   28.9230   43.3030 C   0  0  0  0  0  0  0  0  0  0  0  0
   38.2330   27.5210   43.3090 C   0  0  0  0  0  0  0  0  0  0  0  0
   37.4500   26.7970   42.4030 C   0  0  0  0  0  0  0  0  0  0  0  0
   36.6290   27.4810   41.5720 N   0  0  0  0  0  0  0  0  0  0  0  0
   36.5530   28.8370   41.6040 C   0  0  0  0  0  0  0  0  0  0  0  0
   37.2920   29.5510   42.4620 N   0  0  0  0  0  0  0  0  0  0  0  0
   37.4320   25.3870   42.2650 N   0  0  0  0  0  0  0  0  0  0  0  0
   35.6130   29.4730   40.6400 C   0  0  0  0  0  0  0  0  0  0  0  0
   36.3200   30.4450   39.7450 C   0  0  0  0  0  0  0  0  0  0  0  0
   36.6970   30.2730   38.4650 N   0  0  0  0  0  0  0  0  0  0  0  0
   37.2800   31.3350   38.0260 O   0  0  0  0  0  0  0  0  0  0  0  0
   37.3100   32.2350   38.9810 C   0  0  0  0  0  0  0  0  0  0  0  0
   36.7190   31.7100   40.0620 N   0  0  0  0  0  0  0  0  0  0  0  0
   38.7217   29.5152   44.0065 H   0  0  0  0  0  0  0  0  0  0  0  0
   38.9163   27.0103   44.0034 H   0  0  0  0  0  0  0  0  0  0  0  0
   36.8182   24.9458   41.5654 H   0  0  0  0  0  0  0  0  0  0  0  0
   38.0327   24.8032   42.8643 H   0  0  0  0  0  0  0  0  0  0  0  0
   35.1500   28.6895   40.0221 H   0  0  0  0  0  0  0  0  0  0  0  0
   34.8503   30.0217   41.2120 H   0  0  0  0  0  0  0  0  0  0  0  0
   37.7441   33.2430   38.9065 H   0  0  0  0  0  0  0  0  0  0  0  0
  1  2  2  0
  3  2  1  0
  4  5  1  0
  4  3  2  0
  5  6  2  0
  6  1  1  0
  7  3  1  0
  8  5  1  0
  9 13  1  0
  9  8  1  0
 10  9  2  0
 11 10  1  0
 11 12  1  0
 12 13  2  0
  1 14  1  0
  2 15  1  0
  7 16  1  0
  7 17  1  0
  8 18  1  0
  8 19  1  0
 12 20  1  0
M  ISO  5  14  14  15  14  18   8  19   8  20  14
M  END
>  <minimizedAffinity>  (1) 
-3.90920019

>  <minimizedRMSD>  (1) 
1.0087682

$$$$
