
     RDKit          3D

 21 22  0  0  0  0  0  0  0  0999 V2000
   38.1860   29.0080   43.2450 C   0  0  0  0  0  0  0  0  0  0  0  0
   38.1650   27.6040   43.2890 C   0  0  0  0  0  0  0  0  0  0  0  0
   37.2780   26.9490   42.4050 C   0  0  0  0  0  0  0  0  0  0  0  0
   36.5190   27.7050   41.5870 N   0  0  0  0  0  0  0  0  0  0  0  0
   36.5770   29.0460   41.5840 C   0  0  0  0  0  0  0  0  0  0  0  0
   37.4120   29.6920   42.4140 N   0  0  0  0  0  0  0  0  0  0  0  0
   37.1180   25.5340   42.3080 N   0  0  0  0  0  0  0  0  0  0  0  0
   35.6800   29.7480   40.6260 C   0  0  0  0  0  0  0  0  0  0  0  0
   36.3880   30.6600   39.7560 N   0  0  0  0  0  0  0  0  0  0  0  0
   36.7320   30.2740   38.4920 C   0  0  0  0  0  0  0  0  0  0  0  0
   37.3630   31.3300   37.9630 N   0  0  0  0  0  0  0  0  0  0  0  0
   37.4150   32.3230   38.8350 C   0  0  0  0  0  0  0  0  0  0  0  0
   36.8070   31.8990   39.9480 N   0  0  0  0  0  0  0  0  0  0  0  0
   38.8629   29.5545   43.9182 H   0  0  0  0  0  0  0  0  0  0  0  0
   38.8093   27.0404   43.9798 H   0  0  0  0  0  0  0  0  0  0  0  0
   36.4473   25.1365   41.6349 H   0  0  0  0  0  0  0  0  0  0  0  0
   37.6732   24.9104   42.9111 H   0  0  0  0  0  0  0  0  0  0  0  0
   35.1712   28.9953   40.0058 H   0  0  0  0  0  0  0  0  0  0  0  0
   34.9672   30.3422   41.2166 H   0  0  0  0  0  0  0  0  0  0  0  0
   36.5335   29.3044   38.0118 H   0  0  0  0  0  0  0  0  0  0  0  0
   37.8719   33.3107   38.6750 H   0  0  0  0  0  0  0  0  0  0  0  0
  1  2  2  0
  3  2  1  0
  4  3  2  0
  5  4  1  0
  5  6  2  0
  6  1  1  0
  7  3  1  0
  8  5  1  0
  9 13  1  0
  9  8  1  0
 10  9  1  0
 11 10  2  0
 11 12  1  0
 12 13  2  0
  1 14  1  0
  2 15  1  0
  7 16  1  0
  7 17  1  0
  8 18  1  0
  8 19  1  0
 10 20  1  0
 12 21  1  0
M  ISO  6  14  14  15  14  18   8  19   8  20  14  21  14
M  END
>  <minimizedAffinity>  (1) 
-3.84440088

>  <minimizedRMSD>  (1) 
1.03712869

$$$$
