
     RDKit          3D

 22 23  0  0  0  0  0  0  0  0999 V2000
   38.1910   28.8550   43.3080 C   0  0  0  0  0  0  0  0  0  0  0  0
   38.2340   27.4500   43.2720 C   0  0  0  0  0  0  0  0  0  0  0  0
   37.3870   26.8210   42.3400 C   0  0  0  0  0  0  0  0  0  0  0  0
   36.6020   27.5880   41.5550 N   0  0  0  0  0  0  0  0  0  0  0  0
   36.6010   28.9300   41.6310 C   0  0  0  0  0  0  0  0  0  0  0  0
   37.4010   29.5670   42.5130 N   0  0  0  0  0  0  0  0  0  0  0  0
   37.3000   25.4160   42.1690 N   0  0  0  0  0  0  0  0  0  0  0  0
   35.6860   29.6500   40.7050 C   0  0  0  0  0  0  0  0  0  0  0  0
   36.3850   30.5350   39.8040 N   0  0  0  0  0  0  0  0  0  0  0  0
   36.8490   31.7710   40.0190 C   0  0  0  0  0  0  0  0  0  0  0  0
   37.4500   32.2330   38.8670 C   0  0  0  0  0  0  0  0  0  0  0  0
   37.3610   31.2790   37.9250 N   0  0  0  0  0  0  0  0  0  0  0  0
   36.7050   30.2530   38.5280 C   0  0  0  0  0  0  0  0  0  0  0  0
   38.8373   29.3852   44.0230 H   0  0  0  0  0  0  0  0  0  0  0  0
   38.8941   26.8733   43.9365 H   0  0  0  0  0  0  0  0  0  0  0  0
   36.6578   25.0214   41.4670 H   0  0  0  0  0  0  0  0  0  0  0  0
   37.8790   24.7900   42.7468 H   0  0  0  0  0  0  0  0  0  0  0  0
   35.1327   28.9082   40.1103 H   0  0  0  0  0  0  0  0  0  0  0  0
   35.0119   30.2663   41.3181 H   0  0  0  0  0  0  0  0  0  0  0  0
   36.7647   32.3292   40.9631 H   0  0  0  0  0  0  0  0  0  0  0  0
   37.9232   33.2179   38.7404 H   0  0  0  0  0  0  0  0  0  0  0  0
   36.4636   29.3021   38.0305 H   0  0  0  0  0  0  0  0  0  0  0  0
  2  1  2  0
  3  2  1  0
  4  5  1  0
  4  3  2  0
  5  6  2  0
  6  1  1  0
  7  3  1  0
  8  5  1  0
  9 10  1  0
  9  8  1  0
 11 10  2  0
 12 13  2  0
 12 11  1  0
 13  9  1  0
  1 14  1  0
  2 15  1  0
  7 16  1  0
  7 17  1  0
  8 18  1  0
  8 19  1  0
 10 20  1  0
 11 21  1  0
 13 22  1  0
M  ISO  7  14  14  15  14  18   8  19   8  20  14  21  14  22  14
M  END
>  <minimizedAffinity>  (1) 
-3.80036592

>  <minimizedRMSD>  (1) 
1.10497677

$$$$
