
     RDKit          3D

 41 44  0  0  0  0  0  0  0  0999 V2000
   36.3270   30.2360   39.5910 C   0  0  0  0  0  0  0  0  0  0  0  0
   36.7380   31.5340   39.8270 C   0  0  0  0  0  0  0  0  0  0  0  0
   37.4010   32.1780   38.8020 C   0  0  0  0  0  0  0  0  0  0  0  0
   37.6740   31.6160   37.5780 C   0  0  0  0  0  0  0  0  0  0  0  0
   37.2490   30.3190   37.3780 C   0  0  0  0  0  0  0  0  0  0  0  0
   36.5790   29.6280   38.3770 C   0  0  0  0  0  0  0  0  0  0  0  0
   36.1720   28.2690   38.0760 C   0  0  0  0  0  0  0  0  0  0  0  0
   36.9360   27.1510   38.3640 C   0  0  0  0  0  0  0  0  0  0  0  0
   36.4670   25.8940   38.0420 C   0  0  0  0  0  0  0  0  0  0  0  0
   35.2370   25.7250   37.4310 C   0  0  0  0  0  0  0  0  0  0  0  0
   34.4650   26.8360   37.1390 C   0  0  0  0  0  0  0  0  0  0  0  0
   33.2440   26.6320   36.5320 C   0  0  0  0  0  0  0  0  0  0  0  0
   32.4610   27.7300   36.2340 C   0  0  0  0  0  0  0  0  0  0  0  0
   32.9170   28.9880   36.5490 C   0  0  0  0  0  0  0  0  0  0  0  0
   34.1480   29.1790   37.1620 C   0  0  0  0  0  0  0  0  0  0  0  0
   34.9460   28.0900   37.4680 C   0  0  0  0  0  0  0  0  0  0  0  0
   35.6090   29.4880   40.6520 C   0  0  0  0  0  0  0  0  0  0  0  0
   38.1180   28.9280   43.3380 C   0  0  0  0  0  0  0  0  0  0  0  0
   38.1900   27.5310   43.3750 C   0  0  0  0  0  0  0  0  0  0  0  0
   37.3860   26.8180   42.4900 C   0  0  0  0  0  0  0  0  0  0  0  0
   36.6060   27.5210   41.6700 N   0  0  0  0  0  0  0  0  0  0  0  0
   36.5370   28.8620   41.6340 C   0  0  0  0  0  0  0  0  0  0  0  0
   37.3050   29.5380   42.4810 N   0  0  0  0  0  0  0  0  0  0  0  0
   37.3490   25.4130   42.4110 N   0  0  0  0  0  0  0  0  0  0  0  0
   36.5454   32.0318   40.7888 H   0  0  0  0  0  0  0  0  0  0  0  0
   37.7336   33.2118   38.9768 H   0  0  0  0  0  0  0  0  0  0  0  0
   38.2067   32.1745   36.7942 H   0  0  0  0  0  0  0  0  0  0  0  0
   37.4439   29.8263   36.4140 H   0  0  0  0  0  0  0  0  0  0  0  0
   37.9166   27.2648   38.8494 H   0  0  0  0  0  0  0  0  0  0  0  0
   37.0811   25.0116   38.2749 H   0  0  0  0  0  0  0  0  0  0  0  0
   34.8761   24.7168   37.1796 H   0  0  0  0  0  0  0  0  0  0  0  0
   32.9005   25.6154   36.2900 H   0  0  0  0  0  0  0  0  0  0  0  0
   31.4822   27.5992   35.7494 H   0  0  0  0  0  0  0  0  0  0  0  0
   32.2932   29.8620   36.3103 H   0  0  0  0  0  0  0  0  0  0  0  0
   34.4894   30.1961   37.4046 H   0  0  0  0  0  0  0  0  0  0  0  0
   34.9456   30.1835   41.1870 H   0  0  0  0  0  0  0  0  0  0  0  0
   35.0408   28.6808   40.1666 H   0  0  0  0  0  0  0  0  0  0  0  0
   38.7382   29.5254   44.0225 H   0  0  0  0  0  0  0  0  0  0  0  0
   38.8587   27.0141   44.0790 H   0  0  0  0  0  0  0  0  0  0  0  0
   36.7285   24.9516   41.7305 H   0  0  0  0  0  0  0  0  0  0  0  0
   37.9424   24.8464   43.0337 H   0  0  0  0  0  0  0  0  0  0  0  0
  1  2  2  0
  1 17  1  0
  3  2  1  0
  4  3  2  0
  5  4  1  0
  5  6  2  0
  6  1  1  0
  7  8  2  0
  7  6  1  0
  9  8  1  0
 10  9  2  0
 11 10  1  0
 11 16  2  0
 12 11  1  0
 13 12  2  0
 13 14  1  0
 14 15  2  0
 15 16  1  0
 16  7  1  0
 17 22  1  0
 18 19  2  0
 20 19  1  0
 21 20  2  0
 22 21  1  0
 22 23  2  0
 23 18  1  0
 24 20  1  0
  2 25  1  0
  3 26  1  0
  4 27  1  0
  5 28  1  0
  8 29  1  0
  9 30  1  0
 10 31  1  0
 12 32  1  0
 13 33  1  0
 14 34  1  0
 15 35  1  0
 17 36  1  0
 17 37  1  0
 18 38  1  0
 19 39  1  0
 24 40  1  0
 24 41  1  0
M  ISO  8  25  14  26  14  27  14  28  14  29  14  30  14  31  14  32  14
M  ISO  7  33  14  34  14  35  14  36   8  37   8  38  14  39  14
M  END
>  <minimizedAffinity>  (1) 
-6.17711782

>  <minimizedRMSD>  (1) 
1.54341137

$$$$
