
     RDKit          3D

 45 47  0  0  1  0  0  0  0  0999 V2000
   39.1530   26.2860   42.3590 C   0  0  1  0  0  0  0  0  0  0  0  0
   38.8220   24.9730   41.6130 C   0  0  0  0  0  0  0  0  0  0  0  0
   37.4480   24.5900   42.0710 C   0  0  0  0  0  0  0  0  0  0  0  0
   36.8700   25.9580   42.4210 C   0  0  0  0  0  0  0  0  0  0  0  0
   38.0090   26.4900   43.2670 C   0  0  2  0  0  0  0  0  0  0  0  0
   42.1030   26.8160   44.6650 C   0  0  0  0  0  0  0  0  0  0  0  0
   40.8190   26.9860   44.1390 C   0  0  0  0  0  0  0  0  0  0  0  0
   40.4520   26.2180   43.0110 C   0  0  0  0  0  0  0  0  0  0  0  0
   41.3710   25.3570   42.4990 N   0  0  0  0  0  0  0  0  0  0  0  0
   42.5990   25.2180   43.0280 C   0  0  0  0  0  0  0  0  0  0  0  0
   42.9630   25.9390   44.1000 N   0  0  0  0  0  0  0  0  0  0  0  0
   37.6290   27.9020   43.5760 C   0  0  2  0  0  0  0  0  0  0  0  0
   36.7490   28.1180   44.7500 C   0  0  0  0  0  0  0  0  0  0  0  0
   36.8910   28.4110   42.3600 C   0  0  0  0  0  0  0  0  0  0  0  0
   37.4080   29.7570   42.1200 N   0  0  0  0  0  0  0  0  0  0  0  0
   36.4790   30.3500   41.1880 C   0  0  0  0  0  0  0  0  0  0  0  0
   36.9100   31.6220   40.5850 C   0  0  0  0  0  0  0  0  0  0  0  0
   38.2730   31.7820   40.4340 O   0  0  0  0  0  0  0  0  0  0  0  0
   39.0250   31.3230   41.4800 C   0  0  0  0  0  0  0  0  0  0  0  0
   38.7300   29.8160   41.6020 C   0  0  0  0  0  0  0  0  0  0  0  0
   39.2642   27.1543   41.6929 H   0  0  0  0  0  0  0  0  0  0  0  0
   39.5474   24.1885   41.8746 H   0  0  0  0  0  0  0  0  0  0  0  0
   38.8684   25.1002   40.5214 H   0  0  0  0  0  0  0  0  0  0  0  0
   36.8754   24.1021   41.2685 H   0  0  0  0  0  0  0  0  0  0  0  0
   37.4298   23.8637   42.8969 H   0  0  0  0  0  0  0  0  0  0  0  0
   36.6988   26.5742   41.5260 H   0  0  0  0  0  0  0  0  0  0  0  0
   35.8851   25.9432   42.9107 H   0  0  0  0  0  0  0  0  0  0  0  0
   38.2405   26.0320   44.2399 H   0  0  0  0  0  0  0  0  0  0  0  0
   42.4155   27.3992   45.5438 H   0  0  0  0  0  0  0  0  0  0  0  0
   40.1133   27.6985   44.5910 H   0  0  0  0  0  0  0  0  0  0  0  0
   43.3101   24.5088   42.5794 H   0  0  0  0  0  0  0  0  0  0  0  0
   38.5645   28.4245   43.8247 H   0  0  0  0  0  0  0  0  0  0  0  0
   37.3288   27.9757   45.6739 H   0  0  0  0  0  0  0  0  0  0  0  0
   36.3469   29.1415   44.7234 H   0  0  0  0  0  0  0  0  0  0  0  0
   35.9187   27.3970   44.7234 H   0  0  0  0  0  0  0  0  0  0  0  0
   37.0881   27.7638   41.4926 H   0  0  0  0  0  0  0  0  0  0  0  0
   35.8023   28.4157   42.5175 H   0  0  0  0  0  0  0  0  0  0  0  0
   36.3093   29.6296   40.3742 H   0  0  0  0  0  0  0  0  0  0  0  0
   35.5752   30.5831   41.7701 H   0  0  0  0  0  0  0  0  0  0  0  0
   36.4486   31.6974   39.5893 H   0  0  0  0  0  0  0  0  0  0  0  0
   36.5917   32.4085   41.2851 H   0  0  0  0  0  0  0  0  0  0  0  0
   40.0943   31.4860   41.2798 H   0  0  0  0  0  0  0  0  0  0  0  0
   38.7774   31.8537   42.4112 H   0  0  0  0  0  0  0  0  0  0  0  0
   38.7850   29.3274   40.6180 H   0  0  0  0  0  0  0  0  0  0  0  0
   39.4563   29.2966   42.2444 H   0  0  0  0  0  0  0  0  0  0  0  0
  1  8  1  0
  1  5  1  0
  2  3  1  0
  2  1  1  0
  3  4  1  0
  4  5  1  0
  5 12  1  0
  7  6  2  0
  8  7  1  0
  9  8  2  0
  9 10  1  0
 10 11  2  0
 11  6  1  0
 12 13  1  0
 14 12  1  0
 15 14  1  0
 16 15  1  0
 17 16  1  0
 18 17  1  0
 18 19  1  0
 19 20  1  0
 20 15  1  0
  1 21  1  6
  2 22  1  0
  2 23  1  0
  3 24  1  0
  3 25  1  0
  4 26  1  0
  4 27  1  0
  5 28  1  1
  6 29  1  0
  7 30  1  0
 10 31  1  0
 12 32  1  1
 13 33  1  0
 13 34  1  0
 13 35  1  0
 14 36  1  0
 14 37  1  0
 16 38  1  0
 16 39  1  0
 17 40  1  0
 17 41  1  0
 19 42  1  0
 19 43  1  0
 20 44  1  0
 20 45  1  0
M  ISO  8  21  13  22  13  23  13  24  13  25  13  26  13  27  13  28  13
M  ISO  8  29  14  30  14  31  14  32   8  33   8  34   8  35   8  36   8
M  ISO  8  37   8  38  13  39  13  40  13  41  13  42  13  43  13  44  13
M  ISO  1  45  13
M  END
>  <minimizedAffinity>  (1) 
-5.39297152

>  <minimizedRMSD>  (1) 
1.31820703

$$$$
