
     RDKit          3D

 38 40  0  0  0  0  0  0  0  0999 V2000
   36.2230   30.1040   39.4720 C   0  0  0  0  0  0  0  0  0  0  0  0
   36.8580   31.3080   39.6610 C   0  0  0  0  0  0  0  0  0  0  0  0
   37.4910   31.8830   38.5760 C   0  0  0  0  0  0  0  0  0  0  0  0
   37.5110   31.2980   37.3130 C   0  0  0  0  0  0  0  0  0  0  0  0
   36.8610   30.0770   37.1470 C   0  0  0  0  0  0  0  0  0  0  0  0
   36.2270   29.4980   38.2290 C   0  0  0  0  0  0  0  0  0  0  0  0
   35.5900   28.2510   37.9610 N   0  0  0  0  0  0  0  0  0  0  0  0
   36.2820   27.0830   38.0880 C   0  0  0  0  0  0  0  0  0  0  0  0
   35.7150   25.8520   37.8410 C   0  0  0  0  0  0  0  0  0  0  0  0
   36.5130   24.6050   37.9920 C   0  0  0  0  0  0  0  0  0  0  0  0
   34.3940   25.8650   37.4550 C   0  0  0  0  0  0  0  0  0  0  0  0
   33.8540   24.7440   37.2240 O   0  0  0  0  0  0  0  0  0  0  0  0
   33.7250   27.0210   37.3350 N   0  0  0  0  0  0  0  0  0  0  0  0
   34.2950   28.2080   37.5790 C   0  0  0  0  0  0  0  0  0  0  0  0
   33.6270   29.2780   37.4540 O   0  0  0  0  0  0  0  0  0  0  0  0
   35.5230   29.4310   40.5980 C   0  0  0  0  0  0  0  0  0  0  0  0
   38.0080   28.9080   43.2920 C   0  0  0  0  0  0  0  0  0  0  0  0
   38.1640   27.5250   43.3140 C   0  0  0  0  0  0  0  0  0  0  0  0
   37.3950   26.8030   42.3850 C   0  0  0  0  0  0  0  0  0  0  0  0
   36.5850   27.4730   41.5610 N   0  0  0  0  0  0  0  0  0  0  0  0
   36.4630   28.8280   41.5730 C   0  0  0  0  0  0  0  0  0  0  0  0
   37.1890   29.5090   42.4520 N   0  0  0  0  0  0  0  0  0  0  0  0
   37.4190   25.3890   42.2560 N   0  0  0  0  0  0  0  0  0  0  0  0
   36.8621   31.7986   40.6455 H   0  0  0  0  0  0  0  0  0  0  0  0
   38.0024   32.8467   38.7165 H   0  0  0  0  0  0  0  0  0  0  0  0
   38.0247   31.7853   36.4712 H   0  0  0  0  0  0  0  0  0  0  0  0
   36.8528   29.5799   36.1658 H   0  0  0  0  0  0  0  0  0  0  0  0
   37.3359   27.1254   38.4004 H   0  0  0  0  0  0  0  0  0  0  0  0
   36.6529   24.3864   39.0609 H   0  0  0  0  0  0  0  0  0  0  0  0
   35.9815   23.7693   37.5133 H   0  0  0  0  0  0  0  0  0  0  0  0
   37.4945   24.7375   37.5133 H   0  0  0  0  0  0  0  0  0  0  0  0
   32.7371   26.9950   37.0447 H   0  0  0  0  0  0  0  0  0  0  0  0
   34.9011   30.1729   41.1203 H   0  0  0  0  0  0  0  0  0  0  0  0
   34.9144   28.6184   40.1747 H   0  0  0  0  0  0  0  0  0  0  0  0
   38.5874   29.5198   43.9991 H   0  0  0  0  0  0  0  0  0  0  0  0
   38.8483   27.0268   44.0165 H   0  0  0  0  0  0  0  0  0  0  0  0
   36.8273   24.9260   41.5514 H   0  0  0  0  0  0  0  0  0  0  0  0
   38.0281   24.8264   42.8670 H   0  0  0  0  0  0  0  0  0  0  0  0
  1  2  2  0
  1 16  1  0
  3  2  1  0
  4  3  2  0
  5  4  1  0
  5  6  2  0
  6  1  1  0
  7  8  1  0
  7  6  1  0
  9 10  1  0
  9  8  2  0
 11  9  1  0
 12 11  2  0
 13 11  1  0
 13 14  1  0
 14  7  1  0
 15 14  2  0
 16 21  1  0
 17 18  2  0
 19 18  1  0
 20 21  1  0
 20 19  2  0
 21 22  2  0
 22 17  1  0
 23 19  1  0
  2 24  1  0
  3 25  1  0
  4 26  1  0
  5 27  1  0
  8 28  1  0
 10 29  1  0
 10 30  1  0
 10 31  1  0
 13 32  1  0
 16 33  1  0
 16 34  1  0
 17 35  1  0
 18 36  1  0
 23 37  1  0
 23 38  1  0
M  ISO  8  24  14  25  14  26  14  27  14  28  14  29   8  30   8  31   8
M  ISO  5  32   9  33   8  34   8  35  14  36  14
M  END
>  <minimizedAffinity>  (1) 
-5.63979578

>  <minimizedRMSD>  (1) 
0.645539045

$$$$
