
     RDKit          3D

 38 40  0  0  0  0  0  0  0  0999 V2000
   36.4370   30.5950   39.7420 C   0  0  0  0  0  0  0  0  0  0  0  0
   37.0940   31.7960   39.9530 C   0  0  0  0  0  0  0  0  0  0  0  0
   37.7330   32.3920   38.8840 C   0  0  0  0  0  0  0  0  0  0  0  0
   37.7530   31.8540   37.6160 C   0  0  0  0  0  0  0  0  0  0  0  0
   37.0920   30.6590   37.4350 C   0  0  0  0  0  0  0  0  0  0  0  0
   36.4290   30.0170   38.4900 C   0  0  0  0  0  0  0  0  0  0  0  0
   34.1110   26.6750   37.1590 C   0  0  0  0  0  0  0  0  0  0  0  0
   33.6900   27.9820   37.0650 C   0  0  0  0  0  0  0  0  0  0  0  0
   34.5060   29.0000   37.5140 C   0  0  0  0  0  0  0  0  0  0  0  0
   35.7720   28.7870   38.0760 C   0  0  0  0  0  0  0  0  0  0  0  0
   36.1670   27.4710   38.1600 C   0  0  0  0  0  0  0  0  0  0  0  0
   35.3530   26.4570   37.7110 C   0  0  0  0  0  0  0  0  0  0  0  0
   33.1730   25.2980   36.6270 S   0  0  0  0  0  0  0  0  0  0  0  0
   33.2370   24.2170   37.6380 O   0  0  0  0  0  0  0  0  0  0  0  0
   33.7000   24.8780   35.2850 O   0  0  0  0  0  0  0  0  0  0  0  0
   35.7670   29.9340   40.8700 C   0  0  0  0  0  0  0  0  0  0  0  0
   38.4590   28.9040   43.2040 C   0  0  0  0  0  0  0  0  0  0  0  0
   38.3280   27.4990   43.2170 C   0  0  0  0  0  0  0  0  0  0  0  0
   37.3170   26.9600   42.4200 C   0  0  0  0  0  0  0  0  0  0  0  0
   36.5420   27.7750   41.7020 N   0  0  0  0  0  0  0  0  0  0  0  0
   36.7020   29.1240   41.7180 C   0  0  0  0  0  0  0  0  0  0  0  0
   37.6610   29.6660   42.4710 N   0  0  0  0  0  0  0  0  0  0  0  0
   37.0390   25.5660   42.3110 N   0  0  0  0  0  0  0  0  0  0  0  0
   37.1064   32.2638   40.9485 H   0  0  0  0  0  0  0  0  0  0  0  0
   38.2533   33.3462   39.0537 H   0  0  0  0  0  0  0  0  0  0  0  0
   38.2728   32.3555   36.7863 H   0  0  0  0  0  0  0  0  0  0  0  0
   37.0843   30.1967   36.4369 H   0  0  0  0  0  0  0  0  0  0  0  0
   32.7054   28.2144   36.6330 H   0  0  0  0  0  0  0  0  0  0  0  0
   34.1432   30.0347   37.4261 H   0  0  0  0  0  0  0  0  0  0  0  0
   37.1483   27.2265   38.5927 H   0  0  0  0  0  0  0  0  0  0  0  0
   35.7123   25.4209   37.7973 H   0  0  0  0  0  0  0  0  0  0  0  0
   31.8467   25.6145   36.4945 H   0  0  0  0  0  0  0  0  0  0  0  0
   35.3014   30.7053   41.5012 H   0  0  0  0  0  0  0  0  0  0  0  0
   35.0232   29.2414   40.4491 H   0  0  0  0  0  0  0  0  0  0  0  0
   39.2411   29.3769   43.8161 H   0  0  0  0  0  0  0  0  0  0  0  0
   38.9883   26.8618   43.8237 H   0  0  0  0  0  0  0  0  0  0  0  0
   36.2754   25.2392   41.7019 H   0  0  0  0  0  0  0  0  0  0  0  0
   37.6018   24.8856   42.8413 H   0  0  0  0  0  0  0  0  0  0  0  0
  1  2  2  0
  1 16  1  0
  3  2  1  0
  4  3  2  0
  5  4  1  0
  5  6  2  0
  6  1  1  0
  7 12  2  0
  8  7  1  0
  8  9  2  0
  9 10  1  0
 10 11  2  0
 10  6  1  0
 12 11  1  0
 13  7  1  0
 13 14  2  0
 15 13  2  0
 16 21  1  0
 17 18  2  0
 19 18  1  0
 20 21  1  0
 20 19  2  0
 21 22  2  0
 22 17  1  0
 23 19  1  0
  2 24  1  0
  3 25  1  0
  4 26  1  0
  5 27  1  0
  8 28  1  0
  9 29  1  0
 11 30  1  0
 12 31  1  0
 13 32  1  0
 16 33  1  0
 16 34  1  0
 17 35  1  0
 18 36  1  0
 23 37  1  0
 23 38  1  0
M  ISO  8  24  14  25  14  26  14  27  14  28  14  29  14  30  14  31  14
M  ISO  5  32  11  33   8  34   8  35  14  36  14
M  END
>  <minimizedAffinity>  (1) 
-5.62719917

>  <minimizedRMSD>  (1) 
0.586166084

$$$$
