
     RDKit          3D

 35 37  0  0  0  0  0  0  0  0999 V2000
   36.2200   30.0910   39.4590 C   0  0  0  0  0  0  0  0  0  0  0  0
   36.8640   31.2870   39.6680 C   0  0  0  0  0  0  0  0  0  0  0  0
   37.5010   31.8770   38.5940 C   0  0  0  0  0  0  0  0  0  0  0  0
   37.5240   31.3300   37.3190 C   0  0  0  0  0  0  0  0  0  0  0  0
   36.8640   30.1260   37.1470 C   0  0  0  0  0  0  0  0  0  0  0  0
   36.2180   29.5090   38.2010 C   0  0  0  0  0  0  0  0  0  0  0  0
   35.5700   28.2720   37.9130 N   0  0  0  0  0  0  0  0  0  0  0  0
   36.2980   27.1190   37.9980 C   0  0  0  0  0  0  0  0  0  0  0  0
   35.7030   25.8830   37.7240 C   0  0  0  0  0  0  0  0  0  0  0  0
   34.3600   25.8110   37.3620 C   0  0  0  0  0  0  0  0  0  0  0  0
   33.7810   24.7130   37.1050 O   0  0  0  0  0  0  0  0  0  0  0  0
   33.6940   26.9770   37.2950 N   0  0  0  0  0  0  0  0  0  0  0  0
   34.2570   28.1710   37.5570 C   0  0  0  0  0  0  0  0  0  0  0  0
   33.6630   29.2750   37.5030 O   0  0  0  0  0  0  0  0  0  0  0  0
   35.5160   29.4050   40.5750 C   0  0  0  0  0  0  0  0  0  0  0  0
   38.0000   28.9200   43.2930 C   0  0  0  0  0  0  0  0  0  0  0  0
   38.1550   27.5300   43.2980 C   0  0  0  0  0  0  0  0  0  0  0  0
   37.4070   26.8070   42.3720 C   0  0  0  0  0  0  0  0  0  0  0  0
   36.5910   27.4630   41.5400 N   0  0  0  0  0  0  0  0  0  0  0  0
   36.4630   28.8050   41.5600 C   0  0  0  0  0  0  0  0  0  0  0  0
   37.1720   29.5080   42.4380 N   0  0  0  0  0  0  0  0  0  0  0  0
   37.4510   25.3920   42.2480 N   0  0  0  0  0  0  0  0  0  0  0  0
   36.8718   31.7602   40.6610 H   0  0  0  0  0  0  0  0  0  0  0  0
   38.0188   32.8335   38.7584 H   0  0  0  0  0  0  0  0  0  0  0  0
   38.0413   31.8288   36.4862 H   0  0  0  0  0  0  0  0  0  0  0  0
   36.8535   29.6521   36.1544 H   0  0  0  0  0  0  0  0  0  0  0  0
   37.3593   27.1629   38.2839 H   0  0  0  0  0  0  0  0  0  0  0  0
   36.2998   24.9617   37.7949 H   0  0  0  0  0  0  0  0  0  0  0  0
   32.6992   26.9553   37.0288 H   0  0  0  0  0  0  0  0  0  0  0  0
   34.8812   30.1371   41.0957 H   0  0  0  0  0  0  0  0  0  0  0  0
   34.9180   28.5887   40.1437 H   0  0  0  0  0  0  0  0  0  0  0  0
   38.5708   29.5332   44.0059 H   0  0  0  0  0  0  0  0  0  0  0  0
   38.8370   27.0303   44.0017 H   0  0  0  0  0  0  0  0  0  0  0  0
   36.8709   24.9187   41.5406 H   0  0  0  0  0  0  0  0  0  0  0  0
   38.0630   24.8397   42.8655 H   0  0  0  0  0  0  0  0  0  0  0  0
  1  2  2  0
  1 15  1  0
  3  2  1  0
  4  3  2  0
  5  4  1  0
  5  6  2  0
  6  1  1  0
  7  8  1  0
  7  6  1  0
  9  8  2  0
 10  9  1  0
 11 10  2  0
 12 10  1  0
 12 13  1  0
 13  7  1  0
 14 13  2  0
 15 20  1  0
 16 17  2  0
 18 17  1  0
 19 20  1  0
 19 18  2  0
 20 21  2  0
 21 16  1  0
 22 18  1  0
  2 23  1  0
  3 24  1  0
  4 25  1  0
  5 26  1  0
  8 27  1  0
  9 28  1  0
 12 29  1  0
 15 30  1  0
 15 31  1  0
 16 32  1  0
 17 33  1  0
 22 34  1  0
 22 35  1  0
M  ISO  8  23  14  24  14  25  14  26  14  27  14  28  14  29   9  30   8
M  ISO  3  31   8  32  14  33  14
M  END
>  <minimizedAffinity>  (1) 
-5.52999973

>  <minimizedRMSD>  (1) 
1.17358959

$$$$
