
     RDKit          3D

 37 38  0  0  0  0  0  0  0  0999 V2000
   35.6240   29.3360   40.7940 C   0  0  0  0  0  0  0  0  0  0  0  0
   38.1150   28.5600   43.4480 C   0  0  0  0  0  0  0  0  0  0  0  0
   38.2080   27.1690   43.3820 C   0  0  0  0  0  0  0  0  0  0  0  0
   37.4030   26.5500   42.4360 C   0  0  0  0  0  0  0  0  0  0  0  0
   36.6400   27.3320   41.7010 N   0  0  0  0  0  0  0  0  0  0  0  0
   36.5460   28.6600   41.7560 C   0  0  0  0  0  0  0  0  0  0  0  0
   37.3120   29.2630   42.6600 N   0  0  0  0  0  0  0  0  0  0  0  0
   37.3490   25.1420   42.1970 N   0  0  0  0  0  0  0  0  0  0  0  0
   36.2970   30.4140   40.0300 C   0  0  0  0  0  0  0  0  0  0  0  0
   36.7410   31.5640   40.6640 C   0  0  0  0  0  0  0  0  0  0  0  0
   37.3570   32.5380   39.9310 C   0  0  0  0  0  0  0  0  0  0  0  0
   37.5550   32.4200   38.5860 C   0  0  0  0  0  0  0  0  0  0  0  0
   37.1010   31.2670   37.9860 C   0  0  0  0  0  0  0  0  0  0  0  0
   36.4690   30.2400   38.6570 C   0  0  0  0  0  0  0  0  0  0  0  0
   36.0810   29.1020   37.7790 C   0  0  0  0  0  0  0  0  0  0  0  0
   34.5580   28.8160   37.9140 C   0  0  0  0  0  0  0  0  0  0  0  0
   36.1550   29.4380   36.2970 C   0  0  0  0  0  0  0  0  0  0  0  0
   36.7420   27.8050   38.1230 C   0  0  0  0  0  0  0  0  0  0  0  0
   35.2411   28.5867   40.0855 H   0  0  0  0  0  0  0  0  0  0  0  0
   34.8097   29.7940   41.3747 H   0  0  0  0  0  0  0  0  0  0  0  0
   38.7330   29.0955   44.1837 H   0  0  0  0  0  0  0  0  0  0  0  0
   38.8790   26.5976   44.0402 H   0  0  0  0  0  0  0  0  0  0  0  0
   36.7207   24.7663   41.4724 H   0  0  0  0  0  0  0  0  0  0  0  0
   37.9384   24.5029   42.7493 H   0  0  0  0  0  0  0  0  0  0  0  0
   36.5985   31.6909   41.7473 H   0  0  0  0  0  0  0  0  0  0  0  0
   37.7051   33.4479   40.4419 H   0  0  0  0  0  0  0  0  0  0  0  0
   38.0549   33.2106   38.0072 H   0  0  0  0  0  0  0  0  0  0  0  0
   37.2518   31.1574   36.9019 H   0  0  0  0  0  0  0  0  0  0  0  0
   34.2875   28.7652   38.9790 H   0  0  0  0  0  0  0  0  0  0  0  0
   33.9890   29.6230   37.4292 H   0  0  0  0  0  0  0  0  0  0  0  0
   34.3205   27.8576   37.4292 H   0  0  0  0  0  0  0  0  0  0  0  0
   36.3901   30.5056   36.1744 H   0  0  0  0  0  0  0  0  0  0  0  0
   36.9413   28.8325   35.8226 H   0  0  0  0  0  0  0  0  0  0  0  0
   35.1871   29.2189   35.8226 H   0  0  0  0  0  0  0  0  0  0  0  0
   36.7957   27.6996   39.2166 H   0  0  0  0  0  0  0  0  0  0  0  0
   36.1580   26.9730   37.7027 H   0  0  0  0  0  0  0  0  0  0  0  0
   37.7584   27.7886   37.7027 H   0  0  0  0  0  0  0  0  0  0  0  0
  1  6  1  0
  3  2  2  0
  4  3  1  0
  5  6  1  0
  5  4  2  0
  6  7  2  0
  7  2  1  0
  8  4  1  0
  9 10  2  0
  9  1  1  0
 11 10  1  0
 12 11  2  0
 13 12  1  0
 13 14  2  0
 14  9  1  0
 15 16  1  0
 15 18  1  0
 15 14  1  0
 17 15  1  0
  1 19  1  0
  1 20  1  0
  2 21  1  0
  3 22  1  0
  8 23  1  0
  8 24  1  0
 10 25  1  0
 11 26  1  0
 12 27  1  0
 13 28  1  0
 16 29  1  0
 16 30  1  0
 16 31  1  0
 17 32  1  0
 17 33  1  0
 17 34  1  0
 18 35  1  0
 18 36  1  0
 18 37  1  0
M  ISO  8  19   8  20   8  21  14  22  14  25  14  26  14  27  14  28  14
M  ISO  8  29   8  30   8  31   8  32   8  33   8  34   8  35   8  36   8
M  ISO  1  37   8
M  END
>  <minimizedAffinity>  (1) 
-5.38815641

>  <minimizedRMSD>  (1) 
0.923248827

$$$$
