
     RDKit          3D

 33 35  0  0  0  0  0  0  0  0999 V2000
   36.3130   30.3930   39.5620 C   0  0  0  0  0  0  0  0  0  0  0  0
   36.9250   31.6330   39.7480 C   0  0  0  0  0  0  0  0  0  0  0  0
   37.5960   32.2270   38.7100 C   0  0  0  0  0  0  0  0  0  0  0  0
   37.6870   31.6280   37.4700 C   0  0  0  0  0  0  0  0  0  0  0  0
   37.0790   30.4070   37.3060 C   0  0  0  0  0  0  0  0  0  0  0  0
   36.3890   29.7750   38.3360 C   0  0  0  0  0  0  0  0  0  0  0  0
   35.7870   28.4960   38.0130 C   0  0  0  0  0  0  0  0  0  0  0  0
   34.5440   28.4020   37.4390 C   0  0  0  0  0  0  0  0  0  0  0  0
   33.9050   27.2430   37.0990 C   0  0  0  0  0  0  0  0  0  0  0  0
   34.5120   26.0700   37.3290 N   0  0  0  0  0  0  0  0  0  0  0  0
   35.7300   26.1100   37.8890 C   0  0  0  0  0  0  0  0  0  0  0  0
   36.2860   27.2780   38.1920 N   0  0  0  0  0  0  0  0  0  0  0  0
   35.6120   29.7710   40.7000 C   0  0  0  0  0  0  0  0  0  0  0  0
   38.1820   28.9690   43.2520 C   0  0  0  0  0  0  0  0  0  0  0  0
   38.1750   27.5780   43.2790 C   0  0  0  0  0  0  0  0  0  0  0  0
   37.2860   26.9480   42.4160 C   0  0  0  0  0  0  0  0  0  0  0  0
   36.5190   27.7090   41.6400 N   0  0  0  0  0  0  0  0  0  0  0  0
   36.5320   29.0480   41.6200 C   0  0  0  0  0  0  0  0  0  0  0  0
   37.3810   29.6600   42.4450 N   0  0  0  0  0  0  0  0  0  0  0  0
   37.1280   25.5340   42.3060 N   0  0  0  0  0  0  0  0  0  0  0  0
   36.8693   32.1335   40.7260 H   0  0  0  0  0  0  0  0  0  0  0  0
   38.0735   33.2050   38.8696 H   0  0  0  0  0  0  0  0  0  0  0  0
   38.2271   32.1110   36.6424 H   0  0  0  0  0  0  0  0  0  0  0  0
   37.1398   29.9114   36.3258 H   0  0  0  0  0  0  0  0  0  0  0  0
   34.0146   29.3442   37.2342 H   0  0  0  0  0  0  0  0  0  0  0  0
   32.9048   27.2721   36.6422 H   0  0  0  0  0  0  0  0  0  0  0  0
   36.2695   25.1744   38.0977 H   0  0  0  0  0  0  0  0  0  0  0  0
   35.0954   30.5590   41.2676 H   0  0  0  0  0  0  0  0  0  0  0  0
   34.9064   29.0331   40.2905 H   0  0  0  0  0  0  0  0  0  0  0  0
   38.8693   29.5129   43.9167 H   0  0  0  0  0  0  0  0  0  0  0  0
   38.8371   27.0077   43.9471 H   0  0  0  0  0  0  0  0  0  0  0  0
   36.4460   25.1422   41.6409 H   0  0  0  0  0  0  0  0  0  0  0  0
   37.6959   24.9052   42.8917 H   0  0  0  0  0  0  0  0  0  0  0  0
  1  2  2  0
  1 13  1  0
  3  2  1  0
  4  3  2  0
  5  4  1  0
  5  6  2  0
  6  1  1  0
  7 12  1  0
  7  6  1  0
  8  7  2  0
  9 10  2  0
  9  8  1  0
 10 11  1  0
 11 12  2  0
 13 18  1  0
 14 15  2  0
 16 15  1  0
 17 16  2  0
 18 17  1  0
 18 19  2  0
 19 14  1  0
 20 16  1  0
  2 21  1  0
  3 22  1  0
  4 23  1  0
  5 24  1  0
  8 25  1  0
  9 26  1  0
 11 27  1  0
 13 28  1  0
 13 29  1  0
 14 30  1  0
 15 31  1  0
 20 32  1  0
 20 33  1  0
M  ISO  8  21  14  22  14  23  14  24  14  25  14  26  14  27  14  28   8
M  ISO  3  29   8  30  14  31  14
M  END
>  <minimizedAffinity>  (1) 
-5.37002039

>  <minimizedRMSD>  (1) 
0.331184357

$$$$
