
     RDKit          3D

 32 34  0  0  0  0  0  0  0  0999 V2000
   36.3330   30.4150   39.5870 C   0  0  0  0  0  0  0  0  0  0  0  0
   36.9250   31.6590   39.7800 C   0  0  0  0  0  0  0  0  0  0  0  0
   37.5880   32.2410   38.7210 C   0  0  0  0  0  0  0  0  0  0  0  0
   37.7010   31.6670   37.4810 C   0  0  0  0  0  0  0  0  0  0  0  0
   37.1060   30.4360   37.3140 C   0  0  0  0  0  0  0  0  0  0  0  0
   36.4150   29.7950   38.3620 C   0  0  0  0  0  0  0  0  0  0  0  0
   35.8180   28.5020   38.0340 C   0  0  0  0  0  0  0  0  0  0  0  0
   34.6120   28.3010   37.4120 C   0  0  0  0  0  0  0  0  0  0  0  0
   34.3520   26.9650   37.2550 C   0  0  0  0  0  0  0  0  0  0  0  0
   35.4550   26.3620   37.8100 C   0  0  0  0  0  0  0  0  0  0  0  0
   36.2400   27.2840   38.2290 O   0  0  0  0  0  0  0  0  0  0  0  0
   35.6170   29.7610   40.6960 C   0  0  0  0  0  0  0  0  0  0  0  0
   38.1870   28.9790   43.2480 C   0  0  0  0  0  0  0  0  0  0  0  0
   38.1670   27.5670   43.2660 C   0  0  0  0  0  0  0  0  0  0  0  0
   37.2760   26.9310   42.4070 C   0  0  0  0  0  0  0  0  0  0  0  0
   36.5180   27.7140   41.6400 N   0  0  0  0  0  0  0  0  0  0  0  0
   36.5420   29.0530   41.6300 C   0  0  0  0  0  0  0  0  0  0  0  0
   37.3940   29.6630   42.4520 N   0  0  0  0  0  0  0  0  0  0  0  0
   37.1260   25.5320   42.2980 N   0  0  0  0  0  0  0  0  0  0  0  0
   36.8654   32.1660   40.7544 H   0  0  0  0  0  0  0  0  0  0  0  0
   38.0542   33.2245   38.8802 H   0  0  0  0  0  0  0  0  0  0  0  0
   38.2396   32.1644   36.6610 H   0  0  0  0  0  0  0  0  0  0  0  0
   37.1720   29.9390   36.3349 H   0  0  0  0  0  0  0  0  0  0  0  0
   33.9408   29.1077   37.0821 H   0  0  0  0  0  0  0  0  0  0  0  0
   33.4727   26.4898   36.7956 H   0  0  0  0  0  0  0  0  0  0  0  0
   35.6327   25.2788   37.8819 H   0  0  0  0  0  0  0  0  0  0  0  0
   35.0633   30.5264   41.2595 H   0  0  0  0  0  0  0  0  0  0  0  0
   34.9388   29.0114   40.2624 H   0  0  0  0  0  0  0  0  0  0  0  0
   38.8790   29.5172   43.9124 H   0  0  0  0  0  0  0  0  0  0  0  0
   38.8287   26.9935   43.9318 H   0  0  0  0  0  0  0  0  0  0  0  0
   36.4424   25.1373   41.6363 H   0  0  0  0  0  0  0  0  0  0  0  0
   37.7002   24.9056   42.8801 H   0  0  0  0  0  0  0  0  0  0  0  0
  1  2  2  0
  1 12  1  0
  3  2  1  0
  4  3  2  0
  5  4  1  0
  5  6  2  0
  6  1  1  0
  7 11  1  0
  7  6  1  0
  8  7  2  0
  9  8  1  0
  9 10  2  0
 10 11  1  0
 12 17  1  0
 13 14  2  0
 15 14  1  0
 16 15  2  0
 17 16  1  0
 17 18  2  0
 18 13  1  0
 19 15  1  0
  2 20  1  0
  3 21  1  0
  4 22  1  0
  5 23  1  0
  8 24  1  0
  9 25  1  0
 10 26  1  0
 12 27  1  0
 12 28  1  0
 13 29  1  0
 14 30  1  0
 19 31  1  0
 19 32  1  0
M  ISO  8  20  14  21  14  22  14  23  14  24  14  25  14  26  14  27   8
M  ISO  3  28   8  29  14  30  14
M  END
>  <minimizedAffinity>  (1) 
-5.25661039

>  <minimizedRMSD>  (1) 
0.196196228

$$$$
