
     RDKit          3D

 46 48  0  0  1  0  0  0  0  0999 V2000
   39.1740   26.1380   42.3190 C   0  0  1  0  0  0  0  0  0  0  0  0
   38.8750   24.7700   41.6600 C   0  0  0  0  0  0  0  0  0  0  0  0
   37.4890   24.4200   42.0560 C   0  0  0  0  0  0  0  0  0  0  0  0
   36.8950   25.8000   42.3070 C   0  0  0  0  0  0  0  0  0  0  0  0
   38.0030   26.3890   43.1700 C   0  0  2  0  0  0  0  0  0  0  0  0
   42.0470   26.8480   44.6670 C   0  0  0  0  0  0  0  0  0  0  0  0
   40.7580   26.9550   44.1210 C   0  0  0  0  0  0  0  0  0  0  0  0
   40.4620   26.1420   43.0030 C   0  0  0  0  0  0  0  0  0  0  0  0
   41.4140   25.2980   42.5040 N   0  0  0  0  0  0  0  0  0  0  0  0
   42.6440   25.2300   43.0690 C   0  0  0  0  0  0  0  0  0  0  0  0
   42.9440   26.0090   44.1460 N   0  0  0  0  0  0  0  0  0  0  0  0
   37.6140   27.8110   43.3720 C   0  0  2  0  0  0  0  0  0  0  0  0
   36.7740   28.0590   44.6040 C   0  0  0  0  0  0  0  0  0  0  0  0
   36.7700   28.1950   42.1940 C   0  0  0  0  0  0  0  0  0  0  0  0
   37.0330   29.6380   42.0080 N   0  0  0  0  0  0  0  0  0  0  0  0
   36.2100   30.1650   40.9270 C   0  0  0  0  0  0  0  0  0  0  0  0
   36.6930   31.5380   40.5810 C   0  0  0  0  0  0  0  0  0  0  0  0
   38.0100   31.5190   39.9720 N   0  0  0  0  0  0  0  0  0  0  0  0
   38.5980   30.2180   40.1890 C   0  0  0  0  0  0  0  0  0  0  0  0
   38.4490   29.7690   41.6510 C   0  0  0  0  0  0  0  0  0  0  0  0
   39.2979   26.9601   41.5987 H   0  0  0  0  0  0  0  0  0  0  0  0
   39.5804   24.0082   42.0236 H   0  0  0  0  0  0  0  0  0  0  0  0
   38.9818   24.8176   40.5662 H   0  0  0  0  0  0  0  0  0  0  0  0
   36.9595   23.8942   41.2478 H   0  0  0  0  0  0  0  0  0  0  0  0
   37.4242   23.7375   42.9163 H   0  0  0  0  0  0  0  0  0  0  0  0
   36.7566   26.3646   41.3731 H   0  0  0  0  0  0  0  0  0  0  0  0
   35.8922   25.8061   42.7591 H   0  0  0  0  0  0  0  0  0  0  0  0
   38.1945   25.9919   44.1778 H   0  0  0  0  0  0  0  0  0  0  0  0
   42.3210   27.4642   45.5360 H   0  0  0  0  0  0  0  0  0  0  0  0
   40.0106   27.6418   44.5449 H   0  0  0  0  0  0  0  0  0  0  0  0
   43.4006   24.5455   42.6579 H   0  0  0  0  0  0  0  0  0  0  0  0
   38.5418   28.3905   43.4873 H   0  0  0  0  0  0  0  0  0  0  0  0
   37.3809   27.8798   45.5037 H   0  0  0  0  0  0  0  0  0  0  0  0
   36.4192   29.1002   44.6024 H   0  0  0  0  0  0  0  0  0  0  0  0
   35.9106   27.3774   44.6024 H   0  0  0  0  0  0  0  0  0  0  0  0
   37.0674   27.6268   41.3003 H   0  0  0  0  0  0  0  0  0  0  0  0
   35.7032   27.9806   42.3548 H   0  0  0  0  0  0  0  0  0  0  0  0
   36.2925   29.5109   40.0465 H   0  0  0  0  0  0  0  0  0  0  0  0
   35.1575   30.2071   41.2440 H   0  0  0  0  0  0  0  0  0  0  0  0
   35.9834   31.9959   39.8761 H   0  0  0  0  0  0  0  0  0  0  0  0
   36.7609   32.1169   41.5139 H   0  0  0  0  0  0  0  0  0  0  0  0
   38.6020   32.2437   40.4024 H   0  0  0  0  0  0  0  0  0  0  0  0
   38.0974   29.4864   39.5377 H   0  0  0  0  0  0  0  0  0  0  0  0
   39.6710   30.2810   39.9551 H   0  0  0  0  0  0  0  0  0  0  0  0
   38.9468   28.7970   41.7833 H   0  0  0  0  0  0  0  0  0  0  0  0
   38.9111   30.5246   42.3033 H   0  0  0  0  0  0  0  0  0  0  0  0
  1  8  1  0
  1  5  1  0
  2  3  1  0
  2  1  1  0
  3  4  1  0
  4  5  1  0
  5 12  1  0
  7  6  2  0
  8  7  1  0
  9  8  2  0
  9 10  1  0
 10 11  2  0
 11  6  1  0
 12 13  1  0
 14 12  1  0
 15 14  1  0
 16 15  1  0
 17 16  1  0
 18 19  1  0
 18 17  1  0
 19 20  1  0
 20 15  1  0
  1 21  1  6
  2 22  1  0
  2 23  1  0
  3 24  1  0
  3 25  1  0
  4 26  1  0
  4 27  1  0
  5 28  1  1
  6 29  1  0
  7 30  1  0
 10 31  1  0
 12 32  1  1
 13 33  1  0
 13 34  1  0
 13 35  1  0
 14 36  1  0
 14 37  1  0
 16 38  1  0
 16 39  1  0
 17 40  1  0
 17 41  1  0
 18 42  1  0
 19 43  1  0
 19 44  1  0
 20 45  1  0
 20 46  1  0
M  ISO  8  21  13  22  13  23  13  24  13  25  13  26  13  27  13  28  13
M  ISO  8  29  14  30  14  31  14  32   8  33   8  34   8  35   8  36   8
M  ISO  8  37   8  38  13  39  13  40  13  41  13  42   5  43  13  44  13
M  ISO  2  45  13  46  13
M  END
>  <minimizedAffinity>  (1) 
-5.35745525

>  <minimizedRMSD>  (1) 
0.839877129

$$$$
