
     RDKit          3D

 31 33  0  0  0  0  0  0  0  0999 V2000
   36.3170   30.3830   39.5640 C   0  0  0  0  0  0  0  0  0  0  0  0
   36.9150   31.6260   39.7730 C   0  0  0  0  0  0  0  0  0  0  0  0
   37.5950   32.2400   38.7510 C   0  0  0  0  0  0  0  0  0  0  0  0
   37.7190   31.6820   37.5090 C   0  0  0  0  0  0  0  0  0  0  0  0
   37.1240   30.4590   37.3160 C   0  0  0  0  0  0  0  0  0  0  0  0
   36.4170   29.7880   38.3270 C   0  0  0  0  0  0  0  0  0  0  0  0
   35.8120   28.4810   37.9830 C   0  0  0  0  0  0  0  0  0  0  0  0
   34.6560   28.3760   37.2650 C   0  0  0  0  0  0  0  0  0  0  0  0
   34.3380   26.5950   37.1080 S   0  0  0  0  0  0  0  0  0  0  0  0
   35.9150   26.2270   38.0980 C   0  0  0  0  0  0  0  0  0  0  0  0
   36.2020   27.2770   38.2530 N   0  0  0  0  0  0  0  0  0  0  0  0
   35.6000   29.7190   40.6670 C   0  0  0  0  0  0  0  0  0  0  0  0
   38.1570   28.9800   43.2560 C   0  0  0  0  0  0  0  0  0  0  0  0
   38.1530   27.5860   43.2810 C   0  0  0  0  0  0  0  0  0  0  0  0
   37.2840   26.9240   42.4220 C   0  0  0  0  0  0  0  0  0  0  0  0
   36.5230   27.6820   41.6390 N   0  0  0  0  0  0  0  0  0  0  0  0
   36.5230   29.0220   41.6110 C   0  0  0  0  0  0  0  0  0  0  0  0
   37.3630   29.6450   42.4430 N   0  0  0  0  0  0  0  0  0  0  0  0
   37.1370   25.5130   42.3100 N   0  0  0  0  0  0  0  0  0  0  0  0
   36.8416   32.1137   40.7562 H   0  0  0  0  0  0  0  0  0  0  0  0
   38.0585   33.2198   38.9386 H   0  0  0  0  0  0  0  0  0  0  0  0
   38.2693   32.1885   36.7024 H   0  0  0  0  0  0  0  0  0  0  0  0
   37.2048   29.9847   36.3268 H   0  0  0  0  0  0  0  0  0  0  0  0
   34.0447   29.1984   36.8650 H   0  0  0  0  0  0  0  0  0  0  0  0
   36.3836   25.2823   38.4110 H   0  0  0  0  0  0  0  0  0  0  0  0
   35.0312   30.4773   41.2251 H   0  0  0  0  0  0  0  0  0  0  0  0
   34.9372   28.9600   40.2259 H   0  0  0  0  0  0  0  0  0  0  0  0
   38.8332   29.5322   43.9251 H   0  0  0  0  0  0  0  0  0  0  0  0
   38.8161   27.0283   43.9586 H   0  0  0  0  0  0  0  0  0  0  0  0
   36.4623   25.1171   41.6400 H   0  0  0  0  0  0  0  0  0  0  0  0
   37.7053   24.8876   42.8989 H   0  0  0  0  0  0  0  0  0  0  0  0
  1  2  2  0
  1 12  1  0
  3  2  1  0
  4  3  2  0
  5  4  1  0
  5  6  2  0
  6  1  1  0
  7 11  1  0
  7  6  1  0
  8  7  2  0
  9  8  1  0
  9 10  1  0
 10 11  2  0
 12 17  1  0
 13 14  2  0
 15 14  1  0
 16 15  2  0
 17 16  1  0
 17 18  2  0
 18 13  1  0
 19 15  1  0
  2 20  1  0
  3 21  1  0
  4 22  1  0
  5 23  1  0
  8 24  1  0
 10 25  1  0
 12 26  1  0
 12 27  1  0
 13 28  1  0
 14 29  1  0
 19 30  1  0
 19 31  1  0
M  ISO  8  20  14  21  14  22  14  23  14  24  14  25  14  26   8  27   8
M  ISO  2  28  14  29  14
M  END
>  <minimizedAffinity>  (1) 
-5.13964462

>  <minimizedRMSD>  (1) 
0.327497542

$$$$
