
     RDKit          3D

 32 34  0  0  0  0  0  0  0  0999 V2000
   36.3350   30.3930   39.5600 C   0  0  0  0  0  0  0  0  0  0  0  0
   36.9160   31.6410   39.7560 C   0  0  0  0  0  0  0  0  0  0  0  0
   37.5820   32.2360   38.7130 C   0  0  0  0  0  0  0  0  0  0  0  0
   37.7060   31.6660   37.4840 C   0  0  0  0  0  0  0  0  0  0  0  0
   37.1260   30.4410   37.3220 C   0  0  0  0  0  0  0  0  0  0  0  0
   36.4290   29.7740   38.3450 C   0  0  0  0  0  0  0  0  0  0  0  0
   35.8720   28.4960   37.9820 C   0  0  0  0  0  0  0  0  0  0  0  0
   36.6060   27.3030   38.0100 C   0  0  0  0  0  0  0  0  0  0  0  0
   35.8590   26.2490   37.6380 N   0  0  0  0  0  0  0  0  0  0  0  0
   34.6230   26.7060   37.3550 C   0  0  0  0  0  0  0  0  0  0  0  0
   34.7130   27.9950   37.5760 N   0  0  0  0  0  0  0  0  0  0  0  0
   35.6330   29.7870   40.7050 C   0  0  0  0  0  0  0  0  0  0  0  0
   38.1660   28.9710   43.2620 C   0  0  0  0  0  0  0  0  0  0  0  0
   38.1620   27.5810   43.2700 C   0  0  0  0  0  0  0  0  0  0  0  0
   37.2900   26.9400   42.4010 C   0  0  0  0  0  0  0  0  0  0  0  0
   36.5240   27.6870   41.6260 N   0  0  0  0  0  0  0  0  0  0  0  0
   36.5170   29.0200   41.6060 C   0  0  0  0  0  0  0  0  0  0  0  0
   37.3660   29.6470   42.4510 N   0  0  0  0  0  0  0  0  0  0  0  0
   37.1420   25.5270   42.2850 N   0  0  0  0  0  0  0  0  0  0  0  0
   36.8432   32.1439   40.7316 H   0  0  0  0  0  0  0  0  0  0  0  0
   38.0381   33.2230   38.8795 H   0  0  0  0  0  0  0  0  0  0  0  0
   38.2446   32.1653   36.6651 H   0  0  0  0  0  0  0  0  0  0  0  0
   37.2081   29.9505   36.3409 H   0  0  0  0  0  0  0  0  0  0  0  0
   37.6647   27.2368   38.3010 H   0  0  0  0  0  0  0  0  0  0  0  0
   33.7464   26.1331   37.0183 H   0  0  0  0  0  0  0  0  0  0  0  0
   33.8974   28.6084   37.4367 H   0  0  0  0  0  0  0  0  0  0  0  0
   35.1583   30.5912   41.2863 H   0  0  0  0  0  0  0  0  0  0  0  0
   34.9002   29.0773   40.2934 H   0  0  0  0  0  0  0  0  0  0  0  0
   38.8417   29.5163   43.9374 H   0  0  0  0  0  0  0  0  0  0  0  0
   38.8240   27.0114   43.9388 H   0  0  0  0  0  0  0  0  0  0  0  0
   36.4691   25.1332   41.6120 H   0  0  0  0  0  0  0  0  0  0  0  0
   37.7080   24.8998   42.8742 H   0  0  0  0  0  0  0  0  0  0  0  0
  1  2  2  0
  1 12  1  0
  3  2  1  0
  4  3  2  0
  5  4  1  0
  5  6  2  0
  6  1  1  0
  7  8  2  0
  7  6  1  0
  9  8  1  0
 10 11  1  0
 10  9  2  0
 11  7  1  0
 12 17  1  0
 13 14  2  0
 15 14  1  0
 16 15  2  0
 17 16  1  0
 17 18  2  0
 18 13  1  0
 19 15  1  0
  2 20  1  0
  3 21  1  0
  4 22  1  0
  5 23  1  0
  8 24  1  0
 10 25  1  0
 11 26  1  0
 12 27  1  0
 12 28  1  0
 13 29  1  0
 14 30  1  0
 19 31  1  0
 19 32  1  0
M  ISO  8  20  14  21  14  22  14  23  14  24  14  25  14  26   9  27   8
M  ISO  3  28   8  29  14  30  14
M  END
>  <minimizedAffinity>  (1) 
-5.05944777

>  <minimizedRMSD>  (1) 
0.362266898

$$$$
