
     RDKit          3D

 27 28  0  0  0  0  0  0  0  0999 V2000
   35.6270   29.7250   40.6460 C   0  0  0  0  0  0  0  0  0  0  0  0
   38.1510   28.9930   43.2540 C   0  0  0  0  0  0  0  0  0  0  0  0
   38.1610   27.5960   43.2840 C   0  0  0  0  0  0  0  0  0  0  0  0
   37.2870   26.9440   42.3940 C   0  0  0  0  0  0  0  0  0  0  0  0
   36.5070   27.6720   41.5810 N   0  0  0  0  0  0  0  0  0  0  0  0
   36.5340   29.0270   41.5890 C   0  0  0  0  0  0  0  0  0  0  0  0
   37.3600   29.6560   42.4300 N   0  0  0  0  0  0  0  0  0  0  0  0
   37.1770   25.5290   42.3010 N   0  0  0  0  0  0  0  0  0  0  0  0
   36.3530   30.4200   39.5620 C   0  0  0  0  0  0  0  0  0  0  0  0
   36.8930   31.6620   39.7820 C   0  0  0  0  0  0  0  0  0  0  0  0
   37.5610   32.2720   38.7390 C   0  0  0  0  0  0  0  0  0  0  0  0
   37.7150   31.6880   37.4870 C   0  0  0  0  0  0  0  0  0  0  0  0
   37.1650   30.4340   37.2790 C   0  0  0  0  0  0  0  0  0  0  0  0
   36.4860   29.8090   38.3260 C   0  0  0  0  0  0  0  0  0  0  0  0
   35.9370   28.4900   38.0280 C   0  0  0  0  0  0  0  0  0  0  0  0
   34.8420   28.2760   37.4450 O   0  0  0  0  0  0  0  0  0  0  0  0
   34.9494   28.9842   40.1966 H   0  0  0  0  0  0  0  0  0  0  0  0
   35.0769   30.4868   41.2179 H   0  0  0  0  0  0  0  0  0  0  0  0
   38.8151   29.5515   43.9300 H   0  0  0  0  0  0  0  0  0  0  0  0
   38.8168   27.0358   43.9667 H   0  0  0  0  0  0  0  0  0  0  0  0
   36.5193   25.1065   41.6303 H   0  0  0  0  0  0  0  0  0  0  0  0
   37.7550   24.9267   42.9044 H   0  0  0  0  0  0  0  0  0  0  0  0
   36.7966   32.1567   40.7597 H   0  0  0  0  0  0  0  0  0  0  0  0
   37.9928   33.2697   38.9071 H   0  0  0  0  0  0  0  0  0  0  0  0
   38.2585   32.2073   36.6839 H   0  0  0  0  0  0  0  0  0  0  0  0
   37.2620   29.9376   36.3022 H   0  0  0  0  0  0  0  0  0  0  0  0
   36.5263   27.6141   38.3371 H   0  0  0  0  0  0  0  0  0  0  0  0
  1  6  1  0
  2  3  2  0
  4  3  1  0
  5  6  1  0
  5  4  2  0
  6  7  2  0
  7  2  1  0
  8  4  1  0
  9 10  2  0
  9  1  1  0
 11 10  1  0
 12 11  2  0
 13 12  1  0
 13 14  2  0
 14  9  1  0
 15 14  1  0
 16 15  2  0
  1 17  1  0
  1 18  1  0
  2 19  1  0
  3 20  1  0
  8 21  1  0
  8 22  1  0
 10 23  1  0
 11 24  1  0
 12 25  1  0
 13 26  1  0
 15 27  1  0
M  ISO  8  17   8  18   8  19  14  20  14  23  14  24  14  25  14  26  14
M  ISO  1  27   6
M  END
>  <minimizedAffinity>  (1) 
-4.69790077

>  <minimizedRMSD>  (1) 
0.0951179117

$$$$
