
     RDKit          3D

 28 29  0  0  0  0  0  0  0  0999 V2000
   35.6040   29.7160   40.6510 C   0  0  0  0  0  0  0  0  0  0  0  0
   38.1440   28.9910   43.2440 C   0  0  0  0  0  0  0  0  0  0  0  0
   38.1570   27.5940   43.2740 C   0  0  0  0  0  0  0  0  0  0  0  0
   37.2920   26.9320   42.4010 C   0  0  0  0  0  0  0  0  0  0  0  0
   36.5090   27.6690   41.5950 N   0  0  0  0  0  0  0  0  0  0  0  0
   36.5210   29.0170   41.5920 C   0  0  0  0  0  0  0  0  0  0  0  0
   37.3440   29.6730   42.4210 N   0  0  0  0  0  0  0  0  0  0  0  0
   37.1790   25.5280   42.3040 N   0  0  0  0  0  0  0  0  0  0  0  0
   36.3270   30.3950   39.5490 C   0  0  0  0  0  0  0  0  0  0  0  0
   36.9170   31.6240   39.7670 C   0  0  0  0  0  0  0  0  0  0  0  0
   37.5800   32.2190   38.7130 C   0  0  0  0  0  0  0  0  0  0  0  0
   37.6850   31.6580   37.4600 C   0  0  0  0  0  0  0  0  0  0  0  0
   37.0910   30.4330   37.2580 C   0  0  0  0  0  0  0  0  0  0  0  0
   36.4220   29.8180   38.2980 C   0  0  0  0  0  0  0  0  0  0  0  0
   35.7680   28.4800   38.0940 C   0  0  0  0  0  0  0  0  0  0  0  0
   34.9142   28.9771   40.2171 H   0  0  0  0  0  0  0  0  0  0  0  0
   35.0659   30.4874   41.2215 H   0  0  0  0  0  0  0  0  0  0  0  0
   38.8129   29.5454   43.9187 H   0  0  0  0  0  0  0  0  0  0  0  0
   38.8196   27.0404   43.9555 H   0  0  0  0  0  0  0  0  0  0  0  0
   36.5171   25.1096   41.6349 H   0  0  0  0  0  0  0  0  0  0  0  0
   37.7584   24.9221   42.9024 H   0  0  0  0  0  0  0  0  0  0  0  0
   36.8604   32.1138   40.7503 H   0  0  0  0  0  0  0  0  0  0  0  0
   38.0518   33.1979   38.8838 H   0  0  0  0  0  0  0  0  0  0  0  0
   38.2242   32.1704   36.6496 H   0  0  0  0  0  0  0  0  0  0  0  0
   37.1488   29.9463   36.2732 H   0  0  0  0  0  0  0  0  0  0  0  0
   35.5467   28.0272   39.0717 H   0  0  0  0  0  0  0  0  0  0  0  0
   34.8325   28.6113   37.5305 H   0  0  0  0  0  0  0  0  0  0  0  0
   36.4463   27.8224   37.5305 H   0  0  0  0  0  0  0  0  0  0  0  0
  1  6  1  0
  2  3  2  0
  4  3  1  0
  5  4  2  0
  6  5  1  0
  6  7  2  0
  7  2  1  0
  8  4  1  0
  9 10  2  0
  9  1  1  0
 11 10  1  0
 12 11  2  0
 13 12  1  0
 13 14  2  0
 14  9  1  0
 15 14  1  0
  1 16  1  0
  1 17  1  0
  2 18  1  0
  3 19  1  0
  8 20  1  0
  8 21  1  0
 10 22  1  0
 11 23  1  0
 12 24  1  0
 13 25  1  0
 15 26  1  0
 15 27  1  0
 15 28  1  0
M  ISO  8  16   8  17   8  18  14  19  14  22  14  23  14  24  14  25  14
M  ISO  3  26   8  27   8  28   8
M  END
>  <minimizedAffinity>  (1) 
-4.87501287

>  <minimizedRMSD>  (1) 
0.104267791

$$$$
