
     RDKit          3D

 42 45  0  0  0  0  0  0  0  0999 V2000
   36.3600   30.3100   39.8850 C   0  0  0  0  0  0  0  0  0  0  0  0
   36.5800   31.5650   40.4340 C   0  0  0  0  0  0  0  0  0  0  0  0
   37.2180   32.5030   39.6470 C   0  0  0  0  0  0  0  0  0  0  0  0
   37.6450   32.2590   38.3520 C   0  0  0  0  0  0  0  0  0  0  0  0
   37.4210   31.0180   37.8290 C   0  0  0  0  0  0  0  0  0  0  0  0
   36.7830   30.0470   38.5890 C   0  0  0  0  0  0  0  0  0  0  0  0
   35.6790   29.2600   40.6920 C   0  0  0  0  0  0  0  0  0  0  0  0
   38.0430   28.6630   43.4680 C   0  0  0  0  0  0  0  0  0  0  0  0
   38.2510   27.2740   43.4140 C   0  0  0  0  0  0  0  0  0  0  0  0
   37.5620   26.5760   42.4110 C   0  0  0  0  0  0  0  0  0  0  0  0
   36.7710   27.2730   41.5950 N   0  0  0  0  0  0  0  0  0  0  0  0
   36.5920   28.6130   41.6730 C   0  0  0  0  0  0  0  0  0  0  0  0
   37.2360   29.3010   42.6190 N   0  0  0  0  0  0  0  0  0  0  0  0
   37.6630   25.1860   42.2210 N   0  0  0  0  0  0  0  0  0  0  0  0
   36.5110   28.6770   38.0360 C   0  0  0  0  0  0  0  0  0  0  0  0
   35.6670   28.8250   36.8090 C   0  0  0  0  0  0  0  0  0  0  0  0
   36.1120   28.7620   35.4920 C   0  0  0  0  0  0  0  0  0  0  0  0
   35.1010   28.9220   34.6180 N   0  0  0  0  0  0  0  0  0  0  0  0
   33.9750   29.0930   35.3220 C   0  0  0  0  0  0  0  0  0  0  0  0
   32.6360   29.3050   34.9700 C   0  0  0  0  0  0  0  0  0  0  0  0
   31.6240   29.4600   35.9090 C   0  0  0  0  0  0  0  0  0  0  0  0
   32.0200   29.3940   37.2390 C   0  0  0  0  0  0  0  0  0  0  0  0
   33.3350   29.1860   37.6530 C   0  0  0  0  0  0  0  0  0  0  0  0
   34.2880   29.0380   36.6650 C   0  0  0  0  0  0  0  0  0  0  0  0
   36.2581   31.8039   41.4583 H   0  0  0  0  0  0  0  0  0  0  0  0
   37.3975   33.5013   40.0727 H   0  0  0  0  0  0  0  0  0  0  0  0
   38.1485   33.0403   37.7638 H   0  0  0  0  0  0  0  0  0  0  0  0
   37.7465   30.7871   36.8039 H   0  0  0  0  0  0  0  0  0  0  0  0
   34.8438   29.7219   41.2389 H   0  0  0  0  0  0  0  0  0  0  0  0
   35.3276   28.4815   39.9989 H   0  0  0  0  0  0  0  0  0  0  0  0
   38.5659   29.2464   44.2402 H   0  0  0  0  0  0  0  0  0  0  0  0
   38.9192   26.7610   44.1213 H   0  0  0  0  0  0  0  0  0  0  0  0
   37.1316   24.7295   41.4659 H   0  0  0  0  0  0  0  0  0  0  0  0
   38.2683   24.6247   42.8369 H   0  0  0  0  0  0  0  0  0  0  0  0
   37.4602   28.1850   37.7775 H   0  0  0  0  0  0  0  0  0  0  0  0
   35.9881   28.0631   38.7841 H   0  0  0  0  0  0  0  0  0  0  0  0
   37.1606   28.6013   35.2011 H   0  0  0  0  0  0  0  0  0  0  0  0
   35.1795   28.9143   33.5910 H   0  0  0  0  0  0  0  0  0  0  0  0
   32.3741   29.3508   33.9026 H   0  0  0  0  0  0  0  0  0  0  0  0
   30.5760   29.6245   35.6180 H   0  0  0  0  0  0  0  0  0  0  0  0
   31.2481   29.5133   38.0136 H   0  0  0  0  0  0  0  0  0  0  0  0
   33.6014   29.1418   38.7193 H   0  0  0  0  0  0  0  0  0  0  0  0
  1  2  2  0
  1  7  1  0
  3  2  1  0
  4  3  2  0
  5  4  1  0
  5  6  2  0
  6  1  1  0
  7 12  1  0
  9  8  2  0
 10  9  1  0
 11 12  1  0
 11 10  2  0
 12 13  2  0
 13  8  1  0
 14 10  1  0
 15  6  1  0
 16 15  1  0
 17 16  2  0
 18 19  1  0
 18 17  1  0
 19 24  2  0
 20 19  1  0
 20 21  2  0
 21 22  1  0
 22 23  2  0
 24 16  1  0
 24 23  1  0
  2 25  1  0
  3 26  1  0
  4 27  1  0
  5 28  1  0
  7 29  1  0
  7 30  1  0
  8 31  1  0
  9 32  1  0
 14 33  1  0
 14 34  1  0
 15 35  1  0
 15 36  1  0
 17 37  1  0
 18 38  1  0
 20 39  1  0
 21 40  1  0
 22 41  1  0
 23 42  1  0
M  ISO  8  25  14  26  14  27  14  28  14  29   8  30   8  31  14  32  14
M  ISO  8  35   8  36   8  37  14  38   9  39  14  40  14  41  14  42  14
M  END
>  <minimizedAffinity>  (1) 
-6.10298014

>  <minimizedRMSD>  (1) 
1.95319164

$$$$
