
     RDKit          3D

 42 45  0  0  0  0  0  0  0  0999 V2000
   36.2980   30.3350   39.7420 C   0  0  0  0  0  0  0  0  0  0  0  0
   36.7260   31.5760   40.1910 C   0  0  0  0  0  0  0  0  0  0  0  0
   37.3970   32.3920   39.2970 C   0  0  0  0  0  0  0  0  0  0  0  0
   37.6620   32.0450   37.9920 C   0  0  0  0  0  0  0  0  0  0  0  0
   37.2280   30.8040   37.5610 C   0  0  0  0  0  0  0  0  0  0  0  0
   36.5600   29.9820   38.4410 C   0  0  0  0  0  0  0  0  0  0  0  0
   35.5790   29.4260   40.6520 C   0  0  0  0  0  0  0  0  0  0  0  0
   37.9940   28.7690   43.3840 C   0  0  0  0  0  0  0  0  0  0  0  0
   38.1270   27.3870   43.3490 C   0  0  0  0  0  0  0  0  0  0  0  0
   37.3840   26.6950   42.3870 C   0  0  0  0  0  0  0  0  0  0  0  0
   36.6060   27.4120   41.5750 N   0  0  0  0  0  0  0  0  0  0  0  0
   36.4900   28.7470   41.6240 C   0  0  0  0  0  0  0  0  0  0  0  0
   37.1990   29.4310   42.5470 N   0  0  0  0  0  0  0  0  0  0  0  0
   37.4020   25.2970   42.2140 N   0  0  0  0  0  0  0  0  0  0  0  0
   36.0900   28.6330   37.9630 C   0  0  0  0  0  0  0  0  0  0  0  0
   35.1340   28.7360   36.9050 N   0  0  0  0  0  0  0  0  0  0  0  0
   35.3710   28.5570   35.5730 C   0  0  0  0  0  0  0  0  0  0  0  0
   34.2490   28.7300   34.8750 N   0  0  0  0  0  0  0  0  0  0  0  0
   33.2290   29.0290   35.7230 C   0  0  0  0  0  0  0  0  0  0  0  0
   31.8900   29.2970   35.5330 C   0  0  0  0  0  0  0  0  0  0  0  0
   31.4060   29.2880   34.3590 O   0  0  0  0  0  0  0  0  0  0  0  0
   31.0880   29.5710   36.6000 N   0  0  0  0  0  0  0  0  0  0  0  0
   31.6930   29.5570   37.8000 C   0  0  0  0  0  0  0  0  0  0  0  0
   30.9490   29.8300   38.9890 N   0  0  0  0  0  0  0  0  0  0  0  0
   33.0020   29.2980   38.0180 N   0  0  0  0  0  0  0  0  0  0  0  0
   33.8270   29.0210   36.9660 C   0  0  0  0  0  0  0  0  0  0  0  0
   36.5380   31.9011   41.2249 H   0  0  0  0  0  0  0  0  0  0  0  0
   37.7387   33.3760   39.6505 H   0  0  0  0  0  0  0  0  0  0  0  0
   38.1985   32.7283   37.3172 H   0  0  0  0  0  0  0  0  0  0  0  0
   37.4144   30.4777   36.5272 H   0  0  0  0  0  0  0  0  0  0  0  0
   34.8338   30.0075   41.2146 H   0  0  0  0  0  0  0  0  0  0  0  0
   35.1053   28.6457   40.0381 H   0  0  0  0  0  0  0  0  0  0  0  0
   38.5671   29.3374   44.1313 H   0  0  0  0  0  0  0  0  0  0  0  0
   38.7899   26.8580   44.0495 H   0  0  0  0  0  0  0  0  0  0  0  0
   36.8247   24.8613   41.4807 H   0  0  0  0  0  0  0  0  0  0  0  0
   37.9925   24.7105   42.8209 H   0  0  0  0  0  0  0  0  0  0  0  0
   36.9586   28.0635   37.6009 H   0  0  0  0  0  0  0  0  0  0  0  0
   35.6027   28.1267   38.8093 H   0  0  0  0  0  0  0  0  0  0  0  0
   36.3493   28.3056   35.1373 H   0  0  0  0  0  0  0  0  0  0  0  0
   30.0841   29.7754   36.4938 H   0  0  0  0  0  0  0  0  0  0  0  0
   31.4195   29.8175   39.9052 H   0  0  0  0  0  0  0  0  0  0  0  0
   29.9422   30.0393   38.9299 H   0  0  0  0  0  0  0  0  0  0  0  0
  1  2  2  0
  1  7  1  0
  3  2  1  0
  4  3  2  0
  5  4  1  0
  5  6  2  0
  6  1  1  0
  7 12  1  0
  9  8  2  0
 10  9  1  0
 11 12  1  0
 11 10  2  0
 12 13  2  0
 13  8  1  0
 14 10  1  0
 15  6  1  0
 16 26  1  0
 16 15  1  0
 17 16  1  0
 18 17  2  0
 18 19  1  0
 19 26  2  0
 20 19  1  0
 20 22  1  0
 21 20  2  0
 22 23  1  0
 23 25  2  0
 23 24  1  0
 26 25  1  0
  2 27  1  0
  3 28  1  0
  4 29  1  0
  5 30  1  0
  7 31  1  0
  7 32  1  0
  8 33  1  0
  9 34  1  0
 14 35  1  0
 14 36  1  0
 15 37  1  0
 15 38  1  0
 17 39  1  0
 22 40  1  0
 24 41  1  0
 24 42  1  0
M  ISO  8  27  14  28  14  29  14  30  14  31   8  32   8  33  14  34  14
M  ISO  4  37   8  38   8  39  14  40   9
M  END
>  <minimizedAffinity>  (1) 
-6.08012152

>  <minimizedRMSD>  (1) 
2.65974236

$$$$
