
     RDKit          3D

 38 40  0  0  0  0  0  0  0  0999 V2000
   36.2760   30.3260   39.9810 C   0  0  0  0  0  0  0  0  0  0  0  0
   36.6860   31.5420   40.4830 C   0  0  0  0  0  0  0  0  0  0  0  0
   37.2870   32.4490   39.6440 C   0  0  0  0  0  0  0  0  0  0  0  0
   37.5030   32.2050   38.3160 C   0  0  0  0  0  0  0  0  0  0  0  0
   37.0920   30.9840   37.8040 C   0  0  0  0  0  0  0  0  0  0  0  0
   36.4920   30.0830   38.6460 C   0  0  0  0  0  0  0  0  0  0  0  0
   35.6270   29.3290   40.8520 C   0  0  0  0  0  0  0  0  0  0  0  0
   38.1770   28.6370   43.4490 C   0  0  0  0  0  0  0  0  0  0  0  0
   38.3480   27.2470   43.3380 C   0  0  0  0  0  0  0  0  0  0  0  0
   37.5800   26.5870   42.3700 C   0  0  0  0  0  0  0  0  0  0  0  0
   36.7420   27.3080   41.6200 N   0  0  0  0  0  0  0  0  0  0  0  0
   36.5960   28.6360   41.7470 C   0  0  0  0  0  0  0  0  0  0  0  0
   37.3190   29.2890   42.6640 N   0  0  0  0  0  0  0  0  0  0  0  0
   37.6410   25.1950   42.1380 N   0  0  0  0  0  0  0  0  0  0  0  0
   36.0410   28.7490   38.0990 C   0  0  0  0  0  0  0  0  0  0  0  0
   34.9020   28.9340   37.1740 C   0  0  0  0  0  0  0  0  0  0  0  0
   35.0210   29.0450   35.8030 C   0  0  0  0  0  0  0  0  0  0  0  0
   33.8670   29.2140   35.0660 C   0  0  0  0  0  0  0  0  0  0  0  0
   32.6280   29.2700   35.7050 C   0  0  0  0  0  0  0  0  0  0  0  0
   32.5020   29.1590   37.0880 C   0  0  0  0  0  0  0  0  0  0  0  0
   33.6610   28.9900   37.8140 C   0  0  0  0  0  0  0  0  0  0  0  0
   36.5336   31.7842   41.5451 H   0  0  0  0  0  0  0  0  0  0  0  0
   37.6090   33.4153   40.0595 H   0  0  0  0  0  0  0  0  0  0  0  0
   37.9881   32.9547   37.6736 H   0  0  0  0  0  0  0  0  0  0  0  0
   37.2444   30.7423   36.7418 H   0  0  0  0  0  0  0  0  0  0  0  0
   34.8757   29.8389   41.4730 H   0  0  0  0  0  0  0  0  0  0  0  0
   35.1674   28.5681   40.2041 H   0  0  0  0  0  0  0  0  0  0  0  0
   38.7602   29.1962   44.1954 H   0  0  0  0  0  0  0  0  0  0  0  0
   39.0532   26.7014   43.9822 H   0  0  0  0  0  0  0  0  0  0  0  0
   37.0501   24.7678   41.4105 H   0  0  0  0  0  0  0  0  0  0  0  0
   38.2763   24.6072   42.6963 H   0  0  0  0  0  0  0  0  0  0  0  0
   36.8749   28.2774   37.5585 H   0  0  0  0  0  0  0  0  0  0  0  0
   35.7239   28.1076   38.9345 H   0  0  0  0  0  0  0  0  0  0  0  0
   36.0051   29.0001   35.3136 H   0  0  0  0  0  0  0  0  0  0  0  0
   33.9239   29.3049   33.9712 H   0  0  0  0  0  0  0  0  0  0  0  0
   31.7214   29.4062   35.0972 H   0  0  0  0  0  0  0  0  0  0  0  0
   31.5190   29.2043   37.5796 H   0  0  0  0  0  0  0  0  0  0  0  0
   33.6088   28.8982   38.9089 H   0  0  0  0  0  0  0  0  0  0  0  0
  1  2  2  0
  1  7  1  0
  3  2  1  0
  4  3  2  0
  5  4  1  0
  5  6  2  0
  6  1  1  0
  7 12  1  0
  9  8  2  0
 10  9  1  0
 11 12  1  0
 11 10  2  0
 12 13  2  0
 13  8  1  0
 14 10  1  0
 15  6  1  0
 16 21  1  0
 16 15  1  0
 17 16  2  0
 18 19  2  0
 18 17  1  0
 19 20  1  0
 20 21  2  0
  2 22  1  0
  3 23  1  0
  4 24  1  0
  5 25  1  0
  7 26  1  0
  7 27  1  0
  8 28  1  0
  9 29  1  0
 14 30  1  0
 14 31  1  0
 15 32  1  0
 15 33  1  0
 17 34  1  0
 18 35  1  0
 19 36  1  0
 20 37  1  0
 21 38  1  0
M  ISO  8  22  14  23  14  24  14  25  14  26   8  27   8  28  14  29  14
M  ISO  7  32   8  33   8  34  14  35  14  36  14  37  14  38  14
M  END
>  <minimizedAffinity>  (1) 
-5.86982346

>  <minimizedRMSD>  (1) 
1.80437577

$$$$
