
     RDKit          3D

 41 43  0  0  0  0  0  0  0  0999 V2000
   36.3140   30.3060   39.5540 C   0  0  0  0  0  0  0  0  0  0  0  0
   36.8820   31.5460   39.7930 C   0  0  0  0  0  0  0  0  0  0  0  0
   37.5390   32.1830   38.7650 C   0  0  0  0  0  0  0  0  0  0  0  0
   37.6600   31.6440   37.4990 C   0  0  0  0  0  0  0  0  0  0  0  0
   37.0960   30.4160   37.2650 C   0  0  0  0  0  0  0  0  0  0  0  0
   36.4340   29.7690   38.2930 C   0  0  0  0  0  0  0  0  0  0  0  0
   35.6090   29.6160   40.6480 C   0  0  0  0  0  0  0  0  0  0  0  0
   38.1240   28.9550   43.2850 C   0  0  0  0  0  0  0  0  0  0  0  0
   38.2150   27.5560   43.2820 C   0  0  0  0  0  0  0  0  0  0  0  0
   37.4060   26.8780   42.3700 C   0  0  0  0  0  0  0  0  0  0  0  0
   36.6060   27.5870   41.5670 N   0  0  0  0  0  0  0  0  0  0  0  0
   36.5350   28.9240   41.5860 C   0  0  0  0  0  0  0  0  0  0  0  0
   37.3010   29.6000   42.4530 N   0  0  0  0  0  0  0  0  0  0  0  0
   37.3760   25.4650   42.2360 N   0  0  0  0  0  0  0  0  0  0  0  0
   35.8060   28.4230   38.0690 C   0  0  0  0  0  0  0  0  0  0  0  0
   34.6070   28.5570   37.2450 N   0  0  0  0  0  0  0  0  0  0  0  0
   33.4590   29.1200   37.6640 C   0  0  0  0  0  0  0  0  0  0  0  0
   32.3730   29.2090   36.8240 C   0  0  0  0  0  0  0  0  0  0  0  0
   31.1000   29.8280   37.2780 C   0  0  0  0  0  0  0  0  0  0  0  0
   32.4940   28.7000   35.5290 C   0  0  0  0  0  0  0  0  0  0  0  0
   31.4910   28.7780   34.7430 O   0  0  0  0  0  0  0  0  0  0  0  0
   33.6250   28.1330   35.0840 N   0  0  0  0  0  0  0  0  0  0  0  0
   34.6370   28.0890   35.9700 C   0  0  0  0  0  0  0  0  0  0  0  0
   35.7230   27.5560   35.5720 O   0  0  0  0  0  0  0  0  0  0  0  0
   36.8095   32.0133   40.7862 H   0  0  0  0  0  0  0  0  0  0  0  0
   37.9888   33.1675   38.9608 H   0  0  0  0  0  0  0  0  0  0  0  0
   38.1929   32.1836   36.7022 H   0  0  0  0  0  0  0  0  0  0  0  0
   37.1692   29.9507   36.2709 H   0  0  0  0  0  0  0  0  0  0  0  0
   35.0260   30.3580   41.2133 H   0  0  0  0  0  0  0  0  0  0  0  0
   34.9638   28.8493   40.1942 H   0  0  0  0  0  0  0  0  0  0  0  0
   38.7428   29.5336   43.9867 H   0  0  0  0  0  0  0  0  0  0  0  0
   38.8906   27.0198   43.9647 H   0  0  0  0  0  0  0  0  0  0  0  0
   36.7545   25.0266   41.5414 H   0  0  0  0  0  0  0  0  0  0  0  0
   37.9757   24.8782   42.8334 H   0  0  0  0  0  0  0  0  0  0  0  0
   36.5261   27.7664   37.5588 H   0  0  0  0  0  0  0  0  0  0  0  0
   35.5271   27.9905   39.0412 H   0  0  0  0  0  0  0  0  0  0  0  0
   33.3880   29.5132   38.6889 H   0  0  0  0  0  0  0  0  0  0  0  0
   31.0709   29.8422   38.3775 H   0  0  0  0  0  0  0  0  0  0  0  0
   31.0363   30.8577   36.8962 H   0  0  0  0  0  0  0  0  0  0  0  0
   30.2508   29.2422   36.8962 H   0  0  0  0  0  0  0  0  0  0  0  0
   33.7131   27.7569   34.1292 H   0  0  0  0  0  0  0  0  0  0  0  0
  1  2  2  0
  1  7  1  0
  3  2  1  0
  4  3  2  0
  5  4  1  0
  5  6  2  0
  6  1  1  0
  7 12  1  0
  9  8  2  0
 10  9  1  0
 11 12  1  0
 11 10  2  0
 12 13  2  0
 13  8  1  0
 14 10  1  0
 15  6  1  0
 16 17  1  0
 16 15  1  0
 18 19  1  0
 18 17  2  0
 20 18  1  0
 21 20  2  0
 22 20  1  0
 22 23  1  0
 23 16  1  0
 24 23  2  0
  2 25  1  0
  3 26  1  0
  4 27  1  0
  5 28  1  0
  7 29  1  0
  7 30  1  0
  8 31  1  0
  9 32  1  0
 14 33  1  0
 14 34  1  0
 15 35  1  0
 15 36  1  0
 17 37  1  0
 19 38  1  0
 19 39  1  0
 19 40  1  0
 22 41  1  0
M  ISO  8  25  14  26  14  27  14  28  14  29   8  30   8  31  14  32  14
M  ISO  7  35   8  36   8  37  14  38   8  39   8  40   8  41   9
M  END
>  <minimizedAffinity>  (1) 
-5.67736435

>  <minimizedRMSD>  (1) 
2.50861597

$$$$
