
     RDKit          3D

 39 42  0  0  0  0  0  0  0  0999 V2000
   36.3500   30.2980   39.8810 C   0  0  0  0  0  0  0  0  0  0  0  0
   36.5730   31.5600   40.3880 C   0  0  0  0  0  0  0  0  0  0  0  0
   37.2060   32.4880   39.5970 C   0  0  0  0  0  0  0  0  0  0  0  0
   37.6300   32.2300   38.3230 C   0  0  0  0  0  0  0  0  0  0  0  0
   37.4120   30.9780   37.8120 C   0  0  0  0  0  0  0  0  0  0  0  0
   36.7740   30.0270   38.5990 C   0  0  0  0  0  0  0  0  0  0  0  0
   35.6760   29.2890   40.7090 C   0  0  0  0  0  0  0  0  0  0  0  0
   38.0530   28.6290   43.4550 C   0  0  0  0  0  0  0  0  0  0  0  0
   38.2230   27.2400   43.3690 C   0  0  0  0  0  0  0  0  0  0  0  0
   37.5250   26.5650   42.3790 C   0  0  0  0  0  0  0  0  0  0  0  0
   36.7390   27.2850   41.5760 N   0  0  0  0  0  0  0  0  0  0  0  0
   36.5880   28.6230   41.6760 C   0  0  0  0  0  0  0  0  0  0  0  0
   37.2470   29.2920   42.6160 N   0  0  0  0  0  0  0  0  0  0  0  0
   37.6000   25.1780   42.1770 N   0  0  0  0  0  0  0  0  0  0  0  0
   36.5170   28.6390   38.0670 C   0  0  0  0  0  0  0  0  0  0  0  0
   35.6670   28.7250   36.8920 N   0  0  0  0  0  0  0  0  0  0  0  0
   36.1650   28.5750   35.6300 C   0  0  0  0  0  0  0  0  0  0  0  0
   35.2390   28.6840   34.6600 N   0  0  0  0  0  0  0  0  0  0  0  0
   34.0880   28.9170   35.3280 C   0  0  0  0  0  0  0  0  0  0  0  0
   32.7690   29.1250   34.9660 C   0  0  0  0  0  0  0  0  0  0  0  0
   31.8340   29.3350   35.9110 N   0  0  0  0  0  0  0  0  0  0  0  0
   32.1360   29.3510   37.2400 C   0  0  0  0  0  0  0  0  0  0  0  0
   33.4250   29.1490   37.6400 N   0  0  0  0  0  0  0  0  0  0  0  0
   34.3560   28.9400   36.6820 C   0  0  0  0  0  0  0  0  0  0  0  0
   36.2502   31.8194   41.4071 H   0  0  0  0  0  0  0  0  0  0  0  0
   37.3810   33.4921   40.0107 H   0  0  0  0  0  0  0  0  0  0  0  0
   38.1317   33.0055   37.7256 H   0  0  0  0  0  0  0  0  0  0  0  0
   37.7379   30.7285   36.7914 H   0  0  0  0  0  0  0  0  0  0  0  0
   34.8683   29.7805   41.2712 H   0  0  0  0  0  0  0  0  0  0  0  0
   35.2929   28.5118   40.0313 H   0  0  0  0  0  0  0  0  0  0  0  0
   38.5955   29.1884   44.2314 H   0  0  0  0  0  0  0  0  0  0  0  0
   38.8872   26.7041   44.0630 H   0  0  0  0  0  0  0  0  0  0  0  0
   37.0550   24.7373   41.4223 H   0  0  0  0  0  0  0  0  0  0  0  0
   38.2000   24.6009   42.7835 H   0  0  0  0  0  0  0  0  0  0  0  0
   37.4726   28.1668   37.7954 H   0  0  0  0  0  0  0  0  0  0  0  0
   36.0183   28.0349   38.8392 H   0  0  0  0  0  0  0  0  0  0  0  0
   37.2283   28.3822   35.4244 H   0  0  0  0  0  0  0  0  0  0  0  0
   32.4839   29.1187   33.9036 H   0  0  0  0  0  0  0  0  0  0  0  0
   31.3460   29.5256   37.9852 H   0  0  0  0  0  0  0  0  0  0  0  0
  1  2  2  0
  1  7  1  0
  3  2  1  0
  4  3  2  0
  5  4  1  0
  5  6  2  0
  6  1  1  0
  7 12  1  0
  9  8  2  0
 10  9  1  0
 11 12  1  0
 11 10  2  0
 12 13  2  0
 13  8  1  0
 14 10  1  0
 15  6  1  0
 16 15  1  0
 17 16  1  0
 18 19  1  0
 18 17  2  0
 19 24  2  0
 20 19  1  0
 20 21  2  0
 21 22  1  0
 22 23  2  0
 24 16  1  0
 24 23  1  0
  2 25  1  0
  3 26  1  0
  4 27  1  0
  5 28  1  0
  7 29  1  0
  7 30  1  0
  8 31  1  0
  9 32  1  0
 14 33  1  0
 14 34  1  0
 15 35  1  0
 15 36  1  0
 17 37  1  0
 20 38  1  0
 22 39  1  0
M  ISO  8  25  14  26  14  27  14  28  14  29   8  30   8  31  14  32  14
M  ISO  5  35   8  36   8  37  14  38  14  39  14
M  END
>  <minimizedAffinity>  (1) 
-5.60153103

>  <minimizedRMSD>  (1) 
1.90861952

$$$$
