
     RDKit          3D

 38 40  0  0  0  0  0  0  0  0999 V2000
   36.3660   30.4450   39.9040 C   0  0  0  0  0  0  0  0  0  0  0  0
   36.9060   31.6590   40.2980 C   0  0  0  0  0  0  0  0  0  0  0  0
   37.5480   32.4280   39.3470 C   0  0  0  0  0  0  0  0  0  0  0  0
   37.6840   32.0620   38.0370 C   0  0  0  0  0  0  0  0  0  0  0  0
   37.1460   30.8590   37.6600 C   0  0  0  0  0  0  0  0  0  0  0  0
   36.4940   30.0620   38.5850 C   0  0  0  0  0  0  0  0  0  0  0  0
   35.6740   29.6060   40.9050 C   0  0  0  0  0  0  0  0  0  0  0  0
   38.2670   28.7110   43.3750 C   0  0  0  0  0  0  0  0  0  0  0  0
   38.2980   27.3250   43.2990 C   0  0  0  0  0  0  0  0  0  0  0  0
   37.4310   26.7120   42.4060 C   0  0  0  0  0  0  0  0  0  0  0  0
   36.6280   27.4960   41.6780 N   0  0  0  0  0  0  0  0  0  0  0  0
   36.6150   28.8350   41.7670 C   0  0  0  0  0  0  0  0  0  0  0  0
   37.4460   29.4420   42.6280 N   0  0  0  0  0  0  0  0  0  0  0  0
   37.3360   25.3200   42.2050 N   0  0  0  0  0  0  0  0  0  0  0  0
   35.8980   28.7460   38.2000 C   0  0  0  0  0  0  0  0  0  0  0  0
   34.8520   28.8830   37.2170 N   0  0  0  0  0  0  0  0  0  0  0  0
   35.1830   28.8360   35.9130 C   0  0  0  0  0  0  0  0  0  0  0  0
   34.2120   28.9640   34.9200 C   0  0  0  0  0  0  0  0  0  0  0  0
   32.8860   29.1420   35.2820 C   0  0  0  0  0  0  0  0  0  0  0  0
   31.9260   29.2690   34.4750 O   0  0  0  0  0  0  0  0  0  0  0  0
   32.6140   29.1820   36.6120 N   0  0  0  0  0  0  0  0  0  0  0  0
   33.5600   29.0570   37.5630 C   0  0  0  0  0  0  0  0  0  0  0  0
   33.2420   29.1030   38.7890 O   0  0  0  0  0  0  0  0  0  0  0  0
   36.8255   32.0011   41.3404 H   0  0  0  0  0  0  0  0  0  0  0  0
   37.9749   33.3915   39.6623 H   0  0  0  0  0  0  0  0  0  0  0  0
   38.2045   32.7073   37.3141 H   0  0  0  0  0  0  0  0  0  0  0  0
   37.2329   30.5248   36.6156 H   0  0  0  0  0  0  0  0  0  0  0  0
   35.0636   30.2577   41.5474 H   0  0  0  0  0  0  0  0  0  0  0  0
   35.0580   28.8784   40.3563 H   0  0  0  0  0  0  0  0  0  0  0  0
   38.9440   29.2207   44.0763 H   0  0  0  0  0  0  0  0  0  0  0  0
   38.9846   26.7348   43.9237 H   0  0  0  0  0  0  0  0  0  0  0  0
   36.6645   24.9431   41.5210 H   0  0  0  0  0  0  0  0  0  0  0  0
   37.9381   24.6798   42.7422 H   0  0  0  0  0  0  0  0  0  0  0  0
   36.6912   28.1068   37.7851 H   0  0  0  0  0  0  0  0  0  0  0  0
   35.4537   28.3019   39.1030 H   0  0  0  0  0  0  0  0  0  0  0  0
   36.2355   28.6945   35.6262 H   0  0  0  0  0  0  0  0  0  0  0  0
   34.4963   28.9240   33.8581 H   0  0  0  0  0  0  0  0  0  0  0  0
   31.6364   29.3144   36.9081 H   0  0  0  0  0  0  0  0  0  0  0  0
  1  2  2  0
  1  7  1  0
  3  2  1  0
  4  3  2  0
  5  4  1  0
  5  6  2  0
  6  1  1  0
  7 12  1  0
  9  8  2  0
 10  9  1  0
 11 12  1  0
 11 10  2  0
 12 13  2  0
 13  8  1  0
 14 10  1  0
 15  6  1  0
 16 22  1  0
 16 15  1  0
 17 16  1  0
 18 19  1  0
 18 17  2  0
 19 21  1  0
 20 19  2  0
 21 22  1  0
 22 23  2  0
  2 24  1  0
  3 25  1  0
  4 26  1  0
  5 27  1  0
  7 28  1  0
  7 29  1  0
  8 30  1  0
  9 31  1  0
 14 32  1  0
 14 33  1  0
 15 34  1  0
 15 35  1  0
 17 36  1  0
 18 37  1  0
 21 38  1  0
M  ISO  8  24  14  25  14  26  14  27  14  28   8  29   8  30  14  31  14
M  ISO  5  34   8  35   8  36  14  37  14  38   9
M  END
>  <minimizedAffinity>  (1) 
-5.53985119

>  <minimizedRMSD>  (1) 
2.18523645

$$$$
