
     RDKit          3D

 41 44  0  0  0  0  0  0  0  0999 V2000
   36.2980   30.2830   39.6470 C   0  0  0  0  0  0  0  0  0  0  0  0
   36.7350   31.5360   40.0370 C   0  0  0  0  0  0  0  0  0  0  0  0
   37.4010   32.3130   39.1170 C   0  0  0  0  0  0  0  0  0  0  0  0
   37.6630   31.9170   37.8200 C   0  0  0  0  0  0  0  0  0  0  0  0
   37.2230   30.6750   37.4510 C   0  0  0  0  0  0  0  0  0  0  0  0
   36.5510   29.8690   38.3490 C   0  0  0  0  0  0  0  0  0  0  0  0
   35.5810   29.4350   40.6200 C   0  0  0  0  0  0  0  0  0  0  0  0
   37.9910   28.8390   43.3530 C   0  0  0  0  0  0  0  0  0  0  0  0
   38.1490   27.4460   43.3340 C   0  0  0  0  0  0  0  0  0  0  0  0
   37.4130   26.7440   42.3700 C   0  0  0  0  0  0  0  0  0  0  0  0
   36.6250   27.4410   41.5490 N   0  0  0  0  0  0  0  0  0  0  0  0
   36.4930   28.7730   41.5890 C   0  0  0  0  0  0  0  0  0  0  0  0
   37.1860   29.4610   42.5020 N   0  0  0  0  0  0  0  0  0  0  0  0
   37.4590   25.3420   42.2190 N   0  0  0  0  0  0  0  0  0  0  0  0
   36.0620   28.5050   37.9630 C   0  0  0  0  0  0  0  0  0  0  0  0
   35.0820   28.6220   36.8990 N   0  0  0  0  0  0  0  0  0  0  0  0
   35.3370   28.3950   35.5880 C   0  0  0  0  0  0  0  0  0  0  0  0
   34.2370   28.5810   34.8350 N   0  0  0  0  0  0  0  0  0  0  0  0
   33.2380   28.9360   35.6570 C   0  0  0  0  0  0  0  0  0  0  0  0
   31.8970   29.2600   35.5260 C   0  0  0  0  0  0  0  0  0  0  0  0
   31.1120   29.5890   36.5810 N   0  0  0  0  0  0  0  0  0  0  0  0
   31.6850   29.5970   37.8160 C   0  0  0  0  0  0  0  0  0  0  0  0
   32.9970   29.2840   37.9740 N   0  0  0  0  0  0  0  0  0  0  0  0
   33.7810   28.9580   36.9470 C   0  0  0  0  0  0  0  0  0  0  0  0
   31.4410   29.2100   34.1820 N   0  0  0  0  0  0  0  0  0  0  0  0
   36.5545   31.9027   41.0583 H   0  0  0  0  0  0  0  0  0  0  0  0
   37.7452   33.3087   39.4334 H   0  0  0  0  0  0  0  0  0  0  0  0
   38.2004   32.5697   37.1164 H   0  0  0  0  0  0  0  0  0  0  0  0
   37.4065   30.3146   36.4281 H   0  0  0  0  0  0  0  0  0  0  0  0
   34.8714   30.0635   41.1781 H   0  0  0  0  0  0  0  0  0  0  0  0
   35.0676   28.6434   40.0544 H   0  0  0  0  0  0  0  0  0  0  0  0
   38.5492   29.4314   44.0929 H   0  0  0  0  0  0  0  0  0  0  0  0
   38.8167   26.9304   44.0399 H   0  0  0  0  0  0  0  0  0  0  0  0
   36.8936   24.8837   41.4902 H   0  0  0  0  0  0  0  0  0  0  0  0
   38.0580   24.7768   42.8375 H   0  0  0  0  0  0  0  0  0  0  0  0
   36.9100   27.8972   37.6144 H   0  0  0  0  0  0  0  0  0  0  0  0
   35.5976   28.0230   38.8359 H   0  0  0  0  0  0  0  0  0  0  0  0
   36.3180   28.0967   35.1897 H   0  0  0  0  0  0  0  0  0  0  0  0
   31.0787   29.8598   38.6954 H   0  0  0  0  0  0  0  0  0  0  0  0
   30.4594   29.4319   33.9626 H   0  0  0  0  0  0  0  0  0  0  0  0
   32.0919   28.9518   33.4266 H   0  0  0  0  0  0  0  0  0  0  0  0
  1  2  2  0
  1  7  1  0
  3  2  1  0
  4  3  2  0
  5  4  1  0
  5  6  2  0
  6  1  1  0
  7 12  1  0
  9  8  2  0
 10  9  1  0
 11 12  1  0
 11 10  2  0
 12 13  2  0
 13  8  1  0
 14 10  1  0
 15  6  1  0
 16 24  1  0
 16 15  1  0
 17 16  1  0
 18 17  2  0
 18 19  1  0
 19 24  2  0
 20 19  1  0
 20 21  2  0
 21 22  1  0
 22 23  2  0
 24 23  1  0
 25 20  1  0
  2 26  1  0
  3 27  1  0
  4 28  1  0
  5 29  1  0
  7 30  1  0
  7 31  1  0
  8 32  1  0
  9 33  1  0
 14 34  1  0
 14 35  1  0
 15 36  1  0
 15 37  1  0
 17 38  1  0
 22 39  1  0
 25 40  1  0
 25 41  1  0
M  ISO  8  26  14  27  14  28  14  29  14  30   8  31   8  32  14  33  14
M  ISO  4  36   8  37   8  38  14  39  14
M  END
>  <minimizedAffinity>  (1) 
-5.53402424

>  <minimizedRMSD>  (1) 
2.30042195

$$$$
