
     RDKit          3D

 36 38  0  0  0  0  0  0  0  0999 V2000
   36.3010   30.3320   39.9740 C   0  0  0  0  0  0  0  0  0  0  0  0
   36.6780   31.5590   40.4770 C   0  0  0  0  0  0  0  0  0  0  0  0
   37.2860   32.4650   39.6460 C   0  0  0  0  0  0  0  0  0  0  0  0
   37.5400   32.2030   38.3080 C   0  0  0  0  0  0  0  0  0  0  0  0
   37.1630   30.9780   37.8090 C   0  0  0  0  0  0  0  0  0  0  0  0
   36.5480   30.0600   38.6490 C   0  0  0  0  0  0  0  0  0  0  0  0
   35.6480   29.3380   40.8410 C   0  0  0  0  0  0  0  0  0  0  0  0
   38.1510   28.5820   43.4500 C   0  0  0  0  0  0  0  0  0  0  0  0
   38.3130   27.1960   43.3110 C   0  0  0  0  0  0  0  0  0  0  0  0
   37.5630   26.5650   42.3320 C   0  0  0  0  0  0  0  0  0  0  0  0
   36.7340   27.2950   41.5770 N   0  0  0  0  0  0  0  0  0  0  0  0
   36.5980   28.6330   41.7350 C   0  0  0  0  0  0  0  0  0  0  0  0
   37.3100   29.2690   42.6740 N   0  0  0  0  0  0  0  0  0  0  0  0
   37.6220   25.1740   42.0770 N   0  0  0  0  0  0  0  0  0  0  0  0
   36.1340   28.7240   38.1100 C   0  0  0  0  0  0  0  0  0  0  0  0
   35.0310   28.8970   37.1260 C   0  0  0  0  0  0  0  0  0  0  0  0
   33.7500   28.9800   37.6700 C   0  0  0  0  0  0  0  0  0  0  0  0
   32.6430   29.1410   36.8630 C   0  0  0  0  0  0  0  0  0  0  0  0
   32.8470   29.2150   35.5340 N   0  0  0  0  0  0  0  0  0  0  0  0
   34.1150   29.1290   35.0360 C   0  0  0  0  0  0  0  0  0  0  0  0
   35.2210   28.9720   35.7940 N   0  0  0  0  0  0  0  0  0  0  0  0
   36.4934   31.8084   41.5323 H   0  0  0  0  0  0  0  0  0  0  0  0
   37.5847   33.4402   40.0580 H   0  0  0  0  0  0  0  0  0  0  0  0
   38.0276   32.9514   37.6660 H   0  0  0  0  0  0  0  0  0  0  0  0
   37.3472   30.7281   36.7537 H   0  0  0  0  0  0  0  0  0  0  0  0
   34.8994   29.8525   41.4614 H   0  0  0  0  0  0  0  0  0  0  0  0
   35.1905   28.5816   40.1863 H   0  0  0  0  0  0  0  0  0  0  0  0
   38.7311   29.1159   44.2171 H   0  0  0  0  0  0  0  0  0  0  0  0
   39.0068   26.6332   43.9527 H   0  0  0  0  0  0  0  0  0  0  0  0
   37.0395   24.7614   41.3345 H   0  0  0  0  0  0  0  0  0  0  0  0
   38.2474   24.5744   42.6339 H   0  0  0  0  0  0  0  0  0  0  0  0
   36.9933   28.2476   37.6153 H   0  0  0  0  0  0  0  0  0  0  0  0
   35.7852   28.0903   38.9387 H   0  0  0  0  0  0  0  0  0  0  0  0
   33.6200   28.9161   38.7604 H   0  0  0  0  0  0  0  0  0  0  0  0
   31.6311   29.2065   37.2893 H   0  0  0  0  0  0  0  0  0  0  0  0
   34.2441   29.1917   33.9454 H   0  0  0  0  0  0  0  0  0  0  0  0
  1  2  2  0
  1  7  1  0
  3  2  1  0
  4  3  2  0
  5  4  1  0
  5  6  2  0
  6  1  1  0
  7 12  1  0
  9  8  2  0
 10  9  1  0
 11 12  1  0
 11 10  2  0
 12 13  2  0
 13  8  1  0
 14 10  1  0
 15  6  1  0
 16 17  2  0
 16 15  1  0
 18 17  1  0
 19 18  2  0
 20 19  1  0
 20 21  2  0
 21 16  1  0
  2 22  1  0
  3 23  1  0
  4 24  1  0
  5 25  1  0
  7 26  1  0
  7 27  1  0
  8 28  1  0
  9 29  1  0
 14 30  1  0
 14 31  1  0
 15 32  1  0
 15 33  1  0
 17 34  1  0
 18 35  1  0
 20 36  1  0
M  ISO  8  22  14  23  14  24  14  25  14  26   8  27   8  28  14  29  14
M  ISO  5  32   8  33   8  34  14  35  14  36  14
M  END
>  <minimizedAffinity>  (1) 
-5.49037409

>  <minimizedRMSD>  (1) 
1.69243622

$$$$
