
     RDKit          3D

 35 37  0  0  0  0  0  0  0  0999 V2000
   36.2940   30.3130   39.9450 C   0  0  0  0  0  0  0  0  0  0  0  0
   36.6570   31.5490   40.4540 C   0  0  0  0  0  0  0  0  0  0  0  0
   37.2680   32.4480   39.6090 C   0  0  0  0  0  0  0  0  0  0  0  0
   37.5350   32.1910   38.2930 C   0  0  0  0  0  0  0  0  0  0  0  0
   37.1700   30.9580   37.7970 C   0  0  0  0  0  0  0  0  0  0  0  0
   36.5540   30.0340   38.6270 C   0  0  0  0  0  0  0  0  0  0  0  0
   35.6380   29.3230   40.8200 C   0  0  0  0  0  0  0  0  0  0  0  0
   38.1330   28.6130   43.4490 C   0  0  0  0  0  0  0  0  0  0  0  0
   38.3120   27.2370   43.3420 C   0  0  0  0  0  0  0  0  0  0  0  0
   37.5630   26.5800   42.3600 C   0  0  0  0  0  0  0  0  0  0  0  0
   36.7390   27.3000   41.5990 N   0  0  0  0  0  0  0  0  0  0  0  0
   36.5890   28.6340   41.7290 C   0  0  0  0  0  0  0  0  0  0  0  0
   37.2910   29.2860   42.6590 N   0  0  0  0  0  0  0  0  0  0  0  0
   37.6230   25.1890   42.1170 N   0  0  0  0  0  0  0  0  0  0  0  0
   36.1510   28.6940   38.1060 C   0  0  0  0  0  0  0  0  0  0  0  0
   34.9470   28.8500   37.2810 C   0  0  0  0  0  0  0  0  0  0  0  0
   33.6160   28.9810   37.6480 C   0  0  0  0  0  0  0  0  0  0  0  0
   32.6620   29.1140   36.6800 C   0  0  0  0  0  0  0  0  0  0  0  0
   33.0860   29.1110   35.3390 C   0  0  0  0  0  0  0  0  0  0  0  0
   34.9610   28.9040   35.5150 S   0  0  0  0  0  0  0  0  0  0  0  0
   36.4622   31.8056   41.5058 H   0  0  0  0  0  0  0  0  0  0  0  0
   37.5576   33.4282   40.0156 H   0  0  0  0  0  0  0  0  0  0  0  0
   38.0233   32.9410   37.6534 H   0  0  0  0  0  0  0  0  0  0  0  0
   37.3671   30.7074   36.7442 H   0  0  0  0  0  0  0  0  0  0  0  0
   34.8820   29.8398   41.4295 H   0  0  0  0  0  0  0  0  0  0  0  0
   35.1878   28.5569   40.1716 H   0  0  0  0  0  0  0  0  0  0  0  0
   38.7040   29.1655   44.2097 H   0  0  0  0  0  0  0  0  0  0  0  0
   39.0081   26.6929   43.9973 H   0  0  0  0  0  0  0  0  0  0  0  0
   37.0427   24.7701   41.3763 H   0  0  0  0  0  0  0  0  0  0  0  0
   38.2470   24.5942   42.6806 H   0  0  0  0  0  0  0  0  0  0  0  0
   36.9649   28.2741   37.4967 H   0  0  0  0  0  0  0  0  0  0  0  0
   35.9436   28.0136   38.9451 H   0  0  0  0  0  0  0  0  0  0  0  0
   33.3310   28.9778   38.7104 H   0  0  0  0  0  0  0  0  0  0  0  0
   31.5985   29.2198   36.9401 H   0  0  0  0  0  0  0  0  0  0  0  0
   32.4837   29.2047   34.4233 H   0  0  0  0  0  0  0  0  0  0  0  0
  1  2  2  0
  1  7  1  0
  3  2  1  0
  4  3  2  0
  5  4  1  0
  5  6  2  0
  6  1  1  0
  7 12  1  0
  9  8  2  0
 10  9  1  0
 11 12  1  0
 11 10  2  0
 12 13  2  0
 13  8  1  0
 14 10  1  0
 15  6  1  0
 16 17  2  0
 16 15  1  0
 18 17  1  0
 19 20  1  0
 19 18  2  0
 20 16  1  0
  2 21  1  0
  3 22  1  0
  4 23  1  0
  5 24  1  0
  7 25  1  0
  7 26  1  0
  8 27  1  0
  9 28  1  0
 14 29  1  0
 14 30  1  0
 15 31  1  0
 15 32  1  0
 17 33  1  0
 18 34  1  0
 19 35  1  0
M  ISO  8  21  14  22  14  23  14  24  14  25   8  26   8  27  14  28  14
M  ISO  5  31   8  32   8  33  14  34  14  35  14
M  END
>  <minimizedAffinity>  (1) 
-5.43389225

>  <minimizedRMSD>  (1) 
1.78260386

$$$$
