
     RDKit          3D

 35 37  0  0  0  0  0  0  0  0999 V2000
   36.3180   30.3670   39.7990 C   0  0  0  0  0  0  0  0  0  0  0  0
   36.7850   31.6000   40.2200 C   0  0  0  0  0  0  0  0  0  0  0  0
   37.4310   32.3960   39.3080 C   0  0  0  0  0  0  0  0  0  0  0  0
   37.6370   32.0370   38.0010 C   0  0  0  0  0  0  0  0  0  0  0  0
   37.1690   30.8120   37.5960 C   0  0  0  0  0  0  0  0  0  0  0  0
   36.5120   29.9790   38.4930 C   0  0  0  0  0  0  0  0  0  0  0  0
   35.6150   29.4720   40.7520 C   0  0  0  0  0  0  0  0  0  0  0  0
   38.0930   28.7590   43.3930 C   0  0  0  0  0  0  0  0  0  0  0  0
   38.2060   27.3790   43.3380 C   0  0  0  0  0  0  0  0  0  0  0  0
   37.4280   26.7020   42.3920 C   0  0  0  0  0  0  0  0  0  0  0  0
   36.6250   27.4310   41.6000 N   0  0  0  0  0  0  0  0  0  0  0  0
   36.5370   28.7750   41.6790 C   0  0  0  0  0  0  0  0  0  0  0  0
   37.2760   29.4510   42.5820 N   0  0  0  0  0  0  0  0  0  0  0  0
   37.4330   25.3120   42.2170 N   0  0  0  0  0  0  0  0  0  0  0  0
   35.9970   28.6420   38.0620 C   0  0  0  0  0  0  0  0  0  0  0  0
   34.7780   28.8310   37.2010 C   0  0  0  0  0  0  0  0  0  0  0  0
   33.4870   28.9100   37.6900 C   0  0  0  0  0  0  0  0  0  0  0  0
   32.6330   29.0820   36.6360 C   0  0  0  0  0  0  0  0  0  0  0  0
   33.4540   29.1020   35.5210 C   0  0  0  0  0  0  0  0  0  0  0  0
   34.6910   28.9520   35.9030 O   0  0  0  0  0  0  0  0  0  0  0  0
   36.6420   31.9331   41.2586 H   0  0  0  0  0  0  0  0  0  0  0  0
   37.8037   33.3750   39.6436 H   0  0  0  0  0  0  0  0  0  0  0  0
   38.1588   32.7069   37.3018 H   0  0  0  0  0  0  0  0  0  0  0  0
   37.3150   30.4878   36.5550 H   0  0  0  0  0  0  0  0  0  0  0  0
   34.9112   30.0747   41.3448 H   0  0  0  0  0  0  0  0  0  0  0  0
   35.0987   28.7017   40.1603 H   0  0  0  0  0  0  0  0  0  0  0  0
   38.6962   29.3095   44.1299 H   0  0  0  0  0  0  0  0  0  0  0  0
   38.8828   26.8353   44.0135 H   0  0  0  0  0  0  0  0  0  0  0  0
   36.8329   24.8811   41.4992 H   0  0  0  0  0  0  0  0  0  0  0  0
   38.0367   24.7209   42.8061 H   0  0  0  0  0  0  0  0  0  0  0  0
   36.7744   28.1168   37.4876 H   0  0  0  0  0  0  0  0  0  0  0  0
   35.7326   28.0465   38.9483 H   0  0  0  0  0  0  0  0  0  0  0  0
   33.1959   28.8454   38.7488 H   0  0  0  0  0  0  0  0  0  0  0  0
   31.5380   29.1821   36.6669 H   0  0  0  0  0  0  0  0  0  0  0  0
   33.1167   29.2246   34.4812 H   0  0  0  0  0  0  0  0  0  0  0  0
  1  2  2  0
  1  7  1  0
  3  2  1  0
  4  3  2  0
  5  4  1  0
  5  6  2  0
  6  1  1  0
  7 12  1  0
  9  8  2  0
 10  9  1  0
 11 12  1  0
 11 10  2  0
 12 13  2  0
 13  8  1  0
 14 10  1  0
 15  6  1  0
 16 17  2  0
 16 15  1  0
 18 17  1  0
 19 20  1  0
 19 18  2  0
 20 16  1  0
  2 21  1  0
  3 22  1  0
  4 23  1  0
  5 24  1  0
  7 25  1  0
  7 26  1  0
  8 27  1  0
  9 28  1  0
 14 29  1  0
 14 30  1  0
 15 31  1  0
 15 32  1  0
 17 33  1  0
 18 34  1  0
 19 35  1  0
M  ISO  8  21  14  22  14  23  14  24  14  25   8  26   8  27  14  28  14
M  ISO  5  31   8  32   8  33  14  34  14  35  14
M  END
>  <minimizedAffinity>  (1) 
-5.42260313

>  <minimizedRMSD>  (1) 
1.56308079

$$$$
