
     RDKit          3D

 38 40  0  0  1  0  0  0  0  0999 V2000
   39.1840   26.0200   42.2610 C   0  0  1  0  0  0  0  0  0  0  0  0
   38.9790   24.6300   41.6130 C   0  0  0  0  0  0  0  0  0  0  0  0
   37.5850   24.2260   41.9950 C   0  0  0  0  0  0  0  0  0  0  0  0
   36.9130   25.5860   42.1830 C   0  0  0  0  0  0  0  0  0  0  0  0
   37.9610   26.2600   43.0510 C   0  0  2  0  0  0  0  0  0  0  0  0
   41.9170   26.9850   44.6690 C   0  0  0  0  0  0  0  0  0  0  0  0
   40.6650   26.9860   44.0440 C   0  0  0  0  0  0  0  0  0  0  0  0
   40.4430   26.0940   42.9790 C   0  0  0  0  0  0  0  0  0  0  0  0
   41.4520   25.2680   42.6010 N   0  0  0  0  0  0  0  0  0  0  0  0
   42.6440   25.2810   43.2130 C   0  0  0  0  0  0  0  0  0  0  0  0
   42.8810   26.1350   44.2440 N   0  0  0  0  0  0  0  0  0  0  0  0
   37.4980   27.6590   43.1660 C   0  0  2  0  0  0  0  0  0  0  0  0
   36.8460   28.0350   44.4500 C   0  0  0  0  0  0  0  0  0  0  0  0
   36.5050   27.8870   42.0350 C   0  0  0  0  0  0  0  0  0  0  0  0
   36.8500   29.2340   41.5750 N   0  0  0  0  0  0  0  0  0  0  0  0
   38.0790   29.8010   41.5640 C   0  0  0  0  0  0  0  0  0  0  0  0
   38.0350   31.0520   41.0740 N   0  0  0  0  0  0  0  0  0  0  0  0
   36.7450   31.2780   40.7690 C   0  0  0  0  0  0  0  0  0  0  0  0
   36.0360   30.1780   41.0740 N   0  0  0  0  0  0  0  0  0  0  0  0
   39.2958   26.8363   41.5322 H   0  0  0  0  0  0  0  0  0  0  0  0
   39.7116   23.9089   42.0045 H   0  0  0  0  0  0  0  0  0  0  0  0
   39.1171   24.6579   40.5221 H   0  0  0  0  0  0  0  0  0  0  0  0
   37.1014   23.6462   41.1950 H   0  0  0  0  0  0  0  0  0  0  0  0
   37.5339   23.5748   42.8801 H   0  0  0  0  0  0  0  0  0  0  0  0
   36.7720   26.1107   41.2265 H   0  0  0  0  0  0  0  0  0  0  0  0
   35.8993   25.5545   42.6090 H   0  0  0  0  0  0  0  0  0  0  0  0
   38.1359   25.9193   44.0822 H   0  0  0  0  0  0  0  0  0  0  0  0
   42.1173   27.6731   45.5035 H   0  0  0  0  0  0  0  0  0  0  0  0
   39.8710   27.6699   44.3784 H   0  0  0  0  0  0  0  0  0  0  0  0
   43.4367   24.5956   42.8787 H   0  0  0  0  0  0  0  0  0  0  0  0
   38.3982   28.2892   43.1174 H   0  0  0  0  0  0  0  0  0  0  0  0
   37.4604   27.6807   45.2908 H   0  0  0  0  0  0  0  0  0  0  0  0
   36.7465   29.1292   44.5041 H   0  0  0  0  0  0  0  0  0  0  0  0
   35.8492   27.5731   44.5041 H   0  0  0  0  0  0  0  0  0  0  0  0
   36.6398   27.1466   41.2327 H   0  0  0  0  0  0  0  0  0  0  0  0
   35.4550   27.7864   42.3472 H   0  0  0  0  0  0  0  0  0  0  0  0
   38.9959   29.3023   41.9113 H   0  0  0  0  0  0  0  0  0  0  0  0
   36.3387   32.2067   40.3419 H   0  0  0  0  0  0  0  0  0  0  0  0
  1  8  1  0
  1  5  1  0
  2  3  1  0
  2  1  1  0
  3  4  1  0
  4  5  1  0
  5 12  1  0
  7  6  2  0
  8  7  1  0
  9  8  2  0
  9 10  1  0
 10 11  2  0
 11  6  1  0
 12 13  1  0
 14 12  1  0
 15 14  1  0
 16 15  1  0
 17 16  2  0
 18 19  2  0
 18 17  1  0
 19 15  1  0
  1 20  1  6
  2 21  1  0
  2 22  1  0
  3 23  1  0
  3 24  1  0
  4 25  1  0
  4 26  1  0
  5 27  1  1
  6 28  1  0
  7 29  1  0
 10 30  1  0
 12 31  1  6
 13 32  1  0
 13 33  1  0
 13 34  1  0
 14 35  1  0
 14 36  1  0
 16 37  1  0
 18 38  1  0
M  ISO  8  20  13  21  13  22  13  23  13  24  13  25  13  26  13  27  13
M  ISO  8  28  14  29  14  30  14  31   8  32   8  33   8  34   8  35   8
M  ISO  3  36   8  37  14  38  14
M  END
>  <minimizedAffinity>  (1) 
-5.23815012

>  <minimizedRMSD>  (1) 
0.972045064

$$$$
