
     RDKit          3D

 41 43  0  0  0  0  0  0  0  0999 V2000
   36.3600   30.4300   39.9760 C   0  0  0  0  0  0  0  0  0  0  0  0
   36.7560   31.6090   40.5770 C   0  0  0  0  0  0  0  0  0  0  0  0
   37.3790   32.5490   39.8000 C   0  0  0  0  0  0  0  0  0  0  0  0
   37.6310   32.3870   38.4670 C   0  0  0  0  0  0  0  0  0  0  0  0
   37.2330   31.2140   37.8900 C   0  0  0  0  0  0  0  0  0  0  0  0
   36.6030   30.2360   38.6220 C   0  0  0  0  0  0  0  0  0  0  0  0
   35.6810   29.3980   40.7990 C   0  0  0  0  0  0  0  0  0  0  0  0
   38.0830   28.7140   43.5120 C   0  0  0  0  0  0  0  0  0  0  0  0
   38.2710   27.3350   43.4340 C   0  0  0  0  0  0  0  0  0  0  0  0
   37.5590   26.6770   42.4420 C   0  0  0  0  0  0  0  0  0  0  0  0
   36.7540   27.3750   41.6360 N   0  0  0  0  0  0  0  0  0  0  0  0
   36.5960   28.7060   41.7370 C   0  0  0  0  0  0  0  0  0  0  0  0
   37.2660   29.3780   42.6830 N   0  0  0  0  0  0  0  0  0  0  0  0
   37.6240   25.2800   42.2150 N   0  0  0  0  0  0  0  0  0  0  0  0
   36.1600   28.9520   38.0190 C   0  0  0  0  0  0  0  0  0  0  0  0
   34.9840   29.1930   37.2470 N   0  0  0  0  0  0  0  0  0  0  0  0
   35.1750   28.7940   35.8770 C   0  0  0  0  0  0  0  0  0  0  0  0
   33.9590   28.8280   35.0310 C   0  0  0  0  0  0  0  0  0  0  0  0
   32.7580   28.6550   35.6610 O   0  0  0  0  0  0  0  0  0  0  0  0
   32.6520   29.1960   36.9230 C   0  0  0  0  0  0  0  0  0  0  0  0
   33.7930   28.5610   37.7300 C   0  0  0  0  0  0  0  0  0  0  0  0
   36.5764   31.7875   41.6475 H   0  0  0  0  0  0  0  0  0  0  0  0
   37.6948   33.4887   40.2766 H   0  0  0  0  0  0  0  0  0  0  0  0
   38.1345   33.1701   37.8812 H   0  0  0  0  0  0  0  0  0  0  0  0
   37.4205   31.0492   36.8187 H   0  0  0  0  0  0  0  0  0  0  0  0
   34.8844   29.8837   41.3817 H   0  0  0  0  0  0  0  0  0  0  0  0
   35.2834   28.6387   40.1094 H   0  0  0  0  0  0  0  0  0  0  0  0
   38.6263   29.2789   44.2838 H   0  0  0  0  0  0  0  0  0  0  0  0
   38.9448   26.7998   44.1192 H   0  0  0  0  0  0  0  0  0  0  0  0
   37.0679   24.8546   41.4595 H   0  0  0  0  0  0  0  0  0  0  0  0
   38.2273   24.6898   42.8054 H   0  0  0  0  0  0  0  0  0  0  0  0
   36.9541   28.5539   37.3702 H   0  0  0  0  0  0  0  0  0  0  0  0
   35.9459   28.2191   38.8109 H   0  0  0  0  0  0  0  0  0  0  0  0
   35.9201   29.4672   35.4279 H   0  0  0  0  0  0  0  0  0  0  0  0
   35.4935   27.7416   35.9088 H   0  0  0  0  0  0  0  0  0  0  0  0
   34.0563   28.0317   34.2784 H   0  0  0  0  0  0  0  0  0  0  0  0
   33.9231   29.8495   34.6245 H   0  0  0  0  0  0  0  0  0  0  0  0
   32.7682   30.2892   36.8851 H   0  0  0  0  0  0  0  0  0  0  0  0
   31.6688   28.9971   37.3744 H   0  0  0  0  0  0  0  0  0  0  0  0
   33.8329   27.4757   37.5552 H   0  0  0  0  0  0  0  0  0  0  0  0
   33.6609   28.7006   38.8131 H   0  0  0  0  0  0  0  0  0  0  0  0
  1  2  2  0
  1  7  1  0
  3  2  1  0
  4  3  2  0
  5  4  1  0
  5  6  2  0
  6  1  1  0
  7 12  1  0
  9  8  2  0
 10  9  1  0
 11 12  1  0
 11 10  2  0
 12 13  2  0
 13  8  1  0
 14 10  1  0
 15  6  1  0
 16 21  1  0
 16 15  1  0
 17 16  1  0
 18 19  1  0
 18 17  1  0
 19 20  1  0
 20 21  1  0
  2 22  1  0
  3 23  1  0
  4 24  1  0
  5 25  1  0
  7 26  1  0
  7 27  1  0
  8 28  1  0
  9 29  1  0
 14 30  1  0
 14 31  1  0
 15 32  1  0
 15 33  1  0
 17 34  1  0
 17 35  1  0
 18 36  1  0
 18 37  1  0
 20 38  1  0
 20 39  1  0
 21 40  1  0
 21 41  1  0
M  ISO  8  22  14  23  14  24  14  25  14  26   8  27   8  28  14  29  14
M  ISO  8  32   8  33   8  34  13  35  13  36  13  37  13  38  13  39  13
M  ISO  2  40  13  41  13
M  END
>  <minimizedAffinity>  (1) 
-5.32836151

>  <minimizedRMSD>  (1) 
1.11693871

$$$$
