
     RDKit          3D

 35 37  0  0  0  0  0  0  0  0999 V2000
   36.2860   30.2820   39.8890 C   0  0  0  0  0  0  0  0  0  0  0  0
   36.6730   31.5260   40.3760 C   0  0  0  0  0  0  0  0  0  0  0  0
   37.2890   32.3840   39.4950 C   0  0  0  0  0  0  0  0  0  0  0  0
   37.5400   32.0810   38.1750 C   0  0  0  0  0  0  0  0  0  0  0  0
   37.1500   30.8490   37.7160 C   0  0  0  0  0  0  0  0  0  0  0  0
   36.5280   29.9530   38.5640 C   0  0  0  0  0  0  0  0  0  0  0  0
   35.6210   29.3280   40.8210 C   0  0  0  0  0  0  0  0  0  0  0  0
   38.1560   28.6490   43.4420 C   0  0  0  0  0  0  0  0  0  0  0  0
   38.3290   27.2640   43.3390 C   0  0  0  0  0  0  0  0  0  0  0  0
   37.5740   26.6140   42.3780 C   0  0  0  0  0  0  0  0  0  0  0  0
   36.7430   27.3340   41.6250 N   0  0  0  0  0  0  0  0  0  0  0  0
   36.5820   28.6540   41.7290 C   0  0  0  0  0  0  0  0  0  0  0  0
   37.3030   29.3030   42.6510 N   0  0  0  0  0  0  0  0  0  0  0  0
   37.6320   25.2140   42.1480 N   0  0  0  0  0  0  0  0  0  0  0  0
   36.0780   28.6050   38.1010 C   0  0  0  0  0  0  0  0  0  0  0  0
   34.9280   28.8070   37.2230 N   0  0  0  0  0  0  0  0  0  0  0  0
   34.8260   28.9300   35.9080 N   0  0  0  0  0  0  0  0  0  0  0  0
   33.5150   29.1080   35.5860 C   0  0  0  0  0  0  0  0  0  0  0  0
   32.7240   29.1030   36.7300 C   0  0  0  0  0  0  0  0  0  0  0  0
   33.6590   28.9120   37.7240 C   0  0  0  0  0  0  0  0  0  0  0  0
   36.4937   31.8120   41.4229 H   0  0  0  0  0  0  0  0  0  0  0  0
   37.5999   33.3714   39.8669 H   0  0  0  0  0  0  0  0  0  0  0  0
   38.0369   32.8035   37.5109 H   0  0  0  0  0  0  0  0  0  0  0  0
   37.3334   30.5727   36.6672 H   0  0  0  0  0  0  0  0  0  0  0  0
   34.8902   29.8812   41.4292 H   0  0  0  0  0  0  0  0  0  0  0  0
   35.1363   28.5505   40.2122 H   0  0  0  0  0  0  0  0  0  0  0  0
   38.7350   29.2100   44.1903 H   0  0  0  0  0  0  0  0  0  0  0  0
   39.0297   26.7194   43.9890 H   0  0  0  0  0  0  0  0  0  0  0  0
   37.0448   24.7874   41.4172 H   0  0  0  0  0  0  0  0  0  0  0  0
   38.2612   24.6251   42.7120 H   0  0  0  0  0  0  0  0  0  0  0  0
   36.8890   28.1065   37.5499 H   0  0  0  0  0  0  0  0  0  0  0  0
   35.8065   27.9704   38.9575 H   0  0  0  0  0  0  0  0  0  0  0  0
   33.1340   29.2378   34.5623 H   0  0  0  0  0  0  0  0  0  0  0  0
   31.6339   29.2210   36.8184 H   0  0  0  0  0  0  0  0  0  0  0  0
   33.4140   28.8511   38.7946 H   0  0  0  0  0  0  0  0  0  0  0  0
  1  2  2  0
  1  7  1  0
  3  2  1  0
  4  3  2  0
  5  4  1  0
  5  6  2  0
  6  1  1  0
  7 12  1  0
  9  8  2  0
 10  9  1  0
 11 12  1  0
 11 10  2  0
 12 13  2  0
 13  8  1  0
 14 10  1  0
 15  6  1  0
 16 20  1  0
 16 15  1  0
 17 16  1  0
 18 17  2  0
 18 19  1  0
 19 20  2  0
  2 21  1  0
  3 22  1  0
  4 23  1  0
  5 24  1  0
  7 25  1  0
  7 26  1  0
  8 27  1  0
  9 28  1  0
 14 29  1  0
 14 30  1  0
 15 31  1  0
 15 32  1  0
 18 33  1  0
 19 34  1  0
 20 35  1  0
M  ISO  8  21  14  22  14  23  14  24  14  25   8  26   8  27  14  28  14
M  ISO  5  31   8  32   8  33  14  34  14  35  14
M  END
>  <minimizedAffinity>  (1) 
-5.25173473

>  <minimizedRMSD>  (1) 
1.85527563

$$$$
