
     RDKit          3D

 33 35  0  0  0  0  0  0  0  0999 V2000
   36.2920   30.3360   40.0300 C   0  0  0  0  0  0  0  0  0  0  0  0
   36.7150   31.5460   40.5670 C   0  0  0  0  0  0  0  0  0  0  0  0
   37.3290   32.4640   39.7390 C   0  0  0  0  0  0  0  0  0  0  0  0
   37.5460   32.2430   38.4010 C   0  0  0  0  0  0  0  0  0  0  0  0
   37.1220   31.0350   37.8700 C   0  0  0  0  0  0  0  0  0  0  0  0
   36.5070   30.1100   38.6860 C   0  0  0  0  0  0  0  0  0  0  0  0
   35.6350   29.3470   40.9020 C   0  0  0  0  0  0  0  0  0  0  0  0
   38.1750   28.4350   43.4400 C   0  0  0  0  0  0  0  0  0  0  0  0
   38.3650   27.0640   43.2070 C   0  0  0  0  0  0  0  0  0  0  0  0
   37.6150   26.5010   42.1840 C   0  0  0  0  0  0  0  0  0  0  0  0
   36.7710   27.2680   41.4920 N   0  0  0  0  0  0  0  0  0  0  0  0
   36.6060   28.5850   41.7380 C   0  0  0  0  0  0  0  0  0  0  0  0
   37.3140   29.1560   42.7160 N   0  0  0  0  0  0  0  0  0  0  0  0
   37.6870   25.1350   41.8210 N   0  0  0  0  0  0  0  0  0  0  0  0
   36.0400   28.8020   38.1410 C   0  0  0  0  0  0  0  0  0  0  0  0
   34.7460   28.9390   37.4230 C   0  0  0  0  0  0  0  0  0  0  0  0
   34.6460   29.0820   36.1010 N   0  0  0  0  0  0  0  0  0  0  0  0
   33.4120   29.1740   35.7830 O   0  0  0  0  0  0  0  0  0  0  0  0
   32.6730   29.0980   36.8470 C   0  0  0  0  0  0  0  0  0  0  0  0
   33.4880   28.9480   37.9070 N   0  0  0  0  0  0  0  0  0  0  0  0
   36.5631   31.7683   41.6335 H   0  0  0  0  0  0  0  0  0  0  0  0
   37.6607   33.4193   40.1720 H   0  0  0  0  0  0  0  0  0  0  0  0
   38.0394   32.9988   37.7723 H   0  0  0  0  0  0  0  0  0  0  0  0
   37.2755   30.8157   36.8031 H   0  0  0  0  0  0  0  0  0  0  0  0
   34.9349   29.8738   41.5671 H   0  0  0  0  0  0  0  0  0  0  0  0
   35.1148   28.6256   40.2547 H   0  0  0  0  0  0  0  0  0  0  0  0
   38.7491   28.9281   44.2383 H   0  0  0  0  0  0  0  0  0  0  0  0
   39.0709   26.4675   43.8036 H   0  0  0  0  0  0  0  0  0  0  0  0
   37.1044   24.7752   41.0515 H   0  0  0  0  0  0  0  0  0  0  0  0
   38.3220   24.5006   42.3263 H   0  0  0  0  0  0  0  0  0  0  0  0
   36.7968   28.4158   37.4423 H   0  0  0  0  0  0  0  0  0  0  0  0
   35.8942   28.1105   38.9839 H   0  0  0  0  0  0  0  0  0  0  0  0
   31.5745   29.1475   36.8770 H   0  0  0  0  0  0  0  0  0  0  0  0
  1  2  2  0
  1  7  1  0
  3  2  1  0
  4  3  2  0
  5  4  1  0
  5  6  2  0
  6  1  1  0
  7 12  1  0
  9  8  2  0
 10  9  1  0
 11 12  1  0
 11 10  2  0
 12 13  2  0
 13  8  1  0
 14 10  1  0
 15  6  1  0
 16 20  1  0
 16 15  1  0
 17 16  2  0
 18 17  1  0
 18 19  1  0
 19 20  2  0
  2 21  1  0
  3 22  1  0
  4 23  1  0
  5 24  1  0
  7 25  1  0
  7 26  1  0
  8 27  1  0
  9 28  1  0
 14 29  1  0
 14 30  1  0
 15 31  1  0
 15 32  1  0
 19 33  1  0
M  ISO  8  21  14  22  14  23  14  24  14  25   8  26   8  27  14  28  14
M  ISO  3  31   8  32   8  33  14
M  END
>  <minimizedAffinity>  (1) 
-5.21843767

>  <minimizedRMSD>  (1) 
1.72962332

$$$$
