
     RDKit          3D

 44 46  0  0  1  0  0  0  0  0999 V2000
   39.3250   26.1740   42.2860 C   0  0  1  0  0  0  0  0  0  0  0  0
   39.0230   24.8280   41.6070 C   0  0  0  0  0  0  0  0  0  0  0  0
   37.6370   24.4840   42.0080 C   0  0  0  0  0  0  0  0  0  0  0  0
   37.0390   25.8510   42.2880 C   0  0  0  0  0  0  0  0  0  0  0  0
   38.1630   26.4390   43.1420 C   0  0  2  0  0  0  0  0  0  0  0  0
   42.1840   26.7950   44.6960 C   0  0  0  0  0  0  0  0  0  0  0  0
   40.9040   26.9180   44.1500 C   0  0  0  0  0  0  0  0  0  0  0  0
   40.6140   26.1630   42.9910 C   0  0  0  0  0  0  0  0  0  0  0  0
   41.5750   25.3490   42.4500 N   0  0  0  0  0  0  0  0  0  0  0  0
   42.8030   25.2710   43.0290 C   0  0  0  0  0  0  0  0  0  0  0  0
   43.1010   25.9930   44.1460 N   0  0  0  0  0  0  0  0  0  0  0  0
   37.7770   27.8580   43.3590 C   0  0  2  0  0  0  0  0  0  0  0  0
   36.7940   28.0890   44.4820 C   0  0  0  0  0  0  0  0  0  0  0  0
   37.1020   28.3050   42.0980 C   0  0  0  0  0  0  0  0  0  0  0  0
   37.1340   29.7890   42.1910 N   0  0  0  0  0  0  0  0  0  0  0  0
   36.2220   30.3500   41.2140 C   0  0  0  0  0  0  0  0  0  0  0  0
   36.9620   31.2700   40.3140 C   0  0  0  0  0  0  0  0  0  0  0  0
   38.3370   31.3850   40.8770 C   0  0  0  0  0  0  0  0  0  0  0  0
   38.4580   30.2220   41.8070 C   0  0  0  0  0  0  0  0  0  0  0  0
   39.4543   26.9920   41.5620 H   0  0  0  0  0  0  0  0  0  0  0  0
   39.7262   24.0563   41.9535 H   0  0  0  0  0  0  0  0  0  0  0  0
   39.1281   24.8898   40.5138 H   0  0  0  0  0  0  0  0  0  0  0  0
   37.1012   23.9727   41.1947 H   0  0  0  0  0  0  0  0  0  0  0  0
   37.5817   23.7931   42.8622 H   0  0  0  0  0  0  0  0  0  0  0  0
   36.8789   26.4272   41.3648 H   0  0  0  0  0  0  0  0  0  0  0  0
   36.0447   25.8430   42.7584 H   0  0  0  0  0  0  0  0  0  0  0  0
   38.3680   26.0453   44.1485 H   0  0  0  0  0  0  0  0  0  0  0  0
   42.4426   27.3701   45.5973 H   0  0  0  0  0  0  0  0  0  0  0  0
   40.1503   27.5776   44.6050 H   0  0  0  0  0  0  0  0  0  0  0  0
   43.5681   24.6147   42.5888 H   0  0  0  0  0  0  0  0  0  0  0  0
   38.6932   28.4059   43.6245 H   0  0  0  0  0  0  0  0  0  0  0  0
   37.3061   27.9687   45.4481 H   0  0  0  0  0  0  0  0  0  0  0  0
   36.3854   29.1076   44.4079 H   0  0  0  0  0  0  0  0  0  0  0  0
   35.9745   27.3590   44.4079 H   0  0  0  0  0  0  0  0  0  0  0  0
   36.0665   27.9365   42.0550 H   0  0  0  0  0  0  0  0  0  0  0  0
   37.5940   27.9230   41.1914 H   0  0  0  0  0  0  0  0  0  0  0  0
   35.7756   29.5381   40.6211 H   0  0  0  0  0  0  0  0  0  0  0  0
   35.4274   30.9064   41.7327 H   0  0  0  0  0  0  0  0  0  0  0  0
   36.4750   32.2561   40.2924 H   0  0  0  0  0  0  0  0  0  0  0  0
   36.9818   30.8911   39.2815 H   0  0  0  0  0  0  0  0  0  0  0  0
   39.0907   31.3243   40.0781 H   0  0  0  0  0  0  0  0  0  0  0  0
   38.5022   32.3464   41.3853 H   0  0  0  0  0  0  0  0  0  0  0  0
   38.9836   29.3984   41.3016 H   0  0  0  0  0  0  0  0  0  0  0  0
   39.0269   30.5176   42.7008 H   0  0  0  0  0  0  0  0  0  0  0  0
  1  8  1  0
  1  5  1  0
  2  3  1  0
  2  1  1  0
  3  4  1  0
  4  5  1  0
  5 12  1  0
  7  6  2  0
  8  7  1  0
  9  8  2  0
  9 10  1  0
 10 11  2  0
 11  6  1  0
 12 13  1  0
 14 15  1  0
 14 12  1  0
 16 15  1  0
 17 18  1  0
 17 16  1  0
 18 19  1  0
 19 15  1  0
  1 20  1  6
  2 21  1  0
  2 22  1  0
  3 23  1  0
  3 24  1  0
  4 25  1  0
  4 26  1  0
  5 27  1  1
  6 28  1  0
  7 29  1  0
 10 30  1  0
 12 31  1  1
 13 32  1  0
 13 33  1  0
 13 34  1  0
 14 35  1  0
 14 36  1  0
 16 37  1  0
 16 38  1  0
 17 39  1  0
 17 40  1  0
 18 41  1  0
 18 42  1  0
 19 43  1  0
 19 44  1  0
M  ISO  8  20  13  21  13  22  13  23  13  24  13  25  13  26  13  27  13
M  ISO  8  28  14  29  14  30  14  31   8  32   8  33   8  34   8  35   8
M  ISO  8  36   8  37  13  38  13  39  13  40  13  41  13  42  13  43  13
M  ISO  1  44  13
M  END
>  <minimizedAffinity>  (1) 
-5.22833395

>  <minimizedRMSD>  (1) 
0.82812649

$$$$
