
     RDKit          3D

 40 42  0  0  0  0  0  0  0  0999 V2000
   36.3150   30.3670   40.0660 C   0  0  0  0  0  0  0  0  0  0  0  0
   36.7260   31.5120   40.7210 C   0  0  0  0  0  0  0  0  0  0  0  0
   37.3580   32.4840   39.9910 C   0  0  0  0  0  0  0  0  0  0  0  0
   37.6050   32.3800   38.6400 C   0  0  0  0  0  0  0  0  0  0  0  0
   37.1910   31.2340   37.9890 C   0  0  0  0  0  0  0  0  0  0  0  0
   36.5540   30.2470   38.7140 C   0  0  0  0  0  0  0  0  0  0  0  0
   35.6270   29.2960   40.8310 C   0  0  0  0  0  0  0  0  0  0  0  0
   38.0070   28.2540   43.4670 C   0  0  0  0  0  0  0  0  0  0  0  0
   38.2640   26.9250   43.1280 C   0  0  0  0  0  0  0  0  0  0  0  0
   37.6100   26.4170   41.9970 C   0  0  0  0  0  0  0  0  0  0  0  0
   36.7900   27.2250   41.3190 N   0  0  0  0  0  0  0  0  0  0  0  0
   36.5630   28.5080   41.6730 C   0  0  0  0  0  0  0  0  0  0  0  0
   37.1740   29.0150   42.7460 N   0  0  0  0  0  0  0  0  0  0  0  0
   37.7630   25.0880   41.5190 N   0  0  0  0  0  0  0  0  0  0  0  0
   36.1000   29.0010   38.0340 C   0  0  0  0  0  0  0  0  0  0  0  0
   34.9950   29.2360   37.1400 N   0  0  0  0  0  0  0  0  0  0  0  0
   35.2310   28.7630   35.8020 C   0  0  0  0  0  0  0  0  0  0  0  0
   33.8600   28.3170   35.3040 C   0  0  0  0  0  0  0  0  0  0  0  0
   33.2520   27.7100   36.5480 C   0  0  0  0  0  0  0  0  0  0  0  0
   33.8150   28.5720   37.6470 C   0  0  0  0  0  0  0  0  0  0  0  0
   36.5505   31.6397   41.7994 H   0  0  0  0  0  0  0  0  0  0  0  0
   37.6856   33.3960   40.5116 H   0  0  0  0  0  0  0  0  0  0  0  0
   38.1173   33.1865   38.0949 H   0  0  0  0  0  0  0  0  0  0  0  0
   37.3662   31.1100   36.9101 H   0  0  0  0  0  0  0  0  0  0  0  0
   34.8703   29.7579   41.4821 H   0  0  0  0  0  0  0  0  0  0  0  0
   35.1697   28.6075   40.1051 H   0  0  0  0  0  0  0  0  0  0  0  0
   38.5013   28.6875   44.3489 H   0  0  0  0  0  0  0  0  0  0  0  0
   38.9498   26.3032   43.7223 H   0  0  0  0  0  0  0  0  0  0  0  0
   37.2511   24.7804   40.6798 H   0  0  0  0  0  0  0  0  0  0  0  0
   38.3859   24.4320   42.0116 H   0  0  0  0  0  0  0  0  0  0  0  0
   36.9399   28.5872   37.4567 H   0  0  0  0  0  0  0  0  0  0  0  0
   35.7607   28.2992   38.8102 H   0  0  0  0  0  0  0  0  0  0  0  0
   35.6302   29.5697   35.1697 H   0  0  0  0  0  0  0  0  0  0  0  0
   35.9707   27.9494   35.7716 H   0  0  0  0  0  0  0  0  0  0  0  0
   33.2676   29.1722   34.9467 H   0  0  0  0  0  0  0  0  0  0  0  0
   33.9034   27.6249   34.4501 H   0  0  0  0  0  0  0  0  0  0  0  0
   32.1539   27.7682   36.5216 H   0  0  0  0  0  0  0  0  0  0  0  0
   33.4833   26.6415   36.6698 H   0  0  0  0  0  0  0  0  0  0  0  0
   34.0821   27.9462   38.5113 H   0  0  0  0  0  0  0  0  0  0  0  0
   33.0693   29.3143   37.9677 H   0  0  0  0  0  0  0  0  0  0  0  0
  1  2  2  0
  1  7  1  0
  3  2  1  0
  4  3  2  0
  5  4  1  0
  5  6  2  0
  6  1  1  0
  7 12  1  0
  9  8  2  0
 10  9  1  0
 11 12  1  0
 11 10  2  0
 12 13  2  0
 13  8  1  0
 14 10  1  0
 15  6  1  0
 16 20  1  0
 16 15  1  0
 17 16  1  0
 18 17  1  0
 18 19  1  0
 19 20  1  0
  2 21  1  0
  3 22  1  0
  4 23  1  0
  5 24  1  0
  7 25  1  0
  7 26  1  0
  8 27  1  0
  9 28  1  0
 14 29  1  0
 14 30  1  0
 15 31  1  0
 15 32  1  0
 17 33  1  0
 17 34  1  0
 18 35  1  0
 18 36  1  0
 19 37  1  0
 19 38  1  0
 20 39  1  0
 20 40  1  0
M  ISO  8  21  14  22  14  23  14  24  14  25   8  26   8  27  14  28  14
M  ISO  8  31   8  32   8  33  13  34  13  35  13  36  13  37  13  38  13
M  ISO  2  39  13  40  13
M  END
>  <minimizedAffinity>  (1) 
-5.0972662

>  <minimizedRMSD>  (1) 
1.01452339

$$$$
