
     RDKit          3D

 29 30  0  0  0  0  0  0  0  0999 V2000
   36.3390   30.3960   39.5470 C   0  0  0  0  0  0  0  0  0  0  0  0
   36.9000   31.6440   39.7780 C   0  0  0  0  0  0  0  0  0  0  0  0
   37.5670   32.2540   38.7410 C   0  0  0  0  0  0  0  0  0  0  0  0
   37.7040   31.6950   37.4990 C   0  0  0  0  0  0  0  0  0  0  0  0
   37.1490   30.4550   37.2630 C   0  0  0  0  0  0  0  0  0  0  0  0
   36.4750   29.8300   38.2970 C   0  0  0  0  0  0  0  0  0  0  0  0
   35.6090   29.6960   40.6310 C   0  0  0  0  0  0  0  0  0  0  0  0
   38.1300   28.9960   43.2410 C   0  0  0  0  0  0  0  0  0  0  0  0
   38.1530   27.5920   43.2730 C   0  0  0  0  0  0  0  0  0  0  0  0
   37.3010   26.9390   42.3960 C   0  0  0  0  0  0  0  0  0  0  0  0
   36.5240   27.6660   41.5900 N   0  0  0  0  0  0  0  0  0  0  0  0
   36.5240   29.0100   41.5800 C   0  0  0  0  0  0  0  0  0  0  0  0
   37.3300   29.6640   42.4100 N   0  0  0  0  0  0  0  0  0  0  0  0
   37.2090   25.5270   42.3090 N   0  0  0  0  0  0  0  0  0  0  0  0
   35.8570   28.4740   38.0690 C   0  0  0  0  0  0  0  0  0  0  0  0
   36.0360   28.0980   36.7330 O   0  0  0  0  0  0  0  0  0  0  0  0
   36.8140   32.1308   40.7607 H   0  0  0  0  0  0  0  0  0  0  0  0
   38.0139   33.2432   38.9192 H   0  0  0  0  0  0  0  0  0  0  0  0
   38.2473   32.2257   36.7032 H   0  0  0  0  0  0  0  0  0  0  0  0
   37.2398   29.9749   36.2775 H   0  0  0  0  0  0  0  0  0  0  0  0
   35.0111   30.4330   41.1872 H   0  0  0  0  0  0  0  0  0  0  0  0
   34.9727   28.9290   40.1654 H   0  0  0  0  0  0  0  0  0  0  0  0
   38.7888   29.5585   43.9189 H   0  0  0  0  0  0  0  0  0  0  0  0
   38.8127   27.0395   43.9582 H   0  0  0  0  0  0  0  0  0  0  0  0
   36.5581   25.0936   41.6386 H   0  0  0  0  0  0  0  0  0  0  0  0
   37.7931   24.9345   42.9162 H   0  0  0  0  0  0  0  0  0  0  0  0
   36.3405   27.7357   38.7256 H   0  0  0  0  0  0  0  0  0  0  0  0
   34.7817   28.5184   38.2963 H   0  0  0  0  0  0  0  0  0  0  0  0
   36.4612   27.2048   36.6957 H   0  0  0  0  0  0  0  0  0  0  0  0
  1  2  2  0
  1  7  1  0
  3  2  1  0
  4  3  2  0
  5  4  1  0
  5  6  2  0
  6  1  1  0
  7 12  1  0
  8  9  2  0
 10  9  1  0
 11 10  2  0
 12 11  1  0
 12 13  2  0
 13  8  1  0
 14 10  1  0
 15  6  1  0
 16 15  1  0
  2 17  1  0
  3 18  1  0
  4 19  1  0
  5 20  1  0
  7 21  1  0
  7 22  1  0
  8 23  1  0
  9 24  1  0
 14 25  1  0
 14 26  1  0
 15 27  1  0
 15 28  1  0
 16 29  1  0
M  ISO  8  17  14  18  14  19  14  20  14  21   8  22   8  23  14  24  14
M  ISO  3  27   8  28   8  29   3
M  END
>  <minimizedAffinity>  (1) 
-4.7014451

>  <minimizedRMSD>  (1) 
0.0424218662

$$$$
