
     RDKit          3D

 30 31  0  0  0  0  0  0  0  0999 V2000
   36.3410   30.3820   39.5480 C   0  0  0  0  0  0  0  0  0  0  0  0
   36.8950   31.6290   39.7730 C   0  0  0  0  0  0  0  0  0  0  0  0
   37.5570   32.2470   38.7440 C   0  0  0  0  0  0  0  0  0  0  0  0
   37.6980   31.6890   37.4950 C   0  0  0  0  0  0  0  0  0  0  0  0
   37.1440   30.4520   37.2810 C   0  0  0  0  0  0  0  0  0  0  0  0
   36.4750   29.8140   38.3060 C   0  0  0  0  0  0  0  0  0  0  0  0
   35.6190   29.6830   40.6350 C   0  0  0  0  0  0  0  0  0  0  0  0
   38.1290   28.9900   43.2510 C   0  0  0  0  0  0  0  0  0  0  0  0
   38.1580   27.5900   43.2910 C   0  0  0  0  0  0  0  0  0  0  0  0
   37.3030   26.9120   42.4070 C   0  0  0  0  0  0  0  0  0  0  0  0
   36.5280   27.6390   41.5960 N   0  0  0  0  0  0  0  0  0  0  0  0
   36.5310   28.9930   41.5890 C   0  0  0  0  0  0  0  0  0  0  0  0
   37.3350   29.6580   42.4200 N   0  0  0  0  0  0  0  0  0  0  0  0
   37.1980   25.5130   42.3080 N   0  0  0  0  0  0  0  0  0  0  0  0
   35.8640   28.4570   38.0810 C   0  0  0  0  0  0  0  0  0  0  0  0
   36.0350   28.0900   36.6820 N   0  0  0  0  0  0  0  0  0  0  0  0
   36.8064   32.1143   40.7562 H   0  0  0  0  0  0  0  0  0  0  0  0
   37.9973   33.2384   38.9263 H   0  0  0  0  0  0  0  0  0  0  0  0
   38.2369   32.2167   36.6943 H   0  0  0  0  0  0  0  0  0  0  0  0
   37.2327   29.9705   36.2960 H   0  0  0  0  0  0  0  0  0  0  0  0
   35.0230   30.4214   41.1914 H   0  0  0  0  0  0  0  0  0  0  0  0
   34.9870   28.9131   40.1684 H   0  0  0  0  0  0  0  0  0  0  0  0
   38.7848   29.5552   43.9296 H   0  0  0  0  0  0  0  0  0  0  0  0
   38.8194   27.0473   43.9824 H   0  0  0  0  0  0  0  0  0  0  0  0
   36.5448   25.0921   41.6319 H   0  0  0  0  0  0  0  0  0  0  0  0
   37.7743   24.9093   42.9116 H   0  0  0  0  0  0  0  0  0  0  0  0
   36.3645   27.7157   38.7213 H   0  0  0  0  0  0  0  0  0  0  0  0
   34.7933   28.4836   38.3316 H   0  0  0  0  0  0  0  0  0  0  0  0
   36.4693   27.1579   36.6222 H   0  0  0  0  0  0  0  0  0  0  0  0
   35.1160   28.0711   36.2172 H   0  0  0  0  0  0  0  0  0  0  0  0
  1  2  2  0
  1  7  1  0
  3  2  1  0
  4  3  2  0
  5  4  1  0
  5  6  2  0
  6  1  1  0
  7 12  1  0
  8  9  2  0
 10  9  1  0
 11 10  2  0
 12 11  1  0
 12 13  2  0
 13  8  1  0
 14 10  1  0
 15  6  1  0
 16 15  1  0
  2 17  1  0
  3 18  1  0
  4 19  1  0
  5 20  1  0
  7 21  1  0
  7 22  1  0
  8 23  1  0
  9 24  1  0
 14 25  1  0
 14 26  1  0
 15 27  1  0
 15 28  1  0
 16 29  1  0
 16 30  1  0
M  ISO  8  17  14  18  14  19  14  20  14  21   8  22   8  23  14  24  14
M  ISO  4  27   8  28   8  29   5  30   5
M  END
>  <minimizedAffinity>  (1) 
-4.70067978

>  <minimizedRMSD>  (1) 
0.0464032777

$$$$
