
     RDKit          3D

 29 30  0  0  0  0  0  0  0  0999 V2000
   36.3300   30.3800   39.5420 C   0  0  0  0  0  0  0  0  0  0  0  0
   36.8950   31.6290   39.7800 C   0  0  0  0  0  0  0  0  0  0  0  0
   37.5700   32.2490   38.7480 C   0  0  0  0  0  0  0  0  0  0  0  0
   37.7150   31.7020   37.5040 C   0  0  0  0  0  0  0  0  0  0  0  0
   37.1530   30.4660   37.2740 C   0  0  0  0  0  0  0  0  0  0  0  0
   36.4710   29.8190   38.2860 C   0  0  0  0  0  0  0  0  0  0  0  0
   35.5990   29.6850   40.6250 C   0  0  0  0  0  0  0  0  0  0  0  0
   38.1280   28.9880   43.2480 C   0  0  0  0  0  0  0  0  0  0  0  0
   38.1610   27.5960   43.2750 C   0  0  0  0  0  0  0  0  0  0  0  0
   37.3050   26.9330   42.3830 C   0  0  0  0  0  0  0  0  0  0  0  0
   36.5200   27.6460   41.5720 N   0  0  0  0  0  0  0  0  0  0  0  0
   36.5170   29.0030   41.5750 C   0  0  0  0  0  0  0  0  0  0  0  0
   37.3220   29.6550   42.4150 N   0  0  0  0  0  0  0  0  0  0  0  0
   37.2290   25.5240   42.3030 N   0  0  0  0  0  0  0  0  0  0  0  0
   35.8520   28.4700   38.0560 C   0  0  0  0  0  0  0  0  0  0  0  0
   35.7970   28.1140   36.2770 S   0  0  0  0  0  0  0  0  0  0  0  0
   36.8060   32.1100   40.7653 H   0  0  0  0  0  0  0  0  0  0  0  0
   38.0154   33.2369   38.9370 H   0  0  0  0  0  0  0  0  0  0  0  0
   38.2633   32.2323   36.7114 H   0  0  0  0  0  0  0  0  0  0  0  0
   37.2472   29.9942   36.2848 H   0  0  0  0  0  0  0  0  0  0  0  0
   35.0007   30.4233   41.1790 H   0  0  0  0  0  0  0  0  0  0  0  0
   34.9606   28.9176   40.1628 H   0  0  0  0  0  0  0  0  0  0  0  0
   38.7814   29.5531   43.9290 H   0  0  0  0  0  0  0  0  0  0  0  0
   38.8232   27.0456   43.9595 H   0  0  0  0  0  0  0  0  0  0  0  0
   36.5854   25.0802   41.6324 H   0  0  0  0  0  0  0  0  0  0  0  0
   37.8172   24.9409   42.9153 H   0  0  0  0  0  0  0  0  0  0  0  0
   36.4528   27.7012   38.5639 H   0  0  0  0  0  0  0  0  0  0  0  0
   34.8284   28.4666   38.4589 H   0  0  0  0  0  0  0  0  0  0  0  0
   35.5899   26.7733   36.0858 H   0  0  0  0  0  0  0  0  0  0  0  0
  1  2  2  0
  1  7  1  0
  3  2  1  0
  4  3  2  0
  5  4  1  0
  5  6  2  0
  6  1  1  0
  7 12  1  0
  8  9  2  0
 10  9  1  0
 11 12  1  0
 11 10  2  0
 12 13  2  0
 13  8  1  0
 14 10  1  0
 15  6  1  0
 16 15  1  0
  2 17  1  0
  3 18  1  0
  4 19  1  0
  5 20  1  0
  7 21  1  0
  7 22  1  0
  8 23  1  0
  9 24  1  0
 14 25  1  0
 14 26  1  0
 15 27  1  0
 15 28  1  0
 16 29  1  0
M  ISO  8  17  14  18  14  19  14  20  14  21   8  22   8  23  14  24  14
M  ISO  3  27   8  28   8  29  11
M  END
>  <minimizedAffinity>  (1) 
-4.68552303

>  <minimizedRMSD>  (1) 
0.0920318142

$$$$
