
     RDKit          3D

 31 34  0  0  0  0  0  0  0  0999 V2000
   37.4970   29.7670   40.1290 C   0  0  0  0  0  0  0  0  0  0  0  0
   36.4130   29.7150   39.2830 C   0  0  0  0  0  0  0  0  0  0  0  0
   36.5260   30.4110   38.0930 C   0  0  0  0  0  0  0  0  0  0  0  0
   37.6280   31.1150   37.7540 N   0  0  0  0  0  0  0  0  0  0  0  0
   38.6560   31.1390   38.6010 C   0  0  0  0  0  0  0  0  0  0  0  0
   38.5810   30.4730   39.7680 N   0  0  0  0  0  0  0  0  0  0  0  0
   39.8130   31.8830   38.2360 N   0  0  0  0  0  0  0  0  0  0  0  0
   40.7410   31.5000   37.3320 C   0  0  0  0  0  0  0  0  0  0  0  0
   41.6730   32.4800   37.2740 N   0  0  0  0  0  0  0  0  0  0  0  0
   41.3340   33.4520   38.1230 C   0  0  0  0  0  0  0  0  0  0  0  0
   41.8230   34.6750   38.5360 C   0  0  0  0  0  0  0  0  0  0  0  0
   41.2040   35.4480   39.4600 N   0  0  0  0  0  0  0  0  0  0  0  0
   40.0400   35.0190   40.0280 C   0  0  0  0  0  0  0  0  0  0  0  0
   39.5060   33.8370   39.6740 N   0  0  0  0  0  0  0  0  0  0  0  0
   40.1420   33.0910   38.7530 C   0  0  0  0  0  0  0  0  0  0  0  0
   38.0910   28.8990   43.6450 C   0  0  0  0  0  0  0  0  0  0  0  0
   37.3560   27.7020   43.7980 C   0  0  0  0  0  0  0  0  0  0  0  0
   36.6650   27.2080   42.6900 C   0  0  0  0  0  0  0  0  0  0  0  0
   36.7410   27.9150   41.5190 N   0  0  0  0  0  0  0  0  0  0  0  0
   37.4520   29.0500   41.4130 C   0  0  0  0  0  0  0  0  0  0  0  0
   38.1240   29.5450   42.4650 N   0  0  0  0  0  0  0  0  0  0  0  0
   43.0390   35.1250   37.9450 N   0  0  0  0  0  0  0  0  0  0  0  0
   35.5048   29.1499   39.5395 H   0  0  0  0  0  0  0  0  0  0  0  0
   35.6798   30.3903   37.3905 H   0  0  0  0  0  0  0  0  0  0  0  0
   40.7395   30.5658   36.7512 H   0  0  0  0  0  0  0  0  0  0  0  0
   39.5356   35.6438   40.7798 H   0  0  0  0  0  0  0  0  0  0  0  0
   38.6443   29.3088   44.5029 H   0  0  0  0  0  0  0  0  0  0  0  0
   37.3290   27.1743   44.7628 H   0  0  0  0  0  0  0  0  0  0  0  0
   36.0779   26.2801   42.7552 H   0  0  0  0  0  0  0  0  0  0  0  0
   43.4418   36.0315   38.2222 H   0  0  0  0  0  0  0  0  0  0  0  0
   43.5152   34.5437   37.2406 H   0  0  0  0  0  0  0  0  0  0  0  0
  1 20  1  0
  2  1  2  0
  3  2  1  0
  4  3  2  0
  4  5  1  0
  5  6  2  0
  6  1  1  0
  7  5  1  0
  7 15  1  0
  8  7  1  0
  9  8  2  0
  9 10  1  0
 10 11  2  0
 10 15  1  0
 11 12  1  0
 12 13  2  0
 14 13  1  0
 15 14  2  0
 16 17  2  0
 18 17  1  0
 19 18  2  0
 20 19  1  0
 20 21  2  0
 21 16  1  0
 22 11  1  0
  2 23  1  0
  3 24  1  0
  8 25  1  0
 13 26  1  0
 16 27  1  0
 17 28  1  0
 18 29  1  0
 22 30  1  0
 22 31  1  0
M  ISO  7  23  14  24  14  25  14  26  14  27  14  28  14  29  14
M  END
>  <minimizedAffinity>  (1) 
-6.35714769

>  <minimizedRMSD>  (1) 
1.49311662

$$$$
