
     RDKit          3D

 32 34  0  0  0  0  0  0  0  0999 V2000
   37.7610   31.0350   41.0450 C   0  0  0  0  0  0  0  0  0  0  0  0
   36.7690   31.5520   40.2560 C   0  0  0  0  0  0  0  0  0  0  0  0
   37.0660   32.7240   39.5850 C   0  0  0  0  0  0  0  0  0  0  0  0
   38.2450   33.3510   39.6760 N   0  0  0  0  0  0  0  0  0  0  0  0
   39.1970   32.8190   40.4570 C   0  0  0  0  0  0  0  0  0  0  0  0
   38.9270   31.6750   41.1190 N   0  0  0  0  0  0  0  0  0  0  0  0
   40.5040   33.3830   40.6460 N   0  0  0  0  0  0  0  0  0  0  0  0
   41.4990   32.7720   41.5000 C   0  0  0  0  0  0  0  0  0  0  0  0
   42.8030   33.4760   41.3000 C   0  0  0  0  0  0  0  0  0  0  0  0
   42.6460   34.8650   41.6690 N   0  0  0  0  0  0  0  0  0  0  0  0
   41.6430   35.5420   40.8950 C   0  0  0  0  0  0  0  0  0  0  0  0
   40.8890   34.6120   39.9760 C   0  0  0  0  0  0  0  0  0  0  0  0
   38.0430   28.4000   43.5830 C   0  0  0  0  0  0  0  0  0  0  0  0
   37.0740   27.4660   43.1860 C   0  0  0  0  0  0  0  0  0  0  0  0
   36.3340   27.7530   42.0480 C   0  0  0  0  0  0  0  0  0  0  0  0
   36.5780   28.9210   41.3710 N   0  0  0  0  0  0  0  0  0  0  0  0
   37.5190   29.7880   41.7900 C   0  0  0  0  0  0  0  0  0  0  0  0
   38.2600   29.5390   42.8960 N   0  0  0  0  0  0  0  0  0  0  0  0
   35.7889   31.0618   40.1609 H   0  0  0  0  0  0  0  0  0  0  0  0
   36.2909   33.1652   38.9412 H   0  0  0  0  0  0  0  0  0  0  0  0
   41.1884   32.8605   42.5515 H   0  0  0  0  0  0  0  0  0  0  0  0
   41.6063   31.7070   41.2464 H   0  0  0  0  0  0  0  0  0  0  0  0
   43.5744   33.0110   41.9314 H   0  0  0  0  0  0  0  0  0  0  0  0
   43.1088   33.4024   40.2459 H   0  0  0  0  0  0  0  0  0  0  0  0
   42.3808   34.9124   42.6631 H   0  0  0  0  0  0  0  0  0  0  0  0
   40.9263   36.0136   41.5834 H   0  0  0  0  0  0  0  0  0  0  0  0
   42.1546   36.2863   40.2671 H   0  0  0  0  0  0  0  0  0  0  0  0
   41.5304   34.3632   39.1177 H   0  0  0  0  0  0  0  0  0  0  0  0
   39.9717   35.1244   39.6504 H   0  0  0  0  0  0  0  0  0  0  0  0
   38.6435   28.1965   44.4819 H   0  0  0  0  0  0  0  0  0  0  0  0
   36.9072   26.5402   43.7561 H   0  0  0  0  0  0  0  0  0  0  0  0
   35.5624   27.0537   41.6935 H   0  0  0  0  0  0  0  0  0  0  0  0
  1  6  1  0
  1 17  1  0
  2  1  2  0
  3  4  2  0
  3  2  1  0
  4  5  1  0
  5  7  1  0
  5  6  2  0
  7  8  1  0
  9  8  1  0
  9 10  1  0
 11 10  1  0
 12  7  1  0
 12 11  1  0
 14 13  2  0
 15 14  1  0
 16 17  1  0
 16 15  2  0
 17 18  2  0
 18 13  1  0
  2 19  1  0
  3 20  1  0
  8 21  1  0
  8 22  1  0
  9 23  1  0
  9 24  1  0
 10 25  1  0
 11 26  1  0
 11 27  1  0
 12 28  1  0
 12 29  1  0
 13 30  1  0
 14 31  1  0
 15 32  1  0
M  ISO  8  19  14  20  14  21  13  22  13  23  13  24  13  25   5  26  13
M  ISO  6  27  13  28  13  29  13  30  14  31  14  32  14
M  END
>  <minimizedAffinity>  (1) 
-5.32858944

>  <minimizedRMSD>  (1) 
3.52028227

$$$$
