
     RDKit          3D

 26 28  0  0  0  0  0  0  0  0999 V2000
   37.5340   30.6490   40.6340 C   0  0  0  0  0  0  0  0  0  0  0  0
   36.8330   30.5470   39.4590 C   0  0  0  0  0  0  0  0  0  0  0  0
   37.0260   31.5630   38.5440 C   0  0  0  0  0  0  0  0  0  0  0  0
   37.8460   32.6000   38.7620 N   0  0  0  0  0  0  0  0  0  0  0  0
   38.5050   32.6590   39.9100 C   0  0  0  0  0  0  0  0  0  0  0  0
   38.3610   31.7010   40.8460 N   0  0  0  0  0  0  0  0  0  0  0  0
   38.0400   28.6940   43.7150 C   0  0  0  0  0  0  0  0  0  0  0  0
   37.0980   27.6600   43.5820 C   0  0  0  0  0  0  0  0  0  0  0  0
   36.3080   27.6480   42.4440 C   0  0  0  0  0  0  0  0  0  0  0  0
   36.4690   28.6340   41.4960 N   0  0  0  0  0  0  0  0  0  0  0  0
   37.3850   29.6020   41.6710 C   0  0  0  0  0  0  0  0  0  0  0  0
   38.1700   29.6460   42.7630 N   0  0  0  0  0  0  0  0  0  0  0  0
   39.4090   33.7690   40.1900 C   0  0  0  0  0  0  0  0  0  0  0  0
   38.9810   35.0700   40.2730 C   0  0  0  0  0  0  0  0  0  0  0  0
   39.8470   36.1190   40.5410 C   0  0  0  0  0  0  0  0  0  0  0  0
   41.1690   35.8550   40.7290 N   0  0  0  0  0  0  0  0  0  0  0  0
   41.5740   34.5740   40.6450 C   0  0  0  0  0  0  0  0  0  0  0  0
   40.7330   33.5320   40.3830 N   0  0  0  0  0  0  0  0  0  0  0  0
   36.1558   29.7039   39.2574 H   0  0  0  0  0  0  0  0  0  0  0  0
   36.4802   31.5189   37.5900 H   0  0  0  0  0  0  0  0  0  0  0  0
   38.6820   28.7299   44.6075 H   0  0  0  0  0  0  0  0  0  0  0  0
   36.9913   26.8856   44.3559 H   0  0  0  0  0  0  0  0  0  0  0  0
   35.5577   26.8568   42.2987 H   0  0  0  0  0  0  0  0  0  0  0  0
   37.9136   35.2883   40.1216 H   0  0  0  0  0  0  0  0  0  0  0  0
   39.4707   37.1509   40.6009 H   0  0  0  0  0  0  0  0  0  0  0  0
   42.6414   34.3553   40.7958 H   0  0  0  0  0  0  0  0  0  0  0  0
  1  6  1  0
  1 11  1  0
  2  1  2  0
  3  4  2  0
  3  2  1  0
  4  5  1  0
  5 13  1  0
  5  6  2  0
  8  7  2  0
  9  8  1  0
 10 11  1  0
 10  9  2  0
 11 12  2  0
 12  7  1  0
 13 14  2  0
 13 18  1  0
 14 15  1  0
 15 16  2  0
 17 16  1  0
 18 17  2  0
  2 19  1  0
  3 20  1  0
  7 21  1  0
  8 22  1  0
  9 23  1  0
 14 24  1  0
 15 25  1  0
 17 26  1  0
M  ISO  8  19  14  20  14  21  14  22  14  23  14  24  14  25  14  26  14
M  END
>  <minimizedAffinity>  (1) 
-5.26697063

>  <minimizedRMSD>  (1) 
3.22103953

$$$$
