
     RDKit          3D

 25 26  0  0  0  0  0  0  0  0999 V2000
   36.7560   29.1740   39.9400 C   0  0  0  0  0  0  0  0  0  0  0  0
   35.5130   28.9910   39.3870 C   0  0  0  0  0  0  0  0  0  0  0  0
   35.3710   29.3660   38.0660 C   0  0  0  0  0  0  0  0  0  0  0  0
   36.3680   29.8790   37.3420 N   0  0  0  0  0  0  0  0  0  0  0  0
   37.5670   30.0440   37.9130 C   0  0  0  0  0  0  0  0  0  0  0  0
   37.7470   29.6910   39.2000 N   0  0  0  0  0  0  0  0  0  0  0  0
   38.6950   30.5910   37.2010 N   0  0  0  0  0  0  0  0  0  0  0  0
   39.5320   31.5880   37.8040 C   0  0  0  0  0  0  0  0  0  0  0  0
   39.5460   31.4950   39.1080 N   0  0  0  0  0  0  0  0  0  0  0  0
   40.1810   32.4770   36.8710 N   0  0  0  0  0  0  0  0  0  0  0  0
   40.0980   32.1380   39.6840 H   0  0  0  0  0  0  0  0  0  0  0  0
   38.1490   29.1670   43.3500 C   0  0  0  0  0  0  0  0  0  0  0  0
   37.4430   28.1190   43.9620 C   0  0  0  0  0  0  0  0  0  0  0  0
   36.4930   27.4200   43.2060 C   0  0  0  0  0  0  0  0  0  0  0  0
   36.2880   27.7820   41.8970 N   0  0  0  0  0  0  0  0  0  0  0  0
   36.9910   28.7970   41.3490 C   0  0  0  0  0  0  0  0  0  0  0  0
   37.9010   29.4690   42.0710 N   0  0  0  0  0  0  0  0  0  0  0  0
   34.6769   28.5692   39.9641 H   0  0  0  0  0  0  0  0  0  0  0  0
   34.3892   29.2358   37.5872 H   0  0  0  0  0  0  0  0  0  0  0  0
   38.9026   30.2618   36.2473 H   0  0  0  0  0  0  0  0  0  0  0  0
   40.8007   33.2235   37.2169 H   0  0  0  0  0  0  0  0  0  0  0  0
   40.0246   32.3651   35.8591 H   0  0  0  0  0  0  0  0  0  0  0  0
   38.9003   29.7352   43.9181 H   0  0  0  0  0  0  0  0  0  0  0  0
   37.6317   27.8525   45.0124 H   0  0  0  0  0  0  0  0  0  0  0  0
   35.9203   26.5944   43.6536 H   0  0  0  0  0  0  0  0  0  0  0  0
  1 16  1  0
  2  1  2  0
  3  2  1  0
  4  5  1  0
  4  3  2  0
  5  6  2  0
  6  1  1  0
  7  8  1  0
  7  5  1  0
  8  9  2  0
  9 11  1  0
 10  8  1  0
 12 13  2  0
 14 13  1  0
 15 14  2  0
 16 15  1  0
 16 17  2  0
 17 12  1  0
  2 18  1  0
  3 19  1  0
  7 20  1  0
 10 21  1  0
 10 22  1  0
 12 23  1  0
 13 24  1  0
 14 25  1  0
M  ISO  5  18  14  19  14  23  14  24  14  25  14
M  END
>  <minimizedAffinity>  (1) 
-5.21479321

>  <minimizedRMSD>  (1) 
0.397366941

$$$$
