
     RDKit          3D

 26 28  0  0  0  0  0  0  0  0999 V2000
   37.4620   30.5660   40.6060 C   0  0  0  0  0  0  0  0  0  0  0  0
   36.7750   30.3850   39.4270 C   0  0  0  0  0  0  0  0  0  0  0  0
   36.9390   31.3870   38.4820 C   0  0  0  0  0  0  0  0  0  0  0  0
   37.7080   32.4710   38.6770 N   0  0  0  0  0  0  0  0  0  0  0  0
   38.3490   32.5980   39.8290 C   0  0  0  0  0  0  0  0  0  0  0  0
   38.2370   31.6610   40.7950 N   0  0  0  0  0  0  0  0  0  0  0  0
   38.0810   28.7240   43.7320 C   0  0  0  0  0  0  0  0  0  0  0  0
   37.1440   27.6740   43.6600 C   0  0  0  0  0  0  0  0  0  0  0  0
   36.3170   27.6170   42.5400 C   0  0  0  0  0  0  0  0  0  0  0  0
   36.4410   28.5670   41.5640 N   0  0  0  0  0  0  0  0  0  0  0  0
   37.3570   29.5530   41.6840 C   0  0  0  0  0  0  0  0  0  0  0  0
   38.1620   29.6290   42.7500 N   0  0  0  0  0  0  0  0  0  0  0  0
   39.1970   33.7570   40.0890 C   0  0  0  0  0  0  0  0  0  0  0  0
   40.5460   33.6250   40.3380 C   0  0  0  0  0  0  0  0  0  0  0  0
   41.4050   34.6920   40.5930 C   0  0  0  0  0  0  0  0  0  0  0  0
   40.8220   35.9250   40.5850 N   0  0  0  0  0  0  0  0  0  0  0  0
   39.5070   36.0770   40.3440 C   0  0  0  0  0  0  0  0  0  0  0  0
   38.6980   35.0050   40.0990 N   0  0  0  0  0  0  0  0  0  0  0  0
   36.1393   29.5056   39.2466 H   0  0  0  0  0  0  0  0  0  0  0  0
   36.4113   31.2887   37.5219 H   0  0  0  0  0  0  0  0  0  0  0  0
   38.7504   28.8001   44.6015 H   0  0  0  0  0  0  0  0  0  0  0  0
   37.0679   26.9243   44.4613 H   0  0  0  0  0  0  0  0  0  0  0  0
   35.5708   26.8148   42.4417 H   0  0  0  0  0  0  0  0  0  0  0  0
   40.9725   32.6110   40.3353 H   0  0  0  0  0  0  0  0  0  0  0  0
   42.4784   34.5499   40.7872 H   0  0  0  0  0  0  0  0  0  0  0  0
   39.0739   37.0882   40.3444 H   0  0  0  0  0  0  0  0  0  0  0  0
  1  6  1  0
  1 11  1  0
  2  1  2  0
  3  4  2  0
  3  2  1  0
  4  5  1  0
  5 13  1  0
  5  6  2  0
  8  7  2  0
  9  8  1  0
 10 11  1  0
 10  9  2  0
 11 12  2  0
 12  7  1  0
 13 18  1  0
 13 14  2  0
 14 15  1  0
 16 15  2  0
 17 16  1  0
 18 17  2  0
  2 19  1  0
  3 20  1  0
  7 21  1  0
  8 22  1  0
  9 23  1  0
 14 24  1  0
 15 25  1  0
 17 26  1  0
M  ISO  8  19  14  20  14  21  14  22  14  23  14  24  14  25  14  26  14
M  END
>  <minimizedAffinity>  (1) 
-5.19028139

>  <minimizedRMSD>  (1) 
3.11931229

$$$$
