
     RDKit          3D

 25 27  0  0  0  0  0  0  0  0999 V2000
   37.4920   30.4120   40.3470 C   0  0  0  0  0  0  0  0  0  0  0  0
   36.8530   30.1160   39.1520 C   0  0  0  0  0  0  0  0  0  0  0  0
   37.0440   31.0220   38.1280 C   0  0  0  0  0  0  0  0  0  0  0  0
   37.7880   32.1230   38.2460 N   0  0  0  0  0  0  0  0  0  0  0  0
   38.3840   32.3680   39.4120 C   0  0  0  0  0  0  0  0  0  0  0  0
   38.2490   31.5290   40.4700 N   0  0  0  0  0  0  0  0  0  0  0  0
   39.2090   33.4940   39.7020 N   0  0  0  0  0  0  0  0  0  0  0  0
   38.6970   34.4370   40.5320 C   0  0  0  0  0  0  0  0  0  0  0  0
   39.6810   35.4100   40.6530 C   0  0  0  0  0  0  0  0  0  0  0  0
   40.7340   35.0510   39.9180 N   0  0  0  0  0  0  0  0  0  0  0  0
   40.4480   33.8590   39.3230 C   0  0  0  0  0  0  0  0  0  0  0  0
   37.9940   28.8700   43.6550 C   0  0  0  0  0  0  0  0  0  0  0  0
   37.0780   27.8090   43.6280 C   0  0  0  0  0  0  0  0  0  0  0  0
   36.3040   27.6270   42.4930 C   0  0  0  0  0  0  0  0  0  0  0  0
   36.4520   28.4870   41.4310 N   0  0  0  0  0  0  0  0  0  0  0  0
   37.3430   29.4960   41.4950 C   0  0  0  0  0  0  0  0  0  0  0  0
   38.0890   29.6710   42.5880 N   0  0  0  0  0  0  0  0  0  0  0  0
   36.2330   29.2159   39.0280 H   0  0  0  0  0  0  0  0  0  0  0  0
   36.5560   30.8253   37.1620 H   0  0  0  0  0  0  0  0  0  0  0  0
   37.7066   34.4322   41.0106 H   0  0  0  0  0  0  0  0  0  0  0  0
   39.6041   36.3265   41.2564 H   0  0  0  0  0  0  0  0  0  0  0  0
   41.1121   33.2948   38.6517 H   0  0  0  0  0  0  0  0  0  0  0  0
   38.6247   29.0411   44.5398 H   0  0  0  0  0  0  0  0  0  0  0  0
   36.9757   27.1343   44.4907 H   0  0  0  0  0  0  0  0  0  0  0  0
   35.5781   26.8021   42.4424 H   0  0  0  0  0  0  0  0  0  0  0  0
  1  6  1  0
  1 16  1  0
  2  1  2  0
  3  4  2  0
  3  2  1  0
  4  5  1  0
  5  7  1  0
  5  6  2  0
  7  8  1  0
  8  9  2  0
 10  9  1  0
 11  7  1  0
 11 10  2  0
 13 12  2  0
 14 13  1  0
 15 16  1  0
 15 14  2  0
 16 17  2  0
 17 12  1  0
  2 18  1  0
  3 19  1  0
  8 20  1  0
  9 21  1  0
 11 22  1  0
 12 23  1  0
 13 24  1  0
 14 25  1  0
M  ISO  8  18  14  19  14  20  14  21  14  22  14  23  14  24  14  25  14
M  END
>  <minimizedAffinity>  (1) 
-5.07448816

>  <minimizedRMSD>  (1) 
2.48609447

$$$$
