
     RDKit          3D

 33 34  0  0  1  0  0  0  0  0999 V2000
   39.1840   26.1340   42.2530 C   0  0  1  0  0  0  0  0  0  0  0  0
   38.9330   24.7720   41.5720 C   0  0  0  0  0  0  0  0  0  0  0  0
   37.5510   24.3570   41.9940 C   0  0  0  0  0  0  0  0  0  0  0  0
   36.9030   25.6990   42.2700 C   0  0  0  0  0  0  0  0  0  0  0  0
   37.9900   26.3720   43.0830 C   0  0  2  0  0  0  0  0  0  0  0  0
   41.9800   26.8930   44.6650 C   0  0  0  0  0  0  0  0  0  0  0  0
   40.7130   26.9740   44.0690 C   0  0  0  0  0  0  0  0  0  0  0  0
   40.4510   26.1430   42.9590 C   0  0  0  0  0  0  0  0  0  0  0  0
   41.4340   25.3090   42.5240 N   0  0  0  0  0  0  0  0  0  0  0  0
   42.6390   25.2600   43.1240 C   0  0  0  0  0  0  0  0  0  0  0  0
   42.9140   26.0400   44.1810 N   0  0  0  0  0  0  0  0  0  0  0  0
   37.5430   27.7740   43.2620 C   0  0  2  0  0  0  0  0  0  0  0  0
   36.8230   28.0830   44.5260 C   0  0  0  0  0  0  0  0  0  0  0  0
   36.5980   28.0550   42.0950 C   0  0  0  0  0  0  0  0  0  0  0  0
   36.4690   29.4670   42.1600 O   0  0  0  0  0  0  0  0  0  0  0  0
   39.2998   26.9668   41.5437 H   0  0  0  0  0  0  0  0  0  0  0  0
   39.6751   24.0325   41.9074 H   0  0  0  0  0  0  0  0  0  0  0  0
   39.0204   24.8421   40.4777 H   0  0  0  0  0  0  0  0  0  0  0  0
   37.0303   23.8174   41.1892 H   0  0  0  0  0  0  0  0  0  0  0  0
   37.5321   23.6657   42.8494 H   0  0  0  0  0  0  0  0  0  0  0  0
   36.6939   26.2474   41.3397 H   0  0  0  0  0  0  0  0  0  0  0  0
   35.9262   25.6404   42.7725 H   0  0  0  0  0  0  0  0  0  0  0  0
   38.2071   26.0182   44.1017 H   0  0  0  0  0  0  0  0  0  0  0  0
   42.2169   27.5271   45.5321 H   0  0  0  0  0  0  0  0  0  0  0  0
   39.9476   27.6636   44.4547 H   0  0  0  0  0  0  0  0  0  0  0  0
   43.4077   24.5717   42.7427 H   0  0  0  0  0  0  0  0  0  0  0  0
   38.4472   28.3993   43.3011 H   0  0  0  0  0  0  0  0  0  0  0  0
   37.4555   27.8115   45.3840 H   0  0  0  0  0  0  0  0  0  0  0  0
   36.5947   29.1584   44.5645 H   0  0  0  0  0  0  0  0  0  0  0  0
   35.8862   27.5077   44.5645 H   0  0  0  0  0  0  0  0  0  0  0  0
   35.6274   27.5571   42.2366 H   0  0  0  0  0  0  0  0  0  0  0  0
   36.9642   27.6851   41.1260 H   0  0  0  0  0  0  0  0  0  0  0  0
   36.4429   29.7527   43.1075 H   0  0  0  0  0  0  0  0  0  0  0  0
  1  8  1  0
  1  5  1  0
  2  3  1  0
  2  1  1  0
  3  4  1  0
  4  5  1  0
  5 12  1  0
  7  6  2  0
  8  7  1  0
  9  8  2  0
  9 10  1  0
 10 11  2  0
 11  6  1  0
 12 13  1  0
 14 15  1  0
 14 12  1  0
  1 16  1  6
  2 17  1  0
  2 18  1  0
  3 19  1  0
  3 20  1  0
  4 21  1  0
  4 22  1  0
  5 23  1  1
  6 24  1  0
  7 25  1  0
 10 26  1  0
 12 27  1  6
 13 28  1  0
 13 29  1  0
 13 30  1  0
 14 31  1  0
 14 32  1  0
 15 33  1  0
M  ISO  8  16  13  17  13  18  13  19  13  20  13  21  13  22  13  23  13
M  ISO  8  24  14  25  14  26  14  27   8  28   8  29   8  30   8  31   8
M  ISO  2  32   8  33   3
M  END
>  <minimizedAffinity>  (1) 
-4.64889479

>  <minimizedRMSD>  (1) 
0.164624169

$$$$
