
     RDKit          3D

 23 25  0  0  0  0  0  0  0  0999 V2000
   37.2580   29.7100   40.0240 C   0  0  0  0  0  0  0  0  0  0  0  0
   36.2140   29.4230   39.1790 C   0  0  0  0  0  0  0  0  0  0  0  0
   36.2810   30.0430   37.9410 C   0  0  0  0  0  0  0  0  0  0  0  0
   37.2720   30.8650   37.5590 N   0  0  0  0  0  0  0  0  0  0  0  0
   38.2550   31.1070   38.4130 C   0  0  0  0  0  0  0  0  0  0  0  0
   38.2490   30.5360   39.6350 N   0  0  0  0  0  0  0  0  0  0  0  0
   38.1410   29.0350   43.5260 C   0  0  0  0  0  0  0  0  0  0  0  0
   37.2940   27.9530   43.8650 C   0  0  0  0  0  0  0  0  0  0  0  0
   36.4350   27.4750   42.8890 C   0  0  0  0  0  0  0  0  0  0  0  0
   36.4530   28.0680   41.6590 N   0  0  0  0  0  0  0  0  0  0  0  0
   37.2660   29.0880   41.3730 C   0  0  0  0  0  0  0  0  0  0  0  0
   38.1180   29.5810   42.3010 N   0  0  0  0  0  0  0  0  0  0  0  0
   39.4370   31.9610   38.2310 C   0  0  0  0  0  0  0  0  0  0  0  0
   40.3530   32.1640   37.2770 N   0  0  0  0  0  0  0  0  0  0  0  0
   41.1970   33.0630   37.6600 O   0  0  0  0  0  0  0  0  0  0  0  0
   40.8950   33.5010   38.8690 C   0  0  0  0  0  0  0  0  0  0  0  0
   39.7950   32.8080   39.2190 N   0  0  0  0  0  0  0  0  0  0  0  0
   35.3888   28.7532   39.4626 H   0  0  0  0  0  0  0  0  0  0  0  0
   35.4692   29.8490   37.2245 H   0  0  0  0  0  0  0  0  0  0  0  0
   38.8319   29.4362   44.2821 H   0  0  0  0  0  0  0  0  0  0  0  0
   37.3170   27.5065   44.8700 H   0  0  0  0  0  0  0  0  0  0  0  0
   35.7541   26.6372   43.0999 H   0  0  0  0  0  0  0  0  0  0  0  0
   41.4249   34.2632   39.4592 H   0  0  0  0  0  0  0  0  0  0  0  0
  1 11  1  0
  2  1  2  0
  3  2  1  0
  4  3  2  0
  4  5  1  0
  5  6  2  0
  6  1  1  0
  7  8  2  0
  9  8  1  0
 10  9  2  0
 11 10  1  0
 11 12  2  0
 12  7  1  0
 13  5  1  0
 13 17  1  0
 14 15  1  0
 14 13  2  0
 15 16  1  0
 16 17  2  0
  2 18  1  0
  3 19  1  0
  7 20  1  0
  8 21  1  0
  9 22  1  0
 16 23  1  0
M  ISO  6  18  14  19  14  20  14  21  14  22  14  23  14
M  END
>  <minimizedAffinity>  (1) 
-4.50506449

>  <minimizedRMSD>  (1) 
0.931144476

$$$$
