
     RDKit          3D

 25 27  0  0  0  0  0  0  0  0999 V2000
   37.0470   29.4880   39.9770 C   0  0  0  0  0  0  0  0  0  0  0  0
   35.9780   29.1500   39.1900 C   0  0  0  0  0  0  0  0  0  0  0  0
   35.9430   29.6670   37.9170 C   0  0  0  0  0  0  0  0  0  0  0  0
   36.8930   30.4690   37.4330 N   0  0  0  0  0  0  0  0  0  0  0  0
   37.9210   30.7830   38.2180 C   0  0  0  0  0  0  0  0  0  0  0  0
   37.9960   30.2950   39.4810 N   0  0  0  0  0  0  0  0  0  0  0  0
   38.1040   29.0920   43.4760 C   0  0  0  0  0  0  0  0  0  0  0  0
   37.3270   28.0050   43.9070 C   0  0  0  0  0  0  0  0  0  0  0  0
   36.4550   27.4230   43.0020 C   0  0  0  0  0  0  0  0  0  0  0  0
   36.3760   27.9180   41.7260 N   0  0  0  0  0  0  0  0  0  0  0  0
   37.1420   28.9690   41.3480 C   0  0  0  0  0  0  0  0  0  0  0  0
   37.9900   29.5410   42.2150 N   0  0  0  0  0  0  0  0  0  0  0  0
   38.9940   31.6850   37.6790 C   0  0  0  0  0  0  0  0  0  0  0  0
   39.8280   32.4480   38.6870 C   0  0  0  0  0  0  0  0  0  0  0  0
   40.4140   31.3720   37.8650 C   0  0  0  0  0  0  0  0  0  0  0  0
   35.1795   28.4912   39.5620 H   0  0  0  0  0  0  0  0  0  0  0  0
   35.0935   29.4079   37.2680 H   0  0  0  0  0  0  0  0  0  0  0  0
   38.8061   29.5760   44.1708 H   0  0  0  0  0  0  0  0  0  0  0  0
   37.4086   27.6256   44.9363 H   0  0  0  0  0  0  0  0  0  0  0  0
   35.8303   26.5697   43.3049 H   0  0  0  0  0  0  0  0  0  0  0  0
   38.3786   31.9223   36.7987 H   0  0  0  0  0  0  0  0  0  0  0  0
   40.0991   33.4975   38.5000 H   0  0  0  0  0  0  0  0  0  0  0  0
   39.7562   32.6636   39.7633 H   0  0  0  0  0  0  0  0  0  0  0  0
   40.7048   30.4224   38.3381 H   0  0  0  0  0  0  0  0  0  0  0  0
   41.2795   31.3095   37.1890 H   0  0  0  0  0  0  0  0  0  0  0  0
  1 11  1  0
  2  1  2  0
  3  2  1  0
  4  3  2  0
  4  5  1  0
  5  6  2  0
  6  1  1  0
  7  8  2  0
  9  8  1  0
 10  9  2  0
 11 10  1  0
 11 12  2  0
 12  7  1  0
 13 15  1  0
 13  5  1  0
 13 14  1  0
 15 14  1  0
  2 16  1  0
  3 17  1  0
  7 18  1  0
  8 19  1  0
  9 20  1  0
 13 21  1  0
 14 22  1  0
 14 23  1  0
 15 24  1  0
 15 25  1  0
M  ISO  8  16  14  17  14  18  14  19  14  20  14  21  13  22  13  23  13
M  ISO  2  24  13  25  13
M  END
>  <minimizedAffinity>  (1) 
-3.9310441

>  <minimizedRMSD>  (1) 
0.57164079

$$$$
