
     RDKit          3D

 24 25  0  0  0  0  0  0  0  0999 V2000
   36.5920   29.1000   40.0470 C   0  0  0  0  0  0  0  0  0  0  0  0
   35.7300   28.3110   39.3110 C   0  0  0  0  0  0  0  0  0  0  0  0
   35.5170   28.7330   38.0080 C   0  0  0  0  0  0  0  0  0  0  0  0
   36.0840   29.8130   37.4720 N   0  0  0  0  0  0  0  0  0  0  0  0
   36.9120   30.5440   38.2270 C   0  0  0  0  0  0  0  0  0  0  0  0
   37.1720   30.2000   39.5070 N   0  0  0  0  0  0  0  0  0  0  0  0
   38.0660   29.1450   43.4220 C   0  0  0  0  0  0  0  0  0  0  0  0
   37.4330   28.0530   44.0440 C   0  0  0  0  0  0  0  0  0  0  0  0
   36.5070   27.3150   43.2960 C   0  0  0  0  0  0  0  0  0  0  0  0
   36.2580   27.6820   42.0050 N   0  0  0  0  0  0  0  0  0  0  0  0
   36.8970   28.7440   41.4560 C   0  0  0  0  0  0  0  0  0  0  0  0
   37.7940   29.4790   42.1400 N   0  0  0  0  0  0  0  0  0  0  0  0
   37.6220   31.7730   37.7780 C   0  0  0  0  0  0  0  0  0  0  0  0
   38.2830   32.4480   38.9570 C   0  0  0  0  0  0  0  0  0  0  0  0
   35.2482   27.4143   39.7279 H   0  0  0  0  0  0  0  0  0  0  0  0
   34.8381   28.1398   37.3777 H   0  0  0  0  0  0  0  0  0  0  0  0
   38.7970   29.7391   43.9901 H   0  0  0  0  0  0  0  0  0  0  0  0
   37.6588   27.7868   45.0871 H   0  0  0  0  0  0  0  0  0  0  0  0
   35.9886   26.4533   43.7418 H   0  0  0  0  0  0  0  0  0  0  0  0
   38.3884   31.5009   37.0374 H   0  0  0  0  0  0  0  0  0  0  0  0
   36.8958   32.4649   37.3265 H   0  0  0  0  0  0  0  0  0  0  0  0
   37.8772   32.0336   39.8916 H   0  0  0  0  0  0  0  0  0  0  0  0
   39.3682   32.2725   38.9189 H   0  0  0  0  0  0  0  0  0  0  0  0
   38.0848   33.5293   38.9189 H   0  0  0  0  0  0  0  0  0  0  0  0
  1 11  1  0
  2  1  2  0
  3  2  1  0
  4  3  2  0
  4  5  1  0
  5  6  2  0
  6  1  1  0
  7  8  2  0
  9  8  1  0
 10  9  2  0
 11 10  1  0
 11 12  2  0
 12  7  1  0
 13  5  1  0
 13 14  1  0
  2 15  1  0
  3 16  1  0
  7 17  1  0
  8 18  1  0
  9 19  1  0
 13 20  1  0
 13 21  1  0
 14 22  1  0
 14 23  1  0
 14 24  1  0
M  ISO  8  15  14  16  14  17  14  18  14  19  14  20   8  21   8  22   8
M  ISO  2  23   8  24   8
M  END
>  <minimizedAffinity>  (1) 
-3.87280345

>  <minimizedRMSD>  (1) 
0.781600893

$$$$
