
     RDKit          3D

 21 22  0  0  0  0  0  0  0  0999 V2000
   36.5940   29.1590   40.0130 C   0  0  0  0  0  0  0  0  0  0  0  0
   35.6740   28.4290   39.2950 C   0  0  0  0  0  0  0  0  0  0  0  0
   35.4610   28.8560   37.9870 C   0  0  0  0  0  0  0  0  0  0  0  0
   36.0970   29.9020   37.4400 N   0  0  0  0  0  0  0  0  0  0  0  0
   36.9750   30.5790   38.1650 C   0  0  0  0  0  0  0  0  0  0  0  0
   37.2130   30.2030   39.4360 N   0  0  0  0  0  0  0  0  0  0  0  0
   38.1100   29.1700   43.3640 C   0  0  0  0  0  0  0  0  0  0  0  0
   37.4470   28.1030   44.0060 C   0  0  0  0  0  0  0  0  0  0  0  0
   36.4950   27.3980   43.2840 C   0  0  0  0  0  0  0  0  0  0  0  0
   36.2360   27.7660   41.9800 N   0  0  0  0  0  0  0  0  0  0  0  0
   36.8850   28.7810   41.4110 C   0  0  0  0  0  0  0  0  0  0  0  0
   37.8100   29.4730   42.0930 N   0  0  0  0  0  0  0  0  0  0  0  0
   37.7550   31.7600   37.6950 C   0  0  0  0  0  0  0  0  0  0  0  0
   35.1432   27.5670   39.7253 H   0  0  0  0  0  0  0  0  0  0  0  0
   34.7337   28.3071   37.3708 H   0  0  0  0  0  0  0  0  0  0  0  0
   38.8710   29.7517   43.9048 H   0  0  0  0  0  0  0  0  0  0  0  0
   37.6781   27.8379   45.0483 H   0  0  0  0  0  0  0  0  0  0  0  0
   35.9546   26.5579   43.7446 H   0  0  0  0  0  0  0  0  0  0  0  0
   38.1269   32.3231   38.5637 H   0  0  0  0  0  0  0  0  0  0  0  0
   38.6062   31.4190   37.0873 H   0  0  0  0  0  0  0  0  0  0  0  0
   37.1073   32.4090   37.0873 H   0  0  0  0  0  0  0  0  0  0  0  0
  1 11  1  0
  2  1  2  0
  3  2  1  0
  4  3  2  0
  4  5  1  0
  5  6  2  0
  6  1  1  0
  7  8  2  0
  9  8  1  0
 10  9  2  0
 11 10  1  0
 11 12  2  0
 12  7  1  0
 13  5  1  0
  2 14  1  0
  3 15  1  0
  7 16  1  0
  8 17  1  0
  9 18  1  0
 13 19  1  0
 13 20  1  0
 13 21  1  0
M  ISO  8  14  14  15  14  16  14  17  14  18  14  19   8  20   8  21   8
M  END
>  <minimizedAffinity>  (1) 
-3.82647204

>  <minimizedRMSD>  (1) 
0.558936119

$$$$
