
     RDKit          3D

 34 35  0  0  1  0  0  0  0  0999 V2000
   39.1680   26.0970   42.2760 C   0  0  1  0  0  0  0  0  0  0  0  0
   38.9190   24.7360   41.5890 C   0  0  0  0  0  0  0  0  0  0  0  0
   37.5230   24.3470   42.0030 C   0  0  0  0  0  0  0  0  0  0  0  0
   36.8850   25.7060   42.2500 C   0  0  0  0  0  0  0  0  0  0  0  0
   37.9680   26.3440   43.0990 C   0  0  2  0  0  0  0  0  0  0  0  0
   41.9760   26.9050   44.6700 C   0  0  0  0  0  0  0  0  0  0  0  0
   40.7060   26.9660   44.0780 C   0  0  0  0  0  0  0  0  0  0  0  0
   40.4450   26.1230   42.9780 C   0  0  0  0  0  0  0  0  0  0  0  0
   41.4180   25.2860   42.5250 N   0  0  0  0  0  0  0  0  0  0  0  0
   42.6330   25.2560   43.1230 C   0  0  0  0  0  0  0  0  0  0  0  0
   42.9080   26.0610   44.1870 N   0  0  0  0  0  0  0  0  0  0  0  0
   37.5450   27.7570   43.2580 C   0  0  2  0  0  0  0  0  0  0  0  0
   36.8300   28.0830   44.5200 C   0  0  0  0  0  0  0  0  0  0  0  0
   36.6060   28.0530   42.0990 C   0  0  0  0  0  0  0  0  0  0  0  0
   36.4770   29.5240   42.1670 N   0  0  0  0  0  0  0  0  0  0  0  0
   39.2852   26.9285   41.5655 H   0  0  0  0  0  0  0  0  0  0  0  0
   39.6483   23.9883   41.9341 H   0  0  0  0  0  0  0  0  0  0  0  0
   39.0270   24.7961   40.4960 H   0  0  0  0  0  0  0  0  0  0  0  0
   37.0046   23.8003   41.2015 H   0  0  0  0  0  0  0  0  0  0  0  0
   37.4862   23.6719   42.8707 H   0  0  0  0  0  0  0  0  0  0  0  0
   36.7205   26.2580   41.3128 H   0  0  0  0  0  0  0  0  0  0  0  0
   35.8868   25.6764   42.7112 H   0  0  0  0  0  0  0  0  0  0  0  0
   38.1558   25.9761   44.1185 H   0  0  0  0  0  0  0  0  0  0  0  0
   42.2115   27.5480   45.5309 H   0  0  0  0  0  0  0  0  0  0  0  0
   39.9357   27.6517   44.4607 H   0  0  0  0  0  0  0  0  0  0  0  0
   43.4076   24.5728   42.7446 H   0  0  0  0  0  0  0  0  0  0  0  0
   38.4619   28.3642   43.2810 H   0  0  0  0  0  0  0  0  0  0  0  0
   37.4547   27.7982   45.3794 H   0  0  0  0  0  0  0  0  0  0  0  0
   36.6257   29.1632   44.5572 H   0  0  0  0  0  0  0  0  0  0  0  0
   35.8805   27.5288   44.5572 H   0  0  0  0  0  0  0  0  0  0  0  0
   35.6324   27.5607   42.2392 H   0  0  0  0  0  0  0  0  0  0  0  0
   36.9739   27.6871   41.1291 H   0  0  0  0  0  0  0  0  0  0  0  0
   36.4509   29.8212   43.1529 H   0  0  0  0  0  0  0  0  0  0  0  0
   37.2829   29.9614   41.6978 H   0  0  0  0  0  0  0  0  0  0  0  0
  1  8  1  0
  1  5  1  0
  2  3  1  0
  2  1  1  0
  3  4  1  0
  4  5  1  0
  5 12  1  0
  7  6  2  0
  8  7  1  0
  9  8  2  0
  9 10  1  0
 10 11  2  0
 11  6  1  0
 12 13  1  0
 14 15  1  0
 14 12  1  0
  1 16  1  6
  2 17  1  0
  2 18  1  0
  3 19  1  0
  3 20  1  0
  4 21  1  0
  4 22  1  0
  5 23  1  1
  6 24  1  0
  7 25  1  0
 10 26  1  0
 12 27  1  6
 13 28  1  0
 13 29  1  0
 13 30  1  0
 14 31  1  0
 14 32  1  0
 15 33  1  0
 15 34  1  0
M  ISO  8  16  13  17  13  18  13  19  13  20  13  21  13  22  13  23  13
M  ISO  8  24  14  25  14  26  14  27   8  28   8  29   8  30   8  31   8
M  ISO  3  32   8  33   5  34   5
M  END
>  <minimizedAffinity>  (1) 
-4.64124584

>  <minimizedRMSD>  (1) 
0.144089177

$$$$
