
     RDKit          3D

 20 21  0  0  0  0  0  0  0  0999 V2000
   36.6290   29.1940   39.9040 C   0  0  0  0  0  0  0  0  0  0  0  0
   35.6310   28.5060   39.2600 C   0  0  0  0  0  0  0  0  0  0  0  0
   35.3860   28.8910   37.9460 C   0  0  0  0  0  0  0  0  0  0  0  0
   36.0710   29.8740   37.3220 N   0  0  0  0  0  0  0  0  0  0  0  0
   37.0290   30.5120   37.9900 C   0  0  0  0  0  0  0  0  0  0  0  0
   37.2960   30.1680   39.2610 N   0  0  0  0  0  0  0  0  0  0  0  0
   38.2120   29.2830   43.2160 C   0  0  0  0  0  0  0  0  0  0  0  0
   37.5680   28.2210   43.8980 C   0  0  0  0  0  0  0  0  0  0  0  0
   36.5940   27.4850   43.2080 C   0  0  0  0  0  0  0  0  0  0  0  0
   36.3030   27.8220   41.9010 N   0  0  0  0  0  0  0  0  0  0  0  0
   36.9500   28.8460   41.2990 C   0  0  0  0  0  0  0  0  0  0  0  0
   37.8980   29.5800   41.9360 N   0  0  0  0  0  0  0  0  0  0  0  0
   37.7940   31.5810   37.3550 C   0  0  0  0  0  0  0  0  0  0  0  0
   39.0120   31.7530   37.6520 O   0  0  0  0  0  0  0  0  0  0  0  0
   35.0621   27.7027   39.7510 H   0  0  0  0  0  0  0  0  0  0  0  0
   34.5952   28.3691   37.3872 H   0  0  0  0  0  0  0  0  0  0  0  0
   38.9793   29.8747   43.7367 H   0  0  0  0  0  0  0  0  0  0  0  0
   37.8250   27.9805   44.9402 H   0  0  0  0  0  0  0  0  0  0  0  0
   36.0701   26.6524   43.7002 H   0  0  0  0  0  0  0  0  0  0  0  0
   37.3108   32.2382   36.6170 H   0  0  0  0  0  0  0  0  0  0  0  0
  1 11  1  0
  2  1  2  0
  3  2  1  0
  4  3  2  0
  4  5  1  0
  5  6  2  0
  6  1  1  0
  7  8  2  0
  9  8  1  0
 10  9  2  0
 11 10  1  0
 11 12  2  0
 12  7  1  0
 13 14  2  0
 13  5  1  0
  2 15  1  0
  3 16  1  0
  7 17  1  0
  8 18  1  0
  9 19  1  0
 13 20  1  0
M  ISO  6  15  14  16  14  17  14  18  14  19  14  20   6
M  END
>  <minimizedAffinity>  (1) 
-3.75177193

>  <minimizedRMSD>  (1) 
0.611078262

$$$$
