
     RDKit          3D

 19 20  0  0  0  0  0  0  0  0999 V2000
   37.1180   29.4940   40.0590 C   0  0  0  0  0  0  0  0  0  0  0  0
   36.0230   29.2490   39.2520 C   0  0  0  0  0  0  0  0  0  0  0  0
   36.0940   29.8280   37.9900 C   0  0  0  0  0  0  0  0  0  0  0  0
   37.1220   30.5690   37.5590 N   0  0  0  0  0  0  0  0  0  0  0  0
   38.1460   30.7710   38.3750 C   0  0  0  0  0  0  0  0  0  0  0  0
   38.1570   30.2430   39.6220 N   0  0  0  0  0  0  0  0  0  0  0  0
   37.8750   29.0750   43.6420 C   0  0  0  0  0  0  0  0  0  0  0  0
   37.2210   27.8720   43.9480 C   0  0  0  0  0  0  0  0  0  0  0  0
   36.5250   27.2130   42.9260 C   0  0  0  0  0  0  0  0  0  0  0  0
   36.5100   27.7660   41.6740 N   0  0  0  0  0  0  0  0  0  0  0  0
   37.1570   28.9270   41.4290 C   0  0  0  0  0  0  0  0  0  0  0  0
   37.8230   29.5640   42.3940 N   0  0  0  0  0  0  0  0  0  0  0  0
   39.5020   31.7650   37.7670 S   0  0  0  0  0  0  0  0  0  0  0  0
   35.1649   28.6448   39.5815 H   0  0  0  0  0  0  0  0  0  0  0  0
   35.2513   29.6668   37.3016 H   0  0  0  0  0  0  0  0  0  0  0  0
   38.4289   29.6158   44.4235 H   0  0  0  0  0  0  0  0  0  0  0  0
   37.2539   27.4562   44.9658 H   0  0  0  0  0  0  0  0  0  0  0  0
   35.9997   26.2675   43.1264 H   0  0  0  0  0  0  0  0  0  0  0  0
   40.2026   32.2786   38.8264 H   0  0  0  0  0  0  0  0  0  0  0  0
  1 11  1  0
  2  1  2  0
  3  2  1  0
  4  3  2  0
  4  5  1  0
  5  6  2  0
  6  1  1  0
  7  8  2  0
  9  8  1  0
 10  9  2  0
 11 10  1  0
 11 12  2  0
 12  7  1  0
 13  5  1  0
  2 14  1  0
  3 15  1  0
  7 16  1  0
  8 17  1  0
  9 18  1  0
 13 19  1  0
M  ISO  6  14  14  15  14  16  14  17  14  18  14  19  11
M  END
>  <minimizedAffinity>  (1) 
-3.64357805

>  <minimizedRMSD>  (1) 
0.485311896

$$$$
