
     RDKit          3D

 38 41  0  0  0  0  0  0  0  0999 V2000
   36.6560   29.2690   40.2350 C   0  0  0  0  0  0  0  0  0  0  0  0
   35.9940   28.4730   39.3300 C   0  0  0  0  0  0  0  0  0  0  0  0
   35.8230   29.0300   38.0710 C   0  0  0  0  0  0  0  0  0  0  0  0
   36.2520   30.2360   37.7340 N   0  0  0  0  0  0  0  0  0  0  0  0
   36.8960   30.9770   38.6550 C   0  0  0  0  0  0  0  0  0  0  0  0
   37.1040   30.5140   39.9010 N   0  0  0  0  0  0  0  0  0  0  0  0
   37.9850   28.9860   43.6500 C   0  0  0  0  0  0  0  0  0  0  0  0
   37.3160   27.8450   44.1400 C   0  0  0  0  0  0  0  0  0  0  0  0
   36.4210   27.1930   43.2940 C   0  0  0  0  0  0  0  0  0  0  0  0
   36.2280   27.6770   42.0370 N   0  0  0  0  0  0  0  0  0  0  0  0
   36.8950   28.7730   41.6160 C   0  0  0  0  0  0  0  0  0  0  0  0
   37.7740   29.4390   42.4030 N   0  0  0  0  0  0  0  0  0  0  0  0
   37.4450   32.3520   38.4490 C   0  0  0  0  0  0  0  0  0  0  0  0
   37.4640   33.0830   39.7850 C   0  0  0  0  0  0  0  0  0  0  0  0
   38.8230   33.3980   40.2310 C   0  0  0  0  0  0  0  0  0  0  0  0
   39.8480   32.5660   40.6870 C   0  0  0  0  0  0  0  0  0  0  0  0
   40.9330   33.2900   40.9900 N   0  0  0  0  0  0  0  0  0  0  0  0
   40.6450   34.5810   40.7430 C   0  0  0  0  0  0  0  0  0  0  0  0
   41.3790   35.7440   40.8720 C   0  0  0  0  0  0  0  0  0  0  0  0
   40.8760   36.9990   40.5540 C   0  0  0  0  0  0  0  0  0  0  0  0
   39.5660   37.0720   40.0820 C   0  0  0  0  0  0  0  0  0  0  0  0
   38.8310   35.9090   39.9520 C   0  0  0  0  0  0  0  0  0  0  0  0
   39.3380   34.6650   40.2720 C   0  0  0  0  0  0  0  0  0  0  0  0
   35.6269   27.4681   39.5856 H   0  0  0  0  0  0  0  0  0  0  0  0
   35.3002   28.4345   37.3080 H   0  0  0  0  0  0  0  0  0  0  0  0
   38.6944   29.5160   44.3026 H   0  0  0  0  0  0  0  0  0  0  0  0
   37.4958   27.4799   45.1619 H   0  0  0  0  0  0  0  0  0  0  0  0
   35.8783   26.2999   43.6374 H   0  0  0  0  0  0  0  0  0  0  0  0
   38.4681   32.2849   38.0506 H   0  0  0  0  0  0  0  0  0  0  0  0
   36.8147   32.9008   37.7338 H   0  0  0  0  0  0  0  0  0  0  0  0
   36.8998   34.0216   39.6819 H   0  0  0  0  0  0  0  0  0  0  0  0
   37.0103   32.4197   40.5362 H   0  0  0  0  0  0  0  0  0  0  0  0
   39.7745   31.4727   40.7834 H   0  0  0  0  0  0  0  0  0  0  0  0
   41.8270   32.9245   41.3477 H   0  0  0  0  0  0  0  0  0  0  0  0
   42.4116   35.6728   41.2445 H   0  0  0  0  0  0  0  0  0  0  0  0
   41.4900   37.9042   40.6705 H   0  0  0  0  0  0  0  0  0  0  0  0
   39.1231   38.0432   39.8164 H   0  0  0  0  0  0  0  0  0  0  0  0
   37.7988   35.9770   39.5779 H   0  0  0  0  0  0  0  0  0  0  0  0
  1 11  1  0
  2  1  2  0
  3  2  1  0
  4  3  2  0
  4  5  1  0
  5  6  2  0
  6  1  1  0
  7  8  2  0
  9  8  1  0
 10  9  2  0
 11 10  1  0
 11 12  2  0
 12  7  1  0
 13  5  1  0
 13 14  1  0
 14 15  1  0
 15 23  1  0
 15 16  2  0
 16 17  1  0
 18 19  2  0
 18 17  1  0
 20 19  1  0
 21 20  2  0
 22 21  1  0
 22 23  2  0
 23 18  1  0
  2 24  1  0
  3 25  1  0
  7 26  1  0
  8 27  1  0
  9 28  1  0
 13 29  1  0
 13 30  1  0
 14 31  1  0
 14 32  1  0
 16 33  1  0
 17 34  1  0
 19 35  1  0
 20 36  1  0
 21 37  1  0
 22 38  1  0
M  ISO  8  24  14  25  14  26  14  27  14  28  14  29   8  30   8  31   8
M  ISO  7  32   8  33  14  34   9  35  14  36  14  37  14  38  14
M  END
>  <minimizedAffinity>  (1) 
-6.42241812

>  <minimizedRMSD>  (1) 
1.49875164

$$$$
