
     RDKit          3D

 40 43  0  0  0  0  0  0  0  0999 V2000
   36.5740   29.2510   40.2490 C   0  0  0  0  0  0  0  0  0  0  0  0
   35.8320   28.4900   39.3790 C   0  0  0  0  0  0  0  0  0  0  0  0
   35.6620   29.0170   38.1180 C   0  0  0  0  0  0  0  0  0  0  0  0
   36.1670   30.1820   37.7320 N   0  0  0  0  0  0  0  0  0  0  0  0
   36.8790   30.8850   38.6070 C   0  0  0  0  0  0  0  0  0  0  0  0
   37.0880   30.4370   39.8530 N   0  0  0  0  0  0  0  0  0  0  0  0
   37.8420   29.0520   43.6880 C   0  0  0  0  0  0  0  0  0  0  0  0
   37.2470   27.8770   44.1660 C   0  0  0  0  0  0  0  0  0  0  0  0
   36.4160   27.1640   43.3050 C   0  0  0  0  0  0  0  0  0  0  0  0
   36.2190   27.6350   42.0460 N   0  0  0  0  0  0  0  0  0  0  0  0
   36.8200   28.7810   41.6300 C   0  0  0  0  0  0  0  0  0  0  0  0
   37.6280   29.4970   42.4320 N   0  0  0  0  0  0  0  0  0  0  0  0
   37.5030   32.2060   38.3140 C   0  0  0  0  0  0  0  0  0  0  0  0
   37.6520   32.9920   39.5750 C   0  0  0  0  0  0  0  0  0  0  0  0
   39.0590   33.2750   39.9540 C   0  0  0  0  0  0  0  0  0  0  0  0
   39.9250   32.1930   40.1530 C   0  0  0  0  0  0  0  0  0  0  0  0
   41.2520   32.2710   40.5220 C   0  0  0  0  0  0  0  0  0  0  0  0
   41.7690   33.5350   40.7100 C   0  0  0  0  0  0  0  0  0  0  0  0
   40.9510   34.6370   40.5230 C   0  0  0  0  0  0  0  0  0  0  0  0
   41.5070   35.8850   40.7160 C   0  0  0  0  0  0  0  0  0  0  0  0
   40.6980   36.9970   40.5270 C   0  0  0  0  0  0  0  0  0  0  0  0
   39.3760   36.8560   40.1570 C   0  0  0  0  0  0  0  0  0  0  0  0
   38.8190   35.5950   39.9640 C   0  0  0  0  0  0  0  0  0  0  0  0
   39.6340   34.5000   40.1560 C   0  0  0  0  0  0  0  0  0  0  0  0
   35.4009   27.5210   39.6709 H   0  0  0  0  0  0  0  0  0  0  0  0
   35.0742   28.4395   37.3893 H   0  0  0  0  0  0  0  0  0  0  0  0
   38.5014   29.6273   44.3545 H   0  0  0  0  0  0  0  0  0  0  0  0
   37.4310   27.5273   45.1926 H   0  0  0  0  0  0  0  0  0  0  0  0
   35.9280   26.2363   43.6384 H   0  0  0  0  0  0  0  0  0  0  0  0
   38.4942   32.0487   37.8637 H   0  0  0  0  0  0  0  0  0  0  0  0
   36.8598   32.7621   37.6161 H   0  0  0  0  0  0  0  0  0  0  0  0
   37.1297   33.9516   39.4469 H   0  0  0  0  0  0  0  0  0  0  0  0
   37.2251   32.3782   40.3819 H   0  0  0  0  0  0  0  0  0  0  0  0
   39.5082   31.1864   40.0009 H   0  0  0  0  0  0  0  0  0  0  0  0
   41.8670   31.3694   40.6594 H   0  0  0  0  0  0  0  0  0  0  0  0
   42.8203   33.6671   41.0055 H   0  0  0  0  0  0  0  0  0  0  0  0
   42.5609   35.9955   41.0111 H   0  0  0  0  0  0  0  0  0  0  0  0
   41.1161   38.0038   40.6741 H   0  0  0  0  0  0  0  0  0  0  0  0
   38.7542   37.7519   40.0127 H   0  0  0  0  0  0  0  0  0  0  0  0
   37.7660   35.4765   39.6688 H   0  0  0  0  0  0  0  0  0  0  0  0
  1 11  1  0
  2  1  2  0
  3  2  1  0
  4  3  2  0
  4  5  1  0
  5  6  2  0
  6  1  1  0
  7  8  2  0
  9  8  1  0
 10  9  2  0
 11 10  1  0
 11 12  2  0
 12  7  1  0
 13  5  1  0
 13 14  1  0
 14 15  1  0
 15 16  2  0
 15 24  1  0
 16 17  1  0
 17 18  2  0
 19 18  1  0
 19 20  2  0
 21 20  1  0
 22 21  2  0
 23 24  2  0
 23 22  1  0
 24 19  1  0
  2 25  1  0
  3 26  1  0
  7 27  1  0
  8 28  1  0
  9 29  1  0
 13 30  1  0
 13 31  1  0
 14 32  1  0
 14 33  1  0
 16 34  1  0
 17 35  1  0
 18 36  1  0
 20 37  1  0
 21 38  1  0
 22 39  1  0
 23 40  1  0
M  ISO  8  25  14  26  14  27  14  28  14  29  14  30   8  31   8  32   8
M  ISO  8  33   8  34  14  35  14  36  14  37  14  38  14  39  14  40  14
M  END
>  <minimizedAffinity>  (1) 
-6.31915236

>  <minimizedRMSD>  (1) 
1.69141901

$$$$
