
     RDKit          3D

 35 38  0  0  0  0  0  0  0  0999 V2000
   37.1200   30.1770   40.3350 C   0  0  0  0  0  0  0  0  0  0  0  0
   36.9150   29.6120   39.0850 C   0  0  0  0  0  0  0  0  0  0  0  0
   36.9030   30.4970   38.0310 C   0  0  0  0  0  0  0  0  0  0  0  0
   37.0720   31.8050   38.1520 N   0  0  0  0  0  0  0  0  0  0  0  0
   37.2670   32.3180   39.3790 C   0  0  0  0  0  0  0  0  0  0  0  0
   37.2900   31.5070   40.4510 N   0  0  0  0  0  0  0  0  0  0  0  0
   37.9950   28.8530   43.6460 C   0  0  0  0  0  0  0  0  0  0  0  0
   37.1710   27.7120   43.7450 C   0  0  0  0  0  0  0  0  0  0  0  0
   36.3320   27.4200   42.6710 C   0  0  0  0  0  0  0  0  0  0  0  0
   36.3320   28.2360   41.5730 N   0  0  0  0  0  0  0  0  0  0  0  0
   37.1520   29.3210   41.5440 C   0  0  0  0  0  0  0  0  0  0  0  0
   37.9820   29.6520   42.5490 N   0  0  0  0  0  0  0  0  0  0  0  0
   37.4700   33.7550   39.6730 C   0  0  0  0  0  0  0  0  0  0  0  0
   38.6160   33.9160   40.6540 C   0  0  0  0  0  0  0  0  0  0  0  0
   39.6930   34.6740   40.0450 N   0  0  0  0  0  0  0  0  0  0  0  0
   40.0350   35.9770   40.1020 C   0  0  0  0  0  0  0  0  0  0  0  0
   41.1450   36.1760   39.3360 N   0  0  0  0  0  0  0  0  0  0  0  0
   41.5070   35.0120   38.7970 C   0  0  0  0  0  0  0  0  0  0  0  0
   42.5370   34.6170   37.9500 C   0  0  0  0  0  0  0  0  0  0  0  0
   42.6540   33.3390   37.5640 N   0  0  0  0  0  0  0  0  0  0  0  0
   41.7710   32.4220   37.9940 C   0  0  0  0  0  0  0  0  0  0  0  0
   40.7680   32.7990   38.8160 N   0  0  0  0  0  0  0  0  0  0  0  0
   40.6030   34.0680   39.2360 C   0  0  0  0  0  0  0  0  0  0  0  0
   36.7718   28.5303   38.9455 H   0  0  0  0  0  0  0  0  0  0  0  0
   36.7424   30.0911   37.0213 H   0  0  0  0  0  0  0  0  0  0  0  0
   38.6665   29.1019   44.4810 H   0  0  0  0  0  0  0  0  0  0  0  0
   37.1901   27.0737   44.6406 H   0  0  0  0  0  0  0  0  0  0  0  0
   35.6741   26.5391   42.7060 H   0  0  0  0  0  0  0  0  0  0  0  0
   37.7076   34.2894   38.7414 H   0  0  0  0  0  0  0  0  0  0  0  0
   36.5515   34.1717   40.1121 H   0  0  0  0  0  0  0  0  0  0  0  0
   38.2575   34.4476   41.5478 H   0  0  0  0  0  0  0  0  0  0  0  0
   38.9911   32.9208   40.9348 H   0  0  0  0  0  0  0  0  0  0  0  0
   39.5047   36.7530   40.6735 H   0  0  0  0  0  0  0  0  0  0  0  0
   43.2636   35.3618   37.5930 H   0  0  0  0  0  0  0  0  0  0  0  0
   41.8644   31.3722   37.6789 H   0  0  0  0  0  0  0  0  0  0  0  0
  1  6  1  0
  1 11  1  0
  2  1  2  0
  3  4  2  0
  3  2  1  0
  4  5  1  0
  5 13  1  0
  5  6  2  0
  7  8  2  0
  9  8  1  0
 10  9  2  0
 11 10  1  0
 11 12  2  0
 12  7  1  0
 13 14  1  0
 15 16  1  0
 15 14  1  0
 17 16  2  0
 18 23  2  0
 18 17  1  0
 19 18  1  0
 20 19  2  0
 20 21  1  0
 21 22  2  0
 22 23  1  0
 23 15  1  0
  2 24  1  0
  3 25  1  0
  7 26  1  0
  8 27  1  0
  9 28  1  0
 13 29  1  0
 13 30  1  0
 14 31  1  0
 14 32  1  0
 16 33  1  0
 19 34  1  0
 21 35  1  0
M  ISO  8  24  14  25  14  26  14  27  14  28  14  29   8  30   8  31   8
M  ISO  4  32   8  33  14  34  14  35  14
M  END
>  <minimizedAffinity>  (1) 
-5.87709045

>  <minimizedRMSD>  (1) 
2.79320455

$$$$
