
     RDKit          3D

 34 36  0  0  0  0  0  0  0  0999 V2000
   37.0650   29.4880   39.9660 C   0  0  0  0  0  0  0  0  0  0  0  0
   35.9930   29.1420   39.1750 C   0  0  0  0  0  0  0  0  0  0  0  0
   36.0040   29.6770   37.8930 C   0  0  0  0  0  0  0  0  0  0  0  0
   36.9660   30.4710   37.4330 N   0  0  0  0  0  0  0  0  0  0  0  0
   37.9810   30.7750   38.2410 C   0  0  0  0  0  0  0  0  0  0  0  0
   38.0390   30.2950   39.4930 N   0  0  0  0  0  0  0  0  0  0  0  0
   38.0780   29.1000   43.4910 C   0  0  0  0  0  0  0  0  0  0  0  0
   37.3120   28.0030   43.9010 C   0  0  0  0  0  0  0  0  0  0  0  0
   36.4610   27.4120   42.9710 C   0  0  0  0  0  0  0  0  0  0  0  0
   36.3980   27.9110   41.7030 N   0  0  0  0  0  0  0  0  0  0  0  0
   37.1640   28.9760   41.3590 C   0  0  0  0  0  0  0  0  0  0  0  0
   37.9970   29.5760   42.2230 N   0  0  0  0  0  0  0  0  0  0  0  0
   39.1200   31.6430   37.8720 C   0  0  0  0  0  0  0  0  0  0  0  0
   39.9550   31.9500   39.0920 C   0  0  0  0  0  0  0  0  0  0  0  0
   40.0120   33.3490   39.3920 N   0  0  0  0  0  0  0  0  0  0  0  0
   38.9470   33.9180   40.0200 C   0  0  0  0  0  0  0  0  0  0  0  0
   38.8930   35.2550   40.3570 C   0  0  0  0  0  0  0  0  0  0  0  0
   39.9610   36.0790   40.0540 C   0  0  0  0  0  0  0  0  0  0  0  0
   39.9480   37.3030   40.3450 O   0  0  0  0  0  0  0  0  0  0  0  0
   41.0000   35.4830   39.4310 N   0  0  0  0  0  0  0  0  0  0  0  0
   41.0510   34.1800   39.1040 C   0  0  0  0  0  0  0  0  0  0  0  0
   42.0290   33.6750   38.5310 O   0  0  0  0  0  0  0  0  0  0  0  0
   35.1843   28.4878   39.5329 H   0  0  0  0  0  0  0  0  0  0  0  0
   35.1695   29.4297   37.2204 H   0  0  0  0  0  0  0  0  0  0  0  0
   38.7568   29.5843   44.2084 H   0  0  0  0  0  0  0  0  0  0  0  0
   37.3803   27.6184   44.9293 H   0  0  0  0  0  0  0  0  0  0  0  0
   35.8432   26.5480   43.2570 H   0  0  0  0  0  0  0  0  0  0  0  0
   39.7425   31.1285   37.1251 H   0  0  0  0  0  0  0  0  0  0  0  0
   38.7344   32.5844   37.4534 H   0  0  0  0  0  0  0  0  0  0  0  0
   39.5217   31.4235   39.9552 H   0  0  0  0  0  0  0  0  0  0  0  0
   40.9817   31.6160   38.8812 H   0  0  0  0  0  0  0  0  0  0  0  0
   38.0866   33.2804   40.2714 H   0  0  0  0  0  0  0  0  0  0  0  0
   38.0058   35.6627   40.8636 H   0  0  0  0  0  0  0  0  0  0  0  0
   41.8119   36.0687   39.1889 H   0  0  0  0  0  0  0  0  0  0  0  0
  1 11  1  0
  2  1  2  0
  3  2  1  0
  4  3  2  0
  4  5  1  0
  5  6  2  0
  6  1  1  0
  7  8  2  0
  9  8  1  0
 10  9  2  0
 11 10  1  0
 11 12  2  0
 12  7  1  0
 13  5  1  0
 13 14  1  0
 14 15  1  0
 15 16  1  0
 16 17  2  0
 18 19  2  0
 18 17  1  0
 20 18  1  0
 21 15  1  0
 21 20  1  0
 22 21  2  0
  2 23  1  0
  3 24  1  0
  7 25  1  0
  8 26  1  0
  9 27  1  0
 13 28  1  0
 13 29  1  0
 14 30  1  0
 14 31  1  0
 16 32  1  0
 17 33  1  0
 20 34  1  0
M  ISO  8  23  14  24  14  25  14  26  14  27  14  28   8  29   8  30   8
M  ISO  4  31   8  32  14  33  14  34   9
M  END
>  <minimizedAffinity>  (1) 
-5.70272207

>  <minimizedRMSD>  (1) 
1.36726308

$$$$
