
     RDKit          3D

 34 36  0  0  0  0  0  0  0  0999 V2000
   37.0060   29.4120   40.1870 C   0  0  0  0  0  0  0  0  0  0  0  0
   36.7760   28.6690   39.0550 C   0  0  0  0  0  0  0  0  0  0  0  0
   36.7050   29.4050   37.8940 C   0  0  0  0  0  0  0  0  0  0  0  0
   36.8400   30.7280   37.8260 N   0  0  0  0  0  0  0  0  0  0  0  0
   37.0640   31.4080   38.9570 C   0  0  0  0  0  0  0  0  0  0  0  0
   37.1480   30.7650   40.1340 N   0  0  0  0  0  0  0  0  0  0  0  0
   37.5870   28.8110   43.7710 C   0  0  0  0  0  0  0  0  0  0  0  0
   37.2720   27.4460   43.8950 C   0  0  0  0  0  0  0  0  0  0  0  0
   36.8660   26.7460   42.7620 C   0  0  0  0  0  0  0  0  0  0  0  0
   36.7900   27.4110   41.5750 N   0  0  0  0  0  0  0  0  0  0  0  0
   37.1050   28.7250   41.5090 C   0  0  0  0  0  0  0  0  0  0  0  0
   37.5000   29.4310   42.5830 N   0  0  0  0  0  0  0  0  0  0  0  0
   37.2380   32.8750   39.0610 C   0  0  0  0  0  0  0  0  0  0  0  0
   38.0700   33.2050   40.2810 C   0  0  0  0  0  0  0  0  0  0  0  0
   39.1460   34.1560   40.0100 C   0  0  0  0  0  0  0  0  0  0  0  0
   40.4140   33.8550   39.5410 C   0  0  0  0  0  0  0  0  0  0  0  0
   41.3530   34.8380   39.3190 C   0  0  0  0  0  0  0  0  0  0  0  0
   40.9780   36.1520   39.5850 C   0  0  0  0  0  0  0  0  0  0  0  0
   39.7290   36.5130   40.0520 C   0  0  0  0  0  0  0  0  0  0  0  0
   38.8070   35.4860   40.2640 C   0  0  0  0  0  0  0  0  0  0  0  0
   36.6582   27.5755   39.0746 H   0  0  0  0  0  0  0  0  0  0  0  0
   36.5238   28.8613   36.9551 H   0  0  0  0  0  0  0  0  0  0  0  0
   37.9084   29.3774   44.6575 H   0  0  0  0  0  0  0  0  0  0  0  0
   37.3450   26.9406   44.8693 H   0  0  0  0  0  0  0  0  0  0  0  0
   36.6117   25.6776   42.8238 H   0  0  0  0  0  0  0  0  0  0  0  0
   37.7469   33.2476   38.1598 H   0  0  0  0  0  0  0  0  0  0  0  0
   36.2516   33.3531   39.1528 H   0  0  0  0  0  0  0  0  0  0  0  0
   37.4091   33.6355   41.0477 H   0  0  0  0  0  0  0  0  0  0  0  0
   38.5408   32.2689   40.6158 H   0  0  0  0  0  0  0  0  0  0  0  0
   40.6774   32.8059   39.3410 H   0  0  0  0  0  0  0  0  0  0  0  0
   42.3589   34.5945   38.9464 H   0  0  0  0  0  0  0  0  0  0  0  0
   41.7179   36.9477   39.4137 H   0  0  0  0  0  0  0  0  0  0  0  0
   39.4718   37.5643   40.2484 H   0  0  0  0  0  0  0  0  0  0  0  0
   37.8005   35.7282   40.6360 H   0  0  0  0  0  0  0  0  0  0  0  0
  1 11  1  0
  2  1  2  0
  3  2  1  0
  4  3  2  0
  4  5  1  0
  5 13  1  0
  5  6  2  0
  6  1  1  0
  7  8  2  0
  9  8  1  0
 10  9  2  0
 11 10  1  0
 11 12  2  0
 12  7  1  0
 13 14  1  0
 15 20  1  0
 15 14  1  0
 16 15  2  0
 17 16  1  0
 17 18  2  0
 18 19  1  0
 19 20  2  0
  2 21  1  0
  3 22  1  0
  7 23  1  0
  8 24  1  0
  9 25  1  0
 13 26  1  0
 13 27  1  0
 14 28  1  0
 14 29  1  0
 16 30  1  0
 17 31  1  0
 18 32  1  0
 19 33  1  0
 20 34  1  0
M  ISO  8  21  14  22  14  23  14  24  14  25  14  26   8  27   8  28   8
M  ISO  6  29   8  30  14  31  14  32  14  33  14  34  14
M  END
>  <minimizedAffinity>  (1) 
-5.62044954

>  <minimizedRMSD>  (1) 
1.24167466

$$$$
