
     RDKit          3D

 40 42  0  0  0  0  0  0  0  0999 V2000
   36.8010   29.2400   40.1860 C   0  0  0  0  0  0  0  0  0  0  0  0
   36.3270   28.3860   39.2200 C   0  0  0  0  0  0  0  0  0  0  0  0
   36.1900   28.9400   37.9630 C   0  0  0  0  0  0  0  0  0  0  0  0
   36.4760   30.1950   37.6570 N   0  0  0  0  0  0  0  0  0  0  0  0
   36.9360   30.9940   38.6330 C   0  0  0  0  0  0  0  0  0  0  0  0
   37.1060   30.5370   39.9020 N   0  0  0  0  0  0  0  0  0  0  0  0
   38.0120   28.9720   43.6560 C   0  0  0  0  0  0  0  0  0  0  0  0
   37.3200   27.8560   44.1350 C   0  0  0  0  0  0  0  0  0  0  0  0
   36.4510   27.2170   43.2570 C   0  0  0  0  0  0  0  0  0  0  0  0
   36.2890   27.6690   41.9850 N   0  0  0  0  0  0  0  0  0  0  0  0
   36.9930   28.7650   41.5750 C   0  0  0  0  0  0  0  0  0  0  0  0
   37.8430   29.4140   42.3870 N   0  0  0  0  0  0  0  0  0  0  0  0
   37.3140   32.4370   38.4830 C   0  0  0  0  0  0  0  0  0  0  0  0
   37.8500   32.9420   39.7920 C   0  0  0  0  0  0  0  0  0  0  0  0
   38.9160   33.9780   39.6550 C   0  0  0  0  0  0  0  0  0  0  0  0
   38.8770   35.0350   40.7140 C   0  0  0  0  0  0  0  0  0  0  0  0
   39.6540   36.2170   40.1600 C   0  0  0  0  0  0  0  0  0  0  0  0
   41.0720   35.8140   39.8780 C   0  0  0  0  0  0  0  0  0  0  0  0
   41.2220   34.5200   39.1430 C   0  0  0  0  0  0  0  0  0  0  0  0
   40.3120   33.4170   39.6500 C   0  0  0  0  0  0  0  0  0  0  0  0
   36.0749   27.3366   39.4327 H   0  0  0  0  0  0  0  0  0  0  0  0
   35.8160   28.2910   37.1575 H   0  0  0  0  0  0  0  0  0  0  0  0
   38.7078   29.5019   44.3231 H   0  0  0  0  0  0  0  0  0  0  0  0
   37.4573   27.4973   45.1658 H   0  0  0  0  0  0  0  0  0  0  0  0
   35.8878   26.3350   43.5959 H   0  0  0  0  0  0  0  0  0  0  0  0
   38.0857   32.5369   37.7055 H   0  0  0  0  0  0  0  0  0  0  0  0
   36.4301   33.0239   38.1927 H   0  0  0  0  0  0  0  0  0  0  0  0
   37.0160   33.3777   40.3618 H   0  0  0  0  0  0  0  0  0  0  0  0
   38.3080   32.0809   40.3007 H   0  0  0  0  0  0  0  0  0  0  0  0
   38.6850   34.4219   38.6754 H   0  0  0  0  0  0  0  0  0  0  0  0
   37.8373   35.3265   40.9240 H   0  0  0  0  0  0  0  0  0  0  0  0
   39.3133   34.6744   41.6572 H   0  0  0  0  0  0  0  0  0  0  0  0
   39.1806   36.5592   39.2279 H   0  0  0  0  0  0  0  0  0  0  0  0
   39.6508   37.0299   40.9011 H   0  0  0  0  0  0  0  0  0  0  0  0
   41.5394   36.6063   39.2749 H   0  0  0  0  0  0  0  0  0  0  0  0
   41.5540   35.6720   40.8565 H   0  0  0  0  0  0  0  0  0  0  0  0
   42.2643   34.1831   39.2438 H   0  0  0  0  0  0  0  0  0  0  0  0
   40.9399   34.7118   38.0972 H   0  0  0  0  0  0  0  0  0  0  0  0
   40.3673   32.5434   38.9838 H   0  0  0  0  0  0  0  0  0  0  0  0
   40.6105   33.0884   40.6564 H   0  0  0  0  0  0  0  0  0  0  0  0
  1 11  1  0
  2  1  2  0
  3  2  1  0
  4  3  2  0
  4  5  1  0
  5  6  2  0
  6  1  1  0
  7  8  2  0
  9  8  1  0
 10  9  2  0
 11 10  1  0
 11 12  2  0
 12  7  1  0
 13  5  1  0
 13 14  1  0
 15 14  1  0
 15 16  1  0
 17 16  1  0
 18 17  1  0
 19 20  1  0
 19 18  1  0
 20 15  1  0
  2 21  1  0
  3 22  1  0
  7 23  1  0
  8 24  1  0
  9 25  1  0
 13 26  1  0
 13 27  1  0
 14 28  1  0
 14 29  1  0
 15 30  1  0
 16 31  1  0
 16 32  1  0
 17 33  1  0
 17 34  1  0
 18 35  1  0
 18 36  1  0
 19 37  1  0
 19 38  1  0
 20 39  1  0
 20 40  1  0
M  ISO  8  21  14  22  14  23  14  24  14  25  14  26   8  27   8  28   8
M  ISO  8  29   8  30  13  31  13  32  13  33  13  34  13  35  13  36  13
M  ISO  4  37  13  38  13  39  13  40  13
M  END
>  <minimizedAffinity>  (1) 
-5.35119343

>  <minimizedRMSD>  (1) 
0.817891836

$$$$
