
     RDKit          3D

 31 33  0  0  0  0  0  0  0  0999 V2000
   37.2520   29.8610   40.1050 C   0  0  0  0  0  0  0  0  0  0  0  0
   37.1490   29.2840   38.8500 C   0  0  0  0  0  0  0  0  0  0  0  0
   37.1260   30.1650   37.7890 C   0  0  0  0  0  0  0  0  0  0  0  0
   37.2000   31.4910   37.9280 N   0  0  0  0  0  0  0  0  0  0  0  0
   37.2990   31.9970   39.1540 C   0  0  0  0  0  0  0  0  0  0  0  0
   37.3270   31.2020   40.2460 N   0  0  0  0  0  0  0  0  0  0  0  0
   37.5920   28.7590   43.5870 C   0  0  0  0  0  0  0  0  0  0  0  0
   37.3330   27.3810   43.5040 C   0  0  0  0  0  0  0  0  0  0  0  0
   37.0440   26.8490   42.2430 C   0  0  0  0  0  0  0  0  0  0  0  0
   37.0290   27.6840   41.1740 N   0  0  0  0  0  0  0  0  0  0  0  0
   37.2850   29.0030   41.3060 C   0  0  0  0  0  0  0  0  0  0  0  0
   37.5680   29.5590   42.5010 N   0  0  0  0  0  0  0  0  0  0  0  0
   37.3870   33.4440   39.4630 C   0  0  0  0  0  0  0  0  0  0  0  0
   38.3550   33.6930   40.5960 C   0  0  0  0  0  0  0  0  0  0  0  0
   39.3840   34.6160   40.1660 N   0  0  0  0  0  0  0  0  0  0  0  0
   40.5210   34.2400   39.6070 N   0  0  0  0  0  0  0  0  0  0  0  0
   41.2780   35.3100   39.3150 C   0  0  0  0  0  0  0  0  0  0  0  0
   40.5780   36.4530   39.7140 C   0  0  0  0  0  0  0  0  0  0  0  0
   39.3940   35.9590   40.2430 C   0  0  0  0  0  0  0  0  0  0  0  0
   37.0895   28.1947   38.7088 H   0  0  0  0  0  0  0  0  0  0  0  0
   37.0421   29.7527   36.7726 H   0  0  0  0  0  0  0  0  0  0  0  0
   37.8216   29.1997   44.5683 H   0  0  0  0  0  0  0  0  0  0  0  0
   37.3566   26.7425   44.3994 H   0  0  0  0  0  0  0  0  0  0  0  0
   36.8334   25.7763   42.1208 H   0  0  0  0  0  0  0  0  0  0  0  0
   37.7323   33.9834   38.5686 H   0  0  0  0  0  0  0  0  0  0  0  0
   36.3914   33.8011   39.7651 H   0  0  0  0  0  0  0  0  0  0  0  0
   37.8134   34.1223   41.4517 H   0  0  0  0  0  0  0  0  0  0  0  0
   38.8205   32.7415   40.8925 H   0  0  0  0  0  0  0  0  0  0  0  0
   42.2725   35.2908   38.8452 H   0  0  0  0  0  0  0  0  0  0  0  0
   40.8937   37.5032   39.6282 H   0  0  0  0  0  0  0  0  0  0  0  0
   38.5843   36.5740   40.6627 H   0  0  0  0  0  0  0  0  0  0  0  0
  1  6  1  0
  1 11  1  0
  2  1  2  0
  3  4  2  0
  3  2  1  0
  4  5  1  0
  5 13  1  0
  5  6  2  0
  8  7  2  0
  9  8  1  0
 10 11  1  0
 10  9  2  0
 11 12  2  0
 12  7  1  0
 13 14  1  0
 15 19  1  0
 15 14  1  0
 16 15  1  0
 17 16  2  0
 17 18  1  0
 18 19  2  0
  2 20  1  0
  3 21  1  0
  7 22  1  0
  8 23  1  0
  9 24  1  0
 13 25  1  0
 13 26  1  0
 14 27  1  0
 14 28  1  0
 17 29  1  0
 18 30  1  0
 19 31  1  0
M  ISO  8  20  14  21  14  22  14  23  14  24  14  25   8  26   8  27   8
M  ISO  4  28   8  29  14  30  14  31  14
M  END
>  <minimizedAffinity>  (1) 
-5.21825027

>  <minimizedRMSD>  (1) 
1.672122

$$$$
