
     RDKit          3D

 30 32  0  0  0  0  0  0  0  0999 V2000
   38.2880   28.5790   43.3710 C   0  0  0  0  0  0  0  0  0  0  0  0
   38.0870   27.3480   42.7040 C   0  0  0  0  0  0  0  0  0  0  0  0
   38.0070   27.3920   41.3170 C   0  0  0  0  0  0  0  0  0  0  0  0
   38.1220   28.5810   40.6770 N   0  0  0  0  0  0  0  0  0  0  0  0
   38.3110   29.7310   41.3330 C   0  0  0  0  0  0  0  0  0  0  0  0
   38.3940   29.7280   42.6800 N   0  0  0  0  0  0  0  0  0  0  0  0
   38.4410   31.0150   40.7320 N   0  0  0  0  0  0  0  0  0  0  0  0
   38.8750   31.9960   41.5060 N   0  0  0  0  0  0  0  0  0  0  0  0
   38.9340   33.1410   40.7620 C   0  0  0  0  0  0  0  0  0  0  0  0
   38.5090   32.7780   39.5010 C   0  0  0  0  0  0  0  0  0  0  0  0
   38.1900   31.4150   39.4730 C   0  0  0  0  0  0  0  0  0  0  0  0
   37.7200   30.5760   38.4500 N   0  0  0  0  0  0  0  0  0  0  0  0
   36.4570   30.2380   38.1720 C   0  0  0  0  0  0  0  0  0  0  0  0
   36.1860   29.4010   37.1260 C   0  0  0  0  0  0  0  0  0  0  0  0
   34.7730   29.0260   36.8180 C   0  0  0  0  0  0  0  0  0  0  0  0
   37.1730   28.8550   36.2950 C   0  0  0  0  0  0  0  0  0  0  0  0
   36.8760   28.0910   35.3470 O   0  0  0  0  0  0  0  0  0  0  0  0
   38.4300   29.2280   36.6190 N   0  0  0  0  0  0  0  0  0  0  0  0
   38.6950   30.0530   37.6510 C   0  0  0  0  0  0  0  0  0  0  0  0
   39.9140   30.3080   37.8260 O   0  0  0  0  0  0  0  0  0  0  0  0
   38.3585   28.5968   44.4686 H   0  0  0  0  0  0  0  0  0  0  0  0
   37.9982   26.4010   43.2566 H   0  0  0  0  0  0  0  0  0  0  0  0
   37.8513   26.4671   40.7422 H   0  0  0  0  0  0  0  0  0  0  0  0
   39.2525   34.1391   41.0973 H   0  0  0  0  0  0  0  0  0  0  0  0
   38.4319   33.4605   38.6418 H   0  0  0  0  0  0  0  0  0  0  0  0
   35.6346   30.6340   38.7859 H   0  0  0  0  0  0  0  0  0  0  0  0
   34.2196   28.8791   37.7572 H   0  0  0  0  0  0  0  0  0  0  0  0
   34.2992   29.8295   36.2350 H   0  0  0  0  0  0  0  0  0  0  0  0
   34.7599   28.0933   36.2350 H   0  0  0  0  0  0  0  0  0  0  0  0
   39.2147   28.8688   36.0568 H   0  0  0  0  0  0  0  0  0  0  0  0
  2  1  2  0
  3  2  1  0
  4  3  2  0
  4  5  1  0
  5  6  2  0
  6  1  1  0
  7  5  1  0
  7  8  1  0
  9  8  2  0
 10  9  1  0
 11 10  2  0
 11  7  1  0
 12 11  1  0
 13 12  1  0
 14 13  2  0
 15 14  1  0
 16 18  1  0
 16 14  1  0
 17 16  2  0
 18 19  1  0
 19 20  2  0
 19 12  1  0
  1 21  1  0
  2 22  1  0
  3 23  1  0
  9 24  1  0
 10 25  1  0
 13 26  1  0
 15 27  1  0
 15 28  1  0
 15 29  1  0
 18 30  1  0
M  ISO  8  21  14  22  14  23  14  24  14  25  14  26  14  27   8  28   8
M  ISO  2  29   8  30   9
M  END
>  <minimizedAffinity>  (1) 
-4.88465023

>  <minimizedRMSD>  (1) 
2.94099712

$$$$
