
     RDKit          3D

 46 49  0  0  1  0  0  0  0  0999 V2000
   39.0180   26.0630   41.6040 C   0  0  1  0  0  0  0  0  0  0  0  0
   38.8460   24.5650   41.9410 C   0  0  0  0  0  0  0  0  0  0  0  0
   37.3750   24.3630   42.1260 C   0  0  0  0  0  0  0  0  0  0  0  0
   36.8240   25.4670   41.2190 C   0  0  0  0  0  0  0  0  0  0  0  0
   37.6630   26.6290   41.7240 C   0  0  2  0  0  0  0  0  0  0  0  0
   41.6220   28.4090   43.0130 C   0  0  0  0  0  0  0  0  0  0  0  0
   40.6480   27.9270   42.1240 C   0  0  0  0  0  0  0  0  0  0  0  0
   40.0390   26.6930   42.4270 C   0  0  0  0  0  0  0  0  0  0  0  0
   40.4220   26.0320   43.5590 N   0  0  0  0  0  0  0  0  0  0  0  0
   41.3580   26.5240   44.3860 C   0  0  0  0  0  0  0  0  0  0  0  0
   41.9580   27.7150   44.1100 N   0  0  0  0  0  0  0  0  0  0  0  0
   37.2940   27.7620   40.8420 C   0  0  2  0  0  0  0  0  0  0  0  0
   36.0470   28.4850   41.1960 C   0  0  0  0  0  0  0  0  0  0  0  0
   37.2120   27.2070   39.4430 C   0  0  0  0  0  0  0  0  0  0  0  0
   38.1360   27.9830   38.5940 C   0  0  0  0  0  0  0  0  0  0  0  0
   37.8540   29.1830   37.9280 C   0  0  0  0  0  0  0  0  0  0  0  0
   38.8980   29.6060   37.1970 N   0  0  0  0  0  0  0  0  0  0  0  0
   39.9060   28.7250   37.3390 C   0  0  0  0  0  0  0  0  0  0  0  0
   41.1810   28.7040   36.8180 C   0  0  0  0  0  0  0  0  0  0  0  0
   42.0510   27.6930   37.1300 C   0  0  0  0  0  0  0  0  0  0  0  0
   41.6030   26.7000   37.9820 C   0  0  0  0  0  0  0  0  0  0  0  0
   40.3250   26.7380   38.4910 C   0  0  0  0  0  0  0  0  0  0  0  0
   39.4260   27.7510   38.1880 C   0  0  0  0  0  0  0  0  0  0  0  0
   39.4040   26.2416   40.5896 H   0  0  0  0  0  0  0  0  0  0  0  0
   39.2191   23.9401   41.1162 H   0  0  0  0  0  0  0  0  0  0  0  0
   39.4130   24.2813   42.8399 H   0  0  0  0  0  0  0  0  0  0  0  0
   37.0569   23.3651   41.7898 H   0  0  0  0  0  0  0  0  0  0  0  0
   37.0334   24.4154   43.1703 H   0  0  0  0  0  0  0  0  0  0  0  0
   35.7486   25.6342   41.3792 H   0  0  0  0  0  0  0  0  0  0  0  0
   36.8903   25.2694   40.1389 H   0  0  0  0  0  0  0  0  0  0  0  0
   37.5428   27.0185   42.7457 H   0  0  0  0  0  0  0  0  0  0  0  0
   42.1165   29.3697   42.8066 H   0  0  0  0  0  0  0  0  0  0  0  0
   40.3701   28.4929   41.2226 H   0  0  0  0  0  0  0  0  0  0  0  0
   41.6412   25.9636   45.2892 H   0  0  0  0  0  0  0  0  0  0  0  0
   38.0678   28.5355   40.9555 H   0  0  0  0  0  0  0  0  0  0  0  0
   35.9529   28.5395   42.2906 H   0  0  0  0  0  0  0  0  0  0  0  0
   36.0824   29.5026   40.7799 H   0  0  0  0  0  0  0  0  0  0  0  0
   35.1815   27.9486   40.7799 H   0  0  0  0  0  0  0  0  0  0  0  0
   37.5055   26.1469   39.4434 H   0  0  0  0  0  0  0  0  0  0  0  0
   36.1837   27.2825   39.0598 H   0  0  0  0  0  0  0  0  0  0  0  0
   36.8933   29.7145   37.9958 H   0  0  0  0  0  0  0  0  0  0  0  0
   38.9233   30.4613   36.6237 H   0  0  0  0  0  0  0  0  0  0  0  0
   41.5047   29.5096   36.1426 H   0  0  0  0  0  0  0  0  0  0  0  0
   43.0704   27.6717   36.7173 H   0  0  0  0  0  0  0  0  0  0  0  0
   42.2742   25.8724   38.2552 H   0  0  0  0  0  0  0  0  0  0  0  0
   40.0025   25.9318   39.1663 H   0  0  0  0  0  0  0  0  0  0  0  0
  1  5  1  0
  1  2  1  0
  1  8  1  0
  2  3  1  0
  4  5  1  0
  4  3  1  0
  6 11  2  0
  7  8  2  0
  7  6  1  0
  8  9  1  0
  9 10  2  0
 11 10  1  0
 12 13  1  0
 12  5  1  0
 14 12  1  0
 15 14  1  0
 16 15  2  0
 17 18  1  0
 17 16  1  0
 18 23  2  0
 19 20  2  0
 19 18  1  0
 20 21  1  0
 21 22  2  0
 23 22  1  0
 23 15  1  0
  1 24  1  6
  2 25  1  0
  2 26  1  0
  3 27  1  0
  3 28  1  0
  4 29  1  0
  4 30  1  0
  5 31  1  1
  6 32  1  0
  7 33  1  0
 10 34  1  0
 12 35  1  6
 13 36  1  0
 13 37  1  0
 13 38  1  0
 14 39  1  0
 14 40  1  0
 16 41  1  0
 17 42  1  0
 19 43  1  0
 20 44  1  0
 21 45  1  0
 22 46  1  0
M  ISO  8  24  13  25  13  26  13  27  13  28  13  29  13  30  13  31  13
M  ISO  8  32  14  33  14  34  14  35   8  36   8  37   8  38   8  39   8
M  ISO  7  40   8  41  14  42   9  43  14  44  14  45  14  46  14
M  END
>  <minimizedAffinity>  (1) 
-4.3431015

>  <minimizedRMSD>  (1) 
4.37850523

$$$$
