
     RDKit          3D

 31 32  0  0  0  0  0  0  0  0999 V2000
   37.2540   30.1200   40.1220 C   0  0  0  0  0  0  0  0  0  0  0  0
   37.1380   29.6070   38.8330 C   0  0  0  0  0  0  0  0  0  0  0  0
   37.1380   30.5370   37.8190 C   0  0  0  0  0  0  0  0  0  0  0  0
   37.2410   31.8420   38.0250 N   0  0  0  0  0  0  0  0  0  0  0  0
   37.3520   32.2950   39.2900 C   0  0  0  0  0  0  0  0  0  0  0  0
   37.3600   31.4520   40.3400 N   0  0  0  0  0  0  0  0  0  0  0  0
   37.6340   28.8110   43.5320 C   0  0  0  0  0  0  0  0  0  0  0  0
   37.2700   27.4500   43.3730 C   0  0  0  0  0  0  0  0  0  0  0  0
   36.9020   27.0060   42.1020 C   0  0  0  0  0  0  0  0  0  0  0  0
   36.9080   27.8940   41.0780 N   0  0  0  0  0  0  0  0  0  0  0  0
   37.2630   29.1900   41.2750 C   0  0  0  0  0  0  0  0  0  0  0  0
   37.6220   29.6580   42.4740 N   0  0  0  0  0  0  0  0  0  0  0  0
   37.4620   33.7220   39.6900 C   0  0  0  0  0  0  0  0  0  0  0  0
   38.8820   34.0520   40.0430 C   0  0  0  0  0  0  0  0  0  0  0  0
   39.1060   35.2950   40.6930 N   0  0  0  0  0  0  0  0  0  0  0  0
   40.4600   35.5070   41.1400 C   0  0  0  0  0  0  0  0  0  0  0  0
   41.4220   34.6490   40.9640 N   0  0  0  0  0  0  0  0  0  0  0  0
   40.7220   36.7560   41.8160 N   0  0  0  0  0  0  0  0  0  0  0  0
   42.3810   34.9170   41.3390 H   0  0  0  0  0  0  0  0  0  0  0  0
   37.0519   28.5279   38.6378 H   0  0  0  0  0  0  0  0  0  0  0  0
   37.0478   30.1785   36.7830 H   0  0  0  0  0  0  0  0  0  0  0  0
   37.9291   29.1833   44.5241 H   0  0  0  0  0  0  0  0  0  0  0  0
   37.2774   26.7609   44.2303 H   0  0  0  0  0  0  0  0  0  0  0  0
   36.6133   25.9578   41.9349 H   0  0  0  0  0  0  0  0  0  0  0  0
   37.1375   34.3598   38.8546 H   0  0  0  0  0  0  0  0  0  0  0  0
   36.8230   33.8995   40.5676 H   0  0  0  0  0  0  0  0  0  0  0  0
   39.2537   33.2573   40.7065 H   0  0  0  0  0  0  0  0  0  0  0  0
   39.4081   34.1306   39.0802 H   0  0  0  0  0  0  0  0  0  0  0  0
   38.3594   35.9904   40.8339 H   0  0  0  0  0  0  0  0  0  0  0  0
   41.6699   36.9668   42.1594 H   0  0  0  0  0  0  0  0  0  0  0  0
   39.9609   37.4360   41.9548 H   0  0  0  0  0  0  0  0  0  0  0  0
  1  6  1  0
  1 11  1  0
  2  1  2  0
  3  4  2  0
  3  2  1  0
  4  5  1  0
  5 13  1  0
  5  6  2  0
  8  7  2  0
  9  8  1  0
 10 11  1  0
 10  9  2  0
 11 12  2  0
 12  7  1  0
 13 14  1  0
 14 15  1  0
 15 16  1  0
 16 18  1  0
 17 16  2  0
 17 19  1  0
  2 20  1  0
  3 21  1  0
  7 22  1  0
  8 23  1  0
  9 24  1  0
 13 25  1  0
 13 26  1  0
 14 27  1  0
 14 28  1  0
 15 29  1  0
 18 30  1  0
 18 31  1  0
M  ISO  8  20  14  21  14  22  14  23  14  24  14  25   8  26   8  27   8
M  ISO  1  28   8
M  END
>  <minimizedAffinity>  (1) 
-5.09550476

>  <minimizedRMSD>  (1) 
3.04745078

$$$$
