
     RDKit          3D

 37 39  0  0  0  0  0  0  0  0999 V2000
   37.6570   30.0640   39.8180 C   0  0  0  0  0  0  0  0  0  0  0  0
   36.6940   29.8880   38.8480 C   0  0  0  0  0  0  0  0  0  0  0  0
   36.9200   30.5740   37.6640 C   0  0  0  0  0  0  0  0  0  0  0  0
   37.9710   31.3500   37.4460 N   0  0  0  0  0  0  0  0  0  0  0  0
   38.8880   31.4980   38.4130 C   0  0  0  0  0  0  0  0  0  0  0  0
   38.7420   30.8630   39.5980 N   0  0  0  0  0  0  0  0  0  0  0  0
   38.1700   29.1440   43.3480 C   0  0  0  0  0  0  0  0  0  0  0  0
   37.2420   28.0880   43.5190 C   0  0  0  0  0  0  0  0  0  0  0  0
   36.4640   27.7140   42.4250 C   0  0  0  0  0  0  0  0  0  0  0  0
   36.6330   28.3800   41.2520 N   0  0  0  0  0  0  0  0  0  0  0  0
   37.5260   29.3820   41.1280 C   0  0  0  0  0  0  0  0  0  0  0  0
   38.3020   29.7760   42.1650 N   0  0  0  0  0  0  0  0  0  0  0  0
   40.1250   32.3180   38.3590 C   0  0  0  0  0  0  0  0  0  0  0  0
   40.0660   33.3820   39.4470 C   0  0  0  0  0  0  0  0  0  0  0  0
   41.2950   34.1140   39.5750 N   0  0  0  0  0  0  0  0  0  0  0  0
   40.9600   35.5280   39.5790 C   0  0  0  0  0  0  0  0  0  0  0  0
   40.7750   36.0520   40.9960 C   0  0  0  0  0  0  0  0  0  0  0  0
   41.9900   36.0980   41.6790 O   0  0  0  0  0  0  0  0  0  0  0  0
   42.7330   34.9580   41.3560 C   0  0  0  0  0  0  0  0  0  0  0  0
   41.8460   33.8150   40.9000 C   0  0  0  0  0  0  0  0  0  0  0  0
   35.8110   29.2503   39.0015 H   0  0  0  0  0  0  0  0  0  0  0  0
   36.1809   30.4670   36.8563 H   0  0  0  0  0  0  0  0  0  0  0  0
   38.7956   29.4546   44.1978 H   0  0  0  0  0  0  0  0  0  0  0  0
   37.1382   27.5775   44.4878 H   0  0  0  0  0  0  0  0  0  0  0  0
   35.7302   26.8988   42.5087 H   0  0  0  0  0  0  0  0  0  0  0  0
   41.0015   31.6735   38.5214 H   0  0  0  0  0  0  0  0  0  0  0  0
   40.2071   32.8000   37.3736 H   0  0  0  0  0  0  0  0  0  0  0  0
   39.2591   34.0891   39.2041 H   0  0  0  0  0  0  0  0  0  0  0  0
   39.8841   32.8692   40.4030 H   0  0  0  0  0  0  0  0  0  0  0  0
   41.7718   36.0893   39.0932 H   0  0  0  0  0  0  0  0  0  0  0  0
   40.0131   35.6605   39.0350 H   0  0  0  0  0  0  0  0  0  0  0  0
   40.3499   37.0656   40.9512 H   0  0  0  0  0  0  0  0  0  0  0  0
   40.0986   35.3713   41.5337 H   0  0  0  0  0  0  0  0  0  0  0  0
   43.4346   35.2083   40.5467 H   0  0  0  0  0  0  0  0  0  0  0  0
   43.2695   34.6335   42.2598 H   0  0  0  0  0  0  0  0  0  0  0  0
   41.0223   33.6832   41.6170 H   0  0  0  0  0  0  0  0  0  0  0  0
   42.4413   32.8916   40.8465 H   0  0  0  0  0  0  0  0  0  0  0  0
  1 11  1  0
  2  1  2  0
  3  2  1  0
  4  3  2  0
  4  5  1  0
  5  6  2  0
  6  1  1  0
  7  8  2  0
  9  8  1  0
 10  9  2  0
 11 10  1  0
 11 12  2  0
 12  7  1  0
 13  5  1  0
 13 14  1  0
 14 15  1  0
 15 16  1  0
 15 20  1  0
 16 17  1  0
 17 18  1  0
 19 18  1  0
 20 19  1  0
  2 21  1  0
  3 22  1  0
  7 23  1  0
  8 24  1  0
  9 25  1  0
 13 26  1  0
 13 27  1  0
 14 28  1  0
 14 29  1  0
 16 30  1  0
 16 31  1  0
 17 32  1  0
 17 33  1  0
 19 34  1  0
 19 35  1  0
 20 36  1  0
 20 37  1  0
M  ISO  8  21  14  22  14  23  14  24  14  25  14  26   8  27   8  28   8
M  ISO  8  29   8  30  13  31  13  32  13  33  13  34  13  35  13  36  13
M  ISO  1  37  13
M  END
>  <minimizedAffinity>  (1) 
-4.85950804

>  <minimizedRMSD>  (1) 
2.08842063

$$$$
