
     RDKit          3D

 31 33  0  0  0  0  0  0  0  0999 V2000
   36.8090   28.6240   39.6630 C   0  0  0  0  0  0  0  0  0  0  0  0
   36.6110   28.4660   38.3100 C   0  0  0  0  0  0  0  0  0  0  0  0
   36.5490   29.6560   37.6000 C   0  0  0  0  0  0  0  0  0  0  0  0
   36.6640   30.8680   38.1410 N   0  0  0  0  0  0  0  0  0  0  0  0
   36.8550   30.9600   39.4580 C   0  0  0  0  0  0  0  0  0  0  0  0
   36.9280   29.8430   40.2200 N   0  0  0  0  0  0  0  0  0  0  0  0
   37.0750   26.4970   42.6580 C   0  0  0  0  0  0  0  0  0  0  0  0
   37.0540   25.1960   42.1030 C   0  0  0  0  0  0  0  0  0  0  0  0
   36.9490   25.0760   40.7160 C   0  0  0  0  0  0  0  0  0  0  0  0
   36.8730   26.1980   39.9530 N   0  0  0  0  0  0  0  0  0  0  0  0
   36.8970   27.4290   40.5410 C   0  0  0  0  0  0  0  0  0  0  0  0
   36.9970   27.5960   41.8810 N   0  0  0  0  0  0  0  0  0  0  0  0
   37.0000   32.2380   40.1910 C   0  0  0  0  0  0  0  0  0  0  0  0
   38.0950   33.0690   39.5400 C   0  0  0  0  0  0  0  0  0  0  0  0
   39.4250   32.4770   39.7370 C   0  0  0  0  0  0  0  0  0  0  0  0
   39.8930   32.3770   41.0450 C   0  0  0  0  0  0  0  0  0  0  0  0
   41.1550   31.7940   40.9830 C   0  0  0  0  0  0  0  0  0  0  0  0
   41.3900   31.5700   39.6490 C   0  0  0  0  0  0  0  0  0  0  0  0
   40.3480   31.9870   38.9610 O   0  0  0  0  0  0  0  0  0  0  0  0
   36.5105   27.4801   37.8326 H   0  0  0  0  0  0  0  0  0  0  0  0
   36.3938   29.5946   36.5127 H   0  0  0  0  0  0  0  0  0  0  0  0
   37.1569   26.6147   43.7486 H   0  0  0  0  0  0  0  0  0  0  0  0
   37.1185   24.3053   42.7452 H   0  0  0  0  0  0  0  0  0  0  0  0
   36.9280   24.0822   40.2450 H   0  0  0  0  0  0  0  0  0  0  0  0
   36.0497   32.7910   40.1571 H   0  0  0  0  0  0  0  0  0  0  0  0
   37.2657   32.0339   41.2387 H   0  0  0  0  0  0  0  0  0  0  0  0
   38.0858   34.0767   39.9809 H   0  0  0  0  0  0  0  0  0  0  0  0
   37.8962   33.1063   38.4588 H   0  0  0  0  0  0  0  0  0  0  0  0
   39.3649   32.6981   41.9549 H   0  0  0  0  0  0  0  0  0  0  0  0
   41.8234   31.5616   41.8252 H   0  0  0  0  0  0  0  0  0  0  0  0
   42.2985   31.1171   39.2253 H   0  0  0  0  0  0  0  0  0  0  0  0
  1  6  1  0
  1 11  1  0
  2  1  2  0
  3  4  2  0
  3  2  1  0
  4  5  1  0
  5 13  1  0
  5  6  2  0
  8  7  2  0
  9  8  1  0
 10 11  1  0
 10  9  2  0
 11 12  2  0
 12  7  1  0
 14 15  1  0
 14 13  1  0
 15 16  2  0
 17 16  1  0
 18 17  2  0
 19 18  1  0
 19 15  1  0
  2 20  1  0
  3 21  1  0
  7 22  1  0
  8 23  1  0
  9 24  1  0
 13 25  1  0
 13 26  1  0
 14 27  1  0
 14 28  1  0
 16 29  1  0
 17 30  1  0
 18 31  1  0
M  ISO  8  20  14  21  14  22  14  23  14  24  14  25   8  26   8  27   8
M  ISO  4  28   8  29  14  30  14  31  14
M  END
>  <minimizedAffinity>  (1) 
-4.00270128

>  <minimizedRMSD>  (1) 
2.93929482

$$$$
