
     RDKit          3D

 39 40  0  0  1  0  0  0  0  0999 V2000
   38.4850   26.6860   40.5920 C   0  0  1  0  0  0  0  0  0  0  0  0
   38.3440   27.6290   39.3970 C   0  0  0  0  0  0  0  0  0  0  0  0
   39.6890   27.6650   38.7710 C   0  0  0  0  0  0  0  0  0  0  0  0
   40.2890   26.3030   39.1840 C   0  0  0  0  0  0  0  0  0  0  0  0
   39.9380   26.3180   40.6340 C   0  0  2  0  0  0  0  0  0  0  0  0
   36.4470   27.3940   43.6990 C   0  0  0  0  0  0  0  0  0  0  0  0
   36.8460   26.7380   42.5270 C   0  0  0  0  0  0  0  0  0  0  0  0
   37.9550   27.2560   41.8240 C   0  0  0  0  0  0  0  0  0  0  0  0
   38.5850   28.3620   42.3150 N   0  0  0  0  0  0  0  0  0  0  0  0
   38.1770   28.9660   43.4410 C   0  0  0  0  0  0  0  0  0  0  0  0
   37.1100   28.4850   44.1330 N   0  0  0  0  0  0  0  0  0  0  0  0
   40.1850   24.9120   41.0700 C   0  0  2  0  0  0  0  0  0  0  0  0
   38.9870   24.0040   40.8180 C   0  0  0  0  0  0  0  0  0  0  0  0
   40.4670   24.8670   42.5080 C   0  0  0  0  0  0  0  0  0  0  0  0
   40.8500   25.9930   43.2570 N   0  0  0  0  0  0  0  0  0  0  0  0
   42.1940   25.8480   43.7960 C   0  0  0  0  0  0  0  0  0  0  0  0
   42.9520   24.8290   43.4680 N   0  0  0  0  0  0  0  0  0  0  0  0
   42.7620   26.8120   44.7150 N   0  0  0  0  0  0  0  0  0  0  0  0
   43.8950   24.7820   43.8830 H   0  0  0  0  0  0  0  0  0  0  0  0
   37.8740   25.7779   40.4827 H   0  0  0  0  0  0  0  0  0  0  0  0
   37.5979   27.2432   38.6868 H   0  0  0  0  0  0  0  0  0  0  0  0
   38.0041   28.6302   39.7004 H   0  0  0  0  0  0  0  0  0  0  0  0
   40.2883   28.4989   39.1652 H   0  0  0  0  0  0  0  0  0  0  0  0
   39.6610   27.8188   37.6822 H   0  0  0  0  0  0  0  0  0  0  0  0
   39.8124   25.4654   38.6537 H   0  0  0  0  0  0  0  0  0  0  0  0
   41.3577   26.1712   38.9592 H   0  0  0  0  0  0  0  0  0  0  0  0
   40.4814   26.9937   41.3108 H   0  0  0  0  0  0  0  0  0  0  0  0
   35.5859   27.0160   44.2697 H   0  0  0  0  0  0  0  0  0  0  0  0
   36.3116   25.8469   42.1659 H   0  0  0  0  0  0  0  0  0  0  0  0
   38.7092   29.8564   43.8070 H   0  0  0  0  0  0  0  0  0  0  0  0
   41.0418   24.5558   40.4792 H   0  0  0  0  0  0  0  0  0  0  0  0
   38.5622   23.6820   41.7802 H   0  0  0  0  0  0  0  0  0  0  0  0
   38.2246   24.5531   40.2460 H   0  0  0  0  0  0  0  0  0  0  0  0
   39.3096   23.1216   40.2460 H   0  0  0  0  0  0  0  0  0  0  0  0
   39.5504   24.4871   42.9828 H   0  0  0  0  0  0  0  0  0  0  0  0
   41.3909   24.2703   42.5280 H   0  0  0  0  0  0  0  0  0  0  0  0
   40.2530   26.8190   43.4060 H   0  0  0  0  0  0  0  0  0  0  0  0
   43.7169   26.6778   45.0770 H   0  0  0  0  0  0  0  0  0  0  0  0
   42.2111   27.6319   45.0068 H   0  0  0  0  0  0  0  0  0  0  0  0
  1  5  1  0
  1  8  1  0
  2  1  1  0
  3  4  1  0
  3  2  1  0
  4  5  1  0
  5 12  1  0
  6 11  2  0
  7  6  1  0
  8  9  1  0
  8  7  2  0
  9 10  2  0
 10 11  1  0
 12 14  1  0
 13 12  1  0
 14 15  1  0
 15 16  1  0
 16 18  1  0
 17 16  2  0
 17 19  1  0
  1 20  1  6
  2 21  1  0
  2 22  1  0
  3 23  1  0
  3 24  1  0
  4 25  1  0
  4 26  1  0
  5 27  1  1
  6 28  1  0
  7 29  1  0
 10 30  1  0
 12 31  1  6
 13 32  1  0
 13 33  1  0
 13 34  1  0
 14 35  1  0
 14 36  1  0
 15 37  1  0
 18 38  1  0
 18 39  1  0
M  ISO  8  20  13  21  13  22  13  23  13  24  13  25  13  26  13  27  13
M  ISO  8  28  14  29  14  30  14  31   8  32   8  33   8  34   8  35   8
M  ISO  1  36   8
M  END
>  <minimizedAffinity>  (1) 
-4.20104504

>  <minimizedRMSD>  (1) 
5.83916187

$$$$
