
     RDKit          3D

 25 26  0  0  0  0  0  0  0  0999 V2000
   36.6120   29.1600   39.9540 C   0  0  0  0  0  0  0  0  0  0  0  0
   35.6550   28.4390   39.2830 C   0  0  0  0  0  0  0  0  0  0  0  0
   35.3970   28.8230   37.9860 C   0  0  0  0  0  0  0  0  0  0  0  0
   36.0150   29.8260   37.3770 N   0  0  0  0  0  0  0  0  0  0  0  0
   36.9440   30.5060   38.0680 C   0  0  0  0  0  0  0  0  0  0  0  0
   37.2430   30.1820   39.3390 N   0  0  0  0  0  0  0  0  0  0  0  0
   38.2330   29.2230   43.2470 C   0  0  0  0  0  0  0  0  0  0  0  0
   37.5690   28.1730   43.9250 C   0  0  0  0  0  0  0  0  0  0  0  0
   36.5730   27.4590   43.2400 C   0  0  0  0  0  0  0  0  0  0  0  0
   36.2890   27.8060   41.9540 N   0  0  0  0  0  0  0  0  0  0  0  0
   36.9650   28.8280   41.3550 C   0  0  0  0  0  0  0  0  0  0  0  0
   37.9230   29.5390   41.9690 N   0  0  0  0  0  0  0  0  0  0  0  0
   37.7200   31.6570   37.5180 C   0  0  0  0  0  0  0  0  0  0  0  0
   38.8650   31.9730   38.4690 C   0  0  0  0  0  0  0  0  0  0  0  0
   40.4450   32.0560   37.6270 S   0  0  0  0  0  0  0  0  0  0  0  0
   35.1233   27.6002   39.7560 H   0  0  0  0  0  0  0  0  0  0  0  0
   34.6342   28.2656   37.4225 H   0  0  0  0  0  0  0  0  0  0  0  0
   39.0158   29.7927   43.7692 H   0  0  0  0  0  0  0  0  0  0  0  0
   37.8273   27.9222   44.9644 H   0  0  0  0  0  0  0  0  0  0  0  0
   36.0332   26.6364   43.7318 H   0  0  0  0  0  0  0  0  0  0  0  0
   38.1226   31.3930   36.5289 H   0  0  0  0  0  0  0  0  0  0  0  0
   37.0654   32.5350   37.4150 H   0  0  0  0  0  0  0  0  0  0  0  0
   38.6686   32.9430   38.9492 H   0  0  0  0  0  0  0  0  0  0  0  0
   38.9207   31.1620   39.2100 H   0  0  0  0  0  0  0  0  0  0  0  0
   41.4535   32.1090   38.5527 H   0  0  0  0  0  0  0  0  0  0  0  0
  1 11  1  0
  2  1  2  0
  3  2  1  0
  4  3  2  0
  4  5  1  0
  5  6  2  0
  6  1  1  0
  7  8  2  0
  9  8  1  0
 10  9  2  0
 11 10  1  0
 11 12  2  0
 12  7  1  0
 13  5  1  0
 13 14  1  0
 15 14  1  0
  2 16  1  0
  3 17  1  0
  7 18  1  0
  8 19  1  0
  9 20  1  0
 13 21  1  0
 13 22  1  0
 14 23  1  0
 14 24  1  0
 15 25  1  0
M  ISO  8  16  14  17  14  18  14  19  14  20  14  21   8  22   8  23   8
M  ISO  2  24   8  25  11
M  END
>  <minimizedAffinity>  (1) 
-3.90955305

>  <minimizedRMSD>  (1) 
0.711453736

$$$$
