
     RDKit          3D

 26 27  0  0  0  0  0  0  0  0999 V2000
   36.6020   29.1460   40.0520 C   0  0  0  0  0  0  0  0  0  0  0  0
   35.7260   28.3770   39.3160 C   0  0  0  0  0  0  0  0  0  0  0  0
   35.5150   28.8050   38.0220 C   0  0  0  0  0  0  0  0  0  0  0  0
   36.0980   29.8850   37.4780 N   0  0  0  0  0  0  0  0  0  0  0  0
   36.9380   30.5890   38.2440 C   0  0  0  0  0  0  0  0  0  0  0  0
   37.2000   30.2380   39.5230 N   0  0  0  0  0  0  0  0  0  0  0  0
   38.1020   29.1470   43.4100 C   0  0  0  0  0  0  0  0  0  0  0  0
   37.4250   28.0710   44.0350 C   0  0  0  0  0  0  0  0  0  0  0  0
   36.4740   27.3680   43.3010 C   0  0  0  0  0  0  0  0  0  0  0  0
   36.2280   27.7390   42.0150 N   0  0  0  0  0  0  0  0  0  0  0  0
   36.9090   28.7830   41.4630 C   0  0  0  0  0  0  0  0  0  0  0  0
   37.8310   29.4840   42.1310 N   0  0  0  0  0  0  0  0  0  0  0  0
   37.6600   31.8050   37.7890 C   0  0  0  0  0  0  0  0  0  0  0  0
   38.3370   32.4490   38.9950 C   0  0  0  0  0  0  0  0  0  0  0  0
   39.7190   32.0980   39.0870 N   0  0  0  0  0  0  0  0  0  0  0  0
   35.2311   27.4865   39.7308 H   0  0  0  0  0  0  0  0  0  0  0  0
   34.8237   28.2233   37.3945 H   0  0  0  0  0  0  0  0  0  0  0  0
   38.8573   29.7146   43.9733 H   0  0  0  0  0  0  0  0  0  0  0  0
   37.6460   27.7971   45.0772 H   0  0  0  0  0  0  0  0  0  0  0  0
   35.9298   26.5258   43.7533 H   0  0  0  0  0  0  0  0  0  0  0  0
   38.4187   31.5278   37.0423 H   0  0  0  0  0  0  0  0  0  0  0  0
   36.9528   32.5132   37.3325 H   0  0  0  0  0  0  0  0  0  0  0  0
   38.2539   33.5423   38.9064 H   0  0  0  0  0  0  0  0  0  0  0  0
   37.8335   32.0824   39.9017 H   0  0  0  0  0  0  0  0  0  0  0  0
   39.9905   32.0291   40.0782 H   0  0  0  0  0  0  0  0  0  0  0  0
   39.8744   31.1909   38.6246 H   0  0  0  0  0  0  0  0  0  0  0  0
  1 11  1  0
  2  1  2  0
  3  2  1  0
  4  3  2  0
  4  5  1  0
  5  6  2  0
  6  1  1  0
  7  8  2  0
  9  8  1  0
 10  9  2  0
 11 10  1  0
 11 12  2  0
 12  7  1  0
 13  5  1  0
 13 14  1  0
 14 15  1  0
  2 16  1  0
  3 17  1  0
  7 18  1  0
  8 19  1  0
  9 20  1  0
 13 21  1  0
 13 22  1  0
 14 23  1  0
 14 24  1  0
 15 25  1  0
 15 26  1  0
M  ISO  8  16  14  17  14  18  14  19  14  20  14  21   8  22   8  23   8
M  ISO  3  24   8  25   5  26   5
M  END
>  <minimizedAffinity>  (1) 
-3.83397913

>  <minimizedRMSD>  (1) 
0.275673568

$$$$
