
     RDKit          3D

 29 31  0  0  0  0  0  0  0  0999 V2000
   36.6960   29.2850   40.1050 C   0  0  0  0  0  0  0  0  0  0  0  0
   35.7600   28.6300   39.3260 C   0  0  0  0  0  0  0  0  0  0  0  0
   35.6060   29.1100   38.0450 C   0  0  0  0  0  0  0  0  0  0  0  0
   36.2920   30.1310   37.5540 N   0  0  0  0  0  0  0  0  0  0  0  0
   37.1950   30.7460   38.3390 C   0  0  0  0  0  0  0  0  0  0  0  0
   37.3870   30.3220   39.5970 N   0  0  0  0  0  0  0  0  0  0  0  0
   38.0600   29.1090   43.5150 C   0  0  0  0  0  0  0  0  0  0  0  0
   37.3600   28.0220   44.0530 C   0  0  0  0  0  0  0  0  0  0  0  0
   36.4290   27.3590   43.2460 C   0  0  0  0  0  0  0  0  0  0  0  0
   36.2440   27.7990   41.9730 N   0  0  0  0  0  0  0  0  0  0  0  0
   36.9390   28.8510   41.4960 C   0  0  0  0  0  0  0  0  0  0  0  0
   37.8460   29.5170   42.2430 N   0  0  0  0  0  0  0  0  0  0  0  0
   38.0380   31.8980   37.9380 C   0  0  0  0  0  0  0  0  0  0  0  0
   39.2100   32.0220   38.8960 C   0  0  0  0  0  0  0  0  0  0  0  0
   39.2400   33.3730   39.5160 C   0  0  0  0  0  0  0  0  0  0  0  0
   38.2760   34.0770   40.0930 N   0  0  0  0  0  0  0  0  0  0  0  0
   38.7590   35.2140   40.4960 O   0  0  0  0  0  0  0  0  0  0  0  0
   40.0260   35.3080   40.2090 C   0  0  0  0  0  0  0  0  0  0  0  0
   40.3310   34.1530   39.5930 N   0  0  0  0  0  0  0  0  0  0  0  0
   35.1754   27.7792   39.7059 H   0  0  0  0  0  0  0  0  0  0  0  0
   34.8709   28.6172   37.3916 H   0  0  0  0  0  0  0  0  0  0  0  0
   38.7959   29.6398   44.1368 H   0  0  0  0  0  0  0  0  0  0  0  0
   37.5384   27.6962   45.0884 H   0  0  0  0  0  0  0  0  0  0  0  0
   35.8595   26.5010   43.6328 H   0  0  0  0  0  0  0  0  0  0  0  0
   38.4140   31.7398   36.9164 H   0  0  0  0  0  0  0  0  0  0  0  0
   37.4391   32.8202   37.9682 H   0  0  0  0  0  0  0  0  0  0  0  0
   39.1120   31.2637   39.6868 H   0  0  0  0  0  0  0  0  0  0  0  0
   40.1437   31.8691   38.3349 H   0  0  0  0  0  0  0  0  0  0  0  0
   40.7002   36.1501   40.4241 H   0  0  0  0  0  0  0  0  0  0  0  0
  1 11  1  0
  2  1  2  0
  3  2  1  0
  4  3  2  0
  4  5  1  0
  5  6  2  0
  6  1  1  0
  7  8  2  0
  9  8  1  0
 10  9  2  0
 11 10  1  0
 11 12  2  0
 12  7  1  0
 13  5  1  0
 13 14  1  0
 14 15  1  0
 15 19  1  0
 15 16  2  0
 16 17  1  0
 18 17  1  0
 19 18  2  0
  2 20  1  0
  3 21  1  0
  7 22  1  0
  8 23  1  0
  9 24  1  0
 13 25  1  0
 13 26  1  0
 14 27  1  0
 14 28  1  0
 18 29  1  0
M  ISO  8  20  14  21  14  22  14  23  14  24  14  25   8  26   8  27   8
M  ISO  2  28   8  29  14
M  END
>  <minimizedAffinity>  (1) 
-4.83056641

>  <minimizedRMSD>  (1) 
1.87848139

$$$$
