
     RDKit          3D

 42 46  0  0  0  0  0  0  0  0999 V2000
   37.6680   31.8460   37.6710 C   0  0  0  0  0  0  0  0  0  0  0  0
   36.7110   29.1260   39.9210 C   0  0  0  0  0  0  0  0  0  0  0  0
   35.9140   28.2990   39.1540 C   0  0  0  0  0  0  0  0  0  0  0  0
   35.7180   28.7040   37.8530 C   0  0  0  0  0  0  0  0  0  0  0  0
   36.2360   29.7940   37.3320 N   0  0  0  0  0  0  0  0  0  0  0  0
   37.0090   30.5790   38.1060 C   0  0  0  0  0  0  0  0  0  0  0  0
   37.2370   30.2420   39.3800 N   0  0  0  0  0  0  0  0  0  0  0  0
   38.1680   29.1950   43.3070 C   0  0  0  0  0  0  0  0  0  0  0  0
   37.4780   28.1500   43.9380 C   0  0  0  0  0  0  0  0  0  0  0  0
   36.5270   27.4380   43.2060 C   0  0  0  0  0  0  0  0  0  0  0  0
   36.3080   27.7820   41.9090 N   0  0  0  0  0  0  0  0  0  0  0  0
   36.9920   28.7930   41.3370 C   0  0  0  0  0  0  0  0  0  0  0  0
   37.9220   29.5090   42.0150 N   0  0  0  0  0  0  0  0  0  0  0  0
   39.1200   31.8270   38.0900 C   0  0  0  0  0  0  0  0  0  0  0  0
   39.3970   32.8490   39.1230 C   0  0  0  0  0  0  0  0  0  0  0  0
   38.5550   33.4960   39.9240 N   0  0  0  0  0  0  0  0  0  0  0  0
   39.2210   34.3150   40.6860 O   0  0  0  0  0  0  0  0  0  0  0  0
   40.4910   34.2400   40.4240 C   0  0  0  0  0  0  0  0  0  0  0  0
   40.6170   33.3200   39.4390 N   0  0  0  0  0  0  0  0  0  0  0  0
   41.3710   35.0720   41.1690 N   0  0  0  0  0  0  0  0  0  0  0  0
   41.1300   36.3880   41.3070 C   0  0  0  0  0  0  0  0  0  0  0  0
   42.0870   36.9750   42.0460 N   0  0  0  0  0  0  0  0  0  0  0  0
   42.9710   36.0260   42.3990 C   0  0  0  0  0  0  0  0  0  0  0  0
   44.1370   35.9210   43.1190 C   0  0  0  0  0  0  0  0  0  0  0  0
   44.7790   34.7260   43.2620 N   0  0  0  0  0  0  0  0  0  0  0  0
   44.3060   33.5930   42.7100 C   0  0  0  0  0  0  0  0  0  0  0  0
   43.1550   33.6750   41.9950 N   0  0  0  0  0  0  0  0  0  0  0  0
   42.5070   34.8420   41.8420 C   0  0  0  0  0  0  0  0  0  0  0  0
   44.6300   37.1300   43.7000 N   0  0  0  0  0  0  0  0  0  0  0  0
   37.1619   32.7026   38.1402 H   0  0  0  0  0  0  0  0  0  0  0  0
   37.6028   31.9368   36.5767 H   0  0  0  0  0  0  0  0  0  0  0  0
   35.4658   27.3783   39.5558 H   0  0  0  0  0  0  0  0  0  0  0  0
   35.0872   28.0749   37.2078 H   0  0  0  0  0  0  0  0  0  0  0  0
   38.9196   29.7671   43.8707 H   0  0  0  0  0  0  0  0  0  0  0  0
   37.6823   27.8966   44.9888 H   0  0  0  0  0  0  0  0  0  0  0  0
   35.9650   26.6138   43.6696 H   0  0  0  0  0  0  0  0  0  0  0  0
   39.3626   30.8336   38.4953 H   0  0  0  0  0  0  0  0  0  0  0  0
   39.7379   32.0501   37.2077 H   0  0  0  0  0  0  0  0  0  0  0  0
   40.2661   36.9131   40.8735 H   0  0  0  0  0  0  0  0  0  0  0  0
   44.8331   32.6355   42.8338 H   0  0  0  0  0  0  0  0  0  0  0  0
   45.4996   37.1189   44.2518 H   0  0  0  0  0  0  0  0  0  0  0  0
   44.1157   38.0124   43.5669 H   0  0  0  0  0  0  0  0  0  0  0  0
  1 14  1  0
  1  6  1  0
  2 12  1  0
  3  2  2  0
  4  3  1  0
  5  4  2  0
  5  6  1  0
  6  7  2  0
  7  2  1  0
  8  9  2  0
 10  9  1  0
 11 10  2  0
 12 11  1  0
 12 13  2  0
 13  8  1  0
 14 15  1  0
 15 19  1  0
 15 16  2  0
 16 17  1  0
 18 17  1  0
 18 20  1  0
 19 18  2  0
 20 21  1  0
 20 28  1  0
 21 22  2  0
 22 23  1  0
 23 24  2  0
 24 25  1  0
 24 29  1  0
 26 25  2  0
 27 26  1  0
 28 27  2  0
 28 23  1  0
  1 30  1  0
  1 31  1  0
  3 32  1  0
  4 33  1  0
  8 34  1  0
  9 35  1  0
 10 36  1  0
 14 37  1  0
 14 38  1  0
 21 39  1  0
 26 40  1  0
 29 41  1  0
 29 42  1  0
M  ISO  8  30   8  31   8  32  14  33  14  34  14  35  14  36  14  37   8
M  ISO  3  38   8  39  14  40  14
M  END
>  <minimizedAffinity>  (1) 
-6.97694826

>  <minimizedRMSD>  (1) 
1.56324184

$$$$
