
     RDKit          3D

 43 47  0  0  0  0  0  0  0  0999 V2000
   38.9160   31.6270   38.1600 C   0  0  0  0  0  0  0  0  0  0  0  0
   38.8870   32.8250   39.0440 C   0  0  0  0  0  0  0  0  0  0  0  0
   37.8620   33.4890   39.5320 N   0  0  0  0  0  0  0  0  0  0  0  0
   38.2770   34.4820   40.2670 O   0  0  0  0  0  0  0  0  0  0  0  0
   39.5860   34.4960   40.2820 C   0  0  0  0  0  0  0  0  0  0  0  0
   39.9640   33.4660   39.5220 N   0  0  0  0  0  0  0  0  0  0  0  0
   40.5970   35.3050   40.8840 N   0  0  0  0  0  0  0  0  0  0  0  0
   40.6820   36.6250   41.1350 C   0  0  0  0  0  0  0  0  0  0  0  0
   41.8710   36.8770   41.7300 N   0  0  0  0  0  0  0  0  0  0  0  0
   42.5220   35.7050   41.8450 C   0  0  0  0  0  0  0  0  0  0  0  0
   43.7830   35.4470   42.3920 C   0  0  0  0  0  0  0  0  0  0  0  0
   44.5050   36.3530   42.8740 O   0  0  0  0  0  0  0  0  0  0  0  0
   44.2120   34.1700   42.3870 N   0  0  0  0  0  0  0  0  0  0  0  0
   43.4370   33.2000   41.8690 C   0  0  0  0  0  0  0  0  0  0  0  0
   43.8000   31.8060   41.8140 N   0  0  0  0  0  0  0  0  0  0  0  0
   42.2170   33.4190   41.3360 N   0  0  0  0  0  0  0  0  0  0  0  0
   41.7330   34.6790   41.3130 C   0  0  0  0  0  0  0  0  0  0  0  0
   37.6120   31.4570   37.4210 C   0  0  0  0  0  0  0  0  0  0  0  0
   36.5770   29.0120   39.9350 C   0  0  0  0  0  0  0  0  0  0  0  0
   35.6300   28.2320   39.2990 C   0  0  0  0  0  0  0  0  0  0  0  0
   35.3610   28.5720   37.9890 C   0  0  0  0  0  0  0  0  0  0  0  0
   35.9510   29.5720   37.3480 N   0  0  0  0  0  0  0  0  0  0  0  0
   36.8670   30.3110   37.9970 C   0  0  0  0  0  0  0  0  0  0  0  0
   37.1700   30.0290   39.2730 N   0  0  0  0  0  0  0  0  0  0  0  0
   38.2260   29.2370   43.2240 C   0  0  0  0  0  0  0  0  0  0  0  0
   37.5970   28.2140   43.9250 C   0  0  0  0  0  0  0  0  0  0  0  0
   36.6140   27.4470   43.2860 C   0  0  0  0  0  0  0  0  0  0  0  0
   36.3180   27.7440   41.9910 N   0  0  0  0  0  0  0  0  0  0  0  0
   36.9470   28.7390   41.3480 C   0  0  0  0  0  0  0  0  0  0  0  0
   37.8930   29.4930   41.9310 N   0  0  0  0  0  0  0  0  0  0  0  0
   39.7296   31.7414   37.4286 H   0  0  0  0  0  0  0  0  0  0  0  0
   39.0772   30.7377   38.7870 H   0  0  0  0  0  0  0  0  0  0  0  0
   39.9128   37.3742   40.8961 H   0  0  0  0  0  0  0  0  0  0  0  0
   45.1347   33.9359   42.7803 H   0  0  0  0  0  0  0  0  0  0  0  0
   43.1513   31.1208   41.4009 H   0  0  0  0  0  0  0  0  0  0  0  0
   44.7080   31.4951   42.1879 H   0  0  0  0  0  0  0  0  0  0  0  0
   37.8151   31.2656   36.3570 H   0  0  0  0  0  0  0  0  0  0  0  0
   37.0112   32.3732   37.5188 H   0  0  0  0  0  0  0  0  0  0  0  0
   35.1242   27.3956   39.8036 H   0  0  0  0  0  0  0  0  0  0  0  0
   34.6126   27.9782   37.4438 H   0  0  0  0  0  0  0  0  0  0  0  0
   38.9986   29.8435   43.7192 H   0  0  0  0  0  0  0  0  0  0  0  0
   37.8686   28.0089   44.9710 H   0  0  0  0  0  0  0  0  0  0  0  0
   36.0981   26.6313   43.8137 H   0  0  0  0  0  0  0  0  0  0  0  0
  1  2  1  0
  2  6  1  0
  2  3  2  0
  3  4  1  0
  4  5  1  0
  5  7  1  0
  6  5  2  0
  7  8  1  0
  7 17  1  0
  8  9  2  0
  9 10  1  0
 10 11  1  0
 11 12  2  0
 13 11  1  0
 14 13  1  0
 15 14  1  0
 16 14  2  0
 17 16  1  0
 17 10  2  0
 18 23  1  0
 18  1  1  0
 19 29  1  0
 20 19  2  0
 21 20  1  0
 22 21  2  0
 22 23  1  0
 23 24  2  0
 24 19  1  0
 25 26  2  0
 27 26  1  0
 28 27  2  0
 29 30  2  0
 29 28  1  0
 30 25  1  0
  1 31  1  0
  1 32  1  0
  8 33  1  0
 13 34  1  0
 15 35  1  0
 15 36  1  0
 18 37  1  0
 18 38  1  0
 20 39  1  0
 21 40  1  0
 25 41  1  0
 26 42  1  0
 27 43  1  0
M  ISO  8  31   8  32   8  33  14  34   9  37   8  38   8  39  14  40  14
M  ISO  3  41  14  42  14  43  14
M  END
>  <minimizedAffinity>  (1) 
-6.92511368

>  <minimizedRMSD>  (1) 
1.17006135

$$$$
