
     RDKit          3D

 40 44  0  0  0  0  0  0  0  0999 V2000
   37.6000   31.9110   37.8220 C   0  0  0  0  0  0  0  0  0  0  0  0
   36.6920   29.1270   39.9990 C   0  0  0  0  0  0  0  0  0  0  0  0
   35.9300   28.2880   39.2010 C   0  0  0  0  0  0  0  0  0  0  0  0
   35.7450   28.7100   37.9090 C   0  0  0  0  0  0  0  0  0  0  0  0
   36.2390   29.8320   37.4110 N   0  0  0  0  0  0  0  0  0  0  0  0
   36.9750   30.6220   38.2220 C   0  0  0  0  0  0  0  0  0  0  0  0
   37.1920   30.2680   39.4880 N   0  0  0  0  0  0  0  0  0  0  0  0
   38.1000   29.1530   43.3940 C   0  0  0  0  0  0  0  0  0  0  0  0
   37.4140   28.0880   44.0040 C   0  0  0  0  0  0  0  0  0  0  0  0
   36.4850   27.3830   43.2490 C   0  0  0  0  0  0  0  0  0  0  0  0
   36.2690   27.7400   41.9500 N   0  0  0  0  0  0  0  0  0  0  0  0
   36.9580   28.7730   41.4130 C   0  0  0  0  0  0  0  0  0  0  0  0
   37.8660   29.4830   42.1090 N   0  0  0  0  0  0  0  0  0  0  0  0
   39.1080   31.7750   37.8720 C   0  0  0  0  0  0  0  0  0  0  0  0
   39.6740   32.5740   38.9890 C   0  0  0  0  0  0  0  0  0  0  0  0
   39.0890   33.3890   39.8390 N   0  0  0  0  0  0  0  0  0  0  0  0
   39.9650   33.8760   40.6550 O   0  0  0  0  0  0  0  0  0  0  0  0
   41.1490   33.4200   40.3990 C   0  0  0  0  0  0  0  0  0  0  0  0
   40.9590   32.6080   39.3580 N   0  0  0  0  0  0  0  0  0  0  0  0
   42.3600   33.7320   41.0850 N   0  0  0  0  0  0  0  0  0  0  0  0
   43.4400   32.9300   41.1520 C   0  0  0  0  0  0  0  0  0  0  0  0
   44.3670   33.5770   41.8840 N   0  0  0  0  0  0  0  0  0  0  0  0
   43.8780   34.7720   42.2750 C   0  0  0  0  0  0  0  0  0  0  0  0
   44.4150   35.8150   43.0370 C   0  0  0  0  0  0  0  0  0  0  0  0
   43.6570   36.9050   43.2580 N   0  0  0  0  0  0  0  0  0  0  0  0
   42.3980   37.0120   42.7610 C   0  0  0  0  0  0  0  0  0  0  0  0
   41.9090   35.9940   42.0320 N   0  0  0  0  0  0  0  0  0  0  0  0
   42.5860   34.8750   41.7620 C   0  0  0  0  0  0  0  0  0  0  0  0
   37.2798   32.7044   38.5133 H   0  0  0  0  0  0  0  0  0  0  0  0
   37.2877   32.1694   36.7994 H   0  0  0  0  0  0  0  0  0  0  0  0
   35.5025   27.3473   39.5783 H   0  0  0  0  0  0  0  0  0  0  0  0
   35.1457   28.0728   37.2420 H   0  0  0  0  0  0  0  0  0  0  0  0
   38.8386   29.7252   43.9746 H   0  0  0  0  0  0  0  0  0  0  0  0
   37.6081   27.8197   45.0530 H   0  0  0  0  0  0  0  0  0  0  0  0
   35.9288   26.5449   43.6943 H   0  0  0  0  0  0  0  0  0  0  0  0
   39.3698   30.7165   38.0172 H   0  0  0  0  0  0  0  0  0  0  0  0
   39.5267   32.1472   36.9253 H   0  0  0  0  0  0  0  0  0  0  0  0
   43.5450   31.9348   40.6953 H   0  0  0  0  0  0  0  0  0  0  0  0
   45.4337   35.7459   43.4463 H   0  0  0  0  0  0  0  0  0  0  0  0
   41.7925   37.9106   42.9505 H   0  0  0  0  0  0  0  0  0  0  0  0
  1 14  1  0
  1  6  1  0
  2 12  1  0
  3  2  2  0
  4  3  1  0
  5  4  2  0
  5  6  1  0
  6  7  2  0
  7  2  1  0
  8  9  2  0
 10  9  1  0
 11 10  2  0
 12 11  1  0
 12 13  2  0
 13  8  1  0
 14 15  1  0
 15 19  1  0
 15 16  2  0
 16 17  1  0
 18 17  1  0
 18 20  1  0
 19 18  2  0
 20 21  1  0
 20 28  1  0
 21 22  2  0
 22 23  1  0
 23 24  2  0
 24 25  1  0
 26 25  2  0
 27 26  1  0
 28 27  2  0
 28 23  1  0
  1 29  1  0
  1 30  1  0
  3 31  1  0
  4 32  1  0
  8 33  1  0
  9 34  1  0
 10 35  1  0
 14 36  1  0
 14 37  1  0
 21 38  1  0
 24 39  1  0
 26 40  1  0
M  ISO  8  29   8  30   8  31  14  32  14  33  14  34  14  35  14  36   8
M  ISO  4  37   8  38  14  39  14  40  14
M  END
>  <minimizedAffinity>  (1) 
-6.47360849

>  <minimizedRMSD>  (1) 
2.57706022

$$$$
