
     RDKit          3D

 43 46  0  0  0  0  0  0  0  0999 V2000
   37.6010   31.7540   37.7390 C   0  0  0  0  0  0  0  0  0  0  0  0
   36.5870   29.1090   40.0290 C   0  0  0  0  0  0  0  0  0  0  0  0
   35.7200   28.3270   39.3010 C   0  0  0  0  0  0  0  0  0  0  0  0
   35.4930   28.7310   37.9990 C   0  0  0  0  0  0  0  0  0  0  0  0
   36.0550   29.7950   37.4620 N   0  0  0  0  0  0  0  0  0  0  0  0
   36.8970   30.5370   38.2030 C   0  0  0  0  0  0  0  0  0  0  0  0
   37.1550   30.1940   39.4650 N   0  0  0  0  0  0  0  0  0  0  0  0
   38.1030   29.1690   43.3810 C   0  0  0  0  0  0  0  0  0  0  0  0
   37.4470   28.0940   44.0160 C   0  0  0  0  0  0  0  0  0  0  0  0
   36.4970   27.3700   43.2850 C   0  0  0  0  0  0  0  0  0  0  0  0
   36.2530   27.7310   42.0070 N   0  0  0  0  0  0  0  0  0  0  0  0
   36.9020   28.7650   41.4340 C   0  0  0  0  0  0  0  0  0  0  0  0
   37.8190   29.4840   42.1020 N   0  0  0  0  0  0  0  0  0  0  0  0
   39.0210   31.7520   38.2720 C   0  0  0  0  0  0  0  0  0  0  0  0
   39.2400   32.8960   39.1930 C   0  0  0  0  0  0  0  0  0  0  0  0
   38.3840   33.7080   39.7700 N   0  0  0  0  0  0  0  0  0  0  0  0
   39.0130   34.5680   40.4960 O   0  0  0  0  0  0  0  0  0  0  0  0
   40.3100   34.3720   40.4380 C   0  0  0  0  0  0  0  0  0  0  0  0
   40.4300   33.3220   39.6180 N   0  0  0  0  0  0  0  0  0  0  0  0
   41.3390   35.1040   41.0930 N   0  0  0  0  0  0  0  0  0  0  0  0
   40.9990   36.3930   41.6630 C   0  0  0  0  0  0  0  0  0  0  0  0
   42.1450   37.0310   42.3720 C   0  0  0  0  0  0  0  0  0  0  0  0
   42.8850   35.9970   43.0710 N   0  0  0  0  0  0  0  0  0  0  0  0
   43.5930   35.2550   42.0470 C   0  0  0  0  0  0  0  0  0  0  0  0
   42.6770   34.4960   41.1430 C   0  0  0  0  0  0  0  0  0  0  0  0
   37.6223   31.7682   36.6393 H   0  0  0  0  0  0  0  0  0  0  0  0
   37.0727   32.6457   38.1075 H   0  0  0  0  0  0  0  0  0  0  0  0
   35.2376   27.4357   39.7287 H   0  0  0  0  0  0  0  0  0  0  0  0
   34.8081   28.1337   37.3792 H   0  0  0  0  0  0  0  0  0  0  0  0
   38.8521   29.7547   43.9340 H   0  0  0  0  0  0  0  0  0  0  0  0
   37.6759   27.8309   45.0593 H   0  0  0  0  0  0  0  0  0  0  0  0
   35.9610   26.5252   43.7422 H   0  0  0  0  0  0  0  0  0  0  0  0
   39.2012   30.8124   38.8148 H   0  0  0  0  0  0  0  0  0  0  0  0
   39.7160   31.8437   37.4243 H   0  0  0  0  0  0  0  0  0  0  0  0
   40.6715   37.0605   40.8523 H   0  0  0  0  0  0  0  0  0  0  0  0
   40.2018   36.2284   42.4028 H   0  0  0  0  0  0  0  0  0  0  0  0
   42.8014   37.5294   41.6435 H   0  0  0  0  0  0  0  0  0  0  0  0
   41.7763   37.7807   43.0875 H   0  0  0  0  0  0  0  0  0  0  0  0
   43.5515   36.4188   43.7334 H   0  0  0  0  0  0  0  0  0  0  0  0
   44.1775   35.9629   41.4410 H   0  0  0  0  0  0  0  0  0  0  0  0
   44.2378   34.5228   42.5551 H   0  0  0  0  0  0  0  0  0  0  0  0
   42.5863   33.4636   41.5118 H   0  0  0  0  0  0  0  0  0  0  0  0
   43.1015   34.5151   40.1284 H   0  0  0  0  0  0  0  0  0  0  0  0
  1  6  1  0
  1 14  1  0
  2 12  1  0
  3  2  2  0
  4  3  1  0
  5  4  2  0
  5  6  1  0
  6  7  2  0
  7  2  1  0
  8  9  2  0
 10  9  1  0
 11 10  2  0
 12 11  1  0
 12 13  2  0
 13  8  1  0
 14 15  1  0
 15 19  1  0
 15 16  2  0
 16 17  1  0
 18 17  1  0
 18 20  1  0
 19 18  2  0
 20 25  1  0
 20 21  1  0
 21 22  1  0
 22 23  1  0
 24 23  1  0
 25 24  1  0
  1 26  1  0
  1 27  1  0
  3 28  1  0
  4 29  1  0
  8 30  1  0
  9 31  1  0
 10 32  1  0
 14 33  1  0
 14 34  1  0
 21 35  1  0
 21 36  1  0
 22 37  1  0
 22 38  1  0
 23 39  1  0
 24 40  1  0
 24 41  1  0
 25 42  1  0
 25 43  1  0
M  ISO  8  26   8  27   8  28  14  29  14  30  14  31  14  32  14  33   8
M  ISO  8  34   8  35  13  36  13  37  13  38  13  39   5  40  13  41  13
M  ISO  2  42  13  43  13
M  END
>  <minimizedAffinity>  (1) 
-6.41835308

>  <minimizedRMSD>  (1) 
1.08608508

$$$$
