
     RDKit          3D

 32 34  0  0  0  0  0  0  0  0999 V2000
   36.9580   29.3910   40.1020 C   0  0  0  0  0  0  0  0  0  0  0  0
   35.9020   29.0220   39.2850 C   0  0  0  0  0  0  0  0  0  0  0  0
   35.8950   29.5730   38.0210 C   0  0  0  0  0  0  0  0  0  0  0  0
   36.8180   30.4060   37.5810 N   0  0  0  0  0  0  0  0  0  0  0  0
   37.8310   30.7460   38.3960 C   0  0  0  0  0  0  0  0  0  0  0  0
   37.8890   30.2440   39.6290 N   0  0  0  0  0  0  0  0  0  0  0  0
   37.8510   29.0660   43.6540 C   0  0  0  0  0  0  0  0  0  0  0  0
   37.2520   27.8490   43.9850 C   0  0  0  0  0  0  0  0  0  0  0  0
   36.5440   27.1470   42.9930 C   0  0  0  0  0  0  0  0  0  0  0  0
   36.4760   27.6860   41.7480 N   0  0  0  0  0  0  0  0  0  0  0  0
   37.0730   28.8680   41.4710 C   0  0  0  0  0  0  0  0  0  0  0  0
   37.7550   29.5640   42.3930 N   0  0  0  0  0  0  0  0  0  0  0  0
   38.9400   31.6680   38.0450 C   0  0  0  0  0  0  0  0  0  0  0  0
   39.8030   31.9030   39.2590 C   0  0  0  0  0  0  0  0  0  0  0  0
   39.5760   33.2530   39.8270 C   0  0  0  0  0  0  0  0  0  0  0  0
   38.7240   33.6550   40.7520 N   0  0  0  0  0  0  0  0  0  0  0  0
   38.8740   34.9380   40.9380 O   0  0  0  0  0  0  0  0  0  0  0  0
   39.7990   35.4120   40.1690 C   0  0  0  0  0  0  0  0  0  0  0  0
   40.2560   34.3640   39.4580 N   0  0  0  0  0  0  0  0  0  0  0  0
   40.2610   36.8130   40.0850 C   0  0  0  0  0  0  0  0  0  0  0  0
   41.0850   37.1550   41.1450 F   0  0  0  0  0  0  0  0  0  0  0  0
   41.0130   37.0470   38.9350 F   0  0  0  0  0  0  0  0  0  0  0  0
   39.2000   37.6990   40.0350 F   0  0  0  0  0  0  0  0  0  0  0  0
   35.1162   28.3310   39.6242 H   0  0  0  0  0  0  0  0  0  0  0  0
   35.0734   29.3026   37.3414 H   0  0  0  0  0  0  0  0  0  0  0  0
   38.4056   29.6268   44.4207 H   0  0  0  0  0  0  0  0  0  0  0  0
   37.3325   27.4457   45.0052 H   0  0  0  0  0  0  0  0  0  0  0  0
   36.0580   26.1865   43.2194 H   0  0  0  0  0  0  0  0  0  0  0  0
   39.5479   31.2219   37.2440 H   0  0  0  0  0  0  0  0  0  0  0  0
   38.5243   32.6263   37.7001 H   0  0  0  0  0  0  0  0  0  0  0  0
   39.5619   31.1480   40.0218 H   0  0  0  0  0  0  0  0  0  0  0  0
   40.8576   31.8264   38.9558 H   0  0  0  0  0  0  0  0  0  0  0  0
  1 11  1  0
  2  1  2  0
  3  2  1  0
  4  3  2  0
  4  5  1  0
  5  6  2  0
  6  1  1  0
  7  8  2  0
  9  8  1  0
 10  9  2  0
 11 10  1  0
 11 12  2  0
 12  7  1  0
 13  5  1  0
 13 14  1  0
 14 15  1  0
 15 16  2  0
 16 17  1  0
 18 17  1  0
 19 15  1  0
 19 18  2  0
 20 18  1  0
 20 21  1  0
 22 20  1  0
 23 20  1  0
  2 24  1  0
  3 25  1  0
  7 26  1  0
  8 27  1  0
  9 28  1  0
 13 29  1  0
 13 30  1  0
 14 31  1  0
 14 32  1  0
M  ISO  8  24  14  25  14  26  14  27  14  28  14  29   8  30   8  31   8
M  ISO  1  32   8
M  END
>  <minimizedAffinity>  (1) 
-6.01438427

>  <minimizedRMSD>  (1) 
0.666564882

$$$$
