
     RDKit          3D

 42 45  0  0  0  0  0  0  0  0999 V2000
   36.6760   29.2860   40.1460 C   0  0  0  0  0  0  0  0  0  0  0  0
   35.7750   28.6080   39.3350 C   0  0  0  0  0  0  0  0  0  0  0  0
   35.6050   29.1180   38.0640 C   0  0  0  0  0  0  0  0  0  0  0  0
   36.2430   30.1870   37.6080 N   0  0  0  0  0  0  0  0  0  0  0  0
   37.1100   30.8230   38.4200 C   0  0  0  0  0  0  0  0  0  0  0  0
   37.3140   30.3660   39.6720 N   0  0  0  0  0  0  0  0  0  0  0  0
   38.0900   29.0190   43.5300 C   0  0  0  0  0  0  0  0  0  0  0  0
   37.3710   27.9460   44.0570 C   0  0  0  0  0  0  0  0  0  0  0  0
   36.4110   27.3130   43.2580 C   0  0  0  0  0  0  0  0  0  0  0  0
   36.2150   27.7770   41.9960 N   0  0  0  0  0  0  0  0  0  0  0  0
   36.9310   28.8220   41.5200 C   0  0  0  0  0  0  0  0  0  0  0  0
   37.8650   29.4550   42.2590 N   0  0  0  0  0  0  0  0  0  0  0  0
   37.8960   32.0290   38.0610 C   0  0  0  0  0  0  0  0  0  0  0  0
   39.3310   31.8270   38.4710 C   0  0  0  0  0  0  0  0  0  0  0  0
   39.8320   32.9480   39.3030 C   0  0  0  0  0  0  0  0  0  0  0  0
   39.1600   33.9070   39.9190 N   0  0  0  0  0  0  0  0  0  0  0  0
   40.0010   34.6780   40.5430 O   0  0  0  0  0  0  0  0  0  0  0  0
   41.2170   34.2680   40.3660 C   0  0  0  0  0  0  0  0  0  0  0  0
   41.1280   33.1860   39.5910 N   0  0  0  0  0  0  0  0  0  0  0  0
   42.1100   35.1400   41.0670 N   0  0  0  0  0  0  0  0  0  0  0  0
   43.3800   34.8440   41.7350 C   0  0  0  0  0  0  0  0  0  0  0  0
   43.7390   36.0690   42.5550 C   0  0  0  0  0  0  0  0  0  0  0  0
   42.6590   36.3960   43.3650 O   0  0  0  0  0  0  0  0  0  0  0  0
   41.6630   36.9680   42.6000 C   0  0  0  0  0  0  0  0  0  0  0  0
   41.7300   36.5360   41.1510 C   0  0  0  0  0  0  0  0  0  0  0  0
   35.2301   27.7187   39.6845 H   0  0  0  0  0  0  0  0  0  0  0  0
   34.8999   28.6085   37.3908 H   0  0  0  0  0  0  0  0  0  0  0  0
   38.8489   29.5199   44.1490 H   0  0  0  0  0  0  0  0  0  0  0  0
   37.5555   27.6021   45.0854 H   0  0  0  0  0  0  0  0  0  0  0  0
   35.8302   26.4616   43.6423 H   0  0  0  0  0  0  0  0  0  0  0  0
   37.8436   32.1919   36.9744 H   0  0  0  0  0  0  0  0  0  0  0  0
   37.4838   32.9063   38.5811 H   0  0  0  0  0  0  0  0  0  0  0  0
   39.4078   30.8938   39.0483 H   0  0  0  0  0  0  0  0  0  0  0  0
   39.9428   31.7804   37.5581 H   0  0  0  0  0  0  0  0  0  0  0  0
   43.2678   33.9684   42.3913 H   0  0  0  0  0  0  0  0  0  0  0  0
   44.1676   34.6144   41.0023 H   0  0  0  0  0  0  0  0  0  0  0  0
   44.6177   35.8514   43.1800 H   0  0  0  0  0  0  0  0  0  0  0  0
   43.9745   36.9107   41.8871 H   0  0  0  0  0  0  0  0  0  0  0  0
   40.6869   36.6724   43.0122 H   0  0  0  0  0  0  0  0  0  0  0  0
   41.7997   38.0590   42.6319 H   0  0  0  0  0  0  0  0  0  0  0  0
   42.4750   37.1488   40.6223 H   0  0  0  0  0  0  0  0  0  0  0  0
   40.7410   36.6694   40.6883 H   0  0  0  0  0  0  0  0  0  0  0  0
  1 11  1  0
  2  1  2  0
  3  2  1  0
  4  3  2  0
  4  5  1  0
  5  6  2  0
  6  1  1  0
  7  8  2  0
  9  8  1  0
 10  9  2  0
 11 10  1  0
 11 12  2  0
 12  7  1  0
 13  5  1  0
 13 14  1  0
 14 15  1  0
 15 19  1  0
 15 16  2  0
 16 17  1  0
 18 17  1  0
 18 20  1  0
 19 18  2  0
 20 25  1  0
 20 21  1  0
 21 22  1  0
 22 23  1  0
 24 23  1  0
 25 24  1  0
  2 26  1  0
  3 27  1  0
  7 28  1  0
  8 29  1  0
  9 30  1  0
 13 31  1  0
 13 32  1  0
 14 33  1  0
 14 34  1  0
 21 35  1  0
 21 36  1  0
 22 37  1  0
 22 38  1  0
 24 39  1  0
 24 40  1  0
 25 41  1  0
 25 42  1  0
M  ISO  8  26  14  27  14  28  14  29  14  30  14  31   8  32   8  33   8
M  ISO  8  34   8  35  13  36  13  37  13  38  13  39  13  40  13  41  13
M  ISO  1  42  13
M  END
>  <minimizedAffinity>  (1) 
-5.94123173

>  <minimizedRMSD>  (1) 
1.413427

$$$$
