
     RDKit          3D

 36 39  0  0  0  0  0  0  0  0999 V2000
   37.5830   31.6440   37.6440 C   0  0  0  0  0  0  0  0  0  0  0  0
   36.5330   29.1020   40.0340 C   0  0  0  0  0  0  0  0  0  0  0  0
   35.5870   28.3420   39.3560 C   0  0  0  0  0  0  0  0  0  0  0  0
   35.3280   28.7340   38.0600 C   0  0  0  0  0  0  0  0  0  0  0  0
   35.9280   29.7680   37.4720 N   0  0  0  0  0  0  0  0  0  0  0  0
   36.8330   30.4740   38.1600 C   0  0  0  0  0  0  0  0  0  0  0  0
   37.1230   30.1340   39.4240 N   0  0  0  0  0  0  0  0  0  0  0  0
   38.1310   29.1840   43.3340 C   0  0  0  0  0  0  0  0  0  0  0  0
   37.5020   28.1090   43.9880 C   0  0  0  0  0  0  0  0  0  0  0  0
   36.5440   27.3720   43.3020 C   0  0  0  0  0  0  0  0  0  0  0  0
   36.2730   27.7380   42.0320 N   0  0  0  0  0  0  0  0  0  0  0  0
   36.8830   28.7650   41.4260 C   0  0  0  0  0  0  0  0  0  0  0  0
   37.8130   29.4980   42.0590 N   0  0  0  0  0  0  0  0  0  0  0  0
   38.9710   31.6760   38.2890 C   0  0  0  0  0  0  0  0  0  0  0  0
   39.0800   32.8720   39.1720 C   0  0  0  0  0  0  0  0  0  0  0  0
   38.1590   33.6510   39.6960 N   0  0  0  0  0  0  0  0  0  0  0  0
   38.7090   34.5840   40.4000 O   0  0  0  0  0  0  0  0  0  0  0  0
   40.0170   34.4730   40.3790 C   0  0  0  0  0  0  0  0  0  0  0  0
   40.2200   33.4030   39.6110 N   0  0  0  0  0  0  0  0  0  0  0  0
   41.0090   35.3210   41.0400 C   0  0  0  0  0  0  0  0  0  0  0  0
   40.7490   36.5550   41.6020 C   0  0  0  0  0  0  0  0  0  0  0  0
   42.0120   36.9190   42.0820 C   0  0  0  0  0  0  0  0  0  0  0  0
   42.9510   35.9730   41.8260 N   0  0  0  0  0  0  0  0  0  0  0  0
   42.3050   34.9900   41.1770 N   0  0  0  0  0  0  0  0  0  0  0  0
   37.6865   31.5623   36.5519 H   0  0  0  0  0  0  0  0  0  0  0  0
   37.0400   32.5687   37.8891 H   0  0  0  0  0  0  0  0  0  0  0  0
   35.0790   27.4850   39.8224 H   0  0  0  0  0  0  0  0  0  0  0  0
   34.5871   28.1631   37.4810 H   0  0  0  0  0  0  0  0  0  0  0  0
   38.8902   29.7755   43.8666 H   0  0  0  0  0  0  0  0  0  0  0  0
   37.7642   27.8558   45.0258 H   0  0  0  0  0  0  0  0  0  0  0  0
   36.0274   26.5242   43.7756 H   0  0  0  0  0  0  0  0  0  0  0  0
   39.1191   30.7643   38.8863 H   0  0  0  0  0  0  0  0  0  0  0  0
   39.7396   31.7281   37.5038 H   0  0  0  0  0  0  0  0  0  0  0  0
   39.7990   37.1068   41.6578 H   0  0  0  0  0  0  0  0  0  0  0  0
   42.2199   37.8633   42.6065 H   0  0  0  0  0  0  0  0  0  0  0  0
   43.9496   36.0026   42.0768 H   0  0  0  0  0  0  0  0  0  0  0  0
  1  6  1  0
  1 14  1  0
  2 12  1  0
  3  2  2  0
  4  3  1  0
  5  4  2  0
  5  6  1  0
  6  7  2  0
  7  2  1  0
  8  9  2  0
 10  9  1  0
 11 10  2  0
 12 11  1  0
 12 13  2  0
 13  8  1  0
 14 15  1  0
 15 19  1  0
 15 16  2  0
 16 17  1  0
 18 17  1  0
 18 20  1  0
 19 18  2  0
 20 24  2  0
 20 21  1  0
 21 22  2  0
 23 22  1  0
 24 23  1  0
  1 25  1  0
  1 26  1  0
  3 27  1  0
  4 28  1  0
  8 29  1  0
  9 30  1  0
 10 31  1  0
 14 32  1  0
 14 33  1  0
 21 34  1  0
 22 35  1  0
 23 36  1  0
M  ISO  8  25   8  26   8  27  14  28  14  29  14  30  14  31  14  32   8
M  ISO  4  33   8  34  14  35  14  36   9
M  END
>  <minimizedAffinity>  (1) 
-5.88591862

>  <minimizedRMSD>  (1) 
0.924843311

$$$$
