
     RDKit          3D

 37 40  0  0  0  0  0  0  0  0999 V2000
   37.4290   32.8030   40.1230 C   0  0  0  0  0  0  0  0  0  0  0  0
   40.7720   33.8750   39.1260 C   0  0  0  0  0  0  0  0  0  0  0  0
   40.8650   35.1860   39.5800 C   0  0  0  0  0  0  0  0  0  0  0  0
   39.7540   35.6720   40.2280 C   0  0  0  0  0  0  0  0  0  0  0  0
   38.6510   34.9800   40.4300 N   0  0  0  0  0  0  0  0  0  0  0  0
   38.5900   33.7060   39.9770 C   0  0  0  0  0  0  0  0  0  0  0  0
   39.6400   33.1800   39.3390 N   0  0  0  0  0  0  0  0  0  0  0  0
   42.7170   31.6440   36.9440 C   0  0  0  0  0  0  0  0  0  0  0  0
   44.0180   32.1180   37.1290 C   0  0  0  0  0  0  0  0  0  0  0  0
   44.2160   33.1910   37.9940 C   0  0  0  0  0  0  0  0  0  0  0  0
   43.1370   33.7290   38.6200 N   0  0  0  0  0  0  0  0  0  0  0  0
   41.9050   33.2440   38.4140 C   0  0  0  0  0  0  0  0  0  0  0  0
   41.6570   32.2060   37.5880 N   0  0  0  0  0  0  0  0  0  0  0  0
   37.7770   31.4390   39.5550 C   0  0  0  0  0  0  0  0  0  0  0  0
   37.6390   30.3850   40.5850 C   0  0  0  0  0  0  0  0  0  0  0  0
   36.7180   30.2290   41.5250 N   0  0  0  0  0  0  0  0  0  0  0  0
   36.9800   29.1610   42.2180 O   0  0  0  0  0  0  0  0  0  0  0  0
   38.0490   28.5770   41.7860 C   0  0  0  0  0  0  0  0  0  0  0  0
   38.4570   29.3400   40.7710 N   0  0  0  0  0  0  0  0  0  0  0  0
   38.6090   27.3550   42.3520 C   0  0  0  0  0  0  0  0  0  0  0  0
   39.4700   27.4810   43.4290 C   0  0  0  0  0  0  0  0  0  0  0  0
   40.0000   26.3210   43.9640 C   0  0  0  0  0  0  0  0  0  0  0  0
   39.7150   25.0770   43.4800 N   0  0  0  0  0  0  0  0  0  0  0  0
   38.8730   25.0180   42.4350 C   0  0  0  0  0  0  0  0  0  0  0  0
   38.3190   26.1280   41.8650 N   0  0  0  0  0  0  0  0  0  0  0  0
   37.1736   32.7027   41.1882 H   0  0  0  0  0  0  0  0  0  0  0  0
   36.5687   33.2194   39.5784 H   0  0  0  0  0  0  0  0  0  0  0  0
   41.7688   35.7948   39.4304 H   0  0  0  0  0  0  0  0  0  0  0  0
   39.7882   36.7058   40.6022 H   0  0  0  0  0  0  0  0  0  0  0  0
   42.5450   30.7977   36.2627 H   0  0  0  0  0  0  0  0  0  0  0  0
   44.8660   31.6545   36.6037 H   0  0  0  0  0  0  0  0  0  0  0  0
   45.2246   33.5945   38.1668 H   0  0  0  0  0  0  0  0  0  0  0  0
   37.1000   31.2146   38.7176 H   0  0  0  0  0  0  0  0  0  0  0  0
   38.8217   31.4585   39.2111 H   0  0  0  0  0  0  0  0  0  0  0  0
   39.7232   28.4677   43.8440 H   0  0  0  0  0  0  0  0  0  0  0  0
   40.6844   26.4050   44.8211 H   0  0  0  0  0  0  0  0  0  0  0  0
   38.6186   24.0315   42.0201 H   0  0  0  0  0  0  0  0  0  0  0  0
  2  7  1  0
  2  3  2  0
  3  4  1  0
  4  5  2  0
  6  1  1  0
  6  5  1  0
  7  6  2  0
  8  9  2  0
  8 13  1  0
  9 10  1  0
 10 11  2  0
 12 11  1  0
 12  2  1  0
 13 12  2  0
 14  1  1  0
 14 15  1  0
 15 19  1  0
 15 16  2  0
 16 17  1  0
 18 17  1  0
 18 20  1  0
 19 18  2  0
 20 21  2  0
 21 22  1  0
 23 22  2  0
 24 23  1  0
 25 20  1  0
 25 24  2  0
  1 26  1  0
  1 27  1  0
  3 28  1  0
  4 29  1  0
  8 30  1  0
  9 31  1  0
 10 32  1  0
 14 33  1  0
 14 34  1  0
 21 35  1  0
 22 36  1  0
 24 37  1  0
M  ISO  8  26   8  27   8  28  14  29  14  30  14  31  14  32  14  33   8
M  ISO  4  34   8  35  14  36  14  37  14
M  END
>  <minimizedAffinity>  (1) 
-5.7979331

>  <minimizedRMSD>  (1) 
8.39365673

$$$$
