
     RDKit          3D

 37 40  0  0  0  0  0  0  0  0999 V2000
   37.6000   31.7710   37.7230 C   0  0  0  0  0  0  0  0  0  0  0  0
   36.6100   29.1140   40.0110 C   0  0  0  0  0  0  0  0  0  0  0  0
   35.7540   28.3190   39.2780 C   0  0  0  0  0  0  0  0  0  0  0  0
   35.5260   28.7190   37.9820 C   0  0  0  0  0  0  0  0  0  0  0  0
   36.0790   29.7950   37.4380 N   0  0  0  0  0  0  0  0  0  0  0  0
   36.9060   30.5440   38.1830 C   0  0  0  0  0  0  0  0  0  0  0  0
   37.1590   30.1960   39.4500 N   0  0  0  0  0  0  0  0  0  0  0  0
   38.1190   29.1740   43.3750 C   0  0  0  0  0  0  0  0  0  0  0  0
   37.4650   28.1070   43.9990 C   0  0  0  0  0  0  0  0  0  0  0  0
   36.5240   27.3830   43.2750 C   0  0  0  0  0  0  0  0  0  0  0  0
   36.2650   27.7270   41.9870 N   0  0  0  0  0  0  0  0  0  0  0  0
   36.9200   28.7660   41.4220 C   0  0  0  0  0  0  0  0  0  0  0  0
   37.8360   29.4930   42.0830 N   0  0  0  0  0  0  0  0  0  0  0  0
   39.0380   31.7510   38.2110 C   0  0  0  0  0  0  0  0  0  0  0  0
   39.2900   32.8730   39.1530 C   0  0  0  0  0  0  0  0  0  0  0  0
   38.4600   33.7320   39.7140 N   0  0  0  0  0  0  0  0  0  0  0  0
   39.1320   34.5460   40.4750 O   0  0  0  0  0  0  0  0  0  0  0  0
   40.3930   34.2650   40.4450 C   0  0  0  0  0  0  0  0  0  0  0  0
   40.5070   33.2210   39.6220 N   0  0  0  0  0  0  0  0  0  0  0  0
   41.4290   34.9820   41.1830 C   0  0  0  0  0  0  0  0  0  0  0  0
   41.1440   36.2520   41.6520 C   0  0  0  0  0  0  0  0  0  0  0  0
   42.1340   36.9360   42.3560 C   0  0  0  0  0  0  0  0  0  0  0  0
   43.3310   36.3330   42.5530 N   0  0  0  0  0  0  0  0  0  0  0  0
   43.6000   35.0990   42.0940 C   0  0  0  0  0  0  0  0  0  0  0  0
   42.6480   34.4080   41.4010 N   0  0  0  0  0  0  0  0  0  0  0  0
   37.5861   31.8101   36.6238 H   0  0  0  0  0  0  0  0  0  0  0  0
   37.0873   32.6563   38.1274 H   0  0  0  0  0  0  0  0  0  0  0  0
   35.2828   27.4207   39.7035 H   0  0  0  0  0  0  0  0  0  0  0  0
   34.8479   28.1135   37.3627 H   0  0  0  0  0  0  0  0  0  0  0  0
   38.8663   29.7585   43.9317 H   0  0  0  0  0  0  0  0  0  0  0  0
   37.6907   27.8452   45.0433 H   0  0  0  0  0  0  0  0  0  0  0  0
   35.9942   26.5393   43.7413 H   0  0  0  0  0  0  0  0  0  0  0  0
   39.2315   30.7979   38.7250 H   0  0  0  0  0  0  0  0  0  0  0  0
   39.7066   31.8605   37.3444 H   0  0  0  0  0  0  0  0  0  0  0  0
   40.1603   36.7109   41.4738 H   0  0  0  0  0  0  0  0  0  0  0  0
   41.9464   37.9478   42.7448 H   0  0  0  0  0  0  0  0  0  0  0  0
   44.5858   34.6463   42.2764 H   0  0  0  0  0  0  0  0  0  0  0  0
  1  6  1  0
  1 14  1  0
  2 12  1  0
  3  2  2  0
  4  3  1  0
  5  4  2  0
  5  6  1  0
  6  7  2  0
  7  2  1  0
  8  9  2  0
 10  9  1  0
 11 10  2  0
 12 11  1  0
 12 13  2  0
 13  8  1  0
 14 15  1  0
 15 19  1  0
 15 16  2  0
 16 17  1  0
 18 17  1  0
 18 20  1  0
 19 18  2  0
 20 25  1  0
 20 21  2  0
 21 22  1  0
 22 23  2  0
 24 23  1  0
 25 24  2  0
  1 26  1  0
  1 27  1  0
  3 28  1  0
  4 29  1  0
  8 30  1  0
  9 31  1  0
 10 32  1  0
 14 33  1  0
 14 34  1  0
 21 35  1  0
 22 36  1  0
 24 37  1  0
M  ISO  8  26   8  27   8  28  14  29  14  30  14  31  14  32  14  33   8
M  ISO  4  34   8  35  14  36  14  37  14
M  END
>  <minimizedAffinity>  (1) 
-5.78474045

>  <minimizedRMSD>  (1) 
1.40611625

$$$$
