
     RDKit          3D

 45 48  0  0  0  0  0  0  0  0999 V2000
   37.2040   30.0410   40.1850 C   0  0  0  0  0  0  0  0  0  0  0  0
   37.0260   29.5460   38.8980 C   0  0  0  0  0  0  0  0  0  0  0  0
   37.0120   30.4850   37.8890 C   0  0  0  0  0  0  0  0  0  0  0  0
   37.1540   31.7800   38.0890 N   0  0  0  0  0  0  0  0  0  0  0  0
   37.3260   32.2330   39.3490 C   0  0  0  0  0  0  0  0  0  0  0  0
   37.3480   31.3640   40.3740 N   0  0  0  0  0  0  0  0  0  0  0  0
   37.6120   28.7450   43.6020 C   0  0  0  0  0  0  0  0  0  0  0  0
   37.2820   27.3910   43.4320 C   0  0  0  0  0  0  0  0  0  0  0  0
   36.9230   26.9320   42.1600 C   0  0  0  0  0  0  0  0  0  0  0  0
   36.9140   27.8270   41.1400 N   0  0  0  0  0  0  0  0  0  0  0  0
   37.2360   29.1160   41.3390 C   0  0  0  0  0  0  0  0  0  0  0  0
   37.5860   29.5960   42.5510 N   0  0  0  0  0  0  0  0  0  0  0  0
   37.5010   33.6550   39.7410 C   0  0  0  0  0  0  0  0  0  0  0  0
   38.7200   33.7760   40.6390 C   0  0  0  0  0  0  0  0  0  0  0  0
   39.9030   34.2250   39.8640 C   0  0  0  0  0  0  0  0  0  0  0  0
   40.5100   35.3930   39.8420 N   0  0  0  0  0  0  0  0  0  0  0  0
   41.5090   35.3360   39.0120 O   0  0  0  0  0  0  0  0  0  0  0  0
   41.6090   34.1700   38.4620 C   0  0  0  0  0  0  0  0  0  0  0  0
   40.5890   33.4610   39.0010 N   0  0  0  0  0  0  0  0  0  0  0  0
   42.6280   33.7400   37.4650 C   0  0  0  0  0  0  0  0  0  0  0  0
   42.5520   32.2770   37.1620 C   0  0  0  0  0  0  0  0  0  0  0  0
   42.7790   31.4280   38.3780 C   0  0  0  0  0  0  0  0  0  0  0  0
   43.9690   31.8110   39.1930 C   0  0  0  0  0  0  0  0  0  0  0  0
   44.2610   33.2820   39.2510 C   0  0  0  0  0  0  0  0  0  0  0  0
   44.0450   34.0170   37.9730 C   0  0  0  0  0  0  0  0  0  0  0  0
   36.9039   28.4714   38.6974 H   0  0  0  0  0  0  0  0  0  0  0  0
   36.8742   30.1328   36.8561 H   0  0  0  0  0  0  0  0  0  0  0  0
   37.8940   29.1168   44.5981 H   0  0  0  0  0  0  0  0  0  0  0  0
   37.3054   26.7001   44.2876 H   0  0  0  0  0  0  0  0  0  0  0  0
   36.6563   25.8781   41.9919 H   0  0  0  0  0  0  0  0  0  0  0  0
   37.6441   34.2705   38.8406 H   0  0  0  0  0  0  0  0  0  0  0  0
   36.6076   34.0038   40.2796 H   0  0  0  0  0  0  0  0  0  0  0  0
   38.5111   34.5069   41.4340 H   0  0  0  0  0  0  0  0  0  0  0  0
   38.9371   32.7891   41.0736 H   0  0  0  0  0  0  0  0  0  0  0  0
   42.4109   34.3188   36.5551 H   0  0  0  0  0  0  0  0  0  0  0  0
   41.5551   32.0519   36.7552 H   0  0  0  0  0  0  0  0  0  0  0  0
   43.3456   32.0432   36.4371 H   0  0  0  0  0  0  0  0  0  0  0  0
   41.8874   31.5011   39.0181 H   0  0  0  0  0  0  0  0  0  0  0  0
   42.9677   30.4075   38.0134 H   0  0  0  0  0  0  0  0  0  0  0  0
   43.8049   31.4565   40.2213 H   0  0  0  0  0  0  0  0  0  0  0  0
   44.8366   31.3482   38.7000 H   0  0  0  0  0  0  0  0  0  0  0  0
   43.6098   33.7294   40.0164 H   0  0  0  0  0  0  0  0  0  0  0  0
   45.3326   33.3742   39.4817 H   0  0  0  0  0  0  0  0  0  0  0  0
   44.7767   33.6772   37.2252 H   0  0  0  0  0  0  0  0  0  0  0  0
   44.1720   35.0965   38.1421 H   0  0  0  0  0  0  0  0  0  0  0  0
  1  6  1  0
  1 11  1  0
  2  1  2  0
  3  4  2  0
  3  2  1  0
  4  5  1  0
  5 13  1  0
  5  6  2  0
  8  7  2  0
  9  8  1  0
 10 11  1  0
 10  9  2  0
 11 12  2  0
 12  7  1  0
 13 14  1  0
 15 14  1  0
 16 15  2  0
 17 16  1  0
 18 19  2  0
 18 17  1  0
 19 15  1  0
 20 25  1  0
 20 18  1  0
 21 20  1  0
 21 22  1  0
 22 23  1  0
 23 24  1  0
 25 24  1  0
  2 26  1  0
  3 27  1  0
  7 28  1  0
  8 29  1  0
  9 30  1  0
 13 31  1  0
 13 32  1  0
 14 33  1  0
 14 34  1  0
 20 35  1  0
 21 36  1  0
 21 37  1  0
 22 38  1  0
 22 39  1  0
 23 40  1  0
 23 41  1  0
 24 42  1  0
 24 43  1  0
 25 44  1  0
 25 45  1  0
M  ISO  8  26  14  27  14  28  14  29  14  30  14  31   8  32   8  33   8
M  ISO  8  34   8  35  13  36  13  37  13  38  13  39  13  40  13  41  13
M  ISO  4  42  13  43  13  44  13  45  13
M  END
>  <minimizedAffinity>  (1) 
-5.78392982

>  <minimizedRMSD>  (1) 
3.24574757

$$$$
