
     RDKit          3D

 35 37  0  0  0  0  0  0  0  0999 V2000
   36.8430   29.4080   40.0640 C   0  0  0  0  0  0  0  0  0  0  0  0
   35.7990   28.9260   39.2890 C   0  0  0  0  0  0  0  0  0  0  0  0
   35.7110   29.4290   38.0090 C   0  0  0  0  0  0  0  0  0  0  0  0
   36.5570   30.3260   37.5120 N   0  0  0  0  0  0  0  0  0  0  0  0
   37.5560   30.7680   38.2970 C   0  0  0  0  0  0  0  0  0  0  0  0
   37.6860   30.3090   39.5500 N   0  0  0  0  0  0  0  0  0  0  0  0
   38.0520   29.1270   43.5190 C   0  0  0  0  0  0  0  0  0  0  0  0
   37.3320   28.0240   43.9890 C   0  0  0  0  0  0  0  0  0  0  0  0
   36.4370   27.3830   43.1230 C   0  0  0  0  0  0  0  0  0  0  0  0
   36.3160   27.8690   41.8670 N   0  0  0  0  0  0  0  0  0  0  0  0
   37.0260   28.9330   41.4470 C   0  0  0  0  0  0  0  0  0  0  0  0
   37.8950   29.5730   42.2530 N   0  0  0  0  0  0  0  0  0  0  0  0
   38.5750   31.7650   37.8820 C   0  0  0  0  0  0  0  0  0  0  0  0
   39.5290   32.0130   39.0340 C   0  0  0  0  0  0  0  0  0  0  0  0
   39.3680   33.3930   39.5690 C   0  0  0  0  0  0  0  0  0  0  0  0
   38.3100   33.9960   40.0680 N   0  0  0  0  0  0  0  0  0  0  0  0
   38.6300   35.2120   40.4160 O   0  0  0  0  0  0  0  0  0  0  0  0
   39.8810   35.4400   40.1630 C   0  0  0  0  0  0  0  0  0  0  0  0
   40.3700   34.2970   39.6240 N   0  0  0  0  0  0  0  0  0  0  0  0
   40.4840   36.7780   40.4800 C   0  0  0  0  0  0  0  0  0  0  0  0
   41.4350   36.6520   41.6370 C   0  0  0  0  0  0  0  0  0  0  0  0
   35.0826   28.1851   39.6736 H   0  0  0  0  0  0  0  0  0  0  0  0
   34.8965   29.0687   37.3634 H   0  0  0  0  0  0  0  0  0  0  0  0
   38.7570   29.6394   44.1902 H   0  0  0  0  0  0  0  0  0  0  0  0
   37.4662   27.6662   45.0205 H   0  0  0  0  0  0  0  0  0  0  0  0
   35.8516   26.5125   43.4539 H   0  0  0  0  0  0  0  0  0  0  0  0
   39.1351   31.3802   37.0170 H   0  0  0  0  0  0  0  0  0  0  0  0
   38.0787   32.7066   37.6043 H   0  0  0  0  0  0  0  0  0  0  0  0
   39.3213   31.2893   39.8359 H   0  0  0  0  0  0  0  0  0  0  0  0
   40.5598   31.8957   38.6684 H   0  0  0  0  0  0  0  0  0  0  0  0
   41.0286   37.1499   39.5996 H   0  0  0  0  0  0  0  0  0  0  0  0
   39.6817   37.4816   40.7470 H   0  0  0  0  0  0  0  0  0  0  0  0
   40.8756   36.7261   42.5812 H   0  0  0  0  0  0  0  0  0  0  0  0
   41.9448   35.6785   41.5883 H   0  0  0  0  0  0  0  0  0  0  0  0
   42.1807   37.4592   41.5883 H   0  0  0  0  0  0  0  0  0  0  0  0
  1 11  1  0
  2  1  2  0
  3  2  1  0
  4  3  2  0
  4  5  1  0
  5  6  2  0
  6  1  1  0
  7  8  2  0
  9  8  1  0
 10  9  2  0
 11 10  1  0
 11 12  2  0
 12  7  1  0
 13  5  1  0
 13 14  1  0
 14 15  1  0
 15 19  1  0
 15 16  2  0
 16 17  1  0
 18 17  1  0
 18 20  1  0
 19 18  2  0
 20 21  1  0
  2 22  1  0
  3 23  1  0
  7 24  1  0
  8 25  1  0
  9 26  1  0
 13 27  1  0
 13 28  1  0
 14 29  1  0
 14 30  1  0
 20 31  1  0
 20 32  1  0
 21 33  1  0
 21 34  1  0
 21 35  1  0
M  ISO  8  22  14  23  14  24  14  25  14  26  14  27   8  28   8  29   8
M  ISO  6  30   8  31   8  32   8  33   8  34   8  35   8
M  END
>  <minimizedAffinity>  (1) 
-5.41364861

>  <minimizedRMSD>  (1) 
0.42876035

$$$$
