
     RDKit          3D

 30 32  0  0  0  0  0  0  0  0999 V2000
   36.7900   29.3500   40.2080 C   0  0  0  0  0  0  0  0  0  0  0  0
   35.8630   28.7510   39.3600 C   0  0  0  0  0  0  0  0  0  0  0  0
   35.7580   29.2990   38.0910 C   0  0  0  0  0  0  0  0  0  0  0  0
   36.4850   30.3290   37.6870 N   0  0  0  0  0  0  0  0  0  0  0  0
   37.3690   30.8850   38.5260 C   0  0  0  0  0  0  0  0  0  0  0  0
   37.5050   30.3910   39.7590 N   0  0  0  0  0  0  0  0  0  0  0  0
   38.0390   28.9640   43.6340 C   0  0  0  0  0  0  0  0  0  0  0  0
   37.2850   27.8640   44.0920 C   0  0  0  0  0  0  0  0  0  0  0  0
   36.3680   27.2790   43.2260 C   0  0  0  0  0  0  0  0  0  0  0  0
   36.2350   27.7880   41.9760 N   0  0  0  0  0  0  0  0  0  0  0  0
   36.9750   28.8430   41.5730 C   0  0  0  0  0  0  0  0  0  0  0  0
   37.8750   29.4420   42.3770 N   0  0  0  0  0  0  0  0  0  0  0  0
   38.2420   32.0350   38.2100 C   0  0  0  0  0  0  0  0  0  0  0  0
   39.1980   32.2720   39.3760 C   0  0  0  0  0  0  0  0  0  0  0  0
   39.3190   33.7150   39.6830 C   0  0  0  0  0  0  0  0  0  0  0  0
   38.4180   34.5540   40.1440 N   0  0  0  0  0  0  0  0  0  0  0  0
   38.9380   35.7360   40.2730 O   0  0  0  0  0  0  0  0  0  0  0  0
   40.1970   35.7200   39.9020 C   0  0  0  0  0  0  0  0  0  0  0  0
   40.4220   34.4500   39.5360 N   0  0  0  0  0  0  0  0  0  0  0  0
   41.2320   36.6420   39.8200 O   0  0  0  0  0  0  0  0  0  0  0  0
   35.2505   27.8943   39.6777 H   0  0  0  0  0  0  0  0  0  0  0  0
   35.0372   28.8575   37.3871 H   0  0  0  0  0  0  0  0  0  0  0  0
   38.7691   29.4397   44.3053 H   0  0  0  0  0  0  0  0  0  0  0  0
   37.4195   27.4769   45.1128 H   0  0  0  0  0  0  0  0  0  0  0  0
   35.7619   26.4196   43.5486 H   0  0  0  0  0  0  0  0  0  0  0  0
   38.8190   31.8198   37.2985 H   0  0  0  0  0  0  0  0  0  0  0  0
   37.6275   32.9326   38.0464 H   0  0  0  0  0  0  0  0  0  0  0  0
   38.8177   31.7466   40.2645 H   0  0  0  0  0  0  0  0  0  0  0  0
   40.1910   31.8906   39.0959 H   0  0  0  0  0  0  0  0  0  0  0  0
   42.1224   36.3588   39.4928 H   0  0  0  0  0  0  0  0  0  0  0  0
  1 11  1  0
  2  1  2  0
  3  2  1  0
  4  3  2  0
  4  5  1  0
  5  6  2  0
  6  1  1  0
  7  8  2  0
  9  8  1  0
 10  9  2  0
 11 10  1  0
 11 12  2  0
 12  7  1  0
 13  5  1  0
 13 14  1  0
 14 15  1  0
 15 16  2  0
 16 17  1  0
 18 17  1  0
 19 15  1  0
 19 18  2  0
 20 18  1  0
  2 21  1  0
  3 22  1  0
  7 23  1  0
  8 24  1  0
  9 25  1  0
 13 26  1  0
 13 27  1  0
 14 28  1  0
 14 29  1  0
 20 30  1  0
M  ISO  8  21  14  22  14  23  14  24  14  25  14  26   8  27   8  28   8
M  ISO  2  29   8  30   3
M  END
>  <minimizedAffinity>  (1) 
-5.28476191

>  <minimizedRMSD>  (1) 
0.356425107

$$$$
