
     RDKit          3D

 32 34  0  0  0  0  0  0  0  0999 V2000
   36.7350   29.3110   40.0740 C   0  0  0  0  0  0  0  0  0  0  0  0
   35.7560   28.7140   39.3120 C   0  0  0  0  0  0  0  0  0  0  0  0
   35.6310   29.1940   38.0250 C   0  0  0  0  0  0  0  0  0  0  0  0
   36.3880   30.1640   37.5290 N   0  0  0  0  0  0  0  0  0  0  0  0
   37.3380   30.7250   38.3050 C   0  0  0  0  0  0  0  0  0  0  0  0
   37.5050   30.2980   39.5640 N   0  0  0  0  0  0  0  0  0  0  0  0
   38.0600   29.1160   43.5020 C   0  0  0  0  0  0  0  0  0  0  0  0
   37.3430   28.0160   44.0190 C   0  0  0  0  0  0  0  0  0  0  0  0
   36.4260   27.3620   43.2050 C   0  0  0  0  0  0  0  0  0  0  0  0
   36.2760   27.8270   41.9470 N   0  0  0  0  0  0  0  0  0  0  0  0
   36.9700   28.8800   41.4760 C   0  0  0  0  0  0  0  0  0  0  0  0
   37.8660   29.5350   42.2380 N   0  0  0  0  0  0  0  0  0  0  0  0
   38.2500   31.8080   37.8870 C   0  0  0  0  0  0  0  0  0  0  0  0
   39.3130   32.0120   38.9640 C   0  0  0  0  0  0  0  0  0  0  0  0
   39.2280   33.3810   39.5310 C   0  0  0  0  0  0  0  0  0  0  0  0
   38.2040   34.0240   40.0570 N   0  0  0  0  0  0  0  0  0  0  0  0
   38.5940   35.2070   40.4250 O   0  0  0  0  0  0  0  0  0  0  0  0
   39.8530   35.3860   40.1640 C   0  0  0  0  0  0  0  0  0  0  0  0
   40.2770   34.2330   39.5940 N   0  0  0  0  0  0  0  0  0  0  0  0
   40.6440   36.5970   40.4370 C   0  0  0  0  0  0  0  0  0  0  0  0
   35.1168   27.9087   39.7031 H   0  0  0  0  0  0  0  0  0  0  0  0
   34.8629   28.7489   37.3754 H   0  0  0  0  0  0  0  0  0  0  0  0
   38.7874   29.6381   44.1410 H   0  0  0  0  0  0  0  0  0  0  0  0
   37.5079   27.6804   45.0535 H   0  0  0  0  0  0  0  0  0  0  0  0
   35.8467   26.5014   43.5707 H   0  0  0  0  0  0  0  0  0  0  0  0
   38.7350   31.5350   36.9382 H   0  0  0  0  0  0  0  0  0  0  0  0
   37.6801   32.7387   37.7488 H   0  0  0  0  0  0  0  0  0  0  0  0
   39.1581   31.2776   39.7682 H   0  0  0  0  0  0  0  0  0  0  0  0
   40.3063   31.8774   38.5111 H   0  0  0  0  0  0  0  0  0  0  0  0
   40.7358   36.7376   41.5241 H   0  0  0  0  0  0  0  0  0  0  0  0
   41.6456   36.4880   39.9955 H   0  0  0  0  0  0  0  0  0  0  0  0
   40.1417   37.4703   39.9955 H   0  0  0  0  0  0  0  0  0  0  0  0
  1 11  1  0
  2  1  2  0
  3  2  1  0
  4  3  2  0
  4  5  1  0
  5  6  2  0
  6  1  1  0
  7  8  2  0
  9  8  1  0
 10  9  2  0
 11 10  1  0
 11 12  2  0
 12  7  1  0
 13  5  1  0
 13 14  1  0
 14 15  1  0
 15 19  1  0
 15 16  2  0
 16 17  1  0
 18 17  1  0
 18 20  1  0
 19 18  2  0
  2 21  1  0
  3 22  1  0
  7 23  1  0
  8 24  1  0
  9 25  1  0
 13 26  1  0
 13 27  1  0
 14 28  1  0
 14 29  1  0
 20 30  1  0
 20 31  1  0
 20 32  1  0
M  ISO  8  21  14  22  14  23  14  24  14  25  14  26   8  27   8  28   8
M  ISO  4  29   8  30   8  31   8  32   8
M  END
>  <minimizedAffinity>  (1) 
-5.25781155

>  <minimizedRMSD>  (1) 
0.128038645

$$$$
