
     RDKit          3D

 31 33  0  0  0  0  0  0  0  0999 V2000
   36.7460   29.3130   40.0940 C   0  0  0  0  0  0  0  0  0  0  0  0
   35.7680   28.7190   39.3100 C   0  0  0  0  0  0  0  0  0  0  0  0
   35.6320   29.1980   38.0330 C   0  0  0  0  0  0  0  0  0  0  0  0
   36.3850   30.1810   37.5360 N   0  0  0  0  0  0  0  0  0  0  0  0
   37.3220   30.7370   38.3140 C   0  0  0  0  0  0  0  0  0  0  0  0
   37.4920   30.3040   39.5650 N   0  0  0  0  0  0  0  0  0  0  0  0
   38.0660   29.1140   43.5110 C   0  0  0  0  0  0  0  0  0  0  0  0
   37.3600   28.0310   44.0330 C   0  0  0  0  0  0  0  0  0  0  0  0
   36.4270   27.3660   43.2110 C   0  0  0  0  0  0  0  0  0  0  0  0
   36.2610   27.8170   41.9390 N   0  0  0  0  0  0  0  0  0  0  0  0
   36.9620   28.8630   41.4740 C   0  0  0  0  0  0  0  0  0  0  0  0
   37.8570   29.5170   42.2350 N   0  0  0  0  0  0  0  0  0  0  0  0
   38.2310   31.8340   37.9020 C   0  0  0  0  0  0  0  0  0  0  0  0
   39.3160   32.0100   38.9550 C   0  0  0  0  0  0  0  0  0  0  0  0
   39.2810   33.3800   39.5250 C   0  0  0  0  0  0  0  0  0  0  0  0
   38.2740   34.0500   40.0720 N   0  0  0  0  0  0  0  0  0  0  0  0
   38.7150   35.2270   40.4340 O   0  0  0  0  0  0  0  0  0  0  0  0
   39.9680   35.3670   40.1500 C   0  0  0  0  0  0  0  0  0  0  0  0
   40.3340   34.2090   39.5760 N   0  0  0  0  0  0  0  0  0  0  0  0
   40.6200   36.5900   40.4720 N   0  0  0  0  0  0  0  0  0  0  0  0
   35.1344   27.9056   39.6933 H   0  0  0  0  0  0  0  0  0  0  0  0
   34.8639   28.7497   37.3857 H   0  0  0  0  0  0  0  0  0  0  0  0
   38.7970   29.6442   44.1391 H   0  0  0  0  0  0  0  0  0  0  0  0
   37.5280   27.7008   45.0687 H   0  0  0  0  0  0  0  0  0  0  0  0
   35.8507   26.5080   43.5875 H   0  0  0  0  0  0  0  0  0  0  0  0
   38.6937   31.5846   36.9357 H   0  0  0  0  0  0  0  0  0  0  0  0
   37.6594   32.7685   37.8019 H   0  0  0  0  0  0  0  0  0  0  0  0
   39.1570   31.2796   39.7620 H   0  0  0  0  0  0  0  0  0  0  0  0
   40.2959   31.8505   38.4813 H   0  0  0  0  0  0  0  0  0  0  0  0
   41.6183   36.7151   40.2513 H   0  0  0  0  0  0  0  0  0  0  0  0
   40.0937   37.3502   40.9258 H   0  0  0  0  0  0  0  0  0  0  0  0
  1 11  1  0
  2  1  2  0
  3  2  1  0
  4  3  2  0
  4  5  1  0
  5  6  2  0
  6  1  1  0
  7  8  2  0
  9  8  1  0
 10  9  2  0
 11 10  1  0
 11 12  2  0
 12  7  1  0
 13  5  1  0
 13 14  1  0
 14 15  1  0
 15 19  1  0
 15 16  2  0
 16 17  1  0
 18 17  1  0
 18 20  1  0
 19 18  2  0
  2 21  1  0
  3 22  1  0
  7 23  1  0
  8 24  1  0
  9 25  1  0
 13 26  1  0
 13 27  1  0
 14 28  1  0
 14 29  1  0
 20 30  1  0
 20 31  1  0
M  ISO  8  21  14  22  14  23  14  24  14  25  14  26   8  27   8  28   8
M  ISO  1  29   8
M  END
>  <minimizedAffinity>  (1) 
-5.13559008

>  <minimizedRMSD>  (1) 
0.0991801545

$$$$
