
     RDKit          3D

 43 47  0  0  0  0  0  0  0  0999 V2000
   37.3780   32.0350   38.0270 C   0  0  0  0  0  0  0  0  0  0  0  0
   36.6350   29.1260   40.1040 C   0  0  0  0  0  0  0  0  0  0  0  0
   35.8980   28.2860   39.2810 C   0  0  0  0  0  0  0  0  0  0  0  0
   35.6640   28.7380   38.0050 C   0  0  0  0  0  0  0  0  0  0  0  0
   36.1050   29.9040   37.5650 N   0  0  0  0  0  0  0  0  0  0  0  0
   36.8160   30.6960   38.3810 C   0  0  0  0  0  0  0  0  0  0  0  0
   37.0670   30.2960   39.6310 N   0  0  0  0  0  0  0  0  0  0  0  0
   38.1270   29.0430   43.4690 C   0  0  0  0  0  0  0  0  0  0  0  0
   37.4690   27.9580   44.0500 C   0  0  0  0  0  0  0  0  0  0  0  0
   36.5260   27.2650   43.2960 C   0  0  0  0  0  0  0  0  0  0  0  0
   36.2750   27.6630   42.0220 N   0  0  0  0  0  0  0  0  0  0  0  0
   36.9410   28.7230   41.5040 C   0  0  0  0  0  0  0  0  0  0  0  0
   37.8610   29.4220   42.1970 N   0  0  0  0  0  0  0  0  0  0  0  0
   37.2830   32.9470   39.2170 C   0  0  0  0  0  0  0  0  0  0  0  0
   38.6190   33.2770   39.7520 C   0  0  0  0  0  0  0  0  0  0  0  0
   38.9590   33.9260   40.8630 N   0  0  0  0  0  0  0  0  0  0  0  0
   40.2530   33.9850   40.9340 O   0  0  0  0  0  0  0  0  0  0  0  0
   40.8100   33.4070   39.9250 C   0  0  0  0  0  0  0  0  0  0  0  0
   39.7900   32.9590   39.1760 N   0  0  0  0  0  0  0  0  0  0  0  0
   42.2360   33.4100   39.8960 N   0  0  0  0  0  0  0  0  0  0  0  0
   43.0910   32.6120   39.2440 N   0  0  0  0  0  0  0  0  0  0  0  0
   44.3620   32.9640   39.4960 C   0  0  0  0  0  0  0  0  0  0  0  0
   44.2870   34.0490   40.3610 C   0  0  0  0  0  0  0  0  0  0  0  0
   42.9460   34.3030   40.5900 C   0  0  0  0  0  0  0  0  0  0  0  0
   42.6200   35.3860   41.4580 N   0  0  0  0  0  0  0  0  0  0  0  0
   43.4360   35.4970   42.5380 C   0  0  0  0  0  0  0  0  0  0  0  0
   42.9780   36.5960   43.2710 C   0  0  0  0  0  0  0  0  0  0  0  0
   41.9210   37.1090   42.6250 N   0  0  0  0  0  0  0  0  0  0  0  0
   41.7050   36.3710   41.5230 C   0  0  0  0  0  0  0  0  0  0  0  0
   38.4321   31.9243   37.7328 H   0  0  0  0  0  0  0  0  0  0  0  0
   36.8073   32.4631   37.1897 H   0  0  0  0  0  0  0  0  0  0  0  0
   35.5224   27.3131   39.6307 H   0  0  0  0  0  0  0  0  0  0  0  0
   35.0845   28.1021   37.3196 H   0  0  0  0  0  0  0  0  0  0  0  0
   38.8740   29.5993   44.0543 H   0  0  0  0  0  0  0  0  0  0  0  0
   37.6913   27.6561   45.0841 H   0  0  0  0  0  0  0  0  0  0  0  0
   35.9909   26.4058   43.7267 H   0  0  0  0  0  0  0  0  0  0  0  0
   36.7786   33.8769   38.9156 H   0  0  0  0  0  0  0  0  0  0  0  0
   36.7133   32.4307   40.0037 H   0  0  0  0  0  0  0  0  0  0  0  0
   45.2732   32.4917   39.1001 H   0  0  0  0  0  0  0  0  0  0  0  0
   45.1368   34.6037   40.7854 H   0  0  0  0  0  0  0  0  0  0  0  0
   44.2896   34.8494   42.7871 H   0  0  0  0  0  0  0  0  0  0  0  0
   43.4083   36.9728   44.2106 H   0  0  0  0  0  0  0  0  0  0  0  0
   40.9049   36.5448   40.7884 H   0  0  0  0  0  0  0  0  0  0  0  0
  1  6  1  0
  1 14  1  0
  2 12  1  0
  3  2  2  0
  4  3  1  0
  5  4  2  0
  5  6  1  0
  6  7  2  0
  7  2  1  0
  8  9  2  0
 10  9  1  0
 11 10  2  0
 12 11  1  0
 12 13  2  0
 13  8  1  0
 14 15  1  0
 15 16  2  0
 16 17  1  0
 18 17  1  0
 19 15  1  0
 19 18  2  0
 20 18  1  0
 20 24  1  0
 21 22  2  0
 21 20  1  0
 22 23  1  0
 23 24  2  0
 24 25  1  0
 25 29  1  0
 25 26  1  0
 26 27  2  0
 28 27  1  0
 29 28  2  0
  1 30  1  0
  1 31  1  0
  3 32  1  0
  4 33  1  0
  8 34  1  0
  9 35  1  0
 10 36  1  0
 14 37  1  0
 14 38  1  0
 22 39  1  0
 23 40  1  0
 26 41  1  0
 27 42  1  0
 29 43  1  0
M  ISO  8  30   8  31   8  32  14  33  14  34  14  35  14  36  14  37   8
M  ISO  6  38   8  39  14  40  14  41  14  42  14  43  14
M  END
>  <minimizedAffinity>  (1) 
-6.84279299

>  <minimizedRMSD>  (1) 
2.31779838

$$$$
