
     RDKit          3D

 46 50  0  0  0  0  0  0  0  0999 V2000
   38.7990   31.7340   37.5560 C   0  0  0  0  0  0  0  0  0  0  0  0
   39.8630   32.2020   38.4670 C   0  0  0  0  0  0  0  0  0  0  0  0
   39.7920   32.9420   39.5700 N   0  0  0  0  0  0  0  0  0  0  0  0
   40.9890   33.1030   40.0420 O   0  0  0  0  0  0  0  0  0  0  0  0
   41.8720   32.5070   39.3170 C   0  0  0  0  0  0  0  0  0  0  0  0
   41.1790   31.9340   38.3190 N   0  0  0  0  0  0  0  0  0  0  0  0
   43.2280   32.6180   39.7470 N   0  0  0  0  0  0  0  0  0  0  0  0
   44.2840   31.8360   39.4870 N   0  0  0  0  0  0  0  0  0  0  0  0
   45.3850   32.2960   40.1060 C   0  0  0  0  0  0  0  0  0  0  0  0
   44.9790   33.4320   40.7900 C   0  0  0  0  0  0  0  0  0  0  0  0
   43.6180   33.6100   40.5460 C   0  0  0  0  0  0  0  0  0  0  0  0
   42.9920   34.7620   41.1820 C   0  0  0  0  0  0  0  0  0  0  0  0
   41.8710   35.4350   40.7560 C   0  0  0  0  0  0  0  0  0  0  0  0
   41.3550   36.5100   41.4440 C   0  0  0  0  0  0  0  0  0  0  0  0
   41.9390   36.9730   42.6030 C   0  0  0  0  0  0  0  0  0  0  0  0
   43.0650   36.3540   43.0950 C   0  0  0  0  0  0  0  0  0  0  0  0
   43.5340   35.2830   42.3630 C   0  0  0  0  0  0  0  0  0  0  0  0
   37.4280   32.0260   38.1310 C   0  0  0  0  0  0  0  0  0  0  0  0
   36.5390   29.1870   40.2470 C   0  0  0  0  0  0  0  0  0  0  0  0
   35.7110   28.4100   39.4650 C   0  0  0  0  0  0  0  0  0  0  0  0
   35.4620   28.8780   38.1970 C   0  0  0  0  0  0  0  0  0  0  0  0
   35.9740   30.0050   37.7260 N   0  0  0  0  0  0  0  0  0  0  0  0
   36.7790   30.7420   38.5140 C   0  0  0  0  0  0  0  0  0  0  0  0
   37.0480   30.3260   39.7550 N   0  0  0  0  0  0  0  0  0  0  0  0
   38.1280   29.0210   43.5690 C   0  0  0  0  0  0  0  0  0  0  0  0
   37.4420   27.9600   44.1610 C   0  0  0  0  0  0  0  0  0  0  0  0
   36.4500   27.3110   43.4290 C   0  0  0  0  0  0  0  0  0  0  0  0
   36.1780   27.7230   42.1750 N   0  0  0  0  0  0  0  0  0  0  0  0
   36.8650   28.7610   41.6300 C   0  0  0  0  0  0  0  0  0  0  0  0
   37.8400   29.4260   42.2990 N   0  0  0  0  0  0  0  0  0  0  0  0
   38.9036   30.6491   37.4073 H   0  0  0  0  0  0  0  0  0  0  0  0
   38.8984   32.2645   36.5975 H   0  0  0  0  0  0  0  0  0  0  0  0
   46.3955   31.8625   40.0762 H   0  0  0  0  0  0  0  0  0  0  0  0
   45.6163   34.0767   41.4131 H   0  0  0  0  0  0  0  0  0  0  0  0
   41.3698   35.1033   39.8347 H   0  0  0  0  0  0  0  0  0  0  0  0
   40.4547   37.0115   41.0592 H   0  0  0  0  0  0  0  0  0  0  0  0
   41.5065   37.8344   43.1330 H   0  0  0  0  0  0  0  0  0  0  0  0
   43.5612   36.6927   44.0164 H   0  0  0  0  0  0  0  0  0  0  0  0
   44.4339   34.7827   42.7503 H   0  0  0  0  0  0  0  0  0  0  0  0
   37.5295   32.6671   39.0191 H   0  0  0  0  0  0  0  0  0  0  0  0
   36.8129   32.5436   37.3802 H   0  0  0  0  0  0  0  0  0  0  0  0
   35.2750   27.4701   39.8345 H   0  0  0  0  0  0  0  0  0  0  0  0
   34.8053   28.2876   37.5412 H   0  0  0  0  0  0  0  0  0  0  0  0
   38.9147   29.5398   44.1364 H   0  0  0  0  0  0  0  0  0  0  0  0
   37.6800   27.6418   45.1867 H   0  0  0  0  0  0  0  0  0  0  0  0
   35.8942   26.4705   43.8703 H   0  0  0  0  0  0  0  0  0  0  0  0
  1 18  1  0
  1  2  1  0
  2  3  2  0
  3  4  1  0
  5  7  1  0
  5  4  1  0
  6  2  1  0
  6  5  2  0
  7 11  1  0
  8  7  1  0
  8  9  2  0
  9 10  1  0
 11 10  2  0
 11 12  1  0
 12 17  1  0
 13 12  2  0
 13 14  1  0
 14 15  2  0
 15 16  1  0
 17 16  2  0
 18 23  1  0
 19 29  1  0
 20 19  2  0
 21 20  1  0
 22 21  2  0
 22 23  1  0
 23 24  2  0
 24 19  1  0
 25 26  2  0
 27 26  1  0
 28 27  2  0
 29 28  1  0
 29 30  2  0
 30 25  1  0
  1 31  1  0
  1 32  1  0
  9 33  1  0
 10 34  1  0
 13 35  1  0
 14 36  1  0
 15 37  1  0
 16 38  1  0
 17 39  1  0
 18 40  1  0
 18 41  1  0
 20 42  1  0
 21 43  1  0
 25 44  1  0
 26 45  1  0
 27 46  1  0
M  ISO  8  31   8  32   8  33  14  34  14  35  14  36  14  37  14  38  14
M  ISO  8  39  14  40   8  41   8  42  14  43  14  44  14  45  14  46  14
M  END
>  <minimizedAffinity>  (1) 
-6.60835505

>  <minimizedRMSD>  (1) 
2.76883554

$$$$
