
     RDKit          3D

 44 48  0  0  0  0  0  0  0  0999 V2000
   38.8890   31.6480   37.4130 C   0  0  0  0  0  0  0  0  0  0  0  0
   39.9300   32.1760   38.3160 C   0  0  0  0  0  0  0  0  0  0  0  0
   39.8370   32.7350   39.5220 N   0  0  0  0  0  0  0  0  0  0  0  0
   41.0320   33.0280   39.9180 O   0  0  0  0  0  0  0  0  0  0  0  0
   41.9320   32.7240   39.0960 C   0  0  0  0  0  0  0  0  0  0  0  0
   41.2410   32.1850   38.0840 N   0  0  0  0  0  0  0  0  0  0  0  0
   43.2680   33.0100   39.4420 N   0  0  0  0  0  0  0  0  0  0  0  0
   44.4180   32.4510   38.9830 N   0  0  0  0  0  0  0  0  0  0  0  0
   45.4800   33.0260   39.5870 C   0  0  0  0  0  0  0  0  0  0  0  0
   44.9680   33.9650   40.4430 C   0  0  0  0  0  0  0  0  0  0  0  0
   43.5660   33.9410   40.3330 C   0  0  0  0  0  0  0  0  0  0  0  0
   43.0020   34.9500   41.2120 C   0  0  0  0  0  0  0  0  0  0  0  0
   41.8760   35.6940   41.0450 C   0  0  0  0  0  0  0  0  0  0  0  0
   41.3420   36.7050   41.7960 C   0  0  0  0  0  0  0  0  0  0  0  0
   42.0870   37.0070   42.9070 N   0  0  0  0  0  0  0  0  0  0  0  0
   43.2110   36.3240   43.1470 C   0  0  0  0  0  0  0  0  0  0  0  0
   43.5920   35.3720   42.3190 N   0  0  0  0  0  0  0  0  0  0  0  0
   37.5020   31.9530   37.9690 C   0  0  0  0  0  0  0  0  0  0  0  0
   36.5860   29.1680   40.1320 C   0  0  0  0  0  0  0  0  0  0  0  0
   35.7450   28.3940   39.3640 C   0  0  0  0  0  0  0  0  0  0  0  0
   35.4970   28.8420   38.0960 C   0  0  0  0  0  0  0  0  0  0  0  0
   36.0190   29.9560   37.5940 N   0  0  0  0  0  0  0  0  0  0  0  0
   36.8390   30.6900   38.3730 C   0  0  0  0  0  0  0  0  0  0  0  0
   37.1100   30.2910   39.6180 N   0  0  0  0  0  0  0  0  0  0  0  0
   38.1740   29.0670   43.4500 C   0  0  0  0  0  0  0  0  0  0  0  0
   37.5120   27.9840   44.0510 C   0  0  0  0  0  0  0  0  0  0  0  0
   36.5460   27.3200   43.3200 C   0  0  0  0  0  0  0  0  0  0  0  0
   36.2590   27.7180   42.0600 N   0  0  0  0  0  0  0  0  0  0  0  0
   36.9240   28.7710   41.5150 C   0  0  0  0  0  0  0  0  0  0  0  0
   37.8810   29.4520   42.1970 N   0  0  0  0  0  0  0  0  0  0  0  0
   39.0101   30.5589   37.3171 H   0  0  0  0  0  0  0  0  0  0  0  0
   38.9930   32.1268   36.4281 H   0  0  0  0  0  0  0  0  0  0  0  0
   46.5417   32.7884   39.4245 H   0  0  0  0  0  0  0  0  0  0  0  0
   45.5522   34.6238   41.1023 H   0  0  0  0  0  0  0  0  0  0  0  0
   41.2921   35.4379   40.1487 H   0  0  0  0  0  0  0  0  0  0  0  0
   40.4080   37.2240   41.5347 H   0  0  0  0  0  0  0  0  0  0  0  0
   43.8173   36.5564   44.0349 H   0  0  0  0  0  0  0  0  0  0  0  0
   37.5954   32.6134   38.8437 H   0  0  0  0  0  0  0  0  0  0  0  0
   36.8994   32.4503   37.1946 H   0  0  0  0  0  0  0  0  0  0  0  0
   35.2972   27.4661   39.7494 H   0  0  0  0  0  0  0  0  0  0  0  0
   34.8284   28.2473   37.4563 H   0  0  0  0  0  0  0  0  0  0  0  0
   38.9460   29.6095   44.0154 H   0  0  0  0  0  0  0  0  0  0  0  0
   37.7564   27.6725   45.0773 H   0  0  0  0  0  0  0  0  0  0  0  0
   36.0103   26.4675   43.7630 H   0  0  0  0  0  0  0  0  0  0  0  0
  1 18  1  0
  1  2  1  0
  2  3  2  0
  3  4  1  0
  5  7  1  0
  5  4  1  0
  6  2  1  0
  6  5  2  0
  7 11  1  0
  8  7  1  0
  8  9  2  0
  9 10  1  0
 11 10  2  0
 11 12  1  0
 12 17  1  0
 13 12  2  0
 13 14  1  0
 14 15  2  0
 15 16  1  0
 17 16  2  0
 18 23  1  0
 19 29  1  0
 20 19  2  0
 21 20  1  0
 22 21  2  0
 22 23  1  0
 23 24  2  0
 24 19  1  0
 25 26  2  0
 27 26  1  0
 28 27  2  0
 29 28  1  0
 29 30  2  0
 30 25  1  0
  1 31  1  0
  1 32  1  0
  9 33  1  0
 10 34  1  0
 13 35  1  0
 14 36  1  0
 16 37  1  0
 18 38  1  0
 18 39  1  0
 20 40  1  0
 21 41  1  0
 25 42  1  0
 26 43  1  0
 27 44  1  0
M  ISO  8  31   8  32   8  33  14  34  14  35  14  36  14  37  14  38   8
M  ISO  6  39   8  40  14  41  14  42  14  43  14  44  14
M  END
>  <minimizedAffinity>  (1) 
-6.5367775

>  <minimizedRMSD>  (1) 
2.71766257

$$$$
