
     RDKit          3D

 39 42  0  0  0  0  0  0  0  0999 V2000
   37.8030   31.6020   37.6590 C   0  0  0  0  0  0  0  0  0  0  0  0
   36.5650   29.1350   40.0430 C   0  0  0  0  0  0  0  0  0  0  0  0
   35.5920   28.4400   39.3580 C   0  0  0  0  0  0  0  0  0  0  0  0
   35.3660   28.8350   38.0560 C   0  0  0  0  0  0  0  0  0  0  0  0
   36.0300   29.8230   37.4660 N   0  0  0  0  0  0  0  0  0  0  0  0
   36.9730   30.4790   38.1670 C   0  0  0  0  0  0  0  0  0  0  0  0
   37.2240   30.1240   39.4410 N   0  0  0  0  0  0  0  0  0  0  0  0
   38.1010   29.1480   43.3870 C   0  0  0  0  0  0  0  0  0  0  0  0
   37.4250   28.0930   44.0150 C   0  0  0  0  0  0  0  0  0  0  0  0
   36.4650   27.3960   43.3070 C   0  0  0  0  0  0  0  0  0  0  0  0
   36.2050   27.7540   42.0230 N   0  0  0  0  0  0  0  0  0  0  0  0
   36.8760   28.7780   41.4450 C   0  0  0  0  0  0  0  0  0  0  0  0
   37.8250   29.4850   42.1100 N   0  0  0  0  0  0  0  0  0  0  0  0
   39.2650   31.3430   37.9940 C   0  0  0  0  0  0  0  0  0  0  0  0
   39.7830   32.3770   38.9090 C   0  0  0  0  0  0  0  0  0  0  0  0
   39.2030   33.4780   39.3840 N   0  0  0  0  0  0  0  0  0  0  0  0
   40.0460   34.0890   40.1610 O   0  0  0  0  0  0  0  0  0  0  0  0
   41.1760   33.4520   40.2370 C   0  0  0  0  0  0  0  0  0  0  0  0
   41.0010   32.3940   39.4570 N   0  0  0  0  0  0  0  0  0  0  0  0
   42.1600   34.0590   41.0730 N   0  0  0  0  0  0  0  0  0  0  0  0
   43.2330   33.4890   41.6600 N   0  0  0  0  0  0  0  0  0  0  0  0
   43.9130   34.3920   42.3780 C   0  0  0  0  0  0  0  0  0  0  0  0
   43.2220   35.5850   42.2250 C   0  0  0  0  0  0  0  0  0  0  0  0
   42.1240   35.3530   41.4010 C   0  0  0  0  0  0  0  0  0  0  0  0
   41.2010   36.4700   41.0630 C   0  0  0  0  0  0  0  0  0  0  0  0
   39.9260   36.2270   41.6000 F   0  0  0  0  0  0  0  0  0  0  0  0
   41.7050   37.6890   41.5090 F   0  0  0  0  0  0  0  0  0  0  0  0
   40.9990   36.6090   39.7210 F   0  0  0  0  0  0  0  0  0  0  0  0
   37.4790   32.5408   38.1319 H   0  0  0  0  0  0  0  0  0  0  0  0
   37.6849   31.6817   36.5683 H   0  0  0  0  0  0  0  0  0  0  0  0
   35.0282   27.6177   39.8227 H   0  0  0  0  0  0  0  0  0  0  0  0
   34.5963   28.3046   37.4762 H   0  0  0  0  0  0  0  0  0  0  0  0
   38.8669   29.7088   43.9427 H   0  0  0  0  0  0  0  0  0  0  0  0
   37.6554   27.8239   45.0564 H   0  0  0  0  0  0  0  0  0  0  0  0
   35.9196   26.5638   43.7761 H   0  0  0  0  0  0  0  0  0  0  0  0
   39.3559   30.3577   38.4745 H   0  0  0  0  0  0  0  0  0  0  0  0
   39.8505   31.3701   37.0632 H   0  0  0  0  0  0  0  0  0  0  0  0
   44.8274   34.2232   42.9656 H   0  0  0  0  0  0  0  0  0  0  0  0
   43.4950   36.5497   42.6775 H   0  0  0  0  0  0  0  0  0  0  0  0
  1 14  1  0
  1  6  1  0
  2 12  1  0
  3  2  2  0
  4  3  1  0
  5  4  2  0
  5  6  1  0
  6  7  2  0
  7  2  1  0
  8  9  2  0
 10  9  1  0
 11 10  2  0
 12 11  1  0
 12 13  2  0
 13  8  1  0
 14 15  1  0
 15 16  2  0
 15 19  1  0
 16 17  1  0
 17 18  1  0
 18 20  1  0
 19 18  2  0
 20 24  1  0
 20 21  1  0
 21 22  2  0
 23 22  1  0
 24 23  2  0
 25 24  1  0
 25 27  1  0
 25 26  1  0
 28 25  1  0
  1 29  1  0
  1 30  1  0
  3 31  1  0
  4 32  1  0
  8 33  1  0
  9 34  1  0
 10 35  1  0
 14 36  1  0
 14 37  1  0
 22 38  1  0
 23 39  1  0
M  ISO  8  29   8  30   8  31  14  32  14  33  14  34  14  35  14  36   8
M  ISO  3  37   8  38  14  39  14
M  END
>  <minimizedAffinity>  (1) 
-6.52820444

>  <minimizedRMSD>  (1) 
1.00874376

$$$$
