
     RDKit          3D

 44 48  0  0  0  0  0  0  0  0999 V2000
   38.9860   31.7040   37.5430 C   0  0  0  0  0  0  0  0  0  0  0  0
   40.0380   32.2600   38.4170 C   0  0  0  0  0  0  0  0  0  0  0  0
   39.9370   32.9390   39.5570 N   0  0  0  0  0  0  0  0  0  0  0  0
   41.1290   33.2280   39.9780 O   0  0  0  0  0  0  0  0  0  0  0  0
   42.0360   32.7860   39.1940 C   0  0  0  0  0  0  0  0  0  0  0  0
   41.3550   32.1750   38.2070 N   0  0  0  0  0  0  0  0  0  0  0  0
   43.3840   33.0520   39.5640 N   0  0  0  0  0  0  0  0  0  0  0  0
   44.5100   32.4180   39.1600 N   0  0  0  0  0  0  0  0  0  0  0  0
   45.5880   32.9760   39.7290 C   0  0  0  0  0  0  0  0  0  0  0  0
   45.1050   33.9950   40.5160 C   0  0  0  0  0  0  0  0  0  0  0  0
   43.7130   34.0290   40.3990 C   0  0  0  0  0  0  0  0  0  0  0  0
   43.0020   35.0560   41.1530 C   0  0  0  0  0  0  0  0  0  0  0  0
   43.4640   35.5690   42.3410 C   0  0  0  0  0  0  0  0  0  0  0  0
   42.8660   36.5320   43.1150 C   0  0  0  0  0  0  0  0  0  0  0  0
   41.6920   37.0310   42.6560 N   0  0  0  0  0  0  0  0  0  0  0  0
   41.2000   36.5740   41.5180 C   0  0  0  0  0  0  0  0  0  0  0  0
   41.8550   35.6460   40.8500 N   0  0  0  0  0  0  0  0  0  0  0  0
   37.6100   32.0310   38.0700 C   0  0  0  0  0  0  0  0  0  0  0  0
   36.6130   29.2090   40.1670 C   0  0  0  0  0  0  0  0  0  0  0  0
   35.7590   28.4730   39.3800 C   0  0  0  0  0  0  0  0  0  0  0  0
   35.5270   28.9580   38.1110 C   0  0  0  0  0  0  0  0  0  0  0  0
   36.0810   30.0720   37.6390 N   0  0  0  0  0  0  0  0  0  0  0  0
   36.9130   30.7670   38.4440 C   0  0  0  0  0  0  0  0  0  0  0  0
   37.1660   30.3290   39.6870 N   0  0  0  0  0  0  0  0  0  0  0  0
   38.1310   29.0230   43.5190 C   0  0  0  0  0  0  0  0  0  0  0  0
   37.4650   27.9310   44.0660 C   0  0  0  0  0  0  0  0  0  0  0  0
   36.5120   27.2680   43.3000 C   0  0  0  0  0  0  0  0  0  0  0  0
   36.2560   27.6980   42.0510 N   0  0  0  0  0  0  0  0  0  0  0  0
   36.9240   28.7710   41.5420 C   0  0  0  0  0  0  0  0  0  0  0  0
   37.8620   29.4470   42.2520 N   0  0  0  0  0  0  0  0  0  0  0  0
   39.1010   30.6111   37.4935 H   0  0  0  0  0  0  0  0  0  0  0  0
   39.0915   32.1505   36.5432 H   0  0  0  0  0  0  0  0  0  0  0  0
   46.6390   32.6806   39.5945 H   0  0  0  0  0  0  0  0  0  0  0  0
   45.7134   34.6710   41.1348 H   0  0  0  0  0  0  0  0  0  0  0  0
   44.4169   35.1638   42.7122 H   0  0  0  0  0  0  0  0  0  0  0  0
   43.3151   36.8801   44.0569 H   0  0  0  0  0  0  0  0  0  0  0  0
   40.2483   36.9663   41.1302 H   0  0  0  0  0  0  0  0  0  0  0  0
   37.6996   32.6772   38.9556 H   0  0  0  0  0  0  0  0  0  0  0  0
   37.0327   32.5547   37.2938 H   0  0  0  0  0  0  0  0  0  0  0  0
   35.2870   27.5482   39.7431 H   0  0  0  0  0  0  0  0  0  0  0  0
   34.8482   28.3946   37.4538 H   0  0  0  0  0  0  0  0  0  0  0  0
   38.8864   29.5524   44.1183 H   0  0  0  0  0  0  0  0  0  0  0  0
   37.6889   27.5966   45.0898 H   0  0  0  0  0  0  0  0  0  0  0  0
   35.9733   26.4014   43.7109 H   0  0  0  0  0  0  0  0  0  0  0  0
  1 18  1  0
  1  2  1  0
  2  3  2  0
  3  4  1  0
  5  7  1  0
  5  4  1  0
  6  2  1  0
  6  5  2  0
  7 11  1  0
  8  7  1  0
  8  9  2  0
  9 10  1  0
 11 10  2  0
 11 12  1  0
 12 13  2  0
 13 14  1  0
 15 14  2  0
 16 15  1  0
 17 12  1  0
 17 16  2  0
 18 23  1  0
 19 29  1  0
 20 19  2  0
 21 20  1  0
 22 21  2  0
 22 23  1  0
 23 24  2  0
 24 19  1  0
 25 26  2  0
 27 26  1  0
 28 27  2  0
 29 28  1  0
 29 30  2  0
 30 25  1  0
  1 31  1  0
  1 32  1  0
  9 33  1  0
 10 34  1  0
 13 35  1  0
 14 36  1  0
 16 37  1  0
 18 38  1  0
 18 39  1  0
 20 40  1  0
 21 41  1  0
 25 42  1  0
 26 43  1  0
 27 44  1  0
M  ISO  8  31   8  32   8  33  14  34  14  35  14  36  14  37  14  38   8
M  ISO  6  39   8  40  14  41  14  42  14  43  14  44  14
M  END
>  <minimizedAffinity>  (1) 
-6.44942284

>  <minimizedRMSD>  (1) 
2.64942431

$$$$
