
     RDKit          3D

 43 47  0  0  0  0  0  0  0  0999 V2000
   38.9440   31.7230   37.5830 C   0  0  0  0  0  0  0  0  0  0  0  0
   39.9370   32.2920   38.5180 C   0  0  0  0  0  0  0  0  0  0  0  0
   39.7750   32.9960   39.6400 N   0  0  0  0  0  0  0  0  0  0  0  0
   40.9470   33.2740   40.1180 O   0  0  0  0  0  0  0  0  0  0  0  0
   41.8990   32.8100   39.3970 C   0  0  0  0  0  0  0  0  0  0  0  0
   41.2660   32.2010   38.4060 N   0  0  0  0  0  0  0  0  0  0  0  0
   43.2120   33.0750   39.8480 N   0  0  0  0  0  0  0  0  0  0  0  0
   44.3650   32.4060   39.5910 N   0  0  0  0  0  0  0  0  0  0  0  0
   45.3860   32.9660   40.2370 C   0  0  0  0  0  0  0  0  0  0  0  0
   44.8630   34.0400   40.9360 C   0  0  0  0  0  0  0  0  0  0  0  0
   43.4820   34.0900   40.6710 C   0  0  0  0  0  0  0  0  0  0  0  0
   42.8190   35.1970   41.3540 C   0  0  0  0  0  0  0  0  0  0  0  0
   43.1420   35.8520   42.5120 C   0  0  0  0  0  0  0  0  0  0  0  0
   42.2590   36.8490   42.8420 C   0  0  0  0  0  0  0  0  0  0  0  0
   41.3670   36.7600   41.8010 C   0  0  0  0  0  0  0  0  0  0  0  0
   41.7430   35.8090   41.0010 O   0  0  0  0  0  0  0  0  0  0  0  0
   37.5310   32.0280   38.0610 C   0  0  0  0  0  0  0  0  0  0  0  0
   36.5950   29.1920   40.1630 C   0  0  0  0  0  0  0  0  0  0  0  0
   35.7740   28.4230   39.3650 C   0  0  0  0  0  0  0  0  0  0  0  0
   35.5490   28.8890   38.1030 C   0  0  0  0  0  0  0  0  0  0  0  0
   36.0720   30.0210   37.6250 N   0  0  0  0  0  0  0  0  0  0  0  0
   36.8710   30.7430   38.4430 C   0  0  0  0  0  0  0  0  0  0  0  0
   37.1190   30.3260   39.6820 N   0  0  0  0  0  0  0  0  0  0  0  0
   38.1130   29.0360   43.5200 C   0  0  0  0  0  0  0  0  0  0  0  0
   37.4600   27.9370   44.0780 C   0  0  0  0  0  0  0  0  0  0  0  0
   36.5140   27.2630   43.3190 C   0  0  0  0  0  0  0  0  0  0  0  0
   36.2460   27.6910   42.0510 N   0  0  0  0  0  0  0  0  0  0  0  0
   36.9060   28.7640   41.5530 C   0  0  0  0  0  0  0  0  0  0  0  0
   37.8360   29.4500   42.2560 N   0  0  0  0  0  0  0  0  0  0  0  0
   39.0808   30.6329   37.5278 H   0  0  0  0  0  0  0  0  0  0  0  0
   39.0900   32.1724   36.5897 H   0  0  0  0  0  0  0  0  0  0  0  0
   46.4364   32.6398   40.2187 H   0  0  0  0  0  0  0  0  0  0  0  0
   45.4255   34.7300   41.5821 H   0  0  0  0  0  0  0  0  0  0  0  0
   44.0246   35.6029   43.1195 H   0  0  0  0  0  0  0  0  0  0  0  0
   42.2640   37.5324   43.7040 H   0  0  0  0  0  0  0  0  0  0  0  0
   40.4772   37.3927   41.6668 H   0  0  0  0  0  0  0  0  0  0  0  0
   37.5708   32.6979   38.9326 H   0  0  0  0  0  0  0  0  0  0  0  0
   36.9606   32.5206   37.2598 H   0  0  0  0  0  0  0  0  0  0  0  0
   35.3255   27.4858   39.7263 H   0  0  0  0  0  0  0  0  0  0  0  0
   34.8992   28.2982   37.4407 H   0  0  0  0  0  0  0  0  0  0  0  0
   38.8650   29.5767   44.1134 H   0  0  0  0  0  0  0  0  0  0  0  0
   37.6911   27.6101   45.1026 H   0  0  0  0  0  0  0  0  0  0  0  0
   35.9854   26.3926   43.7350 H   0  0  0  0  0  0  0  0  0  0  0  0
  1 17  1  0
  1  2  1  0
  2  3  2  0
  3  4  1  0
  5  7  1  0
  5  4  1  0
  6  2  1  0
  6  5  2  0
  7 11  1  0
  8  7  1  0
  8  9  2  0
  9 10  1  0
 11 10  2  0
 11 12  1  0
 12 13  2  0
 13 14  1  0
 15 14  2  0
 16 12  1  0
 16 15  1  0
 17 22  1  0
 18 28  1  0
 19 18  2  0
 20 19  1  0
 21 20  2  0
 21 22  1  0
 22 23  2  0
 23 18  1  0
 24 25  2  0
 26 25  1  0
 27 26  2  0
 28 27  1  0
 28 29  2  0
 29 24  1  0
  1 30  1  0
  1 31  1  0
  9 32  1  0
 10 33  1  0
 13 34  1  0
 14 35  1  0
 15 36  1  0
 17 37  1  0
 17 38  1  0
 19 39  1  0
 20 40  1  0
 24 41  1  0
 25 42  1  0
 26 43  1  0
M  ISO  8  30   8  31   8  32  14  33  14  34  14  35  14  36  14  37   8
M  ISO  6  38   8  39  14  40  14  41  14  42  14  43  14
M  END
>  <minimizedAffinity>  (1) 
-6.37628317

>  <minimizedRMSD>  (1) 
2.36097622

$$$$
