
     RDKit          3D

 42 46  0  0  0  0  0  0  0  0999 V2000
   37.5430   32.0030   38.0290 C   0  0  0  0  0  0  0  0  0  0  0  0
   36.6110   29.1870   40.1530 C   0  0  0  0  0  0  0  0  0  0  0  0
   35.7680   28.4160   39.3670 C   0  0  0  0  0  0  0  0  0  0  0  0
   35.5300   28.8850   38.1010 C   0  0  0  0  0  0  0  0  0  0  0  0
   36.0570   30.0050   37.6180 N   0  0  0  0  0  0  0  0  0  0  0  0
   36.8710   30.7250   38.4150 C   0  0  0  0  0  0  0  0  0  0  0  0
   37.1370   30.3120   39.6620 N   0  0  0  0  0  0  0  0  0  0  0  0
   38.1510   29.0340   43.4850 C   0  0  0  0  0  0  0  0  0  0  0  0
   37.4880   27.9500   44.0700 C   0  0  0  0  0  0  0  0  0  0  0  0
   36.5240   27.2890   43.3170 C   0  0  0  0  0  0  0  0  0  0  0  0
   36.2560   27.7020   42.0620 N   0  0  0  0  0  0  0  0  0  0  0  0
   36.9270   28.7580   41.5420 C   0  0  0  0  0  0  0  0  0  0  0  0
   37.8740   29.4380   42.2270 N   0  0  0  0  0  0  0  0  0  0  0  0
   38.9700   31.7190   37.6190 C   0  0  0  0  0  0  0  0  0  0  0  0
   39.9280   32.3310   38.5600 C   0  0  0  0  0  0  0  0  0  0  0  0
   39.7110   33.1080   39.6180 N   0  0  0  0  0  0  0  0  0  0  0  0
   40.8510   33.4160   40.1540 O   0  0  0  0  0  0  0  0  0  0  0  0
   41.8400   32.8800   39.5050 C   0  0  0  0  0  0  0  0  0  0  0  0
   41.2590   32.2060   38.5130 N   0  0  0  0  0  0  0  0  0  0  0  0
   43.1490   33.1510   40.0080 N   0  0  0  0  0  0  0  0  0  0  0  0
   44.2980   32.4700   39.8330 N   0  0  0  0  0  0  0  0  0  0  0  0
   45.2820   33.0890   40.5010 C   0  0  0  0  0  0  0  0  0  0  0  0
   44.7280   34.2040   41.1180 C   0  0  0  0  0  0  0  0  0  0  0  0
   43.3890   34.2170   40.7910 C   0  0  0  0  0  0  0  0  0  0  0  0
   42.5890   35.2760   41.3080 N   0  0  0  0  0  0  0  0  0  0  0  0
   41.4490   35.9050   40.9660 C   0  0  0  0  0  0  0  0  0  0  0  0
   41.2160   36.8560   41.9040 N   0  0  0  0  0  0  0  0  0  0  0  0
   42.1960   36.8040   42.7990 C   0  0  0  0  0  0  0  0  0  0  0  0
   43.0580   35.8250   42.4390 N   0  0  0  0  0  0  0  0  0  0  0  0
   37.0038   32.4607   37.1866 H   0  0  0  0  0  0  0  0  0  0  0  0
   37.5384   32.6927   38.8859 H   0  0  0  0  0  0  0  0  0  0  0  0
   35.3171   27.4835   39.7373 H   0  0  0  0  0  0  0  0  0  0  0  0
   34.8649   28.3009   37.4479 H   0  0  0  0  0  0  0  0  0  0  0  0
   38.9169   29.5704   44.0643 H   0  0  0  0  0  0  0  0  0  0  0  0
   37.7225   27.6298   45.0959 H   0  0  0  0  0  0  0  0  0  0  0  0
   35.9820   26.4322   43.7437 H   0  0  0  0  0  0  0  0  0  0  0  0
   39.1287   30.6306   37.6027 H   0  0  0  0  0  0  0  0  0  0  0  0
   39.1380   32.1507   36.6213 H   0  0  0  0  0  0  0  0  0  0  0  0
   46.3343   32.7724   40.5513 H   0  0  0  0  0  0  0  0  0  0  0  0
   45.2565   34.9358   41.7467 H   0  0  0  0  0  0  0  0  0  0  0  0
   40.8226   35.6877   40.0883 H   0  0  0  0  0  0  0  0  0  0  0  0
   42.2910   37.4491   43.6849 H   0  0  0  0  0  0  0  0  0  0  0  0
  1  6  1  0
  2 12  1  0
  3  2  2  0
  4  3  1  0
  5  4  2  0
  5  6  1  0
  6  7  2  0
  7  2  1  0
  8  9  2  0
 10  9  1  0
 11 10  2  0
 12 11  1  0
 12 13  2  0
 13  8  1  0
 14  1  1  0
 14 15  1  0
 15 16  2  0
 16 17  1  0
 18 20  1  0
 18 17  1  0
 19 15  1  0
 19 18  2  0
 20 24  1  0
 21 20  1  0
 21 22  2  0
 22 23  1  0
 24 23  2  0
 24 25  1  0
 25 29  1  0
 26 25  1  0
 26 27  2  0
 27 28  1  0
 29 28  2  0
  1 30  1  0
  1 31  1  0
  3 32  1  0
  4 33  1  0
  8 34  1  0
  9 35  1  0
 10 36  1  0
 14 37  1  0
 14 38  1  0
 22 39  1  0
 23 40  1  0
 26 41  1  0
 28 42  1  0
M  ISO  8  30   8  31   8  32  14  33  14  34  14  35  14  36  14  37   8
M  ISO  5  38   8  39  14  40  14  41  14  42  14
M  END
>  <minimizedAffinity>  (1) 
-6.31300831

>  <minimizedRMSD>  (1) 
2.21449995

$$$$
