
     RDKit          3D

 39 42  0  0  0  0  0  0  0  0999 V2000
   37.8890   31.8080   37.7870 C   0  0  0  0  0  0  0  0  0  0  0  0
   36.6380   29.2260   40.0400 C   0  0  0  0  0  0  0  0  0  0  0  0
   35.7080   28.5310   39.3010 C   0  0  0  0  0  0  0  0  0  0  0  0
   35.5160   28.9640   38.0140 C   0  0  0  0  0  0  0  0  0  0  0  0
   36.1680   29.9870   37.4760 N   0  0  0  0  0  0  0  0  0  0  0  0
   37.0720   30.6430   38.2330 C   0  0  0  0  0  0  0  0  0  0  0  0
   37.2940   30.2560   39.4990 N   0  0  0  0  0  0  0  0  0  0  0  0
   38.0920   29.1450   43.4320 C   0  0  0  0  0  0  0  0  0  0  0  0
   37.4100   28.0760   44.0120 C   0  0  0  0  0  0  0  0  0  0  0  0
   36.4660   27.3940   43.2540 C   0  0  0  0  0  0  0  0  0  0  0  0
   36.2310   27.7830   41.9730 N   0  0  0  0  0  0  0  0  0  0  0  0
   36.9160   28.8300   41.4430 C   0  0  0  0  0  0  0  0  0  0  0  0
   37.8440   29.5230   42.1440 N   0  0  0  0  0  0  0  0  0  0  0  0
   39.3350   31.5750   38.1360 C   0  0  0  0  0  0  0  0  0  0  0  0
   39.8350   32.6010   39.0710 C   0  0  0  0  0  0  0  0  0  0  0  0
   39.2100   33.6430   39.6150 N   0  0  0  0  0  0  0  0  0  0  0  0
   40.0410   34.2760   40.3840 O   0  0  0  0  0  0  0  0  0  0  0  0
   41.2130   33.7120   40.3890 C   0  0  0  0  0  0  0  0  0  0  0  0
   41.0750   32.6730   39.5720 N   0  0  0  0  0  0  0  0  0  0  0  0
   42.1960   34.3380   41.2050 N   0  0  0  0  0  0  0  0  0  0  0  0
   43.3180   33.8150   41.7400 N   0  0  0  0  0  0  0  0  0  0  0  0
   43.9600   34.7470   42.4550 C   0  0  0  0  0  0  0  0  0  0  0  0
   43.2050   35.9100   42.3650 C   0  0  0  0  0  0  0  0  0  0  0  0
   42.1030   35.6190   41.5730 C   0  0  0  0  0  0  0  0  0  0  0  0
   41.1130   36.7040   41.3060 C   0  0  0  0  0  0  0  0  0  0  0  0
   37.5331   32.7188   38.2908 H   0  0  0  0  0  0  0  0  0  0  0  0
   37.7910   31.9269   36.6979 H   0  0  0  0  0  0  0  0  0  0  0  0
   35.1516   27.6786   39.7180 H   0  0  0  0  0  0  0  0  0  0  0  0
   34.7798   28.4333   37.3924 H   0  0  0  0  0  0  0  0  0  0  0  0
   38.8419   29.6925   44.0218 H   0  0  0  0  0  0  0  0  0  0  0  0
   37.6155   27.7780   45.0507 H   0  0  0  0  0  0  0  0  0  0  0  0
   35.9138   26.5468   43.6868 H   0  0  0  0  0  0  0  0  0  0  0  0
   39.4351   30.5847   38.6043 H   0  0  0  0  0  0  0  0  0  0  0  0
   39.9278   31.6310   37.2111 H   0  0  0  0  0  0  0  0  0  0  0  0
   44.9027   34.6173   43.0069 H   0  0  0  0  0  0  0  0  0  0  0  0
   43.4368   36.8781   42.8329 H   0  0  0  0  0  0  0  0  0  0  0  0
   40.7448   37.1075   42.2608 H   0  0  0  0  0  0  0  0  0  0  0  0
   41.5958   37.5074   40.7302 H   0  0  0  0  0  0  0  0  0  0  0  0
   40.2689   36.2966   40.7302 H   0  0  0  0  0  0  0  0  0  0  0  0
  1 14  1  0
  1  6  1  0
  2 12  1  0
  3  2  2  0
  4  3  1  0
  5  4  2  0
  5  6  1  0
  6  7  2  0
  7  2  1  0
  8  9  2  0
 10  9  1  0
 11 10  2  0
 12 11  1  0
 12 13  2  0
 13  8  1  0
 14 15  1  0
 15 19  1  0
 15 16  2  0
 16 17  1  0
 17 18  1  0
 18 20  1  0
 19 18  2  0
 20 24  1  0
 20 21  1  0
 21 22  2  0
 23 22  1  0
 24 23  2  0
 25 24  1  0
  1 26  1  0
  1 27  1  0
  3 28  1  0
  4 29  1  0
  8 30  1  0
  9 31  1  0
 10 32  1  0
 14 33  1  0
 14 34  1  0
 22 35  1  0
 23 36  1  0
 25 37  1  0
 25 38  1  0
 25 39  1  0
M  ISO  8  26   8  27   8  28  14  29  14  30  14  31  14  32  14  33   8
M  ISO  6  34   8  35  14  36  14  37   8  38   8  39   8
M  END
>  <minimizedAffinity>  (1) 
-6.10368013

>  <minimizedRMSD>  (1) 
0.735094965

$$$$
