
     RDKit          3D

 48 51  0  0  0  0  0  0  0  0999 V2000
   37.8020   30.8500   37.3390 C   0  0  0  0  0  0  0  0  0  0  0  0
   36.3320   29.0550   40.1460 C   0  0  0  0  0  0  0  0  0  0  0  0
   35.1000   28.6420   39.6860 C   0  0  0  0  0  0  0  0  0  0  0  0
   34.7810   28.9890   38.3990 C   0  0  0  0  0  0  0  0  0  0  0  0
   35.5890   29.6850   37.6030 N   0  0  0  0  0  0  0  0  0  0  0  0
   36.7860   30.0710   38.0880 C   0  0  0  0  0  0  0  0  0  0  0  0
   37.1420   29.7570   39.3380 N   0  0  0  0  0  0  0  0  0  0  0  0
   38.1240   29.1570   43.3550 C   0  0  0  0  0  0  0  0  0  0  0  0
   37.5340   28.0950   44.0520 C   0  0  0  0  0  0  0  0  0  0  0  0
   36.5370   27.3590   43.4240 C   0  0  0  0  0  0  0  0  0  0  0  0
   36.1650   27.6930   42.1530 N   0  0  0  0  0  0  0  0  0  0  0  0
   36.7680   28.7300   41.5220 C   0  0  0  0  0  0  0  0  0  0  0  0
   37.7430   29.4690   42.1040 N   0  0  0  0  0  0  0  0  0  0  0  0
   39.1910   30.5230   37.8680 C   0  0  0  0  0  0  0  0  0  0  0  0
   39.6850   31.6170   38.7310 C   0  0  0  0  0  0  0  0  0  0  0  0
   39.0950   32.7360   39.1480 N   0  0  0  0  0  0  0  0  0  0  0  0
   39.9200   33.3850   39.8980 O   0  0  0  0  0  0  0  0  0  0  0  0
   41.0510   32.7720   40.0150 C   0  0  0  0  0  0  0  0  0  0  0  0
   40.8960   31.6760   39.2910 N   0  0  0  0  0  0  0  0  0  0  0  0
   42.0280   33.4330   40.8270 N   0  0  0  0  0  0  0  0  0  0  0  0
   43.0740   32.9160   41.4810 N   0  0  0  0  0  0  0  0  0  0  0  0
   43.7400   33.8490   42.1630 C   0  0  0  0  0  0  0  0  0  0  0  0
   43.0520   35.0190   41.9070 C   0  0  0  0  0  0  0  0  0  0  0  0
   41.9680   34.7670   41.0600 C   0  0  0  0  0  0  0  0  0  0  0  0
   41.0770   35.8790   40.6020 C   0  0  0  0  0  0  0  0  0  0  0  0
   41.0890   35.9300   39.0920 C   0  0  0  0  0  0  0  0  0  0  0  0
   39.6070   35.5370   40.9570 C   0  0  0  0  0  0  0  0  0  0  0  0
   41.3230   37.1890   41.2720 C   0  0  0  0  0  0  0  0  0  0  0  0
   37.6058   31.9248   37.4665 H   0  0  0  0  0  0  0  0  0  0  0  0
   37.7476   30.5888   36.2718 H   0  0  0  0  0  0  0  0  0  0  0  0
   34.4095   28.0646   40.3183 H   0  0  0  0  0  0  0  0  0  0  0  0
   33.8041   28.6752   38.0026 H   0  0  0  0  0  0  0  0  0  0  0  0
   38.9148   29.7475   43.8408 H   0  0  0  0  0  0  0  0  0  0  0  0
   37.8534   27.8488   45.0754 H   0  0  0  0  0  0  0  0  0  0  0  0
   36.0537   26.5185   43.9435 H   0  0  0  0  0  0  0  0  0  0  0  0
   39.1463   29.5923   38.4527 H   0  0  0  0  0  0  0  0  0  0  0  0
   39.8775   30.4024   37.0170 H   0  0  0  0  0  0  0  0  0  0  0  0
   44.6352   33.7165   42.7883 H   0  0  0  0  0  0  0  0  0  0  0  0
   43.3183   36.0068   42.3111 H   0  0  0  0  0  0  0  0  0  0  0  0
   41.3293   36.9513   38.7615 H   0  0  0  0  0  0  0  0  0  0  0  0
   41.8475   35.2322   38.7076 H   0  0  0  0  0  0  0  0  0  0  0  0
   40.0989   35.6436   38.7076 H   0  0  0  0  0  0  0  0  0  0  0  0
   39.4906   35.5099   42.0505 H   0  0  0  0  0  0  0  0  0  0  0  0
   38.9402   36.3040   40.5362 H   0  0  0  0  0  0  0  0  0  0  0  0
   39.3472   34.5544   40.5362 H   0  0  0  0  0  0  0  0  0  0  0  0
   41.2975   37.0532   42.3633 H   0  0  0  0  0  0  0  0  0  0  0  0
   42.3092   37.5741   40.9734 H   0  0  0  0  0  0  0  0  0  0  0  0
   40.5437   37.9056   40.9734 H   0  0  0  0  0  0  0  0  0  0  0  0
  1 14  1  0
  1  6  1  0
  2 12  1  0
  3  2  2  0
  4  3  1  0
  5  6  1  0
  5  4  2  0
  6  7  2  0
  7  2  1  0
  8  9  2  0
 10  9  1  0
 11 10  2  0
 12 13  2  0
 12 11  1  0
 13  8  1  0
 14 15  1  0
 15 16  2  0
 15 19  1  0
 16 17  1  0
 17 18  1  0
 18 20  1  0
 19 18  2  0
 20 24  1  0
 20 21  1  0
 21 22  2  0
 23 22  1  0
 24 23  2  0
 25 27  1  0
 25 24  1  0
 25 28  1  0
 26 25  1  0
  1 29  1  0
  1 30  1  0
  3 31  1  0
  4 32  1  0
  8 33  1  0
  9 34  1  0
 10 35  1  0
 14 36  1  0
 14 37  1  0
 22 38  1  0
 23 39  1  0
 26 40  1  0
 26 41  1  0
 26 42  1  0
 27 43  1  0
 27 44  1  0
 27 45  1  0
 28 46  1  0
 28 47  1  0
 28 48  1  0
M  ISO  8  29   8  30   8  31  14  32  14  33  14  34  14  35  14  36   8
M  ISO  8  37   8  38  14  39  14  40   8  41   8  42   8  43   8  44   8
M  ISO  4  45   8  46   8  47   8  48   8
M  END
>  <minimizedAffinity>  (1) 
-6.02570963

>  <minimizedRMSD>  (1) 
1.44358182

$$$$
