
     RDKit          3D

 41 45  0  0  0  0  0  0  0  0999 V2000
   38.8870   30.0900   37.6420 C   0  0  0  0  0  0  0  0  0  0  0  0
   39.4960   31.1150   38.5140 C   0  0  0  0  0  0  0  0  0  0  0  0
   39.1020   32.3590   38.7770 N   0  0  0  0  0  0  0  0  0  0  0  0
   39.9450   32.8980   39.6020 O   0  0  0  0  0  0  0  0  0  0  0  0
   40.8940   32.0810   39.9140 C   0  0  0  0  0  0  0  0  0  0  0  0
   40.6170   30.9610   39.2340 N   0  0  0  0  0  0  0  0  0  0  0  0
   41.8850   32.5650   40.8190 N   0  0  0  0  0  0  0  0  0  0  0  0
   42.7300   31.9110   41.6140 N   0  0  0  0  0  0  0  0  0  0  0  0
   43.5000   32.7670   42.3080 C   0  0  0  0  0  0  0  0  0  0  0  0
   43.1010   34.0370   41.9110 C   0  0  0  0  0  0  0  0  0  0  0  0
   42.0930   33.8790   40.9820 C   0  0  0  0  0  0  0  0  0  0  0  0
   41.5010   35.0900   40.4080 C   0  0  0  0  0  0  0  0  0  0  0  0
   41.4320   35.6410   39.1900 N   0  0  0  0  0  0  0  0  0  0  0  0
   40.7600   36.7610   39.2610 O   0  0  0  0  0  0  0  0  0  0  0  0
   40.3790   36.9740   40.4980 C   0  0  0  0  0  0  0  0  0  0  0  0
   40.8380   35.9310   41.2270 N   0  0  0  0  0  0  0  0  0  0  0  0
   37.5050   30.5030   37.1990 C   0  0  0  0  0  0  0  0  0  0  0  0
   36.1240   29.0060   40.2350 C   0  0  0  0  0  0  0  0  0  0  0  0
   34.8270   28.6850   39.9090 C   0  0  0  0  0  0  0  0  0  0  0  0
   34.4330   28.9880   38.6410 C   0  0  0  0  0  0  0  0  0  0  0  0
   35.2290   29.5640   37.7330 N   0  0  0  0  0  0  0  0  0  0  0  0
   36.4920   29.8620   38.0870 C   0  0  0  0  0  0  0  0  0  0  0  0
   36.9220   29.5840   39.3200 N   0  0  0  0  0  0  0  0  0  0  0  0
   38.1210   29.2170   43.3270 C   0  0  0  0  0  0  0  0  0  0  0  0
   37.5940   28.1660   44.0760 C   0  0  0  0  0  0  0  0  0  0  0  0
   36.5650   27.3890   43.5320 C   0  0  0  0  0  0  0  0  0  0  0  0
   36.1090   27.6850   42.2840 N   0  0  0  0  0  0  0  0  0  0  0  0
   36.6540   28.7170   41.5960 C   0  0  0  0  0  0  0  0  0  0  0  0
   37.6540   29.4900   42.0940 N   0  0  0  0  0  0  0  0  0  0  0  0
   39.5218   29.9506   36.7545 H   0  0  0  0  0  0  0  0  0  0  0  0
   38.8051   29.1521   38.2109 H   0  0  0  0  0  0  0  0  0  0  0  0
   44.2830   32.5144   43.0382 H   0  0  0  0  0  0  0  0  0  0  0  0
   43.5124   34.9917   42.2706 H   0  0  0  0  0  0  0  0  0  0  0  0
   39.7999   37.8323   40.8696 H   0  0  0  0  0  0  0  0  0  0  0  0
   37.4101   31.5970   37.2627 H   0  0  0  0  0  0  0  0  0  0  0  0
   37.3397   30.1833   36.1596 H   0  0  0  0  0  0  0  0  0  0  0  0
   34.1465   28.2105   40.6314 H   0  0  0  0  0  0  0  0  0  0  0  0
   33.4013   28.7453   38.3466 H   0  0  0  0  0  0  0  0  0  0  0  0
   38.9296   29.8318   43.7492 H   0  0  0  0  0  0  0  0  0  0  0  0
   37.9822   27.9501   45.0823 H   0  0  0  0  0  0  0  0  0  0  0  0
   36.1324   26.5540   44.1027 H   0  0  0  0  0  0  0  0  0  0  0  0
  1  2  1  0
  2  3  2  0
  2  6  1  0
  3  4  1  0
  4  5  1  0
  5  7  1  0
  6  5  2  0
  7 11  1  0
  7  8  1  0
  8  9  2  0
 10  9  1  0
 11 10  2  0
 12 11  1  0
 12 16  1  0
 13 14  1  0
 13 12  2  0
 14 15  1  0
 15 16  2  0
 17  1  1  0
 17 22  1  0
 18 28  1  0
 19 18  2  0
 20 19  1  0
 21 22  1  0
 21 20  2  0
 22 23  2  0
 23 18  1  0
 24 25  2  0
 26 25  1  0
 27 26  2  0
 28 29  2  0
 28 27  1  0
 29 24  1  0
  1 30  1  0
  1 31  1  0
  9 32  1  0
 10 33  1  0
 15 34  1  0
 17 35  1  0
 17 36  1  0
 19 37  1  0
 20 38  1  0
 24 39  1  0
 25 40  1  0
 26 41  1  0
M  ISO  8  30   8  31   8  32  14  33  14  34  14  35   8  36   8  37  14
M  ISO  4  38  14  39  14  40  14  41  14
M  END
>  <minimizedAffinity>  (1) 
-5.99699211

>  <minimizedRMSD>  (1) 
2.07381248

$$$$
