
     RDKit          3D

 52 56  0  0  0  0  0  0  0  0999 V2000
   37.4330   30.8420   37.6130 C   0  0  0  0  0  0  0  0  0  0  0  0
   38.5730   31.5060   38.2740 C   0  0  0  0  0  0  0  0  0  0  0  0
   38.6270   32.1980   39.4100 N   0  0  0  0  0  0  0  0  0  0  0  0
   39.8460   32.5960   39.6000 O   0  0  0  0  0  0  0  0  0  0  0  0
   40.6260   32.2120   38.6500 C   0  0  0  0  0  0  0  0  0  0  0  0
   39.8350   31.5300   37.8190 N   0  0  0  0  0  0  0  0  0  0  0  0
   41.9940   32.5970   38.7590 N   0  0  0  0  0  0  0  0  0  0  0  0
   43.0930   32.0460   38.2060 N   0  0  0  0  0  0  0  0  0  0  0  0
   44.1740   32.7310   38.5960 C   0  0  0  0  0  0  0  0  0  0  0  0
   43.7390   33.7540   39.4270 C   0  0  0  0  0  0  0  0  0  0  0  0
   42.3680   33.6460   39.5090 C   0  0  0  0  0  0  0  0  0  0  0  0
   41.6850   34.6600   40.3530 C   0  0  0  0  0  0  0  0  0  0  0  0
   42.7600   35.3430   41.1800 C   0  0  0  0  0  0  0  0  0  0  0  0
   42.1660   36.2840   42.1990 C   0  0  0  0  0  0  0  0  0  0  0  0
   40.7400   36.6360   41.8100 C   0  0  0  0  0  0  0  0  0  0  0  0
   40.7490   36.9530   40.3360 C   0  0  0  0  0  0  0  0  0  0  0  0
   41.0670   35.7620   39.4810 C   0  0  0  0  0  0  0  0  0  0  0  0
   36.3690   30.4590   38.6250 C   0  0  0  0  0  0  0  0  0  0  0  0
   37.3190   27.3670   40.3110 C   0  0  0  0  0  0  0  0  0  0  0  0
   36.7290   26.3620   39.5650 C   0  0  0  0  0  0  0  0  0  0  0  0
   36.0020   26.7680   38.4780 C   0  0  0  0  0  0  0  0  0  0  0  0
   35.8500   28.0410   38.1280 N   0  0  0  0  0  0  0  0  0  0  0  0
   36.4400   28.9970   38.8760 C   0  0  0  0  0  0  0  0  0  0  0  0
   37.1600   28.6390   39.9500 N   0  0  0  0  0  0  0  0  0  0  0  0
   39.1910   27.6800   43.4640 C   0  0  0  0  0  0  0  0  0  0  0  0
   39.6100   26.3650   43.6900 C   0  0  0  0  0  0  0  0  0  0  0  0
   39.2520   25.3850   42.7670 C   0  0  0  0  0  0  0  0  0  0  0  0
   38.5060   25.7380   41.6770 N   0  0  0  0  0  0  0  0  0  0  0  0
   38.1270   27.0250   41.5070 C   0  0  0  0  0  0  0  0  0  0  0  0
   38.4580   28.0070   42.3840 N   0  0  0  0  0  0  0  0  0  0  0  0
   36.9959   31.5286   36.8730 H   0  0  0  0  0  0  0  0  0  0  0  0
   37.7958   29.9275   37.1210 H   0  0  0  0  0  0  0  0  0  0  0  0
   45.2156   32.5220   38.3106 H   0  0  0  0  0  0  0  0  0  0  0  0
   44.3682   34.5066   39.9247 H   0  0  0  0  0  0  0  0  0  0  0  0
   40.9071   34.1668   40.9544 H   0  0  0  0  0  0  0  0  0  0  0  0
   43.3484   34.5753   41.7039 H   0  0  0  0  0  0  0  0  0  0  0  0
   43.3948   35.9300   40.5000 H   0  0  0  0  0  0  0  0  0  0  0  0
   42.1654   35.7990   43.1863 H   0  0  0  0  0  0  0  0  0  0  0  0
   42.7683   37.2037   42.2363 H   0  0  0  0  0  0  0  0  0  0  0  0
   40.0732   35.7840   42.0088 H   0  0  0  0  0  0  0  0  0  0  0  0
   40.3752   37.4943   42.3932 H   0  0  0  0  0  0  0  0  0  0  0  0
   39.7559   37.3321   40.0532 H   0  0  0  0  0  0  0  0  0  0  0  0
   41.5383   37.7000   40.1654 H   0  0  0  0  0  0  0  0  0  0  0  0
   40.1436   35.3872   39.0154 H   0  0  0  0  0  0  0  0  0  0  0  0
   41.7801   36.0529   38.6956 H   0  0  0  0  0  0  0  0  0  0  0  0
   36.5424   31.0029   39.5653 H   0  0  0  0  0  0  0  0  0  0  0  0
   35.3746   30.7196   38.2335 H   0  0  0  0  0  0  0  0  0  0  0  0
   36.8376   25.2998   39.8295 H   0  0  0  0  0  0  0  0  0  0  0  0
   35.5169   25.9978   37.8603 H   0  0  0  0  0  0  0  0  0  0  0  0
   39.4666   28.4640   44.1847 H   0  0  0  0  0  0  0  0  0  0  0  0
   40.2089   26.1102   44.5768 H   0  0  0  0  0  0  0  0  0  0  0  0
   39.5654   24.3408   42.9132 H   0  0  0  0  0  0  0  0  0  0  0  0
  1  2  1  0
  1 18  1  0
  2  3  2  0
  3  4  1  0
  5  7  1  0
  5  4  1  0
  6  2  1  0
  6  5  2  0
  7 11  1  0
  8  9  2  0
  8  7  1  0
  9 10  1  0
 10 11  2  0
 11 12  1  0
 12 13  1  0
 13 14  1  0
 15 14  1  0
 16 15  1  0
 17 16  1  0
 17 12  1  0
 18 23  1  0
 19 29  1  0
 20 19  2  0
 21 20  1  0
 22 21  2  0
 22 23  1  0
 23 24  2  0
 24 19  1  0
 25 26  2  0
 27 26  1  0
 28 27  2  0
 29 28  1  0
 29 30  2  0
 30 25  1  0
  1 31  1  0
  1 32  1  0
  9 33  1  0
 10 34  1  0
 12 35  1  0
 13 36  1  0
 13 37  1  0
 14 38  1  0
 14 39  1  0
 15 40  1  0
 15 41  1  0
 16 42  1  0
 16 43  1  0
 17 44  1  0
 17 45  1  0
 18 46  1  0
 18 47  1  0
 20 48  1  0
 21 49  1  0
 25 50  1  0
 26 51  1  0
 27 52  1  0
M  ISO  8  31   8  32   8  33  14  34  14  35  13  36  13  37  13  38  13
M  ISO  8  39  13  40  13  41  13  42  13  43  13  44  13  45  13  46   8
M  ISO  6  47   8  48  14  49  14  50  14  51  14  52  14
M  END
>  <minimizedAffinity>  (1) 
-5.91380835

>  <minimizedRMSD>  (1) 
2.99308157

$$$$
