
     RDKit          3D

 48 52  0  0  0  0  0  0  0  0999 V2000
   38.7660   29.3660   37.5270 C   0  0  0  0  0  0  0  0  0  0  0  0
   39.2840   30.4690   38.3590 C   0  0  0  0  0  0  0  0  0  0  0  0
   38.8120   31.6780   38.5660 N   0  0  0  0  0  0  0  0  0  0  0  0
   39.5940   32.3220   39.3790 O   0  0  0  0  0  0  0  0  0  0  0  0
   40.6030   31.5700   39.7380 C   0  0  0  0  0  0  0  0  0  0  0  0
   40.4080   30.4220   39.1040 N   0  0  0  0  0  0  0  0  0  0  0  0
   41.5310   32.1640   40.6280 N   0  0  0  0  0  0  0  0  0  0  0  0
   42.4000   31.6220   41.4800 N   0  0  0  0  0  0  0  0  0  0  0  0
   43.0820   32.5600   42.1530 C   0  0  0  0  0  0  0  0  0  0  0  0
   42.6070   33.7800   41.6870 C   0  0  0  0  0  0  0  0  0  0  0  0
   41.6510   33.4890   40.7460 C   0  0  0  0  0  0  0  0  0  0  0  0
   41.0390   34.6340   40.1060 N   0  0  0  0  0  0  0  0  0  0  0  0
   39.8190   35.2120   40.6940 C   0  0  0  0  0  0  0  0  0  0  0  0
   40.2320   36.6540   40.8560 C   0  0  0  0  0  0  0  0  0  0  0  0
   41.0700   36.8890   39.5910 C   0  0  0  0  0  0  0  0  0  0  0  0
   41.2330   35.5090   38.9560 C   0  0  0  0  0  0  0  0  0  0  0  0
   37.3990   29.7180   36.9590 C   0  0  0  0  0  0  0  0  0  0  0  0
   36.0140   28.9000   40.2230 C   0  0  0  0  0  0  0  0  0  0  0  0
   34.6470   28.8450   40.0290 C   0  0  0  0  0  0  0  0  0  0  0  0
   34.2170   29.0950   38.7530 C   0  0  0  0  0  0  0  0  0  0  0  0
   35.0330   29.3770   37.7370 N   0  0  0  0  0  0  0  0  0  0  0  0
   36.3530   29.4210   37.9680 C   0  0  0  0  0  0  0  0  0  0  0  0
   36.8210   29.1830   39.2010 N   0  0  0  0  0  0  0  0  0  0  0  0
   38.1160   29.1660   43.2500 C   0  0  0  0  0  0  0  0  0  0  0  0
   37.5960   28.1430   44.0400 C   0  0  0  0  0  0  0  0  0  0  0  0
   36.5490   27.3770   43.5530 C   0  0  0  0  0  0  0  0  0  0  0  0
   36.0580   27.6420   42.3210 N   0  0  0  0  0  0  0  0  0  0  0  0
   36.5820   28.6410   41.5760 C   0  0  0  0  0  0  0  0  0  0  0  0
   37.6050   29.4150   42.0110 N   0  0  0  0  0  0  0  0  0  0  0  0
   39.4647   29.1800   36.6980 H   0  0  0  0  0  0  0  0  0  0  0  0
   38.6685   28.4664   38.1525 H   0  0  0  0  0  0  0  0  0  0  0  0
   43.8573   32.3974   42.9162 H   0  0  0  0  0  0  0  0  0  0  0  0
   42.9325   34.7804   42.0084 H   0  0  0  0  0  0  0  0  0  0  0  0
   38.9579   35.1122   40.0168 H   0  0  0  0  0  0  0  0  0  0  0  0
   39.4912   34.7271   41.6253 H   0  0  0  0  0  0  0  0  0  0  0  0
   39.3568   37.3197   40.8852 H   0  0  0  0  0  0  0  0  0  0  0  0
   40.7735   36.8583   41.7915 H   0  0  0  0  0  0  0  0  0  0  0  0
   40.5478   37.5706   38.9035 H   0  0  0  0  0  0  0  0  0  0  0  0
   42.0405   37.3527   39.8212 H   0  0  0  0  0  0  0  0  0  0  0  0
   40.4716   35.3304   38.1824 H   0  0  0  0  0  0  0  0  0  0  0  0
   42.1933   35.3640   38.4396 H   0  0  0  0  0  0  0  0  0  0  0  0
   37.3714   30.7882   36.7063 H   0  0  0  0  0  0  0  0  0  0  0  0
   37.2140   29.1225   36.0528 H   0  0  0  0  0  0  0  0  0  0  0  0
   33.9487   28.6151   40.8472 H   0  0  0  0  0  0  0  0  0  0  0  0
   33.1355   29.0612   38.5548 H   0  0  0  0  0  0  0  0  0  0  0  0
   38.9469   29.7787   43.6297 H   0  0  0  0  0  0  0  0  0  0  0  0
   38.0119   27.9456   45.0390 H   0  0  0  0  0  0  0  0  0  0  0  0
   36.1231   26.5646   44.1601 H   0  0  0  0  0  0  0  0  0  0  0  0
  1  2  1  0
  2  3  2  0
  2  6  1  0
  3  4  1  0
  4  5  1  0
  5  7  1  0
  6  5  2  0
  7 11  1  0
  7  8  1  0
  8  9  2  0
 10  9  1  0
 11 10  2  0
 12 13  1  0
 12 11  1  0
 13 14  1  0
 15 14  1  0
 16 15  1  0
 16 12  1  0
 17  1  1  0
 17 22  1  0
 18 28  1  0
 19 18  2  0
 20 19  1  0
 21 22  1  0
 21 20  2  0
 22 23  2  0
 23 18  1  0
 24 25  2  0
 26 25  1  0
 27 26  2  0
 28 29  2  0
 28 27  1  0
 29 24  1  0
  1 30  1  0
  1 31  1  0
  9 32  1  0
 10 33  1  0
 13 34  1  0
 13 35  1  0
 14 36  1  0
 14 37  1  0
 15 38  1  0
 15 39  1  0
 16 40  1  0
 16 41  1  0
 17 42  1  0
 17 43  1  0
 19 44  1  0
 20 45  1  0
 24 46  1  0
 25 47  1  0
 26 48  1  0
M  ISO  8  30   8  31   8  32  14  33  14  34  13  35  13  36  13  37  13
M  ISO  8  38  13  39  13  40  13  41  13  42   8  43   8  44  14  45  14
M  ISO  3  46  14  47  14  48  14
M  END
>  <minimizedAffinity>  (1) 
-5.59434509

>  <minimizedRMSD>  (1) 
2.36480093

$$$$
