
     RDKit          3D

 26 27  0  0  0  0  0  0  0  0999 V2000
   38.1520   28.9630   43.4920 C   0  0  0  0  0  0  0  0  0  0  0  0
   37.3410   27.8240   43.6610 C   0  0  0  0  0  0  0  0  0  0  0  0
   36.3830   27.5360   42.6840 C   0  0  0  0  0  0  0  0  0  0  0  0
   36.2940   28.3860   41.6160 N   0  0  0  0  0  0  0  0  0  0  0  0
   37.0920   29.4770   41.4830 C   0  0  0  0  0  0  0  0  0  0  0  0
   38.0080   29.7520   42.4180 N   0  0  0  0  0  0  0  0  0  0  0  0
   36.9790   30.3840   40.3160 C   0  0  0  0  0  0  0  0  0  0  0  0
   37.6600   31.7160   40.5720 C   0  0  0  0  0  0  0  0  0  0  0  0
   37.1680   32.6590   39.5120 C   0  0  0  0  0  0  0  0  0  0  0  0
   37.3790   32.1550   38.1210 C   0  0  0  0  0  0  0  0  0  0  0  0
   37.1680   30.6960   37.9130 C   0  0  0  0  0  0  0  0  0  0  0  0
   37.6120   29.8250   39.0600 C   0  0  0  0  0  0  0  0  0  0  0  0
   38.9115   29.2076   44.2492 H   0  0  0  0  0  0  0  0  0  0  0  0
   37.4586   27.1756   44.5417 H   0  0  0  0  0  0  0  0  0  0  0  0
   35.7254   26.6585   42.7710 H   0  0  0  0  0  0  0  0  0  0  0  0
   35.8951   30.5030   40.1711 H   0  0  0  0  0  0  0  0  0  0  0  0
   37.3926   32.0936   41.5700 H   0  0  0  0  0  0  0  0  0  0  0  0
   38.7548   31.6155   40.5369 H   0  0  0  0  0  0  0  0  0  0  0  0
   36.0907   32.8218   39.6636 H   0  0  0  0  0  0  0  0  0  0  0  0
   37.7484   33.5882   39.6109 H   0  0  0  0  0  0  0  0  0  0  0  0
   36.6834   32.6926   37.4598 H   0  0  0  0  0  0  0  0  0  0  0  0
   38.4417   32.3338   37.9004 H   0  0  0  0  0  0  0  0  0  0  0  0
   36.0938   30.5252   37.7491 H   0  0  0  0  0  0  0  0  0  0  0  0
   37.7883   30.4126   37.0499 H   0  0  0  0  0  0  0  0  0  0  0  0
   37.2782   28.7894   38.8983 H   0  0  0  0  0  0  0  0  0  0  0  0
   38.7087   29.8187   39.1444 H   0  0  0  0  0  0  0  0  0  0  0  0
  1  2  2  0
  3  2  1  0
  4  3  2  0
  5  4  1  0
  5  6  2  0
  6  1  1  0
  7  8  1  0
  7  5  1  0
  9  8  1  0
 10  9  1  0
 11 10  1  0
 11 12  1  0
 12  7  1  0
  1 13  1  0
  2 14  1  0
  3 15  1  0
  7 16  1  0
  8 17  1  0
  8 18  1  0
  9 19  1  0
  9 20  1  0
 10 21  1  0
 10 22  1  0
 11 23  1  0
 11 24  1  0
 12 25  1  0
 12 26  1  0
M  ISO  8  13  14  14  14  15  14  16  13  17  13  18  13  19  13  20  13
M  ISO  6  21  13  22  13  23  13  24  13  25  13  26  13
M  END
>  <minimizedAffinity>  (1) 
-4.01044273

>  <minimizedRMSD>  (1) 
0.883669853

$$$$
