
     RDKit          3D

 42 45  0  0  1  0  0  0  0  0999 V2000
   36.9750   30.4090   40.4050 C   0  0  1  0  0  0  0  0  0  0  0  0
   37.5540   31.7620   40.7240 C   0  0  0  0  0  0  0  0  0  0  0  0
   37.1190   32.7130   39.6750 C   0  0  0  0  0  0  0  0  0  0  0  0
   37.4060   32.2660   38.2780 C   0  0  0  0  0  0  0  0  0  0  0  0
   37.2310   30.8200   38.0240 C   0  0  0  0  0  0  0  0  0  0  0  0
   37.7030   29.9240   39.1400 C   0  0  2  0  0  0  0  0  0  0  0  0
   37.4410   28.5290   38.8070 C   0  0  0  0  0  0  0  0  0  0  0  0
   38.4520   27.6010   39.0790 C   0  0  0  0  0  0  0  0  0  0  0  0
   38.3120   26.2540   38.8270 C   0  0  0  0  0  0  0  0  0  0  0  0
   37.1490   25.7530   38.2830 C   0  0  0  0  0  0  0  0  0  0  0  0
   36.1250   26.6260   37.9970 C   0  0  0  0  0  0  0  0  0  0  0  0
   34.9120   26.2010   37.4490 C   0  0  0  0  0  0  0  0  0  0  0  0
   33.8690   27.0700   37.1580 C   0  0  0  0  0  0  0  0  0  0  0  0
   34.0800   28.4250   37.4410 C   0  0  0  0  0  0  0  0  0  0  0  0
   35.2770   28.8270   37.9800 C   0  0  0  0  0  0  0  0  0  0  0  0
   36.3100   27.9630   38.2670 C   0  0  0  0  0  0  0  0  0  0  0  0
   38.4440   28.7450   43.3460 C   0  0  0  0  0  0  0  0  0  0  0  0
   37.4900   27.7530   43.6620 C   0  0  0  0  0  0  0  0  0  0  0  0
   36.3410   27.6480   42.8510 C   0  0  0  0  0  0  0  0  0  0  0  0
   36.2140   28.5170   41.7980 N   0  0  0  0  0  0  0  0  0  0  0  0
   37.1570   29.4530   41.5370 C   0  0  0  0  0  0  0  0  0  0  0  0
   38.2630   29.5670   42.3020 N   0  0  0  0  0  0  0  0  0  0  0  0
   35.8891   30.4725   40.2414 H   0  0  0  0  0  0  0  0  0  0  0  0
   37.1911   32.0998   41.7059 H   0  0  0  0  0  0  0  0  0  0  0  0
   38.6522   31.7069   40.7538 H   0  0  0  0  0  0  0  0  0  0  0  0
   36.0333   32.8599   39.7729 H   0  0  0  0  0  0  0  0  0  0  0  0
   37.6932   33.6379   39.8325 H   0  0  0  0  0  0  0  0  0  0  0  0
   36.7322   32.8129   37.6020 H   0  0  0  0  0  0  0  0  0  0  0  0
   38.4721   32.4760   38.1066 H   0  0  0  0  0  0  0  0  0  0  0  0
   36.1605   30.6279   37.8596 H   0  0  0  0  0  0  0  0  0  0  0  0
   37.8525   30.5804   37.1486 H   0  0  0  0  0  0  0  0  0  0  0  0
   38.7893   29.9768   39.3046 H   0  0  0  0  0  0  0  0  0  0  0  0
   39.3969   27.9616   39.5116 H   0  0  0  0  0  0  0  0  0  0  0  0
   39.1396   25.5690   39.0631 H   0  0  0  0  0  0  0  0  0  0  0  0
   37.0417   24.6769   38.0816 H   0  0  0  0  0  0  0  0  0  0  0  0
   34.7773   25.1297   37.2387 H   0  0  0  0  0  0  0  0  0  0  0  0
   32.9230   26.7115   36.7262 H   0  0  0  0  0  0  0  0  0  0  0  0
   33.2914   29.1630   37.2327 H   0  0  0  0  0  0  0  0  0  0  0  0
   35.4184   29.8967   38.1941 H   0  0  0  0  0  0  0  0  0  0  0  0
   39.3480   28.8449   43.9647 H   0  0  0  0  0  0  0  0  0  0  0  0
   37.6392   27.0794   44.5188 H   0  0  0  0  0  0  0  0  0  0  0  0
   35.5696   26.8914   43.0571 H   0  0  0  0  0  0  0  0  0  0  0  0
  1  2  1  0
  1 21  1  0
  3  2  1  0
  4  3  1  0
  5  4  1  0
  5  6  1  0
  6  1  1  0
  7  8  2  0
  7  6  1  0
  9  8  1  0
 10  9  2  0
 11 16  2  0
 11 10  1  0
 12 11  1  0
 13 14  1  0
 13 12  2  0
 14 15  2  0
 15 16  1  0
 16  7  1  0
 17 18  2  0
 19 18  1  0
 20 19  2  0
 21 20  1  0
 21 22  2  0
 22 17  1  0
  1 23  1  6
  2 24  1  0
  2 25  1  0
  3 26  1  0
  3 27  1  0
  4 28  1  0
  4 29  1  0
  5 30  1  0
  5 31  1  0
  6 32  1  1
  8 33  1  0
  9 34  1  0
 10 35  1  0
 12 36  1  0
 13 37  1  0
 14 38  1  0
 15 39  1  0
 17 40  1  0
 18 41  1  0
 19 42  1  0
M  ISO  8  23  13  24  13  25  13  26  13  27  13  28  13  29  13  30  13
M  ISO  8  31  13  32  13  33  14  34  14  35  14  36  14  37  14  38  14
M  ISO  4  39  14  40  14  41  14  42  14
M  END
>  <minimizedAffinity>  (1) 
-5.55063152

>  <minimizedRMSD>  (1) 
0.357068062

$$$$
