
     RDKit          3D

 40 43  0  0  1  0  0  0  0  0999 V2000
   37.0380   30.2550   40.2300 C   0  0  1  0  0  0  0  0  0  0  0  0
   37.4400   31.6750   40.5130 C   0  0  0  0  0  0  0  0  0  0  0  0
   37.0400   32.5100   39.3510 C   0  0  0  0  0  0  0  0  0  0  0  0
   37.6070   32.0280   38.0580 C   0  0  0  0  0  0  0  0  0  0  0  0
   37.5900   30.5570   37.8780 C   0  0  0  0  0  0  0  0  0  0  0  0
   37.9430   29.7440   39.1050 C   0  0  2  0  0  0  0  0  0  0  0  0
   37.4940   28.3860   38.7420 C   0  0  0  0  0  0  0  0  0  0  0  0
   38.2400   27.2810   38.9170 N   0  0  0  0  0  0  0  0  0  0  0  0
   37.8340   26.0390   38.5970 C   0  0  0  0  0  0  0  0  0  0  0  0
   36.6170   25.7920   38.0630 N   0  0  0  0  0  0  0  0  0  0  0  0
   35.7940   26.8540   37.8510 C   0  0  0  0  0  0  0  0  0  0  0  0
   34.5500   26.6350   37.3110 C   0  0  0  0  0  0  0  0  0  0  0  0
   33.6880   27.6840   37.0840 C   0  0  0  0  0  0  0  0  0  0  0  0
   34.1050   28.9740   37.4140 C   0  0  0  0  0  0  0  0  0  0  0  0
   35.3650   29.1220   37.9520 C   0  0  0  0  0  0  0  0  0  0  0  0
   36.2580   28.1070   38.1960 C   0  0  0  0  0  0  0  0  0  0  0  0
   38.2720   28.9180   43.4340 C   0  0  0  0  0  0  0  0  0  0  0  0
   37.3340   27.8850   43.7080 C   0  0  0  0  0  0  0  0  0  0  0  0
   36.2840   27.6380   42.7990 C   0  0  0  0  0  0  0  0  0  0  0  0
   36.2440   28.4260   41.6990 N   0  0  0  0  0  0  0  0  0  0  0  0
   37.1440   29.4040   41.4510 C   0  0  0  0  0  0  0  0  0  0  0  0
   38.1500   29.6470   42.3150 N   0  0  0  0  0  0  0  0  0  0  0  0
   35.9833   30.2085   39.9212 H   0  0  0  0  0  0  0  0  0  0  0  0
   36.9319   32.0321   41.4209 H   0  0  0  0  0  0  0  0  0  0  0  0
   38.5268   31.7384   40.6709 H   0  0  0  0  0  0  0  0  0  0  0  0
   35.9426   32.5021   39.2761 H   0  0  0  0  0  0  0  0  0  0  0  0
   37.4351   33.5219   39.5242 H   0  0  0  0  0  0  0  0  0  0  0  0
   37.0250   32.4789   37.2407 H   0  0  0  0  0  0  0  0  0  0  0  0
   38.6657   32.3265   38.0555 H   0  0  0  0  0  0  0  0  0  0  0  0
   36.5780   30.2667   37.5593 H   0  0  0  0  0  0  0  0  0  0  0  0
   38.3707   30.3356   37.1354 H   0  0  0  0  0  0  0  0  0  0  0  0
   38.9998   29.7904   39.4067 H   0  0  0  0  0  0  0  0  0  0  0  0
   38.5162   25.1949   38.7762 H   0  0  0  0  0  0  0  0  0  0  0  0
   34.2394   25.6107   37.0573 H   0  0  0  0  0  0  0  0  0  0  0  0
   32.6918   27.5090   36.6517 H   0  0  0  0  0  0  0  0  0  0  0  0
   33.4505   29.8429   37.2503 H   0  0  0  0  0  0  0  0  0  0  0  0
   35.6839   30.1430   38.2087 H   0  0  0  0  0  0  0  0  0  0  0  0
   39.0941   29.1183   44.1368 H   0  0  0  0  0  0  0  0  0  0  0  0
   37.4266   27.2821   44.6234 H   0  0  0  0  0  0  0  0  0  0  0  0
   35.5386   26.8483   42.9744 H   0  0  0  0  0  0  0  0  0  0  0  0
  1  2  1  0
  1 21  1  0
  3  2  1  0
  4  3  1  0
  5  4  1  0
  5  6  1  0
  6  1  1  0
  7  8  2  0
  7  6  1  0
  9  8  1  0
 10  9  2  0
 11 10  1  0
 11 16  2  0
 12 11  1  0
 13 12  2  0
 13 14  1  0
 14 15  2  0
 15 16  1  0
 16  7  1  0
 17 18  2  0
 19 18  1  0
 20 19  2  0
 21 20  1  0
 21 22  2  0
 22 17  1  0
  1 23  1  6
  2 24  1  0
  2 25  1  0
  3 26  1  0
  3 27  1  0
  4 28  1  0
  4 29  1  0
  5 30  1  0
  5 31  1  0
  6 32  1  1
  9 33  1  0
 12 34  1  0
 13 35  1  0
 14 36  1  0
 15 37  1  0
 17 38  1  0
 18 39  1  0
 19 40  1  0
M  ISO  8  23  13  24  13  25  13  26  13  27  13  28  13  29  13  30  13
M  ISO  8  31  13  32  13  33  14  34  14  35  14  36  14  37  14  38  14
M  ISO  2  39  14  40  14
M  END
>  <minimizedAffinity>  (1) 
-5.51071215

>  <minimizedRMSD>  (1) 
0.778181314

$$$$
