
     RDKit          3D

 40 43  0  0  1  0  0  0  0  0999 V2000
   37.0900   30.2720   40.2960 C   0  0  1  0  0  0  0  0  0  0  0  0
   37.5540   31.6600   40.6090 C   0  0  0  0  0  0  0  0  0  0  0  0
   37.0440   32.5590   39.5350 C   0  0  0  0  0  0  0  0  0  0  0  0
   37.4470   32.1290   38.1610 C   0  0  0  0  0  0  0  0  0  0  0  0
   37.3960   30.6650   37.9050 C   0  0  0  0  0  0  0  0  0  0  0  0
   37.8560   29.8010   39.0570 C   0  0  2  0  0  0  0  0  0  0  0  0
   37.3800   28.4590   38.7720 N   0  0  0  0  0  0  0  0  0  0  0  0
   38.0940   27.3290   38.9330 C   0  0  0  0  0  0  0  0  0  0  0  0
   37.2880   26.3180   38.5570 N   0  0  0  0  0  0  0  0  0  0  0  0
   36.0980   26.8390   38.1720 C   0  0  0  0  0  0  0  0  0  0  0  0
   34.9490   26.2410   37.7070 C   0  0  0  0  0  0  0  0  0  0  0  0
   34.8370   25.0030   37.5620 O   0  0  0  0  0  0  0  0  0  0  0  0
   33.8620   26.9640   37.3770 N   0  0  0  0  0  0  0  0  0  0  0  0
   33.9350   28.3020   37.5160 C   0  0  0  0  0  0  0  0  0  0  0  0
   32.9180   29.2650   37.2310 N   0  0  0  0  0  0  0  0  0  0  0  0
   35.0550   28.9220   37.9720 N   0  0  0  0  0  0  0  0  0  0  0  0
   36.1530   28.2030   38.3070 C   0  0  0  0  0  0  0  0  0  0  0  0
   38.6650   28.5410   43.1260 C   0  0  0  0  0  0  0  0  0  0  0  0
   37.6430   27.6480   43.5490 C   0  0  0  0  0  0  0  0  0  0  0  0
   36.4120   27.6310   42.8590 C   0  0  0  0  0  0  0  0  0  0  0  0
   36.2790   28.4870   41.8130 N   0  0  0  0  0  0  0  0  0  0  0  0
   37.2640   29.3290   41.4260 C   0  0  0  0  0  0  0  0  0  0  0  0
   38.4430   29.3520   42.0790 N   0  0  0  0  0  0  0  0  0  0  0  0
   36.0066   30.2913   40.1065 H   0  0  0  0  0  0  0  0  0  0  0  0
   37.1561   31.9775   41.5842 H   0  0  0  0  0  0  0  0  0  0  0  0
   38.6523   31.6987   40.6558 H   0  0  0  0  0  0  0  0  0  0  0  0
   35.9454   32.5763   39.5870 H   0  0  0  0  0  0  0  0  0  0  0  0
   37.4835   33.5526   39.7068 H   0  0  0  0  0  0  0  0  0  0  0  0
   36.7763   32.6219   37.4418 H   0  0  0  0  0  0  0  0  0  0  0  0
   38.5033   32.4166   38.0534 H   0  0  0  0  0  0  0  0  0  0  0  0
   36.3559   30.3953   37.6697 H   0  0  0  0  0  0  0  0  0  0  0  0
   38.0939   30.4721   37.0769 H   0  0  0  0  0  0  0  0  0  0  0  0
   38.9458   29.8442   39.2004 H   0  0  0  0  0  0  0  0  0  0  0  0
   39.1284   27.2479   39.2984 H   0  0  0  0  0  0  0  0  0  0  0  0
   33.0048   26.5100   37.0305 H   0  0  0  0  0  0  0  0  0  0  0  0
   33.1012   30.2674   37.3814 H   0  0  0  0  0  0  0  0  0  0  0  0
   32.0019   28.9566   36.8752 H   0  0  0  0  0  0  0  0  0  0  0  0
   39.6305   28.5675   43.6524 H   0  0  0  0  0  0  0  0  0  0  0  0
   37.8099   26.9775   44.4049 H   0  0  0  0  0  0  0  0  0  0  0  0
   35.5966   26.9546   43.1552 H   0  0  0  0  0  0  0  0  0  0  0  0
  1  2  1  0
  1 22  1  0
  3  2  1  0
  4  3  1  0
  5  4  1  0
  5  6  1  0
  6  1  1  0
  7  8  1  0
  7  6  1  0
  9  8  2  0
 10 17  2  0
 10  9  1  0
 11 10  1  0
 12 11  2  0
 13 14  1  0
 13 11  1  0
 14 16  2  0
 15 14  1  0
 16 17  1  0
 17  7  1  0
 18 19  2  0
 20 19  1  0
 21 20  2  0
 22 21  1  0
 22 23  2  0
 23 18  1  0
  1 24  1  6
  2 25  1  0
  2 26  1  0
  3 27  1  0
  3 28  1  0
  4 29  1  0
  4 30  1  0
  5 31  1  0
  5 32  1  0
  6 33  1  1
  8 34  1  0
 13 35  1  0
 15 36  1  0
 15 37  1  0
 18 38  1  0
 19 39  1  0
 20 40  1  0
M  ISO  8  24  13  25  13  26  13  27  13  28  13  29  13  30  13  31  13
M  ISO  7  32  13  33  13  34  14  35   9  38  14  39  14  40  14
M  END
>  <minimizedAffinity>  (1) 
-5.30947495

>  <minimizedRMSD>  (1) 
0.617042005

$$$$
