
     RDKit          3D

 37 40  0  0  1  0  0  0  0  0999 V2000
   37.1350   30.4830   40.3880 C   0  0  1  0  0  0  0  0  0  0  0  0
   37.7750   31.7630   40.8230 C   0  0  0  0  0  0  0  0  0  0  0  0
   37.2740   32.8510   39.9470 C   0  0  0  0  0  0  0  0  0  0  0  0
   37.3260   32.5650   38.4890 C   0  0  0  0  0  0  0  0  0  0  0  0
   37.3620   31.1620   38.0450 C   0  0  0  0  0  0  0  0  0  0  0  0
   37.7450   30.1170   39.0460 C   0  0  1  0  0  0  0  0  0  0  0  0
   39.1720   29.8770   39.1250 N   0  0  0  0  0  0  0  0  0  0  0  0
   39.8830   28.9260   39.7650 C   0  0  0  0  0  0  0  0  0  0  0  0
   41.2080   29.1070   39.5440 N   0  0  0  0  0  0  0  0  0  0  0  0
   41.3730   30.1770   38.7570 C   0  0  0  0  0  0  0  0  0  0  0  0
   42.4930   30.7990   38.2300 C   0  0  0  0  0  0  0  0  0  0  0  0
   42.3260   31.8980   37.4440 N   0  0  0  0  0  0  0  0  0  0  0  0
   41.0870   32.3550   37.1970 C   0  0  0  0  0  0  0  0  0  0  0  0
   40.0170   31.7400   37.7160 N   0  0  0  0  0  0  0  0  0  0  0  0
   40.1180   30.6350   38.5100 C   0  0  0  0  0  0  0  0  0  0  0  0
   37.9590   28.7660   43.5100 C   0  0  0  0  0  0  0  0  0  0  0  0
   37.4290   27.4640   43.3110 C   0  0  0  0  0  0  0  0  0  0  0  0
   36.7920   27.1680   42.0900 C   0  0  0  0  0  0  0  0  0  0  0  0
   36.7140   28.1650   41.1430 N   0  0  0  0  0  0  0  0  0  0  0  0
   37.2360   29.3950   41.3800 C   0  0  0  0  0  0  0  0  0  0  0  0
   37.8480   29.6890   42.5450 N   0  0  0  0  0  0  0  0  0  0  0  0
   36.0492   30.6310   40.2919 H   0  0  0  0  0  0  0  0  0  0  0  0
   37.5103   31.9753   41.8694 H   0  0  0  0  0  0  0  0  0  0  0  0
   38.8697   31.6864   40.7467 H   0  0  0  0  0  0  0  0  0  0  0  0
   36.2266   33.0504   40.2174 H   0  0  0  0  0  0  0  0  0  0  0  0
   37.9421   33.7088   40.1136 H   0  0  0  0  0  0  0  0  0  0  0  0
   36.4350   33.0250   38.0368 H   0  0  0  0  0  0  0  0  0  0  0  0
   38.2979   32.9708   38.1716 H   0  0  0  0  0  0  0  0  0  0  0  0
   36.3565   30.9095   37.6772 H   0  0  0  0  0  0  0  0  0  0  0  0
   38.1665   31.1319   37.2955 H   0  0  0  0  0  0  0  0  0  0  0  0
   37.3369   29.1523   38.7101 H   0  0  0  0  0  0  0  0  0  0  0  0
   39.4505   28.1209   40.3771 H   0  0  0  0  0  0  0  0  0  0  0  0
   43.5002   30.4115   38.4430 H   0  0  0  0  0  0  0  0  0  0  0  0
   40.9504   33.2430   36.5623 H   0  0  0  0  0  0  0  0  0  0  0  0
   38.4607   29.0170   44.4562 H   0  0  0  0  0  0  0  0  0  0  0  0
   37.5144   26.6993   44.0971 H   0  0  0  0  0  0  0  0  0  0  0  0
   36.3696   26.1705   41.8986 H   0  0  0  0  0  0  0  0  0  0  0  0
  1  2  1  0
  1 20  1  0
  3  2  1  0
  4  3  1  0
  5  4  1  0
  5  6  1  0
  6  7  1  0
  6  1  1  0
  7  8  1  0
  9  8  2  0
 10  9  1  0
 11 10  2  0
 12 11  1  0
 13 12  2  0
 13 14  1  0
 14 15  2  0
 15 10  1  0
 15  7  1  0
 17 16  2  0
 18 17  1  0
 19 20  1  0
 19 18  2  0
 20 21  2  0
 21 16  1  0
  1 22  1  6
  2 23  1  0
  2 24  1  0
  3 25  1  0
  3 26  1  0
  4 27  1  0
  4 28  1  0
  5 29  1  0
  5 30  1  0
  6 31  1  6
  8 32  1  0
 11 33  1  0
 13 34  1  0
 16 35  1  0
 17 36  1  0
 18 37  1  0
M  ISO  8  22  13  23  13  24  13  25  13  26  13  27  13  28  13  29  13
M  ISO  8  30  13  31  13  32  14  33  14  34  14  35  14  36  14  37  14
M  END
>  <minimizedAffinity>  (1) 
-5.0199995

>  <minimizedRMSD>  (1) 
0.492628515

$$$$
