
     RDKit          3D

 39 41  0  0  1  0  0  0  0  0999 V2000
   37.0540   30.2920   40.3700 C   0  0  1  0  0  0  0  0  0  0  0  0
   37.5900   31.6650   40.6380 C   0  0  0  0  0  0  0  0  0  0  0  0
   37.1530   32.5570   39.5430 C   0  0  0  0  0  0  0  0  0  0  0  0
   37.3410   32.0520   38.1650 C   0  0  0  0  0  0  0  0  0  0  0  0
   37.3100   30.5860   37.9640 C   0  0  0  0  0  0  0  0  0  0  0  0
   37.8260   29.7930   39.1430 C   0  0  2  0  0  0  0  0  0  0  0  0
   37.7050   28.3940   38.9200 N   0  0  0  0  0  0  0  0  0  0  0  0
   36.5850   27.8460   38.4400 C   0  0  0  0  0  0  0  0  0  0  0  0
   36.4480   26.4720   38.2150 C   0  0  0  0  0  0  0  0  0  0  0  0
   35.2000   25.8770   37.6820 C   0  0  0  0  0  0  0  0  0  0  0  0
   37.5390   25.6800   38.5110 C   0  0  0  0  0  0  0  0  0  0  0  0
   37.4110   24.4380   38.3050 O   0  0  0  0  0  0  0  0  0  0  0  0
   38.6550   26.2220   38.9890 N   0  0  0  0  0  0  0  0  0  0  0  0
   38.7270   27.5570   39.1860 C   0  0  0  0  0  0  0  0  0  0  0  0
   39.8290   27.9530   39.6390 O   0  0  0  0  0  0  0  0  0  0  0  0
   38.5260   28.7280   43.3570 C   0  0  0  0  0  0  0  0  0  0  0  0
   37.5530   27.7530   43.7020 C   0  0  0  0  0  0  0  0  0  0  0  0
   36.3950   27.6230   42.9110 C   0  0  0  0  0  0  0  0  0  0  0  0
   36.2730   28.4560   41.8410 N   0  0  0  0  0  0  0  0  0  0  0  0
   37.2330   29.3830   41.5390 C   0  0  0  0  0  0  0  0  0  0  0  0
   38.3480   29.5200   42.2870 N   0  0  0  0  0  0  0  0  0  0  0  0
   35.9689   30.3123   40.1905 H   0  0  0  0  0  0  0  0  0  0  0  0
   37.2000   32.0356   41.5975 H   0  0  0  0  0  0  0  0  0  0  0  0
   38.6885   31.6391   40.6896 H   0  0  0  0  0  0  0  0  0  0  0  0
   36.0802   32.7564   39.6824 H   0  0  0  0  0  0  0  0  0  0  0  0
   37.7965   33.4460   39.6175 H   0  0  0  0  0  0  0  0  0  0  0  0
   36.5444   32.4867   37.5433 H   0  0  0  0  0  0  0  0  0  0  0  0
   38.3647   32.3502   37.8946 H   0  0  0  0  0  0  0  0  0  0  0  0
   36.2693   30.2849   37.7734 H   0  0  0  0  0  0  0  0  0  0  0  0
   37.9763   30.3667   37.1167 H   0  0  0  0  0  0  0  0  0  0  0  0
   38.9035   29.9481   39.3011 H   0  0  0  0  0  0  0  0  0  0  0  0
   35.7335   28.5039   38.2118 H   0  0  0  0  0  0  0  0  0  0  0  0
   34.5544   25.5692   38.5178 H   0  0  0  0  0  0  0  0  0  0  0  0
   34.6730   26.6208   37.0663 H   0  0  0  0  0  0  0  0  0  0  0  0
   35.4461   24.9993   37.0663 H   0  0  0  0  0  0  0  0  0  0  0  0
   39.4646   25.6245   39.2091 H   0  0  0  0  0  0  0  0  0  0  0  0
   39.4325   28.8354   43.9708 H   0  0  0  0  0  0  0  0  0  0  0  0
   37.7023   27.1055   44.5786 H   0  0  0  0  0  0  0  0  0  0  0  0
   35.6206   26.8787   43.1481 H   0  0  0  0  0  0  0  0  0  0  0  0
  1  2  1  0
  1 20  1  0
  3  2  1  0
  4  3  1  0
  5  4  1  0
  5  6  1  0
  6  1  1  0
  7  6  1  0
  7 14  1  0
  8  7  1  0
  9  8  2  0
  9 11  1  0
 10  9  1  0
 11 13  1  0
 12 11  2  0
 13 14  1  0
 14 15  2  0
 16 17  2  0
 18 17  1  0
 19 18  2  0
 20 19  1  0
 20 21  2  0
 21 16  1  0
  1 22  1  6
  2 23  1  0
  2 24  1  0
  3 25  1  0
  3 26  1  0
  4 27  1  0
  4 28  1  0
  5 29  1  0
  5 30  1  0
  6 31  1  1
  8 32  1  0
 10 33  1  0
 10 34  1  0
 10 35  1  0
 13 36  1  0
 16 37  1  0
 17 38  1  0
 18 39  1  0
M  ISO  8  22  13  23  13  24  13  25  13  26  13  27  13  28  13  29  13
M  ISO  8  30  13  31  13  32  14  33   8  34   8  35   8  36   9  37  14
M  ISO  2  38  14  39  14
M  END
>  <minimizedAffinity>  (1) 
-4.89139414

>  <minimizedRMSD>  (1) 
0.469136536

$$$$
