
     RDKit          3D

 39 41  0  0  1  0  0  0  0  0999 V2000
   37.1750   30.3090   40.5840 C   0  0  1  0  0  0  0  0  0  0  0  0
   37.9160   31.5940   40.7950 C   0  0  0  0  0  0  0  0  0  0  0  0
   37.3700   32.6100   39.8570 C   0  0  0  0  0  0  0  0  0  0  0  0
   37.3030   32.1620   38.4320 C   0  0  0  0  0  0  0  0  0  0  0  0
   36.9970   30.7310   38.1930 C   0  0  0  0  0  0  0  0  0  0  0  0
   37.6150   29.7950   39.2130 C   0  0  2  0  0  0  0  0  0  0  0  0
   38.9180   28.4020   43.1870 C   0  0  0  0  0  0  0  0  0  0  0  0
   37.9060   27.5390   43.6730 C   0  0  0  0  0  0  0  0  0  0  0  0
   36.6190   27.5980   43.1040 C   0  0  0  0  0  0  0  0  0  0  0  0
   36.4130   28.5050   42.0930 N   0  0  0  0  0  0  0  0  0  0  0  0
   37.4170   29.3180   41.6560 C   0  0  0  0  0  0  0  0  0  0  0  0
   38.6530   29.2680   42.1950 N   0  0  0  0  0  0  0  0  0  0  0  0
   36.7500   25.6630   38.4890 C   0  0  0  0  0  0  0  0  0  0  0  0
   35.7400   26.6000   38.3210 C   0  0  0  0  0  0  0  0  0  0  0  0
   36.0020   27.9490   38.5520 C   0  0  0  0  0  0  0  0  0  0  0  0
   37.2410   28.4130   38.9470 C   0  0  0  0  0  0  0  0  0  0  0  0
   38.2030   27.4060   39.0940 C   0  0  0  0  0  0  0  0  0  0  0  0
   38.0130   26.0650   38.8850 C   0  0  0  0  0  0  0  0  0  0  0  0
   36.4320   23.9700   38.2030 S   0  0  0  0  0  0  0  0  0  0  0  0
   35.0310   23.6590   38.6580 O   0  0  0  0  0  0  0  0  0  0  0  0
   37.4400   23.1850   39.0180 O   0  0  0  0  0  0  0  0  0  0  0  0
   36.0888   30.4792   40.6202 H   0  0  0  0  0  0  0  0  0  0  0  0
   37.7806   31.9350   41.8320 H   0  0  0  0  0  0  0  0  0  0  0  0
   38.9899   31.4460   40.6086 H   0  0  0  0  0  0  0  0  0  0  0  0
   36.3523   32.8689   40.1845 H   0  0  0  0  0  0  0  0  0  0  0  0
   38.0602   33.4661   39.8849 H   0  0  0  0  0  0  0  0  0  0  0  0
   36.5236   32.7565   37.9329 H   0  0  0  0  0  0  0  0  0  0  0  0
   38.3192   32.3081   38.0371 H   0  0  0  0  0  0  0  0  0  0  0  0
   35.9051   30.6006   38.2194 H   0  0  0  0  0  0  0  0  0  0  0  0
   37.4284   30.4698   37.2154 H   0  0  0  0  0  0  0  0  0  0  0  0
   38.7140   29.7897   39.1654 H   0  0  0  0  0  0  0  0  0  0  0  0
   39.9266   28.3630   43.6242 H   0  0  0  0  0  0  0  0  0  0  0  0
   38.1226   26.8304   44.4860 H   0  0  0  0  0  0  0  0  0  0  0  0
   35.8090   26.9423   43.4560 H   0  0  0  0  0  0  0  0  0  0  0  0
   34.7360   26.2788   38.0065 H   0  0  0  0  0  0  0  0  0  0  0  0
   35.1872   28.6750   38.4138 H   0  0  0  0  0  0  0  0  0  0  0  0
   39.2088   27.7221   39.4077 H   0  0  0  0  0  0  0  0  0  0  0  0
   38.8286   25.3405   39.0259 H   0  0  0  0  0  0  0  0  0  0  0  0
   36.5421   23.6463   36.8764 H   0  0  0  0  0  0  0  0  0  0  0  0
  1  2  1  0
  1 11  1  0
  3  2  1  0
  4  3  1  0
  5  4  1  0
  5  6  1  0
  6  1  1  0
  7  8  2  0
  9  8  1  0
 10  9  2  0
 11 10  1  0
 11 12  2  0
 12  7  1  0
 13 18  2  0
 14 13  1  0
 14 15  2  0
 15 16  1  0
 16 17  2  0
 16  6  1  0
 18 17  1  0
 19 13  1  0
 19 20  2  0
 19 21  2  0
  1 22  1  6
  2 23  1  0
  2 24  1  0
  3 25  1  0
  3 26  1  0
  4 27  1  0
  4 28  1  0
  5 29  1  0
  5 30  1  0
  6 31  1  1
  7 32  1  0
  8 33  1  0
  9 34  1  0
 14 35  1  0
 15 36  1  0
 17 37  1  0
 18 38  1  0
 19 39  1  0
M  ISO  8  22  13  23  13  24  13  25  13  26  13  27  13  28  13  29  13
M  ISO  8  30  13  31  13  32  14  33  14  34  14  35  14  36  14  37  14
M  ISO  2  38  14  39  11
M  END
>  <minimizedAffinity>  (1) 
-4.71784735

>  <minimizedRMSD>  (1) 
0.507980585

$$$$
