
     RDKit          3D

 36 38  0  0  1  0  0  0  0  0999 V2000
   37.1290   30.3160   40.4790 C   0  0  1  0  0  0  0  0  0  0  0  0
   37.7810   31.6390   40.7440 C   0  0  0  0  0  0  0  0  0  0  0  0
   37.2060   32.6280   39.7880 C   0  0  0  0  0  0  0  0  0  0  0  0
   37.3910   32.2160   38.3620 C   0  0  0  0  0  0  0  0  0  0  0  0
   37.0690   30.7780   38.0900 C   0  0  0  0  0  0  0  0  0  0  0  0
   37.6410   29.8230   39.1220 C   0  0  2  0  0  0  0  0  0  0  0  0
   38.8860   28.4400   43.1000 C   0  0  0  0  0  0  0  0  0  0  0  0
   37.8800   27.5600   43.5810 C   0  0  0  0  0  0  0  0  0  0  0  0
   36.5950   27.6020   43.0030 C   0  0  0  0  0  0  0  0  0  0  0  0
   36.3920   28.5000   41.9970 N   0  0  0  0  0  0  0  0  0  0  0  0
   37.3720   29.3280   41.5580 C   0  0  0  0  0  0  0  0  0  0  0  0
   38.6050   29.2950   42.1050 N   0  0  0  0  0  0  0  0  0  0  0  0
   37.1150   28.4710   38.7910 C   0  0  0  0  0  0  0  0  0  0  0  0
   35.7880   28.3440   38.3680 C   0  0  0  0  0  0  0  0  0  0  0  0
   35.2990   27.0850   38.0600 C   0  0  0  0  0  0  0  0  0  0  0  0
   36.1220   25.9640   38.1730 C   0  0  0  0  0  0  0  0  0  0  0  0
   37.4480   26.0920   38.5960 C   0  0  0  0  0  0  0  0  0  0  0  0
   37.9070   27.3590   38.8950 C   0  0  0  0  0  0  0  0  0  0  0  0
   36.0361   30.4392   40.4573 H   0  0  0  0  0  0  0  0  0  0  0  0
   37.5785   31.9559   41.7777 H   0  0  0  0  0  0  0  0  0  0  0  0
   38.8705   31.5646   40.6121 H   0  0  0  0  0  0  0  0  0  0  0  0
   36.1294   32.7296   39.9896 H   0  0  0  0  0  0  0  0  0  0  0  0
   37.7348   33.5816   39.9331 H   0  0  0  0  0  0  0  0  0  0  0  0
   36.7371   32.8402   37.7352 H   0  0  0  0  0  0  0  0  0  0  0  0
   38.4581   32.3495   38.1309 H   0  0  0  0  0  0  0  0  0  0  0  0
   35.9751   30.6626   38.0776 H   0  0  0  0  0  0  0  0  0  0  0  0
   37.5270   30.5215   37.1233 H   0  0  0  0  0  0  0  0  0  0  0  0
   38.7400   29.7793   39.1390 H   0  0  0  0  0  0  0  0  0  0  0  0
   39.8930   28.4205   43.5422 H   0  0  0  0  0  0  0  0  0  0  0  0
   38.1011   26.8540   44.3950 H   0  0  0  0  0  0  0  0  0  0  0  0
   35.7893   26.9379   43.3491 H   0  0  0  0  0  0  0  0  0  0  0  0
   35.1424   29.2304   38.2812 H   0  0  0  0  0  0  0  0  0  0  0  0
   34.2577   26.9686   37.7250 H   0  0  0  0  0  0  0  0  0  0  0  0
   35.7231   24.9690   37.9266 H   0  0  0  0  0  0  0  0  0  0  0  0
   38.1033   25.2132   38.6875 H   0  0  0  0  0  0  0  0  0  0  0  0
   38.9480   27.4798   39.2293 H   0  0  0  0  0  0  0  0  0  0  0  0
  1  2  1  0
  1 11  1  0
  3  2  1  0
  4  3  1  0
  5  4  1  0
  5  6  1  0
  6  1  1  0
  7  8  2  0
  9  8  1  0
 10  9  2  0
 11 10  1  0
 11 12  2  0
 12  7  1  0
 13 18  1  0
 13  6  1  0
 14 13  2  0
 15 16  2  0
 15 14  1  0
 16 17  1  0
 17 18  2  0
  1 19  1  6
  2 20  1  0
  2 21  1  0
  3 22  1  0
  3 23  1  0
  4 24  1  0
  4 25  1  0
  5 26  1  0
  5 27  1  0
  6 28  1  1
  7 29  1  0
  8 30  1  0
  9 31  1  0
 14 32  1  0
 15 33  1  0
 16 34  1  0
 17 35  1  0
 18 36  1  0
M  ISO  8  19  13  20  13  21  13  22  13  23  13  24  13  25  13  26  13
M  ISO  8  27  13  28  13  29  14  30  14  31  14  32  14  33  14  34  14
M  ISO  2  35  14  36  14
M  END
>  <minimizedAffinity>  (1) 
-4.68916893

>  <minimizedRMSD>  (1) 
0.65260148

$$$$
