
     RDKit          3D

 34 36  0  0  1  0  0  0  0  0999 V2000
   37.1550   30.3040   40.4530 C   0  0  1  0  0  0  0  0  0  0  0  0
   37.7620   31.6460   40.7400 C   0  0  0  0  0  0  0  0  0  0  0  0
   37.2260   32.6160   39.7530 C   0  0  0  0  0  0  0  0  0  0  0  0
   37.3460   32.1820   38.3360 C   0  0  0  0  0  0  0  0  0  0  0  0
   37.2920   30.7200   38.0500 C   0  0  0  0  0  0  0  0  0  0  0  0
   37.7970   29.8240   39.1460 C   0  0  2  0  0  0  0  0  0  0  0  0
   38.8620   28.4800   43.1570 C   0  0  0  0  0  0  0  0  0  0  0  0
   37.8440   27.5990   43.6180 C   0  0  0  0  0  0  0  0  0  0  0  0
   36.5750   27.6210   43.0020 C   0  0  0  0  0  0  0  0  0  0  0  0
   36.3990   28.5030   41.9830 N   0  0  0  0  0  0  0  0  0  0  0  0
   37.3820   29.3330   41.5580 C   0  0  0  0  0  0  0  0  0  0  0  0
   38.5980   29.3150   42.1440 N   0  0  0  0  0  0  0  0  0  0  0  0
   37.3210   28.4380   38.8950 C   0  0  0  0  0  0  0  0  0  0  0  0
   36.0630   28.0930   38.4460 C   0  0  0  0  0  0  0  0  0  0  0  0
   35.6950   26.7790   38.2370 C   0  0  0  0  0  0  0  0  0  0  0  0
   36.5980   25.8140   38.4790 N   0  0  0  0  0  0  0  0  0  0  0  0
   37.8400   26.1570   38.9220 C   0  0  0  0  0  0  0  0  0  0  0  0
   38.1940   27.4530   39.1260 N   0  0  0  0  0  0  0  0  0  0  0  0
   36.0617   30.3837   40.3620 H   0  0  0  0  0  0  0  0  0  0  0  0
   37.4960   31.9652   41.7585 H   0  0  0  0  0  0  0  0  0  0  0  0
   38.8581   31.5921   40.6643 H   0  0  0  0  0  0  0  0  0  0  0  0
   36.1607   32.7781   39.9739 H   0  0  0  0  0  0  0  0  0  0  0  0
   37.8293   33.5304   39.8528 H   0  0  0  0  0  0  0  0  0  0  0  0
   36.5258   32.6562   37.7770 H   0  0  0  0  0  0  0  0  0  0  0  0
   38.3606   32.4852   38.0384 H   0  0  0  0  0  0  0  0  0  0  0  0
   36.2437   30.4528   37.8507 H   0  0  0  0  0  0  0  0  0  0  0  0
   37.9636   30.5561   37.1944 H   0  0  0  0  0  0  0  0  0  0  0  0
   38.8958   29.8475   39.1926 H   0  0  0  0  0  0  0  0  0  0  0  0
   39.8560   28.4751   43.6281 H   0  0  0  0  0  0  0  0  0  0  0  0
   38.0450   26.9061   44.4483 H   0  0  0  0  0  0  0  0  0  0  0  0
   35.7645   26.9543   43.3316 H   0  0  0  0  0  0  0  0  0  0  0  0
   35.3305   28.8895   38.2484 H   0  0  0  0  0  0  0  0  0  0  0  0
   34.6852   26.5277   37.8804 H   0  0  0  0  0  0  0  0  0  0  0  0
   38.5758   25.3636   39.1198 H   0  0  0  0  0  0  0  0  0  0  0  0
  1  2  1  0
  1 11  1  0
  3  2  1  0
  4  3  1  0
  5  4  1  0
  5  6  1  0
  6  1  1  0
  7  8  2  0
  9  8  1  0
 10  9  2  0
 11 10  1  0
 11 12  2  0
 12  7  1  0
 13 18  1  0
 13  6  1  0
 14 13  2  0
 15 14  1  0
 15 16  2  0
 16 17  1  0
 17 18  2  0
  1 19  1  6
  2 20  1  0
  2 21  1  0
  3 22  1  0
  3 23  1  0
  4 24  1  0
  4 25  1  0
  5 26  1  0
  5 27  1  0
  6 28  1  1
  7 29  1  0
  8 30  1  0
  9 31  1  0
 14 32  1  0
 15 33  1  0
 17 34  1  0
M  ISO  8  19  13  20  13  21  13  22  13  23  13  24  13  25  13  26  13
M  ISO  8  27  13  28  13  29  14  30  14  31  14  32  14  33  14  34  14
M  END
>  <minimizedAffinity>  (1) 
-4.54646206

>  <minimizedRMSD>  (1) 
0.83878994

$$$$
