
     RDKit          3D

 33 35  0  0  1  0  0  0  0  0999 V2000
   37.1530   30.3000   40.4270 C   0  0  1  0  0  0  0  0  0  0  0  0
   37.7160   31.6570   40.7380 C   0  0  0  0  0  0  0  0  0  0  0  0
   37.1610   32.6070   39.7320 C   0  0  0  0  0  0  0  0  0  0  0  0
   37.4120   32.1990   38.3100 C   0  0  0  0  0  0  0  0  0  0  0  0
   37.2440   30.7580   38.0280 C   0  0  0  0  0  0  0  0  0  0  0  0
   37.7880   29.8490   39.1070 C   0  0  2  0  0  0  0  0  0  0  0  0
   38.9190   28.4200   43.0470 C   0  0  0  0  0  0  0  0  0  0  0  0
   37.9060   27.5700   43.5600 C   0  0  0  0  0  0  0  0  0  0  0  0
   36.6140   27.6340   43.0020 C   0  0  0  0  0  0  0  0  0  0  0  0
   36.4060   28.5250   41.9840 N   0  0  0  0  0  0  0  0  0  0  0  0
   37.4170   29.3240   41.5260 C   0  0  0  0  0  0  0  0  0  0  0  0
   38.6610   29.2770   42.0460 N   0  0  0  0  0  0  0  0  0  0  0  0
   37.2520   28.5080   38.8350 C   0  0  0  0  0  0  0  0  0  0  0  0
   35.9960   28.3430   38.3790 C   0  0  0  0  0  0  0  0  0  0  0  0
   35.2800   27.2590   38.0590 C   0  0  0  0  0  0  0  0  0  0  0  0
   36.2340   26.1150   38.3290 C   0  0  0  0  0  0  0  0  0  0  0  0
   37.8680   26.9180   38.9580 S   0  0  0  0  0  0  0  0  0  0  0  0
   36.0581   30.3501   40.3343 H   0  0  0  0  0  0  0  0  0  0  0  0
   37.4185   31.9650   41.7512 H   0  0  0  0  0  0  0  0  0  0  0  0
   38.8151   31.6423   40.6957 H   0  0  0  0  0  0  0  0  0  0  0  0
   36.0741   32.6786   39.8855 H   0  0  0  0  0  0  0  0  0  0  0  0
   37.6722   33.5690   39.8840 H   0  0  0  0  0  0  0  0  0  0  0  0
   36.7125   32.7548   37.6683 H   0  0  0  0  0  0  0  0  0  0  0  0
   38.4693   32.4271   38.1099 H   0  0  0  0  0  0  0  0  0  0  0  0
   36.1697   30.5519   37.9122 H   0  0  0  0  0  0  0  0  0  0  0  0
   37.8190   30.5449   37.1148 H   0  0  0  0  0  0  0  0  0  0  0  0
   38.8873   29.8655   39.1431 H   0  0  0  0  0  0  0  0  0  0  0  0
   39.9311   28.3765   43.4756 H   0  0  0  0  0  0  0  0  0  0  0  0
   38.1258   26.8716   44.3809 H   0  0  0  0  0  0  0  0  0  0  0  0
   35.8015   26.9910   43.3712 H   0  0  0  0  0  0  0  0  0  0  0  0
   35.4495   29.2878   38.2423 H   0  0  0  0  0  0  0  0  0  0  0  0
   34.2455   27.2106   37.6883 H   0  0  0  0  0  0  0  0  0  0  0  0
   36.0344   25.0418   38.1934 H   0  0  0  0  0  0  0  0  0  0  0  0
  1  2  1  0
  1 11  1  0
  3  2  1  0
  4  3  1  0
  5  4  1  0
  5  6  1  0
  6  1  1  0
  7  8  2  0
  9  8  1  0
 10  9  2  0
 11 10  1  0
 11 12  2  0
 12  7  1  0
 13 17  1  0
 13  6  1  0
 14 13  2  0
 15 16  2  0
 15 14  1  0
 16 17  1  0
  1 18  1  6
  2 19  1  0
  2 20  1  0
  3 21  1  0
  3 22  1  0
  4 23  1  0
  4 24  1  0
  5 25  1  0
  5 26  1  0
  6 27  1  1
  7 28  1  0
  8 29  1  0
  9 30  1  0
 14 31  1  0
 15 32  1  0
 16 33  1  0
M  ISO  8  18  13  19  13  20  13  21  13  22  13  23  13  24  13  25  13
M  ISO  8  26  13  27  13  28  14  29  14  30  14  31  14  32  14  33  14
M  END
>  <minimizedAffinity>  (1) 
-4.46947384

>  <minimizedRMSD>  (1) 
0.756349504

$$$$
