
     RDKit          3D

 33 35  0  0  1  0  0  0  0  0999 V2000
   37.0700   30.2540   40.3670 C   0  0  1  0  0  0  0  0  0  0  0  0
   37.6680   31.6080   40.6140 C   0  0  0  0  0  0  0  0  0  0  0  0
   37.1160   32.5250   39.5750 C   0  0  0  0  0  0  0  0  0  0  0  0
   37.3780   32.0550   38.1870 C   0  0  0  0  0  0  0  0  0  0  0  0
   37.2090   30.5890   37.9630 C   0  0  0  0  0  0  0  0  0  0  0  0
   37.7100   29.7120   39.0880 C   0  0  2  0  0  0  0  0  0  0  0  0
   38.6460   28.6100   43.2540 C   0  0  0  0  0  0  0  0  0  0  0  0
   37.6520   27.6860   43.6670 C   0  0  0  0  0  0  0  0  0  0  0  0
   36.4400   27.6110   42.9550 C   0  0  0  0  0  0  0  0  0  0  0  0
   36.2770   28.4530   41.8750 N   0  0  0  0  0  0  0  0  0  0  0  0
   37.2590   29.3260   41.5150 C   0  0  0  0  0  0  0  0  0  0  0  0
   38.4230   29.4010   42.1940 N   0  0  0  0  0  0  0  0  0  0  0  0
   37.1120   28.3660   38.8820 C   0  0  0  0  0  0  0  0  0  0  0  0
   35.8790   28.1530   38.2870 C   0  0  0  0  0  0  0  0  0  0  0  0
   35.6400   26.8290   38.2570 N   0  0  0  0  0  0  0  0  0  0  0  0
   36.7270   26.2590   38.8320 C   0  0  0  0  0  0  0  0  0  0  0  0
   37.6280   27.1820   39.2140 N   0  0  0  0  0  0  0  0  0  0  0  0
   35.9795   30.3414   40.2518 H   0  0  0  0  0  0  0  0  0  0  0  0
   37.3930   31.9650   41.6175 H   0  0  0  0  0  0  0  0  0  0  0  0
   38.7659   31.5681   40.5589 H   0  0  0  0  0  0  0  0  0  0  0  0
   36.0283   32.6039   39.7191 H   0  0  0  0  0  0  0  0  0  0  0  0
   37.6171   33.4970   39.6937 H   0  0  0  0  0  0  0  0  0  0  0  0
   36.6861   32.5827   37.5141 H   0  0  0  0  0  0  0  0  0  0  0  0
   38.4385   32.2706   37.9900 H   0  0  0  0  0  0  0  0  0  0  0  0
   36.1370   30.3860   37.8227 H   0  0  0  0  0  0  0  0  0  0  0  0
   37.8181   30.3390   37.0818 H   0  0  0  0  0  0  0  0  0  0  0  0
   38.8088   29.6840   39.1322 H   0  0  0  0  0  0  0  0  0  0  0  0
   39.5975   28.6776   43.8018 H   0  0  0  0  0  0  0  0  0  0  0  0
   37.8267   27.0341   44.5356 H   0  0  0  0  0  0  0  0  0  0  0  0
   35.6498   26.9049   43.2500 H   0  0  0  0  0  0  0  0  0  0  0  0
   35.2077   28.9354   37.9033 H   0  0  0  0  0  0  0  0  0  0  0  0
   36.8565   25.1753   38.9694 H   0  0  0  0  0  0  0  0  0  0  0  0
   38.5346   27.0089   39.6712 H   0  0  0  0  0  0  0  0  0  0  0  0
  1  2  1  0
  1 11  1  0
  3  2  1  0
  4  3  1  0
  5  4  1  0
  5  6  1  0
  6  1  1  0
  7  8  2  0
  9  8  1  0
 10  9  2  0
 11 10  1  0
 11 12  2  0
 12  7  1  0
 13  6  1  0
 13 17  1  0
 14 13  2  0
 15 14  1  0
 15 16  2  0
 16 17  1  0
  1 18  1  6
  2 19  1  0
  2 20  1  0
  3 21  1  0
  3 22  1  0
  4 23  1  0
  4 24  1  0
  5 25  1  0
  5 26  1  0
  6 27  1  1
  7 28  1  0
  8 29  1  0
  9 30  1  0
 14 31  1  0
 16 32  1  0
 17 33  1  0
M  ISO  8  18  13  19  13  20  13  21  13  22  13  23  13  24  13  25  13
M  ISO  8  26  13  27  13  28  14  29  14  30  14  31  14  32  14  33   9
M  END
>  <minimizedAffinity>  (1) 
-4.42602205

>  <minimizedRMSD>  (1) 
0.492128074

$$$$
