
     RDKit          3D

 35 36  0  0  1  0  0  0  0  0999 V2000
   37.4830   30.4330   41.0210 C   0  0  1  0  0  0  0  0  0  0  0  0
   38.5110   31.5230   40.9780 C   0  0  0  0  0  0  0  0  0  0  0  0
   37.8990   32.6890   40.2830 C   0  0  0  0  0  0  0  0  0  0  0  0
   37.4300   32.3440   38.9010 C   0  0  0  0  0  0  0  0  0  0  0  0
   36.6560   31.0780   38.8220 C   0  0  0  0  0  0  0  0  0  0  0  0
   37.2560   29.9370   39.6040 C   0  0  2  0  0  0  0  0  0  0  0  0
   39.4590   27.7600   42.6000 C   0  0  0  0  0  0  0  0  0  0  0  0
   38.6220   27.3600   43.6760 C   0  0  0  0  0  0  0  0  0  0  0  0
   37.3770   27.9980   43.8580 C   0  0  0  0  0  0  0  0  0  0  0  0
   37.0540   28.9790   42.9730 N   0  0  0  0  0  0  0  0  0  0  0  0
   37.8830   29.3380   41.9510 C   0  0  0  0  0  0  0  0  0  0  0  0
   39.0730   28.7380   41.7640 N   0  0  0  0  0  0  0  0  0  0  0  0
   36.3120   28.7810   39.5050 C   0  0  0  0  0  0  0  0  0  0  0  0
   35.1910   28.9960   40.5000 C   0  0  0  0  0  0  0  0  0  0  0  0
   36.9530   27.4670   39.8960 C   0  0  0  0  0  0  0  0  0  0  0  0
   36.5359   30.8259   41.4193 H   0  0  0  0  0  0  0  0  0  0  0  0
   38.8016   31.8056   42.0006 H   0  0  0  0  0  0  0  0  0  0  0  0
   39.4123   31.1845   40.4459 H   0  0  0  0  0  0  0  0  0  0  0  0
   37.0386   33.0402   40.8715 H   0  0  0  0  0  0  0  0  0  0  0  0
   38.6686   33.4697   40.1928 H   0  0  0  0  0  0  0  0  0  0  0  0
   36.7912   33.1628   38.5384 H   0  0  0  0  0  0  0  0  0  0  0  0
   38.3310   32.2042   38.2857 H   0  0  0  0  0  0  0  0  0  0  0  0
   35.6442   31.2675   39.2097 H   0  0  0  0  0  0  0  0  0  0  0  0
   36.6572   30.7722   37.7654 H   0  0  0  0  0  0  0  0  0  0  0  0
   38.2277   29.5939   39.2191 H   0  0  0  0  0  0  0  0  0  0  0  0
   40.4300   27.2653   42.4504 H   0  0  0  0  0  0  0  0  0  0  0  0
   38.9416   26.5605   44.3606 H   0  0  0  0  0  0  0  0  0  0  0  0
   36.6994   27.7154   44.6771 H   0  0  0  0  0  0  0  0  0  0  0  0
   35.9769   28.7313   38.4585 H   0  0  0  0  0  0  0  0  0  0  0  0
   35.5888   28.9197   41.5227 H   0  0  0  0  0  0  0  0  0  0  0  0
   34.7541   29.9943   40.3501 H   0  0  0  0  0  0  0  0  0  0  0  0
   34.4157   28.2302   40.3501 H   0  0  0  0  0  0  0  0  0  0  0  0
   36.9908   27.3895   40.9926 H   0  0  0  0  0  0  0  0  0  0  0  0
   36.3598   26.6345   39.4898 H   0  0  0  0  0  0  0  0  0  0  0  0
   37.9743   27.4220   39.4898 H   0  0  0  0  0  0  0  0  0  0  0  0
  1 11  1  0
  2  1  1  0
  3  2  1  0
  4  3  1  0
  5  4  1  0
  5  6  1  0
  6  1  1  0
  7  8  2  0
  8  9  1  0
 10  9  2  0
 11 10  1  0
 12 11  2  0
 12  7  1  0
 13  6  1  0
 13 15  1  0
 13 14  1  0
  1 16  1  1
  2 17  1  0
  2 18  1  0
  3 19  1  0
  3 20  1  0
  4 21  1  0
  4 22  1  0
  5 23  1  0
  5 24  1  0
  6 25  1  6
  7 26  1  0
  8 27  1  0
  9 28  1  0
 13 29  1  0
 14 30  1  0
 14 31  1  0
 14 32  1  0
 15 33  1  0
 15 34  1  0
 15 35  1  0
M  ISO  8  16  13  17  13  18  13  19  13  20  13  21  13  22  13  23  13
M  ISO  8  24  13  25  13  26  14  27  14  28  14  29   8  30   8  31   8
M  ISO  4  32   8  33   8  34   8  35   8
M  END
>  <minimizedAffinity>  (1) 
-4.41891956

>  <minimizedRMSD>  (1) 
1.3923682

$$$$
