
     RDKit          3D

 32 34  0  0  1  0  0  0  0  0999 V2000
   37.0760   30.2440   40.4420 C   0  0  1  0  0  0  0  0  0  0  0  0
   37.7190   31.5790   40.6730 C   0  0  0  0  0  0  0  0  0  0  0  0
   37.2140   32.5190   39.6430 C   0  0  0  0  0  0  0  0  0  0  0  0
   37.3280   32.0350   38.2430 C   0  0  0  0  0  0  0  0  0  0  0  0
   37.0300   30.5900   38.0320 C   0  0  0  0  0  0  0  0  0  0  0  0
   37.6230   29.7160   39.1130 C   0  0  2  0  0  0  0  0  0  0  0  0
   38.7980   28.5070   43.1820 C   0  0  0  0  0  0  0  0  0  0  0  0
   37.8060   27.6110   43.6570 C   0  0  0  0  0  0  0  0  0  0  0  0
   36.5440   27.5950   43.0350 C   0  0  0  0  0  0  0  0  0  0  0  0
   36.3340   28.4590   41.9860 N   0  0  0  0  0  0  0  0  0  0  0  0
   37.3320   29.3010   41.5720 C   0  0  0  0  0  0  0  0  0  0  0  0
   38.5490   29.3310   42.1570 N   0  0  0  0  0  0  0  0  0  0  0  0
   37.2970   28.3090   38.8960 C   0  0  0  0  0  0  0  0  0  0  0  0
   36.0020   27.9370   38.4170 C   0  0  0  0  0  0  0  0  0  0  0  0
   36.1110   26.0630   38.3180 S   0  0  0  0  0  0  0  0  0  0  0  0
   37.9020   26.1630   38.9510 C   0  0  0  0  0  0  0  0  0  0  0  0
   38.0780   27.2640   39.0920 N   0  0  0  0  0  0  0  0  0  0  0  0
   35.9815   30.3422   40.3935 H   0  0  0  0  0  0  0  0  0  0  0  0
   37.4587   31.9496   41.6755 H   0  0  0  0  0  0  0  0  0  0  0  0
   38.8134   31.4914   40.6047 H   0  0  0  0  0  0  0  0  0  0  0  0
   36.1518   32.7151   39.8511 H   0  0  0  0  0  0  0  0  0  0  0  0
   37.8447   33.4177   39.7105 H   0  0  0  0  0  0  0  0  0  0  0  0
   36.6284   32.6179   37.6260 H   0  0  0  0  0  0  0  0  0  0  0  0
   38.3842   32.1668   37.9655 H   0  0  0  0  0  0  0  0  0  0  0  0
   35.9388   30.4517   38.0248 H   0  0  0  0  0  0  0  0  0  0  0  0
   37.4803   30.2909   37.0740 H   0  0  0  0  0  0  0  0  0  0  0  0
   38.7221   29.7614   39.1083 H   0  0  0  0  0  0  0  0  0  0  0  0
   39.7869   28.5249   43.6634 H   0  0  0  0  0  0  0  0  0  0  0  0
   38.0205   26.9379   44.5001 H   0  0  0  0  0  0  0  0  0  0  0  0
   35.7511   26.9135   43.3768 H   0  0  0  0  0  0  0  0  0  0  0  0
   35.1509   28.5878   38.1677 H   0  0  0  0  0  0  0  0  0  0  0  0
   38.6027   25.3355   39.1361 H   0  0  0  0  0  0  0  0  0  0  0  0
  1  2  1  0
  1 11  1  0
  3  2  1  0
  4  3  1  0
  5  4  1  0
  5  6  1  0
  6  1  1  0
  7  8  2  0
  9  8  1  0
 10  9  2  0
 11 10  1  0
 11 12  2  0
 12  7  1  0
 13 17  1  0
 13  6  1  0
 14 13  2  0
 15 14  1  0
 15 16  1  0
 16 17  2  0
  1 18  1  6
  2 19  1  0
  2 20  1  0
  3 21  1  0
  3 22  1  0
  4 23  1  0
  4 24  1  0
  5 25  1  0
  5 26  1  0
  6 27  1  1
  7 28  1  0
  8 29  1  0
  9 30  1  0
 14 31  1  0
 16 32  1  0
M  ISO  8  18  13  19  13  20  13  21  13  22  13  23  13  24  13  25  13
M  ISO  7  26  13  27  13  28  14  29  14  30  14  31  14  32  14
M  END
>  <minimizedAffinity>  (1) 
-4.40024853

>  <minimizedRMSD>  (1) 
0.374774754

$$$$
