
     RDKit          3D

 33 34  0  0  1  0  0  0  0  0999 V2000
   37.1280   30.4850   40.2610 C   0  0  1  0  0  0  0  0  0  0  0  0
   37.6890   31.8390   40.5760 C   0  0  0  0  0  0  0  0  0  0  0  0
   37.1610   32.8090   39.5770 C   0  0  0  0  0  0  0  0  0  0  0  0
   37.4050   32.3960   38.1590 C   0  0  0  0  0  0  0  0  0  0  0  0
   37.3080   30.9370   37.8680 C   0  0  0  0  0  0  0  0  0  0  0  0
   37.7930   30.0330   38.9630 C   0  0  1  0  0  0  0  0  0  0  0  0
   38.6140   28.7980   43.1550 C   0  0  0  0  0  0  0  0  0  0  0  0
   37.6740   27.7750   43.4420 C   0  0  0  0  0  0  0  0  0  0  0  0
   36.5240   27.6560   42.6350 C   0  0  0  0  0  0  0  0  0  0  0  0
   36.3790   28.5460   41.6070 N   0  0  0  0  0  0  0  0  0  0  0  0
   37.3040   29.5120   41.3650 C   0  0  0  0  0  0  0  0  0  0  0  0
   38.4090   29.6370   42.1290 N   0  0  0  0  0  0  0  0  0  0  0  0
   39.2210   30.0540   39.0100 N   0  0  0  0  0  0  0  0  0  0  0  0
   40.0310   29.1490   38.2440 C   0  0  0  0  0  0  0  0  0  0  0  0
   39.6240   28.9400   37.0280 N   0  0  0  0  0  0  0  0  0  0  0  0
   41.1910   28.5640   38.8600 N   0  0  0  0  0  0  0  0  0  0  0  0
   40.2200   28.2770   36.4730 H   0  0  0  0  0  0  0  0  0  0  0  0
   36.0365   30.5430   40.1376 H   0  0  0  0  0  0  0  0  0  0  0  0
   37.3815   32.1427   41.5876 H   0  0  0  0  0  0  0  0  0  0  0  0
   38.7879   31.8126   40.5339 H   0  0  0  0  0  0  0  0  0  0  0  0
   36.0762   32.9098   39.7288 H   0  0  0  0  0  0  0  0  0  0  0  0
   37.6935   33.7586   39.7343 H   0  0  0  0  0  0  0  0  0  0  0  0
   36.6670   32.9130   37.5280 H   0  0  0  0  0  0  0  0  0  0  0  0
   38.4508   32.6667   37.9514 H   0  0  0  0  0  0  0  0  0  0  0  0
   36.2521   30.6985   37.6726 H   0  0  0  0  0  0  0  0  0  0  0  0
   37.9669   30.7533   37.0065 H   0  0  0  0  0  0  0  0  0  0  0  0
   37.5164   28.9830   38.7868 H   0  0  0  0  0  0  0  0  0  0  0  0
   39.5152   28.9036   43.7769 H   0  0  0  0  0  0  0  0  0  0  0  0
   37.8399   27.0845   44.2821 H   0  0  0  0  0  0  0  0  0  0  0  0
   35.7716   26.8764   42.8252 H   0  0  0  0  0  0  0  0  0  0  0  0
   39.6868   30.7443   39.6161 H   0  0  0  0  0  0  0  0  0  0  0  0
   41.7842   27.9126   38.3264 H   0  0  0  0  0  0  0  0  0  0  0  0
   41.4288   28.7963   39.8349 H   0  0  0  0  0  0  0  0  0  0  0  0
  1  2  1  0
  1 11  1  0
  3  2  1  0
  4  3  1  0
  5  4  1  0
  5  6  1  0
  6 13  1  0
  6  1  1  0
  7  8  2  0
  9  8  1  0
 10  9  2  0
 11 10  1  0
 11 12  2  0
 12  7  1  0
 14 16  1  0
 14 13  1  0
 15 14  2  0
 17 15  1  0
  1 18  1  6
  2 19  1  0
  2 20  1  0
  3 21  1  0
  3 22  1  0
  4 23  1  0
  4 24  1  0
  5 25  1  0
  5 26  1  0
  6 27  1  6
  7 28  1  0
  8 29  1  0
  9 30  1  0
 13 31  1  0
 16 32  1  0
 16 33  1  0
M  ISO  8  18  13  19  13  20  13  21  13  22  13  23  13  24  13  25  13
M  ISO  5  26  13  27  13  28  14  29  14  30  14
M  END
>  <minimizedAffinity>  (1) 
-4.28933573

>  <minimizedRMSD>  (1) 
0.536593795

$$$$
