
     RDKit          3D

 29 30  0  0  1  0  0  0  0  0999 V2000
   36.9530   30.3890   40.3100 C   0  0  1  0  0  0  0  0  0  0  0  0
   37.5130   31.7540   40.5780 C   0  0  0  0  0  0  0  0  0  0  0  0
   37.0760   32.6520   39.4770 C   0  0  0  0  0  0  0  0  0  0  0  0
   37.4570   32.1510   38.1240 C   0  0  0  0  0  0  0  0  0  0  0  0
   37.2240   30.6990   37.9140 C   0  0  0  0  0  0  0  0  0  0  0  0
   37.6820   29.8390   39.0760 C   0  0  2  0  0  0  0  0  0  0  0  0
   38.2630   28.9520   43.4330 C   0  0  0  0  0  0  0  0  0  0  0  0
   37.3980   27.8510   43.6650 C   0  0  0  0  0  0  0  0  0  0  0  0
   36.3660   27.5990   42.7370 C   0  0  0  0  0  0  0  0  0  0  0  0
   36.2580   28.4320   41.6700 N   0  0  0  0  0  0  0  0  0  0  0  0
   37.1140   29.4830   41.4850 C   0  0  0  0  0  0  0  0  0  0  0  0
   38.1100   29.7440   42.3580 N   0  0  0  0  0  0  0  0  0  0  0  0
   37.2940   28.4330   38.8150 C   0  0  0  0  0  0  0  0  0  0  0  0
   36.2300   28.1470   38.1920 O   0  0  0  0  0  0  0  0  0  0  0  0
   38.0310   27.3510   39.2100 O   0  0  0  0  0  0  0  0  0  0  0  0
   35.8702   30.4513   40.1263 H   0  0  0  0  0  0  0  0  0  0  0  0
   37.1349   32.1308   41.5398 H   0  0  0  0  0  0  0  0  0  0  0  0
   38.6112   31.7145   40.6269 H   0  0  0  0  0  0  0  0  0  0  0  0
   35.9811   32.7488   39.5185 H   0  0  0  0  0  0  0  0  0  0  0  0
   37.5818   33.6179   39.6225 H   0  0  0  0  0  0  0  0  0  0  0  0
   36.8707   32.7043   37.3756 H   0  0  0  0  0  0  0  0  0  0  0  0
   38.5411   32.3101   38.0265 H   0  0  0  0  0  0  0  0  0  0  0  0
   36.1463   30.5373   37.7646 H   0  0  0  0  0  0  0  0  0  0  0  0
   37.8161   30.3997   37.0366 H   0  0  0  0  0  0  0  0  0  0  0  0
   38.7721   29.8637   39.2214 H   0  0  0  0  0  0  0  0  0  0  0  0
   39.0738   29.1610   44.1464 H   0  0  0  0  0  0  0  0  0  0  0  0
   37.5294   27.2088   44.5484 H   0  0  0  0  0  0  0  0  0  0  0  0
   35.6722   26.7563   42.8730 H   0  0  0  0  0  0  0  0  0  0  0  0
   37.7157   26.4354   39.0040 H   0  0  0  0  0  0  0  0  0  0  0  0
  1  2  1  0
  1 11  1  0
  3  2  1  0
  4  3  1  0
  5  4  1  0
  5  6  1  0
  6  1  1  0
  7  8  2  0
  9  8  1  0
 10  9  2  0
 11 10  1  0
 11 12  2  0
 12  7  1  0
 13  6  1  0
 13 15  1  0
 14 13  2  0
  1 16  1  6
  2 17  1  0
  2 18  1  0
  3 19  1  0
  3 20  1  0
  4 21  1  0
  4 22  1  0
  5 23  1  0
  5 24  1  0
  6 25  1  1
  7 26  1  0
  8 27  1  0
  9 28  1  0
 15 29  1  0
M  ISO  8  16  13  17  13  18  13  19  13  20  13  21  13  22  13  23  13
M  ISO  6  24  13  25  13  26  14  27  14  28  14  29   3
M  END
>  <minimizedAffinity>  (1) 
-4.22621393

>  <minimizedRMSD>  (1) 
0.191526771

$$$$
