
     RDKit          3D

 32 33  0  0  1  0  0  0  0  0999 V2000
   37.5910   30.4170   41.2240 C   0  0  1  0  0  0  0  0  0  0  0  0
   38.6510   31.4690   41.1020 C   0  0  0  0  0  0  0  0  0  0  0  0
   38.0480   32.6790   40.4830 C   0  0  0  0  0  0  0  0  0  0  0  0
   37.2890   32.4250   39.2240 C   0  0  0  0  0  0  0  0  0  0  0  0
   36.6010   31.1230   39.1040 C   0  0  0  0  0  0  0  0  0  0  0  0
   37.2800   29.9630   39.7940 C   0  0  2  0  0  0  0  0  0  0  0  0
   39.6310   27.7660   42.7150 C   0  0  0  0  0  0  0  0  0  0  0  0
   38.7900   27.2480   43.7340 C   0  0  0  0  0  0  0  0  0  0  0  0
   37.5100   27.8090   43.9050 C   0  0  0  0  0  0  0  0  0  0  0  0
   37.1330   28.8400   43.0690 N   0  0  0  0  0  0  0  0  0  0  0  0
   37.9910   29.2930   42.1040 C   0  0  0  0  0  0  0  0  0  0  0  0
   39.2230   28.7710   41.9220 N   0  0  0  0  0  0  0  0  0  0  0  0
   36.4070   28.7560   39.7560 C   0  0  0  0  0  0  0  0  0  0  0  0
   34.9680   29.2100   39.9580 C   0  0  0  0  0  0  0  0  0  0  0  0
   36.6937   30.8254   41.7120 H   0  0  0  0  0  0  0  0  0  0  0  0
   39.0422   31.7186   42.0993 H   0  0  0  0  0  0  0  0  0  0  0  0
   39.4778   31.0994   40.4777 H   0  0  0  0  0  0  0  0  0  0  0  0
   37.3594   33.1298   41.2128 H   0  0  0  0  0  0  0  0  0  0  0  0
   38.8856   33.3386   40.2121 H   0  0  0  0  0  0  0  0  0  0  0  0
   36.5264   33.2125   39.1322 H   0  0  0  0  0  0  0  0  0  0  0  0
   38.0496   32.4193   38.4294 H   0  0  0  0  0  0  0  0  0  0  0  0
   35.5942   31.2308   39.5337 H   0  0  0  0  0  0  0  0  0  0  0  0
   36.6013   30.8788   38.0315 H   0  0  0  0  0  0  0  0  0  0  0  0
   38.2140   29.6779   39.2878 H   0  0  0  0  0  0  0  0  0  0  0  0
   40.6339   27.3375   42.5719 H   0  0  0  0  0  0  0  0  0  0  0  0
   39.1316   26.4241   44.3778 H   0  0  0  0  0  0  0  0  0  0  0  0
   36.8290   27.4355   44.6839 H   0  0  0  0  0  0  0  0  0  0  0  0
   36.5068   28.2535   38.7826 H   0  0  0  0  0  0  0  0  0  0  0  0
   36.6989   28.0481   40.5457 H   0  0  0  0  0  0  0  0  0  0  0  0
   34.7527   29.2779   41.0346 H   0  0  0  0  0  0  0  0  0  0  0  0
   34.8260   30.1966   39.4927 H   0  0  0  0  0  0  0  0  0  0  0  0
   34.2856   28.4835   39.4927 H   0  0  0  0  0  0  0  0  0  0  0  0
  1 11  1  0
  2  1  1  0
  3  2  1  0
  4  3  1  0
  5  4  1  0
  5  6  1  0
  6  1  1  0
  7  8  2  0
  8  9  1  0
 10  9  2  0
 11 10  1  0
 12 11  2  0
 12  7  1  0
 13  6  1  0
 13 14  1  0
  1 15  1  1
  2 16  1  0
  2 17  1  0
  3 18  1  0
  3 19  1  0
  4 20  1  0
  4 21  1  0
  5 22  1  0
  5 23  1  0
  6 24  1  6
  7 25  1  0
  8 26  1  0
  9 27  1  0
 13 28  1  0
 13 29  1  0
 14 30  1  0
 14 31  1  0
 14 32  1  0
M  ISO  8  15  13  16  13  17  13  18  13  19  13  20  13  21  13  22  13
M  ISO  8  23  13  24  13  25  14  26  14  27  14  28   8  29   8  30   8
M  ISO  2  31   8  32   8
M  END
>  <minimizedAffinity>  (1) 
-4.1890521

>  <minimizedRMSD>  (1) 
1.46205389

$$$$
