
     RDKit          3D

 28 29  0  0  1  0  0  0  0  0999 V2000
   37.0350   30.3710   40.2740 C   0  0  1  0  0  0  0  0  0  0  0  0
   37.5570   31.7470   40.5550 C   0  0  0  0  0  0  0  0  0  0  0  0
   37.1150   32.6390   39.4500 C   0  0  0  0  0  0  0  0  0  0  0  0
   37.4100   32.1350   38.0860 C   0  0  0  0  0  0  0  0  0  0  0  0
   37.3910   30.6560   37.8850 C   0  0  0  0  0  0  0  0  0  0  0  0
   37.8470   29.8460   39.0830 C   0  0  1  0  0  0  0  0  0  0  0  0
   38.2020   28.9830   43.4710 C   0  0  0  0  0  0  0  0  0  0  0  0
   37.3310   27.8740   43.6590 C   0  0  0  0  0  0  0  0  0  0  0  0
   36.3480   27.5910   42.6880 C   0  0  0  0  0  0  0  0  0  0  0  0
   36.2940   28.4170   41.6130 N   0  0  0  0  0  0  0  0  0  0  0  0
   37.1300   29.4660   41.4520 C   0  0  0  0  0  0  0  0  0  0  0  0
   38.0730   29.7420   42.3740 N   0  0  0  0  0  0  0  0  0  0  0  0
   39.2590   30.1160   39.2800 N   0  0  0  0  0  0  0  0  0  0  0  0
   35.9602   30.4073   40.0427 H   0  0  0  0  0  0  0  0  0  0  0  0
   37.1552   32.1107   41.5122 H   0  0  0  0  0  0  0  0  0  0  0  0
   38.6550   31.7339   40.6205 H   0  0  0  0  0  0  0  0  0  0  0  0
   36.0270   32.7764   39.5359 H   0  0  0  0  0  0  0  0  0  0  0  0
   37.6817   33.5750   39.5629 H   0  0  0  0  0  0  0  0  0  0  0  0
   36.6651   32.5710   37.4041 H   0  0  0  0  0  0  0  0  0  0  0  0
   38.4510   32.4334   37.8931 H   0  0  0  0  0  0  0  0  0  0  0  0
   36.3608   30.3569   37.6416 H   0  0  0  0  0  0  0  0  0  0  0  0
   38.1066   30.4439   37.0770 H   0  0  0  0  0  0  0  0  0  0  0  0
   37.7011   28.7628   38.9586 H   0  0  0  0  0  0  0  0  0  0  0  0
   38.9742   29.2154   44.2191 H   0  0  0  0  0  0  0  0  0  0  0  0
   37.4235   27.2422   44.5547 H   0  0  0  0  0  0  0  0  0  0  0  0
   35.6581   26.7412   42.7970 H   0  0  0  0  0  0  0  0  0  0  0  0
   39.4636   30.1551   40.2887 H   0  0  0  0  0  0  0  0  0  0  0  0
   39.8158   29.3662   38.8456 H   0  0  0  0  0  0  0  0  0  0  0  0
  1  2  1  0
  1 11  1  0
  3  2  1  0
  4  3  1  0
  5  4  1  0
  5  6  1  0
  6 13  1  0
  6  1  1  0
  7  8  2  0
  9  8  1  0
 10  9  2  0
 11 10  1  0
 11 12  2  0
 12  7  1  0
  1 14  1  6
  2 15  1  0
  2 16  1  0
  3 17  1  0
  3 18  1  0
  4 19  1  0
  4 20  1  0
  5 21  1  0
  5 22  1  0
  6 23  1  6
  7 24  1  0
  8 25  1  0
  9 26  1  0
 13 27  1  0
 13 28  1  0
M  ISO  8  14  13  15  13  16  13  17  13  18  13  19  13  20  13  21  13
M  ISO  7  22  13  23  13  24  14  25  14  26  14  27   5  28   5
M  END
>  <minimizedAffinity>  (1) 
-4.13119125

>  <minimizedRMSD>  (1) 
0.117860951

$$$$
