
     RDKit          3D

 28 29  0  0  1  0  0  0  0  0999 V2000
   36.9650   30.4320   40.3380 C   0  0  1  0  0  0  0  0  0  0  0  0
   37.6590   31.7350   40.5990 C   0  0  0  0  0  0  0  0  0  0  0  0
   37.2140   32.6990   39.5570 C   0  0  0  0  0  0  0  0  0  0  0  0
   37.3520   32.2080   38.1550 C   0  0  0  0  0  0  0  0  0  0  0  0
   37.1730   30.7470   37.9250 C   0  0  0  0  0  0  0  0  0  0  0  0
   37.5870   29.8630   39.0600 C   0  0  1  0  0  0  0  0  0  0  0  0
   38.1080   28.9750   43.5130 C   0  0  0  0  0  0  0  0  0  0  0  0
   37.3090   27.8030   43.6160 C   0  0  0  0  0  0  0  0  0  0  0  0
   36.3820   27.5020   42.5950 C   0  0  0  0  0  0  0  0  0  0  0  0
   36.3120   28.3720   41.5560 N   0  0  0  0  0  0  0  0  0  0  0  0
   37.0810   29.4790   41.4800 C   0  0  0  0  0  0  0  0  0  0  0  0
   37.9600   29.7740   42.4390 N   0  0  0  0  0  0  0  0  0  0  0  0
   39.0460   29.7610   39.1280 C   0  0  0  0  0  0  0  0  0  0  0  0
   40.1770   30.0350   38.8410 O   0  0  0  0  0  0  0  0  0  0  0  0
   35.8835   30.5934   40.2183 H   0  0  0  0  0  0  0  0  0  0  0  0
   37.3888   32.1104   41.5970 H   0  0  0  0  0  0  0  0  0  0  0  0
   38.7507   31.6048   40.5635 H   0  0  0  0  0  0  0  0  0  0  0  0
   36.1539   32.9320   39.7358 H   0  0  0  0  0  0  0  0  0  0  0  0
   37.8705   33.5772   39.6450 H   0  0  0  0  0  0  0  0  0  0  0  0
   36.6024   32.7334   37.5450 H   0  0  0  0  0  0  0  0  0  0  0  0
   38.3987   32.4116   37.8848 H   0  0  0  0  0  0  0  0  0  0  0  0
   36.1074   30.5633   37.7229 H   0  0  0  0  0  0  0  0  0  0  0  0
   37.8332   30.4894   37.0837 H   0  0  0  0  0  0  0  0  0  0  0  0
   37.2253   28.8339   38.9181 H   0  0  0  0  0  0  0  0  0  0  0  0
   38.8360   29.2252   44.2988 H   0  0  0  0  0  0  0  0  0  0  0  0
   37.4126   27.1362   44.4847 H   0  0  0  0  0  0  0  0  0  0  0  0
   35.7467   26.6051   42.6395 H   0  0  0  0  0  0  0  0  0  0  0  0
   39.1856   28.9733   39.8830 H   0  0  0  0  0  0  0  0  0  0  0  0
  1  2  1  0
  1 11  1  0
  3  2  1  0
  4  3  1  0
  5  4  1  0
  5  6  1  0
  6 13  1  0
  6  1  1  0
  7  8  2  0
  9  8  1  0
 10  9  2  0
 11 10  1  0
 11 12  2  0
 12  7  1  0
 14 13  2  0
  1 15  1  6
  2 16  1  0
  2 17  1  0
  3 18  1  0
  3 19  1  0
  4 20  1  0
  4 21  1  0
  5 22  1  0
  5 23  1  0
  6 24  1  6
  7 25  1  0
  8 26  1  0
  9 27  1  0
 13 28  1  0
M  ISO  8  15  13  16  13  17  13  18  13  19  13  20  13  21  13  22  13
M  ISO  6  23  13  24  13  25  14  26  14  27  14  28   6
M  END
>  <minimizedAffinity>  (1) 
-4.06707239

>  <minimizedRMSD>  (1) 
0.0558841489

$$$$
