
     RDKit          3D

 13 13  0  0  0  0  0  0  0  0999 V2000
   38.4220   29.3440   42.7820 C   0  0  0  0  0  0  0  0  0  0  0  0
   37.3080   29.4700   41.9380 C   0  0  0  0  0  0  0  0  0  0  0  0
   36.5180   28.3150   41.7490 C   0  0  0  0  0  0  0  0  0  0  0  0
   36.8930   27.1860   42.3910 N   0  0  0  0  0  0  0  0  0  0  0  0
   37.9670   27.0980   43.1950 C   0  0  0  0  0  0  0  0  0  0  0  0
   38.7230   28.1870   43.3810 N   0  0  0  0  0  0  0  0  0  0  0  0
   36.9120   30.6900   41.2500 C   0  0  0  0  0  0  0  0  0  0  0  0
   37.6990   31.4100   40.5870 O   0  0  0  0  0  0  0  0  0  0  0  0
   35.5580   31.0170   41.3810 O   0  0  0  0  0  0  0  0  0  0  0  0
   39.0644   30.2199   42.9554 H   0  0  0  0  0  0  0  0  0  0  0  0
   35.6286   28.3333   41.1020 H   0  0  0  0  0  0  0  0  0  0  0  0
   38.2197   26.1491   43.6906 H   0  0  0  0  0  0  0  0  0  0  0  0
   35.2010   31.8311   40.9453 H   0  0  0  0  0  0  0  0  0  0  0  0
  1  6  2  0
  2  1  1  0
  3  2  2  0
  3  4  1  0
  4  5  2  0
  5  6  1  0
  7  9  1  0
  7  2  1  0
  8  7  2  0
  1 10  1  0
  3 11  1  0
  5 12  1  0
  9 13  1  0
M  ISO  4  10  14  11  14  12  14  13   3
M  END
>  <minimizedAffinity>  (1) 
-3.51252413

>  <minimizedRMSD>  (1) 
3.88135433

$$$$
