
     RDKit          3D

 16 16  0  0  0  0  0  0  0  0999 V2000
   38.3570   26.7760   40.8630 C   0  0  0  0  0  0  0  0  0  0  0  0
   38.6840   26.3590   42.1580 C   0  0  0  0  0  0  0  0  0  0  0  0
   38.6130   24.9750   42.4130 C   0  0  0  0  0  0  0  0  0  0  0  0
   38.2400   24.1740   41.3940 N   0  0  0  0  0  0  0  0  0  0  0  0
   37.9340   24.6050   40.1640 C   0  0  0  0  0  0  0  0  0  0  0  0
   37.9960   25.9270   39.9050 N   0  0  0  0  0  0  0  0  0  0  0  0
   39.0880   27.2410   43.2550 C   0  0  0  0  0  0  0  0  0  0  0  0
   40.1580   27.9180   43.2380 O   0  0  0  0  0  0  0  0  0  0  0  0
   38.2020   27.2780   44.3230 O   0  0  0  0  0  0  0  0  0  0  0  0
   36.9790   27.9930   44.2460 C   0  0  0  0  0  0  0  0  0  0  0  0
   36.5870   28.4490   45.4900 F   0  0  0  0  0  0  0  0  0  0  0  0
   37.2120   29.1020   43.4610 F   0  0  0  0  0  0  0  0  0  0  0  0
   35.9600   27.2070   43.7340 F   0  0  0  0  0  0  0  0  0  0  0  0
   38.4003   27.8497   40.6277 H   0  0  0  0  0  0  0  0  0  0  0  0
   38.8525   24.5638   43.4047 H   0  0  0  0  0  0  0  0  0  0  0  0
   37.6374   23.8938   39.3790 H   0  0  0  0  0  0  0  0  0  0  0  0
  1  2  2  0
  2  3  1  0
  2  7  1  0
  4  3  2  0
  5  4  1  0
  6  5  2  0
  6  1  1  0
  7  9  1  0
  8  7  2  0
 10  9  1  0
 10 11  1  0
 12 10  1  0
 13 10  1  0
  1 14  1  0
  3 15  1  0
  5 16  1  0
M  ISO  3  14  14  15  14  16  14
M  END
>  <minimizedAffinity>  (1) 
-3.85859847

>  <minimizedRMSD>  (1) 
4.8134203

$$$$
