
     RDKit          3D

 29 30  0  0  0  0  0  0  0  0999 V2000
   36.8090   31.4120   39.4570 C   0  0  0  0  0  0  0  0  0  0  0  0
   39.5240   34.6250   40.4080 C   0  0  0  0  0  0  0  0  0  0  0  0
   38.2670   34.8990   39.9290 C   0  0  0  0  0  0  0  0  0  0  0  0
   37.4240   33.8450   39.6350 C   0  0  0  0  0  0  0  0  0  0  0  0
   37.7810   32.5200   39.7980 C   0  0  0  0  0  0  0  0  0  0  0  0
   39.0550   32.2630   40.2830 C   0  0  0  0  0  0  0  0  0  0  0  0
   39.9110   33.3130   40.5820 C   0  0  0  0  0  0  0  0  0  0  0  0
   40.5390   36.0060   40.7590 S   0  0  0  0  0  0  0  0  0  0  0  0
   41.8740   35.6340   41.3050 O   0  0  0  0  0  0  0  0  0  0  0  0
   40.6850   36.8660   39.5240 O   0  0  0  0  0  0  0  0  0  0  0  0
   36.3430   30.9530   40.6680 O   0  0  0  0  0  0  0  0  0  0  0  0
   35.9300   29.6450   40.9130 C   0  0  0  0  0  0  0  0  0  0  0  0
   34.8900   29.2240   40.4100 O   0  0  0  0  0  0  0  0  0  0  0  0
   37.8800   29.5150   42.5060 C   0  0  0  0  0  0  0  0  0  0  0  0
   36.8470   28.8920   41.7960 C   0  0  0  0  0  0  0  0  0  0  0  0
   36.6570   27.5220   41.9020 C   0  0  0  0  0  0  0  0  0  0  0  0
   37.5220   26.8660   42.7190 N   0  0  0  0  0  0  0  0  0  0  0  0
   38.5130   27.4610   43.4000 C   0  0  0  0  0  0  0  0  0  0  0  0
   38.6940   28.7940   43.2930 N   0  0  0  0  0  0  0  0  0  0  0  0
   35.9800   31.8006   38.8473 H   0  0  0  0  0  0  0  0  0  0  0  0
   37.2868   30.6127   38.8715 H   0  0  0  0  0  0  0  0  0  0  0  0
   37.9374   35.9381   39.7821 H   0  0  0  0  0  0  0  0  0  0  0  0
   36.4181   34.0717   39.2519 H   0  0  0  0  0  0  0  0  0  0  0  0
   39.3871   31.2248   40.4308 H   0  0  0  0  0  0  0  0  0  0  0  0
   40.9186   33.0946   40.9655 H   0  0  0  0  0  0  0  0  0  0  0  0
   39.9129   36.7197   41.7467 H   0  0  0  0  0  0  0  0  0  0  0  0
   38.0256   30.6018   42.4185 H   0  0  0  0  0  0  0  0  0  0  0  0
   35.8561   26.9994   41.3586 H   0  0  0  0  0  0  0  0  0  0  0  0
   39.1760   26.8641   44.0436 H   0  0  0  0  0  0  0  0  0  0  0  0
  1  5  1  0
  1 11  1  0
  2  7  2  0
  2  8  1  0
  3  2  1  0
  4  5  1  0
  4  3  2  0
  5  6  2  0
  6  7  1  0
  8  9  2  0
 10  8  2  0
 11 12  1  0
 12 15  1  0
 13 12  2  0
 14 19  2  0
 15 16  2  0
 15 14  1  0
 16 17  1  0
 17 18  2  0
 19 18  1  0
  1 20  1  0
  1 21  1  0
  3 22  1  0
  4 23  1  0
  6 24  1  0
  7 25  1  0
  8 26  1  0
 14 27  1  0
 16 28  1  0
 18 29  1  0
M  ISO  8  20   8  21   8  22  14  23  14  24  14  25  14  26  11  27  14
M  ISO  2  28  14  29  14
M  END
>  <minimizedAffinity>  (1) 
-5.1140871

>  <minimizedRMSD>  (1) 
1.68109667

$$$$
