
     RDKit          3D

 23 24  0  0  0  0  0  0  0  0999 V2000
   36.1260   30.0870   40.8730 C   0  0  0  0  0  0  0  0  0  0  0  0
   35.1390   29.7430   40.2250 O   0  0  0  0  0  0  0  0  0  0  0  0
   38.0800   29.6680   42.4060 C   0  0  0  0  0  0  0  0  0  0  0  0
   36.8890   29.2240   41.7860 C   0  0  0  0  0  0  0  0  0  0  0  0
   36.4360   27.9370   42.0360 C   0  0  0  0  0  0  0  0  0  0  0  0
   37.1840   27.1890   42.8750 N   0  0  0  0  0  0  0  0  0  0  0  0
   38.3210   27.6270   43.4610 C   0  0  0  0  0  0  0  0  0  0  0  0
   38.7720   28.8770   43.2240 N   0  0  0  0  0  0  0  0  0  0  0  0
   36.5950   31.3940   40.7630 O   0  0  0  0  0  0  0  0  0  0  0  0
   36.9980   31.9720   39.5800 C   0  0  0  0  0  0  0  0  0  0  0  0
   37.8460   33.1700   39.9590 C   0  0  0  0  0  0  0  0  0  0  0  0
   38.8960   33.1880   40.8550 C   0  0  0  0  0  0  0  0  0  0  0  0
   39.4020   34.4330   40.9270 N   0  0  0  0  0  0  0  0  0  0  0  0
   38.6770   35.2070   40.0790 C   0  0  0  0  0  0  0  0  0  0  0  0
   37.7470   34.4340   39.5060 N   0  0  0  0  0  0  0  0  0  0  0  0
   38.4423   30.6877   42.2085 H   0  0  0  0  0  0  0  0  0  0  0  0
   35.5165   27.5467   41.5753 H   0  0  0  0  0  0  0  0  0  0  0  0
   38.8813   26.9615   44.1342 H   0  0  0  0  0  0  0  0  0  0  0  0
   36.1232   32.2940   38.9960 H   0  0  0  0  0  0  0  0  0  0  0  0
   37.5644   31.2612   38.9603 H   0  0  0  0  0  0  0  0  0  0  0  0
   39.2623   32.3195   41.4221 H   0  0  0  0  0  0  0  0  0  0  0  0
   38.8277   36.2810   39.8953 H   0  0  0  0  0  0  0  0  0  0  0  0
   37.0543   34.7596   38.8168 H   0  0  0  0  0  0  0  0  0  0  0  0
  1  4  1  0
  2  1  2  0
  3  8  2  0
  4  5  2  0
  4  3  1  0
  5  6  1  0
  6  7  2  0
  8  7  1  0
  9  1  1  0
 10 11  1  0
 10  9  1  0
 11 12  2  0
 12 13  1  0
 14 13  2  0
 15 11  1  0
 15 14  1  0
  3 16  1  0
  5 17  1  0
  7 18  1  0
 10 19  1  0
 10 20  1  0
 12 21  1  0
 14 22  1  0
 15 23  1  0
M  ISO  8  16  14  17  14  18  14  19   8  20   8  21  14  22  14  23   9
M  END
>  <minimizedAffinity>  (1) 
-4.44087553

>  <minimizedRMSD>  (1) 
0.573717773

$$$$
