
     RDKit          3D

 24 25  0  0  0  0  0  0  0  0999 V2000
   36.2000   30.1110   40.9670 C   0  0  0  0  0  0  0  0  0  0  0  0
   35.1840   29.7990   40.3470 O   0  0  0  0  0  0  0  0  0  0  0  0
   38.2330   29.6290   42.3960 C   0  0  0  0  0  0  0  0  0  0  0  0
   37.0020   29.2240   41.8370 C   0  0  0  0  0  0  0  0  0  0  0  0
   36.5070   27.9540   42.0900 C   0  0  0  0  0  0  0  0  0  0  0  0
   37.2750   27.1670   42.8870 N   0  0  0  0  0  0  0  0  0  0  0  0
   38.4430   27.5450   43.4200 C   0  0  0  0  0  0  0  0  0  0  0  0
   38.9190   28.7880   43.1680 N   0  0  0  0  0  0  0  0  0  0  0  0
   36.6910   31.4090   40.8810 O   0  0  0  0  0  0  0  0  0  0  0  0
   36.9820   32.0620   39.7060 C   0  0  0  0  0  0  0  0  0  0  0  0
   38.1620   32.9660   40.0060 C   0  0  0  0  0  0  0  0  0  0  0  0
   39.4330   32.4710   40.2800 C   0  0  0  0  0  0  0  0  0  0  0  0
   40.4300   33.3880   40.5390 C   0  0  0  0  0  0  0  0  0  0  0  0
   40.2500   34.7210   40.5450 N   0  0  0  0  0  0  0  0  0  0  0  0
   39.0090   35.1660   40.2760 C   0  0  0  0  0  0  0  0  0  0  0  0
   38.0290   34.3040   40.0230 N   0  0  0  0  0  0  0  0  0  0  0  0
   38.6249   30.6369   42.1946 H   0  0  0  0  0  0  0  0  0  0  0  0
   35.5515   27.6054   41.6712 H   0  0  0  0  0  0  0  0  0  0  0  0
   39.0118   26.8521   44.0574 H   0  0  0  0  0  0  0  0  0  0  0  0
   36.1183   32.6586   39.3772 H   0  0  0  0  0  0  0  0  0  0  0  0
   37.2160   31.3514   38.8996 H   0  0  0  0  0  0  0  0  0  0  0  0
   39.6350   31.3897   40.2897 H   0  0  0  0  0  0  0  0  0  0  0  0
   41.4381   33.0043   40.7547 H   0  0  0  0  0  0  0  0  0  0  0  0
   38.8046   36.2468   40.2654 H   0  0  0  0  0  0  0  0  0  0  0  0
  1  4  1  0
  2  1  2  0
  3  8  2  0
  4  5  2  0
  4  3  1  0
  5  6  1  0
  6  7  2  0
  8  7  1  0
  9  1  1  0
 10 11  1  0
 10  9  1  0
 11 16  1  0
 11 12  2  0
 12 13  1  0
 13 14  2  0
 15 14  1  0
 16 15  2  0
  3 17  1  0
  5 18  1  0
  7 19  1  0
 10 20  1  0
 10 21  1  0
 12 22  1  0
 13 23  1  0
 15 24  1  0
M  ISO  8  17  14  18  14  19  14  20   8  21   8  22  14  23  14  24  14
M  END
>  <minimizedAffinity>  (1) 
-4.42774153

>  <minimizedRMSD>  (1) 
1.4885056

$$$$
