
     RDKit          3D

 29 30  0  0  0  0  0  0  0  0999 V2000
   36.8130   30.9240   40.1670 C   0  0  0  0  0  0  0  0  0  0  0  0
   36.4810   30.6940   39.0080 O   0  0  0  0  0  0  0  0  0  0  0  0
   38.1470   30.0150   42.1010 C   0  0  0  0  0  0  0  0  0  0  0  0
   37.0520   29.9090   41.2130 C   0  0  0  0  0  0  0  0  0  0  0  0
   36.1820   28.8320   41.3030 C   0  0  0  0  0  0  0  0  0  0  0  0
   36.4550   27.9350   42.2650 N   0  0  0  0  0  0  0  0  0  0  0  0
   37.5080   28.0370   43.1170 C   0  0  0  0  0  0  0  0  0  0  0  0
   38.3480   29.0770   43.0300 N   0  0  0  0  0  0  0  0  0  0  0  0
   36.9880   32.2420   40.5660 O   0  0  0  0  0  0  0  0  0  0  0  0
   37.8310   33.1470   39.9570 C   0  0  0  0  0  0  0  0  0  0  0  0
   38.9170   33.5630   40.8760 N   0  0  0  0  0  0  0  0  0  0  0  0
   40.1070   32.8940   40.4210 C   0  0  0  0  0  0  0  0  0  0  0  0
   41.3640   33.6780   40.7030 C   0  0  0  0  0  0  0  0  0  0  0  0
   41.3110   34.9990   40.3140 O   0  0  0  0  0  0  0  0  0  0  0  0
   40.0970   35.4290   39.8400 C   0  0  0  0  0  0  0  0  0  0  0  0
   39.0450   35.0070   40.8390 C   0  0  0  0  0  0  0  0  0  0  0  0
   38.8340   30.8709   42.0266 H   0  0  0  0  0  0  0  0  0  0  0  0
   35.3210   28.7195   40.6277 H   0  0  0  0  0  0  0  0  0  0  0  0
   37.6716   27.2629   43.8812 H   0  0  0  0  0  0  0  0  0  0  0  0
   38.2739   32.6816   39.0641 H   0  0  0  0  0  0  0  0  0  0  0  0
   37.2475   34.0369   39.6785 H   0  0  0  0  0  0  0  0  0  0  0  0
   40.0278   32.7361   39.3353 H   0  0  0  0  0  0  0  0  0  0  0  0
   40.1811   31.9426   40.9682 H   0  0  0  0  0  0  0  0  0  0  0  0
   41.5537   33.6458   41.7860 H   0  0  0  0  0  0  0  0  0  0  0  0
   42.1651   33.2091   40.1128 H   0  0  0  0  0  0  0  0  0  0  0  0
   40.1001   36.5242   39.7377 H   0  0  0  0  0  0  0  0  0  0  0  0
   39.8902   34.9930   38.8515 H   0  0  0  0  0  0  0  0  0  0  0  0
   39.3307   35.3690   41.8376 H   0  0  0  0  0  0  0  0  0  0  0  0
   38.0794   35.4380   40.5361 H   0  0  0  0  0  0  0  0  0  0  0  0
  1  9  1  0
  1  4  1  0
  2  1  2  0
  3  8  2  0
  4  5  2  0
  4  3  1  0
  5  6  1  0
  6  7  2  0
  8  7  1  0
 10  9  1  0
 10 11  1  0
 12 13  1  0
 12 11  1  0
 14 13  1  0
 15 14  1  0
 15 16  1  0
 16 11  1  0
  3 17  1  0
  5 18  1  0
  7 19  1  0
 10 20  1  0
 10 21  1  0
 12 22  1  0
 12 23  1  0
 13 24  1  0
 13 25  1  0
 15 26  1  0
 15 27  1  0
 16 28  1  0
 16 29  1  0
M  ISO  8  17  14  18  14  19  14  20   8  21   8  22  13  23  13  24  13
M  ISO  5  25  13  26  13  27  13  28  13  29  13
M  END
>  <minimizedAffinity>  (1) 
-4.23659849

>  <minimizedRMSD>  (1) 
2.18321514

$$$$
