
     RDKit          3D

 23 24  0  0  0  0  0  0  0  0999 V2000
   36.2220   30.2030   40.8630 C   0  0  0  0  0  0  0  0  0  0  0  0
   35.2540   29.9190   40.1590 O   0  0  0  0  0  0  0  0  0  0  0  0
   38.1370   29.6760   42.4330 C   0  0  0  0  0  0  0  0  0  0  0  0
   36.9420   29.3040   41.7830 C   0  0  0  0  0  0  0  0  0  0  0  0
   36.4120   28.0390   42.0000 C   0  0  0  0  0  0  0  0  0  0  0  0
   37.0930   27.2330   42.8380 N   0  0  0  0  0  0  0  0  0  0  0  0
   38.2310   27.5840   43.4590 C   0  0  0  0  0  0  0  0  0  0  0  0
   38.7540   28.8240   43.2500 N   0  0  0  0  0  0  0  0  0  0  0  0
   36.7350   31.4960   40.8300 O   0  0  0  0  0  0  0  0  0  0  0  0
   37.0960   32.1690   39.6860 C   0  0  0  0  0  0  0  0  0  0  0  0
   38.2470   33.0350   39.7470 N   0  0  0  0  0  0  0  0  0  0  0  0
   38.3380   34.2970   40.2070 C   0  0  0  0  0  0  0  0  0  0  0  0
   39.6080   34.8060   40.1040 C   0  0  0  0  0  0  0  0  0  0  0  0
   40.3280   33.8080   39.5540 N   0  0  0  0  0  0  0  0  0  0  0  0
   39.5160   32.7590   39.3440 C   0  0  0  0  0  0  0  0  0  0  0  0
   38.5623   30.6763   42.2642 H   0  0  0  0  0  0  0  0  0  0  0  0
   35.4823   27.7111   41.5120 H   0  0  0  0  0  0  0  0  0  0  0  0
   38.7368   26.8753   44.1313 H   0  0  0  0  0  0  0  0  0  0  0  0
   36.2371   32.7866   39.3846 H   0  0  0  0  0  0  0  0  0  0  0  0
   37.3844   31.3767   38.9795 H   0  0  0  0  0  0  0  0  0  0  0  0
   37.4872   34.8586   40.6202 H   0  0  0  0  0  0  0  0  0  0  0  0
   39.9597   35.8044   40.4031 H   0  0  0  0  0  0  0  0  0  0  0  0
   39.8354   31.8027   38.9040 H   0  0  0  0  0  0  0  0  0  0  0  0
  1  4  1  0
  2  1  2  0
  3  8  2  0
  4  5  2  0
  4  3  1  0
  5  6  1  0
  6  7  2  0
  8  7  1  0
  9  1  1  0
 10 11  1  0
 10  9  1  0
 11 12  1  0
 13 12  2  0
 14 13  1  0
 15 14  2  0
 15 11  1  0
  3 16  1  0
  5 17  1  0
  7 18  1  0
 10 19  1  0
 10 20  1  0
 12 21  1  0
 13 22  1  0
 15 23  1  0
M  ISO  8  16  14  17  14  18  14  19   8  20   8  21  14  22  14  23  14
M  END
>  <minimizedAffinity>  (1) 
-4.09143257

>  <minimizedRMSD>  (1) 
2.03793931

$$$$
