
     RDKit          3D

 39 41  0  0  1  0  0  0  0  0999 V2000
   39.1500   26.1140   42.2560 C   0  0  1  0  0  0  0  0  0  0  0  0
   38.9070   24.7430   41.5810 C   0  0  0  0  0  0  0  0  0  0  0  0
   37.5380   24.3290   41.9870 C   0  0  0  0  0  0  0  0  0  0  0  0
   36.8710   25.6800   42.2510 C   0  0  0  0  0  0  0  0  0  0  0  0
   37.9490   26.3410   43.0810 C   0  0  2  0  0  0  0  0  0  0  0  0
   41.9480   26.9320   44.6570 C   0  0  0  0  0  0  0  0  0  0  0  0
   40.6840   26.9940   44.0590 C   0  0  0  0  0  0  0  0  0  0  0  0
   40.4200   26.1440   42.9630 C   0  0  0  0  0  0  0  0  0  0  0  0
   41.4020   25.3030   42.5380 N   0  0  0  0  0  0  0  0  0  0  0  0
   42.6030   25.2640   43.1310 C   0  0  0  0  0  0  0  0  0  0  0  0
   42.8840   26.0700   44.1850 N   0  0  0  0  0  0  0  0  0  0  0  0
   37.5090   27.7490   43.2480 C   0  0  2  0  0  0  0  0  0  0  0  0
   36.8270   28.0680   44.5350 C   0  0  0  0  0  0  0  0  0  0  0  0
   36.5300   28.0170   42.1180 C   0  0  0  0  0  0  0  0  0  0  0  0
   36.9390   29.3320   41.6170 N   0  0  0  0  0  0  0  0  0  0  0  0
   36.1460   30.2680   41.0170 C   0  0  0  0  0  0  0  0  0  0  0  0
   36.8630   31.3820   40.6790 C   0  0  0  0  0  0  0  0  0  0  0  0
   38.1180   31.1200   41.0830 N   0  0  0  0  0  0  0  0  0  0  0  0
   38.1800   29.9000   41.6450 C   0  0  0  0  0  0  0  0  0  0  0  0
   39.2644   26.9448   41.5442 H   0  0  0  0  0  0  0  0  0  0  0  0
   39.6483   24.0082   41.9283 H   0  0  0  0  0  0  0  0  0  0  0  0
   39.0029   24.8075   40.4871 H   0  0  0  0  0  0  0  0  0  0  0  0
   37.0289   23.7813   41.1802 H   0  0  0  0  0  0  0  0  0  0  0  0
   37.5154   23.6441   42.8475 H   0  0  0  0  0  0  0  0  0  0  0  0
   36.6778   26.2301   41.3182 H   0  0  0  0  0  0  0  0  0  0  0  0
   35.8824   25.6253   42.7303 H   0  0  0  0  0  0  0  0  0  0  0  0
   38.1480   25.9754   44.0992 H   0  0  0  0  0  0  0  0  0  0  0  0
   42.1833   27.5835   45.5115 H   0  0  0  0  0  0  0  0  0  0  0  0
   39.9162   27.6871   44.4333 H   0  0  0  0  0  0  0  0  0  0  0  0
   43.3705   24.5697   42.7583 H   0  0  0  0  0  0  0  0  0  0  0  0
   38.4132   28.3754   43.2405 H   0  0  0  0  0  0  0  0  0  0  0  0
   37.4701   27.7672   45.3752 H   0  0  0  0  0  0  0  0  0  0  0  0
   36.6344   29.1496   44.5896 H   0  0  0  0  0  0  0  0  0  0  0  0
   35.8733   27.5225   44.5896 H   0  0  0  0  0  0  0  0  0  0  0  0
   36.6173   27.2521   41.3323 H   0  0  0  0  0  0  0  0  0  0  0  0
   35.4800   27.9902   42.4449 H   0  0  0  0  0  0  0  0  0  0  0  0
   35.0694   30.1420   40.8298 H   0  0  0  0  0  0  0  0  0  0  0  0
   36.4939   32.2928   40.1849 H   0  0  0  0  0  0  0  0  0  0  0  0
   39.0857   29.4343   42.0607 H   0  0  0  0  0  0  0  0  0  0  0  0
  1  8  1  0
  1  5  1  0
  2  3  1  0
  2  1  1  0
  3  4  1  0
  4  5  1  0
  5 12  1  0
  7  6  2  0
  8  7  1  0
  9  8  2  0
  9 10  1  0
 10 11  2  0
 11  6  1  0
 12 13  1  0
 14 12  1  0
 15 19  1  0
 15 14  1  0
 16 15  1  0
 17 16  2  0
 17 18  1  0
 18 19  2  0
  1 20  1  6
  2 21  1  0
  2 22  1  0
  3 23  1  0
  3 24  1  0
  4 25  1  0
  4 26  1  0
  5 27  1  1
  6 28  1  0
  7 29  1  0
 10 30  1  0
 12 31  1  6
 13 32  1  0
 13 33  1  0
 13 34  1  0
 14 35  1  0
 14 36  1  0
 16 37  1  0
 17 38  1  0
 19 39  1  0
M  ISO  8  20  13  21  13  22  13  23  13  24  13  25  13  26  13  27  13
M  ISO  8  28  14  29  14  30  14  31   8  32   8  33   8  34   8  35   8
M  ISO  4  36   8  37  14  38  14  39  14
M  END
>  <minimizedAffinity>  (1) 
-5.25372791

>  <minimizedRMSD>  (1) 
1.1974901

$$$$
