
     RDKit          3D

 32 33  0  0  0  0  0  0  0  0999 V2000
   37.0810   26.1910   40.5260 C   0  0  0  0  0  0  0  0  0  0  0  0
   36.4760   25.1820   40.1940 O   0  0  0  0  0  0  0  0  0  0  0  0
   37.6320   27.2890   42.7270 C   0  0  0  0  0  0  0  0  0  0  0  0
   37.9230   26.3240   41.7350 C   0  0  0  0  0  0  0  0  0  0  0  0
   39.0200   25.4890   41.8800 C   0  0  0  0  0  0  0  0  0  0  0  0
   39.7520   25.6650   42.9930 N   0  0  0  0  0  0  0  0  0  0  0  0
   39.4710   26.5870   43.9390 C   0  0  0  0  0  0  0  0  0  0  0  0
   38.4110   27.3990   43.8050 N   0  0  0  0  0  0  0  0  0  0  0  0
   37.0090   27.3390   39.7440 O   0  0  0  0  0  0  0  0  0  0  0  0
   38.1010   27.9270   39.1710 C   0  0  0  0  0  0  0  0  0  0  0  0
   37.6850   28.7360   37.9430 C   0  0  0  0  0  0  0  0  0  0  0  0
   37.6750   27.7840   36.7720 C   0  0  0  0  0  0  0  0  0  0  0  0
   37.2510   28.4610   35.4910 C   0  0  0  0  0  0  0  0  0  0  0  0
   36.2630   29.5680   35.7850 C   0  0  0  0  0  0  0  0  0  0  0  0
   35.4330   29.2230   37.0090 C   0  0  0  0  0  0  0  0  0  0  0  0
   36.2860   29.2330   38.2520 C   0  0  0  0  0  0  0  0  0  0  0  0
   36.7612   27.9507   42.6097 H   0  0  0  0  0  0  0  0  0  0  0  0
   39.2760   24.7276   41.1286 H   0  0  0  0  0  0  0  0  0  0  0  0
   40.1158   26.6730   44.8260 H   0  0  0  0  0  0  0  0  0  0  0  0
   38.5780   28.5965   39.9020 H   0  0  0  0  0  0  0  0  0  0  0  0
   38.8076   27.1432   38.8604 H   0  0  0  0  0  0  0  0  0  0  0  0
   38.3508   29.5796   37.7085 H   0  0  0  0  0  0  0  0  0  0  0  0
   38.6877   27.3757   36.6386 H   0  0  0  0  0  0  0  0  0  0  0  0
   36.9481   26.9877   36.9900 H   0  0  0  0  0  0  0  0  0  0  0  0
   36.7798   27.7206   34.8279 H   0  0  0  0  0  0  0  0  0  0  0  0
   38.1377   28.8926   35.0037 H   0  0  0  0  0  0  0  0  0  0  0  0
   36.8110   30.5036   35.9702 H   0  0  0  0  0  0  0  0  0  0  0  0
   35.5930   29.6882   34.9209 H   0  0  0  0  0  0  0  0  0  0  0  0
   34.6266   29.9630   37.1186 H   0  0  0  0  0  0  0  0  0  0  0  0
   35.0115   28.2155   36.8777 H   0  0  0  0  0  0  0  0  0  0  0  0
   35.8291   28.5791   39.0093 H   0  0  0  0  0  0  0  0  0  0  0  0
   36.3512   30.2642   38.6292 H   0  0  0  0  0  0  0  0  0  0  0  0
  1  4  1  0
  2  1  2  0
  3  8  2  0
  4  5  2  0
  4  3  1  0
  5  6  1  0
  6  7  2  0
  8  7  1  0
  9  1  1  0
 10  9  1  0
 11 16  1  0
 11 10  1  0
 12 11  1  0
 13 14  1  0
 13 12  1  0
 14 15  1  0
 15 16  1  0
  3 17  1  0
  5 18  1  0
  7 19  1  0
 10 20  1  0
 10 21  1  0
 11 22  1  0
 12 23  1  0
 12 24  1  0
 13 25  1  0
 13 26  1  0
 14 27  1  0
 14 28  1  0
 15 29  1  0
 15 30  1  0
 16 31  1  0
 16 32  1  0
M  ISO  8  17  14  18  14  19  14  20   8  21   8  22  13  23  13  24  13
M  ISO  8  25  13  26  13  27  13  28  13  29  13  30  13  31  13  32  13
M  END
>  <minimizedAffinity>  (1) 
-3.27812958

>  <minimizedRMSD>  (1) 
3.41626287

$$$$
