
     RDKit          3D

 33 34  0  0  0  0  0  0  0  0999 V2000
   36.1310   29.9790   40.9370 C   0  0  0  0  0  0  0  0  0  0  0  0
   35.1890   29.7310   40.1910 O   0  0  0  0  0  0  0  0  0  0  0  0
   37.8960   29.4570   42.6520 C   0  0  0  0  0  0  0  0  0  0  0  0
   36.8840   29.0270   41.7860 C   0  0  0  0  0  0  0  0  0  0  0  0
   36.5440   27.6930   41.6870 C   0  0  0  0  0  0  0  0  0  0  0  0
   37.2640   26.8510   42.4860 N   0  0  0  0  0  0  0  0  0  0  0  0
   38.2350   27.2470   43.3180 C   0  0  0  0  0  0  0  0  0  0  0  0
   38.5610   28.5710   43.4060 N   0  0  0  0  0  0  0  0  0  0  0  0
   36.5690   31.2880   41.0220 O   0  0  0  0  0  0  0  0  0  0  0  0
   37.1550   32.0450   40.0780 C   0  0  0  0  0  0  0  0  0  0  0  0
   38.8140   32.5240   40.7350 S   0  0  0  0  0  0  0  0  0  0  0  0
   39.3570   33.9510   39.7510 C   0  0  0  0  0  0  0  0  0  0  0  0
   38.8170   35.1840   40.3890 C   0  0  0  0  0  0  0  0  0  0  0  0
   40.0020   36.0390   40.8440 C   0  0  0  0  0  0  0  0  0  0  0  0
   40.7890   36.3770   39.5960 C   0  0  0  0  0  0  0  0  0  0  0  0
   41.4970   35.1190   39.1480 C   0  0  0  0  0  0  0  0  0  0  0  0
   40.8640   33.8760   39.7020 C   0  0  0  0  0  0  0  0  0  0  0  0
   38.1464   30.5263   42.7139 H   0  0  0  0  0  0  0  0  0  0  0  0
   35.7513   27.3342   41.0140 H   0  0  0  0  0  0  0  0  0  0  0  0
   38.7703   26.5067   43.9307 H   0  0  0  0  0  0  0  0  0  0  0  0
   36.5506   32.9433   39.8834 H   0  0  0  0  0  0  0  0  0  0  0  0
   37.2489   31.4936   39.1308 H   0  0  0  0  0  0  0  0  0  0  0  0
   38.9851   33.9593   38.7158 H   0  0  0  0  0  0  0  0  0  0  0  0
   38.2093   35.7443   39.6633 H   0  0  0  0  0  0  0  0  0  0  0  0
   38.1820   34.9228   41.2484 H   0  0  0  0  0  0  0  0  0  0  0  0
   39.6434   36.9591   41.3285 H   0  0  0  0  0  0  0  0  0  0  0  0
   40.6243   35.5016   41.5747 H   0  0  0  0  0  0  0  0  0  0  0  0
   40.1078   36.7258   38.8059 H   0  0  0  0  0  0  0  0  0  0  0  0
   41.5155   37.1769   39.8020 H   0  0  0  0  0  0  0  0  0  0  0  0
   41.4684   35.0701   38.0495 H   0  0  0  0  0  0  0  0  0  0  0  0
   42.5299   35.1645   39.5236 H   0  0  0  0  0  0  0  0  0  0  0  0
   41.1518   33.0241   39.0684 H   0  0  0  0  0  0  0  0  0  0  0  0
   41.2207   33.7588   40.7360 H   0  0  0  0  0  0  0  0  0  0  0  0
  1  9  1  0
  1  4  1  0
  2  1  2  0
  3  8  2  0
  4  3  1  0
  5  4  2  0
  5  6  1  0
  6  7  2  0
  7  8  1  0
 10 11  1  0
 10  9  1  0
 12 13  1  0
 12 11  1  0
 13 14  1  0
 15 14  1  0
 16 15  1  0
 16 17  1  0
 17 12  1  0
  3 18  1  0
  5 19  1  0
  7 20  1  0
 10 21  1  0
 10 22  1  0
 12 23  1  0
 13 24  1  0
 13 25  1  0
 14 26  1  0
 14 27  1  0
 15 28  1  0
 15 29  1  0
 16 30  1  0
 16 31  1  0
 17 32  1  0
 17 33  1  0
M  ISO  8  18  14  19  14  20  14  21   8  22   8  23  13  24  13  25  13
M  ISO  8  26  13  27  13  28  13  29  13  30  13  31  13  32  13  33  13
M  END
>  <minimizedAffinity>  (1) 
-4.73056602

>  <minimizedRMSD>  (1) 
0.774299324

$$$$
