
     RDKit          3D

 25 26  0  0  0  0  0  0  0  0999 V2000
   36.4590   31.2410   41.0890 O   0  0  0  0  0  0  0  0  0  0  0  0
   37.1540   32.0190   40.1650 C   0  0  0  0  0  0  0  0  0  0  0  0
   38.8540   32.2000   40.8110 S   0  0  0  0  0  0  0  0  0  0  0  0
   39.4940   33.7890   40.2430 C   0  0  0  0  0  0  0  0  0  0  0  0
   38.7800   34.9540   40.4020 C   0  0  0  0  0  0  0  0  0  0  0  0
   39.3490   36.1960   40.0650 C   0  0  0  0  0  0  0  0  0  0  0  0
   40.5860   36.1520   39.5980 N   0  0  0  0  0  0  0  0  0  0  0  0
   41.3040   35.0520   39.4260 C   0  0  0  0  0  0  0  0  0  0  0  0
   40.7450   33.8480   39.7580 N   0  0  0  0  0  0  0  0  0  0  0  0
   36.0630   29.9240   40.8640 C   0  0  0  0  0  0  0  0  0  0  0  0
   35.1510   29.7340   40.0460 O   0  0  0  0  0  0  0  0  0  0  0  0
   37.5130   29.2270   42.7870 C   0  0  0  0  0  0  0  0  0  0  0  0
   36.7870   28.8890   41.6420 C   0  0  0  0  0  0  0  0  0  0  0  0
   36.6960   27.5890   41.1630 C   0  0  0  0  0  0  0  0  0  0  0  0
   37.3750   26.6780   41.9050 N   0  0  0  0  0  0  0  0  0  0  0  0
   38.0720   26.9960   43.0050 C   0  0  0  0  0  0  0  0  0  0  0  0
   38.1480   28.2770   43.4610 N   0  0  0  0  0  0  0  0  0  0  0  0
   36.6785   33.0059   40.0655 H   0  0  0  0  0  0  0  0  0  0  0  0
   37.1549   31.5487   39.1706 H   0  0  0  0  0  0  0  0  0  0  0  0
   37.7540   34.9142   40.7965 H   0  0  0  0  0  0  0  0  0  0  0  0
   38.8007   37.1424   40.1823 H   0  0  0  0  0  0  0  0  0  0  0  0
   42.3270   35.1054   39.0251 H   0  0  0  0  0  0  0  0  0  0  0  0
   37.5577   30.2723   43.1268 H   0  0  0  0  0  0  0  0  0  0  0  0
   36.1243   27.3213   40.2621 H   0  0  0  0  0  0  0  0  0  0  0  0
   38.5969   26.2006   43.5543 H   0  0  0  0  0  0  0  0  0  0  0  0
  2  3  1  0
  2  1  1  0
  4  5  2  0
  4  3  1  0
  6  5  1  0
  7  6  2  0
  8  7  1  0
  8  9  2  0
  9  4  1  0
 10  1  1  0
 10 13  1  0
 11 10  2  0
 12 17  2  0
 13 12  1  0
 14 13  2  0
 14 15  1  0
 15 16  2  0
 16 17  1  0
  2 18  1  0
  2 19  1  0
  5 20  1  0
  6 21  1  0
  8 22  1  0
 12 23  1  0
 14 24  1  0
 16 25  1  0
M  ISO  8  18   8  19   8  20  14  21  14  22  14  23  14  24  14  25  14
M  END
>  <minimizedAffinity>  (1) 
-4.68082094

>  <minimizedRMSD>  (1) 
1.61153316

$$$$
