
     RDKit          3D

 24 25  0  0  0  0  0  0  0  0999 V2000
   36.2680   30.1950   40.9130 C   0  0  0  0  0  0  0  0  0  0  0  0
   35.3310   29.9580   40.1550 O   0  0  0  0  0  0  0  0  0  0  0  0
   38.0910   29.5950   42.5110 C   0  0  0  0  0  0  0  0  0  0  0  0
   36.9300   29.2410   41.8170 C   0  0  0  0  0  0  0  0  0  0  0  0
   36.3690   27.9900   41.9540 C   0  0  0  0  0  0  0  0  0  0  0  0
   37.0230   27.1540   42.7990 N   0  0  0  0  0  0  0  0  0  0  0  0
   38.1480   27.4850   43.4770 C   0  0  0  0  0  0  0  0  0  0  0  0
   38.6930   28.7300   43.3300 N   0  0  0  0  0  0  0  0  0  0  0  0
   36.7670   31.4820   40.9350 O   0  0  0  0  0  0  0  0  0  0  0  0
   37.2080   32.2410   39.9140 C   0  0  0  0  0  0  0  0  0  0  0  0
   39.0580   32.2570   40.0160 S   0  0  0  0  0  0  0  0  0  0  0  0
   39.6010   33.9680   39.9550 C   0  0  0  0  0  0  0  0  0  0  0  0
   38.7230   35.0070   40.2740 C   0  0  0  0  0  0  0  0  0  0  0  0
   39.4510   36.1580   40.1260 C   0  0  0  0  0  0  0  0  0  0  0  0
   40.7060   35.7680   39.7330 C   0  0  0  0  0  0  0  0  0  0  0  0
   40.7630   34.4600   39.6400 O   0  0  0  0  0  0  0  0  0  0  0  0
   38.5147   30.6016   42.3800 H   0  0  0  0  0  0  0  0  0  0  0  0
   35.4568   27.6907   41.4171 H   0  0  0  0  0  0  0  0  0  0  0  0
   38.6229   26.7521   44.1458 H   0  0  0  0  0  0  0  0  0  0  0  0
   36.8151   33.2643   40.0061 H   0  0  0  0  0  0  0  0  0  0  0  0
   36.8702   31.8370   38.9482 H   0  0  0  0  0  0  0  0  0  0  0  0
   37.6699   34.9193   40.5794 H   0  0  0  0  0  0  0  0  0  0  0  0
   39.0999   37.1876   40.2894 H   0  0  0  0  0  0  0  0  0  0  0  0
   41.5425   36.4516   39.5260 H   0  0  0  0  0  0  0  0  0  0  0  0
  1  9  1  0
  1  4  1  0
  2  1  2  0
  3  8  2  0
  4  5  2  0
  4  3  1  0
  5  6  1  0
  6  7  2  0
  8  7  1  0
 10 11  1  0
 10  9  1  0
 12 11  1  0
 12 13  2  0
 14 13  1  0
 15 14  2  0
 16 15  1  0
 16 12  1  0
  3 17  1  0
  5 18  1  0
  7 19  1  0
 10 20  1  0
 10 21  1  0
 13 22  1  0
 14 23  1  0
 15 24  1  0
M  ISO  8  17  14  18  14  19  14  20   8  21   8  22  14  23  14  24  14
M  END
>  <minimizedAffinity>  (1) 
-4.48765421

>  <minimizedRMSD>  (1) 
1.09433377

$$$$
