
     RDKit          3D

 26 27  0  0  0  0  0  0  0  0999 V2000
   36.5790   31.4290   40.8930 O   0  0  0  0  0  0  0  0  0  0  0  0
   37.1670   32.1410   39.9120 C   0  0  0  0  0  0  0  0  0  0  0  0
   38.5970   33.0280   40.6280 S   0  0  0  0  0  0  0  0  0  0  0  0
   39.9080   33.2660   39.4590 C   0  0  0  0  0  0  0  0  0  0  0  0
   40.8550   34.2850   39.4910 C   0  0  0  0  0  0  0  0  0  0  0  0
   41.7990   34.2940   38.4800 C   0  0  0  0  0  0  0  0  0  0  0  0
   41.7710   33.3240   37.5020 C   0  0  0  0  0  0  0  0  0  0  0  0
   40.8270   32.3180   37.4810 C   0  0  0  0  0  0  0  0  0  0  0  0
   39.9240   32.3460   38.4870 N   0  0  0  0  0  0  0  0  0  0  0  0
   36.1650   30.1120   40.8880 C   0  0  0  0  0  0  0  0  0  0  0  0
   35.2410   29.8030   40.1460 O   0  0  0  0  0  0  0  0  0  0  0  0
   38.0770   29.6270   42.4320 C   0  0  0  0  0  0  0  0  0  0  0  0
   36.9030   29.2180   41.7950 C   0  0  0  0  0  0  0  0  0  0  0  0
   36.3950   27.9520   41.9980 C   0  0  0  0  0  0  0  0  0  0  0  0
   37.1140   27.1650   42.8430 N   0  0  0  0  0  0  0  0  0  0  0  0
   38.2470   27.5540   43.4600 C   0  0  0  0  0  0  0  0  0  0  0  0
   38.7370   28.8130   43.2500 N   0  0  0  0  0  0  0  0  0  0  0  0
   36.4503   32.8645   39.4961 H   0  0  0  0  0  0  0  0  0  0  0  0
   37.5002   31.4723   39.1046 H   0  0  0  0  0  0  0  0  0  0  0  0
   40.8530   35.0479   40.2834 H   0  0  0  0  0  0  0  0  0  0  0  0
   42.5724   35.0759   38.4568 H   0  0  0  0  0  0  0  0  0  0  0  0
   42.5308   33.3527   36.7070 H   0  0  0  0  0  0  0  0  0  0  0  0
   40.8101   31.5451   36.6984 H   0  0  0  0  0  0  0  0  0  0  0  0
   38.4626   30.6416   42.2534 H   0  0  0  0  0  0  0  0  0  0  0  0
   35.4727   27.6030   41.5106 H   0  0  0  0  0  0  0  0  0  0  0  0
   38.7760   26.8608   44.1305 H   0  0  0  0  0  0  0  0  0  0  0  0
  2  3  1  0
  2  1  1  0
  4  5  2  0
  4  3  1  0
  6  5  1  0
  7  6  2  0
  8  7  1  0
  8  9  2  0
  9  4  1  0
 10  1  1  0
 10 13  1  0
 11 10  2  0
 12 17  2  0
 13 14  2  0
 13 12  1  0
 14 15  1  0
 15 16  2  0
 17 16  1  0
  2 18  1  0
  2 19  1  0
  5 20  1  0
  6 21  1  0
  7 22  1  0
  8 23  1  0
 12 24  1  0
 14 25  1  0
 16 26  1  0
M  ISO  8  18   8  19   8  20  14  21  14  22  14  23  14  24  14  25  14
M  ISO  1  26  14
M  END
>  <minimizedAffinity>  (1) 
-4.35615587

>  <minimizedRMSD>  (1) 
1.09935892

$$$$
