
     RDKit          3D

 24 25  0  0  0  0  0  0  0  0999 V2000
   36.7100   31.4260   40.8160 O   0  0  0  0  0  0  0  0  0  0  0  0
   37.0010   32.1580   39.7260 C   0  0  0  0  0  0  0  0  0  0  0  0
   38.8320   32.2160   39.5720 S   0  0  0  0  0  0  0  0  0  0  0  0
   39.9710   35.6810   41.0900 N   0  0  0  0  0  0  0  0  0  0  0  0
   38.9600   34.8410   40.8980 N   0  0  0  0  0  0  0  0  0  0  0  0
   39.4150   33.7720   40.2360 C   0  0  0  0  0  0  0  0  0  0  0  0
   40.7820   33.9730   40.0130 C   0  0  0  0  0  0  0  0  0  0  0  0
   41.1240   35.2110   40.5710 C   0  0  0  0  0  0  0  0  0  0  0  0
   36.2120   30.1370   40.8800 C   0  0  0  0  0  0  0  0  0  0  0  0
   35.2380   29.8560   40.1860 O   0  0  0  0  0  0  0  0  0  0  0  0
   38.1210   29.6350   42.4380 C   0  0  0  0  0  0  0  0  0  0  0  0
   36.9410   29.2380   41.8040 C   0  0  0  0  0  0  0  0  0  0  0  0
   36.4020   27.9890   42.0090 C   0  0  0  0  0  0  0  0  0  0  0  0
   37.0910   27.1890   42.8540 N   0  0  0  0  0  0  0  0  0  0  0  0
   38.2280   27.5610   43.4700 C   0  0  0  0  0  0  0  0  0  0  0  0
   38.7520   28.8020   43.2580 N   0  0  0  0  0  0  0  0  0  0  0  0
   36.5635   31.6902   38.8317 H   0  0  0  0  0  0  0  0  0  0  0  0
   36.5877   33.1731   39.8194 H   0  0  0  0  0  0  0  0  0  0  0  0
   39.8847   36.5842   41.5774 H   0  0  0  0  0  0  0  0  0  0  0  0
   41.4640   33.2836   39.4937 H   0  0  0  0  0  0  0  0  0  0  0  0
   42.1127   35.6929   40.5834 H   0  0  0  0  0  0  0  0  0  0  0  0
   38.5288   30.6406   42.2575 H   0  0  0  0  0  0  0  0  0  0  0  0
   35.4730   27.6629   41.5185 H   0  0  0  0  0  0  0  0  0  0  0  0
   38.7374   26.8605   44.1481 H   0  0  0  0  0  0  0  0  0  0  0  0
  1  9  1  0
  2  1  1  0
  3  2  1  0
  3  6  1  0
  5  4  1  0
  6  5  2  0
  7  6  1  0
  7  8  2  0
  8  4  1  0
  9 12  1  0
 10  9  2  0
 11 16  2  0
 12 13  2  0
 12 11  1  0
 13 14  1  0
 14 15  2  0
 16 15  1  0
  2 17  1  0
  2 18  1  0
  4 19  1  0
  7 20  1  0
  8 21  1  0
 11 22  1  0
 13 23  1  0
 15 24  1  0
M  ISO  8  17   8  18   8  19   9  20  14  21  14  22  14  23  14  24  14
M  END
>  <minimizedAffinity>  (1) 
-4.30710173

>  <minimizedRMSD>  (1) 
1.95257413

$$$$
