
     RDKit          3D

 29 30  0  0  1  0  0  0  0  0999 V2000
   36.4190   30.3980   40.8350 C   0  0  0  0  0  0  0  0  0  0  0  0
   35.5660   30.1990   39.9630 O   0  0  0  0  0  0  0  0  0  0  0  0
   38.1590   29.6730   42.4970 C   0  0  0  0  0  0  0  0  0  0  0  0
   37.0090   29.3950   41.7520 C   0  0  0  0  0  0  0  0  0  0  0  0
   36.3680   28.1780   41.8280 C   0  0  0  0  0  0  0  0  0  0  0  0
   36.9270   27.2770   42.6710 N   0  0  0  0  0  0  0  0  0  0  0  0
   38.0410   27.5380   43.3970 C   0  0  0  0  0  0  0  0  0  0  0  0
   38.6610   28.7480   43.3090 N   0  0  0  0  0  0  0  0  0  0  0  0
   36.8960   31.6880   41.0000 O   0  0  0  0  0  0  0  0  0  0  0  0
   37.5130   32.4620   40.0870 C   0  0  0  0  0  0  0  0  0  0  0  0
   39.0830   33.0670   40.8550 S   0  0  0  0  0  0  0  0  0  0  0  0
   39.9060   35.5890   41.0590 N   0  0  0  0  0  0  0  0  0  0  0  0
   41.3370   35.6430   41.1300 C   0  0  0  0  0  0  0  0  0  0  0  0
   41.8240   34.3730   40.4330 C   0  0  0  0  0  0  0  0  0  0  0  0
   40.8300   34.3460   39.2650 C   0  0  0  0  0  0  0  0  0  0  0  0
   39.5520   34.6200   40.0360 C   0  0  1  0  0  0  0  0  0  0  0  0
   38.6473   30.6550   42.4114 H   0  0  0  0  0  0  0  0  0  0  0  0
   35.4635   27.9531   41.2437 H   0  0  0  0  0  0  0  0  0  0  0  0
   38.4491   26.7647   44.0645 H   0  0  0  0  0  0  0  0  0  0  0  0
   36.8711   33.3144   39.8199 H   0  0  0  0  0  0  0  0  0  0  0  0
   37.7212   31.8928   39.1690 H   0  0  0  0  0  0  0  0  0  0  0  0
   39.5202   35.2964   41.9681 H   0  0  0  0  0  0  0  0  0  0  0  0
   41.7150   36.5363   40.6112 H   0  0  0  0  0  0  0  0  0  0  0  0
   41.6939   35.7031   42.1687 H   0  0  0  0  0  0  0  0  0  0  0  0
   42.8643   34.4648   40.0876 H   0  0  0  0  0  0  0  0  0  0  0  0
   41.8451   33.4681   41.0580 H   0  0  0  0  0  0  0  0  0  0  0  0
   40.8080   33.3667   38.7644 H   0  0  0  0  0  0  0  0  0  0  0  0
   41.0461   35.0444   38.4431 H   0  0  0  0  0  0  0  0  0  0  0  0
   38.7340   34.9838   39.3969 H   0  0  0  0  0  0  0  0  0  0  0  0
  1  9  1  0
  1  4  1  0
  2  1  2  0
  3  8  2  0
  4  5  2  0
  4  3  1  0
  5  6  1  0
  6  7  2  0
  8  7  1  0
 10 11  1  0
 10  9  1  0
 12 13  1  0
 14 13  1  0
 15 16  1  0
 15 14  1  0
 16 11  1  0
 16 12  1  0
  3 17  1  0
  5 18  1  0
  7 19  1  0
 10 20  1  0
 10 21  1  0
 12 22  1  0
 13 23  1  0
 13 24  1  0
 14 25  1  0
 14 26  1  0
 15 27  1  0
 15 28  1  0
 16 29  1  6
M  ISO  8  17  14  18  14  19  14  20   8  21   8  22   5  23  13  24  13
M  ISO  5  25  13  26  13  27  13  28  13  29  13
M  END
>  <minimizedAffinity>  (1) 
-4.19146347

>  <minimizedRMSD>  (1) 
0.863294065

$$$$
