
     RDKit          3D

 27 28  0  0  0  0  0  0  0  0999 V2000
   36.9740   31.5480   39.8440 C   0  0  0  0  0  0  0  0  0  0  0  0
   37.5340   32.5190   40.5860 O   0  0  0  0  0  0  0  0  0  0  0  0
   38.8720   32.6730   40.9080 C   0  0  0  0  0  0  0  0  0  0  0  0
   39.4430   31.7410   41.4950 O   0  0  0  0  0  0  0  0  0  0  0  0
   38.6930   35.1060   40.3430 C   0  0  0  0  0  0  0  0  0  0  0  0
   39.4800   33.9640   40.5040 C   0  0  0  0  0  0  0  0  0  0  0  0
   40.8400   33.9740   40.2990 C   0  0  0  0  0  0  0  0  0  0  0  0
   41.3540   35.1790   39.9270 N   0  0  0  0  0  0  0  0  0  0  0  0
   40.6010   36.2910   39.7670 C   0  0  0  0  0  0  0  0  0  0  0  0
   39.2530   36.2520   39.9790 N   0  0  0  0  0  0  0  0  0  0  0  0
   37.5010   31.8670   38.0920 S   0  0  0  0  0  0  0  0  0  0  0  0
   37.6510   30.3380   37.2180 C   0  0  0  0  0  0  0  0  0  0  0  0
   38.7420   29.5650   37.6060 C   0  0  0  0  0  0  0  0  0  0  0  0
   39.0170   28.3390   37.0310 C   0  0  0  0  0  0  0  0  0  0  0  0
   38.1500   27.8990   36.0340 C   0  0  0  0  0  0  0  0  0  0  0  0
   37.0510   28.6700   35.6370 C   0  0  0  0  0  0  0  0  0  0  0  0
   36.7940   29.8990   36.2300 C   0  0  0  0  0  0  0  0  0  0  0  0
   37.3296   30.5613   40.1757 H   0  0  0  0  0  0  0  0  0  0  0  0
   35.8782   31.5511   39.9402 H   0  0  0  0  0  0  0  0  0  0  0  0
   37.6082   35.0553   40.5181 H   0  0  0  0  0  0  0  0  0  0  0  0
   41.4646   33.0775   40.4258 H   0  0  0  0  0  0  0  0  0  0  0  0
   41.0786   37.2343   39.4636 H   0  0  0  0  0  0  0  0  0  0  0  0
   39.4071   29.9428   38.3965 H   0  0  0  0  0  0  0  0  0  0  0  0
   39.8821   27.7374   37.3467 H   0  0  0  0  0  0  0  0  0  0  0  0
   38.3320   26.9282   35.5497 H   0  0  0  0  0  0  0  0  0  0  0  0
   36.3832   28.2979   34.8460 H   0  0  0  0  0  0  0  0  0  0  0  0
   35.9305   30.5061   35.9204 H   0  0  0  0  0  0  0  0  0  0  0  0
  1  2  1  0
  2  3  1  0
  3  4  2  0
  5  6  2  0
  6  3  1  0
  7  6  1  0
  8  7  2  0
  9  8  1  0
  9 10  2  0
 10  5  1  0
 11  1  1  0
 12 13  2  0
 12 11  1  0
 14 13  1  0
 15 14  2  0
 16 15  1  0
 16 17  2  0
 17 12  1  0
  1 18  1  0
  1 19  1  0
  5 20  1  0
  7 21  1  0
  9 22  1  0
 13 23  1  0
 14 24  1  0
 15 25  1  0
 16 26  1  0
 17 27  1  0
M  ISO  8  18   8  19   8  20  14  21  14  22  14  23  14  24  14  25  14
M  ISO  2  26  14  27  14
M  END
>  <minimizedAffinity>  (1) 
-4.15232468

>  <minimizedRMSD>  (1) 
6.27509832

$$$$
