
     RDKit          3D

 24 25  0  0  0  0  0  0  0  0999 V2000
   36.2260   30.1810   40.9140 C   0  0  0  0  0  0  0  0  0  0  0  0
   35.3110   29.9040   40.1230 O   0  0  0  0  0  0  0  0  0  0  0  0
   38.1150   29.6220   42.4790 C   0  0  0  0  0  0  0  0  0  0  0  0
   36.9370   29.2450   41.8170 C   0  0  0  0  0  0  0  0  0  0  0  0
   36.3900   27.9910   41.9780 C   0  0  0  0  0  0  0  0  0  0  0  0
   37.0570   27.1590   42.8030 N   0  0  0  0  0  0  0  0  0  0  0  0
   38.1970   27.5100   43.4500 C   0  0  0  0  0  0  0  0  0  0  0  0
   38.7270   28.7590   43.2800 N   0  0  0  0  0  0  0  0  0  0  0  0
   36.6620   31.5000   40.9930 O   0  0  0  0  0  0  0  0  0  0  0  0
   37.2610   32.2220   40.0240 C   0  0  0  0  0  0  0  0  0  0  0  0
   38.7600   32.9930   40.7500 S   0  0  0  0  0  0  0  0  0  0  0  0
   39.0470   34.6270   40.0960 C   0  0  0  0  0  0  0  0  0  0  0  0
   39.7190   35.7050   40.8420 C   0  0  0  0  0  0  0  0  0  0  0  0
   40.4650   35.0120   39.6920 C   0  0  0  0  0  0  0  0  0  0  0  0
   38.5303   30.6303   42.3345 H   0  0  0  0  0  0  0  0  0  0  0  0
   35.4657   27.6871   41.4649 H   0  0  0  0  0  0  0  0  0  0  0  0
   38.6961   26.7879   44.1130 H   0  0  0  0  0  0  0  0  0  0  0  0
   36.5764   33.0027   39.6608 H   0  0  0  0  0  0  0  0  0  0  0  0
   37.5316   31.5777   39.1745 H   0  0  0  0  0  0  0  0  0  0  0  0
   38.0628   34.5723   39.6078 H   0  0  0  0  0  0  0  0  0  0  0  0
   39.3795   36.7449   40.7267 H   0  0  0  0  0  0  0  0  0  0  0  0
   39.9370   35.8905   41.9041 H   0  0  0  0  0  0  0  0  0  0  0  0
   41.3067   34.3357   39.9021 H   0  0  0  0  0  0  0  0  0  0  0  0
   40.9653   35.3319   38.7661 H   0  0  0  0  0  0  0  0  0  0  0  0
  1  9  1  0
  1  4  1  0
  2  1  2  0
  3  8  2  0
  4  5  2  0
  4  3  1  0
  5  6  1  0
  6  7  2  0
  8  7  1  0
 10 11  1  0
 10  9  1  0
 12 11  1  0
 12 13  1  0
 14 12  1  0
 14 13  1  0
  3 15  1  0
  5 16  1  0
  7 17  1  0
 10 18  1  0
 10 19  1  0
 12 20  1  0
 13 21  1  0
 13 22  1  0
 14 23  1  0
 14 24  1  0
M  ISO  8  15  14  16  14  17  14  18   8  19   8  20  13  21  13  22  13
M  ISO  2  23  13  24  13
M  END
>  <minimizedAffinity>  (1) 
-3.89641166

>  <minimizedRMSD>  (1) 
0.687942564

$$$$
