
     RDKit          3D

 23 23  0  0  0  0  0  0  0  0999 V2000
   36.2030   30.1610   40.9030 C   0  0  0  0  0  0  0  0  0  0  0  0
   35.2710   29.8700   40.1410 O   0  0  0  0  0  0  0  0  0  0  0  0
   38.0890   29.6290   42.4500 C   0  0  0  0  0  0  0  0  0  0  0  0
   36.9140   29.2390   41.7990 C   0  0  0  0  0  0  0  0  0  0  0  0
   36.3910   27.9770   41.9860 C   0  0  0  0  0  0  0  0  0  0  0  0
   37.1000   27.1720   42.8300 N   0  0  0  0  0  0  0  0  0  0  0  0
   38.2240   27.5420   43.4520 C   0  0  0  0  0  0  0  0  0  0  0  0
   38.7370   28.7880   43.2670 N   0  0  0  0  0  0  0  0  0  0  0  0
   36.6420   31.4740   40.9360 O   0  0  0  0  0  0  0  0  0  0  0  0
   37.1970   32.1880   39.9370 C   0  0  0  0  0  0  0  0  0  0  0  0
   38.7220   32.9820   40.6030 S   0  0  0  0  0  0  0  0  0  0  0  0
   38.5850   34.7720   40.2260 C   0  0  0  0  0  0  0  0  0  0  0  0
   39.9930   35.3000   40.1840 C   0  0  0  0  0  0  0  0  0  0  0  0
   38.4870   30.6417   42.2886 H   0  0  0  0  0  0  0  0  0  0  0  0
   35.4678   27.6426   41.4901 H   0  0  0  0  0  0  0  0  0  0  0  0
   38.7378   26.8335   44.1184 H   0  0  0  0  0  0  0  0  0  0  0  0
   36.4930   32.9589   39.5905 H   0  0  0  0  0  0  0  0  0  0  0  0
   37.4403   31.5368   39.0845 H   0  0  0  0  0  0  0  0  0  0  0  0
   38.0927   34.9205   39.2536 H   0  0  0  0  0  0  0  0  0  0  0  0
   37.9822   35.2963   40.9822 H   0  0  0  0  0  0  0  0  0  0  0  0
   40.3633   35.4389   41.2105 H   0  0  0  0  0  0  0  0  0  0  0  0
   40.6380   34.5827   39.6554 H   0  0  0  0  0  0  0  0  0  0  0  0
   40.0073   36.2646   39.6554 H   0  0  0  0  0  0  0  0  0  0  0  0
  1  9  1  0
  1  4  1  0
  2  1  2  0
  3  8  2  0
  4  5  2  0
  4  3  1  0
  5  6  1  0
  6  7  2  0
  8  7  1  0
 10 11  1  0
 10  9  1  0
 12 11  1  0
 13 12  1  0
  3 14  1  0
  5 15  1  0
  7 16  1  0
 10 17  1  0
 10 18  1  0
 12 19  1  0
 12 20  1  0
 13 21  1  0
 13 22  1  0
 13 23  1  0
M  ISO  8  14  14  15  14  16  14  17   8  18   8  19   8  20   8  21   8
M  ISO  2  22   8  23   8
M  END
>  <minimizedAffinity>  (1) 
-3.65019608

>  <minimizedRMSD>  (1) 
0.791786194

$$$$
