
     RDKit          3D

 20 20  0  0  0  0  0  0  0  0999 V2000
   38.0550   29.6730   42.3880 C   0  0  0  0  0  0  0  0  0  0  0  0
   36.8930   29.1900   41.7780 C   0  0  0  0  0  0  0  0  0  0  0  0
   36.4400   27.9120   42.0340 C   0  0  0  0  0  0  0  0  0  0  0  0
   37.1810   27.1770   42.8950 N   0  0  0  0  0  0  0  0  0  0  0  0
   38.2910   27.6200   43.4870 C   0  0  0  0  0  0  0  0  0  0  0  0
   38.7310   28.8830   43.2290 N   0  0  0  0  0  0  0  0  0  0  0  0
   36.1020   30.0160   40.8390 C   0  0  0  0  0  0  0  0  0  0  0  0
   35.0850   29.6780   40.2180 O   0  0  0  0  0  0  0  0  0  0  0  0
   36.6100   31.3070   40.6810 O   0  0  0  0  0  0  0  0  0  0  0  0
   36.9570   31.9020   39.5300 C   0  0  0  0  0  0  0  0  0  0  0  0
   38.7750   32.2450   39.5970 S   0  0  0  0  0  0  0  0  0  0  0  0
   38.9800   33.6560   40.7410 C   0  0  0  0  0  0  0  0  0  0  0  0
   38.4096   30.6929   42.1781 H   0  0  0  0  0  0  0  0  0  0  0  0
   35.5284   27.5135   41.5648 H   0  0  0  0  0  0  0  0  0  0  0  0
   38.8471   26.9701   44.1786 H   0  0  0  0  0  0  0  0  0  0  0  0
   36.4022   32.8447   39.4138 H   0  0  0  0  0  0  0  0  0  0  0  0
   36.7195   31.2526   38.6745 H   0  0  0  0  0  0  0  0  0  0  0  0
   38.9278   33.2967   41.7794 H   0  0  0  0  0  0  0  0  0  0  0  0
   39.9566   34.1310   40.5660 H   0  0  0  0  0  0  0  0  0  0  0  0
   38.1790   34.3893   40.5660 H   0  0  0  0  0  0  0  0  0  0  0  0
  1  6  2  0
  2  3  2  0
  2  1  1  0
  3  4  1  0
  4  5  2  0
  6  5  1  0
  7  2  1  0
  8  7  2  0
  9  7  1  0
 10 11  1  0
 10  9  1  0
 11 12  1  0
  1 13  1  0
  3 14  1  0
  5 15  1  0
 10 16  1  0
 10 17  1  0
 12 18  1  0
 12 19  1  0
 12 20  1  0
M  ISO  8  13  14  14  14  15  14  16   8  17   8  18   8  19   8  20   8
M  END
>  <minimizedAffinity>  (1) 
-3.25737309

>  <minimizedRMSD>  (1) 
0.532082736

$$$$
