
     RDKit          3D

 52 56  0  0  1  0  0  0  0  0999 V2000
   37.8420   27.5390   42.8730 C   0  0  2  0  0  0  0  0  0  0  0  0
   39.5930   25.8930   42.1970 C   0  0  1  0  0  0  0  0  0  0  0  0
   39.4280   24.4610   41.6040 C   0  0  0  0  0  0  0  0  0  0  0  0
   38.0630   24.0300   41.9370 C   0  0  0  0  0  0  0  0  0  0  0  0
   37.3150   25.3720   42.1640 C   0  0  0  0  0  0  0  0  0  0  0  0
   38.3100   26.1170   42.8580 C   0  0  2  0  0  0  0  0  0  0  0  0
   42.0920   26.8580   44.8130 C   0  0  0  0  0  0  0  0  0  0  0  0
   40.8870   26.7790   44.1150 C   0  0  0  0  0  0  0  0  0  0  0  0
   40.8020   26.0070   42.9560 C   0  0  0  0  0  0  0  0  0  0  0  0
   41.9150   25.3410   42.5300 N   0  0  0  0  0  0  0  0  0  0  0  0
   43.0770   25.4220   43.2100 C   0  0  0  0  0  0  0  0  0  0  0  0
   43.1730   26.1680   44.3370 N   0  0  0  0  0  0  0  0  0  0  0  0
   36.7200   27.8530   43.7890 C   0  0  0  0  0  0  0  0  0  0  0  0
   37.5230   27.8380   41.4950 C   0  0  0  0  0  0  0  0  0  0  0  0
   37.2370   29.2210   41.3470 N   0  0  0  0  0  0  0  0  0  0  0  0
   36.0560   29.7900   40.9890 C   0  0  0  0  0  0  0  0  0  0  0  0
   36.2490   31.1240   40.7900 C   0  0  0  0  0  0  0  0  0  0  0  0
   37.5540   31.3210   41.0400 N   0  0  0  0  0  0  0  0  0  0  0  0
   38.1670   30.1610   41.3840 C   0  0  0  0  0  0  0  0  0  0  0  0
   39.5020   30.5170   41.6220 N   0  0  0  0  0  0  0  0  0  0  0  0
   40.5100   29.8360   42.2700 C   0  0  0  0  0  0  0  0  0  0  0  0
   41.6590   30.5240   42.3110 N   0  0  0  0  0  0  0  0  0  0  0  0
   41.4610   31.6970   41.6890 C   0  0  0  0  0  0  0  0  0  0  0  0
   42.2900   32.7720   41.4480 C   0  0  0  0  0  0  0  0  0  0  0  0
   41.8130   33.8540   40.7870 N   0  0  0  0  0  0  0  0  0  0  0  0
   40.5190   33.8490   40.3740 C   0  0  0  0  0  0  0  0  0  0  0  0
   39.7450   32.7850   40.6260 N   0  0  0  0  0  0  0  0  0  0  0  0
   40.1460   31.6750   41.2770 C   0  0  0  0  0  0  0  0  0  0  0  0
   43.6380   32.6810   41.9230 N   0  0  0  0  0  0  0  0  0  0  0  0
   38.6386   28.1751   43.2864 H   0  0  0  0  0  0  0  0  0  0  0  0
   39.7599   26.7100   41.4796 H   0  0  0  0  0  0  0  0  0  0  0  0
   40.1633   23.7764   42.0520 H   0  0  0  0  0  0  0  0  0  0  0  0
   39.5936   24.4577   40.5165 H   0  0  0  0  0  0  0  0  0  0  0  0
   37.6145   23.4634   41.1077 H   0  0  0  0  0  0  0  0  0  0  0  0
   38.0218   23.3595   42.8081 H   0  0  0  0  0  0  0  0  0  0  0  0
   37.0423   25.8498   41.2114 H   0  0  0  0  0  0  0  0  0  0  0  0
   36.3599   25.2762   42.7013 H   0  0  0  0  0  0  0  0  0  0  0  0
   38.4596   25.8099   43.9036 H   0  0  0  0  0  0  0  0  0  0  0  0
   42.1715   27.4632   45.7281 H   0  0  0  0  0  0  0  0  0  0  0  0
   40.0040   27.3252   44.4782 H   0  0  0  0  0  0  0  0  0  0  0  0
   43.9587   24.8750   42.8447 H   0  0  0  0  0  0  0  0  0  0  0  0
   37.0597   27.7579   44.8309 H   0  0  0  0  0  0  0  0  0  0  0  0
   36.3758   28.8820   43.6080 H   0  0  0  0  0  0  0  0  0  0  0  0
   35.8917   27.1521   43.6080 H   0  0  0  0  0  0  0  0  0  0  0  0
   38.3801   27.5740   40.8581 H   0  0  0  0  0  0  0  0  0  0  0  0
   36.6395   27.2547   41.1963 H   0  0  0  0  0  0  0  0  0  0  0  0
   35.0989   29.2594   40.8778 H   0  0  0  0  0  0  0  0  0  0  0  0
   35.5016   31.8737   40.4909 H   0  0  0  0  0  0  0  0  0  0  0  0
   40.3845   28.8343   42.7070 H   0  0  0  0  0  0  0  0  0  0  0  0
   40.1082   34.7153   39.8347 H   0  0  0  0  0  0  0  0  0  0  0  0
   44.2931   33.4601   41.7658 H   0  0  0  0  0  0  0  0  0  0  0  0
   43.9523   31.8365   42.4219 H   0  0  0  0  0  0  0  0  0  0  0  0
  1 13  1  0
  2  6  1  0
  2  9  1  0
  3  4  1  0
  3  2  1  0
  4  5  1  0
  5  6  1  0
  6  1  1  0
  8  7  2  0
  9  8  1  0
 10  9  2  0
 10 11  1  0
 11 12  2  0
 12  7  1  0
 14  1  1  0
 15 19  1  0
 15 14  1  0
 16 15  1  0
 17 16  2  0
 17 18  1  0
 18 19  2  0
 19 20  1  0
 20 21  1  0
 21 22  2  0
 23 22  1  0
 24 23  2  0
 24 29  1  0
 25 24  1  0
 26 27  1  0
 26 25  2  0
 27 28  2  0
 28 20  1  0
 28 23  1  0
  1 30  1  1
  2 31  1  6
  3 32  1  0
  3 33  1  0
  4 34  1  0
  4 35  1  0
  5 36  1  0
  5 37  1  0
  6 38  1  1
  7 39  1  0
  8 40  1  0
 11 41  1  0
 13 42  1  0
 13 43  1  0
 13 44  1  0
 14 45  1  0
 14 46  1  0
 16 47  1  0
 17 48  1  0
 21 49  1  0
 26 50  1  0
 29 51  1  0
 29 52  1  0
M  ISO  8  30   8  31  13  32  13  33  13  34  13  35  13  36  13  37  13
M  ISO  8  38  13  39  14  40  14  41  14  42   8  43   8  44   8  45   8
M  ISO  5  46   8  47  14  48  14  49  14  50  14
M  END
>  <minimizedAffinity>  (1) 
-6.54655695

>  <minimizedRMSD>  (1) 
1.1082226

$$$$
