
     RDKit          3D

 49 52  0  0  1  0  0  0  0  0999 V2000
   37.6820   27.4480   42.8600 C   0  0  2  0  0  0  0  0  0  0  0  0
   39.4380   25.8020   42.1640 C   0  0  1  0  0  0  0  0  0  0  0  0
   39.2730   24.3690   41.5800 C   0  0  0  0  0  0  0  0  0  0  0  0
   37.9100   23.9380   41.9010 C   0  0  0  0  0  0  0  0  0  0  0  0
   37.1610   25.2730   42.1580 C   0  0  0  0  0  0  0  0  0  0  0  0
   38.1590   26.0280   42.8320 C   0  0  2  0  0  0  0  0  0  0  0  0
   41.9450   26.7720   44.7730 C   0  0  0  0  0  0  0  0  0  0  0  0
   40.7360   26.6850   44.0830 C   0  0  0  0  0  0  0  0  0  0  0  0
   40.6520   25.9240   42.9140 C   0  0  0  0  0  0  0  0  0  0  0  0
   41.7680   25.2770   42.4750 N   0  0  0  0  0  0  0  0  0  0  0  0
   42.9330   25.3630   43.1460 C   0  0  0  0  0  0  0  0  0  0  0  0
   43.0310   26.0990   44.2810 N   0  0  0  0  0  0  0  0  0  0  0  0
   36.5800   27.7550   43.7940 C   0  0  0  0  0  0  0  0  0  0  0  0
   37.3280   27.7280   41.4790 C   0  0  0  0  0  0  0  0  0  0  0  0
   37.0990   29.1230   41.3200 N   0  0  0  0  0  0  0  0  0  0  0  0
   35.9590   29.7170   40.8840 C   0  0  0  0  0  0  0  0  0  0  0  0
   36.2080   31.0610   40.7170 C   0  0  0  0  0  0  0  0  0  0  0  0
   37.5040   31.2210   41.0680 N   0  0  0  0  0  0  0  0  0  0  0  0
   38.0500   30.0370   41.4390 C   0  0  0  0  0  0  0  0  0  0  0  0
   39.3450   30.3830   41.7570 N   0  0  0  0  0  0  0  0  0  0  0  0
   40.3970   29.6060   42.1910 C   0  0  0  0  0  0  0  0  0  0  0  0
   41.6520   30.0570   42.5090 C   0  0  0  0  0  0  0  0  0  0  0  0
   41.8440   31.4140   42.3720 C   0  0  0  0  0  0  0  0  0  0  0  0
   42.9730   31.8860   42.6480 O   0  0  0  0  0  0  0  0  0  0  0  0
   40.8940   32.2670   41.9580 N   0  0  0  0  0  0  0  0  0  0  0  0
   39.6910   31.7060   41.6730 C   0  0  0  0  0  0  0  0  0  0  0  0
   38.8140   32.5410   41.2870 O   0  0  0  0  0  0  0  0  0  0  0  0
   38.4768   28.0957   43.2586 H   0  0  0  0  0  0  0  0  0  0  0  0
   39.5981   26.6151   41.4406 H   0  0  0  0  0  0  0  0  0  0  0  0
   40.0042   23.6865   42.0378 H   0  0  0  0  0  0  0  0  0  0  0  0
   39.4446   24.3623   40.4935 H   0  0  0  0  0  0  0  0  0  0  0  0
   37.4616   23.3911   41.0585 H   0  0  0  0  0  0  0  0  0  0  0  0
   37.8681   23.2504   42.7586 H   0  0  0  0  0  0  0  0  0  0  0  0
   36.8605   25.7539   41.2154 H   0  0  0  0  0  0  0  0  0  0  0  0
   36.2232   25.1616   42.7221 H   0  0  0  0  0  0  0  0  0  0  0  0
   38.3248   25.7282   43.8773 H   0  0  0  0  0  0  0  0  0  0  0  0
   42.0243   27.3690   45.6935 H   0  0  0  0  0  0  0  0  0  0  0  0
   39.8487   27.2154   44.4590 H   0  0  0  0  0  0  0  0  0  0  0  0
   43.8172   24.8288   42.7681 H   0  0  0  0  0  0  0  0  0  0  0  0
   36.9382   27.6552   44.8292 H   0  0  0  0  0  0  0  0  0  0  0  0
   36.2315   28.7844   43.6242 H   0  0  0  0  0  0  0  0  0  0  0  0
   35.7494   27.0540   43.6242 H   0  0  0  0  0  0  0  0  0  0  0  0
   38.1503   27.4142   40.8192 H   0  0  0  0  0  0  0  0  0  0  0  0
   36.4143   27.1748   41.2161 H   0  0  0  0  0  0  0  0  0  0  0  0
   35.0003   29.2113   40.6962 H   0  0  0  0  0  0  0  0  0  0  0  0
   35.5061   31.8351   40.3733 H   0  0  0  0  0  0  0  0  0  0  0  0
   40.2132   28.5261   42.2914 H   0  0  0  0  0  0  0  0  0  0  0  0
   42.4505   29.3817   42.8500 H   0  0  0  0  0  0  0  0  0  0  0  0
   41.0659   33.2781   41.8630 H   0  0  0  0  0  0  0  0  0  0  0  0
  1 13  1  0
  2  6  1  0
  2  9  1  0
  3  4  1  0
  3  2  1  0
  4  5  1  0
  5  6  1  0
  6  1  1  0
  8  7  2  0
  9  8  1  0
 10  9  2  0
 10 11  1  0
 11 12  2  0
 12  7  1  0
 14  1  1  0
 15 19  1  0
 15 14  1  0
 16 15  1  0
 17 16  2  0
 17 18  1  0
 18 19  2  0
 19 20  1  0
 20 21  1  0
 21 22  2  0
 23 22  1  0
 23 24  2  0
 25 23  1  0
 26 20  1  0
 26 25  1  0
 27 26  2  0
  1 28  1  1
  2 29  1  6
  3 30  1  0
  3 31  1  0
  4 32  1  0
  4 33  1  0
  5 34  1  0
  5 35  1  0
  6 36  1  1
  7 37  1  0
  8 38  1  0
 11 39  1  0
 13 40  1  0
 13 41  1  0
 13 42  1  0
 14 43  1  0
 14 44  1  0
 16 45  1  0
 17 46  1  0
 21 47  1  0
 22 48  1  0
 25 49  1  0
M  ISO  8  28   8  29  13  30  13  31  13  32  13  33  13  34  13  35  13
M  ISO  8  36  13  37  14  38  14  39  14  40   8  41   8  42   8  43   8
M  ISO  6  44   8  45  14  46  14  47  14  48  14  49   9
M  END
>  <minimizedAffinity>  (1) 
-6.50914431

>  <minimizedRMSD>  (1) 
0.786938608

$$$$
