
     RDKit          3D

 40 42  0  0  0  0  0  0  0  0999 V2000
   39.9940   32.6190   39.5130 C   0  0  0  0  0  0  0  0  0  0  0  0
   39.6050   31.7950   38.3150 C   0  0  0  0  0  0  0  0  0  0  0  0
   40.7360   31.7280   40.4770 C   0  0  0  0  0  0  0  0  0  0  0  0
   40.8410   33.7750   39.0750 C   0  0  0  0  0  0  0  0  0  0  0  0
   40.7620   34.9500   39.8770 N   0  0  0  0  0  0  0  0  0  0  0  0
   39.9330   36.0080   39.9290 C   0  0  0  0  0  0  0  0  0  0  0  0
   40.3080   36.8720   40.8950 N   0  0  0  0  0  0  0  0  0  0  0  0
   41.4200   36.3490   41.4840 C   0  0  0  0  0  0  0  0  0  0  0  0
   42.1310   36.9130   42.5230 C   0  0  0  0  0  0  0  0  0  0  0  0
   43.2030   36.2220   42.9530 N   0  0  0  0  0  0  0  0  0  0  0  0
   43.5050   35.0470   42.3520 C   0  0  0  0  0  0  0  0  0  0  0  0
   42.7690   34.5490   41.3420 N   0  0  0  0  0  0  0  0  0  0  0  0
   41.6860   35.1650   40.8460 C   0  0  0  0  0  0  0  0  0  0  0  0
   38.4900   33.2240   40.2950 S   0  0  0  0  0  0  0  0  0  0  0  0
   37.0280   32.2270   39.7960 C   0  0  0  0  0  0  0  0  0  0  0  0
   36.6830   31.4650   40.8260 O   0  0  0  0  0  0  0  0  0  0  0  0
   36.2220   30.1720   40.8860 C   0  0  0  0  0  0  0  0  0  0  0  0
   35.2530   29.8780   40.1790 O   0  0  0  0  0  0  0  0  0  0  0  0
   38.1450   29.7040   42.4090 C   0  0  0  0  0  0  0  0  0  0  0  0
   36.9590   29.2600   41.8140 C   0  0  0  0  0  0  0  0  0  0  0  0
   36.4190   28.0220   42.0130 C   0  0  0  0  0  0  0  0  0  0  0  0
   37.1230   27.2210   42.8460 N   0  0  0  0  0  0  0  0  0  0  0  0
   38.2720   27.6170   43.4360 C   0  0  0  0  0  0  0  0  0  0  0  0
   38.7940   28.8750   43.2170 N   0  0  0  0  0  0  0  0  0  0  0  0
   39.1578   30.8478   38.6510 H   0  0  0  0  0  0  0  0  0  0  0  0
   38.8742   32.3509   37.7092 H   0  0  0  0  0  0  0  0  0  0  0  0
   40.4986   31.5841   37.7092 H   0  0  0  0  0  0  0  0  0  0  0  0
   40.4921   32.0208   41.5089 H   0  0  0  0  0  0  0  0  0  0  0  0
   40.4384   30.6818   40.3127 H   0  0  0  0  0  0  0  0  0  0  0  0
   41.8187   31.8313   40.3127 H   0  0  0  0  0  0  0  0  0  0  0  0
   41.8891   33.4410   39.0707 H   0  0  0  0  0  0  0  0  0  0  0  0
   40.4554   34.0657   38.0867 H   0  0  0  0  0  0  0  0  0  0  0  0
   39.0635   36.1501   39.2704 H   0  0  0  0  0  0  0  0  0  0  0  0
   41.8385   37.8726   42.9742 H   0  0  0  0  0  0  0  0  0  0  0  0
   44.3811   34.4808   42.7011 H   0  0  0  0  0  0  0  0  0  0  0  0
   36.1948   32.8935   39.5286 H   0  0  0  0  0  0  0  0  0  0  0  0
   37.2694   31.6038   38.9223 H   0  0  0  0  0  0  0  0  0  0  0  0
   38.5300   30.7154   42.2119 H   0  0  0  0  0  0  0  0  0  0  0  0
   35.4831   27.7002   41.5329 H   0  0  0  0  0  0  0  0  0  0  0  0
   38.8019   26.9224   44.1044 H   0  0  0  0  0  0  0  0  0  0  0  0
  1 14  1  0
  1  3  1  0
  2  1  1  0
  4  1  1  0
  4  5  1  0
  5  6  1  0
  5 13  1  0
  6  7  2  0
  7  8  1  0
  8  9  2  0
  9 10  1  0
 11 10  2  0
 12 11  1  0
 13 12  2  0
 13  8  1  0
 15 14  1  0
 15 16  1  0
 16 17  1  0
 17 20  1  0
 18 17  2  0
 19 24  2  0
 20 21  2  0
 20 19  1  0
 21 22  1  0
 22 23  2  0
 24 23  1  0
  2 25  1  0
  2 26  1  0
  2 27  1  0
  3 28  1  0
  3 29  1  0
  3 30  1  0
  4 31  1  0
  4 32  1  0
  6 33  1  0
  9 34  1  0
 11 35  1  0
 15 36  1  0
 15 37  1  0
 19 38  1  0
 21 39  1  0
 23 40  1  0
M  ISO  8  25   8  26   8  27   8  28   8  29   8  30   8  31   8  32   8
M  ISO  8  33  14  34  14  35  14  36   8  37   8  38  14  39  14  40  14
M  END
>  <minimizedAffinity>  (1) 
-5.84037066

>  <minimizedRMSD>  (1) 
2.33471894

$$$$
