
     RDKit          3D

 39 40  0  0  0  0  0  0  0  0999 V2000
   40.1370   33.2520   39.8080 C   0  0  0  0  0  0  0  0  0  0  0  0
   40.0060   32.3120   38.6360 C   0  0  0  0  0  0  0  0  0  0  0  0
   40.7360   32.4820   40.9470 C   0  0  0  0  0  0  0  0  0  0  0  0
   40.9750   34.4380   39.4060 C   0  0  0  0  0  0  0  0  0  0  0  0
   41.6600   35.0870   40.5480 C   0  0  0  0  0  0  0  0  0  0  0  0
   41.1950   36.2160   41.2030 C   0  0  0  0  0  0  0  0  0  0  0  0
   41.8390   36.8160   42.2630 C   0  0  0  0  0  0  0  0  0  0  0  0
   43.0240   36.2840   42.7260 C   0  0  0  0  0  0  0  0  0  0  0  0
   43.5490   35.1600   42.1240 C   0  0  0  0  0  0  0  0  0  0  0  0
   42.8570   34.6060   41.0670 C   0  0  0  0  0  0  0  0  0  0  0  0
   38.4710   33.8140   40.2520 S   0  0  0  0  0  0  0  0  0  0  0  0
   37.2200   32.5420   39.7500 C   0  0  0  0  0  0  0  0  0  0  0  0
   37.0970   31.6890   40.7400 O   0  0  0  0  0  0  0  0  0  0  0  0
   36.4880   30.4630   40.8470 C   0  0  0  0  0  0  0  0  0  0  0  0
   35.4620   30.2740   40.1810 O   0  0  0  0  0  0  0  0  0  0  0  0
   38.3640   29.8170   42.3660 C   0  0  0  0  0  0  0  0  0  0  0  0
   37.1470   29.4900   41.7670 C   0  0  0  0  0  0  0  0  0  0  0  0
   36.4950   28.2870   41.9600 C   0  0  0  0  0  0  0  0  0  0  0  0
   37.1410   27.4370   42.7920 N   0  0  0  0  0  0  0  0  0  0  0  0
   38.3200   27.7240   43.3870 C   0  0  0  0  0  0  0  0  0  0  0  0
   38.9400   28.9380   43.1670 N   0  0  0  0  0  0  0  0  0  0  0  0
   39.8629   31.2852   39.0037 H   0  0  0  0  0  0  0  0  0  0  0  0
   39.1402   32.6065   38.0247 H   0  0  0  0  0  0  0  0  0  0  0  0
   40.9193   32.3586   38.0247 H   0  0  0  0  0  0  0  0  0  0  0  0
   40.3988   32.9154   41.9001 H   0  0  0  0  0  0  0  0  0  0  0  0
   40.4154   31.4314   40.8882 H   0  0  0  0  0  0  0  0  0  0  0  0
   41.8332   32.5344   40.8882 H   0  0  0  0  0  0  0  0  0  0  0  0
   41.7371   34.0996   38.6886 H   0  0  0  0  0  0  0  0  0  0  0  0
   40.2948   35.1835   38.9684 H   0  0  0  0  0  0  0  0  0  0  0  0
   40.2516   36.6616   40.8545 H   0  0  0  0  0  0  0  0  0  0  0  0
   41.4113   37.7122   42.7362 H   0  0  0  0  0  0  0  0  0  0  0  0
   43.5479   36.7540   43.5714 H   0  0  0  0  0  0  0  0  0  0  0  0
   44.4925   34.7178   42.4765 H   0  0  0  0  0  0  0  0  0  0  0  0
   43.2875   33.7100   40.5960 H   0  0  0  0  0  0  0  0  0  0  0  0
   36.2527   33.0264   39.5508 H   0  0  0  0  0  0  0  0  0  0  0  0
   37.5433   32.0248   38.8346 H   0  0  0  0  0  0  0  0  0  0  0  0
   38.8367   30.7916   42.1744 H   0  0  0  0  0  0  0  0  0  0  0  0
   35.5361   28.0419   41.4800 H   0  0  0  0  0  0  0  0  0  0  0  0
   38.7896   26.9843   44.0521 H   0  0  0  0  0  0  0  0  0  0  0  0
  1 11  1  0
  1  3  1  0
  2  1  1  0
  4  1  1  0
  4  5  1  0
  5 10  1  0
  5  6  2  0
  6  7  1  0
  7  8  2  0
  9  8  1  0
 10  9  2  0
 12 11  1  0
 12 13  1  0
 13 14  1  0
 14 17  1  0
 15 14  2  0
 16 21  2  0
 17 18  2  0
 17 16  1  0
 18 19  1  0
 19 20  2  0
 21 20  1  0
  2 22  1  0
  2 23  1  0
  2 24  1  0
  3 25  1  0
  3 26  1  0
  3 27  1  0
  4 28  1  0
  4 29  1  0
  6 30  1  0
  7 31  1  0
  8 32  1  0
  9 33  1  0
 10 34  1  0
 12 35  1  0
 12 36  1  0
 16 37  1  0
 18 38  1  0
 20 39  1  0
M  ISO  8  22   8  23   8  24   8  25   8  26   8  27   8  28   8  29   8
M  ISO  8  30  14  31  14  32  14  33  14  34  14  35   8  36   8  37  14
M  ISO  2  38  14  39  14
M  END
>  <minimizedAffinity>  (1) 
-5.2130127

>  <minimizedRMSD>  (1) 
1.4177264

$$$$
