
     RDKit          3D

 36 37  0  0  0  0  0  0  0  0999 V2000
   39.9840   32.5770   39.9410 C   0  0  0  0  0  0  0  0  0  0  0  0
   39.7470   31.3950   39.0260 C   0  0  0  0  0  0  0  0  0  0  0  0
   40.7750   32.0840   41.1350 C   0  0  0  0  0  0  0  0  0  0  0  0
   40.7800   33.6310   39.1920 C   0  0  0  0  0  0  0  0  0  0  0  0
   40.7970   34.8710   39.9240 N   0  0  0  0  0  0  0  0  0  0  0  0
   39.9420   35.8570   39.7400 N   0  0  0  0  0  0  0  0  0  0  0  0
   40.2730   36.8240   40.5910 C   0  0  0  0  0  0  0  0  0  0  0  0
   41.3610   36.4530   41.3350 C   0  0  0  0  0  0  0  0  0  0  0  0
   41.7000   35.1730   40.8930 C   0  0  0  0  0  0  0  0  0  0  0  0
   38.4010   33.2260   40.4740 S   0  0  0  0  0  0  0  0  0  0  0  0
   37.0330   32.1590   39.8030 C   0  0  0  0  0  0  0  0  0  0  0  0
   36.6040   31.4120   40.7950 O   0  0  0  0  0  0  0  0  0  0  0  0
   36.1780   30.1090   40.8730 C   0  0  0  0  0  0  0  0  0  0  0  0
   35.2150   29.7880   40.1730 O   0  0  0  0  0  0  0  0  0  0  0  0
   38.1230   29.7000   42.3890 C   0  0  0  0  0  0  0  0  0  0  0  0
   36.9390   29.2270   41.8100 C   0  0  0  0  0  0  0  0  0  0  0  0
   36.4100   27.9640   42.0270 C   0  0  0  0  0  0  0  0  0  0  0  0
   37.1510   27.2160   42.8620 N   0  0  0  0  0  0  0  0  0  0  0  0
   38.2960   27.6310   43.4410 C   0  0  0  0  0  0  0  0  0  0  0  0
   38.7920   28.8910   43.2030 N   0  0  0  0  0  0  0  0  0  0  0  0
   39.5663   30.4939   39.6304 H   0  0  0  0  0  0  0  0  0  0  0  0
   38.8706   31.5926   38.3913 H   0  0  0  0  0  0  0  0  0  0  0  0
   40.6318   31.2394   38.3913 H   0  0  0  0  0  0  0  0  0  0  0  0
   40.2727   32.3971   42.0622 H   0  0  0  0  0  0  0  0  0  0  0  0
   40.8383   30.9862   41.1050 H   0  0  0  0  0  0  0  0  0  0  0  0
   41.7884   32.5107   41.1050 H   0  0  0  0  0  0  0  0  0  0  0  0
   40.3196   33.7992   38.2072 H   0  0  0  0  0  0  0  0  0  0  0  0
   41.8143   33.2757   39.0738 H   0  0  0  0  0  0  0  0  0  0  0  0
   39.7472   37.7857   40.6840 H   0  0  0  0  0  0  0  0  0  0  0  0
   41.8631   37.0408   42.1176 H   0  0  0  0  0  0  0  0  0  0  0  0
   42.5252   34.5414   41.2537 H   0  0  0  0  0  0  0  0  0  0  0  0
   36.2148   32.7888   39.4236 H   0  0  0  0  0  0  0  0  0  0  0  0
   37.3943   31.5360   38.9715 H   0  0  0  0  0  0  0  0  0  0  0  0
   38.4895   30.7149   42.1754 H   0  0  0  0  0  0  0  0  0  0  0  0
   35.4778   27.6099   41.5626 H   0  0  0  0  0  0  0  0  0  0  0  0
   38.8408   26.9518   44.1132 H   0  0  0  0  0  0  0  0  0  0  0  0
  1 10  1  0
  1  3  1  0
  2  1  1  0
  4  5  1  0
  4  1  1  0
  5  9  1  0
  6  5  1  0
  6  7  2  0
  7  8  1  0
  9  8  2  0
 11 10  1  0
 11 12  1  0
 12 13  1  0
 13 16  1  0
 14 13  2  0
 15 20  2  0
 16 17  2  0
 16 15  1  0
 17 18  1  0
 18 19  2  0
 20 19  1  0
  2 21  1  0
  2 22  1  0
  2 23  1  0
  3 24  1  0
  3 25  1  0
  3 26  1  0
  4 27  1  0
  4 28  1  0
  7 29  1  0
  8 30  1  0
  9 31  1  0
 11 32  1  0
 11 33  1  0
 15 34  1  0
 17 35  1  0
 19 36  1  0
M  ISO  8  21   8  22   8  23   8  24   8  25   8  26   8  27   8  28   8
M  ISO  8  29  14  30  14  31  14  32   8  33   8  34  14  35  14  36  14
M  END
>  <minimizedAffinity>  (1) 
-4.7044754

>  <minimizedRMSD>  (1) 
1.3994664

$$$$
