
     RDKit          3D

 42 43  0  0  0  0  0  0  0  0999 V2000
   39.3850   32.1710   39.2420 C   0  0  0  0  0  0  0  0  0  0  0  0
   40.1240   32.3810   37.9610 C   0  0  0  0  0  0  0  0  0  0  0  0
   39.7540   30.7890   39.7720 C   0  0  0  0  0  0  0  0  0  0  0  0
   39.7510   33.1860   40.2960 C   0  0  0  0  0  0  0  0  0  0  0  0
   40.1600   34.5270   39.9020 C   0  0  0  0  0  0  0  0  0  0  0  0
   41.3130   35.0820   40.6400 C   0  0  0  0  0  0  0  0  0  0  0  0
   41.0100   36.5740   40.8570 C   0  0  0  0  0  0  0  0  0  0  0  0
   39.7710   36.8250   40.0230 C   0  0  0  0  0  0  0  0  0  0  0  0
   39.0200   35.5170   40.2490 C   0  0  0  0  0  0  0  0  0  0  0  0
   37.6120   32.2040   38.9500 S   0  0  0  0  0  0  0  0  0  0  0  0
   37.0380   30.5040   38.4520 C   0  0  0  0  0  0  0  0  0  0  0  0
   36.3640   30.0060   39.4610 O   0  0  0  0  0  0  0  0  0  0  0  0
   36.1970   28.7170   39.9250 C   0  0  0  0  0  0  0  0  0  0  0  0
   35.5720   27.9350   39.2080 O   0  0  0  0  0  0  0  0  0  0  0  0
   37.1890   29.4840   42.0910 C   0  0  0  0  0  0  0  0  0  0  0  0
   36.8050   28.4290   41.2590 C   0  0  0  0  0  0  0  0  0  0  0  0
   36.9640   27.0980   41.5780 C   0  0  0  0  0  0  0  0  0  0  0  0
   37.5320   26.8750   42.7830 N   0  0  0  0  0  0  0  0  0  0  0  0
   37.9140   27.8730   43.6090 C   0  0  0  0  0  0  0  0  0  0  0  0
   37.7430   29.1940   43.2660 N   0  0  0  0  0  0  0  0  0  0  0  0
   41.1609   32.6757   38.1800 H   0  0  0  0  0  0  0  0  0  0  0  0
   40.1231   31.4471   37.3798 H   0  0  0  0  0  0  0  0  0  0  0  0
   39.6321   33.1749   37.3798 H   0  0  0  0  0  0  0  0  0  0  0  0
   39.7497   30.8049   40.8719 H   0  0  0  0  0  0  0  0  0  0  0  0
   39.0214   30.0511   39.4132 H   0  0  0  0  0  0  0  0  0  0  0  0
   40.7569   30.5144   39.4132 H   0  0  0  0  0  0  0  0  0  0  0  0
   38.8714   33.3001   40.9465 H   0  0  0  0  0  0  0  0  0  0  0  0
   40.6615   32.7655   40.7479 H   0  0  0  0  0  0  0  0  0  0  0  0
   40.4132   34.4263   38.8363 H   0  0  0  0  0  0  0  0  0  0  0  0
   41.4268   34.5719   41.6079 H   0  0  0  0  0  0  0  0  0  0  0  0
   42.2500   34.9418   40.0811 H   0  0  0  0  0  0  0  0  0  0  0  0
   40.8143   36.7822   41.9193 H   0  0  0  0  0  0  0  0  0  0  0  0
   41.8511   37.2217   40.5687 H   0  0  0  0  0  0  0  0  0  0  0  0
   40.0183   36.9740   38.9616 H   0  0  0  0  0  0  0  0  0  0  0  0
   39.2093   37.7310   40.2945 H   0  0  0  0  0  0  0  0  0  0  0  0
   38.1602   35.4115   39.5711 H   0  0  0  0  0  0  0  0  0  0  0  0
   38.5699   35.3934   41.2451 H   0  0  0  0  0  0  0  0  0  0  0  0
   36.3917   30.5705   37.5644 H   0  0  0  0  0  0  0  0  0  0  0  0
   37.8959   29.8619   38.2035 H   0  0  0  0  0  0  0  0  0  0  0  0
   37.0371   30.5288   41.7824 H   0  0  0  0  0  0  0  0  0  0  0  0
   36.6538   26.2839   40.9064 H   0  0  0  0  0  0  0  0  0  0  0  0
   38.3720   27.6238   44.5776 H   0  0  0  0  0  0  0  0  0  0  0  0
  1  3  1  0
  1  4  1  0
  2  1  1  0
  5  9  1  0
  5  4  1  0
  5  6  1  0
  6  7  1  0
  8  9  1  0
  8  7  1  0
 10  1  1  0
 11 10  1  0
 11 12  1  0
 12 13  1  0
 13 16  1  0
 14 13  2  0
 15 20  2  0
 16 17  2  0
 16 15  1  0
 17 18  1  0
 18 19  2  0
 20 19  1  0
  2 21  1  0
  2 22  1  0
  2 23  1  0
  3 24  1  0
  3 25  1  0
  3 26  1  0
  4 27  1  0
  4 28  1  0
  5 29  1  0
  6 30  1  0
  6 31  1  0
  7 32  1  0
  7 33  1  0
  8 34  1  0
  8 35  1  0
  9 36  1  0
  9 37  1  0
 11 38  1  0
 11 39  1  0
 15 40  1  0
 17 41  1  0
 19 42  1  0
M  ISO  8  21   8  22   8  23   8  24   8  25   8  26   8  27   8  28   8
M  ISO  8  29  13  30  13  31  13  32  13  33  13  34  13  35  13  36  13
M  ISO  6  37  13  38   8  39   8  40  14  41  14  42  14
M  END
>  <minimizedAffinity>  (1) 
-4.59963608

>  <minimizedRMSD>  (1) 
1.71335781

$$$$
