
     RDKit          3D

 35 36  0  0  0  0  0  0  0  0999 V2000
   40.3730   33.5220   39.9350 C   0  0  0  0  0  0  0  0  0  0  0  0
   40.2410   32.6770   38.7190 C   0  0  0  0  0  0  0  0  0  0  0  0
   41.0240   32.6830   41.0130 C   0  0  0  0  0  0  0  0  0  0  0  0
   41.2420   34.7240   39.6170 C   0  0  0  0  0  0  0  0  0  0  0  0
   41.6650   35.4560   40.7780 N   0  0  0  0  0  0  0  0  0  0  0  0
   42.8170   35.1450   41.4420 C   0  0  0  0  0  0  0  0  0  0  0  0
   42.9630   35.9830   42.4770 N   0  0  0  0  0  0  0  0  0  0  0  0
   41.9160   36.8260   42.4820 C   0  0  0  0  0  0  0  0  0  0  0  0
   41.1590   36.4800   41.4470 N   0  0  0  0  0  0  0  0  0  0  0  0
   38.7600   34.0630   40.4800 S   0  0  0  0  0  0  0  0  0  0  0  0
   37.4620   32.8470   39.9830 C   0  0  0  0  0  0  0  0  0  0  0  0
   37.5060   31.8350   40.8370 O   0  0  0  0  0  0  0  0  0  0  0  0
   36.7560   30.6910   40.9320 C   0  0  0  0  0  0  0  0  0  0  0  0
   35.6820   30.6510   40.3180 O   0  0  0  0  0  0  0  0  0  0  0  0
   38.5730   29.7960   42.3930 C   0  0  0  0  0  0  0  0  0  0  0  0
   37.3310   29.6050   41.7830 C   0  0  0  0  0  0  0  0  0  0  0  0
   36.5950   28.4590   41.9080 C   0  0  0  0  0  0  0  0  0  0  0  0
   37.1680   27.5060   42.6790 N   0  0  0  0  0  0  0  0  0  0  0  0
   38.3670   27.6520   43.2850 C   0  0  0  0  0  0  0  0  0  0  0  0
   39.0760   28.8230   43.1340 N   0  0  0  0  0  0  0  0  0  0  0  0
   40.0775   31.6305   39.0157 H   0  0  0  0  0  0  0  0  0  0  0  0
   39.3865   33.0263   38.1208 H   0  0  0  0  0  0  0  0  0  0  0  0
   41.1613   32.7490   38.1208 H   0  0  0  0  0  0  0  0  0  0  0  0
   40.7288   33.0634   42.0020 H   0  0  0  0  0  0  0  0  0  0  0  0
   40.6986   31.6373   40.9103 H   0  0  0  0  0  0  0  0  0  0  0  0
   42.1178   32.7384   40.9103 H   0  0  0  0  0  0  0  0  0  0  0  0
   42.1373   34.3732   39.0828 H   0  0  0  0  0  0  0  0  0  0  0  0
   40.6318   35.4094   39.0105 H   0  0  0  0  0  0  0  0  0  0  0  0
   43.5126   34.3371   41.1709 H   0  0  0  0  0  0  0  0  0  0  0  0
   41.7248   37.6384   43.1986 H   0  0  0  0  0  0  0  0  0  0  0  0
   36.4708   33.3228   40.0175 H   0  0  0  0  0  0  0  0  0  0  0  0
   37.6411   32.4920   38.9574 H   0  0  0  0  0  0  0  0  0  0  0  0
   39.1230   30.7392   42.2594 H   0  0  0  0  0  0  0  0  0  0  0  0
   35.6177   28.3232   41.4218 H   0  0  0  0  0  0  0  0  0  0  0  0
   38.7765   26.8360   43.8986 H   0  0  0  0  0  0  0  0  0  0  0  0
  1 10  1  0
  1  3  1  0
  2  1  1  0
  4  1  1  0
  4  5  1  0
  5  6  1  0
  5  9  1  0
  6  7  2  0
  7  8  1  0
  9  8  2  0
 11 10  1  0
 11 12  1  0
 12 13  1  0
 13 16  1  0
 14 13  2  0
 15 20  2  0
 16 17  2  0
 16 15  1  0
 17 18  1  0
 18 19  2  0
 20 19  1  0
  2 21  1  0
  2 22  1  0
  2 23  1  0
  3 24  1  0
  3 25  1  0
  3 26  1  0
  4 27  1  0
  4 28  1  0
  6 29  1  0
  8 30  1  0
 11 31  1  0
 11 32  1  0
 15 33  1  0
 17 34  1  0
 19 35  1  0
M  ISO  8  21   8  22   8  23   8  24   8  25   8  26   8  27   8  28   8
M  ISO  7  29  14  30  14  31   8  32   8  33  14  34  14  35  14
M  END
>  <minimizedAffinity>  (1) 
-4.69969797

>  <minimizedRMSD>  (1) 
1.52243197

$$$$
