
     RDKit          3D

 44 45  0  0  0  0  0  0  0  0999 V2000
   40.6030   33.6350   39.9820 C   0  0  0  0  0  0  0  0  0  0  0  0
   40.4480   32.8630   38.7110 C   0  0  0  0  0  0  0  0  0  0  0  0
   41.2330   32.7000   40.9910 C   0  0  0  0  0  0  0  0  0  0  0  0
   41.5250   34.8120   39.7410 C   0  0  0  0  0  0  0  0  0  0  0  0
   41.8910   35.5120   40.9390 N   0  0  0  0  0  0  0  0  0  0  0  0
   42.9930   35.1400   41.6350 C   0  0  0  0  0  0  0  0  0  0  0  0
   43.1270   35.9320   42.7100 N   0  0  0  0  0  0  0  0  0  0  0  0
   42.0990   36.8150   42.6960 C   0  0  0  0  0  0  0  0  0  0  0  0
   41.3850   36.5330   41.6240 N   0  0  0  0  0  0  0  0  0  0  0  0
   39.0070   34.1750   40.5450 S   0  0  0  0  0  0  0  0  0  0  0  0
   37.7140   32.9070   40.1850 C   0  0  0  0  0  0  0  0  0  0  0  0
   37.9220   31.8740   40.9940 O   0  0  0  0  0  0  0  0  0  0  0  0
   37.1580   30.7640   41.2680 C   0  0  0  0  0  0  0  0  0  0  0  0
   35.9770   30.7700   40.9040 O   0  0  0  0  0  0  0  0  0  0  0  0
   39.2230   29.7610   42.2250 C   0  0  0  0  0  0  0  0  0  0  0  0
   37.8610   29.6530   41.9910 C   0  0  0  0  0  0  0  0  0  0  0  0
   37.1090   28.5830   42.3800 C   0  0  0  0  0  0  0  0  0  0  0  0
   37.7930   27.6210   43.0210 N   0  0  0  0  0  0  0  0  0  0  0  0
   39.1200   27.6730   43.2770 C   0  0  0  0  0  0  0  0  0  0  0  0
   39.8330   28.7760   42.8620 N   0  0  0  0  0  0  0  0  0  0  0  0
   39.8240   26.5770   43.9920 C   0  0  0  0  0  0  0  0  0  0  0  0
   41.2900   26.9280   44.2180 C   0  0  0  0  0  0  0  0  0  0  0  0
   39.7030   25.2610   43.2690 C   0  0  0  0  0  0  0  0  0  0  0  0
   40.2364   31.8093   38.9455 H   0  0  0  0  0  0  0  0  0  0  0  0
   39.6162   33.2827   38.1262 H   0  0  0  0  0  0  0  0  0  0  0  0
   41.3773   32.9291   38.1262 H   0  0  0  0  0  0  0  0  0  0  0  0
   40.9992   33.0470   42.0083 H   0  0  0  0  0  0  0  0  0  0  0  0
   40.8341   31.6848   40.8491 H   0  0  0  0  0  0  0  0  0  0  0  0
   42.3238   32.6885   40.8491 H   0  0  0  0  0  0  0  0  0  0  0  0
   42.4428   34.4417   39.2608 H   0  0  0  0  0  0  0  0  0  0  0  0
   40.9779   35.5246   39.1063 H   0  0  0  0  0  0  0  0  0  0  0  0
   43.6710   34.3180   41.3616 H   0  0  0  0  0  0  0  0  0  0  0  0
   41.9001   37.6082   43.4317 H   0  0  0  0  0  0  0  0  0  0  0  0
   36.7147   33.3294   40.3668 H   0  0  0  0  0  0  0  0  0  0  0  0
   37.7699   32.5889   39.1335 H   0  0  0  0  0  0  0  0  0  0  0  0
   39.7834   30.6457   41.8885 H   0  0  0  0  0  0  0  0  0  0  0  0
   36.0288   28.5137   42.1843 H   0  0  0  0  0  0  0  0  0  0  0  0
   39.3335   26.4636   44.9700 H   0  0  0  0  0  0  0  0  0  0  0  0
   41.4931   26.9766   45.2980 H   0  0  0  0  0  0  0  0  0  0  0  0
   41.9265   26.1569   43.7596 H   0  0  0  0  0  0  0  0  0  0  0  0
   41.5083   27.9038   43.7596 H   0  0  0  0  0  0  0  0  0  0  0  0
   39.6280   24.4450   44.0029 H   0  0  0  0  0  0  0  0  0  0  0  0
   38.8020   25.2707   42.6381 H   0  0  0  0  0  0  0  0  0  0  0  0
   40.5907   25.1063   42.6381 H   0  0  0  0  0  0  0  0  0  0  0  0
  1 10  1  0
  1  3  1  0
  2  1  1  0
  4  1  1  0
  4  5  1  0
  5  9  1  0
  5  6  1  0
  6  7  2  0
  8  7  1  0
  9  8  2  0
 11 10  1  0
 11 12  1  0
 12 13  1  0
 13 16  1  0
 14 13  2  0
 15 20  2  0
 16 15  1  0
 16 17  2  0
 17 18  1  0
 18 19  2  0
 19 21  1  0
 20 19  1  0
 21 22  1  0
 23 21  1  0
  2 24  1  0
  2 25  1  0
  2 26  1  0
  3 27  1  0
  3 28  1  0
  3 29  1  0
  4 30  1  0
  4 31  1  0
  6 32  1  0
  8 33  1  0
 11 34  1  0
 11 35  1  0
 15 36  1  0
 17 37  1  0
 21 38  1  0
 22 39  1  0
 22 40  1  0
 22 41  1  0
 23 42  1  0
 23 43  1  0
 23 44  1  0
M  ISO  8  24   8  25   8  26   8  27   8  28   8  29   8  30   8  31   8
M  ISO  8  32  14  33  14  34   8  35   8  36  14  37  14  38   8  39   8
M  ISO  5  40   8  41   8  42   8  43   8  44   8
M  END
>  <minimizedAffinity>  (1) 
-5.40405416

>  <minimizedRMSD>  (1) 
0.904269516

$$$$
