
     RDKit          3D

 51 53  0  0  0  0  0  0  0  0999 V2000
   39.2410   34.5370   40.7170 S   0  0  0  0  0  0  0  0  0  0  0  0
   37.7540   33.9960   39.7690 C   0  0  0  0  0  0  0  0  0  0  0  0
   37.4420   32.7670   40.1390 O   0  0  0  0  0  0  0  0  0  0  0  0
   37.2910   31.5980   39.4380 C   0  0  0  0  0  0  0  0  0  0  0  0
   36.8490   31.6680   38.2860 O   0  0  0  0  0  0  0  0  0  0  0  0
   38.0990   30.4390   41.4860 C   0  0  0  0  0  0  0  0  0  0  0  0
   37.6880   30.3520   40.1610 C   0  0  0  0  0  0  0  0  0  0  0  0
   37.6120   29.1850   39.4670 C   0  0  0  0  0  0  0  0  0  0  0  0
   37.9760   28.0770   40.1740 N   0  0  0  0  0  0  0  0  0  0  0  0
   38.3820   28.1160   41.4640 C   0  0  0  0  0  0  0  0  0  0  0  0
   38.4390   29.3270   42.1150 N   0  0  0  0  0  0  0  0  0  0  0  0
   38.7710   26.8830   42.1990 C   0  0  0  0  0  0  0  0  0  0  0  0
   38.5610   25.6320   41.3950 C   0  0  0  0  0  0  0  0  0  0  0  0
   39.4730   24.5630   41.9570 C   0  0  0  0  0  0  0  0  0  0  0  0
   39.6920   24.7200   43.4480 C   0  0  0  0  0  0  0  0  0  0  0  0
   40.3820   26.0150   43.7980 C   0  0  0  0  0  0  0  0  0  0  0  0
   40.2460   26.9280   42.5910 C   0  0  0  0  0  0  0  0  0  0  0  0
   40.7090   33.7470   40.1060 C   0  0  0  0  0  0  0  0  0  0  0  0
   40.4230   33.1100   38.7860 C   0  0  0  0  0  0  0  0  0  0  0  0
   41.1540   32.6450   41.0330 C   0  0  0  0  0  0  0  0  0  0  0  0
   41.8300   34.7520   39.9290 C   0  0  0  0  0  0  0  0  0  0  0  0
   42.1170   35.5020   41.1200 N   0  0  0  0  0  0  0  0  0  0  0  0
   43.1760   35.1690   41.8990 C   0  0  0  0  0  0  0  0  0  0  0  0
   43.2360   36.0020   42.9430 N   0  0  0  0  0  0  0  0  0  0  0  0
   42.2090   36.8770   42.8350 C   0  0  0  0  0  0  0  0  0  0  0  0
   41.5680   36.5430   41.7330 N   0  0  0  0  0  0  0  0  0  0  0  0
   37.9749   34.0137   38.6915 H   0  0  0  0  0  0  0  0  0  0  0  0
   36.9121   34.6744   39.9716 H   0  0  0  0  0  0  0  0  0  0  0  0
   38.1404   31.4109   41.9995 H   0  0  0  0  0  0  0  0  0  0  0  0
   37.2830   29.1384   38.4184 H   0  0  0  0  0  0  0  0  0  0  0  0
   38.1223   26.8536   43.0869 H   0  0  0  0  0  0  0  0  0  0  0  0
   38.8094   25.8191   40.3399 H   0  0  0  0  0  0  0  0  0  0  0  0
   37.5107   25.3102   41.4520 H   0  0  0  0  0  0  0  0  0  0  0  0
   39.0220   23.5778   41.7675 H   0  0  0  0  0  0  0  0  0  0  0  0
   40.4502   24.6595   41.4612 H   0  0  0  0  0  0  0  0  0  0  0  0
   38.7150   24.6934   43.9527 H   0  0  0  0  0  0  0  0  0  0  0  0
   40.3410   23.8958   43.7788 H   0  0  0  0  0  0  0  0  0  0  0  0
   39.9027   26.4739   44.6753 H   0  0  0  0  0  0  0  0  0  0  0  0
   41.4402   25.8432   44.0444 H   0  0  0  0  0  0  0  0  0  0  0  0
   40.8734   26.5650   41.7636 H   0  0  0  0  0  0  0  0  0  0  0  0
   40.5728   27.9531   42.8201 H   0  0  0  0  0  0  0  0  0  0  0  0
   39.9773   32.1173   38.9468 H   0  0  0  0  0  0  0  0  0  0  0  0
   39.7212   33.7396   38.2194 H   0  0  0  0  0  0  0  0  0  0  0  0
   41.3599   33.0039   38.2194 H   0  0  0  0  0  0  0  0  0  0  0  0
   41.0234   32.9684   42.0763 H   0  0  0  0  0  0  0  0  0  0  0  0
   40.5489   31.7449   40.8496 H   0  0  0  0  0  0  0  0  0  0  0  0
   42.2145   32.4175   40.8496 H   0  0  0  0  0  0  0  0  0  0  0  0
   42.7397   34.2106   39.6302 H   0  0  0  0  0  0  0  0  0  0  0  0
   41.5036   35.4710   39.1632 H   0  0  0  0  0  0  0  0  0  0  0  0
   43.8757   34.3432   41.7027 H   0  0  0  0  0  0  0  0  0  0  0  0
   41.9607   37.6973   43.5245 H   0  0  0  0  0  0  0  0  0  0  0  0
  2  3  1  0
  2  1  1  0
  4  3  1  0
  4  7  1  0
  5  4  2  0
  6 11  2  0
  7  6  1  0
  8  7  2  0
  8  9  1  0
  9 10  2  0
 10 11  1  0
 10 12  1  0
 12 17  1  0
 13 14  1  0
 13 12  1  0
 14 15  1  0
 15 16  1  0
 17 16  1  0
 18  1  1  0
 18 20  1  0
 19 18  1  0
 21 18  1  0
 21 22  1  0
 22 26  1  0
 22 23  1  0
 23 24  2  0
 25 24  1  0
 26 25  2  0
  2 27  1  0
  2 28  1  0
  6 29  1  0
  8 30  1  0
 12 31  1  0
 13 32  1  0
 13 33  1  0
 14 34  1  0
 14 35  1  0
 15 36  1  0
 15 37  1  0
 16 38  1  0
 16 39  1  0
 17 40  1  0
 17 41  1  0
 19 42  1  0
 19 43  1  0
 19 44  1  0
 20 45  1  0
 20 46  1  0
 20 47  1  0
 21 48  1  0
 21 49  1  0
 23 50  1  0
 25 51  1  0
M  ISO  8  27   8  28   8  29  14  30  14  31  13  32  13  33  13  34  13
M  ISO  8  35  13  36  13  37  13  38  13  39  13  40  13  41  13  42   8
M  ISO  8  43   8  44   8  45   8  46   8  47   8  48   8  49   8  50  14
M  ISO  1  51  14
M  END
>  <minimizedAffinity>  (1) 
-5.37706947

>  <minimizedRMSD>  (1) 
1.70098352

$$$$
