
     RDKit          3D

 38 39  0  0  0  0  0  0  0  0999 V2000
   40.6360   33.6070   39.9900 C   0  0  0  0  0  0  0  0  0  0  0  0
   40.4750   32.8580   38.7110 C   0  0  0  0  0  0  0  0  0  0  0  0
   41.3570   32.6790   40.9460 C   0  0  0  0  0  0  0  0  0  0  0  0
   41.4860   34.8310   39.7350 C   0  0  0  0  0  0  0  0  0  0  0  0
   41.8690   35.5210   40.9390 N   0  0  0  0  0  0  0  0  0  0  0  0
   42.9700   35.1480   41.6340 C   0  0  0  0  0  0  0  0  0  0  0  0
   43.1120   35.9300   42.7010 N   0  0  0  0  0  0  0  0  0  0  0  0
   42.0950   36.8210   42.7040 C   0  0  0  0  0  0  0  0  0  0  0  0
   41.3730   36.5420   41.6350 N   0  0  0  0  0  0  0  0  0  0  0  0
   39.0400   34.0550   40.6200 S   0  0  0  0  0  0  0  0  0  0  0  0
   37.7770   32.7660   40.2530 C   0  0  0  0  0  0  0  0  0  0  0  0
   38.0480   31.6980   40.9850 O   0  0  0  0  0  0  0  0  0  0  0  0
   37.2670   30.6570   41.4120 C   0  0  0  0  0  0  0  0  0  0  0  0
   36.0470   30.7290   41.2170 O   0  0  0  0  0  0  0  0  0  0  0  0
   39.3590   29.6430   42.3070 C   0  0  0  0  0  0  0  0  0  0  0  0
   37.9950   29.5290   42.0810 C   0  0  0  0  0  0  0  0  0  0  0  0
   37.2560   28.4330   42.4300 C   0  0  0  0  0  0  0  0  0  0  0  0
   37.9710   27.4430   43.0280 N   0  0  0  0  0  0  0  0  0  0  0  0
   39.2880   27.5230   43.2610 C   0  0  0  0  0  0  0  0  0  0  0  0
   39.9890   28.6500   42.8890 N   0  0  0  0  0  0  0  0  0  0  0  0
   39.9920   26.4420   43.8980 C   0  0  0  0  0  0  0  0  0  0  0  0
   39.6350   25.2580   43.6210 O   0  0  0  0  0  0  0  0  0  0  0  0
   41.0260   26.6550   44.7860 O   0  0  0  0  0  0  0  0  0  0  0  0
   40.2484   31.8040   38.9294 H   0  0  0  0  0  0  0  0  0  0  0  0
   39.6508   33.2975   38.1300 H   0  0  0  0  0  0  0  0  0  0  0  0
   41.4070   32.9200   38.1300 H   0  0  0  0  0  0  0  0  0  0  0  0
   41.1300   32.9712   41.9819 H   0  0  0  0  0  0  0  0  0  0  0  0
   41.0230   31.6449   40.7751 H   0  0  0  0  0  0  0  0  0  0  0  0
   42.4415   32.7470   40.7751 H   0  0  0  0  0  0  0  0  0  0  0  0
   42.3988   34.5180   39.2069 H   0  0  0  0  0  0  0  0  0  0  0  0
   40.8800   35.5292   39.1389 H   0  0  0  0  0  0  0  0  0  0  0  0
   43.6443   34.3238   41.3582 H   0  0  0  0  0  0  0  0  0  0  0  0
   41.9082   37.6136   43.4436 H   0  0  0  0  0  0  0  0  0  0  0  0
   36.7753   33.1447   40.5043 H   0  0  0  0  0  0  0  0  0  0  0  0
   37.7987   32.5079   39.1839 H   0  0  0  0  0  0  0  0  0  0  0  0
   39.9028   30.5498   42.0037 H   0  0  0  0  0  0  0  0  0  0  0  0
   36.1746   28.3584   42.2429 H   0  0  0  0  0  0  0  0  0  0  0  0
   41.4861   25.8845   45.2040 H   0  0  0  0  0  0  0  0  0  0  0  0
  1 10  1  0
  1  3  1  0
  2  1  1  0
  4  1  1  0
  4  5  1  0
  5  6  1  0
  5  9  1  0
  6  7  2  0
  7  8  1  0
  9  8  2  0
 11 10  1  0
 11 12  1  0
 12 13  1  0
 13 16  1  0
 14 13  2  0
 15 20  2  0
 16 15  1  0
 16 17  2  0
 17 18  1  0
 18 19  2  0
 19 21  1  0
 20 19  1  0
 21 23  1  0
 22 21  2  0
  2 24  1  0
  2 25  1  0
  2 26  1  0
  3 27  1  0
  3 28  1  0
  3 29  1  0
  4 30  1  0
  4 31  1  0
  6 32  1  0
  8 33  1  0
 11 34  1  0
 11 35  1  0
 15 36  1  0
 17 37  1  0
 23 38  1  0
M  ISO  8  24   8  25   8  26   8  27   8  28   8  29   8  30   8  31   8
M  ISO  7  32  14  33  14  34   8  35   8  36  14  37  14  38   3
M  END
>  <minimizedAffinity>  (1) 
-5.34131765

>  <minimizedRMSD>  (1) 
0.701719344

$$$$
