
     RDKit          3D

 42 44  0  0  0  0  0  0  0  0999 V2000
   39.0650   34.4800   40.6380 S   0  0  0  0  0  0  0  0  0  0  0  0
   37.6120   33.8120   39.7140 C   0  0  0  0  0  0  0  0  0  0  0  0
   37.3480   32.6040   40.2120 O   0  0  0  0  0  0  0  0  0  0  0  0
   37.2300   31.3860   39.5970 C   0  0  0  0  0  0  0  0  0  0  0  0
   36.6970   31.3530   38.4730 O   0  0  0  0  0  0  0  0  0  0  0  0
   38.2580   30.4030   41.6370 C   0  0  0  0  0  0  0  0  0  0  0  0
   37.7640   30.2130   40.3560 C   0  0  0  0  0  0  0  0  0  0  0  0
   37.7440   28.9940   39.7240 C   0  0  0  0  0  0  0  0  0  0  0  0
   38.2500   27.9770   40.4570 N   0  0  0  0  0  0  0  0  0  0  0  0
   38.7360   28.1330   41.7030 C   0  0  0  0  0  0  0  0  0  0  0  0
   38.7390   29.3690   42.3040 N   0  0  0  0  0  0  0  0  0  0  0  0
   39.2590   27.0290   42.4340 N   0  0  0  0  0  0  0  0  0  0  0  0
   39.5530   25.8250   41.8640 C   0  0  0  0  0  0  0  0  0  0  0  0
   40.0450   24.9270   42.7900 C   0  0  0  0  0  0  0  0  0  0  0  0
   40.0410   25.6180   43.9410 N   0  0  0  0  0  0  0  0  0  0  0  0
   39.5680   26.8750   43.7140 C   0  0  0  0  0  0  0  0  0  0  0  0
   40.5780   33.7490   40.0610 C   0  0  0  0  0  0  0  0  0  0  0  0
   40.3300   33.0410   38.7710 C   0  0  0  0  0  0  0  0  0  0  0  0
   41.0810   32.7120   41.0410 C   0  0  0  0  0  0  0  0  0  0  0  0
   41.6420   34.8020   39.8460 C   0  0  0  0  0  0  0  0  0  0  0  0
   41.9950   35.5150   41.0430 N   0  0  0  0  0  0  0  0  0  0  0  0
   43.0760   35.1460   41.7730 C   0  0  0  0  0  0  0  0  0  0  0  0
   43.1990   35.9470   42.8310 N   0  0  0  0  0  0  0  0  0  0  0  0
   42.1890   36.8450   42.7860 C   0  0  0  0  0  0  0  0  0  0  0  0
   41.4920   36.5500   41.7000 N   0  0  0  0  0  0  0  0  0  0  0  0
   37.8502   33.7340   38.6429 H   0  0  0  0  0  0  0  0  0  0  0  0
   36.7422   34.4768   39.8218 H   0  0  0  0  0  0  0  0  0  0  0  0
   38.2497   31.4038   42.0933 H   0  0  0  0  0  0  0  0  0  0  0  0
   37.3493   28.8566   38.7065 H   0  0  0  0  0  0  0  0  0  0  0  0
   39.4149   25.5974   40.7967 H   0  0  0  0  0  0  0  0  0  0  0  0
   40.3655   23.8880   42.6236 H   0  0  0  0  0  0  0  0  0  0  0  0
   39.4579   27.6527   44.4841 H   0  0  0  0  0  0  0  0  0  0  0  0
   39.9727   32.0209   38.9754 H   0  0  0  0  0  0  0  0  0  0  0  0
   39.5696   33.5870   38.1934 H   0  0  0  0  0  0  0  0  0  0  0  0
   41.2649   32.9932   38.1934 H   0  0  0  0  0  0  0  0  0  0  0  0
   40.9097   33.0651   42.0686 H   0  0  0  0  0  0  0  0  0  0  0  0
   40.5414   31.7665   40.8835 H   0  0  0  0  0  0  0  0  0  0  0  0
   42.1576   32.5504   40.8835 H   0  0  0  0  0  0  0  0  0  0  0  0
   42.5448   34.3097   39.4553 H   0  0  0  0  0  0  0  0  0  0  0  0
   41.2294   35.5388   39.1411 H   0  0  0  0  0  0  0  0  0  0  0  0
   43.7499   34.3115   41.5290 H   0  0  0  0  0  0  0  0  0  0  0  0
   41.9880   37.6539   43.5039 H   0  0  0  0  0  0  0  0  0  0  0  0
  2  3  1  0
  2  1  1  0
  4  3  1  0
  4  7  1  0
  5  4  2  0
  6 11  2  0
  7  6  1  0
  8  7  2  0
  8  9  1  0
  9 10  2  0
 10 11  1  0
 10 12  1  0
 12 16  1  0
 13 12  1  0
 13 14  2  0
 14 15  1  0
 16 15  2  0
 17  1  1  0
 17 19  1  0
 18 17  1  0
 20 17  1  0
 20 21  1  0
 21 25  1  0
 21 22  1  0
 22 23  2  0
 24 23  1  0
 25 24  2  0
  2 26  1  0
  2 27  1  0
  6 28  1  0
  8 29  1  0
 13 30  1  0
 14 31  1  0
 16 32  1  0
 18 33  1  0
 18 34  1  0
 18 35  1  0
 19 36  1  0
 19 37  1  0
 19 38  1  0
 20 39  1  0
 20 40  1  0
 22 41  1  0
 24 42  1  0
M  ISO  8  26   8  27   8  28  14  29  14  30  14  31  14  32  14  33   8
M  ISO  8  34   8  35   8  36   8  37   8  38   8  39   8  40   8  41  14
M  ISO  1  42  14
M  END
>  <minimizedAffinity>  (1) 
-5.31915855

>  <minimizedRMSD>  (1) 
1.41863143

$$$$
