
     RDKit          3D

 43 45  0  0  0  0  0  0  0  0999 V2000
   37.3350   32.9370   39.7750 C   0  0  0  0  0  0  0  0  0  0  0  0
   38.6990   34.1120   40.1900 S   0  0  0  0  0  0  0  0  0  0  0  0
   40.2860   33.3810   39.8550 C   0  0  0  0  0  0  0  0  0  0  0  0
   40.1690   32.4460   38.6990 C   0  0  0  0  0  0  0  0  0  0  0  0
   40.7680   32.5740   41.0340 C   0  0  0  0  0  0  0  0  0  0  0  0
   41.3150   34.4440   39.5190 C   0  0  0  0  0  0  0  0  0  0  0  0
   41.6880   35.2520   40.6350 N   0  0  0  0  0  0  0  0  0  0  0  0
   42.7980   34.9810   41.3630 C   0  0  0  0  0  0  0  0  0  0  0  0
   42.9280   35.8710   42.3490 N   0  0  0  0  0  0  0  0  0  0  0  0
   41.8860   36.7320   42.2580 C   0  0  0  0  0  0  0  0  0  0  0  0
   41.1670   36.3290   41.2220 N   0  0  0  0  0  0  0  0  0  0  0  0
   37.1780   32.1050   40.7920 O   0  0  0  0  0  0  0  0  0  0  0  0
   36.7930   30.7990   40.8650 C   0  0  0  0  0  0  0  0  0  0  0  0
   35.6400   30.5180   40.5060 O   0  0  0  0  0  0  0  0  0  0  0  0
   38.8440   29.4300   40.5370 C   0  0  0  0  0  0  0  0  0  0  0  0
   37.8170   29.8330   41.3780 C   0  0  0  0  0  0  0  0  0  0  0  0
   37.6880   29.3920   42.6550 C   0  0  0  0  0  0  0  0  0  0  0  0
   38.6390   28.5210   43.0600 N   0  0  0  0  0  0  0  0  0  0  0  0
   39.6510   28.1000   42.2830 C   0  0  0  0  0  0  0  0  0  0  0  0
   39.7340   28.5800   40.9920 N   0  0  0  0  0  0  0  0  0  0  0  0
   40.6680   27.1560   42.7400 C   0  0  0  0  0  0  0  0  0  0  0  0
   41.3450   27.4630   43.9020 C   0  0  0  0  0  0  0  0  0  0  0  0
   42.2920   26.5280   44.2770 C   0  0  0  0  0  0  0  0  0  0  0  0
   42.5930   25.3790   43.6140 N   0  0  0  0  0  0  0  0  0  0  0  0
   41.8880   25.1490   42.4870 C   0  0  0  0  0  0  0  0  0  0  0  0
   40.9330   26.0160   42.0390 N   0  0  0  0  0  0  0  0  0  0  0  0
   36.4027   33.4952   39.6040 H   0  0  0  0  0  0  0  0  0  0  0  0
   37.5834   32.3760   38.8620 H   0  0  0  0  0  0  0  0  0  0  0  0
   40.0404   31.4185   39.0700 H   0  0  0  0  0  0  0  0  0  0  0  0
   39.2989   32.7265   38.0872 H   0  0  0  0  0  0  0  0  0  0  0  0
   41.0813   32.5034   38.0872 H   0  0  0  0  0  0  0  0  0  0  0  0
   40.4694   33.0739   41.9672 H   0  0  0  0  0  0  0  0  0  0  0  0
   40.3220   31.5691   40.9974 H   0  0  0  0  0  0  0  0  0  0  0  0
   41.8642   32.4902   40.9974 H   0  0  0  0  0  0  0  0  0  0  0  0
   42.2168   33.9455   39.1339 H   0  0  0  0  0  0  0  0  0  0  0  0
   40.8566   35.1128   38.7757 H   0  0  0  0  0  0  0  0  0  0  0  0
   43.4909   34.1489   41.1696 H   0  0  0  0  0  0  0  0  0  0  0  0
   41.6793   37.5917   42.9123 H   0  0  0  0  0  0  0  0  0  0  0  0
   38.9109   29.8155   39.5089 H   0  0  0  0  0  0  0  0  0  0  0  0
   36.8692   29.7195   43.3125 H   0  0  0  0  0  0  0  0  0  0  0  0
   41.1477   28.3764   44.4824 H   0  0  0  0  0  0  0  0  0  0  0  0
   42.8556   26.7327   45.1992 H   0  0  0  0  0  0  0  0  0  0  0  0
   42.0889   24.2339   41.9106 H   0  0  0  0  0  0  0  0  0  0  0  0
  1  2  1  0
  1 12  1  0
  3  2  1  0
  3  5  1  0
  4  3  1  0
  6  3  1  0
  6  7  1  0
  7 11  1  0
  7  8  1  0
  8  9  2  0
 10  9  1  0
 11 10  2  0
 12 13  1  0
 13 16  1  0
 14 13  2  0
 15 20  2  0
 15 16  1  0
 16 17  2  0
 17 18  1  0
 19 21  1  0
 19 18  2  0
 20 19  1  0
 21 22  2  0
 22 23  1  0
 24 23  2  0
 25 24  1  0
 26 25  2  0
 26 21  1  0
  1 27  1  0
  1 28  1  0
  4 29  1  0
  4 30  1  0
  4 31  1  0
  5 32  1  0
  5 33  1  0
  5 34  1  0
  6 35  1  0
  6 36  1  0
  8 37  1  0
 10 38  1  0
 15 39  1  0
 17 40  1  0
 22 41  1  0
 23 42  1  0
 25 43  1  0
M  ISO  8  27   8  28   8  29   8  30   8  31   8  32   8  33   8  34   8
M  ISO  8  35   8  36   8  37  14  38  14  39  14  40  14  41  14  42  14
M  ISO  1  43  14
M  END
>  <minimizedAffinity>  (1) 
-5.22423649

>  <minimizedRMSD>  (1) 
1.62634349

$$$$
