
     RDKit          3D

 42 44  0  0  0  0  0  0  0  0999 V2000
   39.0540   34.5540   40.5620 S   0  0  0  0  0  0  0  0  0  0  0  0
   37.5890   33.8840   39.6710 C   0  0  0  0  0  0  0  0  0  0  0  0
   37.2670   32.7240   40.2340 O   0  0  0  0  0  0  0  0  0  0  0  0
   37.1710   31.4660   39.7070 C   0  0  0  0  0  0  0  0  0  0  0  0
   36.6030   31.3250   38.6200 O   0  0  0  0  0  0  0  0  0  0  0  0
   38.9510   29.7530   40.0950 C   0  0  0  0  0  0  0  0  0  0  0  0
   37.7810   30.3710   40.5300 C   0  0  0  0  0  0  0  0  0  0  0  0
   37.1410   30.0220   41.6950 C   0  0  0  0  0  0  0  0  0  0  0  0
   37.7310   29.0340   42.3850 N   0  0  0  0  0  0  0  0  0  0  0  0
   38.8600   28.4140   41.9940 C   0  0  0  0  0  0  0  0  0  0  0  0
   39.4730   28.7920   40.8220 N   0  0  0  0  0  0  0  0  0  0  0  0
   39.4740   27.3440   42.7690 C   0  0  0  0  0  0  0  0  0  0  0  0
   40.6260   27.4870   43.5170 C   0  0  0  0  0  0  0  0  0  0  0  0
   40.9190   26.3260   44.1020 N   0  0  0  0  0  0  0  0  0  0  0  0
   39.9720   25.4450   43.7380 C   0  0  0  0  0  0  0  0  0  0  0  0
   39.1090   26.0780   42.9350 N   0  0  0  0  0  0  0  0  0  0  0  0
   40.5530   33.7630   40.0330 C   0  0  0  0  0  0  0  0  0  0  0  0
   40.3140   33.0470   38.7470 C   0  0  0  0  0  0  0  0  0  0  0  0
   40.9970   32.7170   41.0370 C   0  0  0  0  0  0  0  0  0  0  0  0
   41.6630   34.7690   39.8310 C   0  0  0  0  0  0  0  0  0  0  0  0
   42.0020   35.4940   41.0280 N   0  0  0  0  0  0  0  0  0  0  0  0
   43.0790   35.1280   41.7710 C   0  0  0  0  0  0  0  0  0  0  0  0
   43.1920   35.9350   42.8220 N   0  0  0  0  0  0  0  0  0  0  0  0
   42.1820   36.8350   42.7660 C   0  0  0  0  0  0  0  0  0  0  0  0
   41.4950   36.5340   41.6780 N   0  0  0  0  0  0  0  0  0  0  0  0
   37.8346   33.7296   38.6099 H   0  0  0  0  0  0  0  0  0  0  0  0
   36.7463   34.5883   39.7328 H   0  0  0  0  0  0  0  0  0  0  0  0
   39.4309   30.0655   39.1558 H   0  0  0  0  0  0  0  0  0  0  0  0
   36.2177   30.5139   42.0350 H   0  0  0  0  0  0  0  0  0  0  0  0
   41.2102   28.4139   43.6146 H   0  0  0  0  0  0  0  0  0  0  0  0
   39.9161   24.3904   44.0456 H   0  0  0  0  0  0  0  0  0  0  0  0
   38.2788   25.6446   42.5062 H   0  0  0  0  0  0  0  0  0  0  0  0
   39.9720   32.0226   38.9558 H   0  0  0  0  0  0  0  0  0  0  0  0
   39.5449   33.5795   38.1683 H   0  0  0  0  0  0  0  0  0  0  0  0
   41.2488   33.0108   38.1683 H   0  0  0  0  0  0  0  0  0  0  0  0
   40.8361   33.0962   42.0570 H   0  0  0  0  0  0  0  0  0  0  0  0
   40.4118   31.7971   40.8912 H   0  0  0  0  0  0  0  0  0  0  0  0
   42.0653   32.4989   40.8912 H   0  0  0  0  0  0  0  0  0  0  0  0
   42.5587   34.2346   39.4815 H   0  0  0  0  0  0  0  0  0  0  0  0
   41.3048   35.5048   39.0959 H   0  0  0  0  0  0  0  0  0  0  0  0
   43.7546   34.2916   41.5386 H   0  0  0  0  0  0  0  0  0  0  0  0
   41.9761   37.6477   43.4781 H   0  0  0  0  0  0  0  0  0  0  0  0
  2  3  1  0
  2  1  1  0
  4  3  1  0
  4  7  1  0
  5  4  2  0
  6  7  2  0
  6 11  1  0
  7  8  1  0
  8  9  2  0
 10  9  1  0
 10 12  1  0
 11 10  2  0
 12 16  1  0
 12 13  2  0
 13 14  1  0
 15 14  2  0
 16 15  1  0
 17  1  1  0
 17 19  1  0
 18 17  1  0
 20 17  1  0
 20 21  1  0
 21 25  1  0
 21 22  1  0
 22 23  2  0
 24 23  1  0
 25 24  2  0
  2 26  1  0
  2 27  1  0
  6 28  1  0
  8 29  1  0
 13 30  1  0
 15 31  1  0
 16 32  1  0
 18 33  1  0
 18 34  1  0
 18 35  1  0
 19 36  1  0
 19 37  1  0
 19 38  1  0
 20 39  1  0
 20 40  1  0
 22 41  1  0
 24 42  1  0
M  ISO  8  26   8  27   8  28  14  29  14  30  14  31  14  32   9  33   8
M  ISO  8  34   8  35   8  36   8  37   8  38   8  39   8  40   8  41  14
M  ISO  1  42  14
M  END
>  <minimizedAffinity>  (1) 
-5.18595171

>  <minimizedRMSD>  (1) 
1.44425201

$$$$
