
     RDKit          3D

 28 31  0  0  0  0  0  0  0  0999 V2000
   37.5310   28.4480   43.5330 C   0  0  0  0  0  0  0  0  0  0  0  0
   37.2930   27.1110   43.0870 C   0  0  0  0  0  0  0  0  0  0  0  0
   37.0090   26.9200   41.7260 C   0  0  0  0  0  0  0  0  0  0  0  0
   36.9730   28.0000   40.9060 N   0  0  0  0  0  0  0  0  0  0  0  0
   37.2060   29.2470   41.3790 C   0  0  0  0  0  0  0  0  0  0  0  0
   37.4780   29.4670   42.6640 N   0  0  0  0  0  0  0  0  0  0  0  0
   37.1690   30.3850   40.5250 N   0  0  0  0  0  0  0  0  0  0  0  0
   37.7360   31.4850   41.0420 N   0  0  0  0  0  0  0  0  0  0  0  0
   37.6290   32.4820   40.1260 C   0  0  0  0  0  0  0  0  0  0  0  0
   36.9770   31.9390   39.0410 C   0  0  0  0  0  0  0  0  0  0  0  0
   36.6820   30.6060   39.2870 C   0  0  0  0  0  0  0  0  0  0  0  0
   36.0380   29.5760   38.5510 N   0  0  0  0  0  0  0  0  0  0  0  0
   34.7530   29.1800   38.7370 C   0  0  0  0  0  0  0  0  0  0  0  0
   34.3990   28.1790   37.9000 N   0  0  0  0  0  0  0  0  0  0  0  0
   35.4870   27.9110   37.1410 C   0  0  0  0  0  0  0  0  0  0  0  0
   35.8180   27.0380   36.1240 C   0  0  0  0  0  0  0  0  0  0  0  0
   37.0290   27.0090   35.5480 N   0  0  0  0  0  0  0  0  0  0  0  0
   37.9910   27.8710   35.9730 C   0  0  0  0  0  0  0  0  0  0  0  0
   37.7140   28.7470   36.9700 N   0  0  0  0  0  0  0  0  0  0  0  0
   36.4840   28.7760   37.5530 C   0  0  0  0  0  0  0  0  0  0  0  0
   37.7582   28.6410   44.5918 H   0  0  0  0  0  0  0  0  0  0  0  0
   37.3311   26.2622   43.7856 H   0  0  0  0  0  0  0  0  0  0  0  0
   36.8187   25.9113   41.3307 H   0  0  0  0  0  0  0  0  0  0  0  0
   37.9905   33.5157   40.2298 H   0  0  0  0  0  0  0  0  0  0  0  0
   36.7274   32.4815   38.1172 H   0  0  0  0  0  0  0  0  0  0  0  0
   34.0771   29.6229   39.4833 H   0  0  0  0  0  0  0  0  0  0  0  0
   35.0521   26.3326   35.7692 H   0  0  0  0  0  0  0  0  0  0  0  0
   38.9888   27.8576   35.5102 H   0  0  0  0  0  0  0  0  0  0  0  0
  2  1  2  0
  3  2  1  0
  4  5  1  0
  4  3  2  0
  5  6  2  0
  6  1  1  0
  7  8  1  0
  7  5  1  0
  9  8  2  0
 10 11  2  0
 10  9  1  0
 11  7  1  0
 12 13  1  0
 12 11  1  0
 14 13  2  0
 15 20  2  0
 15 14  1  0
 16 15  1  0
 17 18  1  0
 17 16  2  0
 18 19  2  0
 19 20  1  0
 20 12  1  0
  1 21  1  0
  2 22  1  0
  3 23  1  0
  9 24  1  0
 10 25  1  0
 13 26  1  0
 16 27  1  0
 18 28  1  0
M  ISO  8  21  14  22  14  23  14  24  14  25  14  26  14  27  14  28  14
M  END
>  <minimizedAffinity>  (1) 
-4.82002735

>  <minimizedRMSD>  (1) 
2.5569346

$$$$
