
     RDKit          3D

 53 56  0  0  1  0  0  0  0  0999 V2000
   37.9080   27.6780   42.9660 C   0  0  2  0  0  0  0  0  0  0  0  0
   39.5890   25.9700   42.2570 C   0  0  1  0  0  0  0  0  0  0  0  0
   39.3680   24.5480   41.6590 C   0  0  0  0  0  0  0  0  0  0  0  0
   37.9910   24.1590   42.0350 C   0  0  0  0  0  0  0  0  0  0  0  0
   37.2970   25.5290   42.2590 C   0  0  0  0  0  0  0  0  0  0  0  0
   38.3290   26.2450   42.9330 C   0  0  2  0  0  0  0  0  0  0  0  0
   42.1650   26.8540   44.8280 C   0  0  0  0  0  0  0  0  0  0  0  0
   40.9440   26.8090   44.1540 C   0  0  0  0  0  0  0  0  0  0  0  0
   40.8120   26.0430   42.9970 C   0  0  0  0  0  0  0  0  0  0  0  0
   41.8960   25.3460   42.5500 N   0  0  0  0  0  0  0  0  0  0  0  0
   43.0720   25.3900   43.2050 C   0  0  0  0  0  0  0  0  0  0  0  0
   43.2150   26.1320   44.3300 N   0  0  0  0  0  0  0  0  0  0  0  0
   37.0350   28.0900   44.0830 C   0  0  0  0  0  0  0  0  0  0  0  0
   37.2860   27.9030   41.6720 C   0  0  0  0  0  0  0  0  0  0  0  0
   37.2130   29.2790   41.3800 N   0  0  0  0  0  0  0  0  0  0  0  0
   36.1190   30.0480   41.1600 C   0  0  0  0  0  0  0  0  0  0  0  0
   36.5250   31.2930   40.7510 C   0  0  0  0  0  0  0  0  0  0  0  0
   37.8810   31.2440   40.7380 N   0  0  0  0  0  0  0  0  0  0  0  0
   38.2940   30.0120   41.1250 C   0  0  0  0  0  0  0  0  0  0  0  0
   39.6700   30.1920   41.0400 N   0  0  0  0  0  0  0  0  0  0  0  0
   40.2880   30.8950   39.8990 C   0  0  0  0  0  0  0  0  0  0  0  0
   41.2970   31.8410   40.5190 C   0  0  0  0  0  0  0  0  0  0  0  0
   41.0790   32.1250   41.8990 N   0  0  0  0  0  0  0  0  0  0  0  0
   41.1520   31.0230   42.7970 C   0  0  0  0  0  0  0  0  0  0  0  0
   40.6870   29.7970   42.0360 C   0  0  0  0  0  0  0  0  0  0  0  0
   38.7910   28.3069   43.1526 H   0  0  0  0  0  0  0  0  0  0  0  0
   39.7730   26.7808   41.5367 H   0  0  0  0  0  0  0  0  0  0  0  0
   40.0947   23.8383   42.0811 H   0  0  0  0  0  0  0  0  0  0  0  0
   39.5050   24.5433   40.5676 H   0  0  0  0  0  0  0  0  0  0  0  0
   37.5035   23.5952   41.2260 H   0  0  0  0  0  0  0  0  0  0  0  0
   37.9490   23.5000   42.9148 H   0  0  0  0  0  0  0  0  0  0  0  0
   37.0288   26.0075   41.3055 H   0  0  0  0  0  0  0  0  0  0  0  0
   36.3469   25.4731   42.8105 H   0  0  0  0  0  0  0  0  0  0  0  0
   38.4893   25.9390   43.9774 H   0  0  0  0  0  0  0  0  0  0  0  0
   42.2809   27.4573   45.7405 H   0  0  0  0  0  0  0  0  0  0  0  0
   40.0843   27.3789   44.5363 H   0  0  0  0  0  0  0  0  0  0  0  0
   43.9283   24.8157   42.8215 H   0  0  0  0  0  0  0  0  0  0  0  0
   37.5278   27.8574   45.0385 H   0  0  0  0  0  0  0  0  0  0  0  0
   36.8467   29.1720   44.0214 H   0  0  0  0  0  0  0  0  0  0  0  0
   36.0800   27.5475   44.0214 H   0  0  0  0  0  0  0  0  0  0  0  0
   37.8810   27.4013   40.8947 H   0  0  0  0  0  0  0  0  0  0  0  0
   36.2646   27.4954   41.6982 H   0  0  0  0  0  0  0  0  0  0  0  0
   35.0750   29.7262   41.2885 H   0  0  0  0  0  0  0  0  0  0  0  0
   35.8865   32.1496   40.4891 H   0  0  0  0  0  0  0  0  0  0  0  0
   39.5291   31.4559   39.3338 H   0  0  0  0  0  0  0  0  0  0  0  0
   40.7579   30.1974   39.1901 H   0  0  0  0  0  0  0  0  0  0  0  0
   42.2959   31.3922   40.4154 H   0  0  0  0  0  0  0  0  0  0  0  0
   41.1942   32.7974   39.9854 H   0  0  0  0  0  0  0  0  0  0  0  0
   41.7868   32.8137   42.1917 H   0  0  0  0  0  0  0  0  0  0  0  0
   42.1878   30.8838   43.1402 H   0  0  0  0  0  0  0  0  0  0  0  0
   40.5226   31.1967   43.6822 H   0  0  0  0  0  0  0  0  0  0  0  0
   40.2497   29.0730   42.7392 H   0  0  0  0  0  0  0  0  0  0  0  0
   41.5442   29.3374   41.5223 H   0  0  0  0  0  0  0  0  0  0  0  0
  1 13  1  0
  2  6  1  0
  2  9  1  0
  3  4  1  0
  3  2  1  0
  4  5  1  0
  5  6  1  0
  6  1  1  0
  8  7  2  0
  9  8  1  0
 10  9  2  0
 10 11  1  0
 11 12  2  0
 12  7  1  0
 14  1  1  0
 15 14  1  0
 16 15  1  0
 17 16  2  0
 18 17  1  0
 18 19  2  0
 19 15  1  0
 20 19  1  0
 20 25  1  0
 21 22  1  0
 21 20  1  0
 22 23  1  0
 23 24  1  0
 25 24  1  0
  1 26  1  6
  2 27  1  6
  3 28  1  0
  3 29  1  0
  4 30  1  0
  4 31  1  0
  5 32  1  0
  5 33  1  0
  6 34  1  1
  7 35  1  0
  8 36  1  0
 11 37  1  0
 13 38  1  0
 13 39  1  0
 13 40  1  0
 14 41  1  0
 14 42  1  0
 16 43  1  0
 17 44  1  0
 21 45  1  0
 21 46  1  0
 22 47  1  0
 22 48  1  0
 23 49  1  0
 24 50  1  0
 24 51  1  0
 25 52  1  0
 25 53  1  0
M  ISO  8  26   8  27  13  28  13  29  13  30  13  31  13  32  13  33  13
M  ISO  8  34  13  35  14  36  14  37  14  38   8  39   8  40   8  41   8
M  ISO  8  42   8  43  14  44  14  45  13  46  13  47  13  48  13  49   5
M  ISO  4  50  13  51  13  52  13  53  13
M  END
>  <minimizedAffinity>  (1) 
-6.07822466

>  <minimizedRMSD>  (1) 
0.795059323

$$$$
