
     RDKit          3D

 54 57  0  0  1  0  0  0  0  0999 V2000
   37.8940   27.6750   42.9400 C   0  0  2  0  0  0  0  0  0  0  0  0
   39.5750   25.9600   42.2430 C   0  0  1  0  0  0  0  0  0  0  0  0
   39.3510   24.5320   41.6590 C   0  0  0  0  0  0  0  0  0  0  0  0
   37.9780   24.1530   42.0330 C   0  0  0  0  0  0  0  0  0  0  0  0
   37.2810   25.5230   42.2470 C   0  0  0  0  0  0  0  0  0  0  0  0
   38.3160   26.2410   42.9140 C   0  0  2  0  0  0  0  0  0  0  0  0
   42.1460   26.8420   44.8190 C   0  0  0  0  0  0  0  0  0  0  0  0
   40.9270   26.7970   44.1450 C   0  0  0  0  0  0  0  0  0  0  0  0
   40.7980   26.0350   42.9840 C   0  0  0  0  0  0  0  0  0  0  0  0
   41.8840   25.3390   42.5310 N   0  0  0  0  0  0  0  0  0  0  0  0
   43.0590   25.3870   43.1900 C   0  0  0  0  0  0  0  0  0  0  0  0
   43.2000   26.1250   44.3190 N   0  0  0  0  0  0  0  0  0  0  0  0
   37.0170   28.0920   44.0550 C   0  0  0  0  0  0  0  0  0  0  0  0
   37.2870   27.8970   41.6420 C   0  0  0  0  0  0  0  0  0  0  0  0
   37.2140   29.2800   41.3620 N   0  0  0  0  0  0  0  0  0  0  0  0
   36.1140   30.0410   41.1580 C   0  0  0  0  0  0  0  0  0  0  0  0
   36.5030   31.2950   40.7550 C   0  0  0  0  0  0  0  0  0  0  0  0
   37.8590   31.2530   40.7320 N   0  0  0  0  0  0  0  0  0  0  0  0
   38.2870   30.0190   41.1050 C   0  0  0  0  0  0  0  0  0  0  0  0
   39.6590   30.1820   41.0280 N   0  0  0  0  0  0  0  0  0  0  0  0
   40.5690   29.8100   42.1340 C   0  0  0  0  0  0  0  0  0  0  0  0
   41.1090   31.0610   42.7900 C   0  0  0  0  0  0  0  0  0  0  0  0
   41.8070   31.8510   41.7220 C   0  0  0  0  0  0  0  0  0  0  0  0
   41.0030   32.0750   40.4830 C   0  0  0  0  0  0  0  0  0  0  0  0
   40.4560   30.7600   39.9490 C   0  0  0  0  0  0  0  0  0  0  0  0
   38.7738   28.3070   43.1311 H   0  0  0  0  0  0  0  0  0  0  0  0
   39.7617   26.7651   41.5171 H   0  0  0  0  0  0  0  0  0  0  0  0
   40.0742   23.8244   42.0907 H   0  0  0  0  0  0  0  0  0  0  0  0
   39.4912   24.5156   40.5681 H   0  0  0  0  0  0  0  0  0  0  0  0
   37.4918   23.5842   41.2267 H   0  0  0  0  0  0  0  0  0  0  0  0
   37.9350   23.5027   42.9192 H   0  0  0  0  0  0  0  0  0  0  0  0
   37.0110   25.9948   41.2907 H   0  0  0  0  0  0  0  0  0  0  0  0
   36.3305   25.4720   42.7983 H   0  0  0  0  0  0  0  0  0  0  0  0
   38.4794   25.9405   43.9595 H   0  0  0  0  0  0  0  0  0  0  0  0
   42.2592   27.4415   45.7343 H   0  0  0  0  0  0  0  0  0  0  0  0
   40.0656   27.3631   44.5291 H   0  0  0  0  0  0  0  0  0  0  0  0
   43.9181   24.8178   42.8054 H   0  0  0  0  0  0  0  0  0  0  0  0
   37.5058   27.8596   45.0126 H   0  0  0  0  0  0  0  0  0  0  0  0
   36.8320   29.1744   43.9909 H   0  0  0  0  0  0  0  0  0  0  0  0
   36.0607   27.5522   43.9909 H   0  0  0  0  0  0  0  0  0  0  0  0
   37.8934   27.4023   40.8690 H   0  0  0  0  0  0  0  0  0  0  0  0
   36.2690   27.4802   41.6484 H   0  0  0  0  0  0  0  0  0  0  0  0
   35.0742   29.7084   41.2933 H   0  0  0  0  0  0  0  0  0  0  0  0
   35.8556   32.1484   40.5050 H   0  0  0  0  0  0  0  0  0  0  0  0
   40.0176   29.2157   42.8775 H   0  0  0  0  0  0  0  0  0  0  0  0
   41.4052   29.2170   41.7350 H   0  0  0  0  0  0  0  0  0  0  0  0
   40.2838   31.6499   43.2169 H   0  0  0  0  0  0  0  0  0  0  0  0
   41.8013   30.8081   43.6066 H   0  0  0  0  0  0  0  0  0  0  0  0
   42.0717   32.8332   42.1405 H   0  0  0  0  0  0  0  0  0  0  0  0
   42.6829   31.2579   41.4202 H   0  0  0  0  0  0  0  0  0  0  0  0
   40.1637   32.7473   40.7144 H   0  0  0  0  0  0  0  0  0  0  0  0
   41.6529   32.5235   39.7172 H   0  0  0  0  0  0  0  0  0  0  0  0
   39.8271   30.9397   39.0645 H   0  0  0  0  0  0  0  0  0  0  0  0
   41.2673   30.0831   39.6431 H   0  0  0  0  0  0  0  0  0  0  0  0
  1 13  1  0
  2  6  1  0
  2  9  1  0
  3  4  1  0
  3  2  1  0
  4  5  1  0
  5  6  1  0
  6  1  1  0
  8  7  2  0
  9  8  1  0
 10  9  2  0
 10 11  1  0
 11 12  2  0
 12  7  1  0
 14  1  1  0
 15 14  1  0
 16 15  1  0
 17 16  2  0
 18 17  1  0
 18 19  2  0
 19 15  1  0
 20 19  1  0
 20 21  1  0
 21 22  1  0
 23 22  1  0
 24 23  1  0
 25 24  1  0
 25 20  1  0
  1 26  1  6
  2 27  1  6
  3 28  1  0
  3 29  1  0
  4 30  1  0
  4 31  1  0
  5 32  1  0
  5 33  1  0
  6 34  1  1
  7 35  1  0
  8 36  1  0
 11 37  1  0
 13 38  1  0
 13 39  1  0
 13 40  1  0
 14 41  1  0
 14 42  1  0
 16 43  1  0
 17 44  1  0
 21 45  1  0
 21 46  1  0
 22 47  1  0
 22 48  1  0
 23 49  1  0
 23 50  1  0
 24 51  1  0
 24 52  1  0
 25 53  1  0
 25 54  1  0
M  ISO  8  26   8  27  13  28  13  29  13  30  13  31  13  32  13  33  13
M  ISO  8  34  13  35  14  36  14  37  14  38   8  39   8  40   8  41   8
M  ISO  8  42   8  43  14  44  14  45  13  46  13  47  13  48  13  49  13
M  ISO  5  50  13  51  13  52  13  53  13  54  13
M  END
>  <minimizedAffinity>  (1) 
-5.98649788

>  <minimizedRMSD>  (1) 
0.795416713

$$$$
