
     RDKit          3D

 32 33  0  0  1  0  0  0  0  0999 V2000
   37.1580   27.8070   43.2350 C   0  0  2  0  0  0  0  0  0  0  0  0
   39.1120   30.7930   41.9350 C   0  0  0  0  0  0  0  0  0  0  0  0
   38.7900   29.6220   42.6400 C   0  0  0  0  0  0  0  0  0  0  0  0
   37.4970   29.0390   42.4990 C   0  0  0  0  0  0  0  0  0  0  0  0
   36.6410   29.6830   41.6630 N   0  0  0  0  0  0  0  0  0  0  0  0
   36.9620   30.8020   40.9940 C   0  0  0  0  0  0  0  0  0  0  0  0
   38.1740   31.3520   41.1230 N   0  0  0  0  0  0  0  0  0  0  0  0
   36.7030   28.0770   44.6410 C   0  0  0  0  0  0  0  0  0  0  0  0
   38.4280   26.9260   43.2380 C   0  0  0  0  0  0  0  0  0  0  0  0
   38.1600   25.7390   42.4570 N   0  0  0  0  0  0  0  0  0  0  0  0
   37.2030   25.5980   41.5360 C   0  0  0  0  0  0  0  0  0  0  0  0
   37.0550   24.3950   40.8560 C   0  0  0  0  0  0  0  0  0  0  0  0
   36.0010   24.2250   39.8350 C   0  0  0  0  0  0  0  0  0  0  0  0
   37.9080   23.3470   41.1420 C   0  0  0  0  0  0  0  0  0  0  0  0
   37.7550   22.2570   40.5080 O   0  0  0  0  0  0  0  0  0  0  0  0
   38.8770   23.5010   42.0790 N   0  0  0  0  0  0  0  0  0  0  0  0
   38.9620   24.6900   42.6970 C   0  0  0  0  0  0  0  0  0  0  0  0
   39.8940   24.7430   43.5560 O   0  0  0  0  0  0  0  0  0  0  0  0
   36.3136   27.3049   42.7402 H   0  0  0  0  0  0  0  0  0  0  0  0
   40.1068   31.2512   42.0375 H   0  0  0  0  0  0  0  0  0  0  0  0
   39.5352   29.1549   43.3007 H   0  0  0  0  0  0  0  0  0  0  0  0
   36.2194   31.2717   40.3322 H   0  0  0  0  0  0  0  0  0  0  0  0
   37.4267   27.6476   45.3494 H   0  0  0  0  0  0  0  0  0  0  0  0
   36.6329   29.1630   44.8015 H   0  0  0  0  0  0  0  0  0  0  0  0
   35.7162   27.6182   44.8015 H   0  0  0  0  0  0  0  0  0  0  0  0
   39.2670   27.4817   42.7939 H   0  0  0  0  0  0  0  0  0  0  0  0
   38.6942   26.6489   44.2687 H   0  0  0  0  0  0  0  0  0  0  0  0
   36.5286   26.4383   41.3146 H   0  0  0  0  0  0  0  0  0  0  0  0
   35.0317   24.0687   40.3311 H   0  0  0  0  0  0  0  0  0  0  0  0
   35.9502   25.1266   39.2068 H   0  0  0  0  0  0  0  0  0  0  0  0
   36.2362   23.3532   39.2068 H   0  0  0  0  0  0  0  0  0  0  0  0
   39.5243   22.7333   42.3081 H   0  0  0  0  0  0  0  0  0  0  0  0
  1  9  1  0
  1  8  1  0
  2  3  2  0
  4  3  1  0
  4  1  1  0
  5  4  2  0
  6  7  2  0
  6  5  1  0
  7  2  1  0
 10 17  1  0
 10  9  1  0
 11 10  1  0
 12 14  1  0
 12 11  2  0
 13 12  1  0
 14 16  1  0
 15 14  2  0
 16 17  1  0
 17 18  2  0
  1 19  1  6
  2 20  1  0
  3 21  1  0
  6 22  1  0
  8 23  1  0
  8 24  1  0
  8 25  1  0
  9 26  1  0
  9 27  1  0
 11 28  1  0
 13 29  1  0
 13 30  1  0
 13 31  1  0
 16 32  1  0
M  ISO  8  19   8  20  14  21  14  22  14  23   8  24   8  25   8  26   8
M  ISO  6  27   8  28  14  29   8  30   8  31   8  32   9
M  END
>  <minimizedAffinity>  (1) 
-5.3656292

>  <minimizedRMSD>  (1) 
2.44514203

$$$$
