
     RDKit          3D

 26 27  0  0  1  0  0  0  0  0999 V2000
   37.2240   27.8270   43.2800 C   0  0  2  0  0  0  0  0  0  0  0  0
   39.1270   30.8110   41.9330 C   0  0  0  0  0  0  0  0  0  0  0  0
   38.8630   29.6400   42.6780 C   0  0  0  0  0  0  0  0  0  0  0  0
   37.5730   29.0580   42.5320 C   0  0  0  0  0  0  0  0  0  0  0  0
   36.6570   29.6550   41.6860 N   0  0  0  0  0  0  0  0  0  0  0  0
   36.9810   30.7780   41.0020 C   0  0  0  0  0  0  0  0  0  0  0  0
   38.2010   31.3540   41.1210 N   0  0  0  0  0  0  0  0  0  0  0  0
   36.7910   28.1210   44.6950 C   0  0  0  0  0  0  0  0  0  0  0  0
   38.4900   26.9360   43.2820 C   0  0  0  0  0  0  0  0  0  0  0  0
   38.1590   25.6710   42.5980 C   0  0  0  0  0  0  0  0  0  0  0  0
   37.0830   25.3490   41.7960 C   0  0  0  0  0  0  0  0  0  0  0  0
   37.2150   24.0320   41.3860 C   0  0  0  0  0  0  0  0  0  0  0  0
   38.3480   23.6220   41.9490 N   0  0  0  0  0  0  0  0  0  0  0  0
   38.9150   24.5790   42.6670 N   0  0  0  0  0  0  0  0  0  0  0  0
   36.3719   27.3267   42.7968 H   0  0  0  0  0  0  0  0  0  0  0  0
   40.1132   31.2906   42.0186 H   0  0  0  0  0  0  0  0  0  0  0  0
   39.6210   29.1980   43.3413 H   0  0  0  0  0  0  0  0  0  0  0  0
   36.2353   31.2333   40.3337 H   0  0  0  0  0  0  0  0  0  0  0  0
   37.4905   27.6461   45.3987 H   0  0  0  0  0  0  0  0  0  0  0  0
   36.7879   29.2087   44.8590 H   0  0  0  0  0  0  0  0  0  0  0  0
   35.7789   27.7226   44.8590 H   0  0  0  0  0  0  0  0  0  0  0  0
   39.3061   27.4459   42.7491 H   0  0  0  0  0  0  0  0  0  0  0  0
   38.8163   26.7383   44.3137 H   0  0  0  0  0  0  0  0  0  0  0  0
   36.2581   26.0252   41.5271 H   0  0  0  0  0  0  0  0  0  0  0  0
   36.5359   23.4557   40.7405 H   0  0  0  0  0  0  0  0  0  0  0  0
   38.7372   22.6747   41.8397 H   0  0  0  0  0  0  0  0  0  0  0  0
  1  9  1  0
  1  8  1  0
  2  3  2  0
  4  3  1  0
  4  1  1  0
  5  4  2  0
  6  7  2  0
  6  5  1  0
  7  2  1  0
 10 14  2  0
 10  9  1  0
 11 10  1  0
 12 11  2  0
 12 13  1  0
 13 14  1  0
  1 15  1  6
  2 16  1  0
  3 17  1  0
  6 18  1  0
  8 19  1  0
  8 20  1  0
  8 21  1  0
  9 22  1  0
  9 23  1  0
 11 24  1  0
 12 25  1  0
 13 26  1  0
M  ISO  8  15   8  16  14  17  14  18  14  19   8  20   8  21   8  22   8
M  ISO  4  23   8  24  14  25  14  26   9
M  END
>  <minimizedAffinity>  (1) 
-4.59207869

>  <minimizedRMSD>  (1) 
1.84633029

$$$$
