
     RDKit          3D

 26 27  0  0  1  0  0  0  0  0999 V2000
   36.8800   27.9090   43.2590 C   0  0  2  0  0  0  0  0  0  0  0  0
   39.2690   30.6470   42.1870 C   0  0  0  0  0  0  0  0  0  0  0  0
   38.7760   29.5150   42.8750 C   0  0  0  0  0  0  0  0  0  0  0  0
   37.4470   29.0960   42.5720 C   0  0  0  0  0  0  0  0  0  0  0  0
   36.7730   29.8280   41.6470 N   0  0  0  0  0  0  0  0  0  0  0  0
   37.2670   30.8940   41.0140 C   0  0  0  0  0  0  0  0  0  0  0  0
   38.5080   31.3000   41.2840 N   0  0  0  0  0  0  0  0  0  0  0  0
   36.7720   28.1060   44.7500 C   0  0  0  0  0  0  0  0  0  0  0  0
   37.7700   26.7230   42.9490 C   0  0  0  0  0  0  0  0  0  0  0  0
   37.2900   25.9710   41.8250 C   0  0  0  0  0  0  0  0  0  0  0  0
   36.9290   24.6310   42.0160 C   0  0  0  0  0  0  0  0  0  0  0  0
   36.4820   23.9780   40.9080 C   0  0  0  0  0  0  0  0  0  0  0  0
   36.3870   24.6230   39.6270 C   0  0  0  0  0  0  0  0  0  0  0  0
   37.0140   26.3380   40.1140 S   0  0  0  0  0  0  0  0  0  0  0  0
   35.8565   27.7408   42.8928 H   0  0  0  0  0  0  0  0  0  0  0  0
   40.2901   31.0016   42.3911 H   0  0  0  0  0  0  0  0  0  0  0  0
   39.3915   28.9798   43.6130 H   0  0  0  0  0  0  0  0  0  0  0  0
   36.6554   31.4332   40.2756 H   0  0  0  0  0  0  0  0  0  0  0  0
   37.2387   27.2547   45.2671 H   0  0  0  0  0  0  0  0  0  0  0  0
   37.2868   29.0353   45.0353 H   0  0  0  0  0  0  0  0  0  0  0  0
   35.7117   28.1718   45.0353 H   0  0  0  0  0  0  0  0  0  0  0  0
   38.7834   27.0880   42.7257 H   0  0  0  0  0  0  0  0  0  0  0  0
   37.7709   26.0598   43.8266 H   0  0  0  0  0  0  0  0  0  0  0  0
   37.0019   24.1386   42.9969 H   0  0  0  0  0  0  0  0  0  0  0  0
   36.1840   22.9228   40.9960 H   0  0  0  0  0  0  0  0  0  0  0  0
   36.0502   24.2347   38.6545 H   0  0  0  0  0  0  0  0  0  0  0  0
  1  8  1  0
  2  3  2  0
  4  3  1  0
  4  1  1  0
  5  4  2  0
  6  7  2  0
  6  5  1  0
  7  2  1  0
  9  1  1  0
 10 11  2  0
 10  9  1  0
 12 11  1  0
 13 14  1  0
 13 12  2  0
 14 10  1  0
  1 15  1  6
  2 16  1  0
  3 17  1  0
  6 18  1  0
  8 19  1  0
  8 20  1  0
  8 21  1  0
  9 22  1  0
  9 23  1  0
 11 24  1  0
 12 25  1  0
 13 26  1  0
M  ISO  8  15   8  16  14  17  14  18  14  19   8  20   8  21   8  22   8
M  ISO  4  23   8  24  14  25  14  26  14
M  END
>  <minimizedAffinity>  (1) 
-4.57087231

>  <minimizedRMSD>  (1) 
0.977440357

$$$$
