
     RDKit          3D

 24 25  0  0  1  0  0  0  0  0999 V2000
   37.1740   27.8120   43.2270 C   0  0  2  0  0  0  0  0  0  0  0  0
   39.1400   30.7980   41.9480 C   0  0  0  0  0  0  0  0  0  0  0  0
   38.8650   29.6240   42.6730 C   0  0  0  0  0  0  0  0  0  0  0  0
   37.5650   29.0600   42.5030 C   0  0  0  0  0  0  0  0  0  0  0  0
   36.6770   29.6900   41.6540 N   0  0  0  0  0  0  0  0  0  0  0  0
   37.0190   30.8180   40.9920 C   0  0  0  0  0  0  0  0  0  0  0  0
   38.2390   31.3680   41.1360 N   0  0  0  0  0  0  0  0  0  0  0  0
   36.8020   28.0980   44.6610 C   0  0  0  0  0  0  0  0  0  0  0  0
   38.4150   26.8940   43.1870 C   0  0  0  0  0  0  0  0  0  0  0  0
   38.1040   25.6240   42.5250 C   0  0  0  0  0  0  0  0  0  0  0  0
   38.6890   24.4100   42.4170 N   0  0  0  0  0  0  0  0  0  0  0  0
   37.9150   23.6470   41.6700 O   0  0  0  0  0  0  0  0  0  0  0  0
   36.8630   24.3120   41.2910 C   0  0  0  0  0  0  0  0  0  0  0  0
   36.9780   25.5340   41.8190 N   0  0  0  0  0  0  0  0  0  0  0  0
   36.2947   27.3502   42.7542 H   0  0  0  0  0  0  0  0  0  0  0  0
   40.1306   31.2650   42.0514 H   0  0  0  0  0  0  0  0  0  0  0  0
   39.6129   29.1648   43.3362 H   0  0  0  0  0  0  0  0  0  0  0  0
   36.2870   31.2949   40.3236 H   0  0  0  0  0  0  0  0  0  0  0  0
   37.4930   27.5667   45.3320 H   0  0  0  0  0  0  0  0  0  0  0  0
   36.8683   29.1799   44.8482 H   0  0  0  0  0  0  0  0  0  0  0  0
   35.7735   27.7559   44.8482 H   0  0  0  0  0  0  0  0  0  0  0  0
   39.2202   27.4005   42.6346 H   0  0  0  0  0  0  0  0  0  0  0  0
   38.7309   26.6843   44.2196 H   0  0  0  0  0  0  0  0  0  0  0  0
   36.0413   23.9415   40.6605 H   0  0  0  0  0  0  0  0  0  0  0  0
  1  8  1  0
  2  3  2  0
  4  3  1  0
  4  1  1  0
  5  4  2  0
  6  7  2  0
  6  5  1  0
  7  2  1  0
  9  1  1  0
 10  9  1  0
 11 10  2  0
 12 11  1  0
 13 12  1  0
 13 14  2  0
 14 10  1  0
  1 15  1  6
  2 16  1  0
  3 17  1  0
  6 18  1  0
  8 19  1  0
  8 20  1  0
  8 21  1  0
  9 22  1  0
  9 23  1  0
 13 24  1  0
M  ISO  8  15   8  16  14  17  14  18  14  19   8  20   8  21   8  22   8
M  ISO  2  23   8  24  14
M  END
>  <minimizedAffinity>  (1) 
-4.25360584

>  <minimizedRMSD>  (1) 
1.62513316

$$$$
