
     RDKit          3D

 26 26  0  0  1  0  0  0  0  0999 V2000
   36.8970   27.7680   43.2370 C   0  0  2  0  0  0  0  0  0  0  0  0
   39.1940   30.5780   42.1780 C   0  0  0  0  0  0  0  0  0  0  0  0
   38.7420   29.4330   42.8580 C   0  0  0  0  0  0  0  0  0  0  0  0
   37.4290   28.9730   42.5480 C   0  0  0  0  0  0  0  0  0  0  0  0
   36.6930   29.6620   41.6190 N   0  0  0  0  0  0  0  0  0  0  0  0
   37.1870   30.7610   40.9990 C   0  0  0  0  0  0  0  0  0  0  0  0
   38.4320   31.2160   41.2790 N   0  0  0  0  0  0  0  0  0  0  0  0
   36.7050   27.9730   44.7110 C   0  0  0  0  0  0  0  0  0  0  0  0
   37.8950   26.6240   42.9610 C   0  0  0  0  0  0  0  0  0  0  0  0
   37.2320   25.5780   42.2480 N   0  0  0  0  0  0  0  0  0  0  0  0
   37.9090   24.3170   42.0720 C   0  0  0  0  0  0  0  0  0  0  0  0
   38.9440   24.0040   42.8120 N   0  0  0  0  0  0  0  0  0  0  0  0
   37.3980   23.4490   41.0680 N   0  0  0  0  0  0  0  0  0  0  0  0
   39.4420   23.0940   42.6930 H   0  0  0  0  0  0  0  0  0  0  0  0
   35.8951   27.5328   42.8485 H   0  0  0  0  0  0  0  0  0  0  0  0
   40.2030   30.9613   42.3903 H   0  0  0  0  0  0  0  0  0  0  0  0
   39.3731   28.9158   43.5957 H   0  0  0  0  0  0  0  0  0  0  0  0
   36.5692   31.2905   40.2588 H   0  0  0  0  0  0  0  0  0  0  0  0
   37.3545   27.2795   45.2653 H   0  0  0  0  0  0  0  0  0  0  0  0
   36.9654   29.0088   44.9741 H   0  0  0  0  0  0  0  0  0  0  0  0
   35.6543   27.7809   44.9741 H   0  0  0  0  0  0  0  0  0  0  0  0
   38.7328   27.0051   42.3586 H   0  0  0  0  0  0  0  0  0  0  0  0
   38.2788   26.2328   43.9148 H   0  0  0  0  0  0  0  0  0  0  0  0
   36.2863   25.7224   41.8662 H   0  0  0  0  0  0  0  0  0  0  0  0
   37.8443   22.5359   40.9008 H   0  0  0  0  0  0  0  0  0  0  0  0
   36.5817   23.7335   40.5080 H   0  0  0  0  0  0  0  0  0  0  0  0
  1  8  1  0
  2  3  2  0
  4  3  1  0
  4  1  1  0
  5  4  2  0
  6  7  2  0
  6  5  1  0
  7  2  1  0
  9  1  1  0
 10  9  1  0
 11 10  1  0
 11 12  2  0
 13 11  1  0
 14 12  1  0
  1 15  1  6
  2 16  1  0
  3 17  1  0
  6 18  1  0
  8 19  1  0
  8 20  1  0
  8 21  1  0
  9 22  1  0
  9 23  1  0
 10 24  1  0
 13 25  1  0
 13 26  1  0
M  ISO  8  15   8  16  14  17  14  18  14  19   8  20   8  21   8  22   8
M  ISO  1  23   8
M  END
>  <minimizedAffinity>  (1) 
-4.23739672

>  <minimizedRMSD>  (1) 
2.03945065

$$$$
