
     RDKit          3D

 26 27  0  0  1  0  0  0  0  0999 V2000
   37.1800   27.8090   43.3340 C   0  0  2  0  0  0  0  0  0  0  0  0
   39.1590   30.7510   41.9880 C   0  0  0  0  0  0  0  0  0  0  0  0
   38.8600   29.5930   42.7380 C   0  0  0  0  0  0  0  0  0  0  0  0
   37.5640   29.0250   42.5810 C   0  0  0  0  0  0  0  0  0  0  0  0
   36.6900   29.6420   41.7090 N   0  0  0  0  0  0  0  0  0  0  0  0
   37.0370   30.7500   41.0190 C   0  0  0  0  0  0  0  0  0  0  0  0
   38.2540   31.3010   41.1540 N   0  0  0  0  0  0  0  0  0  0  0  0
   36.7710   28.1210   44.7500 C   0  0  0  0  0  0  0  0  0  0  0  0
   38.4130   26.8770   43.3250 C   0  0  0  0  0  0  0  0  0  0  0  0
   38.1460   25.6750   42.5450 N   0  0  0  0  0  0  0  0  0  0  0  0
   39.1240   24.8940   42.0240 C   0  0  0  0  0  0  0  0  0  0  0  0
   38.5970   23.8260   41.3350 C   0  0  0  0  0  0  0  0  0  0  0  0
   37.2560   23.9860   41.4560 N   0  0  0  0  0  0  0  0  0  0  0  0
   37.0140   25.0800   42.1710 C   0  0  0  0  0  0  0  0  0  0  0  0
   36.3067   27.3363   42.8608 H   0  0  0  0  0  0  0  0  0  0  0  0
   40.1518   31.2144   42.0863 H   0  0  0  0  0  0  0  0  0  0  0  0
   39.6004   29.1464   43.4180 H   0  0  0  0  0  0  0  0  0  0  0  0
   36.3093   31.2094   40.3339 H   0  0  0  0  0  0  0  0  0  0  0  0
   37.4465   27.6057   45.4487 H   0  0  0  0  0  0  0  0  0  0  0  0
   36.8287   29.2066   44.9176 H   0  0  0  0  0  0  0  0  0  0  0  0
   35.7392   27.7784   44.9176 H   0  0  0  0  0  0  0  0  0  0  0  0
   39.2665   27.4119   42.8829 H   0  0  0  0  0  0  0  0  0  0  0  0
   38.6409   26.5829   44.3602 H   0  0  0  0  0  0  0  0  0  0  0  0
   40.2006   25.0891   42.1375 H   0  0  0  0  0  0  0  0  0  0  0  0
   39.1386   23.0268   40.8077 H   0  0  0  0  0  0  0  0  0  0  0  0
   36.0079   25.4472   42.4219 H   0  0  0  0  0  0  0  0  0  0  0  0
  1  8  1  0
  2  3  2  0
  4  3  1  0
  4  1  1  0
  5  4  2  0
  6  7  2  0
  6  5  1  0
  7  2  1  0
  9  1  1  0
 10  9  1  0
 11 10  1  0
 12 13  1  0
 12 11  2  0
 13 14  2  0
 14 10  1  0
  1 15  1  6
  2 16  1  0
  3 17  1  0
  6 18  1  0
  8 19  1  0
  8 20  1  0
  8 21  1  0
  9 22  1  0
  9 23  1  0
 11 24  1  0
 12 25  1  0
 14 26  1  0
M  ISO  8  15   8  16  14  17  14  18  14  19   8  20   8  21   8  22   8
M  ISO  4  23   8  24  14  25  14  26  14
M  END
>  <minimizedAffinity>  (1) 
-4.16201687

>  <minimizedRMSD>  (1) 
1.64748812

$$$$
