
     RDKit          3D

 20 20  0  0  1  0  0  0  0  0999 V2000
   36.8200   27.8510   43.1680 C   0  0  2  0  0  0  0  0  0  0  0  0
   39.2740   30.5660   42.1920 C   0  0  0  0  0  0  0  0  0  0  0  0
   38.7450   29.4300   42.8380 C   0  0  0  0  0  0  0  0  0  0  0  0
   37.4120   29.0400   42.5220 C   0  0  0  0  0  0  0  0  0  0  0  0
   36.7460   29.8080   41.6100 N   0  0  0  0  0  0  0  0  0  0  0  0
   37.2700   30.8850   41.0090 C   0  0  0  0  0  0  0  0  0  0  0  0
   38.5390   31.2580   41.3070 N   0  0  0  0  0  0  0  0  0  0  0  0
   36.7090   27.9900   44.6580 C   0  0  0  0  0  0  0  0  0  0  0  0
   37.7010   26.6490   42.7630 C   0  0  0  0  0  0  0  0  0  0  0  0
   37.2260   26.1820   41.1000 S   0  0  0  0  0  0  0  0  0  0  0  0
   35.7827   27.7131   42.8289 H   0  0  0  0  0  0  0  0  0  0  0  0
   40.3013   30.8892   42.4158 H   0  0  0  0  0  0  0  0  0  0  0  0
   39.3441   28.8616   43.5647 H   0  0  0  0  0  0  0  0  0  0  0  0
   36.6774   31.4599   40.2822 H   0  0  0  0  0  0  0  0  0  0  0  0
   37.3245   27.2193   45.1450 H   0  0  0  0  0  0  0  0  0  0  0  0
   37.0624   28.9868   44.9606 H   0  0  0  0  0  0  0  0  0  0  0  0
   35.6588   27.8659   44.9606 H   0  0  0  0  0  0  0  0  0  0  0  0
   38.7629   26.9353   42.7855 H   0  0  0  0  0  0  0  0  0  0  0  0
   37.5610   25.8094   43.4598 H   0  0  0  0  0  0  0  0  0  0  0  0
   36.2499   25.2223   41.1564 H   0  0  0  0  0  0  0  0  0  0  0  0
  1  8  1  0
  2  3  2  0
  4  3  1  0
  4  1  1  0
  5  4  2  0
  6  7  2  0
  6  5  1  0
  7  2  1  0
  9  1  1  0
 10  9  1  0
  1 11  1  6
  2 12  1  0
  3 13  1  0
  6 14  1  0
  8 15  1  0
  8 16  1  0
  8 17  1  0
  9 18  1  0
  9 19  1  0
 10 20  1  0
M  ISO  8  11   8  12  14  13  14  14  14  15   8  16   8  17   8  18   8
M  ISO  2  19   8  20  11
M  END
>  <minimizedAffinity>  (1) 
-3.38990712

>  <minimizedRMSD>  (1) 
0.235273272

$$$$
