
     RDKit          3D

 31 32  0  0  1  0  0  0  0  0999 V2000
   40.6830   28.7320   41.8470 C   0  0  2  0  0  0  0  0  0  0  0  0
   42.4600   26.4270   44.2590 C   0  0  0  0  0  0  0  0  0  0  0  0
   41.8270   27.5740   43.7660 C   0  0  0  0  0  0  0  0  0  0  0  0
   41.3610   27.5620   42.4370 C   0  0  0  0  0  0  0  0  0  0  0  0
   41.5580   26.4120   41.6970 N   0  0  0  0  0  0  0  0  0  0  0  0
   42.1750   25.3290   42.2190 C   0  0  0  0  0  0  0  0  0  0  0  0
   42.6220   25.3410   43.4970 N   0  0  0  0  0  0  0  0  0  0  0  0
   41.6380   29.8770   41.5610 C   0  0  0  0  0  0  0  0  0  0  0  0
   39.6250   29.2050   42.8810 C   0  0  0  0  0  0  0  0  0  0  0  0
   38.4860   28.4080   42.6010 N   0  0  0  0  0  0  0  0  0  0  0  0
   38.0020   27.6190   43.6800 C   0  0  0  0  0  0  0  0  0  0  0  0
   36.4790   27.5050   43.5110 C   0  0  0  0  0  0  0  0  0  0  0  0
   36.3510   27.8850   42.0250 C   0  0  0  0  0  0  0  0  0  0  0  0
   37.3480   29.0560   42.0520 C   0  0  0  0  0  0  0  0  0  0  0  0
   40.2362   28.4406   40.8850 H   0  0  0  0  0  0  0  0  0  0  0  0
   42.8316   26.4193   45.2943 H   0  0  0  0  0  0  0  0  0  0  0  0
   41.6967   28.4628   44.4009 H   0  0  0  0  0  0  0  0  0  0  0  0
   42.3153   24.4302   41.6005 H   0  0  0  0  0  0  0  0  0  0  0  0
   41.9938   30.3036   42.5104 H   0  0  0  0  0  0  0  0  0  0  0  0
   42.4958   29.5032   40.9827 H   0  0  0  0  0  0  0  0  0  0  0  0
   41.1164   30.6538   40.9827 H   0  0  0  0  0  0  0  0  0  0  0  0
   39.9789   29.0328   43.9082 H   0  0  0  0  0  0  0  0  0  0  0  0
   39.4147   30.2821   42.8067 H   0  0  0  0  0  0  0  0  0  0  0  0
   38.4604   26.6195   43.6515 H   0  0  0  0  0  0  0  0  0  0  0  0
   38.2546   28.0808   44.6459 H   0  0  0  0  0  0  0  0  0  0  0  0
   36.1214   26.4828   43.7041 H   0  0  0  0  0  0  0  0  0  0  0  0
   35.8867   28.1230   44.2019 H   0  0  0  0  0  0  0  0  0  0  0  0
   35.3328   28.2038   41.7572 H   0  0  0  0  0  0  0  0  0  0  0  0
   36.5436   27.0878   41.2919 H   0  0  0  0  0  0  0  0  0  0  0  0
   37.5481   29.4435   41.0421 H   0  0  0  0  0  0  0  0  0  0  0  0
   37.0061   29.9389   42.6121 H   0  0  0  0  0  0  0  0  0  0  0  0
  1  4  1  0
  1  9  1  0
  3  2  2  0
  4  3  1  0
  5  6  1  0
  5  4  2  0
  6  7  2  0
  7  2  1  0
  8  1  1  0
 10  9  1  0
 10 11  1  0
 12 11  1  0
 13 14  1  0
 13 12  1  0
 14 10  1  0
  1 15  1  6
  2 16  1  0
  3 17  1  0
  6 18  1  0
  8 19  1  0
  8 20  1  0
  8 21  1  0
  9 22  1  0
  9 23  1  0
 11 24  1  0
 11 25  1  0
 12 26  1  0
 12 27  1  0
 13 28  1  0
 13 29  1  0
 14 30  1  0
 14 31  1  0
M  ISO  8  15   8  16  14  17  14  18  14  19   8  20   8  21   8  22   8
M  ISO  8  23   8  24  13  25  13  26  13  27  13  28  13  29  13  30  13
M  ISO  1  31  13
M  END
>  <minimizedAffinity>  (1) 
-3.33093023

>  <minimizedRMSD>  (1) 
5.09442806

$$$$
