
     RDKit          3D

 32 33  0  0  1  0  0  0  0  0999 V2000
   36.8990   27.8260   43.1560 C   0  0  2  0  0  0  0  0  0  0  0  0
   39.2060   30.6620   42.1290 C   0  0  0  0  0  0  0  0  0  0  0  0
   38.7450   29.5040   42.7940 C   0  0  0  0  0  0  0  0  0  0  0  0
   37.4340   29.0380   42.4960 C   0  0  0  0  0  0  0  0  0  0  0  0
   36.7050   29.7610   41.5720 N   0  0  0  0  0  0  0  0  0  0  0  0
   37.1750   30.8530   40.9640 C   0  0  0  0  0  0  0  0  0  0  0  0
   38.4210   31.3060   41.2370 N   0  0  0  0  0  0  0  0  0  0  0  0
   36.7460   28.0060   44.6430 C   0  0  0  0  0  0  0  0  0  0  0  0
   37.9040   26.6930   42.8360 C   0  0  0  0  0  0  0  0  0  0  0  0
   37.1120   25.5480   42.2470 C   0  0  0  0  0  0  0  0  0  0  0  0
   37.8150   24.2310   42.2750 C   0  0  0  0  0  0  0  0  0  0  0  0
   37.5090   23.5300   40.9640 C   0  0  0  0  0  0  0  0  0  0  0  0
   36.5740   24.4700   40.2150 C   0  0  0  0  0  0  0  0  0  0  0  0
   36.9780   25.8300   40.7510 C   0  0  0  0  0  0  0  0  0  0  0  0
   35.8895   27.5967   42.7840 H   0  0  0  0  0  0  0  0  0  0  0  0
   40.2158   31.0440   42.3397 H   0  0  0  0  0  0  0  0  0  0  0  0
   39.3810   28.9779   43.5211 H   0  0  0  0  0  0  0  0  0  0  0  0
   36.5459   31.3876   40.2370 H   0  0  0  0  0  0  0  0  0  0  0  0
   37.3721   27.2694   45.1678 H   0  0  0  0  0  0  0  0  0  0  0  0
   37.0614   29.0217   44.9238 H   0  0  0  0  0  0  0  0  0  0  0  0
   35.6927   27.8584   44.9238 H   0  0  0  0  0  0  0  0  0  0  0  0
   38.6522   27.0462   42.1112 H   0  0  0  0  0  0  0  0  0  0  0  0
   38.4359   26.3740   43.7444 H   0  0  0  0  0  0  0  0  0  0  0  0
   36.1823   25.4866   42.8318 H   0  0  0  0  0  0  0  0  0  0  0  0
   38.8995   24.3849   42.3757 H   0  0  0  0  0  0  0  0  0  0  0  0
   37.4765   23.6261   43.1291 H   0  0  0  0  0  0  0  0  0  0  0  0
   38.4327   23.3668   40.3895 H   0  0  0  0  0  0  0  0  0  0  0  0
   37.0549   22.5409   41.1238 H   0  0  0  0  0  0  0  0  0  0  0  0
   35.5210   24.2492   40.4440 H   0  0  0  0  0  0  0  0  0  0  0  0
   36.6538   24.3883   39.1209 H   0  0  0  0  0  0  0  0  0  0  0  0
   37.9331   26.1634   40.3190 H   0  0  0  0  0  0  0  0  0  0  0  0
   36.2661   26.6334   40.5107 H   0  0  0  0  0  0  0  0  0  0  0  0
  1  8  1  0
  2  3  2  0
  4  3  1  0
  4  1  1  0
  5  4  2  0
  6  7  2  0
  6  5  1  0
  7  2  1  0
  9  1  1  0
 10 11  1  0
 10  9  1  0
 12 11  1  0
 13 14  1  0
 13 12  1  0
 14 10  1  0
  1 15  1  6
  2 16  1  0
  3 17  1  0
  6 18  1  0
  8 19  1  0
  8 20  1  0
  8 21  1  0
  9 22  1  0
  9 23  1  0
 10 24  1  0
 11 25  1  0
 11 26  1  0
 12 27  1  0
 12 28  1  0
 13 29  1  0
 13 30  1  0
 14 31  1  0
 14 32  1  0
M  ISO  8  15   8  16  14  17  14  18  14  19   8  20   8  21   8  22   8
M  ISO  8  23   8  24  13  25  13  26  13  27  13  28  13  29  13  30  13
M  ISO  2  31  13  32  13
M  END
>  <minimizedAffinity>  (1) 
-4.73428154

>  <minimizedRMSD>  (1) 
1.57993209

$$$$
