
     RDKit          3D

 46 49  0  0  1  0  0  0  0  0999 V2000
   36.8830   25.7380   42.1090 C   0  0  2  0  0  0  0  0  0  0  0  0
   37.2470   24.3140   42.1600 C   0  0  0  0  0  0  0  0  0  0  0  0
   37.1030   23.7500   40.7590 C   0  0  0  0  0  0  0  0  0  0  0  0
   36.4930   24.8850   39.9400 C   0  0  0  0  0  0  0  0  0  0  0  0
   37.0420   26.1110   40.6460 C   0  0  2  0  0  0  0  0  0  0  0  0
   38.4440   26.2690   40.2560 C   0  0  0  0  0  0  0  0  0  0  0  0
   38.8630   26.7840   39.0860 N   0  0  0  0  0  0  0  0  0  0  0  0
   40.1600   26.9260   38.7650 C   0  0  0  0  0  0  0  0  0  0  0  0
   41.1790   26.5610   39.5970 N   0  0  0  0  0  0  0  0  0  0  0  0
   40.8190   26.0310   40.8000 C   0  0  0  0  0  0  0  0  0  0  0  0
   41.8350   25.6580   41.6530 C   0  0  0  0  0  0  0  0  0  0  0  0
   41.5280   25.1170   42.8840 C   0  0  0  0  0  0  0  0  0  0  0  0
   40.2010   24.9570   43.2470 C   0  0  0  0  0  0  0  0  0  0  0  0
   39.2250   25.3570   42.3340 C   0  0  0  0  0  0  0  0  0  0  0  0
   39.4780   25.8990   41.0990 C   0  0  0  0  0  0  0  0  0  0  0  0
   37.6880   26.6770   42.9390 C   0  0  0  0  0  0  0  0  0  0  0  0
   36.8220   27.9190   43.2760 C   0  0  2  0  0  0  0  0  0  0  0  0
   39.4140   30.5040   42.2430 C   0  0  0  0  0  0  0  0  0  0  0  0
   38.8390   29.4050   42.9100 C   0  0  0  0  0  0  0  0  0  0  0  0
   37.4800   29.0740   42.6030 C   0  0  0  0  0  0  0  0  0  0  0  0
   36.8450   29.8610   41.6790 N   0  0  0  0  0  0  0  0  0  0  0  0
   37.4270   30.8950   41.0710 C   0  0  0  0  0  0  0  0  0  0  0  0
   38.7150   31.2210   41.3510 N   0  0  0  0  0  0  0  0  0  0  0  0
   36.7400   28.0960   44.7660 C   0  0  0  0  0  0  0  0  0  0  0  0
   35.8721   25.8424   42.5300 H   0  0  0  0  0  0  0  0  0  0  0  0
   38.2866   24.2052   42.5025 H   0  0  0  0  0  0  0  0  0  0  0  0
   36.5935   23.7744   42.8613 H   0  0  0  0  0  0  0  0  0  0  0  0
   38.0850   23.4646   40.3538 H   0  0  0  0  0  0  0  0  0  0  0  0
   36.4801   22.8436   40.7393 H   0  0  0  0  0  0  0  0  0  0  0  0
   35.3939   24.8600   39.9782 H   0  0  0  0  0  0  0  0  0  0  0  0
   36.7389   24.8418   38.8687 H   0  0  0  0  0  0  0  0  0  0  0  0
   36.5465   27.0648   40.4120 H   0  0  0  0  0  0  0  0  0  0  0  0
   40.4128   27.3569   37.7850 H   0  0  0  0  0  0  0  0  0  0  0  0
   42.8851   25.7910   41.3538 H   0  0  0  0  0  0  0  0  0  0  0  0
   42.3311   24.8149   43.5723 H   0  0  0  0  0  0  0  0  0  0  0  0
   39.9260   24.5290   44.2223 H   0  0  0  0  0  0  0  0  0  0  0  0
   38.1724   25.2281   42.6264 H   0  0  0  0  0  0  0  0  0  0  0  0
   37.9946   26.1772   43.8697 H   0  0  0  0  0  0  0  0  0  0  0  0
   38.5859   26.9881   42.3849 H   0  0  0  0  0  0  0  0  0  0  0  0
   35.7854   27.8178   42.9223 H   0  0  0  0  0  0  0  0  0  0  0  0
   40.4570   30.7797   42.4579 H   0  0  0  0  0  0  0  0  0  0  0  0
   39.4147   28.8202   43.6425 H   0  0  0  0  0  0  0  0  0  0  0  0
   36.8602   31.4877   40.3379 H   0  0  0  0  0  0  0  0  0  0  0  0
   37.1523   27.2061   45.2642 H   0  0  0  0  0  0  0  0  0  0  0  0
   37.3188   28.9833   45.0623 H   0  0  0  0  0  0  0  0  0  0  0  0
   35.6889   28.2282   45.0623 H   0  0  0  0  0  0  0  0  0  0  0  0
  1  2  1  0
  1 16  1  0
  3  2  1  0
  4  5  1  0
  4  3  1  0
  5  1  1  0
  6  5  1  0
  6 15  1  0
  7  6  2  0
  8  7  1  0
  8  9  2  0
  9 10  1  0
 10 15  2  0
 10 11  1  0
 11 12  2  0
 12 13  1  0
 14 13  2  0
 15 14  1  0
 16 17  1  0
 17 24  1  0
 18 19  2  0
 20 19  1  0
 20 17  1  0
 21 20  2  0
 22 23  2  0
 22 21  1  0
 23 18  1  0
  1 25  1  1
  2 26  1  0
  2 27  1  0
  3 28  1  0
  3 29  1  0
  4 30  1  0
  4 31  1  0
  5 32  1  1
  8 33  1  0
 11 34  1  0
 12 35  1  0
 13 36  1  0
 14 37  1  0
 16 38  1  0
 16 39  1  0
 17 40  1  6
 18 41  1  0
 19 42  1  0
 22 43  1  0
 24 44  1  0
 24 45  1  0
 24 46  1  0
M  ISO  8  25  13  26  13  27  13  28  13  29  13  30  13  31  13  32  13
M  ISO  8  33  14  34  14  35  14  36  14  37  14  38   8  39   8  40   8
M  ISO  6  41  14  42  14  43  14  44   8  45   8  46   8
M  END
>  <minimizedAffinity>  (1) 
-6.05590916

>  <minimizedRMSD>  (1) 
0.733571053

$$$$
