
     RDKit          3D

 46 49  0  0  1  0  0  0  0  0999 V2000
   37.1100   25.9000   41.7970 C   0  0  2  0  0  0  0  0  0  0  0  0
   37.1560   24.4240   42.1750 C   0  0  0  0  0  0  0  0  0  0  0  0
   37.4020   23.6630   40.8880 C   0  0  0  0  0  0  0  0  0  0  0  0
   37.4660   24.7240   39.8160 C   0  0  0  0  0  0  0  0  0  0  0  0
   37.9430   25.9480   40.5920 C   0  0  1  0  0  0  0  0  0  0  0  0
   38.0770   27.0640   39.7110 C   0  0  0  0  0  0  0  0  0  0  0  0
   39.3230   27.6200   39.3560 C   0  0  0  0  0  0  0  0  0  0  0  0
   39.1290   28.6420   38.5250 N   0  0  0  0  0  0  0  0  0  0  0  0
   37.8350   28.8660   38.2520 C   0  0  0  0  0  0  0  0  0  0  0  0
   37.0880   29.7260   37.5030 C   0  0  0  0  0  0  0  0  0  0  0  0
   35.7110   29.6270   37.4730 C   0  0  0  0  0  0  0  0  0  0  0  0
   35.0420   28.6480   38.2060 C   0  0  0  0  0  0  0  0  0  0  0  0
   35.8240   27.8030   38.9470 C   0  0  0  0  0  0  0  0  0  0  0  0
   37.2230   27.8800   38.9970 C   0  0  0  0  0  0  0  0  0  0  0  0
   37.7960   26.7430   42.8720 C   0  0  0  0  0  0  0  0  0  0  0  0
   36.8210   27.8730   43.2160 C   0  0  2  0  0  0  0  0  0  0  0  0
   39.0390   30.6070   41.7950 C   0  0  0  0  0  0  0  0  0  0  0  0
   38.6720   29.4520   42.5220 C   0  0  0  0  0  0  0  0  0  0  0  0
   37.2930   29.0660   42.5010 C   0  0  0  0  0  0  0  0  0  0  0  0
   36.4350   29.8680   41.7640 N   0  0  0  0  0  0  0  0  0  0  0  0
   36.8090   30.9420   41.0950 C   0  0  0  0  0  0  0  0  0  0  0  0
   38.1180   31.3210   41.1050 N   0  0  0  0  0  0  0  0  0  0  0  0
   36.8010   28.1020   44.7160 C   0  0  0  0  0  0  0  0  0  0  0  0
   36.0841   26.2763   41.6706 H   0  0  0  0  0  0  0  0  0  0  0  0
   37.9721   24.2389   42.8889 H   0  0  0  0  0  0  0  0  0  0  0  0
   36.2193   24.1049   42.6554 H   0  0  0  0  0  0  0  0  0  0  0  0
   38.3507   23.1089   40.9413 H   0  0  0  0  0  0  0  0  0  0  0  0
   36.6155   22.9202   40.6892 H   0  0  0  0  0  0  0  0  0  0  0  0
   36.4761   24.8976   39.3688 H   0  0  0  0  0  0  0  0  0  0  0  0
   38.1198   24.4569   38.9727 H   0  0  0  0  0  0  0  0  0  0  0  0
   38.9674   26.0177   40.9868 H   0  0  0  0  0  0  0  0  0  0  0  0
   40.3021   27.2650   39.7101 H   0  0  0  0  0  0  0  0  0  0  0  0
   39.8964   29.2047   38.1309 H   0  0  0  0  0  0  0  0  0  0  0  0
   37.5888   30.5091   36.9148 H   0  0  0  0  0  0  0  0  0  0  0  0
   35.1318   30.3331   36.8599 H   0  0  0  0  0  0  0  0  0  0  0  0
   33.9457   28.5592   38.1900 H   0  0  0  0  0  0  0  0  0  0  0  0
   35.3263   27.0191   39.5367 H   0  0  0  0  0  0  0  0  0  0  0  0
   38.0006   26.1315   43.7632 H   0  0  0  0  0  0  0  0  0  0  0  0
   38.7590   27.1388   42.5170 H   0  0  0  0  0  0  0  0  0  0  0  0
   35.7921   27.6275   42.9143 H   0  0  0  0  0  0  0  0  0  0  0  0
   40.0901   30.9314   41.7895 H   0  0  0  0  0  0  0  0  0  0  0  0
   39.4182   28.8707   43.0835 H   0  0  0  0  0  0  0  0  0  0  0  0
   36.0680   31.5285   40.5320 H   0  0  0  0  0  0  0  0  0  0  0  0
   36.8854   27.1361   45.2355 H   0  0  0  0  0  0  0  0  0  0  0  0
   37.6463   28.7461   44.9999 H   0  0  0  0  0  0  0  0  0  0  0  0
   35.8568   28.5898   44.9999 H   0  0  0  0  0  0  0  0  0  0  0  0
  1  2  1  0
  1 15  1  0
  3  2  1  0
  4  5  1  0
  4  3  1  0
  5  1  1  0
  6  5  1  0
  7  6  2  0
  8  7  1  0
  9  8  1  0
  9 14  2  0
 10  9  1  0
 11 10  2  0
 11 12  1  0
 12 13  2  0
 13 14  1  0
 14  6  1  0
 15 16  1  0
 16 23  1  0
 17 18  2  0
 19 18  1  0
 19 16  1  0
 20 19  2  0
 21 22  2  0
 21 20  1  0
 22 17  1  0
  1 24  1  6
  2 25  1  0
  2 26  1  0
  3 27  1  0
  3 28  1  0
  4 29  1  0
  4 30  1  0
  5 31  1  1
  7 32  1  0
  8 33  1  0
 10 34  1  0
 11 35  1  0
 12 36  1  0
 13 37  1  0
 15 38  1  0
 15 39  1  0
 16 40  1  6
 17 41  1  0
 18 42  1  0
 21 43  1  0
 23 44  1  0
 23 45  1  0
 23 46  1  0
M  ISO  8  24  13  25  13  26  13  27  13  28  13  29  13  30  13  31  13
M  ISO  8  32  14  33   9  34  14  35  14  36  14  37  14  38   8  39   8
M  ISO  7  40   8  41  14  42  14  43  14  44   8  45   8  46   8
M  END
>  <minimizedAffinity>  (1) 
-5.80093193

>  <minimizedRMSD>  (1) 
1.85915995

$$$$
