
     RDKit          3D

 43 46  0  0  1  0  0  0  0  0999 V2000
   37.1700   25.6060   42.2280 C   0  0  2  0  0  0  0  0  0  0  0  0
   37.8220   24.2790   42.2700 C   0  0  0  0  0  0  0  0  0  0  0  0
   37.6580   23.6550   40.8900 C   0  0  0  0  0  0  0  0  0  0  0  0
   36.7140   24.6010   40.1470 C   0  0  0  0  0  0  0  0  0  0  0  0
   37.0350   25.9340   40.7850 C   0  0  2  0  0  0  0  0  0  0  0  0
   38.1730   26.5730   40.1730 N   0  0  0  0  0  0  0  0  0  0  0  0
   39.4870   26.3240   40.3210 C   0  0  0  0  0  0  0  0  0  0  0  0
   40.2560   27.1390   39.5750 N   0  0  0  0  0  0  0  0  0  0  0  0
   39.3970   27.9420   38.9220 C   0  0  0  0  0  0  0  0  0  0  0  0
   39.6340   28.9730   38.0130 C   0  0  0  0  0  0  0  0  0  0  0  0
   38.6110   29.6580   37.4710 N   0  0  0  0  0  0  0  0  0  0  0  0
   37.3640   29.3140   37.8340 C   0  0  0  0  0  0  0  0  0  0  0  0
   37.1460   28.3160   38.7100 N   0  0  0  0  0  0  0  0  0  0  0  0
   38.1330   27.6030   39.2810 C   0  0  0  0  0  0  0  0  0  0  0  0
   37.8480   26.7170   42.9460 C   0  0  0  0  0  0  0  0  0  0  0  0
   36.8320   27.8290   43.2340 C   0  0  2  0  0  0  0  0  0  0  0  0
   39.0500   30.5400   41.8040 C   0  0  0  0  0  0  0  0  0  0  0  0
   38.6710   29.3830   42.5250 C   0  0  0  0  0  0  0  0  0  0  0  0
   37.3060   29.0250   42.5040 C   0  0  0  0  0  0  0  0  0  0  0  0
   36.4690   29.8380   41.7810 N   0  0  0  0  0  0  0  0  0  0  0  0
   36.8470   30.9160   41.1120 C   0  0  0  0  0  0  0  0  0  0  0  0
   38.1520   31.2690   41.1250 N   0  0  0  0  0  0  0  0  0  0  0  0
   36.7270   28.0690   44.7260 C   0  0  0  0  0  0  0  0  0  0  0  0
   36.2172   25.5221   42.7713 H   0  0  0  0  0  0  0  0  0  0  0  0
   38.8899   24.3908   42.5090 H   0  0  0  0  0  0  0  0  0  0  0  0
   37.3663   23.6434   43.0436 H   0  0  0  0  0  0  0  0  0  0  0  0
   38.6280   23.5913   40.3751 H   0  0  0  0  0  0  0  0  0  0  0  0
   37.2646   22.6290   40.9408 H   0  0  0  0  0  0  0  0  0  0  0  0
   35.6619   24.3238   40.3090 H   0  0  0  0  0  0  0  0  0  0  0  0
   36.8453   24.5898   39.0549 H   0  0  0  0  0  0  0  0  0  0  0  0
   36.2587   26.6997   40.6401 H   0  0  0  0  0  0  0  0  0  0  0  0
   39.8889   25.5400   40.9797 H   0  0  0  0  0  0  0  0  0  0  0  0
   40.6676   29.2285   37.7366 H   0  0  0  0  0  0  0  0  0  0  0  0
   36.5073   29.8570   37.4082 H   0  0  0  0  0  0  0  0  0  0  0  0
   38.2622   26.3432   43.8940 H   0  0  0  0  0  0  0  0  0  0  0  0
   38.6631   27.1148   42.3236 H   0  0  0  0  0  0  0  0  0  0  0  0
   35.8196   27.5610   42.8976 H   0  0  0  0  0  0  0  0  0  0  0  0
   40.1058   30.8488   41.8003 H   0  0  0  0  0  0  0  0  0  0  0  0
   39.4105   28.7866   43.0795 H   0  0  0  0  0  0  0  0  0  0  0  0
   36.1114   31.5146   40.5547 H   0  0  0  0  0  0  0  0  0  0  0  0
   37.1110   27.1913   45.2665 H   0  0  0  0  0  0  0  0  0  0  0  0
   37.3197   28.9550   44.9975 H   0  0  0  0  0  0  0  0  0  0  0  0
   35.6740   28.2350   44.9975 H   0  0  0  0  0  0  0  0  0  0  0  0
  1  2  1  0
  1 15  1  0
  3  2  1  0
  4  5  1  0
  4  3  1  0
  5  1  1  0
  6  7  1  0
  6  5  1  0
  8  7  2  0
  9 14  2  0
  9  8  1  0
 10  9  1  0
 11 12  1  0
 11 10  2  0
 12 13  2  0
 13 14  1  0
 14  6  1  0
 15 16  1  0
 16 23  1  0
 17 18  2  0
 19 18  1  0
 19 16  1  0
 20 19  2  0
 21 22  2  0
 21 20  1  0
 22 17  1  0
  1 24  1  1
  2 25  1  0
  2 26  1  0
  3 27  1  0
  3 28  1  0
  4 29  1  0
  4 30  1  0
  5 31  1  1
  7 32  1  0
 10 33  1  0
 12 34  1  0
 15 35  1  0
 15 36  1  0
 16 37  1  6
 17 38  1  0
 18 39  1  0
 21 40  1  0
 23 41  1  0
 23 42  1  0
 23 43  1  0
M  ISO  8  24  13  25  13  26  13  27  13  28  13  29  13  30  13  31  13
M  ISO  8  32  14  33  14  34  14  35   8  36   8  37   8  38  14  39  14
M  ISO  4  40  14  41   8  42   8  43   8
M  END
>  <minimizedAffinity>  (1) 
-5.45355511

>  <minimizedRMSD>  (1) 
1.45976698

$$$$
