
     RDKit          3D

 45 47  0  0  1  0  0  0  0  0999 V2000
   37.1690   25.6030   42.1450 C   0  0  2  0  0  0  0  0  0  0  0  0
   37.7980   24.2760   42.3060 C   0  0  0  0  0  0  0  0  0  0  0  0
   37.6090   23.5180   41.0110 C   0  0  0  0  0  0  0  0  0  0  0  0
   36.6780   24.3940   40.1810 C   0  0  0  0  0  0  0  0  0  0  0  0
   36.9930   25.7820   40.6780 C   0  0  2  0  0  0  0  0  0  0  0  0
   38.0480   26.4160   39.9600 N   0  0  0  0  0  0  0  0  0  0  0  0
   38.0130   27.5860   39.3170 C   0  0  0  0  0  0  0  0  0  0  0  0
   39.0250   28.1870   38.6380 C   0  0  0  0  0  0  0  0  0  0  0  0
   38.8290   29.5170   37.9610 C   0  0  0  0  0  0  0  0  0  0  0  0
   40.2460   27.5200   38.5960 C   0  0  0  0  0  0  0  0  0  0  0  0
   41.1950   28.0610   37.9720 O   0  0  0  0  0  0  0  0  0  0  0  0
   40.3190   26.3480   39.2260 N   0  0  0  0  0  0  0  0  0  0  0  0
   39.2730   25.8110   39.8830 C   0  0  0  0  0  0  0  0  0  0  0  0
   39.5190   24.6880   40.4270 O   0  0  0  0  0  0  0  0  0  0  0  0
   37.8780   26.7780   42.7370 C   0  0  0  0  0  0  0  0  0  0  0  0
   36.8500   27.8580   43.0900 C   0  0  2  0  0  0  0  0  0  0  0  0
   38.8920   30.7290   41.7110 C   0  0  0  0  0  0  0  0  0  0  0  0
   38.5880   29.5540   42.4350 C   0  0  0  0  0  0  0  0  0  0  0  0
   37.2600   29.0810   42.3660 C   0  0  0  0  0  0  0  0  0  0  0  0
   36.3880   29.8110   41.6020 N   0  0  0  0  0  0  0  0  0  0  0  0
   36.6960   30.9110   40.9310 C   0  0  0  0  0  0  0  0  0  0  0  0
   37.9560   31.3740   40.9860 N   0  0  0  0  0  0  0  0  0  0  0  0
   36.7970   28.0630   44.5880 C   0  0  0  0  0  0  0  0  0  0  0  0
   36.2319   25.5932   42.7210 H   0  0  0  0  0  0  0  0  0  0  0  0
   38.8709   24.3932   42.5185 H   0  0  0  0  0  0  0  0  0  0  0  0
   37.3378   23.7302   43.1428 H   0  0  0  0  0  0  0  0  0  0  0  0
   38.5723   23.3809   40.4978 H   0  0  0  0  0  0  0  0  0  0  0  0
   37.1966   22.5115   41.1748 H   0  0  0  0  0  0  0  0  0  0  0  0
   35.6243   24.1372   40.3645 H   0  0  0  0  0  0  0  0  0  0  0  0
   36.8219   24.2769   39.0968 H   0  0  0  0  0  0  0  0  0  0  0  0
   36.1942   26.5148   40.4910 H   0  0  0  0  0  0  0  0  0  0  0  0
   37.0545   28.1253   39.3397 H   0  0  0  0  0  0  0  0  0  0  0  0
   38.7132   30.3025   38.7224 H   0  0  0  0  0  0  0  0  0  0  0  0
   39.7038   29.7412   37.3329 H   0  0  0  0  0  0  0  0  0  0  0  0
   37.9267   29.4793   37.3329 H   0  0  0  0  0  0  0  0  0  0  0  0
   41.2105   25.8324   39.2099 H   0  0  0  0  0  0  0  0  0  0  0  0
   38.4118   26.4661   43.6468 H   0  0  0  0  0  0  0  0  0  0  0  0
   38.6018   27.1781   42.0117 H   0  0  0  0  0  0  0  0  0  0  0  0
   35.8318   27.5709   42.7886 H   0  0  0  0  0  0  0  0  0  0  0  0
   39.9171   31.1270   41.7397 H   0  0  0  0  0  0  0  0  0  0  0  0
   39.3534   29.0306   43.0268 H   0  0  0  0  0  0  0  0  0  0  0  0
   35.9326   31.4366   40.3386 H   0  0  0  0  0  0  0  0  0  0  0  0
   37.0412   27.1185   45.0962 H   0  0  0  0  0  0  0  0  0  0  0  0
   37.5252   28.8346   44.8785 H   0  0  0  0  0  0  0  0  0  0  0  0
   35.7861   28.3850   44.8785 H   0  0  0  0  0  0  0  0  0  0  0  0
  1  2  1  0
  1 15  1  0
  3  2  1  0
  4  5  1  0
  4  3  1  0
  5  1  1  0
  6  5  1  0
  7  6  1  0
  8  7  2  0
  9  8  1  0
 10  8  1  0
 10 12  1  0
 11 10  2  0
 12 13  1  0
 13  6  1  0
 13 14  2  0
 15 16  1  0
 16 23  1  0
 17 18  2  0
 19 18  1  0
 19 16  1  0
 20 19  2  0
 21 22  2  0
 21 20  1  0
 22 17  1  0
  1 24  1  1
  2 25  1  0
  2 26  1  0
  3 27  1  0
  3 28  1  0
  4 29  1  0
  4 30  1  0
  5 31  1  1
  7 32  1  0
  9 33  1  0
  9 34  1  0
  9 35  1  0
 12 36  1  0
 15 37  1  0
 15 38  1  0
 16 39  1  6
 17 40  1  0
 18 41  1  0
 21 42  1  0
 23 43  1  0
 23 44  1  0
 23 45  1  0
M  ISO  8  24  13  25  13  26  13  27  13  28  13  29  13  30  13  31  13
M  ISO  8  32  14  33   8  34   8  35   8  36   9  37   8  38   8  39   8
M  ISO  6  40  14  41  14  42  14  43   8  44   8  45   8
M  END
>  <minimizedAffinity>  (1) 
-5.38181353

>  <minimizedRMSD>  (1) 
0.355200142

$$$$
