
     RDKit          3D

 49 52  0  0  1  0  0  0  0  0999 V2000
   37.5660   27.7230   43.1280 C   0  0  2  0  0  0  0  0  0  0  0  0
   39.2400   26.0680   42.2860 C   0  0  1  0  0  0  0  0  0  0  0  0
   39.0060   24.6720   41.6310 C   0  0  0  0  0  0  0  0  0  0  0  0
   37.6460   24.2650   42.0100 C   0  0  0  0  0  0  0  0  0  0  0  0
   36.9510   25.6130   42.3310 C   0  0  0  0  0  0  0  0  0  0  0  0
   38.0000   26.2930   43.0140 C   0  0  2  0  0  0  0  0  0  0  0  0
   41.9540   26.9950   44.6920 C   0  0  0  0  0  0  0  0  0  0  0  0
   40.7160   26.9830   44.0500 C   0  0  0  0  0  0  0  0  0  0  0  0
   40.4900   26.1090   42.9840 C   0  0  0  0  0  0  0  0  0  0  0  0
   41.4940   25.2770   42.5930 N   0  0  0  0  0  0  0  0  0  0  0  0
   42.6900   25.2930   43.2190 C   0  0  0  0  0  0  0  0  0  0  0  0
   42.9230   26.1360   44.2540 N   0  0  0  0  0  0  0  0  0  0  0  0
   36.8100   28.0860   44.3490 C   0  0  0  0  0  0  0  0  0  0  0  0
   36.8310   27.9770   41.9130 C   0  0  0  0  0  0  0  0  0  0  0  0
   36.9820   29.3350   41.5250 N   0  0  0  0  0  0  0  0  0  0  0  0
   36.0240   30.1710   41.0460 C   0  0  0  0  0  0  0  0  0  0  0  0
   36.6220   31.3320   40.6350 C   0  0  0  0  0  0  0  0  0  0  0  0
   37.9370   31.1550   40.8870 N   0  0  0  0  0  0  0  0  0  0  0  0
   38.1600   29.9390   41.4310 C   0  0  0  0  0  0  0  0  0  0  0  0
   39.5530   29.9010   41.6460 C   0  0  0  0  0  0  0  0  0  0  0  0
   40.5340   29.1640   41.0160 C   0  0  0  0  0  0  0  0  0  0  0  0
   41.8910   29.1850   41.2500 C   0  0  0  0  0  0  0  0  0  0  0  0
   42.2790   30.0540   42.2370 C   0  0  0  0  0  0  0  0  0  0  0  0
   41.4730   30.8650   42.9730 C   0  0  0  0  0  0  0  0  0  0  0  0
   40.1190   30.7450   42.6330 C   0  0  0  0  0  0  0  0  0  0  0  0
   38.4498   28.3680   43.2418 H   0  0  0  0  0  0  0  0  0  0  0  0
   39.3947   26.9195   41.6070 H   0  0  0  0  0  0  0  0  0  0  0  0
   39.7407   23.9456   42.0085 H   0  0  0  0  0  0  0  0  0  0  0  0
   39.1212   24.7173   40.5380 H   0  0  0  0  0  0  0  0  0  0  0  0
   37.1424   23.7493   41.1791 H   0  0  0  0  0  0  0  0  0  0  0  0
   37.6257   23.5573   42.8519 H   0  0  0  0  0  0  0  0  0  0  0  0
   36.6526   26.1438   41.4149 H   0  0  0  0  0  0  0  0  0  0  0  0
   36.0167   25.5206   42.9042 H   0  0  0  0  0  0  0  0  0  0  0  0
   38.1963   25.9295   44.0335 H   0  0  0  0  0  0  0  0  0  0  0  0
   42.1462   27.6797   45.5312 H   0  0  0  0  0  0  0  0  0  0  0  0
   39.9173   27.6620   44.3832 H   0  0  0  0  0  0  0  0  0  0  0  0
   43.4865   24.6122   42.8842 H   0  0  0  0  0  0  0  0  0  0  0  0
   37.3935   27.8058   45.2384 H   0  0  0  0  0  0  0  0  0  0  0  0
   36.6263   29.1705   44.3577 H   0  0  0  0  0  0  0  0  0  0  0  0
   35.8488   27.5512   44.3577 H   0  0  0  0  0  0  0  0  0  0  0  0
   37.2138   27.3256   41.1135 H   0  0  0  0  0  0  0  0  0  0  0  0
   35.7650   27.7692   42.0875 H   0  0  0  0  0  0  0  0  0  0  0  0
   34.9472   29.9516   40.9966 H   0  0  0  0  0  0  0  0  0  0  0  0
   36.1372   32.2161   40.1954 H   0  0  0  0  0  0  0  0  0  0  0  0
   40.1904   28.4750   40.2304 H   0  0  0  0  0  0  0  0  0  0  0  0
   42.6027   28.5582   40.6927 H   0  0  0  0  0  0  0  0  0  0  0  0
   43.3559   30.1000   42.4566 H   0  0  0  0  0  0  0  0  0  0  0  0
   41.8452   31.5445   43.7539 H   0  0  0  0  0  0  0  0  0  0  0  0
   39.4165   31.3773   43.1958 H   0  0  0  0  0  0  0  0  0  0  0  0
  1 13  1  0
  2  9  1  0
  2  6  1  0
  3  4  1  0
  3  2  1  0
  4  5  1  0
  5  6  1  0
  6  1  1  0
  8  7  2  0
  9  8  1  0
 10  9  2  0
 10 11  1  0
 11 12  2  0
 12  7  1  0
 14  1  1  0
 15 14  1  0
 16 15  1  0
 17 18  1  0
 17 16  2  0
 18 19  2  0
 19 15  1  0
 19 20  1  0
 20 25  2  0
 21 22  2  0
 21 20  1  0
 22 23  1  0
 23 24  2  0
 25 24  1  0
  1 26  1  6
  2 27  1  6
  3 28  1  0
  3 29  1  0
  4 30  1  0
  4 31  1  0
  5 32  1  0
  5 33  1  0
  6 34  1  1
  7 35  1  0
  8 36  1  0
 11 37  1  0
 13 38  1  0
 13 39  1  0
 13 40  1  0
 14 41  1  0
 14 42  1  0
 16 43  1  0
 17 44  1  0
 21 45  1  0
 22 46  1  0
 23 47  1  0
 24 48  1  0
 25 49  1  0
M  ISO  8  26   8  27  13  28  13  29  13  30  13  31  13  32  13  33  13
M  ISO  8  34  13  35  14  36  14  37  14  38   8  39   8  40   8  41   8
M  ISO  8  42   8  43  14  44  14  45  14  46  14  47  14  48  14  49  14
M  END
>  <minimizedAffinity>  (1) 
-5.85569048

>  <minimizedRMSD>  (1) 
0.349017352

$$$$
