
     RDKit          3D

 37 39  0  0  1  0  0  0  0  0999 V2000
   37.0690   25.5480   42.2470 C   0  0  2  0  0  0  0  0  0  0  0  0
   37.7590   24.2160   42.2710 C   0  0  0  0  0  0  0  0  0  0  0  0
   37.4820   23.5680   40.9340 C   0  0  0  0  0  0  0  0  0  0  0  0
   36.5960   24.5450   40.1840 C   0  0  0  0  0  0  0  0  0  0  0  0
   37.0230   25.8820   40.7670 C   0  0  2  0  0  0  0  0  0  0  0  0
   38.3820   26.1520   40.2210 C   0  0  0  0  0  0  0  0  0  0  0  0
   39.4580   25.3620   40.0600 N   0  0  0  0  0  0  0  0  0  0  0  0
   40.4340   26.0460   39.5350 O   0  0  0  0  0  0  0  0  0  0  0  0
   40.0430   27.2920   39.3350 C   0  0  0  0  0  0  0  0  0  0  0  0
   38.7660   27.3540   39.7630 N   0  0  0  0  0  0  0  0  0  0  0  0
   37.8320   26.6480   42.9280 C   0  0  0  0  0  0  0  0  0  0  0  0
   36.8630   27.7980   43.2190 C   0  0  2  0  0  0  0  0  0  0  0  0
   39.1960   30.5920   42.1680 C   0  0  0  0  0  0  0  0  0  0  0  0
   38.7200   29.4450   42.8370 C   0  0  0  0  0  0  0  0  0  0  0  0
   37.4120   28.9960   42.5470 C   0  0  0  0  0  0  0  0  0  0  0  0
   36.7050   29.7240   41.6260 N   0  0  0  0  0  0  0  0  0  0  0  0
   37.1740   30.8010   41.0090 C   0  0  0  0  0  0  0  0  0  0  0  0
   38.4230   31.2410   41.2770 N   0  0  0  0  0  0  0  0  0  0  0  0
   36.7160   27.9950   44.7150 C   0  0  0  0  0  0  0  0  0  0  0  0
   36.1026   25.4814   42.7682 H   0  0  0  0  0  0  0  0  0  0  0  0
   38.8416   24.3508   42.4114 H   0  0  0  0  0  0  0  0  0  0  0  0
   37.3933   23.5922   43.1000 H   0  0  0  0  0  0  0  0  0  0  0  0
   38.4210   23.4020   40.3856 H   0  0  0  0  0  0  0  0  0  0  0  0
   36.9995   22.5862   41.0492 H   0  0  0  0  0  0  0  0  0  0  0  0
   35.5315   24.3474   40.3782 H   0  0  0  0  0  0  0  0  0  0  0  0
   36.7026   24.4868   39.0907 H   0  0  0  0  0  0  0  0  0  0  0  0
   36.3922   26.7573   40.5528 H   0  0  0  0  0  0  0  0  0  0  0  0
   40.6381   28.1119   38.9065 H   0  0  0  0  0  0  0  0  0  0  0  0
   38.2603   26.2753   43.8702 H   0  0  0  0  0  0  0  0  0  0  0  0
   38.6507   26.9972   42.2817 H   0  0  0  0  0  0  0  0  0  0  0  0
   35.8530   27.5875   42.8375 H   0  0  0  0  0  0  0  0  0  0  0  0
   40.2111   30.9607   42.3768 H   0  0  0  0  0  0  0  0  0  0  0  0
   39.3505   28.9140   43.5654 H   0  0  0  0  0  0  0  0  0  0  0  0
   36.5466   31.3350   40.2801 H   0  0  0  0  0  0  0  0  0  0  0  0
   37.2925   27.2225   45.2450 H   0  0  0  0  0  0  0  0  0  0  0  0
   37.0943   28.9899   44.9927 H   0  0  0  0  0  0  0  0  0  0  0  0
   35.6546   27.9156   44.9927 H   0  0  0  0  0  0  0  0  0  0  0  0
  1  2  1  0
  1 11  1  0
  3  2  1  0
  4  5  1  0
  4  3  1  0
  5  1  1  0
  6  5  1  0
  7  6  2  0
  8  7  1  0
  9  8  1  0
  9 10  2  0
 10  6  1  0
 11 12  1  0
 12 19  1  0
 13 14  2  0
 15 14  1  0
 15 12  1  0
 16 15  2  0
 17 18  2  0
 17 16  1  0
 18 13  1  0
  1 20  1  1
  2 21  1  0
  2 22  1  0
  3 23  1  0
  3 24  1  0
  4 25  1  0
  4 26  1  0
  5 27  1  1
  9 28  1  0
 11 29  1  0
 11 30  1  0
 12 31  1  6
 13 32  1  0
 14 33  1  0
 17 34  1  0
 19 35  1  0
 19 36  1  0
 19 37  1  0
M  ISO  8  20  13  21  13  22  13  23  13  24  13  25  13  26  13  27  13
M  ISO  8  28  14  29   8  30   8  31   8  32  14  33  14  34  14  35   8
M  ISO  2  36   8  37   8
M  END
>  <minimizedAffinity>  (1) 
-5.05634308

>  <minimizedRMSD>  (1) 
0.141634196

$$$$
