
     RDKit          3D

 39 41  0  0  1  0  0  0  0  0999 V2000
   37.1010   25.5950   42.1810 C   0  0  2  0  0  0  0  0  0  0  0  0
   37.6610   24.2250   42.2960 C   0  0  0  0  0  0  0  0  0  0  0  0
   37.4800   23.5580   40.9540 C   0  0  0  0  0  0  0  0  0  0  0  0
   36.6440   24.5200   40.1370 C   0  0  0  0  0  0  0  0  0  0  0  0
   36.9690   25.8690   40.7250 C   0  0  2  0  0  0  0  0  0  0  0  0
   38.1390   26.4820   40.0730 C   0  0  0  0  0  0  0  0  0  0  0  0
   39.4070   26.0080   39.8560 C   0  0  0  0  0  0  0  0  0  0  0  0
   40.1840   26.9090   39.2080 N   0  0  0  0  0  0  0  0  0  0  0  0
   39.3900   27.9830   39.0070 C   0  0  0  0  0  0  0  0  0  0  0  0
   38.1740   27.7320   39.5200 N   0  0  0  0  0  0  0  0  0  0  0  0
   37.8520   26.6890   42.8460 C   0  0  0  0  0  0  0  0  0  0  0  0
   36.8840   27.8340   43.1800 C   0  0  2  0  0  0  0  0  0  0  0  0
   39.1930   30.6450   42.1440 C   0  0  0  0  0  0  0  0  0  0  0  0
   38.7330   29.4940   42.8050 C   0  0  0  0  0  0  0  0  0  0  0  0
   37.4260   29.0390   42.5160 C   0  0  0  0  0  0  0  0  0  0  0  0
   36.6960   29.7690   41.6010 N   0  0  0  0  0  0  0  0  0  0  0  0
   37.1660   30.8580   40.9940 C   0  0  0  0  0  0  0  0  0  0  0  0
   38.4160   31.2970   41.2650 N   0  0  0  0  0  0  0  0  0  0  0  0
   36.7610   27.9990   44.6770 C   0  0  0  0  0  0  0  0  0  0  0  0
   36.1456   25.5969   42.7262 H   0  0  0  0  0  0  0  0  0  0  0  0
   38.7297   24.2744   42.5519 H   0  0  0  0  0  0  0  0  0  0  0  0
   37.1493   23.6578   43.0875 H   0  0  0  0  0  0  0  0  0  0  0  0
   38.4549   23.3906   40.4727 H   0  0  0  0  0  0  0  0  0  0  0  0
   36.9972   22.5741   41.0478 H   0  0  0  0  0  0  0  0  0  0  0  0
   35.5725   24.2947   40.2423 H   0  0  0  0  0  0  0  0  0  0  0  0
   36.8606   24.4624   39.0601 H   0  0  0  0  0  0  0  0  0  0  0  0
   36.1980   26.6352   40.5562 H   0  0  0  0  0  0  0  0  0  0  0  0
   39.7530   25.0125   40.1712 H   0  0  0  0  0  0  0  0  0  0  0  0
   39.6908   28.9139   38.5040 H   0  0  0  0  0  0  0  0  0  0  0  0
   37.3804   28.3883   39.4996 H   0  0  0  0  0  0  0  0  0  0  0  0
   38.3092   26.3114   43.7725 H   0  0  0  0  0  0  0  0  0  0  0  0
   38.6424   27.0564   42.1750 H   0  0  0  0  0  0  0  0  0  0  0  0
   35.8642   27.6349   42.8188 H   0  0  0  0  0  0  0  0  0  0  0  0
   40.2070   31.0182   42.3502 H   0  0  0  0  0  0  0  0  0  0  0  0
   39.3710   28.9623   43.5263 H   0  0  0  0  0  0  0  0  0  0  0  0
   36.5372   31.4000   40.2724 H   0  0  0  0  0  0  0  0  0  0  0  0
   37.3452   27.2153   45.1815 H   0  0  0  0  0  0  0  0  0  0  0  0
   37.1442   28.9877   44.9696 H   0  0  0  0  0  0  0  0  0  0  0  0
   35.7040   27.9141   44.9696 H   0  0  0  0  0  0  0  0  0  0  0  0
  1  2  1  0
  1 11  1  0
  3  2  1  0
  4  5  1  0
  4  3  1  0
  5  1  1  0
  6  5  1  0
  7  6  2  0
  8  7  1  0
  9  8  2  0
  9 10  1  0
 10  6  1  0
 11 12  1  0
 12 19  1  0
 13 14  2  0
 15 14  1  0
 15 12  1  0
 16 15  2  0
 17 18  2  0
 17 16  1  0
 18 13  1  0
  1 20  1  1
  2 21  1  0
  2 22  1  0
  3 23  1  0
  3 24  1  0
  4 25  1  0
  4 26  1  0
  5 27  1  1
  7 28  1  0
  9 29  1  0
 10 30  1  0
 11 31  1  0
 11 32  1  0
 12 33  1  6
 13 34  1  0
 14 35  1  0
 17 36  1  0
 19 37  1  0
 19 38  1  0
 19 39  1  0
M  ISO  8  20  13  21  13  22  13  23  13  24  13  25  13  26  13  27  13
M  ISO  8  28  14  29  14  30   9  31   8  32   8  33   8  34  14  35  14
M  ISO  4  36  14  37   8  38   8  39   8
M  END
>  <minimizedAffinity>  (1) 
-5.05211592

>  <minimizedRMSD>  (1) 
0.164705992

$$$$
