
     RDKit          3D

 39 41  0  0  1  0  0  0  0  0999 V2000
   37.8350   26.7240   42.8040 C   0  0  0  0  0  0  0  0  0  0  0  0
   37.0310   25.6300   42.1520 C   0  0  2  0  0  0  0  0  0  0  0  0
   37.6160   24.2610   42.3130 C   0  0  0  0  0  0  0  0  0  0  0  0
   37.3880   23.5290   41.0070 C   0  0  0  0  0  0  0  0  0  0  0  0
   36.6710   24.5130   40.1100 C   0  0  0  0  0  0  0  0  0  0  0  0
   37.0840   25.8660   40.6570 C   0  0  2  0  0  0  0  0  0  0  0  0
   38.4020   26.2800   40.1960 C   0  0  0  0  0  0  0  0  0  0  0  0
   39.6260   25.6670   40.3670 C   0  0  0  0  0  0  0  0  0  0  0  0
   40.7540   26.2450   39.8400 C   0  0  0  0  0  0  0  0  0  0  0  0
   40.5620   27.4750   39.1310 C   0  0  0  0  0  0  0  0  0  0  0  0
   38.7190   27.7180   39.2820 S   0  0  0  0  0  0  0  0  0  0  0  0
   36.8800   27.8680   43.1580 C   0  0  2  0  0  0  0  0  0  0  0  0
   39.1830   30.6730   42.0450 C   0  0  0  0  0  0  0  0  0  0  0  0
   38.7390   29.5150   42.7210 C   0  0  0  0  0  0  0  0  0  0  0  0
   37.4150   29.0740   42.4840 C   0  0  0  0  0  0  0  0  0  0  0  0
   36.6530   29.8170   41.6010 N   0  0  0  0  0  0  0  0  0  0  0  0
   37.1040   30.9060   40.9800 C   0  0  0  0  0  0  0  0  0  0  0  0
   38.3690   31.3340   41.2010 N   0  0  0  0  0  0  0  0  0  0  0  0
   36.8160   28.0440   44.6620 C   0  0  0  0  0  0  0  0  0  0  0  0
   38.6074   27.0844   42.1087 H   0  0  0  0  0  0  0  0  0  0  0  0
   38.3298   26.3455   43.7106 H   0  0  0  0  0  0  0  0  0  0  0  0
   36.0342   25.6633   42.6161 H   0  0  0  0  0  0  0  0  0  0  0  0
   38.6933   24.3323   42.5236 H   0  0  0  0  0  0  0  0  0  0  0  0
   37.1442   23.7272   43.1512 H   0  0  0  0  0  0  0  0  0  0  0  0
   38.3484   23.2316   40.5606 H   0  0  0  0  0  0  0  0  0  0  0  0
   36.8027   22.6091   41.1524 H   0  0  0  0  0  0  0  0  0  0  0  0
   35.5810   24.3801   40.1744 H   0  0  0  0  0  0  0  0  0  0  0  0
   36.9276   24.3865   39.0478 H   0  0  0  0  0  0  0  0  0  0  0  0
   36.4382   26.6911   40.3221 H   0  0  0  0  0  0  0  0  0  0  0  0
   39.6976   24.7203   40.9226 H   0  0  0  0  0  0  0  0  0  0  0  0
   41.7487   25.7897   39.9555 H   0  0  0  0  0  0  0  0  0  0  0  0
   41.3068   28.1100   38.6289 H   0  0  0  0  0  0  0  0  0  0  0  0
   35.8513   27.6680   42.8237 H   0  0  0  0  0  0  0  0  0  0  0  0
   40.2070   31.0393   42.2104 H   0  0  0  0  0  0  0  0  0  0  0  0
   39.4021   28.9723   43.4108 H   0  0  0  0  0  0  0  0  0  0  0  0
   36.4492   31.4566   40.2886 H   0  0  0  0  0  0  0  0  0  0  0  0
   37.1522   27.1194   45.1540 H   0  0  0  0  0  0  0  0  0  0  0  0
   37.4687   28.8771   44.9618 H   0  0  0  0  0  0  0  0  0  0  0  0
   35.7806   28.2632   44.9618 H   0  0  0  0  0  0  0  0  0  0  0  0
  1 12  1  0
  2  3  1  0
  2  1  1  0
  4  3  1  0
  5  6  1  0
  5  4  1  0
  6  2  1  0
  7  8  2  0
  7  6  1  0
  9  8  1  0
 10 11  1  0
 10  9  2  0
 11  7  1  0
 12 19  1  0
 13 14  2  0
 15 14  1  0
 15 12  1  0
 16 15  2  0
 17 18  2  0
 17 16  1  0
 18 13  1  0
  1 20  1  0
  1 21  1  0
  2 22  1  1
  3 23  1  0
  3 24  1  0
  4 25  1  0
  4 26  1  0
  5 27  1  0
  5 28  1  0
  6 29  1  1
  8 30  1  0
  9 31  1  0
 10 32  1  0
 12 33  1  6
 13 34  1  0
 14 35  1  0
 17 36  1  0
 19 37  1  0
 19 38  1  0
 19 39  1  0
M  ISO  8  20   8  21   8  22  13  23  13  24  13  25  13  26  13  27  13
M  ISO  8  28  13  29  13  30  14  31  14  32  14  33   8  34  14  35  14
M  ISO  4  36  14  37   8  38   8  39   8
M  END
>  <minimizedAffinity>  (1) 
-5.03456593

>  <minimizedRMSD>  (1) 
0.670443773

$$$$
