
     RDKit          3D

 49 52  0  0  1  0  0  0  0  0999 V2000
   37.5440   27.5570   43.0160 C   0  0  2  0  0  0  0  0  0  0  0  0
   39.2950   25.9620   42.2240 C   0  0  1  0  0  0  0  0  0  0  0  0
   39.1330   24.5520   41.5760 C   0  0  0  0  0  0  0  0  0  0  0  0
   37.7800   24.0940   41.9130 C   0  0  0  0  0  0  0  0  0  0  0  0
   37.0250   25.4130   42.2250 C   0  0  0  0  0  0  0  0  0  0  0  0
   38.0290   26.1400   42.9210 C   0  0  2  0  0  0  0  0  0  0  0  0
   41.9070   26.9980   44.6980 C   0  0  0  0  0  0  0  0  0  0  0  0
   40.6880   26.9420   44.0230 C   0  0  0  0  0  0  0  0  0  0  0  0
   40.5230   26.0600   42.9530 C   0  0  0  0  0  0  0  0  0  0  0  0
   41.5720   25.2670   42.5940 N   0  0  0  0  0  0  0  0  0  0  0  0
   42.7480   25.3240   43.2500 C   0  0  0  0  0  0  0  0  0  0  0  0
   42.9240   26.1760   44.2890 N   0  0  0  0  0  0  0  0  0  0  0  0
   36.6390   27.8750   44.1410 C   0  0  0  0  0  0  0  0  0  0  0  0
   36.9400   27.8180   41.7310 C   0  0  0  0  0  0  0  0  0  0  0  0
   36.9410   29.1990   41.4370 N   0  0  0  0  0  0  0  0  0  0  0  0
   35.9330   29.9630   40.9470 C   0  0  0  0  0  0  0  0  0  0  0  0
   36.4250   31.2040   40.6420 C   0  0  0  0  0  0  0  0  0  0  0  0
   37.7380   31.1500   40.9680 N   0  0  0  0  0  0  0  0  0  0  0  0
   38.0530   29.9290   41.4550 C   0  0  0  0  0  0  0  0  0  0  0  0
   39.4450   30.0340   41.7600 C   0  0  0  0  0  0  0  0  0  0  0  0
   40.3640   29.2200   41.0670 C   0  0  0  0  0  0  0  0  0  0  0  0
   41.7260   29.1680   41.2340 C   0  0  0  0  0  0  0  0  0  0  0  0
   42.1940   30.0290   42.2010 C   0  0  0  0  0  0  0  0  0  0  0  0
   41.4240   30.8820   42.9570 C   0  0  0  0  0  0  0  0  0  0  0  0
   40.0760   30.8350   42.6900 C   0  0  0  0  0  0  0  0  0  0  0  0
   38.3939   28.2159   43.2473 H   0  0  0  0  0  0  0  0  0  0  0  0
   39.4327   26.8129   41.5406 H   0  0  0  0  0  0  0  0  0  0  0  0
   39.8823   23.8576   41.9838 H   0  0  0  0  0  0  0  0  0  0  0  0
   39.2798   24.5945   40.4867 H   0  0  0  0  0  0  0  0  0  0  0  0
   37.3193   23.5674   41.0642 H   0  0  0  0  0  0  0  0  0  0  0  0
   37.7628   23.3796   42.7493 H   0  0  0  0  0  0  0  0  0  0  0  0
   36.7166   25.9298   41.3042 H   0  0  0  0  0  0  0  0  0  0  0  0
   36.0893   25.2786   42.7875 H   0  0  0  0  0  0  0  0  0  0  0  0
   38.2104   25.7878   43.9472 H   0  0  0  0  0  0  0  0  0  0  0  0
   42.0493   27.6886   45.5423 H   0  0  0  0  0  0  0  0  0  0  0  0
   39.8568   27.5923   44.3333 H   0  0  0  0  0  0  0  0  0  0  0  0
   43.5758   24.6703   42.9379 H   0  0  0  0  0  0  0  0  0  0  0  0
   37.1591   27.6922   45.0929 H   0  0  0  0  0  0  0  0  0  0  0  0
   36.3400   28.9320   44.0836 H   0  0  0  0  0  0  0  0  0  0  0  0
   35.7445   27.2373   44.0836 H   0  0  0  0  0  0  0  0  0  0  0  0
   37.5069   27.2853   40.9533 H   0  0  0  0  0  0  0  0  0  0  0  0
   35.8973   27.4688   41.7590 H   0  0  0  0  0  0  0  0  0  0  0  0
   34.8901   29.6385   40.8160 H   0  0  0  0  0  0  0  0  0  0  0  0
   35.8735   32.0587   40.2233 H   0  0  0  0  0  0  0  0  0  0  0  0
   39.9413   28.5492   40.3046 H   0  0  0  0  0  0  0  0  0  0  0  0
   42.3800   28.5026   40.6514 H   0  0  0  0  0  0  0  0  0  0  0  0
   43.2785   30.0353   42.3851 H   0  0  0  0  0  0  0  0  0  0  0  0
   41.8539   31.5508   43.7172 H   0  0  0  0  0  0  0  0  0  0  0  0
   39.4335   31.5059   43.2791 H   0  0  0  0  0  0  0  0  0  0  0  0
  1 13  1  0
  2  6  1  0
  2  9  1  0
  3  4  1  0
  3  2  1  0
  4  5  1  0
  5  6  1  0
  6  1  1  0
  8  7  2  0
  9  8  1  0
 10  9  2  0
 10 11  1  0
 11 12  2  0
 12  7  1  0
 14  1  1  0
 15 19  1  0
 15 14  1  0
 16 15  1  0
 17 16  2  0
 17 18  1  0
 18 19  2  0
 19 20  1  0
 20 25  2  0
 21 22  2  0
 21 20  1  0
 22 23  1  0
 23 24  2  0
 25 24  1  0
  1 26  1  1
  2 27  1  6
  3 28  1  0
  3 29  1  0
  4 30  1  0
  4 31  1  0
  5 32  1  0
  5 33  1  0
  6 34  1  1
  7 35  1  0
  8 36  1  0
 11 37  1  0
 13 38  1  0
 13 39  1  0
 13 40  1  0
 14 41  1  0
 14 42  1  0
 16 43  1  0
 17 44  1  0
 21 45  1  0
 22 46  1  0
 23 47  1  0
 24 48  1  0
 25 49  1  0
M  ISO  8  26   8  27  13  28  13  29  13  30  13  31  13  32  13  33  13
M  ISO  8  34  13  35  14  36  14  37  14  38   8  39   8  40   8  41   8
M  ISO  8  42   8  43  14  44  14  45  14  46  14  47  14  48  14  49  14
M  END
>  <minimizedAffinity>  (1) 
-5.8488102

>  <minimizedRMSD>  (1) 
0.660776854

$$$$
