
     RDKit          3D

 44 46  0  0  1  0  0  0  0  0999 V2000
   37.0240   25.7610   41.8700 C   0  0  2  0  0  0  0  0  0  0  0  0
   37.4560   24.3570   42.2340 C   0  0  0  0  0  0  0  0  0  0  0  0
   37.4350   23.5550   40.9380 C   0  0  0  0  0  0  0  0  0  0  0  0
   36.8580   24.5230   39.9250 C   0  0  0  0  0  0  0  0  0  0  0  0
   37.4210   25.8590   40.4280 C   0  0  1  0  0  0  0  0  0  0  0  0
   36.9670   26.9480   39.6580 N   0  0  0  0  0  0  0  0  0  0  0  0
   36.0240   26.7140   38.6260 C   0  0  0  0  0  0  0  0  0  0  0  0
   36.6740   26.9860   37.3050 C   0  0  0  0  0  0  0  0  0  0  0  0
   38.0840   27.3880   37.5890 C   0  0  0  0  0  0  0  0  0  0  0  0
   38.1150   27.6120   39.0770 C   0  0  0  0  0  0  0  0  0  0  0  0
   37.8390   26.8130   42.6150 C   0  0  0  0  0  0  0  0  0  0  0  0
   36.8550   27.9130   43.0260 C   0  0  2  0  0  0  0  0  0  0  0  0
   38.9750   30.8110   41.8020 C   0  0  0  0  0  0  0  0  0  0  0  0
   38.6270   29.6260   42.4920 C   0  0  0  0  0  0  0  0  0  0  0  0
   37.2980   29.1430   42.3430 C   0  0  0  0  0  0  0  0  0  0  0  0
   36.4430   29.8760   41.5320 N   0  0  0  0  0  0  0  0  0  0  0  0
   36.8020   30.9820   40.9000 C   0  0  0  0  0  0  0  0  0  0  0  0
   38.0720   31.4620   41.0280 N   0  0  0  0  0  0  0  0  0  0  0  0
   36.8600   28.0750   44.5330 C   0  0  0  0  0  0  0  0  0  0  0  0
   35.9613   25.9300   42.0983 H   0  0  0  0  0  0  0  0  0  0  0  0
   38.4706   24.3685   42.6587 H   0  0  0  0  0  0  0  0  0  0  0  0
   36.7885   23.9157   42.9888 H   0  0  0  0  0  0  0  0  0  0  0  0
   38.4512   23.2467   40.6511 H   0  0  0  0  0  0  0  0  0  0  0  0
   36.8507   22.6267   41.0209 H   0  0  0  0  0  0  0  0  0  0  0  0
   35.7582   24.5172   39.9441 H   0  0  0  0  0  0  0  0  0  0  0  0
   37.1175   24.2899   38.8818 H   0  0  0  0  0  0  0  0  0  0  0  0
   38.5009   26.0435   40.3287 H   0  0  0  0  0  0  0  0  0  0  0  0
   35.6875   25.6674   38.6635 H   0  0  0  0  0  0  0  0  0  0  0  0
   35.1553   27.3759   38.7575 H   0  0  0  0  0  0  0  0  0  0  0  0
   36.1466   27.7989   36.7843 H   0  0  0  0  0  0  0  0  0  0  0  0
   36.6411   26.0958   36.6597 H   0  0  0  0  0  0  0  0  0  0  0  0
   38.7826   26.5887   37.3007 H   0  0  0  0  0  0  0  0  0  0  0  0
   38.3882   28.2811   37.0234 H   0  0  0  0  0  0  0  0  0  0  0  0
   39.0406   27.1920   39.4977 H   0  0  0  0  0  0  0  0  0  0  0  0
   38.0846   28.6887   39.3001 H   0  0  0  0  0  0  0  0  0  0  0  0
   38.3079   26.3700   43.5060 H   0  0  0  0  0  0  0  0  0  0  0  0
   38.6441   27.2148   41.9822 H   0  0  0  0  0  0  0  0  0  0  0  0
   35.8215   27.6696   42.7387 H   0  0  0  0  0  0  0  0  0  0  0  0
   39.9955   31.2110   41.8950 H   0  0  0  0  0  0  0  0  0  0  0  0
   39.3582   29.0973   43.1211 H   0  0  0  0  0  0  0  0  0  0  0  0
   36.0746   31.5151   40.2702 H   0  0  0  0  0  0  0  0  0  0  0  0
   36.8294   27.0835   45.0085 H   0  0  0  0  0  0  0  0  0  0  0  0
   37.7748   28.6018   44.8421 H   0  0  0  0  0  0  0  0  0  0  0  0
   35.9794   28.6572   44.8421 H   0  0  0  0  0  0  0  0  0  0  0  0
  1  2  1  0
  1 11  1  0
  3  2  1  0
  4  5  1  0
  4  3  1  0
  5  1  1  0
  6  7  1  0
  6  5  1  0
  8  9  1  0
  8  7  1  0
  9 10  1  0
 10  6  1  0
 11 12  1  0
 12 19  1  0
 13 14  2  0
 15 14  1  0
 15 12  1  0
 16 15  2  0
 17 18  2  0
 17 16  1  0
 18 13  1  0
  1 20  1  6
  2 21  1  0
  2 22  1  0
  3 23  1  0
  3 24  1  0
  4 25  1  0
  4 26  1  0
  5 27  1  1
  7 28  1  0
  7 29  1  0
  8 30  1  0
  8 31  1  0
  9 32  1  0
  9 33  1  0
 10 34  1  0
 10 35  1  0
 11 36  1  0
 11 37  1  0
 12 38  1  6
 13 39  1  0
 14 40  1  0
 17 41  1  0
 19 42  1  0
 19 43  1  0
 19 44  1  0
M  ISO  8  20  13  21  13  22  13  23  13  24  13  25  13  26  13  27  13
M  ISO  8  28  13  29  13  30  13  31  13  32  13  33  13  34  13  35  13
M  ISO  8  36   8  37   8  38   8  39  14  40  14  41  14  42   8  43   8
M  ISO  1  44   8
M  END
>  <minimizedAffinity>  (1) 
-4.88836813

>  <minimizedRMSD>  (1) 
0.683156312

$$$$
